16
gdb 51971	2.75665	0.77308	0.62439	2.3653	71.24	-0.2621	-0.0498	0.2122	1674.0588	0.120596	-437.924791	-437.914934	-437.91399	-437.962049	32.672	
O	-0.9609499737	 1.1758318555	-0.048848718	-0.231169
C	-0.0250326381	 1.8829596315	 0.2157846498	 0.155858
C	 1.3481205792	 1.7714210391	-0.408284003	-0.27612
C	 1.8236412312	 3.1106512568	-0.9793727374	-0.325795
C	 3.303756473	 3.1185502097	-1.3125148789	 0.389584
O	 4.0613395314	 2.2368589444	-1.0013000692	-0.275778
C	 3.8397015443	 4.3184130222	-2.1310103033	-0.4286
C	 3.1828760835	 5.5904033279	-1.858308977	 0.259267
N	 2.6478074872	 6.5865803488	-1.6203371685	-0.300744
H	-0.1154857774	 2.695411096	 0.9758860333	 0.076445
H	 2.0529998237	 1.4583026214	 0.3732497775	 0.146845
H	 1.3324984971	 0.9892850216	-1.1708376938	 0.134963
H	 1.2560678827	 3.3950932598	-1.8746955008	 0.146203
H	 1.6503991719	 3.930956278	-0.2671901511	 0.160504
H	 4.9151532314	 4.3923476296	-1.9511915619	 0.184853
H	 3.7056431127	 4.0694889976	-3.1921819977	 0.183685
40.5558	51.9377	66.3309	75.8264	129.2978	189.947	300.0448	356.1689	376.8497	459.3993	501.6731	507.974	635.5378	750.6483	801.7416	815.5252	915.6831	972.211	1020.1259	1076.0688	1083.3518	1122.8912	1177.9795	1220.249	1268.7959	1288.992	1309.609	1381.7374	1430.8551	1436.7332	1442.506	1464.4998	1827.8209	1841.1696	2362.8953	2850.0537	3018.753	3038.3319	3039.5846	3057.4056	3111.5153	3116.3393
O=CCCC(=O)CC#N	O=CCCC(=O)CC#N	
InChI=1S/C6H7NO2/c7-4-3-6(9)2-1-5-8/h5H,1-3H2	InChI=1S/C6H7NO2/c7-4-3-6(9)2-1-5-8/h5H,1-3H2
