20
gdb 14057	3.10069	1.62949	1.42619	1.6215	75.29	-0.2169	0.0743	0.2912	1005.2446	0.175865	-348.975868	-348.967078	-348.966134	-349.009139	32.139	
C	-0.0007586746	 0.8154713039	-2.1808984921	-0.411129
C	 0.0236449056	-0.2796890348	-1.1363956733	-0.099994
C	 1.2703357007	-0.6294270011	-0.3139097094	-0.099993
C	 2.5943632408	 0.0874506692	-0.4688117431	-0.411129
C	 0.0857499906	 0.0218134608	 0.3281161535	 0.439523
C	-0.0248114331	 1.3553030683	 1.0627300014	-0.357511
C	-0.9005573487	 0.5526605987	 2.0488483636	-0.072375
O	-0.735274689	-0.6612462083	 1.28213794	-0.308212
H	 0.5669959548	 1.6964651665	-1.8674329556	 0.115119
H	 0.4251633836	 0.4715764135	-3.1300855956	 0.118696
H	-1.027804113	 1.1424513661	-2.3784362923	 0.118498
H	-0.5937157976	-1.1424425984	-1.3767184019	 0.092493
H	 1.3582539161	-1.6900332022	-0.0889257512	 0.092493
H	 2.465383498	 1.1638972467	-0.615041038	 0.115119
H	 3.2174233949	-0.0484547852	 0.422302695	 0.118498
H	 3.1574430228	-0.2949434626	-1.3275000789	 0.118696
H	 0.9082345493	 1.7452116759	 1.4748705902	 0.111897
H	-0.5390624437	 2.1512259116	 0.5200367558	 0.111897
H	-0.5003995412	 0.449644621	 3.0641077556	 0.103707
H	-1.9520451364	 0.8568817802	 2.1064074464	 0.103707
82.0963	146.1605	152.1729	165.6019	176.6998	244.4753	255.0416	432.0632	464.6436	517.5651	573.3144	769.2558	790.3085	820.6213	868.9983	894.1242	967.3937	1000.4549	1002.9267	1020.0821	1027.7957	1084.0115	1108.689	1149.5662	1150.2289	1161.6446	1170.6753	1202.8714	1217.7453	1250.1361	1312.863	1357.7993	1361.1107	1410.3757	1419.463	1463.6864	1486.7226	1494.0414	1494.7407	1498.9309	1514.2567	1533.5267	3022.1276	3026.8387	3031.0455	3063.3713	3070.5988	3085.2322	3086.9396	3096.059	3105.7927	3121.9699	3129.8345	3141.0757
CC1C(C)C11CCO1	C[C@H]1[C@@H](C)[C@]21CCO2	
InChI=1S/C7H12O/c1-5-6(2)7(5)3-4-8-7/h5-6H,3-4H2,1-2H3	InChI=1S/C7H12O/c1-5-6(2)7(5)3-4-8-7/h5-6H,3-4H2,1-2H3/t5-,6+,7+
