23
gdb 117351	4.24136	0.6373	0.6134	3.3048	84.12	-0.243	-0.0095	0.2334	1961.4193	0.201532	-425.438815	-425.427348	-425.426404	-425.476798	39.843	
C	-0.1137090009	 1.4402322984	-0.1744344325	-0.225547
O	 0.0417290262	 0.057867981	 0.0458248632	-0.210309
C	-1.1350133215	-0.6596659368	-0.1600659409	-0.150557
C	-0.9025439301	-2.1536066027	 0.0517400956	 0.353983
O	 0.1983174878	-2.6166508827	 0.2182627679	-0.286133
C	-2.1706135305	-3.0013305587	 0.0510710293	-0.30574
C	-1.932468565	-4.4914829222	-0.2350198391	 0.054793
C	-3.1792366032	-5.316487783	 0.1059577139	-0.397546
C	-1.4968948293	-4.7170728888	-1.6891215079	-0.390472
H	 0.8558234472	 1.9077833614	 0.010932749	 0.134524
H	-0.4225822	 1.6574802637	-1.2093949385	 0.104896
H	-0.8589607853	 1.8831185222	 0.5055029291	 0.104174
H	-1.9474544806	-0.3271066179	 0.5131930877	 0.10154
H	-1.5236857197	-0.5274307652	-1.1885662117	 0.106408
H	-2.6208618501	-2.8759926726	 1.0475220434	 0.123565
H	-2.8995111964	-2.5750841918	-0.6525547763	 0.104064
H	-1.1099797581	-4.8105866299	 0.415298994	 0.099418
H	-4.0348149	-5.0168025358	-0.5117067145	 0.109084
H	-3.0031260447	-6.3825045208	-0.0709898469	 0.11386
H	-3.4681103371	-5.1945106553	 1.1555539691	 0.108902
H	-1.2999068158	-5.7774314672	-1.876711635	 0.112872
H	-2.2803459965	-4.3979571406	-2.3880053727	 0.103588
H	-0.5835034365	-4.1624879346	-1.9198700262	 0.130633
31.7118	64.5205	84.9629	93.3914	133.2335	213.9399	231.6552	233.5177	255.5763	287.2344	349.287	374.6885	412.9206	432.6343	481.1833	705.0283	798.5846	839.2341	885.8717	932.2641	951.3347	969.5671	992.4869	998.2313	1078.0512	1126.871	1163.0399	1175.3213	1183.9059	1196.3446	1238.0614	1241.1075	1272.9035	1311.1197	1363.8945	1385.5885	1402.3862	1407.51	1422.7328	1449.2164	1467.1591	1485.9062	1488.7256	1491.2701	1495.0475	1506.4692	1512.0509	1515.8337	1826.9744	2923.6269	2945.2371	2969.4334	3001.7086	3012.9842	3021.5547	3026.2107	3033.1695	3050.6856	3085.9892	3094.0421	3099.0518	3117.9342	3120.2988
COCC(=O)CC(C)C	COCC(=O)CC(C)C	
InChI=1S/C7H14O2/c1-6(2)4-7(8)5-9-3/h6H,4-5H2,1-3H3	InChI=1S/C7H14O2/c1-6(2)4-7(8)5-9-3/h6H,4-5H2,1-3H3
