14
gdb 132879	3.20003	1.40749	0.97753	2.5335	72.07	-0.1855	-0.0278	0.1578	1092.8371	0.102199	-474.195248	-474.187467	-474.186522	-474.227546	29.752	
N	 0.0294365199	 1.2770870239	-0.1731276909	-0.543466
C	-0.0181569718	-0.0619468896	-0.0623709924	 0.401915
N	-1.1540057722	-0.7054366431	-0.0362576547	-0.394932
C	-1.1116827563	-2.0516809768	 0.0780487371	 0.277779
F	-2.3006994267	-2.6544771486	 0.0994916763	-0.080835
C	 0.0184887585	-2.7802554072	 0.1671285501	-0.201468
N	 1.2236851656	-2.081036584	 0.1378281913	-0.367012
C	 1.3148229369	-0.7152521607	 0.025117325	 0.347768
N	 2.3731234504	 0.0197752729	-0.0110948423	-0.581182
H	 0.9407639276	 1.7072259081	-0.1889580857	 0.283797
H	-0.8202614566	 1.8078201334	-0.240817496	 0.266994
H	 0.0580707269	-3.8541866567	 0.2584463971	 0.133016
H	 2.0843434538	-2.6012888354	 0.2026796332	 0.256981
H	 3.2329144242	-0.5241406262	 0.055488382	 0.200645
88.1656	155.3157	225.0431	329.9677	346.0767	379.1634	438.4906	486.1352	532.2054	558.2125	591.8584	608.532	645.4065	716.8764	735.1032	772.0858	802.8454	807.595	979.6876	1076.5684	1120.6934	1199.5083	1278.182	1360.1022	1403.7209	1426.833	1475.2978	1561.6952	1659.1814	1680.6867	1706.9243	3254.7227	3478.5327	3593.4203	3637.4328	3748.0739
NC1=NC(F)=CNC1=N	NC1=C(NCC(=N1)F)[NH]	
InChI=1S/C4H5FN4/c5-2-1-8-3(6)4(7)9-2/h1H,(H2,6,8)(H2,7,9)	InChI=1S/C4H6FN4/c5-2-1-8-3(6)4(7)9-2/h6,8H,1H2,(H2,7,9)
