14
gdb 5050	3.75145	2.02296	1.31425	4.2873	76.51	-0.235	-0.0798	0.1552	871.8825	0.110156	-345.450882	-345.444584	-345.44364	-345.481585	23.994	
O	 0.0033902383	-0.0992807456	 0.002449378	-0.369135
C	-0.0132755898	 1.1287454291	 0.0093411037	 0.320632
C	-1.3050509776	 1.8309221221	 0.0303675356	-0.151737
C	-1.6023290908	 3.1540840997	 0.0408600347	-0.072065
C	-0.7358849342	 4.2930281335	 0.0347731608	-0.085405
C	 0.6231619614	 4.3115727746	 0.0169272228	-0.085405
C	 1.5202149425	 3.1966909331	-0.0001377508	-0.072065
C	 1.2589708992	 1.8659079023	-0.0032809617	-0.151737
H	-2.1350618783	 1.1287937283	 0.0380657021	 0.117303
H	-2.6625321392	 3.3980027802	 0.0562964999	 0.109069
H	-1.2380763634	 5.256618208	 0.046011046	 0.107086
H	 1.0990015768	 5.2885078343	 0.0153201125	 0.107086
H	 2.5734091154	 3.4694466699	-0.0124528507	 0.109069
H	 2.1077430797	 1.1866863405	-0.0176108929	 0.117303
75.2021	268.5653	338.3423	390.89	402.1285	495.1413	592.3986	601.0303	712.8512	814.0167	846.8529	847.841	879.6846	935.893	945.2971	1019.3268	1035.883	1045.114	1060.259	1233.8353	1242.7935	1281.6551	1319.767	1433.7277	1447.0885	1500.84	1578.528	1655.3379	1668.0558	1708.4476	3142.3002	3145.0761	3160.6592	3172.4914	3174.0321	3181.5367
O=C1C=CC=CC=C1	O=c1cccccc1	
InChI=1S/C7H6O/c8-7-5-3-1-2-4-6-7/h1-6H	InChI=1S/C7H6O/c8-7-5-3-1-2-4-6-7/h1-6H
