15
gdb 26068	3.34758	1.20952	0.94082	2.8687	69.91	-0.26	-0.0119	0.2481	1187.0501	0.113638	-416.855447	-416.847444	-416.8465	-416.888814	28.62	
C	-0.0054971418	 1.5444119697	-0.162935722	-0.390798
C	-0.0249841665	 0.0288222915	 0.1442279815	-0.262689
C	 0.6480568376	-0.2603552931	 1.4153844846	 0.284947
N	 1.169656116	-0.4779919502	 2.4230908475	-0.328783
C	-1.4236090192	-0.525599425	 0.1480318764	 0.261081
C	-2.1417815124	-1.1099149344	 1.1367189206	-0.101679
O	-3.3704385222	-1.4307219608	 0.6303188554	-0.13949
C	-3.3227658044	-1.0157048103	-0.6533178562	 0.074238
N	-2.2038156191	-0.4731895622	-1.0038305791	-0.309179
H	 1.0219814128	 1.907686879	-0.2385775314	 0.136155
H	-0.5197933859	 1.7177793976	-1.1100409589	 0.152887
H	-0.5187960257	 2.1017927846	 0.6242575918	 0.139317
H	 0.5381272021	-0.4844406695	-0.646251798	 0.148497
H	-1.9534013505	-1.3621750826	 2.1653051515	 0.175664
H	-4.2062530308	-1.1761750142	-1.2508828537	 0.159832
51.932	119.6541	163.3149	211.6438	233.4308	342.8959	390.7935	483.8778	562.9411	641.17	683.9348	734.1704	794.6258	854.141	862.8144	938.6884	974.6324	1034.4731	1081.5384	1096.3639	1113.4363	1140.6617	1225.4608	1247.8349	1309.7551	1334.7477	1357.1112	1406.1364	1492.3672	1498.7548	1557.3008	1625.4862	2362.693	3029.5899	3056.5082	3136.4031	3147.1381	3278.8945	3304.211
CC(C#N)C1=COC=N1	C[C@@H](C#N)c1cocn1	
InChI=1S/C6H6N2O/c1-5(2-7)6-3-9-4-8-6/h3-5H,1H3	InChI=1S/C6H6N2O/c1-5(2-7)6-3-9-4-8-6/h3-5H,1H3/t5-/m0/s1
