13
gdb 26919	3.12884	1.44362	0.98784	3.2855	67.06	-0.2046	-0.0514	0.1532	1081.2487	0.088367	-493.759471	-493.751711	-493.750767	-493.791561	29.231	
O	 0.0405073382	 1.3363113961	-0.0028417796	-0.418759
C	-0.0296131663	-0.0069065345	-0.005725292	 0.379388
C	-1.2238108917	-0.6598228301	-0.0026833568	 0.156166
O	-2.4360154398	-0.0231694967	 0.0036791802	-0.449364
C	-1.1699057964	-2.0724016149	-0.0063792133	-0.08474
C	 0.0142192263	-2.7505650572	-0.0126175771	-0.28833
C	 1.277005333	-2.0696650813	-0.0158434608	 0.423219
O	 2.3969001777	-2.4963204843	-0.0212718839	-0.340543
O	 1.1437021951	-0.6295705589	-0.0118508945	-0.266306
H	 0.9718575825	 1.5928918205	-0.0054878129	 0.320365
H	-2.2818107581	 0.9281853835	 0.0045263465	 0.308296
H	-2.1132367155	-2.6093952077	-0.0040511554	 0.133545
H	 0.0566962751	-3.8311369745	-0.0154445406	 0.127064
116.2152	197.2762	251.2599	280.9887	319.9117	351.9543	354.9703	442.3112	463.6805	507.2171	607.5007	659.3645	727.5769	731.9315	790.3646	823.8918	830.5848	988.4938	1040.8232	1113.6766	1201.1567	1204.0746	1299.8081	1364.7985	1408.1147	1499.2005	1586.0317	1725.055	1863.0821	3190.436	3231.673	3797.9349	3817.1837
OC1=C(O)C=CC(=O)O1	Oc1c(O)ccc(=O)o1	
InChI=1S/C5H4O4/c6-3-1-2-4(7)9-5(3)8/h1-2,6,8H	InChI=1S/C5H4O4/c6-3-1-2-4(7)9-5(3)8/h1-2,6,8H
