18
gdb 12246	3.30253	1.52421	1.16288	4.1357	68.03	-0.2676	0.0135	0.2812	1068.2517	0.153005	-384.981696	-384.973174	-384.97223	-385.014918	30.598	
C	 0.2340803094	 1.5697898646	 0.0377957703	-0.386712
C	 0.0885574911	 0.0444782182	 0.0379187908	-0.191426
C	 0.4658284065	-0.5701713579	-1.2954313023	 0.139221
O	 1.9011754154	-0.3874019567	-1.5911369235	-0.259704
C	 2.1137094871	-1.7400978032	-1.6581756471	 0.452612
O	 3.1439137761	-2.3067053444	-1.837803422	-0.327433
C	 0.6455464063	-2.1065305804	-1.4235167352	-0.215792
C	 0.3349914047	-3.0476770186	-0.2657694858	-0.412587
H	 1.26373709	 1.8573345386	-0.1921261801	 0.142847
H	-0.4192928791	 2.0304840407	-0.7110770383	 0.117426
H	-0.0277721217	 1.9878853668	 1.0137501909	 0.118199
H	 0.7142953999	-0.3880699403	 0.8262459744	 0.10995
H	-0.9475663688	-0.2390465479	 0.2632024062	 0.105894
H	-0.116962015	-0.1246948688	-2.1082037433	 0.092559
H	 0.2010422902	-2.4889712667	-2.3478016839	 0.114811
H	 0.7818174921	-2.7087740752	 0.672328818	 0.131622
H	-0.744584846	-3.1444766018	-0.1162340965	 0.125539
H	 0.7363179618	-4.041315777	-0.4838946227	 0.142972
85.4641	106.2051	165.2249	201.672	214.5247	229.4355	300.6149	414.9717	464.0682	547.0339	680.759	735.481	782.2637	817.9928	858.8075	887.2589	967.9343	1030.021	1058.9701	1070.7445	1090.6529	1135.6319	1163.5524	1185.205	1232.8595	1282.9913	1307.1159	1346.2168	1358.074	1409.8781	1412.9571	1417.3784	1473.3926	1497.0444	1498.2004	1501.2371	1508.1	1932.2162	3030.581	3039.5419	3047.1233	3052.1261	3067.9797	3077.8381	3108.9808	3115.9533	3123.0186	3126.0374
CCC1OC(=O)C1C	CC[C@H]1OC(=O)[C@H]1C	
InChI=1S/C6H10O2/c1-3-5-4(2)6(7)8-5/h4-5H,3H2,1-2H3	InChI=1S/C6H10O2/c1-3-5-4(2)6(7)8-5/h4-5H,3H2,1-2H3/t4-,5+/m0/s1
