16
gdb 35636	3.35348	1.3801	1.08415	4.7171	73.56	-0.2618	-0.02	0.2417	1079.5426	0.126016	-400.754858	-400.747516	-400.746572	-400.78678	28.211	
N	 0.0977876338	-1.1684189983	 0.0687600942	-0.319104
C	 0.0549094734	-0.0138371493	 0.0470838257	 0.270164
C	-0.0027680608	 1.4496133203	 0.0205586392	-0.190627
C	-0.8209952042	 1.9950819855	 1.2224967596	-0.265024
C	-0.7348447124	 3.4952761045	 1.3163969892	-0.105231
C	 0.3586363435	 4.165250266	 0.9495714748	-0.032903
C	 1.5467678576	 3.4526907381	 0.4198079899	-0.014992
O	 2.0379706384	 2.3260285958	 1.1917331807	-0.240857
C	 1.3948313338	 2.0617528386	-0.0410304298	 0.049778
H	-0.5105444832	 1.737952867	-0.9103328099	 0.134965
H	-1.8595289132	 1.6669841599	 1.1259269795	 0.126596
H	-0.4305835837	 1.5425221495	 2.1405382751	 0.155868
H	-1.5932997399	 4.0225579668	 1.7210975071	 0.109008
H	 0.4116209946	 5.2459715622	 1.029427853	 0.102404
H	 2.3415457614	 4.056814366	-0.0111646001	 0.105376
H	 2.0382469209	 1.6799431075	-0.8332532582	 0.114579
98.1143	149.1618	222.9127	286.8933	343.0255	427.0592	503.0948	531.6618	555.5095	662.2417	708.7342	718.8988	825.2097	862.202	912.7476	944.5164	959.6731	985.4081	1017.5895	1042.0398	1050.3973	1127.4184	1136.2639	1191.7565	1214.5784	1279.6111	1300.8658	1324.28	1339.3254	1382.6533	1415.1321	1455.5256	1475.5044	1708.1948	2359.9414	3021.091	3052.9057	3095.9177	3117.6422	3143.692	3171.1437	3193.9266
N#CC1CC=CC2OC12	N#C[C@H]1CC=C[C@H]2O[C@@H]12	
InChI=1S/C7H7NO/c8-4-5-2-1-3-6-7(5)9-6/h1,3,5-7H,2H2	InChI=1S/C7H7NO/c8-4-5-2-1-3-6-7(5)9-6/h1,3,5-7H,2H2/t5-,6-,7+/m1/s1
