17
gdb 34068	3.95216	1.42708	1.41568	1.6814	76.63	-0.2372	0.0353	0.2725	968.3018	0.137366	-384.652841	-384.646064	-384.64512	-384.683664	28.513	
C	 0.0000676566	-1.1293295085	-0.049786487	-0.307768
C	-0.0045216349	 0.0715628183	-0.0276857407	 0.085832
C	 0.0163348055	 1.5129107795	 0.0428846695	 0.263046
C	-0.6705533239	 2.1954476895	 1.2618961084	-0.255829
C	-0.4759322065	 3.6185516048	 0.7634139693	-0.130029
C	 0.8365704901	 3.6383136552	-0.0283770376	-0.130033
C	 1.3995812439	 2.226616646	 0.0130646017	-0.255817
C	-0.4861603224	 3.4844029575	-0.7408597694	 0.094665
O	-0.6681355164	 2.1226594313	-1.0765018059	-0.290168
H	-0.0005261262	-2.1909165509	-0.0775072412	 0.184152
H	-1.7203425617	 1.902905318	 1.3395846899	 0.115585
H	-0.1548108703	 1.9723872218	 2.1989283675	 0.10964
H	-0.8618388911	 4.4871631588	 1.2790200786	 0.093049
H	 1.4533080426	 4.5220154877	-0.1176303475	 0.093048
H	 1.9928659007	 2.0047307995	 0.9033211399	 0.10964
H	 1.9640845333	 1.9583781473	-0.8830715188	 0.115583
H	-0.9198720395	 4.1821418543	-1.4423835865	 0.105402
150.7384	157.8465	396.5339	423.3423	492.232	521.1403	535.2095	570.8249	624.3913	670.2329	680.1919	710.2352	792.6891	808.2469	808.7078	900.3893	901.0043	970.4531	975.4798	993.2807	1001.3482	1044.8804	1048.0088	1086.207	1091.2817	1097.1216	1166.1445	1171.8449	1194.0906	1256.68	1282.0184	1296.1269	1332.012	1384.4341	1477.8339	1496.0524	2250.8647	3066.4788	3072.2225	3121.3609	3125.7876	3206.1064	3211.8243	3229.7647	3503.0944
C#CC12CC3C(C1)C3O2	C#C[C@@]12C[C@H]3[C@@H](C1)[C@H]3O2	
InChI=1S/C8H8O/c1-2-8-3-5-6(4-8)7(5)9-8/h1,5-7H,3-4H2	InChI=1S/C8H8O/c1-2-8-3-5-6(4-8)7(5)9-8/h1,5-7H,3-4H2/t5-,6+,7-,8+
