20
gdb 115104	2.77301	1.3089	1.04553	1.4772	75.54	-0.2488	0.0172	0.266	1215.1724	0.171354	-440.302454	-440.293298	-440.292354	-440.336562	33.799	
C	 0.0080921882	 1.5462784253	-0.0615467993	-0.39121
C	 0.0026230029	 0.0165746338	-0.0061933058	-0.188815
C	-1.3935241375	-0.5853317953	 0.0663727625	 0.130701
O	-2.1180779321	-0.146022456	-1.1099878471	-0.243812
C	-3.2120518012	-0.8638868528	-1.4554907197	 0.11105
N	-3.6468611708	-1.9517375052	-0.9771348914	-0.272352
C	-2.8774652292	-2.5803226675	 0.0987329912	-0.1906
C	-1.4181547927	-2.118800513	 0.134222965	 0.075194
O	-0.6535250329	-2.7035919503	-0.9115135272	-0.436684
H	 1.0316199243	 1.9284381517	-0.114833069	 0.115262
H	-0.535827737	 1.9072846936	-0.9379554286	 0.133678
H	-0.4636943249	 1.979331989	 0.8277908367	 0.11144
H	 0.5092659463	-0.4077069982	-0.8780750776	 0.11911
H	 0.55517374	-0.3313787688	 0.8755830934	 0.09931
H	-1.9279848618	-0.1888879176	 0.942305045	 0.083273
H	-3.7294137462	-0.3742273158	-2.2793967346	 0.125916
H	-3.3706656749	-2.3736867196	 1.0572151033	 0.113728
H	-2.9098690683	-3.6656012598	-0.0441145804	 0.119622
H	-0.9372038314	-2.4383055337	 1.0650181829	 0.091941
H	-1.1520257108	-2.61120837	-1.7313151392	 0.293251
77.0316	97.7256	138.428	177.2286	215.4041	273.7252	306.75	352.2513	400.1195	451.1105	503.8018	607.0975	705.2039	754.5838	829.7171	861.0929	894.0938	928.6829	952.6993	975.6885	998.9565	1036.822	1067.202	1090.3697	1141.3507	1170.6241	1173.0688	1232.2824	1260.7293	1288.8806	1324.4029	1333.4794	1365.0082	1379.9498	1404.0128	1412.3808	1413.0727	1422.9761	1478.4761	1479.4818	1498.1939	1508.9355	1726.1498	2998.4686	3025.8872	3036.7762	3037.7072	3060.4694	3070.7179	3088.016	3107.1566	3125.6996	3152.8712	3802.8462
CCC1OC=NCC1O	CC[C@H]1OC=NC[C@H]1O	
InChI=1S/C6H11NO2/c1-2-6-5(8)3-7-4-9-6/h4-6,8H,2-3H2,1H3	InChI=1S/C6H11NO2/c1-2-6-5(8)3-7-4-9-6/h4-6,8H,2-3H2,1H3/t5-,6-/m1/s1
