17
gdb 128167	2.38499	1.41289	0.93363	3.5724	73.68	-0.199	0.0131	0.2122	1251.7717	0.135205	-455.113482	-455.104226	-455.103282	-455.148443	32.137	
C	 0.0349482227	 1.2819075683	-0.1248543928	-0.329925
N	-0.0320748418	-0.1714354189	-0.2117340879	-0.396144
C	-1.2206359576	-0.8191861405	-0.03273334	 0.447727
C	-1.5005110659	-2.1233045887	 0.3029837224	 0.069914
O	-0.5806962667	-3.0762952464	 0.6392576326	-0.281725
C	-0.3789215497	-4.0783401814	-0.3553513317	-0.25062
C	-2.9146957528	-2.1732550566	 0.2857685109	-0.039569
N	-3.4608743429	-1.0228065804	-0.0291550548	-0.171375
O	-2.3582940863	-0.1464117089	-0.2265248551	-0.226021
H	 1.0436519321	 1.5998780321	-0.3959067581	 0.131094
H	-0.6673800841	 1.7210585794	-0.8360113238	 0.159165
H	-0.2040240722	 1.6677686147	 0.8759894207	 0.128764
H	 0.7397010096	-0.6725643668	 0.2042433152	 0.256327
H	 0.3908302644	-4.7513049359	 0.0289089254	 0.130374
H	-1.2978582545	-4.6494781553	-0.5383770717	 0.121111
H	-0.0436423259	-3.6373456702	-1.3026235933	 0.120165
H	-3.5590181484	-3.0157842945	 0.497338452	 0.130739
51.9683	85.8836	136.7341	152.3336	175.7662	198.4079	275.8611	313.5596	440.4713	513.1621	601.5623	626.3855	641.4715	731.8015	758.2318	882.6856	908.7154	931.6812	1033.3386	1067.275	1138.1983	1152.8002	1176.8485	1187.4454	1210.8649	1237.3303	1346.5804	1417.5406	1448.5623	1472.8614	1484.7208	1488.0492	1490.5412	1504.0518	1514.5441	1566.5603	1691.0153	3006.6778	3007.7651	3068.8138	3101.0473	3126.1661	3141.8181	3235.4639	3604.6847
CNC1=C(OC)C=NO1	CNc1c(OC)cno1	
InChI=1S/C5H8N2O2/c1-6-5-4(8-2)3-7-9-5/h3,6H,1-2H3	InChI=1S/C5H8N2O2/c1-6-5-4(8-2)3-7-9-5/h3,6H,1-2H3
