21
gdb 80147	2.13998	1.63664	1.40177	1.4934	83.47	-0.2238	0.0209	0.2447	1079.775	0.183408	-387.092945	-387.0843	-387.083356	-387.125543	34.391	
C	-0.1485828718	 1.5049512319	-0.0663419545	-0.424582
C	-0.0081630433	 0.0014711152	 0.0320453823	-0.07633
C	 1.3166557861	-0.752774688	-0.2381473837	-0.142318
C	 2.589978308	-0.0126561819	-0.3882447034	-0.039204
C	 3.1013295791	 0.7673527578	 0.5681765041	-0.07876
C	 2.4374462133	 0.9724891424	 1.9049973624	-0.27621
C	 1.4633159534	-0.1625007066	 2.2800491974	-0.27777
C	 0.6846072378	-0.7722516017	 1.1249747392	 0.381089
O	 0.0959189132	-2.0093772329	 1.4573606348	-0.471485
H	 0.8190800577	 2.0102159998	-0.0584825591	 0.133032
H	-0.6456609788	 1.7748849031	-1.0040937694	 0.116214
H	-0.7538721464	 1.9096989458	 0.7533429232	 0.110547
H	-0.8681289587	-0.5471883981	-0.3440696874	 0.088032
H	 1.2135515615	-1.6593886154	-0.8248647083	 0.092794
H	 3.1078132331	-0.1110236368	-1.3388618229	 0.08481
H	 4.0283300287	 1.305223417	 0.3879019405	 0.08503
H	 3.1983925014	 1.0571720617	 2.6898932648	 0.1049
H	 1.915502772	 1.9392868899	 1.9093795751	 0.111651
H	 2.0337089666	-0.9926726198	 2.7121121175	 0.116154
H	 0.7749800046	 0.1812699533	 3.0632987399	 0.086397
H	-0.6516676979	-1.8303692065	 2.0390602575	 0.276008
125.1026	159.4212	214.2943	236.0497	241.9602	301.8825	368.1993	414.4052	440.0612	480.3899	505.9528	587.3366	658.9688	730.7201	763.0277	784.3026	865.6418	886.7481	916.666	961.6217	991.9099	1019.0896	1033.0308	1053.5549	1070.7352	1099.3713	1112.2097	1126.9285	1186.9413	1196.9336	1222.6183	1253.5304	1296.3101	1338.4477	1347.8574	1356.4413	1382.0962	1414.5291	1422.9125	1457.3977	1479.4112	1491.6273	1504.7421	1511.3359	1707.5283	3007.7972	3018.8118	3029.96	3044.658	3065.7209	3084.4454	3121.9586	3140.4417	3147.261	3164.4907	3174.0473	3787.1675
CC1C2C=CCCC12O	C[C@H]1[C@H]2C=CCC[C@@]12O	
InChI=1S/C8H12O/c1-6-7-4-2-3-5-8(6,7)9/h2,4,6-7,9H,3,5H2,1H3	InChI=1S/C8H12O/c1-6-7-4-2-3-5-8(6,7)9/h2,4,6-7,9H,3,5H2,1H3/t6-,7+,8+/m0/s1
