16
gdb 44348	3.7963	1.53437	1.27283	1.9617	76.06	-0.2356	-0.0627	0.1729	966.489	0.125168	-400.667385	-400.660611	-400.659667	-400.698559	27.187	
O	 0.0792168129	-0.0755319155	 0.2531083364	-0.301384
C	 0.0316384011	 1.1077923748	 0.0387936224	 0.361848
C	-1.2957173288	 1.9168978485	 0.0264012224	-0.345725
C	-1.3071278109	 3.0224629427	-1.0360496571	 0.012005
C	-0.1039391789	 3.2260310441	-1.8501124596	-0.127314
N	-0.6560869628	 4.4215884221	-1.1248567204	-0.167562
C	 0.6909613437	 4.5789723239	-0.4059788233	-0.194689
C	 0.9893961896	 3.155339662	-0.8115338187	 0.167333
C	 1.1571577101	 2.1005437992	-0.0069678036	-0.265339
H	-2.129482179	 1.2338637176	-0.1623875678	 0.132908
H	-1.4350735735	 2.3118545411	 1.040961267	 0.136806
H	-2.2634516501	 3.1242509068	-1.5415925745	 0.117636
H	-0.0052319701	 3.1724046246	-2.9288664156	 0.106114
H	 1.2107611328	 5.3787598658	-0.940429206	 0.129785
H	 0.656330188	 4.7986886861	 0.6653657658	 0.116557
H	 1.742405776	 2.1767571963	 0.9083329526	 0.121019
90.2363	191.7772	345.8737	396.6246	416.9226	484.8662	514.644	583.0182	633.018	717.5839	756.0872	778.877	798.7503	861.8398	887.874	929.6481	948.144	972.3642	1013.8203	1045.1982	1074.9533	1092.2433	1104.0434	1134.3558	1199.0818	1221.5986	1265.4432	1275.2797	1297.0965	1328.4362	1388.5778	1458.5879	1499.052	1676.7476	1822.8889	3031.8091	3048.9906	3089.8181	3107.4581	3141.4811	3148.6175	3168.6017
O=C1CC2C3N2CC3=C1	O=C1C[C@@H]2[C@H]3N2C[C]3[CH]1	
InChI=1S/C7H7NO/c9-5-1-4-3-8-6(2-5)7(4)8/h1,6-7H,2-3H2	InChI=1S/C7H7NO/c9-5-1-4-3-8-6(2-5)7(4)8/h1,6-7H,2-3H2/t6-,7+,8?/m1/s1
