25
gdb 101164	2.29237	1.06709	0.87302	1.1955	89.05	-0.2431	0.0587	0.3018	1496.8475	0.226677	-389.483252	-389.471967	-389.471023	-389.519681	41.504	
C	-0.130399059	 1.6562275007	-0.4733276871	-0.391403
C	-0.0338676107	 0.1271390007	-0.4642186427	-0.167564
C	 1.0576238264	-0.4578281503	-1.3837780715	 0.02131
C	 2.4713306145	-0.042595158	-0.9411625384	-0.392826
C	 0.955673159	-1.9739757625	-1.4346736572	-0.052578
C	-0.0236306514	-2.7232781547	-2.3289091841	-0.057591
C	-0.9901523935	-2.0346842697	-3.269717962	-0.407106
C	 1.4506398417	-2.7623975291	-2.6301280219	 0.056641
O	 1.8614336693	-2.081839922	-3.7848922973	-0.418426
H	 0.7768023121	 2.1297382759	-0.0856680427	 0.115918
H	-0.2946056384	 2.0353319528	-1.4885668292	 0.113053
H	-0.9659818652	 1.9980234487	 0.145807049	 0.110822
H	 0.1404033801	-0.2242569313	 0.562558411	 0.088041
H	-1.0006307128	-0.2926377583	-0.7652649103	 0.099984
H	 0.8955356944	-0.0635977769	-2.3936313171	 0.078896
H	 3.2346652455	-0.4619142631	-1.6057475337	 0.093425
H	 2.5988002495	 1.0436780842	-0.9417788728	 0.114419
H	 2.6864737833	-0.4045252091	 0.0715554788	 0.111738
H	 1.1420694008	-2.4432926078	-0.4691611731	 0.072703
H	-0.4198314388	-3.6375578459	-1.8937980699	 0.080526
H	-0.5223841647	-1.2004446092	-3.7941916916	 0.135355
H	-1.3420004349	-2.7389189136	-4.0314581456	 0.115874
H	-1.869570539	-1.6604424033	-2.7347889095	 0.111909
H	 1.9867794934	-3.6940583005	-2.4477923104	 0.078204
H	 2.7303309884	-1.703900008	-3.6149349307	 0.288677
60.332	73.7483	114.8943	159.5015	172.3371	212.3859	226.1063	247.68	265.2144	296.0006	301.1297	392.0218	415.9909	507.8727	575.3769	611.8618	760.4816	768.9713	805.2466	839.8295	878.7267	953.5356	970.8882	978.8342	1004.2915	1016.1104	1055.9135	1079.3262	1109.1516	1147.0336	1155.5276	1177.4078	1183.329	1197.839	1251.3729	1279.5862	1295.4042	1306.804	1352.9314	1372.2037	1376.4447	1404.4739	1409.7827	1413.6684	1419.4752	1457.9816	1480.4178	1492.4666	1493.818	1498.7442	1503.6912	1507.3907	1509.8685	3010.4508	3025.218	3031.8585	3035.9177	3041.299	3058.2479	3085.8092	3087.4971	3088.5897	3096.2279	3101.2332	3106.0139	3109.7979	3128.5593	3145.2285	3806.5235
CCC(C)C1C(C)C1O	CC[C@@H](C)[C@H]1[C@@H](C)[C@H]1O	
InChI=1S/C8H16O/c1-4-5(2)7-6(3)8(7)9/h5-9H,4H2,1-3H3	InChI=1S/C8H16O/c1-4-5(2)7-6(3)8(7)9/h5-9H,4H2,1-3H3/t5-,6-,7+,8-/m1/s1
