23
gdb 103762	3.14185	1.06707	0.94018	1.364	86.6	-0.2508	0.0733	0.324	1362.3149	0.204517	-388.264619	-388.254636	-388.253691	-388.299371	37.572	
C	-0.0804788153	 1.5660862519	 0.0836711516	-0.465931
C	-0.055401822	 0.0499884648	 0.0489562894	 0.291136
C	-1.3117057951	-0.5820845658	-0.5022082104	-0.145333
O	-1.4640860071	-0.1788260979	-1.8596985844	-0.422407
C	 1.2565318652	-0.6488904868	-0.2478140724	-0.38105
C	 0.673546996	-0.6925364614	 1.1381624689	 0.326743
C	 1.3393983923	-0.1221487985	 2.4009354403	-0.292676
C	 1.240067338	-1.5399802206	 3.0368151388	-0.212368
C	 0.2696574653	-1.9689554676	 1.8975756698	-0.293573
H	 0.862776702	 1.9743796715	 0.4573550017	 0.110128
H	-0.2548116501	 1.9660712251	-0.9191818029	 0.134132
H	-0.8836006728	 1.933377449	 0.7350058672	 0.105109
H	-1.2469151535	-1.6781170077	-0.4227599418	 0.081325
H	-2.1797206671	-0.2607297793	 0.0979666456	 0.0794
H	-2.3200017572	-0.4897677339	-2.1686752254	 0.284351
H	 1.2272626962	-1.554136324	-0.8473839701	 0.107135
H	 2.1346869717	-0.0321800362	-0.4157516247	 0.103783
H	 2.3423884023	 0.2982583689	 2.2884029121	 0.097176
H	 0.7126675573	 0.6140341547	 2.9153961874	 0.098646
H	 2.1895329508	-2.0789773049	 2.9934228947	 0.104488
H	 0.855956591	-1.5960236999	 4.0576091932	 0.096042
H	-0.7780085569	-1.9645644979	 2.2170656415	 0.096464
H	 0.476189139	-2.9244820535	 1.4077848697	 0.097281
74.9321	101.0451	131.9611	174.1698	196.1558	230.3204	247.2622	314.2295	361.4821	397.8563	417.442	433.9489	650.7681	692.0732	728.7753	795.5388	866.5315	888.5639	901.3224	940.4757	941.6178	945.8226	978.3835	999.1896	1037.369	1052.4609	1068.3927	1106.0366	1131.6373	1174.2747	1181.0063	1208.6133	1233.9783	1241.5756	1254.0084	1267.7159	1276.2492	1285.9258	1322.1284	1407.6302	1414.457	1461.8809	1477.0634	1480.254	1485.9261	1490.7426	1506.3383	1512.4656	1518.0086	2955.4779	2994.3102	3024.1676	3039.1226	3043.3791	3065.5602	3086.9056	3090.1776	3091.7831	3113.0134	3116.9538	3120.9227	3197.1394	3827.8579
CC1(CO)CC11CCC1	C[C@@]1(CO)CC21CCC2	
InChI=1S/C8H14O/c1-7(6-9)5-8(7)3-2-4-8/h9H,2-6H2,1H3	InChI=1S/C8H14O/c1-7(6-9)5-8(7)3-2-4-8/h9H,2-6H2,1H3/t7-/m0/s1
