20
gdb 37744	3.30626	1.85528	1.43604	2.1582	81.72	-0.2208	0.0766	0.2974	951.9909	0.174605	-365.927045	-365.920574	-365.91963	-365.957431	27.949	
C	-0.0443421199	 1.5618002718	 0.0056496089	-0.265507
N	 1.4623582786	 1.2690955441	 0.018532344	-0.181531
C	 1.1855894128	 0.0276207516	 0.8975819053	-0.016898
C	 1.9180306668	-0.9498239693	-0.0244741195	-0.041344
C	 1.2848814877	-2.3536434623	-0.0282090982	-0.231118
C	-0.1744820725	-2.3460690955	-0.5543116934	-0.197668
C	-1.0142112573	-1.1334264801	-0.069147097	-0.348947
C	-0.0589309442	 0.0335913716	-0.0353799736	 0.320523
C	 1.2190909092	 0.0746690378	-0.9351937745	-0.044125
H	-0.3967454855	 2.0608325314	 0.9153029812	 0.097244
H	-0.375410954	 2.1096144878	-0.8837378988	 0.096556
H	 1.1921440178	 0.1029011621	 1.9880814148	 0.070805
H	 3.0117993433	-0.9473051987	 0.0035212048	 0.070272
H	 1.8758890602	-3.0370022217	-0.6478821463	 0.100082
H	 1.3228855515	-2.7589467575	 0.9918710808	 0.099224
H	-0.1351879006	-2.3018615525	-1.6492187067	 0.105413
H	-0.6700859896	-3.2885593941	-0.3020944456	 0.095145
H	-1.8587295883	-0.9679771577	-0.7478585202	 0.099638
H	-1.4355883029	-1.3102843635	 0.928358265	 0.099051
H	 1.2714173469	 0.2163562349	-2.0170701711	 0.073186
204.2279	233.2099	351.842	385.7408	442.1579	468.1069	568.4203	674.2454	741.9678	768.145	837.2147	840.2824	858.5761	871.3323	881.5173	909.5393	918.3979	927.1879	986.4408	1036.1388	1038.4313	1052.036	1072.5202	1101.807	1121.0413	1134.2262	1156.5908	1189.8793	1196.1291	1224.6354	1236.1695	1239.0637	1262.5893	1290.8238	1326.9331	1344.4285	1362.2411	1374.9115	1387.3107	1484.6286	1490.059	1502.5448	1519.2358	3017.8848	3023.8933	3028.4197	3030.5557	3059.	3063.48	3067.6637	3078.7392	3083.8504	3086.6268	3089.756
C1N2C3C4CCCC13C24	C1N2[C@@H]3[C@H]4CCC[C@@]13[C@@H]24	
InChI=1S/C8H11N/c1-2-5-6-8(3-1)4-9(6)7(5)8/h5-7H,1-4H2	InChI=1S/C8H11N/c1-2-5-6-8(3-1)4-9(6)7(5)8/h5-7H,1-4H2/t5-,6-,7+,8-
