19
gdb 62856	2.76376	1.55712	1.3896	3.5575	75.05	-0.2278	0.0007	0.2285	1017.9021	0.159256	-423.038137	-423.030074	-423.02913	-423.070135	32.46	
C	-0.143985585	 1.5270299383	 0.053435811	-0.476369
C	-0.002164193	 0.0098160899	 0.027828643	 0.446252
O	-1.2623118654	-0.5901642521	 0.2616663916	-0.479699
C	 0.7388626786	-0.6090898982	-1.1971545837	-0.073283
C	 2.0677420427	-0.2714681344	-0.4597535237	-0.258731
C	 1.2239931143	-0.5890379309	 0.8206401802	-0.20475
C	 0.972187372	-2.0771278901	 0.5908264148	 0.447436
O	 1.0431606086	-2.9851622927	 1.3724391519	-0.341092
C	 0.62095659	-2.1207410154	-0.9147007193	-0.334327
H	 0.7857004221	 2.0572904357	-0.1596387428	 0.126411
H	-0.8925624921	 1.8327288719	-0.6841044313	 0.131792
H	-0.4898781518	 1.8571974566	 1.0407535188	 0.113066
H	-1.63413963	-0.2205277788	 1.0694645673	 0.282179
H	 0.5345962996	-0.2628125368	-2.2103830282	 0.07015
H	 2.9238685411	-0.9196169015	-0.6615303176	 0.110245
H	 2.3742992236	 0.7711805905	-0.5262758634	 0.111187
H	 1.5041529808	-0.2757475628	 1.825027544	 0.073228
H	-0.3778353021	-2.5320917945	-1.0664561731	 0.140102
H	 1.343838226	-2.7198352046	-1.4767601995	 0.116203
128.1984	196.9178	219.5206	255.3026	288.1819	381.389	403.2006	458.655	465.8639	523.9742	608.9092	624.7568	668.6209	775.41	802.2734	830.3264	897.4465	931.5979	940.6551	965.8996	989.3178	1003.2836	1062.5835	1085.8658	1094.5708	1129.3272	1137.2342	1175.0828	1202.7752	1218.8258	1248.7031	1254.4641	1275.919	1299.7622	1371.0661	1413.326	1456.3942	1490.839	1493.653	1518.7962	1874.2721	3030.1803	3066.8163	3076.8297	3094.8714	3113.626	3130.4902	3132.7894	3135.9751	3149.6684	3810.9467
CC1(O)C2CC1C(=O)C2	C[C@@]1(O)[C@H]2C[C@@H]1C(=O)C2	
InChI=1S/C7H10O2/c1-7(9)4-2-5(7)6(8)3-4/h4-5,9H,2-3H2,1H3	InChI=1S/C7H10O2/c1-7(9)4-2-5(7)6(8)3-4/h4-5,9H,2-3H2,1H3/t4-,5+,7+/m0/s1
