21
gdb 80610	2.13043	1.86901	1.47456	1.8183	76.74	-0.2409	0.0789	0.3197	1023.4872	0.182836	-424.208022	-424.1996	-424.198656	-424.240235	34.186	
C	-0.0152474579	 1.5085714252	 0.0166691763	-0.448395
C	 0.0086758321	-0.0240927987	 0.0041950366	 0.270841
C	-1.4208266445	-0.5616700776	-0.127608157	-0.457135
C	 0.9914229	-0.5523319892	-1.0765336351	 0.05143
C	 1.2229230923	-2.0386511437	-0.7272687215	-0.254091
C	 1.9199171548	-1.3379157201	 0.4498125251	 0.029513
O	 2.299560072	-0.2558365676	-0.4695120015	-0.319615
C	 0.7943802554	-0.6414219692	 1.2415480742	 0.121916
O	 1.3021535718	 0.290848496	 2.1680955884	-0.438167
H	 0.9903540149	 1.9269529269	-0.0732750858	 0.118306
H	-0.6086143572	 1.8836549462	-0.8247463185	 0.106
H	-0.4590823656	 1.8858790354	 0.9416138994	 0.127303
H	-1.8704387714	-0.2582831114	-1.0804217754	 0.113271
H	-1.4709451312	-1.6523958758	-0.0683325066	 0.112117
H	-2.0516631888	-0.1613581731	 0.67341632	 0.123837
H	 0.8882512826	-0.1815283421	-2.0974462112	 0.078141
H	 0.3716004924	-2.6941658947	-0.5377076744	 0.100485
H	 1.9424098811	-2.507377768	-1.3993353501	 0.114785
H	 2.75208188	-1.7601149866	 1.0135265111	 0.083423
H	 0.1759596516	-1.3360357489	 1.8171334248	 0.080742
H	 1.9580228655	 0.8147401769	 1.6912011413	 0.285293
128.96	206.6163	234.9462	244.9615	290.3395	310.2789	350.036	413.9983	469.1561	480.2257	526.168	566.9003	653.7655	771.0516	804.0632	862.2843	872.3404	876.1129	914.7323	953.534	957.6677	971.8178	1013.6832	1029.9806	1069.0661	1076.2247	1122.6172	1175.6063	1200.8758	1205.407	1215.6761	1237.0718	1249.3271	1291.194	1301.772	1308.8291	1334.0927	1400.6499	1422.111	1439.1574	1481.9179	1491.0637	1492.8416	1507.2423	1518.2124	3027.8221	3038.0335	3072.738	3081.2352	3089.7134	3104.1373	3108.5597	3110.7946	3124.2047	3124.8899	3148.4097	3780.6899
CC1(C)C2CC(O2)C1O	CC1(C)[C@@H]2C[C@@H](O2)[C@H]1O	
InChI=1S/C7H12O2/c1-7(2)5-3-4(9-5)6(7)8/h4-6,8H,3H2,1-2H3	InChI=1S/C7H12O2/c1-7(2)5-3-4(9-5)6(7)8/h4-6,8H,3H2,1-2H3/t4-,5+,6-/m1/s1
