18
gdb 21029	3.8167	1.6963	1.20077	2.3028	76.12	-0.2232	0.0341	0.2572	1031.0906	0.153675	-344.025219	-344.016394	-344.015449	-344.058995	30.869	
C	-0.0294863983	 1.3698976241	-0.0381888875	-0.326493
N	-0.0014773961	-0.0730536739	 0.0404020192	-0.01011
N	-0.0273406804	-0.8054311621	-1.0994800734	-0.329643
C	 0.0076036521	-2.0749577074	-0.6997498803	 0.357567
C	-0.0071071616	-3.1864375408	-1.7020308926	-0.489885
C	 0.0562669214	-2.1568523212	 0.7108678681	-0.386341
C	 0.0490427124	-0.8496845282	 1.1569320664	 0.381968
C	 0.0855294135	-0.2801571796	 2.5368370096	-0.503786
H	 0.8663290951	 1.8109162118	 0.4124658921	 0.133177
H	-0.0656083058	 1.6340706217	-1.0943416354	 0.161314
H	-0.9119627403	 1.779566957	 0.4653715188	 0.133177
H	 0.8877614021	-3.8135617222	-1.620389365	 0.123816
H	-0.8742997849	-3.8417862475	-1.5632522351	 0.123842
H	-0.0465257338	-2.7743892345	-2.7127326522	 0.135568
H	 0.0919954622	-3.0440071154	 1.3241142285	 0.090903
H	 0.9628876067	 0.3583468737	 2.6961385216	 0.132982
H	-0.8009771473	 0.3273660994	 2.7555794449	 0.132991
H	 0.124452733	-1.0873881049	 3.2710598222	 0.138953
59.3043	94.4084	124.9332	171.3018	205.1159	258.2671	274.2868	334.0899	481.0631	593.3417	644.4166	658.9234	687.4731	792.0586	805.3773	989.453	996.4459	1034.7304	1061.2267	1064.4891	1068.0859	1148.4168	1167.3801	1209.1349	1322.688	1397.4979	1414.121	1416.9112	1446.5943	1464.3804	1478.7831	1484.4949	1484.841	1490.7468	1504.4348	1505.9766	1526.5063	1600.4746	3023.3719	3030.5561	3032.327	3069.8273	3081.7876	3084.0997	3127.6156	3129.2462	3164.2125	3250.169
CN1N=C(C)C=C1C	Cn1nc(C)cc1C	
InChI=1S/C6H10N2/c1-5-4-6(2)8(3)7-5/h4H,1-3H3	InChI=1S/C6H10N2/c1-5-4-6(2)8(3)7-5/h4H,1-3H3
