17
gdb 102977	3.5106	0.73577	0.65456	2.6039	66.97	-0.2698	-0.0501	0.2197	1645.3618	0.132977	-496.118197	-496.108352	-496.107408	-496.154824	33.168	
O	-0.3169244795	 1.3992729297	-0.4063907127	-0.422605
C	-0.1430299652	 0.0353038111	-0.1071275624	-0.07366
C	-1.4835101047	-0.7005769315	 0.0736755218	-0.121303
C	-1.2892745637	-2.2148993979	 0.229279896	-0.116697
O	-2.5528461008	-2.8791130914	 0.3275375151	-0.180562
C	-2.9220244922	-3.708433157	-0.6732172845	 0.173219
O	-3.9707067992	-4.2737834218	-0.6845215306	-0.261769
C	-2.2840924	-0.1304483759	 1.2348699746	 0.158045
O	-2.0178511007	 0.9122943874	 1.7866611461	-0.259143
H	-0.7448739804	 1.7840663137	 0.3700070827	 0.298264
H	 0.4040586206	-0.4061731763	-0.9477369609	 0.110549
H	 0.4718891947	-0.1108549314	 0.7957723366	 0.098682
H	-2.0961448708	-0.5338441931	-0.8256069534	 0.125866
H	-0.7190052887	-2.6072199903	-0.6224259003	 0.124118
H	-0.7333278608	-2.4507650089	 1.1424923174	 0.137539
H	-2.1458636563	-3.7997743369	-1.4584494524	 0.084403
H	-3.1553964224	-0.7348313695	 1.5563608567	 0.125053
35.0442	58.0093	96.5644	132.0783	145.8879	217.9497	239.8763	326.7794	343.6101	374.8782	467.513	575.163	648.0841	670.0725	823.3029	906.7542	922.0299	1030.865	1042.7238	1072.1172	1090.6766	1115.9672	1127.7321	1164.5041	1219.2288	1256.9676	1303.2098	1359.9712	1390.2179	1401.9332	1425.888	1432.57	1451.7157	1500.0497	1509.1944	1805.0069	1874.965	2945.0788	2947.9012	2974.8401	3009.0448	3024.5282	3062.6854	3083.4643	3763.5467
OCC(COC=O)C=O	OC[C@@H](COC=O)C=O	
InChI=1S/C5H8O4/c6-1-5(2-7)3-9-4-8/h1,4-5,7H,2-3H2	InChI=1S/C5H8O4/c6-1-5(2-7)3-9-4-8/h1,4-5,7H,2-3H2/t5-/m0/s1
