16
gdb 33011	5.39874	0.98562	0.84222	2.0349	73.42	-0.2685	-0.0459	0.2226	1336.9489	0.126344	-434.127733	-434.119852	-434.118908	-434.160909	28.121	
C	-0.1152348554	 1.5014595367	 0.0122415436	-0.392347
C	 0.0204394104	-0.0085991428	 0.003594621	-0.038985
O	-1.3150315157	-0.5542037511	 0.0107349372	-0.242726
C	-1.4527282915	-1.871736249	 0.0053269395	 0.483456
N	-0.3664840011	-2.6507904361	-0.0062440034	-0.335254
C	-0.6341509506	-3.9556193502	-0.0101633762	 0.083601
N	-1.841312971	-4.5150228122	-0.0037329752	-0.256324
C	-2.8394881251	-3.6221406469	 0.0079402918	 0.08455
N	-2.7212743425	-2.3025090558	 0.0130261595	-0.296381
H	 0.8779908825	 1.9597695817	 0.0071371567	 0.124631
H	-0.6618580396	 1.8488614796	-0.8685997696	 0.135278
H	-0.6486153858	 1.8399027324	 0.9046132886	 0.135278
H	 0.5482491786	-0.3691401763	-0.8845267763	 0.1256
H	 0.5613586912	-0.3780763785	 0.880075682	 0.125612
H	 0.2229088165	-4.6261519035	-0.0197496637	 0.131266
H	-3.8521393409	-4.0200488179	 0.0135863544	 0.132745
59.5177	115.4209	166.8401	198.4197	262.8045	344.9056	379.4566	483.5959	574.4604	650.81	706.9023	810.1534	854.0477	854.9531	965.1094	995.4077	1005.4849	1049.1722	1070.4981	1128.1685	1180.0007	1180.8031	1218.9991	1292.3818	1315.7662	1376.0488	1406.9508	1418.2858	1424.3848	1485.2304	1486.7525	1497.8535	1525.4499	1580.5658	1617.637	3049.349	3053.4344	3093.9174	3124.6986	3131.1271	3158.8073	3163.9778
CCOC1=NC=NC=N1	CCOc1ncncn1	
InChI=1S/C5H7N3O/c1-2-9-5-7-3-6-4-8-5/h3-4H,2H2,1H3	InChI=1S/C5H7N3O/c1-2-9-5-7-3-6-4-8-5/h3-4H,2H2,1H3
