17
gdb 112286	2.71888	1.12398	0.86755	2.0757	64.42	-0.2808	-0.0067	0.2741	1300.456	0.135299	-496.111695	-496.102662	-496.101718	-496.146126	32.256	
O	-0.1678160109	 1.5098656634	-0.3313236734	-0.414905
C	 0.0420646802	 0.1257402025	-0.1462391023	-0.072722
C	-1.2413170548	-0.5620857739	 0.2773666051	 0.077992
O	-2.2346333884	-0.4815427515	-0.8222344108	-0.268222
C	-2.3148448426	-1.8454426513	-0.9008195696	 0.467511
O	-2.9124335754	-2.5052597201	-1.6942905399	-0.336962
C	-1.3608919469	-2.1053637316	 0.2587399432	-0.243682
C	-0.2016711632	-3.041539161	-0.1042035201	-0.085519
O	-0.6971867903	-4.3417175525	-0.3407016456	-0.416327
H	-0.837766242	 1.6059499587	-1.0182845055	 0.298174
H	 0.4429811698	-0.3488759317	-1.0539489976	 0.101158
H	 0.7909593069	 0.0214347543	 0.6465173169	 0.124772
H	-1.6558462568	-0.077042874	 1.1640882034	 0.113675
H	-1.8808341902	-2.5080246728	 1.1315732289	 0.129884
H	 0.3513084316	-2.6539288942	-0.9727986958	 0.100708
H	 0.5045317156	-3.1189930545	 0.7282690643	 0.122179
H	-1.3634729926	-4.2772565898	-1.0373274413	 0.302287
81.991	104.92	121.5169	129.7687	185.6991	282.5817	349.7891	403.1239	451.5959	459.5703	463.3906	561.5461	716.5846	773.3401	835.4091	852.8415	899.1453	1000.8088	1033.7147	1075.0866	1083.5558	1119.6826	1138.2072	1153.4624	1182.3826	1219.7601	1238.8216	1301.796	1321.2524	1352.4162	1387.5942	1408.7712	1432.895	1438.2632	1491.9627	1515.5605	1913.5556	2988.472	3004.686	3073.4338	3078.738	3090.0267	3101.1876	3770.5559	3800.0798
OCC1OC(=O)C1CO	OC[C@H]1OC(=O)[C@H]1CO	
InChI=1S/C5H8O4/c6-1-3-4(2-7)9-5(3)8/h3-4,6-7H,1-2H2	InChI=1S/C5H8O4/c6-1-3-4(2-7)9-5(3)8/h3-4,6-7H,1-2H2/t3-,4+/m0/s1
