21
gdb 60419	3.79838	0.77106	0.73968	2.3678	75.47	-0.2531	0.0629	0.316	1616.0948	0.180646	-461.327076	-461.317063	-461.316119	-461.363596	35.509	
C	 0.1249946536	 1.4298244339	-0.3899688018	-0.393546
C	 0.0466944595	 0.0083505297	 0.1738621846	 0.130987
O	 0.556837268	-0.0605742281	 1.4976830664	-0.438016
C	-1.3729767049	-0.5582787599	 0.1417559562	-0.090334
O	-2.1555070366	 0.2251333569	 1.0332430435	-0.269384
C	-3.4604790903	-0.2495596374	 1.2198165766	 0.096985
C	-3.6684726163	-1.4167407103	 2.2171877387	-0.096074
O	-4.5287494418	-0.599581612	 3.0379707104	-0.270903
C	-4.2641002728	 0.5716492631	 2.2388282799	-0.098985
H	 1.1447714937	 1.809852479	-0.2920524487	 0.124409
H	-0.1547421425	 1.4505125094	-1.4489850178	 0.107791
H	-0.5507200081	 2.0963831105	 0.1538915469	 0.124862
H	 0.6831464899	-0.6548548215	-0.4242832543	 0.086322
H	-0.1187997665	 0.3357571664	 2.0613071875	 0.284172
H	-1.7960822693	-0.522370609	-0.8746673736	 0.092006
H	-1.3545064359	-1.6069260967	 0.4728587842	 0.101193
H	-3.9597285418	-0.3956816556	 0.2526324304	 0.080313
H	-4.1831030785	-2.3106656656	 1.8472027932	 0.105063
H	-2.7474256465	-1.709218384	 2.7388580106	 0.106782
H	-3.6470407178	 1.3104198314	 2.7657861504	 0.108759
H	-5.1843511152	 1.0469569298	 1.8824101068	 0.1076
37.2102	56.1183	80.4949	133.1016	155.1774	228.7829	253.3948	369.967	397.5273	407.3051	427.4294	454.5403	617.4608	765.5666	826.5922	871.9661	887.9914	933.1072	951.1537	983.1519	1019.0523	1027.9606	1048.155	1076.7244	1119.707	1142.4843	1156.5746	1158.7383	1164.8009	1210.3297	1263.7136	1275.3964	1301.7868	1308.094	1346.8702	1367.8821	1384.9819	1402.3217	1430.555	1434.9466	1488.9828	1499.0783	1499.6337	1507.8397	1526.3851	2976.8111	3008.5257	3012.0861	3021.5954	3024.1699	3038.4009	3043.9913	3067.3956	3075.0955	3109.3615	3128.2827	3787.6876
CC(O)COC1COC1	C[C@@H](O)COC1COC1	
InChI=1S/C6H12O3/c1-5(7)2-9-6-3-8-4-6/h5-7H,2-4H2,1H3	InChI=1S/C6H12O3/c1-5(7)2-9-6-3-8-4-6/h5-7H,2-4H2,1H3/t5-/m1/s1
