19
gdb 106783	2.27625	1.45933	1.1111	2.7616	71.53	-0.2472	0.0578	0.305	1146.5899	0.15795	-460.117118	-460.107921	-460.106977	-460.151	35.036	
O	-0.017772878	 1.5215453418	 0.0018985986	-0.419687
C	 0.0531856418	 0.1042868865	 0.0532532836	-0.18217
C	-1.3212611651	-0.5132612958	 0.0330925916	 0.234736
C	-2.0082484435	-1.137489996	-1.1629405235	-0.395347
C	-1.8268734182	-1.9510431819	 0.0900977588	 0.329621
O	-1.0660549156	-3.1069392497	 0.129606319	-0.464961
C	-2.8860906227	-1.5783780909	 1.1380624309	-0.333637
C	-2.4125837094	-0.0918090295	 1.0344731381	 0.100143
O	-1.9289015888	 0.5044900522	 2.2256135996	-0.444408
H	-0.4853031482	 1.7907578885	 0.8023120323	 0.291467
H	 0.6398211739	-0.2174840956	-0.8123100846	 0.114822
H	 0.6022973121	-0.2252872092	 0.9503085229	 0.081933
H	-2.9923061891	-0.8012979687	-1.4864847384	 0.103905
H	-1.3329694803	-1.4054072132	-1.9706298305	 0.116853
H	-1.4895540575	-3.7718697169	-0.4244366307	 0.287402
H	-3.9338496144	-1.8032339496	 0.9105406549	 0.096045
H	-2.6411747985	-1.9863988543	 2.1236320643	 0.104526
H	-3.1514906766	 0.611892867	 0.6402382737	 0.093491
H	-1.3535686117	-0.1294945046	 2.6688061294	 0.285265
65.4594	118.8285	139.6681	231.5253	262.1733	302.6827	355.7862	371.1278	421.4596	435.1167	478.5316	509.2853	548.1373	619.9042	733.0794	771.6432	849.6528	867.8388	925.9604	964.9345	983.0227	1020.7557	1048.1568	1060.7681	1072.1623	1124.47	1128.9954	1194.1425	1227.092	1245.088	1269.1117	1285.9058	1308.462	1335.2019	1383.5585	1410.0389	1432.1406	1435.9461	1477.1383	1502.2622	1511.1046	2965.2806	3037.1436	3069.1045	3080.4153	3091.1344	3097.3827	3190.4712	3781.4408	3794.0125	3797.425
OCC12CC1(O)CC2O	OC[C@@]12C[C@]1(O)C[C@H]2O	
InChI=1S/C6H10O3/c7-3-5-2-6(5,9)1-4(5)8/h4,7-9H,1-3H2	InChI=1S/C6H10O3/c7-3-5-2-6(5,9)1-4(5)8/h4,7-9H,1-3H2/t4-,5-,6-/m1/s1
