22
gdb 7387	3.65072	0.99834	0.82587	0.3515	74.86	-0.2572	0.0715	0.3287	1428.21	0.197737	-387.340943	-387.330408	-387.329464	-387.376439	37.872	
C	-0.0148611786	 1.5408882009	-0.0425314107	-0.387527
C	 0.0154331778	 0.0074005715	 0.0259446462	 0.0199
C	 0.8411372941	-0.4606057822	 1.2333019538	-0.397433
C	-1.4190252481	-0.5642738181	 0.0277281935	 0.130755
O	-2.1689095108	-0.0651284085	-1.0846950915	-0.433515
C	-1.4792957141	-2.0950811149	 0.0731666702	-0.20208
C	-2.9046729223	-2.6345220497	 0.0584557697	-0.073353
O	-2.8282430786	-4.0518673941	 0.1363522132	-0.424526
H	 0.9958627322	 1.9460864788	-0.1547140793	 0.105198
H	-0.6262850194	 1.8864440935	-0.8782889162	 0.123519
H	-0.4402584987	 1.9603225393	 0.8773396887	 0.109734
H	 0.5060144712	-0.3674603839	-0.8870563234	 0.059263
H	 1.0122155248	-1.540084117	 1.2320970559	 0.119457
H	 1.8205227937	 0.0283516625	 1.2375383805	 0.112643
H	 0.3409408776	-0.1992097659	 2.1738013442	 0.114003
H	-1.9466228659	-0.1617454044	 0.9042049494	 0.082912
H	-1.7399099645	-0.3848719745	-1.886998385	 0.275189
H	-0.9320328923	-2.5149037789	-0.7829253508	 0.091819
H	-0.9828610111	-2.468901301	 0.9740079546	 0.11216
H	-3.4641717508	-2.2178943233	 0.912588061	 0.08246
H	-3.4176149333	-2.3059596764	-0.8552710173	 0.094936
H	-3.721742053	-4.4019098637	 0.0770990431	 0.284485
62.1457	92.0213	105.272	140.1193	218.2108	230.1834	265.5	286.4863	309.8473	322.1073	370.5859	382.4333	430.721	491.2882	567.1484	802.3729	841.4606	902.1565	930.6516	966.0854	972.2328	1018.1393	1065.9907	1079.7719	1093.4784	1130.4743	1151.437	1192.1905	1211.9505	1243.2196	1273.9108	1304.5429	1324.2612	1347.3158	1366.0755	1388.7586	1398.3621	1413.0206	1424.2031	1458.6405	1486.4497	1490.1513	1492.1593	1506.1235	1515.9076	1530.6062	2964.481	2972.8929	3008.7246	3021.3518	3027.8372	3028.5083	3033.581	3088.3944	3090.4763	3096.1856	3116.0898	3131.2398	3789.6557	3830.9328
CC(C)C(O)CCO	CC(C)[C@@H](O)CCO	
InChI=1S/C6H14O2/c1-5(2)6(8)3-4-7/h5-8H,3-4H2,1-2H3	InChI=1S/C6H14O2/c1-5(2)6(8)3-4-7/h5-8H,3-4H2,1-2H3/t6-/m0/s1
