18
gdb 110776	2.71398	1.37083	1.18144	4.6729	71.	-0.249	0.0478	0.2968	1119.6923	0.148661	-439.120469	-439.11225	-439.111306	-439.153942	30.838	
C	 0.0615059681	 1.3619839595	 0.3500682245	-0.372717
C	-0.0334823623	-0.0032271629	-0.3421226525	-0.224316
C	-1.4014073416	-0.6340496171	-0.1904143715	-0.064922
C	-1.6578466036	-2.1384240205	-0.1406687243	-0.075435
N	-0.5904994963	-2.9927481864	 0.2762356999	-0.358665
C	-0.1023801258	-2.6547543693	 1.522325418	 0.465963
O	 0.8543226189	-3.0947948945	 2.0926844515	-0.387543
O	-0.9146635593	-1.670166483	 2.0433681519	-0.234829
C	-1.8801338992	-1.2896736487	 1.0838480406	 0.067764
H	 1.0501467694	 1.8069039866	 0.2034123236	 0.117199
H	-0.6824978113	 2.0619447669	-0.0455532545	 0.112377
H	-0.1086559806	 1.2620547044	 1.4261621114	 0.135555
H	 0.1845419719	 0.1035056747	-1.4120594686	 0.102001
H	 0.7392203008	-0.6665681272	 0.0582757686	 0.123307
H	-2.2040185466	-0.0964325195	-0.6924487915	 0.097101
H	-2.4604055844	-2.5964011316	-0.7072293209	 0.113611
H	 0.0196128884	-3.4822085374	-0.3568661752	 0.265834
H	-2.8457067463	-1.078311714	 1.524799719	 0.117717
47.6469	115.1079	149.2425	219.0822	285.1849	308.8462	429.1804	498.588	556.2492	599.9492	708.6306	743.1507	764.7071	773.802	801.5254	815.9098	906.8312	915.5251	982.239	1032.5842	1049.702	1063.8278	1092.8781	1123.676	1138.3147	1158.1749	1202.2701	1225.5607	1291.1473	1336.8929	1374.5813	1377.2981	1396.5797	1410.9572	1438.4015	1489.032	1499.1286	1508.1056	1895.426	3032.047	3036.093	3078.6956	3105.737	3116.014	3128.7258	3171.1506	3197.1731	3663.2733
CCC1C2NC(=O)OC12	CC[C@H]1[C@H]2NC(=O)O[C@@H]12	
InChI=1S/C6H9NO2/c1-2-3-4-5(3)9-6(8)7-4/h3-5H,2H2,1H3,(H,7,8)	InChI=1S/C6H9NO2/c1-2-3-4-5(3)9-6(8)7-4/h3-5H,2H2,1H3,(H,7,8)/t3-,4+,5-/m0/s1
