18
gdb 49570	2.58274	1.58797	1.21103	3.274	76.2	-0.236	-0.0301	0.2059	1063.5686	0.146797	-401.88468	-401.876681	-401.875737	-401.917322	30.594	
O	-0.1720301572	 0.0152414198	 0.1203457079	-0.244466
C	 0.0261636026	 1.1950048876	 0.2537274183	 0.161135
C	 1.3246259655	 1.9120620406	-0.0188435389	-0.1495
N	 2.5065311854	 1.1114391625	-0.4768843811	-0.1315
C	 2.1761520813	 0.569708386	-1.8123089038	-0.23683
C	 2.5693377883	 1.9886563608	-1.7225221978	-0.111035
C	 1.4117217319	 2.8385717661	-1.256878115	 0.353546
C	 0.3410623336	 3.5019480807	-2.0762134869	-0.330875
C	 1.3229481709	 4.3307776173	-1.2762624313	-0.335087
H	-0.7825865996	 1.8777952229	 0.6098998792	 0.073875
H	 1.5934960918	 2.4551598872	 0.8965397787	 0.109468
H	 2.9248745456	-0.1368158017	-2.1568622701	 0.125167
H	 1.1522330909	 0.2961236915	-2.041269114	 0.1327
H	 3.5138854287	 2.3741917991	-2.0935067273	 0.101557
H	 0.4457107564	 3.4797676506	-3.1560326833	 0.122196
H	-0.6854919315	 3.4520271333	-1.7287387543	 0.11964
H	 0.9623219498	 4.8363653804	-0.3857826616	 0.117946
H	 2.0899822255	 4.8769131553	-1.8164089585	 0.122063
86.7822	135.4295	186.7342	221.3947	257.8684	324.2634	414.9829	483.1234	539.8497	725.7279	731.9515	757.4486	775.2072	807.8918	881.3005	906.6924	920.1075	939.4801	1000.2738	1018.6539	1045.1913	1055.8918	1074.5704	1082.0073	1102.748	1107.3598	1141.3159	1186.3661	1216.5171	1220.9398	1252.1282	1311.383	1337.9421	1407.8139	1422.1711	1464.0053	1502.5719	1507.2716	1829.5573	2839.4588	3027.4951	3122.9394	3130.2757	3131.0502	3160.7797	3202.1361	3218.0922	3221.3372
O=CC1N2CC2C11CC1	O=C[C@H]1N2C[C@H]2C21CC2	
InChI=1S/C7H9NO/c9-4-6-7(1-2-7)5-3-8(5)6/h4-6H,1-3H2	InChI=1S/C7H9NO/c9-4-6-7(1-2-7)5-3-8(5)6/h4-6H,1-3H2/t5-,6+,8?/m0/s1
