19
gdb 114213	2.73702	1.28788	1.10245	2.7822	72.54	-0.2487	0.0614	0.3101	1184.2491	0.156976	-460.109394	-460.100139	-460.099195	-460.143631	33.909	
C	-0.2054866675	 1.256603887	 0.0902255625	-0.235461
O	 0.388891512	-0.015660417	-0.0422418424	-0.254497
C	 0.8783722002	-0.5554984233	 1.1618065375	 0.070469
C	-0.2330186771	-1.2193844013	 2.0392804999	-0.346889
C	 0.0716938413	-2.5391567663	 1.3231093807	 0.389438
C	-0.4140961929	-3.9065382134	 1.4744798985	-0.276916
O	-0.8436180703	-3.077504658	 0.3812937467	-0.265009
C	 1.4246262904	-1.9843076073	 0.83065379	 0.067148
O	 1.8468416587	-2.2583459248	-0.4624983403	-0.422228
H	 0.5094061858	 1.9918583296	 0.4896158446	 0.109769
H	-0.5199254506	 1.5712434285	-0.9074385706	 0.13275
H	-1.0857490455	 1.236428744	 0.7484345023	 0.111437
H	 1.5563503997	 0.1503784074	 1.6605635279	 0.06208
H	 0.0156049974	-1.2334568323	 3.1043453601	 0.109003
H	-1.2463806956	-0.8365518793	 1.9041485675	 0.122669
H	 0.2304411679	-4.7400827657	 1.1977774659	 0.120414
H	-1.1817645458	-4.1345285532	 2.2131639818	 0.113505
H	 2.2344756477	-2.2598664253	 1.5139779182	 0.094503
H	 1.1735078944	-1.8924590593	-1.0499140409	 0.297815
62.512	113.9396	145.3772	181.6488	205.362	251.5321	322.215	345.0801	353.6986	416.5169	509.7923	596.5142	670.7404	755.3091	803.8344	846.3963	869.0921	927.5671	954.2072	1003.184	1065.1893	1101.4167	1123.063	1137.2517	1150.8041	1166.1371	1180.033	1184.4077	1204.082	1226.697	1265.7572	1270.7539	1329.3846	1370.8142	1432.0973	1441.0131	1466.7954	1481.5141	1488.4216	1508.5418	1534.6189	2984.1125	3009.5286	3035.9955	3061.0835	3068.566	3079.2552	3120.1289	3127.3908	3165.7978	3789.3534
COC1CC2(CO2)C1O	CO[C@H]1C[C@]2(CO2)[C@H]1O	
InChI=1S/C6H10O3/c1-8-4-2-6(3-9-6)5(4)7/h4-5,7H,2-3H2,1H3	InChI=1S/C6H10O3/c1-8-4-2-6(3-9-6)5(4)7/h4-5,7H,2-3H2,1H3/t4-,5-,6-/m0/s1
