21
gdb 38802	3.03737	1.83473	1.57077	0.1464	86.05	-0.2308	0.0226	0.2534	947.6805	0.187881	-349.96553	-349.959169	-349.958225	-349.99571	28.321	
C	-0.0536862021	 1.5903183649	 0.056283841	-0.239935
C	 1.4939356264	 1.4544184109	 0.0161274522	-0.032842
C	 1.7739530193	 0.7821270693	 1.3712440862	-0.223096
C	 0.6981159639	-0.3596873226	 1.3128972776	 0.004382
C	 1.3375438357	-1.7534172536	 1.2175971488	-0.278858
C	 2.2132414214	-1.8674433768	-0.006866665	-0.056002
C	 2.1981005272	-0.946691806	-0.9731017882	-0.091113
C	 1.2487950152	 0.2096720982	-0.9277373455	-0.014065
C	 0.0020471621	 0.0446532023	-0.0109655024	-0.0266
H	-0.5005586232	 2.0563201567	 0.9402088028	 0.083704
H	-0.4678022499	 2.0335209505	-0.8530916553	 0.091883
H	 2.1393267282	 2.2815712521	-0.2825866713	 0.054942
H	 2.7901909329	 0.3862558817	 1.4450612792	 0.097375
H	 1.614772388	 1.4704865327	 2.2065362224	 0.089848
H	 0.0110527385	-0.3175659267	 2.163444831	 0.058292
H	 1.9395598004	-1.9444354965	 2.1168637824	 0.101126
H	 0.566660357	-2.5386441056	 1.2100684501	 0.100646
H	 2.8797632657	-2.724170686	-0.0712415274	 0.082985
H	 2.8626558241	-1.036230685	-1.8288497835	 0.079949
H	 0.9720467092	 0.5490118291	-1.9297286484	 0.06473
H	-0.85214443	-0.5586748294	-0.3228011164	 0.052648
235.6921	280.0368	344.4184	439.0798	455.2537	497.5829	568.0469	664.0755	716.5746	777.1182	796.9515	836.4532	846.9896	869.3334	888.4416	914.3374	950.5374	958.4124	977.6268	986.9123	1001.1876	1012.0446	1043.4119	1073.7794	1089.6133	1098.9855	1103.7184	1151.4795	1177.9724	1191.3758	1216.7974	1235.1058	1241.7245	1261.7328	1285.4212	1310.3151	1323.4498	1336.7262	1365.1488	1385.699	1416.7935	1475.274	1491.6018	1509.803	1706.7289	2994.7781	3023.0642	3045.6651	3048.854	3058.5307	3068.2963	3098.1905	3099.7642	3103.4737	3109.3091	3143.3641	3167.2197
C1C2CC3CC=CC2C13	C1[C@H]2C[C@@H]3CC=C[C@H]2[C@H]13	
InChI=1S/C9H12/c1-2-6-4-7-5-9(6)8(7)3-1/h1,3,6-9H,2,4-5H2	InChI=1S/C9H12/c1-2-6-4-7-5-9(6)8(7)3-1/h1,3,6-9H,2,4-5H2/t6-,7+,8+,9+/m0/s1
