17
gdb 52520	3.95923	0.82622	0.68944	3.1092	85.97	-0.2498	-0.0444	0.2054	1605.5648	0.134145	-418.016588	-418.006246	-418.005302	-418.053962	34.508	
C	-0.1157774794	 1.5012293716	-0.0343417341	-0.508814
C	 0.0040540004	 0.0540187754	 0.0068431379	 0.208133
C	 0.1057106446	-1.1473711739	 0.0400231145	-0.115835
C	 0.05905452	-2.5941454875	 0.0972398345	 0.295751
O	-0.9972109439	-3.1856016316	 0.2236513934	-0.355628
N	 1.2827368529	-3.2563499814	-0.0001310143	-0.112317
C	 2.5661195893	-2.5797259201	-0.1522563042	-0.330617
C	 1.2861834567	-4.6464775994	 0.0508690201	 0.093628
N	 2.3798507583	-5.2917217152	-0.033575013	-0.480492
H	 0.5377771257	 1.9704932192	 0.7087638377	 0.161814
H	 0.1686529112	 1.8873071424	-1.0191635633	 0.163043
H	-1.1439381613	 1.8177302369	 0.168835796	 0.165573
H	 3.224210937	-2.8369314926	 0.6816169074	 0.148081
H	 3.0528817307	-2.9079642822	-1.0740936343	 0.148365
H	 2.4005584216	-1.5047990955	-0.1795354403	 0.143608
H	 0.2830140637	-5.0554642952	 0.1653170082	 0.145249
H	 2.1953379424	-6.291925801	 0.0215444638	 0.230457
21.5449	53.9538	88.1114	100.9938	160.9521	184.0281	264.3249	306.0461	319.2537	368.2343	397.9037	431.7461	518.1255	652.9533	757.7508	763.4795	840.1981	921.2284	1047.8842	1052.8951	1053.4052	1090.0536	1159.5159	1164.6445	1200.3402	1347.4176	1369.5277	1410.34	1412.4843	1457.1089	1469.9598	1473.4125	1476.0003	1516.1183	1705.657	1742.9263	2347.9704	3033.4017	3058.6972	3097.212	3101.6807	3117.9761	3146.7585	3176.4515	3502.1622
CC#CC(=O)N(C)C=N	CC#CC(=O)N(C)C=N	
InChI=1S/C6H8N2O/c1-3-4-6(9)8(2)5-7/h5,7H,1-2H3	InChI=1S/C6H8N2O/c1-3-4-6(9)8(2)5-7/h5,7H,1-2H3
