13
gdb 10248	3.28561	1.73118	1.14188	4.488	57.34	-0.2626	-0.05	0.2125	962.48	0.092533	-435.796744	-435.788247	-435.787303	-435.832599	27.849	
C	 0.0236296893	 1.5274438187	 0.0095422803	-0.514135
C	 0.0466270934	 0.0114119187	 0.0016853272	 0.444439
O	 1.0858095231	-0.601117565	-0.0111740435	-0.311414
N	-1.2010499386	-0.6865566127	 0.0099498145	-0.219836
C	-1.1335168561	-2.1215526778	 0.0017821124	 0.168418
O	-2.0827493192	-2.8467454865	 0.0062971826	-0.246366
C	-2.4423534363	-0.0024851642	 0.0255330815	 0.172578
O	-3.5207106562	-0.5195701261	 0.0333081936	-0.242744
H	 1.0626564376	 1.8548484063	 0.0011003285	 0.164713
H	-0.4887328186	 1.9312701326	-0.868493794	 0.161717
H	-0.4714898409	 1.922313393	 0.9014407394	 0.161727
H	-0.0863345742	-2.4485338342	-0.0101099698	 0.152406
H	-2.3071736734	 1.0897182872	 0.0296437374	 0.108497
7.5939	47.786	124.6765	225.2777	255.6524	279.7566	284.6749	414.6601	484.8894	527.4792	594.1201	636.0786	894.7453	953.7934	1020.4301	1049.9614	1057.2644	1059.5326	1237.2414	1278.8364	1390.4847	1424.6929	1460.2398	1485.7254	1486.0269	1797.2652	1819.7913	1886.2898	3018.9418	3053.4253	3073.2972	3120.6302	3165.8369
CC(=O)N(C=O)C=O	CC(=O)N(C=O)C=O	
InChI=1S/C4H5NO3/c1-4(8)5(2-6)3-7/h2-3H,1H3	InChI=1S/C4H5NO3/c1-4(8)5(2-6)3-7/h2-3H,1H3
