15
gdb 133163	2.29	1.85284	1.03062	2.627	73.93	-0.2107	-0.0363	0.1744	1071.0078	0.113213	-458.103738	-458.095775	-458.094831	-458.136231	29.656	
C	-0.0482352656	 1.5461551788	 0.0189981822	-0.486094
C	-0.0193795676	 0.0498635936	 0.0049682727	 0.047413
C	-0.0908727984	-0.6849036819	-1.1229294996	 0.332194
F	-0.1943286569	-0.1654834374	-2.3418362858	-0.054539
N	-0.0649724341	-2.0492136461	-1.1405392254	-0.303046
N	 0.0352455413	-2.7971789998	-0.0253268239	-0.1925
C	 0.1077457027	-2.1498261012	 1.092804558	-0.047083
C	 0.0911951304	-0.69095257	 1.2595283155	 0.214099
N	 0.1644933661	-0.0649424164	 2.3853094207	-0.542444
H	 0.8580772712	 1.9341824654	 0.4953506077	 0.148648
H	-0.134026352	 1.9595964312	-0.9871252898	 0.122186
H	-0.8857525781	 1.8994152646	 0.6294947273	 0.14868
H	-0.1215598848	-2.550358047	-2.0119981036	 0.283455
H	 0.1880582103	-2.7725331278	 1.9803602677	 0.124311
H	 0.2368583155	-0.7300464159	 3.1577810763	 0.204723
112.2869	141.6724	194.2702	263.2223	271.7087	343.6776	375.6338	486.6932	507.522	550.5291	569.2982	636.988	676.0364	752.0711	839.3293	859.2667	936.5117	941.9042	1061.8469	1092.4139	1142.6692	1197.7469	1228.5487	1310.2894	1366.2633	1407.3512	1415.5658	1471.6397	1481.8779	1517.1603	1616.2586	1662.9474	1716.5546	3042.6463	3093.8762	3140.9791	3165.0437	3447.1795	3657.3267
CC1=C(F)NN=CC1=N	CC1=C(C=NN[C@@H]1F)[NH]	
InChI=1S/C5H6FN3/c1-3-4(7)2-8-9-5(3)6/h2H,1H3,(H2,7,9)	InChI=1S/C5H7FN3/c1-3-4(7)2-8-9-5(3)6/h2,5,7,9H,1H3/t5-/m0/s1
