17
gdb 73327	3.0922	1.9887	1.44499	2.1844	71.08	-0.2307	0.0598	0.2905	896.8464	0.136752	-421.72204	-421.715478	-421.714534	-421.752448	27.884	
O	 0.260443369	 1.4499853789	 0.2275589881	-0.474772
C	 0.0318495049	 0.0906730017	 0.0533451855	 0.308222
C	 0.8212485793	-0.7621566425	 1.0983984654	-0.129871
O	 0.4568373512	-2.1318630121	 0.7569331412	-0.342211
C	-0.3924547952	-1.849310443	-0.3166485365	 0.463822
C	-1.3000613872	-2.4563980463	-1.3912652931	-0.332719
C	-1.3553360019	-0.891408689	-1.5847793876	-0.121084
C	-1.3331162989	-0.6381839976	-0.0457887301	-0.168277
C	 0.1607222875	-0.7346881437	-1.2529376763	-0.168268
H	-0.2448929754	 1.9304963263	-0.4359171697	 0.285223
H	 1.9044945055	-0.6345669276	 1.0040083006	 0.115705
H	 0.5150368218	-0.5448108626	 2.1267979612	 0.115704
H	-0.8184222773	-3.0319399233	-2.186858671	 0.106437
H	-2.2204782556	-2.9413643921	-1.0538718509	 0.106437
H	-1.9285752861	-0.3547574882	-2.337061483	 0.083985
H	-2.1757226473	-0.6544693441	 0.6458280568	 0.075833
H	 1.008266656	-0.8601535949	-1.9271114206	 0.075834
258.9928	277.0481	291.4411	324.8846	446.9307	462.3276	489.1708	614.1492	697.7485	702.3003	714.8996	813.0485	834.9619	878.5527	897.8777	917.3509	958.6805	978.346	988.6678	1015.9108	1031.6949	1075.3196	1077.6777	1123.2636	1132.5421	1145.2938	1164.559	1179.8074	1211.5021	1211.9194	1228.8425	1291.8112	1331.9447	1357.4948	1381.9651	1507.4857	1515.3315	3043.7435	3049.9996	3095.0432	3112.9779	3113.3376	3116.1601	3143.7771	3820.3147
OC12COC34CC(C13)C24	O[C@@]12CO[C@@]34C[C@@H]([C@H]13)[C@@H]24	
InChI=1S/C7H8O2/c8-6-2-9-7-1-3(4(6)7)5(6)7/h3-5,8H,1-2H2	InChI=1S/C7H8O2/c8-6-2-9-7-1-3(4(6)7)5(6)7/h3-5,8H,1-2H2/t3-,4+,5-,6-,7-
