18
gdb 91201	2.05139	1.6488	1.58291	4.6868	72.39	-0.2372	0.0313	0.2685	1007.7793	0.146924	-439.091139	-439.08242	-439.081476	-439.124279	32.839	
C	-0.0628328992	 1.5540594273	-0.052944544	-0.50199
C	 0.0051788318	 0.0489321872	 0.0483287601	 0.152194
C	-1.302989918	-0.7582136655	 0.3060949479	 0.074593
O	-1.7860661354	-1.4166273761	-0.8376507034	-0.416011
C	-0.5952385603	-1.6041263865	 1.4134535727	-0.277589
C	 0.7070196254	-0.7937106485	 1.1791737096	-0.029312
N	 1.5863847063	-1.3362587226	 0.1450717419	-0.331046
C	 0.9643559168	-0.6981865928	-0.9150076927	 0.406593
O	 1.1482440124	-0.7257745995	-2.0995875422	-0.359035
H	 0.9355984162	 2.0017321937	-0.0251785402	 0.128414
H	-0.5287600529	 1.8404291086	-1.0018565995	 0.146615
H	-0.6545882845	 1.9867388075	 0.7607497445	 0.113466
H	-2.0698458141	-0.1006635324	 0.7406454865	 0.071543
H	-2.5970915218	-1.8798692339	-0.6047524065	 0.28697
H	-1.0317245518	-1.4784987597	 2.4074711053	 0.102639
H	-0.5086248394	-2.6694801533	 1.187440276	 0.103101
H	 1.2163321541	-0.3476099413	 2.034227679	 0.085653
H	 2.1221070145	-2.1942645921	 0.138363275	 0.243203
86.4717	138.8225	181.9049	211.6482	241.2087	256.2317	359.7252	385.3007	428.8212	495.0772	527.5823	637.9964	691.8585	737.0358	772.8861	831.3897	878.3607	895.0261	940.8936	1002.5857	1045.2364	1098.851	1109.8047	1132.6243	1146.444	1179.6065	1208.2352	1219.7185	1241.3694	1293.1463	1329.7922	1339.182	1366.6745	1409.6385	1423.5549	1465.5247	1489.7223	1491.548	1895.0942	2988.2489	3030.9757	3062.0511	3099.1808	3102.327	3105.1649	3122.5575	3578.9043	3816.0623
CC12C(O)CC1NC2=O	C[C@]12[C@@H](O)C[C@H]1NC2=O	
InChI=1S/C6H9NO2/c1-6-3(2-4(6)8)7-5(6)9/h3-4,8H,2H2,1H3,(H,7,9)	InChI=1S/C6H9NO2/c1-6-3(2-4(6)8)7-5(6)9/h3-4,8H,2H2,1H3,(H,7,9)/t3-,4+,6-/m1/s1
