18
gdb 55946	4.17131	1.01217	0.9227	6.1636	71.93	-0.2459	0.0271	0.273	1268.9585	0.149195	-439.075353	-439.067586	-439.066642	-439.10812	29.986	
O	-0.1581626153	 0.5900382	 1.3593150323	-0.374159
C	-0.0413807454	 1.3323302479	 0.2447157194	 0.392633
O	 1.0058336283	 1.4472788639	-0.3336407028	-0.326481
C	-1.3272791939	 2.0450402221	-0.1878393618	-0.342742
C	-2.5663860182	 1.1487218697	-0.2373319571	 0.023282
N	-2.8159154113	 0.3413969696	 1.0276538933	-0.360343
H	-2.8073748799	-0.649346191	 0.8045129879	 0.241966
H	-1.1095243119	 0.5488847055	 1.6226154854	 0.302085
C	-4.2076309864	 0.8562995296	 1.0663325878	 0.001547
C	-4.1737637885	 2.3325404077	 1.2769724932	-0.273202
C	-3.9618709095	 1.7802735309	-0.1151942169	-0.104772
H	-1.4979220755	 2.8599729674	 0.5259866541	 0.127315
H	-1.1444242795	 2.4954572167	-1.1654232888	 0.132411
H	-2.5158295927	 0.4842712402	-1.1049721396	 0.099984
H	-5.0390543204	 0.2124442424	 1.3236002529	 0.10972
H	-5.1397651996	 2.8037737548	 1.4253916477	 0.124784
H	-3.3608611721	 2.777498622	 1.8441339213	 0.121713
H	-4.5969911481	 2.0499272905	-0.9485002485	 0.10426
84.0357	95.8365	209.7028	217.8799	328.8275	405.5892	482.0361	495.6385	611.9045	671.3916	730.5273	760.1725	813.1686	844.2869	863.9152	894.4347	952.2226	961.3311	969.5549	995.791	1002.813	1045.4755	1053.2672	1083.1424	1095.4082	1120.9262	1174.4006	1203.3472	1246.8723	1264.7366	1290.173	1297.076	1353.2935	1383.6522	1399.0426	1462.0101	1467.627	1486.6415	1863.0811	3043.0522	3063.6017	3120.7692	3121.9421	3190.6012	3199.6511	3214.3787	3334.4752	3519.1701
[O-]C(=O)CC1[NH2+]C2CC12	OC(=O)C[C@H]1N[C@H]2C[C@@H]12	
InChI=1S/C6H9NO2/c8-6(9)2-5-3-1-4(3)7-5/h3-5,7H,1-2H2,(H,8,9)	InChI=1S/C6H9NO2/c8-6(9)2-5-3-1-4(3)7-5/h3-5,7H,1-2H2,(H,8,9)/t3-,4+,5-/m1/s1
