18
gdb 20184	3.32242	2.58423	1.98714	1.44	70.24	-0.2339	0.0888	0.3227	751.1113	0.157439	-347.775915	-347.769914	-347.76897	-347.805626	25.093	
C	-0.0052689763	 1.5832100478	 0.0091839404	-0.234708
C	 1.5246925458	 1.5956152996	-0.0781678848	-0.070622
C	 2.1933515141	 0.7243810899	 0.9633937079	-0.028293
C	 1.6945959339	 0.4346827507	 2.3677456651	-0.102639
O	 0.2903140444	 0.2674365692	 2.4717003409	-0.244898
C	-0.2727685566	-0.5481162191	 1.4550866137	-0.085763
C	 0.0350362044	 0.0179657323	 0.0719974248	-0.037999
C	 1.5513965928	 0.0710042002	-0.2228902024	-0.089893
H	-0.4726125451	 2.1032409355	 0.8482956162	 0.106748
H	-0.4545232247	 1.9274253313	-0.9258661897	 0.096546
H	 2.1065760372	 2.3272231005	-0.6271836212	 0.080869
H	 3.2791277744	 0.7714446027	 0.9102439037	 0.08511
H	 2.2084993364	-0.4740549809	 2.7302491089	 0.083963
H	 1.9451698916	 1.2509370242	 3.054343207	 0.106392
H	 0.0962899489	-1.5856088898	 1.5338892516	 0.083276
H	-1.3495273305	-0.5547285345	 1.6536810845	 0.103659
H	-0.5613693481	-0.4764080703	-0.6972556132	 0.070019
H	 2.0854191975	-0.5506620493	-0.9312400934	 0.078234
207.7616	268.9803	350.144	383.55	470.038	567.9524	706.4008	730.045	773.5581	786.5594	822.3736	869.7959	890.0822	955.27	965.2319	990.6502	1016.3875	1043.2007	1054.5563	1074.2543	1085.5338	1101.0409	1125.5549	1157.7761	1180.5374	1224.6727	1260.1029	1270.5516	1293.3147	1315.9309	1320.8023	1340.5821	1384.3965	1416.0541	1446.7583	1488.1195	1492.1084	1500.6506	2940.2597	2957.2639	3058.3142	3060.6859	3069.0426	3089.4962	3114.5583	3133.5518	3169.4407	3183.7348
C1C2C3COCC1C23	C1[C@H]2[C@H]3COC[C@@H]1[C@@H]23	
InChI=1S/C7H10O/c1-4-2-8-3-6-5(1)7(4)6/h4-7H,1-3H2	InChI=1S/C7H10O/c1-4-2-8-3-6-5(1)7(4)6/h4-7H,1-3H2/t4-,5+,6-,7+/m1/s1
