14
gdb 30999	2.44176	1.3549	0.90884	3.1396	61.15	-0.2057	0.0294	0.2351	1195.3449	0.100151	-511.004307	-510.995568	-510.994624	-511.038345	30.861	
O	 0.0987592239	 1.4130613874	 0.3149316749	-0.414589
C	 0.0784513381	 0.0108540634	 0.051811069	-0.191184
C	-1.3009008728	-0.5290295142	-0.0414263993	 0.141499
C	-1.9392348277	-1.2464174229	-0.9773174143	 0.327209
O	-1.5188921425	-1.7400432854	-2.148656474	-0.419901
O	-3.223932824	-1.5285296346	-0.6038183489	-0.251251
C	-3.4523182803	-0.9310522927	 0.6532828486	 0.485931
O	-4.5094166922	-0.965256412	 1.2156250979	-0.389762
N	-2.2568624548	-0.3717498708	 0.9951486644	-0.419325
H	-0.3504401019	 1.8497879044	-0.4172768104	 0.284868
H	 0.6233880905	-0.2515740391	-0.8649681522	 0.119904
H	 0.6202089515	-0.4350092051	 0.8945715308	 0.126289
H	-2.2786765496	-2.1226824605	-2.603831005	 0.318337
H	-2.164064798	 0.265791432	 1.7672587285	 0.281973
68.9712	106.4828	125.1122	197.4219	246.2877	285.4074	325.7285	389.443	404.3725	492.2171	603.8395	629.0027	655.948	689.686	752.8977	847.2301	902.7502	964.7703	1027.2506	1064.1629	1190.2136	1209.9458	1258.5295	1310.7744	1366.9854	1387.4012	1414.3008	1448.7525	1495.8173	1804.2614	1918.2487	3016.6125	3058.854	3684.4006	3802.6876	3814.3811
OCC1=C(O)OC(=O)N1	OCc1c(O)oc(=O)[nH]1	
InChI=1S/C4H5NO4/c6-1-2-3(7)9-4(8)5-2/h6-7H,1H2,(H,5,8)	InChI=1S/C4H5NO4/c6-1-2-3(7)9-4(8)5-2/h6-7H,1H2,(H,5,8)
