21
gdb 108478	2.17071	1.63256	1.24217	2.7105	78.3	-0.237	0.0585	0.2955	1129.859	0.181545	-424.192725	-424.183489	-424.182544	-424.226778	34.707	
C	 0.016923772	 1.531090327	-0.0493622332	-0.378358
C	 0.0476043151	-0.0030783393	-0.0790607692	-0.279304
C	-1.3413504916	-0.5944306157	-0.0216184274	 0.4627
O	-2.0292352534	-0.2648557469	 1.212504261	-0.32526
C	-2.2301132339	-1.6590150024	 1.5362131985	-0.079241
C	-1.7385879828	-2.0998817943	 0.154633503	-0.153888
C	-2.8189684199	-1.9315960674	-0.9513542377	-0.284746
C	-2.2722288023	-0.5000899701	-1.2557495425	 0.092778
O	-3.1470531789	 0.5972910138	-1.2461357299	-0.42708
H	 1.0289940361	 1.9445755398	-0.0888933144	 0.104618
H	-0.5516833095	 1.9317405084	-0.8940426377	 0.126327
H	-0.4640735944	 1.8804665666	 0.8679680801	 0.13988
H	 0.5476480672	-0.3587757103	-0.9892484085	 0.090139
H	 0.6291749662	-0.3813014565	 0.7706309674	 0.096906
H	-1.5894764615	-1.9701341231	 2.3728957593	 0.094958
H	-3.275192493	-1.8832240055	 1.7835846965	 0.099422
H	-1.0426154326	-2.9336886514	 0.0759138133	 0.073392
H	-2.7566163446	-2.635069997	-1.7846410831	 0.095802
H	-3.8413634768	-1.9284035046	-0.5634482144	 0.105384
H	-1.6559962317	-0.5161749218	-2.1688924957	 0.061203
H	-3.6561632599	 0.5858478807	-2.0627453054	 0.284366
69.6775	93.4479	155.1317	201.1524	234.4766	236.9762	302.4593	336.156	413.5303	423.8004	534.0217	621.8198	669.751	778.2258	802.875	827.0856	913.4624	936.6187	959.557	983.6021	985.5993	1014.8646	1030.1282	1070.7541	1111.0501	1117.8215	1143.1788	1149.9308	1170.9623	1195.3435	1212.4489	1245.3504	1265.7328	1295.7364	1308.4273	1338.0442	1351.5436	1374.9125	1408.2785	1434.203	1477.2321	1478.0243	1495.5072	1509.3789	1525.4653	2967.8163	2999.0711	3021.043	3043.3786	3048.0344	3056.9656	3058.1774	3111.5076	3112.2075	3124.398	3125.0747	3817.4498
CCC12OCC1CC2O	CC[C@]12OC[C@H]1C[C@H]2O	
InChI=1S/C7H12O2/c1-2-7-5(4-9-7)3-6(7)8/h5-6,8H,2-4H2,1H3	InChI=1S/C7H12O2/c1-2-7-5(4-9-7)3-6(7)8/h5-6,8H,2-4H2,1H3/t5-,6-,7+/m1/s1
