17
gdb 16013	4.18791	1.80903	1.44815	2.5124	71.86	-0.228	0.0086	0.2365	884.1033	0.144308	-363.836662	-363.829875	-363.828931	-363.867465	26.708	
C	 0.0205277697	 1.51209346	 0.0094769587	-0.290641
N	 1.2773754781	 0.7509167792	 0.0275043295	-0.345976
C	-0.0156415816	 0.02477628	-0.0031867376	 0.314295
C	-0.3864671819	-0.7371790567	 1.2551151768	-0.151963
O	-0.1150323309	-2.1221618256	 1.1174611423	-0.24529
C	-0.8729323998	-2.7236943926	 0.0879651086	-0.123649
C	-0.8399990835	-1.945775605	-1.2000583252	-0.096649
C	-0.4167635626	-0.6824780857	-1.2402966778	-0.125206
H	-0.2013328341	 2.0473977951	 0.929803324	 0.11942
H	-0.2721039129	 2.0365540054	-0.8972427007	 0.111349
H	 1.6976069454	 0.7447634217	-0.8998129924	 0.230012
H	 0.2095234808	-0.3826877066	 2.0989700374	 0.119827
H	-1.4551028266	-0.5770680118	 1.4800717694	 0.085888
H	-0.4443629014	-3.721780127	-0.0592790807	 0.119516
H	-1.9217711818	-2.8726401469	 0.4097808887	 0.096757
H	-1.1748055871	-2.4586423272	-2.0973281661	 0.096787
H	-0.3619142098	-0.1335761262	-2.1782163249	 0.085522
108.6382	245.0128	278.8033	300.9718	391.3296	445.9202	484.3836	542.6358	691.4543	732.817	794.4088	877.6225	911.484	923.5178	942.2858	974.6578	985.2073	997.4032	1026.2036	1080.4055	1084.6189	1122.2468	1147.1553	1198.3006	1245.4723	1264.4412	1305.8286	1332.2687	1349.9673	1383.6356	1414.5865	1440.0472	1480.5103	1490.9855	1509.8404	1712.5105	2920.3451	2959.3657	3055.7605	3097.7243	3107.6255	3142.0073	3174.8158	3181.5631	3486.9563
C1NC11COCC=C1	C1N[C@]21COCC=C2	
InChI=1S/C6H9NO/c1-2-6(4-7-6)5-8-3-1/h1-2,7H,3-5H2	InChI=1S/C6H9NO/c1-2-6(4-7-6)5-8-3-1/h1-2,7H,3-5H2/t6-/m1/s1
