18
gdb 48753	3.0837	1.374	1.13649	3.1986	78.07	-0.2341	-0.0278	0.2063	1101.1327	0.149113	-401.951567	-401.943812	-401.942868	-401.983791	30.124	
O	-0.4497293392	 0.677708456	 0.7676906013	-0.267112
C	 0.1903978337	 1.0118002641	-0.1982304587	 0.136119
C	 1.4237905939	 1.8505867068	-0.141949424	 0.185892
C	 2.0042519906	 2.1005811488	 1.2359360067	-0.279486
C	 3.1974447514	 3.0751790447	 1.244367686	-0.300642
C	 2.9699235312	 4.2718271766	 0.3579979098	-0.079156
C	 2.1907229867	 4.2167774744	-0.7243909186	-0.039599
C	 1.5042222358	 2.9728190556	-1.1534073469	-0.088751
N	 2.2516367238	 1.7191207527	-1.3565611573	-0.36757
H	-0.0995529571	 0.7220189272	-1.2322309086	 0.083403
H	 1.1940055161	 2.5025866926	 1.8535546323	 0.13112
H	 2.2906247037	 1.1491409732	 1.6958571319	 0.117524
H	 3.3918772876	 3.3972871269	 2.2727866611	 0.115819
H	 4.1143398806	 2.5525576862	 0.9330429354	 0.115011
H	 3.4753216835	 5.1981791907	 0.6149090103	 0.099821
H	 2.0376544418	 5.0958405955	-1.3431764443	 0.098162
H	 0.6878348437	 3.095731879	-1.8605347119	 0.099275
H	 3.231805202	 1.8663995992	-1.1254117745	 0.240171
95.4522	170.0622	210.3241	221.6581	341.0759	360.0436	431.994	482.9309	542.6882	615.6011	708.7647	715.1943	758.4882	791.6459	845.1299	901.3288	941.9898	986.3207	995.6242	1025.3273	1033.0983	1066.5253	1068.4088	1126.0505	1172.4423	1189.1418	1208.7837	1267.5343	1295.8098	1320.4531	1353.2703	1374.2611	1412.06	1417.7942	1429.7826	1484.0477	1491.215	1706.6178	1817.7436	2896.9141	2994.6685	3048.8416	3065.9463	3086.9006	3137.3702	3163.1387	3184.7023	3497.8706
O=CC12CCC=CC1N2	O=C[C@]12CCC=C[C@H]1N2	
InChI=1S/C7H9NO/c9-5-7-4-2-1-3-6(7)8-7/h1,3,5-6,8H,2,4H2	InChI=1S/C7H9NO/c9-5-7-4-2-1-3-6(7)8-7/h1,3,5-6,8H,2,4H2/t6-,7-/m1/s1
