17
gdb 92876	2.42893	1.59034	1.12748	1.8593	71.17	-0.2436	-0.0617	0.182	1077.8223	0.136438	-458.990562	-458.982285	-458.981341	-459.023405	31.613	
O	 0.0528469795	 1.4526649193	 0.0678191026	-0.445268
C	 0.0848908962	 0.0416311554	 0.0334274099	 0.112838
C	 0.8079394376	-0.5522742464	 1.2552003457	-0.279991
C	 0.7138122931	-2.0492054325	 1.2866927606	-0.057281
C	-0.2788774574	-2.737621083	 0.7039618162	-0.14233
C	-1.3748427086	-2.0658404912	-0.0105847737	 0.355362
O	-2.3277316849	-2.6625638649	-0.4761462919	-0.344738
C	-1.3257590935	-0.5310623149	-0.0887245654	-0.014688
O	-2.0644847543	 0.0041587482	 1.0150273551	-0.451574
H	-0.6765463827	 1.6876670381	 0.6560038231	 0.292136
H	 0.6419179767	-0.2365213679	-0.8691779642	 0.098404
H	 1.8524970041	-0.2261556005	 1.2609680958	 0.119397
H	 0.3505714355	-0.1451461712	 2.1672377253	 0.136585
H	 1.4890836201	-2.5873482718	 1.8273992286	 0.114781
H	-0.3369283728	-3.8202129237	 0.7541999504	 0.111112
H	-1.7790642792	-0.2220833062	-1.0392592793	 0.093098
H	-2.9753358595	-0.2978239167	 0.9296413513	 0.302158
69.0114	154.6332	221.2764	259.3787	324.9354	340.9809	369.2022	439.1064	444.9455	454.4178	505.147	645.2045	664.5379	709.3181	812.2306	884.4314	913.1277	951.6509	983.5738	1024.2248	1057.1067	1084.6065	1108.7409	1170.4257	1185.0801	1221.4029	1269.5192	1280.4293	1322.7292	1351.2382	1373.1519	1408.7163	1410.7975	1445.1617	1465.8794	1673.1886	1767.2597	3024.3352	3028.9941	3048.945	3083.0712	3155.6346	3191.3552	3774.2902	3815.8611
OC1CC=CC(=O)C1O	O[C@H]1CC=CC(=O)[C@H]1O	
InChI=1S/C6H8O3/c7-4-2-1-3-5(8)6(4)9/h1-2,5-6,8-9H,3H2	InChI=1S/C6H8O3/c7-4-2-1-3-5(8)6(4)9/h1-2,5-6,8-9H,3H2/t5-,6+/m0/s1
