17
gdb 43691	6.79702	0.6351	0.61208	1.9759	74.56	-0.2482	-0.0333	0.2148	1722.5058	0.134719	-418.010107	-418.001132	-418.000188	-418.045154	31.99	
O	 0.1458527237	 0.0865813793	-0.2851322349	-0.280592
C	 0.0442553411	 1.242718225	 0.0004605439	 0.404829
C	-1.1502864585	 2.1909387266	 0.190274159	-0.374933
C	-0.1837992333	 3.1913564511	 0.8843703804	 0.0545
C	 1.0505866386	 2.3282092598	 0.4183317999	-0.372111
N	-0.3223092943	 4.5712775019	 0.4714810473	-0.298024
C	 0.6718803095	 5.4562661347	 1.0698845106	-0.26703
C	 0.4945268936	 6.8351588776	 0.6071326041	 0.257585
N	 0.3714692455	 7.9176083414	 0.2241150454	-0.292654
H	-1.5222874614	 2.5663916149	-0.7705933109	 0.135789
H	-1.9995999555	 1.8111170909	 0.7618346157	 0.141831
H	-0.2890061607	 3.1517433993	 1.9733839016	 0.100399
H	 1.8036091398	 2.0345141928	 1.1537007695	 0.133094
H	 1.5582994805	 2.7567272214	-0.4545333935	 0.128626
H	-0.2848525498	 4.6472348474	-0.5407285609	 0.230542
H	 0.5458147978	 5.4379609615	 2.1597430863	 0.160275
H	 1.7187500534	 5.1641985545	 0.8713306366	 0.137873
41.1075	70.9022	99.3309	133.1495	238.4127	344.7407	380.6914	399.9923	425.6864	494.2651	543.4225	657.4823	669.4495	745.9921	786.0183	894.8626	931.061	954.6545	989.9921	1004.0309	1024.1527	1107.9624	1117.4231	1156.1012	1180.1486	1202.9856	1235.589	1264.6151	1270.5349	1344.5467	1402.5679	1421.0431	1444.61	1490.987	1503.6557	1899.8788	2370.3249	2946.7617	3041.5926	3048.3073	3049.7274	3059.016	3113.4207	3121.234	3512.2424
O=C1CC(C1)NCC#N	O=C1CC(C1)NCC#N	
InChI=1S/C6H8N2O/c7-1-2-8-5-3-6(9)4-5/h5,8H,2-4H2	InChI=1S/C6H8N2O/c7-1-2-8-5-3-6(9)4-5/h5,8H,2-4H2
