16
gdb 125528	5.06527	1.319	1.19871	2.8399	74.91	-0.245	-0.0118	0.2332	1047.312	0.126248	-396.889684	-396.882658	-396.881714	-396.92119	26.989	
C	-0.0303535653	 1.4292116073	 0.0265956902	-0.477742
C	 0.1022210268	-0.0550889394	-0.0192512431	 0.340523
N	-0.1116357375	-0.7520196252	-1.1360893196	-0.307753
N	-0.0697202519	-2.0300688266	-0.6529215674	 0.035136
C	 0.5885390983	-3.322613383	-0.937933179	-0.002731
C	 2.0316881736	-3.2857957721	-0.5157816619	-0.267221
C	 0.9430148118	-3.3954782903	 0.5494468947	-0.189674
C	 0.3239918922	-2.0174468716	 0.6418422217	 0.276898
N	 0.4398486699	-0.7970337783	 1.1077900074	-0.367238
H	 0.8283940447	 1.8712924059	 0.5394556498	 0.140082
H	-0.1009570076	 1.8320890503	-0.9850481969	 0.140989
H	-0.9274226883	 1.7227933701	 0.5825717124	 0.141389
H	 0.1327215231	-4.058872695	-1.5849555976	 0.130336
H	 2.6038493596	-4.1905187622	-0.7050520342	 0.131602
H	 2.5953189251	-2.3636266472	-0.6112539717	 0.150219
H	 0.8458022055	-4.2328411627	 1.2244229553	 0.125185
117.751	122.8219	264.7309	284.9527	311.3268	511.1475	519.7015	616.4424	693.3601	740.0744	773.1429	791.6064	852.7301	871.0515	948.1386	966.6855	1001.2271	1022.6574	1027.9058	1047.2017	1067.5279	1093.7692	1128.3243	1173.6315	1237.624	1259.1736	1284.8295	1301.0047	1386.0707	1402.2559	1468.9291	1476.703	1478.1228	1510.8438	1577.0408	3045.343	3104.2556	3123.3265	3146.6495	3213.1763	3220.1487	3233.2623
CC1=NN2C3CC3C2=N1	CC1=NN2[C@H]3C[C@H]3[C]2[N]1	
InChI=1S/C6H7N3/c1-3-7-6-4-2-5(4)9(6)8-3/h4-5H,2H2,1H3	InChI=1S/C6H7N3/c1-3-7-6-4-2-5(4)9(6)8-3/h4-5H,2H2,1H3/t4-,5+/m1/s1
