20
gdb 6530	3.18304	1.58263	1.26756	2.2028	71.23	-0.2554	0.0796	0.335	1045.4109	0.173771	-386.131731	-386.121948	-386.121004	-386.16587	35.72	
C	 0.1893771189	 1.426447287	-0.2073836166	-0.455538
C	 0.0035954859	-0.0476096518	 0.1017966246	 0.342546
C	-1.1325111588	-0.6664204657	-0.6939661109	-0.458593
O	 1.2169970985	-0.8266732227	 0.1458749125	-0.340291
C	 0.4889375134	-0.6261883418	 1.3805027177	 0.299382
C	 1.2081503699	 0.1948222523	 2.4344780871	-0.469174
C	-0.0722456422	-1.9253910762	 1.9438819501	-0.125633
O	 0.986040499	-2.8116674893	 2.2752545475	-0.419156
H	 1.0098780968	 1.8742666688	 0.3516400788	 0.126877
H	 0.3969125435	 1.5550723053	-1.2751599272	 0.126293
H	-0.7281509712	 1.9801887952	 0.0202166485	 0.120792
H	-1.0284593899	-0.3972782391	-1.750712948	 0.123274
H	-1.1378654198	-1.7541049861	-0.6297867972	 0.130773
H	-2.1016121689	-0.2878667806	-0.3509914492	 0.12182
H	 0.4907869663	 0.7039093047	 3.0876553894	 0.117971
H	 1.8109119972	-0.4778904365	 3.0514255702	 0.141872
H	 1.8719775781	 0.9380597965	 1.9935365835	 0.127146
H	-0.6105474113	-1.7259271725	 2.8768024328	 0.107859
H	-0.7749619325	-2.3972654413	 1.2484717732	 0.089003
H	 1.516356417	-2.9007669562	 1.4739318632	 0.292776
71.1982	116.3741	150.0347	160.9732	168.8637	255.4754	294.5934	347.4563	364.4582	391.5483	440.6895	457.1642	495.254	568.1913	692.5144	737.469	874.664	904.4705	929.7517	943.8622	1000.7521	1029.2063	1059.4534	1083.7033	1149.7258	1161.0678	1197.0327	1237.4474	1262.0692	1366.6967	1402.7656	1406.8785	1418.2647	1429.1873	1442.9149	1473.5592	1478.9677	1484.3941	1498.3287	1509.2131	1510.6859	1525.4534	3034.3093	3038.2387	3041.4805	3045.68	3079.7514	3093.2103	3099.1618	3109.4876	3144.8001	3150.5222	3160.5998	3786.7697
CC1(C)OC1(C)CO	CC1(C)O[C@]1(C)CO	
InChI=1S/C6H12O2/c1-5(2)6(3,4-7)8-5/h7H,4H2,1-3H3	InChI=1S/C6H12O2/c1-5(2)6(3,4-7)8-5/h7H,4H2,1-3H3/t6-/m1/s1
