25
gdb 118142	3.15999	0.75938	0.64351	1.3068	89.63	-0.261	0.0808	0.3418	1807.8455	0.228289	-389.481246	-389.47058	-389.469636	-389.517509	39.191	
C	 0.1332056042	 1.5238007271	 0.1066005764	-0.399796
C	-0.0245729279	-0.0035136377	 0.0427388688	-0.004663
C	-1.49770646	-0.4471155382	 0.0490940214	-0.166969
C	-2.2602677316	-0.1175085678	 1.3268915926	-0.085802
O	-3.5527126606	-0.6994484783	 1.2173038465	-0.421742
C	 0.6960790168	-0.5671624816	-1.1823674399	 0.078749
C	 2.2446266142	-0.4378311924	-1.2813368124	-0.238369
C	 2.2878720588	-1.8629721768	-1.8941695167	-0.219581
C	 0.8633010726	-2.1079354847	-1.3293939545	-0.233839
H	 1.1883510393	 1.8115208745	 0.0602605194	 0.115772
H	-0.3796224738	 2.0032687932	-0.7360518451	 0.111885
H	-0.2799444609	 1.9431709313	 1.0287103588	 0.111121
H	 0.4624910367	-0.4333389703	 0.9324194732	 0.060546
H	-2.0260259014	 0.0047462198	-0.8006898256	 0.097902
H	-1.5543423563	-1.532760679	-0.0925791348	 0.108139
H	-1.7158021835	-0.5213929935	 2.1972916711	 0.080735
H	-2.3329116554	 0.9719285707	 1.4655519902	 0.085318
H	-4.0558880599	-0.4614971662	 2.0013221366	 0.283532
H	 0.2349419834	-0.1591325752	-2.0916363105	 0.063329
H	 2.6566027121	 0.3851402353	-1.8706675331	 0.093012
H	 2.7020537798	-0.413656126	-0.2859074147	 0.09484
H	 2.2900527233	-1.833010958	-2.9876509507	 0.10046
H	 3.0864332792	-2.5328308719	-1.5666053466	 0.093876
H	 0.8977288581	-2.5955241019	-0.3488519699	 0.095658
H	 0.1490790229	-2.6459601722	-1.9573065008	 0.095888
68.5421	77.1634	107.8043	119.3656	147.5231	217.8208	244.2165	266.2575	311.2169	333.5666	365.3883	445.0345	525.5666	641.0037	765.7289	785.0082	798.1174	884.4731	897.2397	935.7991	952.2758	958.1171	971.232	1004.6033	1012.5728	1045.2403	1068.6077	1091.8705	1129.1054	1176.412	1188.9919	1203.5165	1223.7389	1242.3768	1254.706	1256.7458	1263.5939	1276.5354	1293.8124	1307.8121	1319.3556	1345.5912	1371.5169	1393.9096	1411.3045	1462.7759	1477.1107	1486.4897	1488.8489	1499.3939	1505.1236	1509.2665	1528.8281	2956.8537	2978.0235	2994.6601	3017.1792	3025.2526	3030.4538	3039.5002	3044.7794	3056.6589	3071.119	3093.0775	3094.2733	3098.1693	3104.9142	3114.4673	3829.6833
CC(CCO)C1CCC1	C[C@@H](CCO)C1CCC1	
InChI=1S/C8H16O/c1-7(5-6-9)8-3-2-4-8/h7-9H,2-6H2,1H3	InChI=1S/C8H16O/c1-7(5-6-9)8-3-2-4-8/h7-9H,2-6H2,1H3/t7-/m0/s1
