22
gdb 69515	2.30883	1.63825	1.29066	1.8512	86.65	-0.1941	0.0773	0.2714	1129.5234	0.192502	-367.147964	-367.138632	-367.137687	-367.181056	36.794	
C	-0.043635088	 1.5606642564	 0.1018769657	-0.495713
C	 0.0218795179	 0.0620285258	 0.0272844754	 0.320344
C	-0.8948109182	-0.8594081932	 0.7886692562	-0.344476
C	 0.5926067293	-0.9293094955	 1.03496621	-0.160513
C	 1.3632805783	-1.6407292117	-0.1179272563	 0.295873
C	 2.7107728261	-2.273415853	 0.0295035586	-0.512902
N	 0.3560789046	-2.1223755724	-1.1057974708	-0.421826
C	 0.8001582665	-0.6974467977	-1.1095967196	 0.224614
C	 1.372428392	-0.0550757728	-2.3351882556	-0.514906
H	 0.9364058622	 2.0231166958	-0.0662216541	 0.112129
H	-0.7360147437	 1.9744837308	-0.6420070076	 0.117819
H	-0.3927122203	 1.8814589972	 1.088761092	 0.117681
H	-1.4541933397	-0.3706936172	 1.58178924	 0.097534
H	-1.4072006185	-1.6751578424	 0.2958102945	 0.137176
H	 1.0418261338	-0.7174989114	 1.9980720543	 0.079804
H	 2.6427907352	-3.2311561664	 0.5600198556	 0.128552
H	 3.1715901584	-2.4634220962	-0.9461045018	 0.113838
H	 3.3874891482	-1.6270097835	 0.5998010349	 0.123532
H	 0.8768104383	-2.5886189772	-1.8499431046	 0.214166
H	 0.5914986141	 0.1584364485	-3.0754367041	 0.127824
H	 1.869569924	 0.8909031449	-2.0965322438	 0.12499
H	 2.1121772993	-0.7077707889	-2.8117372188	 0.11446
139.9092	171.9232	188.9208	204.84	212.7742	250.6097	294.7079	332.7411	377.001	459.2044	489.9402	542.3914	556.2233	616.6373	689.8627	767.9635	831.0603	837.8312	872.9688	904.9422	934.9288	964.2111	1000.0102	1022.5269	1051.7129	1067.8453	1093.909	1099.2996	1101.7945	1114.93	1155.1751	1212.4635	1227.5261	1318.8411	1327.6879	1367.5185	1409.2897	1411.408	1421.3004	1465.0492	1472.9216	1477.8508	1485.0074	1492.4589	1494.3426	1503.9147	1512.198	3014.5309	3017.5183	3021.7548	3068.8234	3077.8252	3080.3854	3090.6364	3092.2996	3096.4428	3130.6277	3180.1193	3228.8359	3450.3585
CC12CC1C1(C)NC21C	C[C@]12C[C@H]1[C@@]1(C)N[C@@]21C	
InChI=1S/C8H13N/c1-6-4-5(6)7(2)8(6,3)9-7/h5,9H,4H2,1-3H3	InChI=1S/C8H13N/c1-6-4-5(6)7(2)8(6,3)9-7/h5,9H,4H2,1-3H3/t5-,6+,7-,8+/m1/s1
