16
gdb 42471	4.60349	0.68138	0.61848	3.9701	71.14	-0.2813	-0.0876	0.1937	1706.0205	0.121993	-437.88095	-437.871731	-437.870787	-437.916762	31.42	
O	-0.1631325731	-0.0739108459	 0.2354043501	-0.263118
C	 0.0004408835	 1.1047429377	 0.047254311	 0.286294
C	 1.3330542674	 1.8123614032	 0.0398747408	-0.300137
C	 2.5155323412	 0.8747227438	 0.2964677142	-0.233623
C	 3.824583928	 1.6251594121	 0.2632209139	 0.08244
C	 5.0254068452	 1.0773658734	-0.3772812655	-0.177133
O	 4.247781753	 2.0887829579	-1.0224515309	-0.236145
C	-1.1657844312	 1.9848057929	-0.2012745272	 0.230346
N	-2.0670708231	 2.6831720482	-0.3933789776	-0.292487
H	 1.4431814962	 2.3199961776	-0.9281973425	 0.167926
H	 1.2825768177	 2.6220161959	 0.7821322583	 0.146812
H	 2.395883823	 0.3805483778	 1.2669835977	 0.124561
H	 2.5239452878	 0.0858751279	-0.4614370275	 0.127096
H	 3.9660670374	 2.3581780417	 1.0605036999	 0.096353
H	 6.0119401167	 1.3904354608	-0.0392969076	 0.121117
H	 4.9828582302	 0.0912045949	-0.8376217571	 0.119698
41.6982	58.4578	93.7253	120.7198	192.375	244.516	276.0425	374.4412	452.4425	492.2962	573.5792	612.4618	761.8571	801.4139	834.9983	887.132	949.0682	995.5672	1038.3748	1078.5301	1106.6054	1119.0997	1162.4792	1170.3389	1208.7296	1288.8114	1302.4265	1310.6328	1389.7732	1440.5307	1450.7171	1474.2129	1531.2378	1799.6946	2337.6199	3020.3203	3050.6926	3055.7288	3082.4424	3087.4223	3105.4618	3174.0105
O=C(CCC1CO1)C#N	O=C(CC[C@H]1CO1)C#N	
InChI=1S/C6H7NO2/c7-3-5(8)1-2-6-4-9-6/h6H,1-2,4H2	InChI=1S/C6H7NO2/c7-3-5(8)1-2-6-4-9-6/h6H,1-2,4H2/t6-/m0/s1
