23
gdb 100547	3.58402	0.84513	0.77915	2.4716	87.43	-0.2376	-0.0089	0.2287	1605.8695	0.203998	-388.310694	-388.300139	-388.299195	-388.347192	38.18	
C	 0.0595378021	 1.5589269021	 0.0186880796	-0.398415
C	 0.015017744	 0.0298629688	-0.0538101548	-0.164871
C	-1.4004882076	-0.5615505065	 0.01822445	-0.077068
C	-2.2761546942	-0.183346299	-1.1963076346	-0.398728
C	-1.3601929455	-2.0863298656	 0.1332996851	 0.375955
O	-0.3761911468	-2.7309173763	-0.1710823138	-0.34393
C	-2.6021627137	-2.7557419646	 0.6261984704	-0.095797
C	-2.9418924367	-4.1217760998	 0.0454975045	-0.249679
C	-2.4237612676	-4.0314297886	 1.4382195464	-0.252131
H	 1.0944407177	 1.9146653224	 0.0297978928	 0.11535
H	-0.4360601553	 2.0290346751	-0.8366159211	 0.11615
H	-0.4264659847	 1.9303382601	 0.9285596316	 0.110247
H	 0.497633707	-0.3212323914	-0.9723142726	 0.110852
H	 0.6071544854	-0.3907575473	 0.7663328291	 0.103226
H	-1.9039655951	-0.1846933754	 0.921083232	 0.080636
H	-3.2680905045	-0.6413572172	-1.1390326491	 0.120699
H	-2.4148193247	 0.8991700992	-1.2553799139	 0.123965
H	-1.8043041325	-0.5182286275	-2.1261638271	 0.12947
H	-3.4296462264	-2.1087883364	 0.8943392121	 0.085963
H	-3.9906460168	-4.3447857554	-0.1134178549	 0.116208
H	-2.2619717236	-4.485678965	-0.7161753108	 0.137306
H	-1.3964953389	-4.3328847835	 1.6077191194	 0.13832
H	-3.1055308813	-4.1903536781	 2.2657146798	 0.116272
43.9494	58.7936	76.9963	149.7457	208.7737	217.2874	259.3456	265.3274	285.3063	321.3953	353.4006	445.8281	653.1608	739.721	761.3168	784.8198	815.355	830.2135	837.6198	892.1826	918.1408	968.1649	984.4823	1022.813	1057.0841	1081.1398	1089.447	1097.492	1116.6318	1131.6044	1144.6945	1199.0983	1211.3891	1224.2846	1286.936	1307.1235	1340.8378	1384.7405	1401.2498	1409.5462	1413.8453	1453.4911	1479.0331	1485.2808	1495.2923	1502.1164	1506.0597	1511.2948	1779.4778	2997.0516	3030.3432	3039.2875	3044.5442	3073.4948	3098.4387	3104.7452	3108.0578	3118.6455	3140.6403	3142.1167	3173.2196	3228.2809	3242.7742
CCC(C)C(=O)C1CC1	CC[C@@H](C)C(=O)C1CC1	
InChI=1S/C8H14O/c1-3-6(2)8(9)7-4-5-7/h6-7H,3-5H2,1-2H3	InChI=1S/C8H14O/c1-3-6(2)8(9)7-4-5-7/h6-7H,3-5H2,1-2H3/t6-/m1/s1
