20
gdb 67958	2.21526	1.83484	1.30773	2.9358	79.41	-0.2564	0.0312	0.2876	1060.1586	0.172452	-403.182591	-403.174559	-403.173615	-403.214825	31.966	
C	-0.1904744274	 1.5929414513	 0.1364434906	-0.465359
C	 0.0016939508	 0.0943052507	 0.1049440816	 0.433934
C	-1.2399101151	-0.7554598311	-0.1704724651	-0.24802
C	-0.8936591992	-2.1545388629	 0.3767109112	-0.226351
C	-0.0406373716	-1.8655108949	 1.6299577039	-0.222295
C	 0.7829751822	-0.6248728384	 1.2481750135	-0.198916
C	 1.8205641292	-0.8642530697	 0.1726889632	 0.431771
N	 2.9470962411	-1.4178845817	 0.1471950395	-0.55992
O	 1.0941785706	-0.2688294896	-0.834007968	-0.303911
H	 0.755299127	 2.103323001	 0.338813396	 0.129056
H	-0.5738571975	 1.9537243657	-0.8235704991	 0.130614
H	-0.908718153	 1.8695315867	 0.914933703	 0.122208
H	-2.0851588354	-0.3287654921	 0.3835756429	 0.101133
H	-1.5032933756	-0.7501750565	-1.231889241	 0.111708
H	-1.7798438481	-2.7548291644	 0.5963648478	 0.099267
H	-0.3009062502	-2.7060690465	-0.3601282059	 0.122418
H	-0.6857836872	-1.6214759825	 2.4820254296	 0.100809
H	 0.5935821166	-2.7056116221	 1.9235263342	 0.123733
H	 1.1244921348	-0.0273188602	 2.0939798175	 0.095266
H	 3.347739938	-1.3950544227	-0.7927075056	 0.222854
103.6522	182.1221	218.5328	244.6463	290.0114	327.8357	372.3172	468.0127	559.6581	579.3402	614.7467	688.3736	787.9669	816.0781	862.6852	874.1669	880.5688	902.2603	925.2141	946.1093	993.491	1018.0881	1036.0983	1055.5835	1106.8206	1115.0604	1164.8883	1210.1342	1225.911	1246.9555	1272.5933	1288.1488	1309.5006	1337.4345	1351.9989	1369.8066	1412.3101	1471.6357	1482.9176	1488.6852	1494.3041	1501.2553	1816.8851	3034.1112	3039.3068	3040.9251	3057.2668	3094.9954	3101.9422	3107.3393	3110.0181	3112.5302	3116.9545	3467.2903
CC12CCCC1C(=N)O2	C[C@]12CCC[C@H]1[C]([NH])O2	
InChI=1S/C7H11NO/c1-7-4-2-3-5(7)6(8)9-7/h5,8H,2-4H2,1H3	InChI=1S/C7H11NO/c1-7-4-2-3-5(7)6(8)9-7/h5,8H,2-4H2,1H3/t5-,7-/m0/s1
