23
gdb 92750	3.05497	1.14945	0.9133	0.183	94.05	-0.2248	0.0245	0.2493	1384.4027	0.206261	-351.175395	-351.166024	-351.165079	-351.209366	36.306	
C	-0.0823429492	 1.5921751234	 0.0024353415	-0.396488
C	 0.0074992787	 0.0551729436	 0.0216484841	-0.010684
C	 0.6105911179	-0.469522195	-1.2974818302	-0.256533
C	 0.5672414129	-1.9694339956	-1.4324416986	-0.166685
C	 1.2909862438	-2.8076053421	-0.6896362415	 0.343882
C	 1.2165676462	-4.3013052758	-0.8549393319	-0.477501
C	 2.2561925663	-2.3005247194	 0.3699413578	-0.363831
C	 1.6937491704	-1.3364123829	 1.3934115834	-0.076769
C	 0.759178563	-0.395131038	 1.2529408162	-0.018902
H	 0.9126770738	 2.041178809	-0.093673311	 0.116298
H	-0.6920692553	 1.9381837064	-0.8386123501	 0.10889
H	-0.5323153235	 1.9748608094	 0.9244338623	 0.110494
H	-1.0217511848	-0.3297266777	 0.0958480931	 0.082043
H	 0.073270452	-0.0092178449	-2.1335910495	 0.090334
H	 1.6474377072	-0.1094474889	-1.3649856032	 0.101421
H	-0.1120975225	-2.3808454094	-2.1761253545	 0.073279
H	 0.5249008555	-4.5872448541	-1.6520018592	 0.117425
H	 2.2023368212	-4.7235314223	-1.09197901	 0.120135
H	 0.8884284791	-4.7866823059	 0.0737334536	 0.12256
H	 2.6700776306	-3.1582079192	 0.9114165879	 0.100138
H	 3.1269654607	-1.8391121204	-0.1246962851	 0.122891
H	 2.1274138681	-1.4475866665	 2.3858912862	 0.082633
H	 0.4963325577	 0.1643604062	 2.1511458387	 0.074971
62.4213	98.9067	208.5712	227.9989	253.8143	293.0627	305.7185	331.2004	369.4842	390.6356	491.578	531.1239	622.891	669.0041	716.8525	797.8273	850.9499	876.657	890.266	927.625	933.8253	1002.879	1010.8608	1020.0387	1060.6771	1066.3853	1090.6024	1106.4646	1146.6087	1170.4158	1213.9621	1243.6783	1283.734	1303.6357	1344.1124	1355.6447	1367.537	1387.6386	1404.0392	1411.1195	1434.1967	1470.0651	1479.944	1488.8377	1491.0323	1496.3267	1501.166	1730.167	1747.2133	2972.3737	2975.5838	3003.912	3009.6066	3027.0111	3053.7434	3054.2027	3062.2497	3096.4879	3099.6589	3108.4744	3111.0798	3140.7163	3143.735
CC1CC=C(C)CC=C1	C[C@H]1CC=C(C)CC=C1	
InChI=1S/C9H14/c1-8-4-3-5-9(2)7-6-8/h3-4,7-8H,5-6H2,1-2H3	InChI=1S/C9H14/c1-8-4-3-5-9(2)7-6-8/h3-4,7-8H,5-6H2,1-2H3/t8-/m1/s1
