19
gdb 126813	2.23776	1.52437	0.97766	2.9281	78.98	-0.211	0.0398	0.2508	1245.754	0.159913	-419.223132	-419.213924	-419.21298	-419.258305	32.811	
C	 0.1428543301	 2.4039739301	-0.3430736287	-0.375617
C	-0.1860447687	 0.912015225	-0.2688100806	-0.146598
N	 0.5537583835	 0.1269188315	-1.2406710312	-0.056492
N	 0.1612013897	 0.0930763986	-2.5428540377	-0.277805
C	 1.071082256	-0.6583948168	-3.147740846	 0.00696
C	 2.0698925646	-1.1215743106	-2.2627786163	-0.391001
C	 1.6924661431	-0.582602429	-1.0460770931	 0.494295
O	 2.2117585606	-0.6333572284	 0.1952244209	-0.263036
C	 3.3809890979	-1.4290450279	 0.3279976074	-0.247718
H	 1.1974581915	 2.5833687061	-0.1140220578	 0.125416
H	-0.0647785747	 2.7865307959	-1.3455365188	 0.143589
H	-0.465257934	 2.9610205629	 0.3764202442	 0.115798
H	 0.0473206119	 0.5086631744	 0.719432503	 0.129495
H	-1.2482050101	 0.7432246713	-0.4651642627	 0.129561
H	 0.9825561228	-0.8535793937	-4.2069374313	 0.107132
H	 2.9191702567	-1.7476996669	-2.4751384239	 0.102627
H	 4.1921899701	-1.0414762465	-0.3000014368	 0.131806
H	 3.6726457694	-1.3757664011	 1.3774984969	 0.139561
H	 3.1798440698	-2.471381225	 0.0529623227	 0.132028
29.7881	81.803	122.7698	190.3535	191.4453	240.0382	301.5114	328.438	403.7544	533.2027	624.0445	666.5477	689.9768	737.8491	745.5948	794.0068	876.8446	938.2028	975.738	1031.3003	1072.7335	1092.2755	1105.1285	1182.4111	1205.0356	1214.511	1252.2332	1268.0872	1341.1753	1372.4958	1395.5022	1408.093	1454.6184	1473.134	1480.4882	1485.2016	1489.9405	1505.7593	1506.2132	1552.2353	1600.0567	3015.9906	3043.4443	3068.6001	3079.0242	3110.2099	3118.4531	3136.3466	3144.573	3237.8476	3278.5091
CCN1N=CC=C1OC	CCn1nccc1OC	
InChI=1S/C6H10N2O/c1-3-8-6(9-2)4-5-7-8/h4-5H,3H2,1-2H3	InChI=1S/C6H10N2O/c1-3-8-6(9-2)4-5-7-8/h4-5H,3H2,1-2H3
