19
gdb 112893	3.10163	1.10787	0.86043	2.4982	72.51	-0.2264	-0.0264	0.2001	1338.5199	0.157638	-460.175839	-460.166523	-460.165579	-460.210372	34.052	
C	-0.014091097	 1.4430714876	-0.0725554823	-0.248167
O	 0.1726370699	 0.0456615588	 0.0861796704	-0.243628
C	 0.6117266562	-0.6195301683	-1.0667117063	 0.035295
C	 1.1631920973	-2.0076696278	-0.7352902974	-0.260151
C	 1.0403414747	-2.793913101	-2.0473747323	 0.111066
O	 1.113194499	-4.1790199261	-1.7656873821	-0.428572
C	-0.3068468986	-2.3285610235	-2.6328737325	-0.356552
C	-0.5011451931	-0.9056301863	-2.1061586817	 0.379355
O	-1.3791646407	-0.1426923061	-2.4168383775	-0.311752
H	 0.9183965367	 1.9308172757	-0.3982387756	 0.10021
H	-0.804602129	 1.6674688645	-0.7948976836	 0.143065
H	-0.2917213038	 1.8342928415	 0.9090132321	 0.125899
H	 1.3824158275	-0.0216242047	-1.590971748	 0.083415
H	 2.1809354338	-1.9894403035	-0.342477132	 0.113215
H	 0.5151537225	-2.4748315372	 0.0149759741	 0.1296
H	 1.8566376377	-2.4981116927	-2.7259930786	 0.07366
H	 1.1042189633	-4.6584032965	-2.6001431446	 0.284785
H	-0.392831976	-2.3754093225	-3.7216986177	 0.12279
H	-1.1067891303	-2.9501266418	-2.2090677245	 0.146466
54.5582	102.4134	128.0503	184.3166	252.3235	285.793	299.6232	321.0485	396.7495	458.7689	487.3676	507.4954	593.8752	625.1144	733.683	867.1751	912.3395	937.2942	991.4876	1050.8759	1060.2368	1103.8066	1129.9024	1149.2378	1178.3268	1182.0677	1195.5571	1224.6749	1246.2386	1273.9174	1296.9146	1306.7486	1362.4289	1380.0152	1428.7612	1447.8831	1476.7418	1482.2325	1498.8616	1518.9832	1844.0344	2916.9477	2968.337	2982.8222	3036.6249	3058.3459	3081.6283	3102.0235	3123.4338	3127.1809	3819.6639
COC1CC(O)CC1=O	CO[C@H]1C[C@@H](O)CC1=O	
InChI=1S/C6H10O3/c1-9-6-3-4(7)2-5(6)8/h4,6-7H,2-3H2,1H3	InChI=1S/C6H10O3/c1-9-6-3-4(7)2-5(6)8/h4,6-7H,2-3H2,1H3/t4-,6-/m0/s1
