20
gdb 75438	2.84132	1.14128	0.84761	4.1259	86.06	-0.2457	0.0144	0.2601	1364.7253	0.17238	-366.060409	-366.051655	-366.050711	-366.093781	33.21	
C	-0.0139794762	 1.5323119716	 0.063536216	-0.479115
C	 0.0088742917	 0.0307164969	-0.0266280963	 0.301748
C	-0.008514307	-0.6207202042	-1.1920909277	-0.129455
C	-0.0218701548	-2.1199472859	-1.3358874147	-0.274317
C	-0.3477025243	-2.8323357493	-0.0178306359	-0.201543
C	 0.4419570596	-2.184110462	 1.1384527355	-0.160665
C	 0.0450007251	-0.7001711464	 1.2976124785	-0.285897
C	 0.2568610892	-2.9147981002	 2.3930465921	 0.265683
N	 0.0979358177	-3.4904551009	 3.3828569111	-0.326395
H	 0.8833099643	 1.9146374674	 0.5670482641	 0.124992
H	-0.0740973533	 1.9946230761	-0.9250480563	 0.123557
H	-0.871737119	 1.8797202554	 0.6541902994	 0.126417
H	-0.0156041831	-0.0459683393	-2.1159707932	 0.081797
H	-0.7534812943	-2.4119832812	-2.0993561717	 0.112231
H	 0.9502583911	-2.4644883604	-1.71965938	 0.11252
H	-1.4181384032	-2.7474238418	 0.2006795567	 0.119077
H	-0.1161145141	-3.8989797345	-0.0841267462	 0.116372
H	 1.5108020887	-2.2300121041	 0.8911350035	 0.12593
H	 0.7479559192	-0.2048806428	 1.978302629	 0.119564
H	-0.9357259874	-0.6335656145	 1.7887806559	 0.127499
99.6845	139.887	149.3035	191.2063	264.3293	305.3467	336.1812	396.6142	433.4294	471.519	545.9035	558.3236	629.5146	798.21	834.2773	846.2572	901.9111	926.9962	950.951	1013.4894	1026.847	1047.8637	1073.1294	1089.1335	1120.5598	1165.0101	1172.6202	1234.9816	1270.3962	1312.6828	1314.7019	1345.0007	1370.3205	1379.2835	1394.1635	1416.4737	1475.1573	1479.3207	1480.9508	1491.4301	1497.3011	1744.0228	2355.9872	2996.3999	3012.3575	3016.7372	3025.154	3039.0357	3051.6677	3055.5074	3061.0278	3096.6387	3114.6352	3146.3417
CC1=CCCC(C1)C#N	CC1=CCC[C@@H](C1)C#N	
InChI=1S/C8H11N/c1-7-3-2-4-8(5-7)6-9/h3,8H,2,4-5H2,1H3	InChI=1S/C8H11N/c1-7-3-2-4-8(5-7)6-9/h3,8H,2,4-5H2,1H3/t8-/m0/s1
