20
gdb 9800	2.66309	1.60478	1.35527	2.6823	75.1	-0.2401	-0.0199	0.2202	1036.3628	0.174541	-349.007313	-348.998011	-348.997066	-349.041592	33.881	
C	-0.2844019941	 1.4701999583	 0.0386837883	-0.425303
C	 0.0149371732	-0.0365888451	-0.0052598781	-0.122515
C	 0.7958292119	-0.3898447799	-1.2593645181	 0.165678
O	 0.4976763521	-1.268703835	-2.0271079604	-0.253472
C	 0.7683451377	-0.5416006983	 1.2361592951	 0.37386
C	 2.0701279132	 0.158249107	 1.588449239	-0.476407
C	-0.0884385771	-1.0353814151	 2.3802643718	-0.314582
C	 0.6674332608	-2.0215187075	 1.5214500534	-0.305454
H	 0.6291391884	 2.0682924987	-0.0425715276	 0.123985
H	-0.9448862143	 1.7615689787	-0.7836014302	 0.125743
H	-0.7752427366	 1.7344948913	 0.9800366674	 0.127897
H	-0.9251367121	-0.5941379372	-0.074780898	 0.090609
H	 1.7061160549	 0.2317880131	-1.4341696285	 0.070001
H	 1.9167751401	 1.222198357	 1.7976320962	 0.120338
H	 2.5120691413	-0.2901978674	 2.4833682186	 0.118404
H	 2.8114028319	 0.0781634776	 0.7855880285	 0.119835
H	 0.265722636	-0.85992663	 3.390853814	 0.111222
H	-1.1672671429	-0.9878631478	 2.2753479261	 0.112734
H	 0.1027704468	-2.6353187148	 0.8279689979	 0.126199
H	 1.5308054389	-2.5183016637	 1.9510242847	 0.111227
51.6591	57.3872	200.4341	214.0275	219.0593	254.8524	280.9293	336.2392	365.3818	417.6452	457.3914	530.9823	711.2601	785.8948	865.5381	877.5585	910.506	936.1992	952.7571	969.8314	1021.8405	1054.4009	1080.1045	1092.7258	1101.6056	1130.7368	1161.8342	1187.5469	1262.424	1304.5865	1315.0367	1378.3357	1404.73	1420.2076	1430.5744	1471.0895	1489.3803	1495.9275	1500.489	1506.1539	1509.1134	1829.7872	2847.1236	3030.0422	3038.1027	3053.2409	3091.5627	3101.31	3107.772	3112.5096	3127.3553	3134.121	3206.3196	3221.2218
CC(C=O)C1(C)CC1	C[C@@H](C=O)C1(C)CC1	
InChI=1S/C7H12O/c1-6(5-8)7(2)3-4-7/h5-6H,3-4H2,1-2H3	InChI=1S/C7H12O/c1-6(5-8)7(2)3-4-7/h5-6H,3-4H2,1-2H3/t6-/m0/s1
