26
gdb 118684	2.12715	1.03122	0.94802	1.2085	93.45	-0.2087	0.0779	0.2866	1513.9041	0.237926	-369.595669	-369.584104	-369.58316	-369.632127	42.502	
C	-0.9017548243	 1.7974484122	-0.3936220993	-0.380428
C	-0.6633307747	 0.2853266328	-0.4342217411	-0.169858
C	-1.9081392626	-0.5149578127	-0.0152156702	-0.2471
C	-1.7408675979	-2.0301522952	-0.0576848989	 0.315248
C	-0.658942368	-2.5681755713	 0.865497518	-0.444568
C	-2.926479796	-2.9160561149	-0.3214302392	-0.044391
C	-4.3403684382	-2.4224831151	-0.5496870389	-0.421633
N	-1.8525156994	-2.7929220879	-1.3135228879	-0.136116
C	-2.1025991083	-2.1458048825	-2.5909968187	-0.314962
H	-0.0053983586	 2.3514655734	-0.689313428	 0.111393
H	-1.7125676094	 2.0907159345	-1.0701439799	 0.112271
H	-1.1794441534	 2.1269718315	 0.6140004748	 0.113441
H	-0.3608656076	-0.0127359858	-1.445492939	 0.101278
H	 0.1787039942	 0.0353705064	 0.2208640218	 0.101844
H	-2.1802459561	-0.234927084	 1.0122259288	 0.094149
H	-2.7487964144	-0.1966937636	-0.6378123134	 0.092041
H	-0.831569008	-2.2493991862	 1.9004371286	 0.105524
H	-0.6458913635	-3.6602011297	 0.8360409472	 0.121015
H	 0.3351550586	-2.2196116439	 0.5674250604	 0.117281
H	-2.9122031014	-3.8870541137	 0.1778425538	 0.075927
H	-4.3940258792	-1.4413870527	-1.023634811	 0.1191
H	-4.8920377217	-3.1267173031	-1.1827672232	 0.120964
H	-4.8721116235	-2.3584638887	 0.4059807835	 0.121028
H	-2.7247896237	-1.2399096455	-2.5640279952	 0.096344
H	-1.1426235936	-1.8773377814	-3.0445320796	 0.121536
H	-2.5923064393	-2.8641377132	-3.2574245734	 0.118671
69.47	82.5744	121.4621	164.2503	167.0456	182.2922	235.9866	247.8713	255.623	278.8539	291.737	344.4376	388.2695	483.4771	505.2084	542.1856	709.7852	736.64	747.6647	792.723	871.4929	901.387	966.5906	1002.0273	1030.4049	1045.8096	1046.5272	1094.5908	1117.2177	1138.787	1149.1063	1166.1921	1181.9	1189.8449	1261.0169	1284.1312	1314.6352	1332.9718	1365.1845	1395.2237	1407.2495	1411.3794	1413.2317	1434.3216	1457.0481	1474.5875	1485.8777	1487.4873	1492.8616	1496.7426	1499.1385	1501.8933	1507.3472	1509.3743	1514.6609	2994.1114	3012.643	3027.3933	3029.2938	3033.9523	3035.7748	3059.3919	3062.2255	3072.4063	3084.9854	3087.9246	3090.9687	3092.8963	3098.946	3101.5601	3119.9152	3137.2142
CCCC1(C)C(C)N1C	CCC[C@@]1(C)[C@@H](C)N1C	
InChI=1S/C8H17N/c1-5-6-8(3)7(2)9(8)4/h7H,5-6H2,1-4H3	InChI=1S/C8H17N/c1-5-6-8(3)7(2)9(8)4/h7H,5-6H2,1-4H3/t7-,8+,9?/m1/s1
