12
gdb 129265	6.47749	0.92197	0.81111	2.5542	62.11	-0.2722	-0.0315	0.2407	1281.7642	0.07717	-468.798519	-468.790976	-468.790032	-468.831585	26.49	
N	-0.2836822155	 1.2938781438	 0.0117906553	-0.568471
C	-0.0421422715	 0.0687584634	 0.0035473308	 0.514593
O	 1.1501293712	-0.6009776033	-0.006822018	-0.239837
N	 0.8924387706	-1.9977597468	-0.0133603061	-0.159113
C	-0.3821819912	-2.0753941837	-0.0068980949	 0.463932
C	-1.2201759084	-3.3108596635	-0.0095379341	-0.474972
C	-0.4397882282	-4.5448662244	-0.0196317216	 0.305035
N	 0.1364567081	-5.544144721	-0.0275366417	-0.283325
O	-1.0353093523	-0.8918523619	 0.0034444204	-0.209789
H	 0.5719400569	 1.8428355415	 0.0102076145	 0.254655
H	-1.8740285114	-3.2962943132	 0.8712244151	 0.198643
H	-1.8821335883	-3.2870968807	-0.8840325697	 0.19865
44.659	115.1588	159.3239	285.2028	289.3088	377.956	437.9599	504.1392	624.4377	725.3881	727.9077	776.8216	785.5566	908.8873	935.1569	953.1021	955.1097	995.6735	1055.9582	1229.4315	1239.6064	1280.7724	1424.3358	1448.8883	1710.7581	1826.59	2385.6429	3042.0945	3074.9974	3553.1006
N=C1ON=C(CC#N)O1	[NH][C@@H]1ON=C(CC#N)O1	
InChI=1S/C4H3N3O2/c5-2-1-3-7-9-4(6)8-3/h6H,1H2	InChI=1S/C4H4N3O2/c5-2-1-3-7-9-4(6)8-3/h4,6H,1H2/t4-/m0/s1
