19
gdb 10614	2.4776	1.86269	1.50914	2.0232	67.59	-0.2351	0.0667	0.3018	953.1197	0.164772	-402.157219	-402.148321	-402.147377	-402.190463	32.873	
C	-0.2852156333	 1.4052376402	 0.2150443981	-0.31442
N	-0.0283885691	-0.0320495004	 0.2537774677	-0.121837
C	 1.2855732642	-0.4964417398	-0.1817034531	-0.306003
C	 0.9002284663	-0.5796853059	 1.2561311829	 0.272326
C	 1.5533044041	 0.3210065479	 2.2915181633	-0.123574
O	 0.6277844871	 0.7745221278	 3.2657522571	-0.43373
C	 0.3997559914	-1.9014415379	 1.8090433031	-0.125297
O	-0.6868506228	-1.6978180917	 2.7172674745	-0.421902
H	 0.62026557	 2.0275773947	 0.2554838603	 0.105779
H	-0.8107864611	 1.6374141642	-0.7165140932	 0.120957
H	-0.9207958734	 1.6819039054	 1.059725115	 0.136355
H	 1.3038706682	-1.3878506847	-0.8047786062	 0.112806
H	 2.022203169	 0.2587526381	-0.4543111381	 0.109548
H	 2.3875975555	-0.2318219706	 2.7561760414	 0.087909
H	 1.9861487718	 1.2116863897	 1.8276608177	 0.101833
H	 0.0961538866	 0.0049084937	 3.5158598035	 0.288105
H	 0.0953525667	-2.5609482038	 0.986342775	 0.101374
H	 1.181499316	-2.407655788	 2.3852501494	 0.112994
H	-1.3847456173	-1.2792276689	 2.1973947112	 0.296776
82.0252	124.656	144.5043	198.1304	226.4297	295.0973	341.2363	370.4746	419.0681	447.3047	516.0694	547.4703	632.6459	725.9813	848.6609	902.7697	907.1945	954.4514	1025.9649	1037.4873	1060.5569	1071.6081	1127.5811	1143.3343	1151.6272	1192.5521	1203.3009	1242.487	1310.2745	1355.7634	1364.943	1408.3577	1426.902	1447.4935	1471.0071	1482.4423	1492.0551	1498.5534	1509.8399	1525.2991	2958.5704	2997.9958	3020.5164	3073.9106	3081.3201	3083.3883	3086.5433	3122.2728	3168.2022	3718.0627	3782.0487
CN1CC1(CO)CO	CN1CC1(CO)CO	
InChI=1S/C5H11NO2/c1-6-2-5(6,3-7)4-8/h7-8H,2-4H2,1H3	InChI=1S/C5H11NO2/c1-6-2-5(6,3-7)4-8/h7-8H,2-4H2,1H3
