21
gdb 36518	3.65151	0.95144	0.80047	1.6148	84.51	-0.2453	0.0523	0.2976	1448.9038	0.183242	-387.070342	-387.061491	-387.060547	-387.103989	34.192	
C	-0.0736433575	-1.2378376743	 0.005924552	-0.439165
C	-0.0555465886	-0.0357273781	 0.006942812	 0.298266
C	-0.0077652698	 1.4221985012	 0.0017360354	-0.378665
C	 1.4239961735	 1.9988893999	 0.0048682515	 0.01735
C	 1.4118963286	 3.5285971015	-0.143184179	-0.211057
C	 2.8341104171	 4.09361673	-0.0189868785	-0.216852
C	 3.4990282102	 3.5692608852	 1.2546806932	-0.063015
O	 3.4965945187	 2.1528419324	 1.3001180226	-0.244403
C	 2.1866682843	 1.6168744115	 1.2820005756	-0.074826
H	-0.0994601956	-2.2992275807	 0.0050230833	 0.194955
H	-0.5406026963	 1.7983482304	-0.8812856697	 0.129106
H	-0.5562287815	 1.8091158748	 0.8719481344	 0.127407
H	 1.9700420353	 1.5678148713	-0.8439213655	 0.090496
H	 0.9599371527	 3.8176930177	-1.0992245176	 0.094709
H	 0.7787373555	 3.9598839903	 0.6462450555	 0.093067
H	 3.4336442922	 3.7833341473	-0.8833340596	 0.105324
H	 2.8196067449	 5.1895265681	-0.0079278092	 0.094172
H	 4.5478568037	 3.8748530983	 1.3116869163	 0.104699
H	 2.9800895961	 3.9755462394	 2.1414297425	 0.081041
H	 1.6200549947	 1.968641299	 2.1644815877	 0.077524
H	 2.2926597316	 0.5321975848	 1.3616400668	 0.119866
69.7777	104.7493	164.9153	243.4247	285.3962	347.1126	348.1528	380.5828	434.3015	457.8769	525.111	601.9286	617.7074	639.6067	811.2041	858.2843	866.7686	888.0353	911.3761	964.915	993.4784	997.3397	1041.4068	1083.1465	1112.6874	1136.6351	1164.5272	1197.4061	1224.8347	1240.4679	1299.5833	1306.1026	1329.9679	1347.898	1353.7447	1375.6141	1384.9852	1403.6729	1422.9756	1469.3976	1478.9294	1490.6869	1491.9493	1505.4371	2236.7888	2933.3773	2948.2284	3002.5989	3010.2755	3029.3519	3029.9536	3045.3077	3058.3493	3075.4908	3084.0313	3100.0093	3506.1232
C#CCC1CCCOC1	C#CC[C@H]1CCCOC1	
InChI=1S/C8H12O/c1-2-4-8-5-3-6-9-7-8/h1,8H,3-7H2	InChI=1S/C8H12O/c1-2-4-8-5-3-6-9-7-8/h1,8H,3-7H2/t8-/m0/s1
