18
gdb 30590	4.51494	0.98995	0.82008	1.8135	83.5	-0.2225	-0.0347	0.1878	1389.9911	0.148605	-402.022885	-402.014227	-402.013283	-402.057195	31.648	
C	-0.0224435198	 1.5995017375	 0.0089926726	-0.377741
C	 0.0150598354	 0.0731300909	 0.0214335792	-0.289387
C	 0.7370559781	-0.4969178785	 1.2352486544	 0.290244
O	 1.2286582701	 0.2217268662	 2.094431585	-0.37096
C	 0.8315289545	-1.9489521653	 1.3519769927	 0.246373
C	 0.3959405314	-3.0176836263	 0.5771174085	-0.234299
C	 0.7977127192	-4.2052369004	 1.2253652824	-0.148148
C	 1.4689050632	-3.8346624066	 2.3804042217	-0.070381
N	 1.4811576834	-2.4801203723	 2.4421581704	-0.272704
H	 0.9884295285	 2.0146555605	 0.0089272908	 0.130447
H	-0.5483029454	 1.9643764108	-0.8777709793	 0.106206
H	-0.5299431951	 1.9846349524	 0.8968921594	 0.130345
H	-0.9992065707	-0.346899286	 0.002421766	 0.123803
H	 0.5072993173	-0.3169295911	-0.8792015348	 0.123912
H	-0.1500138709	-2.9425515451	-0.3506958352	 0.104041
H	 0.6221907688	-5.2173824726	 0.89548427	 0.103658
H	 1.9302505743	-4.4355166125	 3.1482865067	 0.128837
H	 1.8865409977	-1.8887655916	 3.1504329093	 0.275754
36.1849	99.2212	144.2094	167.0769	207.7228	285.5235	362.4842	508.897	539.02	597.8281	651.3098	690.5097	708.3309	756.8534	805.3712	830.431	873.0904	892.7545	921.3279	994.0121	1031.318	1065.9302	1088.6433	1094.3275	1127.9106	1149.6903	1274.6446	1278.806	1304.2613	1375.9066	1413.1229	1436.3085	1454.9465	1459.5165	1485.0497	1492.22	1498.6097	1585.6224	1733.7917	3024.4896	3051.6046	3053.1618	3122.4001	3128.4835	3245.5015	3256.814	3270.3591	3654.5569
CCC(=O)C1=CC=CN1	CCC(=O)c1ccc[nH]1	
InChI=1S/C7H9NO/c1-2-7(9)6-4-3-5-8-6/h3-5,8H,2H2,1H3	InChI=1S/C7H9NO/c1-2-7(9)6-4-3-5-8-6/h3-5,8H,2H2,1H3
