18
gdb 7529	4.85055	1.09011	1.02484	3.5927	68.82	-0.2441	-0.0205	0.2236	1161.79	0.15063	-384.932226	-384.923104	-384.92216	-384.966307	32.691	
C	-0.1867976569	 1.6252519139	 0.2196433474	-0.453265
C	-0.0350929821	 0.1236271269	 0.0620237541	 0.306875
C	-1.2421393868	-0.5782117633	-0.5451061339	-0.346668
C	-1.4853231172	-0.1737343128	-1.9858109618	 0.170085
O	-2.551672968	 0.1505564876	-2.4408276533	-0.242891
C	 1.3467594624	-0.4275656931	-0.270975477	-0.368101
C	 0.752061817	-0.6292014539	 1.1018082286	 0.065796
O	 1.2443151861	 0.0998099886	 2.1870949782	-0.421143
H	 0.6726907535	 2.0522317999	 0.7382447207	 0.132527
H	-0.2869134811	 2.1168764617	-0.7545316495	 0.119457
H	-1.081724607	 1.8643145609	 0.8049579828	 0.124202
H	-1.0744351848	-1.6651789864	-0.5459412284	 0.114811
H	-2.1552752114	-0.3833409311	 0.0270373354	 0.122406
H	-0.5739745973	-0.2039380744	-2.6276487777	 0.074653
H	 1.4355171357	-1.2835566013	-0.9322190389	 0.109853
H	 2.1538985897	 0.2930309558	-0.3520339119	 0.11635
H	 0.4020018925	-1.6310033064	 1.35424206	 0.08479
H	 2.1286096958	-0.2240476726	 2.3870853951	 0.290263
58.7493	72.7996	159.2226	183.0389	248.6298	275.1369	286.3053	330.5777	372.4883	467.9799	478.6484	567.8838	702.3881	780.1295	837.6096	895.8107	934.5529	977.8513	984.5235	1036.1083	1044.8235	1079.3593	1116.388	1120.6386	1181.8486	1206.7177	1265.4374	1291.8945	1320.676	1352.2308	1415.8911	1424.0572	1426.6266	1453.4766	1483.9692	1493.513	1505.0762	1834.2302	2859.7978	3008.8246	3033.1464	3083.2009	3088.1331	3089.0846	3125.9171	3140.0534	3214.6883	3808.7711
CC1(CC=O)CC1O	C[C@@]1(CC=O)C[C@H]1O	
InChI=1S/C6H10O2/c1-6(2-3-7)4-5(6)8/h3,5,8H,2,4H2,1H3	InChI=1S/C6H10O2/c1-6(2-3-7)4-5(6)8/h3,5,8H,2,4H2,1H3/t5-,6-/m1/s1
