17
gdb 75363	2.30846	1.88481	1.38781	3.1056	68.97	-0.2314	0.0212	0.2525	972.2082	0.13735	-455.137759	-455.129901	-455.128956	-455.169764	30.76	
N	-0.0535342769	 1.2667283993	-0.345541434	-0.57189
C	-0.0684172801	-0.0787225628	-0.0737440022	 0.350588
N	-1.1203960952	-0.7883558318	 0.0738930153	-0.293395
C	-0.7372017417	-2.1843339896	 0.3240667043	-0.176776
C	 0.7863869834	-2.2724750879	 0.1690982491	 0.044706
O	 1.1946551016	-2.565218218	-1.1929635148	-0.28823
C	 1.8215247407	-1.2819595433	-1.3554370258	-0.135002
C	 1.263299397	-0.8044099185	 0.0047464577	 0.239946
O	 2.1093118085	-0.1295579084	 0.8956960001	-0.482535
H	 0.7580541733	 1.7542323516	 0.0054432944	 0.261434
H	-0.9291122119	 1.740384081	-0.175122631	 0.256901
H	-1.0722724164	-2.4821134919	 1.3262031069	 0.101532
H	-1.2222356108	-2.8551733873	-0.3942253375	 0.119017
H	 1.2995771139	-2.912600273	 0.8947765227	 0.074267
H	 2.921091587	-1.3542959191	-1.3660228701	 0.085767
H	 1.4878227871	-0.7545064782	-2.2554235693	 0.124009
H	 2.9787774404	-0.542853532	 0.8703997141	 0.28966
107.0534	219.038	232.2386	273.8372	283.0431	334.3205	403.9929	449.34	486.9744	582.7367	601.8141	653.8512	735.4969	756.1248	802.1209	853.0838	921.3961	970.4988	1014.4134	1024.8397	1053.4946	1073.4161	1096.4617	1150.11	1165.6957	1190.5892	1217.1327	1264.5889	1303.9493	1331.5018	1345.1111	1356.0644	1444.3896	1482.2517	1518.744	1624.8527	1736.2138	2971.6307	3019.8349	3053.2237	3064.809	3068.8594	3564.637	3674.9792	3810.9653
NC1=NCC2OCC12O	NC1=NC[C@H]2OC[C@@]12O	
InChI=1S/C5H8N2O2/c6-4-5(8)2-9-3(5)1-7-4/h3,8H,1-2H2,(H2,6,7)	InChI=1S/C5H8N2O2/c6-4-5(8)2-9-3(5)1-7-4/h3,8H,1-2H2,(H2,6,7)/t3-,5+/m1/s1
