17
gdb 52497	7.57817	0.4723	0.45401	1.5721	97.62	-0.2292	-0.0037	0.2255	2376.949	0.133439	-384.625026	-384.615044	-384.6141	-384.662629	33.705	
C	-0.0230705797	 1.4546979484	 0.1370454816	-0.51826
C	 0.001871333	 0.0055716388	 0.0528614025	 0.253664
C	 0.0222899555	-1.2025950556	-0.015861061	-0.204993
C	 0.0446816842	-2.5602679143	-0.093397178	-0.163124
C	 0.067822809	-3.7686860216	-0.1595751615	 0.256996
C	 0.074504501	-5.2217674804	-0.2534544891	-0.417243
C	-1.3230103659	-5.8219443836	-0.2848711215	 0.109749
C	-1.5815203708	-7.173633078	 0.2226988813	-0.180388
O	-1.9630282116	-6.0168875315	 0.9712858725	-0.221629
H	 0.9905619981	 1.8707203605	 0.1120796784	 0.155478
H	-0.5822039646	 1.8912275187	-0.6983782102	 0.155391
H	-0.4974889594	 1.7898874178	 1.0663591234	 0.156489
H	 0.6097671498	-5.5300305208	-1.1627594083	 0.137868
H	 0.6185862686	-5.6536603973	 0.5958450842	 0.14125
H	-1.9740176037	-5.4248081262	-1.0639800555	 0.10572
H	-2.4014067728	-7.7603268519	-0.1885077655	 0.118332
H	-0.7624039607	-7.7540495028	 0.6463526667	 0.1147
18.9862	43.8552	62.2859	107.6074	147.6901	251.5553	289.9611	339.3226	377.1748	382.3783	465.9291	552.6677	556.4838	640.0491	788.776	857.7437	930.2379	945.8254	983.8914	1048.4348	1048.6481	1093.9627	1105.6965	1159.1751	1168.1407	1242.1692	1276.6674	1296.0717	1327.1827	1412.7572	1434.9651	1449.5251	1472.1719	1472.642	1530.1957	2280.8729	2389.0051	3009.862	3023.3947	3052.5419	3082.7707	3085.097	3085.4438	3113.3427	3169.6402
CC#CC#CCC1CO1	CC#CC#CC[C@H]1CO1	
InChI=1S/C8H8O/c1-2-3-4-5-6-8-7-9-8/h8H,6-7H2,1H3	InChI=1S/C8H8O/c1-2-3-4-5-6-8-7-9-8/h8H,6-7H2,1H3/t8-/m0/s1
