19
gdb 94399	2.49749	1.34284	1.23696	4.1508	75.05	-0.2643	0.0064	0.2708	1132.123	0.159498	-423.046773	-423.038318	-423.037374	-423.080107	31.632	
C	-0.6040229401	 1.2410421242	-0.088266717	-0.421788
C	 0.1730363305	-0.0639006661	-0.1455460899	-0.014093
C	 1.581379381	-0.0862130405	-0.8029097474	-0.236508
C	 2.0536062113	-1.045827986	 0.3198583493	-0.2919
C	 0.8072714574	-0.6522074098	 1.1546469875	 0.113025
C	 0.9263213593	 0.1360196209	 2.4716956123	-0.142619
O	 0.1990015075	-0.9234635048	 3.1788213371	-0.249939
C	 0.0682388922	-1.6593644801	 2.0256504895	 0.420642
O	-0.467860218	-2.7126030277	 1.8873359537	-0.33863
H	 0.001124605	 2.0541069789	 0.3277957564	 0.114624
H	-0.9136424391	 1.5442888736	-1.0940923095	 0.125134
H	-1.5092547156	 1.1459877594	 0.5215639143	 0.127258
H	-0.4510997263	-0.8497000988	-0.5853367225	 0.10117
H	 1.6508432669	-0.439707973	-1.8338159343	 0.106573
H	 2.0700569427	 0.8911012337	-0.7364036147	 0.102886
H	 2.0029251981	-2.0965025888	 0.022492125	 0.129711
H	 3.0268806019	-0.8562616889	 0.7785755491	 0.108781
H	 1.9352372449	 0.2464194823	 2.8766852237	 0.12144
H	 0.3813134203	 1.0798209315	 2.5356017075	 0.124235
80.9599	121.4083	135.987	221.6	242.7887	278.9956	358.71	406.4901	486.8971	621.2927	654.5609	698.3247	781.7525	803.0416	878.1734	894.2042	897.8959	940.0573	957.2426	970.0315	1058.1012	1076.235	1114.7319	1144.7305	1159.0347	1173.789	1189.3375	1205.5612	1254.497	1269.9226	1280.6447	1298.7734	1352.7249	1368.3497	1412.7514	1477.0917	1492.2166	1499.24	1500.353	1516.1479	1928.8133	3027.4185	3045.4225	3054.7139	3063.3637	3067.2213	3095.7648	3097.5675	3106.6222	3122.2791	3127.8565
CC1CCC11COC1=O	C[C@H]1CC[C@]21COC2=O	
InChI=1S/C7H10O2/c1-5-2-3-7(5)4-9-6(7)8/h5H,2-4H2,1H3	InChI=1S/C7H10O2/c1-5-2-3-7(5)4-9-6(7)8/h5H,2-4H2,1H3/t5-,7+/m0/s1
