14
gdb 132783	2.41165	1.83314	1.04223	3.4807	68.18	-0.2162	-0.0001	0.2161	1040.0199	0.102159	-478.037277	-478.02978	-478.028836	-478.068881	29.34	
N	 0.0092942541	 1.4178048863	-0.1571218534	-0.591266
C	 0.035901965	 0.0421019043	-0.0727373786	 0.273127
C	-1.1657561924	-0.6768732264	-0.1111489714	 0.16966
O	-2.3470860079	 0.0069081767	-0.1737029628	-0.462205
C	-1.0896556973	-2.0618225225	-0.0737260591	 0.236248
F	-2.2678534992	-2.7139918723	-0.1047903774	-0.097187
N	 0.0009521086	-2.7808235715	-0.0054304473	-0.341391
C	 1.151091768	-2.0917133257	 0.032529094	-0.010682
C	 1.2200161136	-0.7082606213	 0.0031802769	-0.208007
H	 0.8097878077	 1.9072691056	 0.2099355687	 0.255753
H	-0.8755554179	 1.8478664084	 0.0650316358	 0.26854
H	-3.0610399885	-0.641430028	-0.1685673813	 0.306048
H	 2.0599437634	-2.6829377136	 0.0911054682	 0.111378
H	 2.1804574629	-0.20507667	 0.0348947478	 0.089984
148.7116	250.9532	289.725	309.6853	313.9827	378.7006	399.536	498.626	524.3146	538.5744	566.343	570.3267	638.6013	725.6432	761.6049	831.8776	851.8725	952.8237	1009.4539	1090.0956	1133.5533	1250.216	1298.4826	1322.5729	1365.4972	1399.2376	1488.6231	1541.0686	1636.1889	1639.3599	1668.817	3169.7864	3190.1854	3584.4139	3694.4294	3808.7185
NC1=C(O)C(F)=NC=C1	Nc1c(O)c(F)ncc1	
InChI=1S/C5H5FN2O/c6-5-4(9)3(7)1-2-8-5/h1-2,9H,(H2,7,8)	InChI=1S/C5H5FN2O/c6-5-4(9)3(7)1-2-8-5/h1-2,9H,(H2,7,8)
