21
gdb 58332	3.3474	0.74174	0.7001	5.2771	76.84	-0.2725	0.0136	0.2861	1674.8731	0.179246	-461.387913	-461.376948	-461.376003	-461.425218	38.279	
C	-0.3688042342	 1.4281609418	-0.0687334737	-0.41903
C	 0.0526259738	-0.0418755691	-0.0030445048	 0.125096
O	 0.8670349336	-0.3990658174	-1.120770461	-0.43833
C	 0.8474430625	-0.4253276742	 1.2596782279	 0.022666
C	 0.9523875043	-1.9495970298	 1.4010413161	-0.415349
C	 2.2330818001	 0.2287621421	 1.2584937626	-0.084927
O	 2.8677247716	 0.0136029436	 2.5291231657	-0.183075
C	 4.103493581	-0.5149236233	 2.546087595	 0.169253
O	 4.7142121444	-0.7027166997	 3.5555324229	-0.279278
H	 0.4948735931	 2.0968032019	-0.1202625278	 0.128562
H	-0.9801969032	 1.6075797008	-0.960701331	 0.109876
H	-0.9718943662	 1.7026754545	 0.8027655494	 0.123583
H	-0.8628761412	-0.6559555732	-0.0009188604	 0.069633
H	 0.3801066366	-0.197753356	-1.92556623	 0.285848
H	 0.2981034845	-0.027716019	 2.1221888831	 0.088835
H	 1.5208756958	-2.2242939016	 2.2928463072	 0.131585
H	-0.0418894081	-2.3989673045	 1.4878650749	 0.113729
H	 1.4415867547	-2.3826152134	 0.5234129562	 0.131312
H	 2.8487729724	-0.1828831554	 0.4516899946	 0.128449
H	 2.1642521107	 1.3109364596	 1.1178845719	 0.114515
H	 4.4811431941	-0.7534358678	 1.5322770214	 0.077046
36.262	51.514	82.3007	143.577	197.5847	212.5911	232.2676	262.1767	284.1046	286.517	351.4098	379.3249	445.6737	497.0826	573.9808	702.9852	791.7865	885.0013	923.2808	950.7235	1016.3301	1022.3888	1047.0227	1048.9844	1070.6191	1135.3726	1152.3872	1177.6092	1194.3747	1248.6052	1303.8421	1333.7164	1360.6298	1387.3169	1397.3001	1407.4455	1412.7797	1423.8395	1436.5095	1492.3251	1498.9329	1502.5493	1503.9114	1509.4602	1863.224	2943.8753	2961.5956	3030.6794	3036.2663	3043.2164	3048.3011	3093.9923	3099.8276	3110.5811	3119.2519	3127.3943	3827.2505
CC(O)C(C)COC=O	C[C@@H](O)[C@@H](C)COC=O	
InChI=1S/C6H12O3/c1-5(6(2)8)3-9-4-7/h4-6,8H,3H2,1-2H3	InChI=1S/C6H12O3/c1-5(6(2)8)3-9-4-7/h4-6,8H,3H2,1-2H3/t5-,6+/m0/s1
