21
gdb 97839	3.87139	0.68591	0.63199	1.3347	89.32	-0.2374	0.0351	0.2725	1828.9365	0.181135	-387.046309	-387.036018	-387.035074	-387.083188	36.598	
C	-0.0922359766	 1.5572113654	-0.1920648782	-0.391497
C	 0.0090594438	 0.0407123533	-0.0852527707	 0.015257
C	 1.2039098701	-0.5780345092	-0.8695225014	-0.228232
C	 2.0122135012	-0.6603219919	 0.4510024361	-0.222243
C	 0.6746452433	-0.4915844888	 1.241532847	-0.165145
C	 0.6596586282	 0.3217779773	 2.4390499206	 0.059091
C	 0.6525162753	 1.0065392658	 3.4309782179	 0.114819
C	 0.6621400173	 1.8422708034	 4.6238740152	-0.217762
O	-0.2164863866	 1.296926442	 5.6029066419	-0.409229
H	 0.8724245777	 2.040260512	-0.0025944671	 0.115673
H	-0.4208960028	 1.8478097965	-1.1957524826	 0.109611
H	-0.8077313087	 1.9572626924	 0.5326910858	 0.123614
H	-0.9664807072	-0.4076561898	-0.2942952969	 0.070941
H	 0.9687408448	-1.5670355179	-1.2722728308	 0.099723
H	 1.6256678643	 0.0315318475	-1.6727181221	 0.096575
H	 2.5842089132	-1.5696107348	 0.6468667519	 0.102307
H	 2.6681476188	 0.2014225679	 0.5926906355	 0.110615
H	 0.2632094657	-1.4802732241	 1.4734017917	 0.101629
H	 1.6930959711	 1.9077019804	 5.0096700637	 0.113518
H	 0.3619968397	 2.8672845294	 4.3498050667	 0.113154
H	-0.1781209624	 1.873371033	 6.3730250757	 0.287581
22.1795	74.4223	88.2137	127.6279	196.8216	223.9651	240.0846	262.3748	341.954	356.7655	466.1658	502.2128	568.7909	649.7265	739.1493	788.3663	874.2028	886.4182	916.5031	954.7134	967.6267	1015.6553	1027.5695	1048.4691	1078.5053	1116.4153	1160.6923	1179.6448	1218.255	1241.7102	1246.3102	1256.7108	1258.5646	1274.3415	1280.8651	1342.8017	1368.244	1413.6893	1459.165	1480.7475	1493.8312	1495.6083	1499.5026	1503.3309	2359.9593	2958.2004	2974.7116	3031.0828	3038.1144	3052.7754	3061.7321	3070.92	3098.0054	3103.4177	3107.6007	3127.1118	3816.4116
CC1CCC1C#CCO	C[C@H]1CC[C@H]1C#CCO	
InChI=1S/C8H12O/c1-7-4-5-8(7)3-2-6-9/h7-9H,4-6H2,1H3	InChI=1S/C8H12O/c1-7-4-5-8(7)3-2-6-9/h7-9H,4-6H2,1H3/t7-,8+/m0/s1
