21
gdb 40315	3.09698	1.20313	1.02682	1.7488	81.92	-0.2597	0.0906	0.3503	1255.0266	0.182298	-387.040716	-387.031984	-387.03104	-387.074677	33.651	
C	-0.2277544655	 1.2749448527	-0.1937109126	-0.263748
C	 1.218456931	 0.9119460485	 0.0334979958	-0.281828
C	 0.1604955546	-0.1545640719	 0.1028617088	-0.058036
C	-0.2342909851	-0.7703295413	 1.4189987723	 0.390116
C	 0.8131422832	-1.2121631823	 2.3528622489	-0.238334
O	 0.1159441526	 0.017263605	 2.5719774997	-0.279523
C	-1.6059066383	-1.3787060183	 1.4123724998	-0.049876
C	-1.7925264044	-2.8454494699	 1.0898719045	-0.262282
C	-2.0979538145	-2.3268402167	 2.4707041136	-0.281426
H	-0.7228990433	 1.8290266246	 0.5962839572	 0.124426
H	-0.5541830547	 1.5236893667	-1.1972414607	 0.108602
H	 1.8941173678	 0.9084166747	-0.8144806626	 0.106499
H	 1.6576741739	 1.2315989242	 0.9713463282	 0.127779
H	 0.105099961	-0.8496204864	-0.7304394456	 0.087631
H	 0.6197890895	-1.9921156763	 3.0868232871	 0.111161
H	 1.8559264614	-1.1098125182	 2.0552849785	 0.110552
H	-2.3540912085	-0.709135449	 0.9965535144	 0.090339
H	-2.6141507714	-3.1333696336	 0.4436621343	 0.113304
H	-0.8972166616	-3.4461822998	 0.9678351631	 0.112551
H	-1.4335195495	-2.6009215888	 3.2815518485	 0.117191
H	-3.1365471083	-2.239290864	 2.7693628366	 0.114901
48.1364	82.6447	173.7554	192.9784	255.7329	287.4537	354.3324	452.3529	479.8483	582.9565	643.6945	778.2992	790.9318	818.3571	825.7126	835.9228	863.8755	911.6223	940.2238	941.9448	961.9264	981.5721	1059.1385	1063.1334	1079.8571	1090.9171	1097.9881	1115.8636	1128.6821	1136.3278	1141.3115	1174.146	1188.1608	1198.1026	1203.4131	1228.7122	1240.2637	1380.1597	1404.8069	1428.944	1457.0873	1471.9596	1498.1456	1508.9175	1531.686	3086.727	3132.4015	3134.6695	3138.6723	3140.3712	3145.4516	3147.2099	3170.2527	3212.5913	3217.7781	3228.637	3232.9872
C1CC1C1(CO1)C1CC1	C1CC1C1(CO1)C1CC1	
InChI=1S/C8H12O/c1-2-6(1)8(5-9-8)7-3-4-7/h6-7H,1-5H2	InChI=1S/C8H12O/c1-2-6(1)8(5-9-8)7-3-4-7/h6-7H,1-5H2
