15
gdb 26766	3.49119	1.1616	0.88114	5.645	78.91	-0.2503	-0.0565	0.1938	1263.6007	0.112076	-416.867288	-416.858659	-416.857715	-416.901	30.185	
C	 0.1814629221	 1.4709961762	 0.0257424383	-0.50133
C	-0.0402555561	 0.004552947	-0.009900658	 0.26598
C	-1.1365916397	-0.8106164355	 0.0304890976	 0.173397
C	-2.5841009515	-0.4639662463	 0.1315118227	-0.499169
N	-0.7149086218	-2.1290983224	-0.0397329538	-0.332161
C	 0.578139264	-2.0559637562	-0.1171685091	 0.271685
O	 1.0680923352	-0.7911442837	-0.1051254938	-0.194021
C	 1.5074650127	-3.1232350077	-0.2103289936	 0.258982
N	 2.2693565327	-3.9907334785	-0.2863741028	-0.326589
H	 0.7999157368	 1.7584240672	 0.8828779966	 0.154455
H	 0.690424506	 1.8179298688	-0.8800243416	 0.15445
H	-0.7743453252	 1.9924935556	 0.1026178431	 0.147153
H	-3.1361022139	-0.8504882784	-0.7310747684	 0.149752
H	-3.0275424	-0.9100010006	 1.0273763855	 0.149757
H	-2.7330464411	 0.6172260846	 0.1773452474	 0.127658
93.3748	120.2009	125.281	149.413	224.2451	257.2234	311.7512	388.4648	503.2557	542.978	593.4459	637.5931	675.1258	734.4733	770.529	975.5926	1011.1529	1020.8533	1059.3839	1069.5772	1162.4142	1208.497	1305.6381	1365.6048	1423.0808	1424.7225	1470.3986	1475.6429	1485.8762	1489.8178	1564.1112	1654.7287	2356.0551	3038.7697	3044.3943	3092.7595	3102.2446	3128.134	3138.8895
CC1=C(C)N=C(O1)C#N	Cc1c(C)nc(o1)C#N	
InChI=1S/C6H6N2O/c1-4-5(2)9-6(3-7)8-4/h1-2H3	InChI=1S/C6H6N2O/c1-4-5(2)9-6(3-7)8-4/h1-2H3
