15
gdb 28132	5.04962	1.28968	1.03446	3.8497	75.99	-0.1764	-0.002	0.1744	1085.6902	0.115354	-416.844753	-416.837775	-416.836831	-416.875825	27.807	
N	-0.0307278785	 1.2843830884	-0.1150915962	-0.561022
C	-0.0205602526	-0.0757814486	-0.0418626119	 0.37558
N	-1.1060680744	-0.7955649903	-0.0301741056	-0.381613
C	-0.6147713342	-2.0941602748	-0.0298649489	 0.381957
C	 0.7348804083	-2.2655916123	-0.0343590746	 0.220595
C	 1.3018400371	-0.8756093471	-0.045821731	-0.48269
C	 0.9444571371	-3.6768338778	-0.0104463518	-0.364543
C	-0.3068583318	-4.2281279238	 0.0024486906	-0.02989
O	-1.2872887913	-3.2534656771	-0.0085005244	-0.198559
H	 0.7812904683	 1.7862589042	 0.2036072546	 0.260552
H	-0.918229248	 1.7304374859	 0.0613965024	 0.267981
H	 1.8929867711	-0.6261066658	-0.9346491202	 0.142961
H	 1.9124995823	-0.6231945578	 0.8300915829	 0.132807
H	 1.8704506929	-4.2313140366	-0.0061683584	 0.106874
H	-0.6693491264	-5.2413844365	 0.0151851925	 0.12901
141.469	230.1975	302.3398	320.5922	367.1039	453.7471	520.6512	554.0453	578.0575	602.6091	655.2156	727.4109	739.8037	815.8964	824.7996	836.7409	927.9115	942.4042	1034.8965	1095.614	1119.7134	1142.6066	1177.4565	1206.8376	1275.5223	1379.2767	1421.9303	1442.8405	1483.9523	1502.8178	1592.2063	1612.3044	1664.6047	3034.5394	3071.0266	3247.1807	3294.0503	3586.7994	3707.183
NC1=NC2=C(C1)C=CO2	NC1=Nc2c(C1)cco2	
InChI=1S/C6H6N2O/c7-5-3-4-1-2-9-6(4)8-5/h1-2H,3H2,(H2,7,8)	InChI=1S/C6H6N2O/c7-5-3-4-1-2-9-6(4)8-5/h1-2H,3H2,(H2,7,8)
