19
gdb 38201	3.26818	1.79777	1.4635	1.5197	79.59	-0.2336	0.01	0.2436	936.7367	0.162656	-385.865133	-385.858763	-385.857819	-385.895421	27.764	
C	 0.0060566388	 1.650624046	 0.067914126	-0.265021
C	 1.5077037053	 1.3116909698	 0.0177606983	 0.103546
C	 1.1763500515	 0.0981349272	 0.9529758831	-0.32945
C	-0.0838036462	 0.0789319424	 0.0362766753	 0.311483
C	-1.3840989555	-0.6431281891	-0.1049745535	-0.24509
C	-1.6584101224	-0.7866985754	-1.4101753152	-0.061006
C	-0.5497837683	-0.2467934475	-2.3147935547	-0.336189
C	 0.6074921095	-0.2202305824	-1.302907519	 0.153404
O	 1.6561742382	 0.7578174399	-1.3113559704	-0.305608
H	-0.3267802493	 2.0603629639	 1.0235371756	 0.097901
H	-0.4054068935	 2.2180205814	-0.768739096	 0.100899
H	 2.308398419	 2.0224282996	 0.2152307643	 0.080835
H	 1.8425756759	-0.7678145112	 0.925100998	 0.101301
H	 0.9895900404	 0.4149023473	 1.980770696	 0.100648
H	-2.0428091838	-0.9181433765	 0.7100093726	 0.097402
H	-2.57922335	-1.2008138544	-1.8074377624	 0.096303
H	-0.3574501682	-0.8789477897	-3.1866436458	 0.105528
H	-0.7980693317	 0.7552742503	-2.6878686317	 0.117415
H	 1.0569316202	-1.2226054816	-1.2816849602	 0.075699
214.3821	241.8623	378.7906	462.297	473.453	514.6116	547.7569	621.2994	641.4578	738.2296	796.8399	813.2301	835.3518	900.4888	906.5714	924.1528	941.8948	958.3051	963.3864	982.1934	1020.6587	1025.8934	1057.4611	1097.515	1122.5912	1127.492	1156.4078	1170.512	1216.1575	1222.0979	1225.3001	1257.2225	1263.8157	1298.1867	1341.7971	1373.1348	1409.92	1472.3333	1487.0421	1510.8939	1635.4891	3001.9146	3029.8559	3063.2987	3073.0526	3082.4851	3130.2466	3137.771	3139.9488	3181.3791	3209.3198
C1C2CC11C=CCC1O2	C1[C@H]2C[C@]31C=CC[C@H]3O2	
InChI=1S/C8H10O/c1-2-7-8(3-1)4-6(5-8)9-7/h1,3,6-7H,2,4-5H2	InChI=1S/C8H10O/c1-2-7-8(3-1)4-6(5-8)9-7/h1,3,6-7H,2,4-5H2/t6-,7-,8+/m1/s1
