16
gdb 112501	2.50336	1.14337	0.93704	2.3945	72.54	-0.2467	-0.04	0.2067	1267.4067	0.122315	-437.828553	-437.819514	-437.81857	-437.86331	32.635	
O	 0.1142185927	 1.1530970043	-0.5839857287	-0.416806
C	 0.0853755096	-0.1401283007	-0.0203926999	-0.052387
C	-1.3651133583	-0.5687993571	 0.2312445533	-0.123656
N	-2.1774499415	-0.5164819102	-1.0217300137	-0.336026
C	-2.6112575719	-1.9470222959	-0.9106013205	-0.305918
C	-2.3761681488	-2.7875373236	-2.0658481585	 0.359129
C	-2.1625616256	-3.5061714548	-3.005037822	-0.427359
C	-1.6396013426	-2.0748117808	 0.3091432011	 0.381185
O	-1.2622037311	-2.9768041821	 0.9863408662	-0.271693
H	-0.3936826713	 1.0886960524	-1.4031775472	 0.290217
H	 0.5752535867	-0.8772343367	-0.6741910329	 0.100088
H	 0.6385561243	-0.1024869706	 0.9223871899	 0.123701
H	-1.7860614841	-0.0063447084	 1.0741868759	 0.108542
H	-2.9579832133	 0.1275495972	-0.9735213385	 0.23571
H	-3.6472537569	-2.0648729854	-0.5598854713	 0.129429
H	-1.975403838	-4.1367814476	-3.8389788334	 0.205843
39.7665	91.4652	123.821	154.1518	217.5868	301.9344	354.6859	443.7352	459.6308	513.2364	543.1902	618.1779	635.2001	652.1119	669.8665	806.2553	866.7477	892.6715	963.8506	1015.0279	1037.1228	1072.806	1088.0298	1114.1132	1136.4722	1197.4917	1251.7437	1287.0558	1351.8785	1368.2707	1396.2106	1422.6821	1500.4064	1920.9562	2237.4729	2993.3448	2998.3629	3033.942	3095.0745	3502.5434	3550.9204	3770.2296
OCC1NC(C#C)C1=O	OC[C@H]1N[C@@H](C#C)C1=O	
InChI=1S/C6H7NO2/c1-2-4-6(9)5(3-8)7-4/h1,4-5,7-8H,3H2	InChI=1S/C6H7NO2/c1-2-4-6(9)5(3-8)7-4/h1,4-5,7-8H,3H2/t4-,5+/m0/s1
