21
gdb 99663	2.62	1.16312	0.94951	1.4573	83.95	-0.2432	0.0526	0.2958	1344.2814	0.180765	-387.042341	-387.032429	-387.031485	-387.077644	36.048	
C	-0.2101237339	 1.5073628275	-0.0236364657	-0.393708
C	-0.000299092	-0.0063631502	 0.025550647	-0.168783
C	 0.7773279071	-0.4918790653	 1.2727576965	-0.182234
C	 0.0860531414	-0.1441150221	 2.5134843437	 0.357151
C	-0.4841039567	 0.1405810821	 3.5335444386	-0.492687
C	 1.0465693309	-2.0029942125	 1.1716699342	 0.151663
C	 1.5671248148	-2.7614012547	 2.4118540061	-0.3134
C	 0.2620236287	-3.5719133035	 2.282973548	-0.053853
O	-0.1688786519	-2.7811367771	 1.1531861948	-0.288989
H	 0.7467909832	 2.0416990488	-0.0361628842	 0.109975
H	-0.7628195703	 1.7935019116	-0.9236067006	 0.113314
H	-0.7750093477	 1.8550747759	 0.8460317815	 0.131899
H	-0.9619857253	-0.5283649814	 0.0035592656	 0.127784
H	 0.557062928	-0.3330115822	-0.8611945058	 0.093769
H	 1.7621603729	 0.0010155664	 1.2783642748	 0.099823
H	-0.9888229591	 0.397948695	 4.4317144027	 0.195835
H	 1.6341500392	-2.1783999834	 0.2588469737	 0.072391
H	 2.492269734	-3.3201912102	 2.2652523523	 0.107011
H	 1.6409279449	-2.1538009382	 3.3143562951	 0.122895
H	 0.3859791706	-4.6281035284	 2.0140618243	 0.09958
H	-0.4376810088	-3.4933095782	 3.1221515974	 0.110565
69.4197	75.1701	107.7533	145.521	173.5291	193.3951	255.634	315.6372	370.6885	395.4638	546.919	619.386	639.5149	664.0925	740.6734	774.302	803.6772	852.1671	906.4221	946.4772	954.4418	984.5189	1028.8692	1052.5688	1071.7846	1104.1259	1129.2738	1149.9031	1169.7569	1220.6512	1250.5396	1266.2877	1278.9447	1305.2921	1335.3614	1361.6675	1367.3563	1397.823	1414.4549	1485.2647	1489.0932	1497.7183	1507.6973	1526.4923	2229.4183	2985.3237	2997.3947	3021.1569	3031.7165	3033.4844	3066.9654	3082.6206	3086.3422	3103.3187	3116.661	3144.2578	3502.4823
CCC(C#C)C1CCO1	CC[C@@H](C#C)[C@H]1CCO1	
InChI=1S/C8H12O/c1-3-7(4-2)8-5-6-9-8/h1,7-8H,4-6H2,2H3	InChI=1S/C8H12O/c1-3-7(4-2)8-5-6-9-8/h1,7-8H,4-6H2,2H3/t7-,8-/m1/s1
