21
gdb 59797	3.92961	0.72745	0.71096	1.7819	87.98	-0.2461	-0.012	0.2341	1700.1665	0.180174	-420.452411	-420.441611	-420.440667	-420.489693	38.043	
C	 0.7458975008	 0.7963035586	 1.0940168627	-0.366588
C	 0.4012265519	-0.5411360776	 0.4238435122	 0.049516
C	 1.1365035728	-1.7069117592	 1.0998760743	-0.366588
N	-1.0279085779	-0.7638518739	 0.549724966	-0.281788
C	-1.8178447558	-0.889070498	-0.4380173843	 0.365661
C	-1.5363241653	-0.8480688766	-1.9174941645	-0.46816
N	-3.1657779157	-1.0986539749	-0.0648225703	-0.320342
C	-4.2917546808	-1.2758259189	-0.8254012278	 0.159451
O	-4.3639467471	-1.2894594353	-2.0333852131	-0.312209
H	 1.8243779133	 0.9799207303	 1.0548370919	 0.109552
H	 0.2375398011	 1.6262873025	 0.5942512912	 0.112133
H	 0.4305329411	 0.7877481672	 2.1419714237	 0.121565
H	 0.7363903813	-0.4913061111	-0.6226913378	 0.065414
H	 0.8328413058	-1.7900292168	 2.1480250962	 0.121561
H	 0.9054817755	-2.6545891636	 0.6042945838	 0.112134
H	 2.2196814274	-1.5534201035	 1.0606905544	 0.109547
H	-1.8526746528	-1.7804785149	-2.3903746382	 0.159852
H	-2.1212494037	-0.0580292814	-2.3937180764	 0.159849
H	-0.4777262347	-0.6833558342	-2.111789449	 0.129928
H	-3.2799597679	-1.1144964783	 0.9401011779	 0.252843
H	-5.1764984396	-1.4125884202	-0.1724277128	 0.086671
23.0393	49.2284	116.8818	145.8273	161.1408	223.4473	246.982	268.7817	277.0027	295.8691	407.2811	475.7516	477.186	515.5865	570.0133	712.142	765.497	843.8697	853.6703	927.1056	943.8669	953.7191	1029.4596	1057.763	1060.8331	1130.4015	1133.6972	1177.8634	1193.126	1304.0214	1347.5565	1365.0858	1392.3425	1412.6256	1417.59	1448.1957	1462.8272	1471.465	1480.8541	1487.7009	1493.431	1502.2903	1514.0882	1738.7813	1811.2963	2937.7375	2985.7066	3033.75	3037.877	3071.0582	3107.373	3110.8801	3111.1001	3116.3485	3131.2241	3165.0337	3592.1147
CC(C)N=C(C)NC=O	CC(C)N=C(C)NC=O	
InChI=1S/C6H12N2O/c1-5(2)8-6(3)7-4-9/h4-5H,1-3H3,(H,7,8,9)	InChI=1S/C6H12N2O/c1-5(2)8-6(3)7-4-9/h4-5H,1-3H3,(H,7,8,9)
