17
gdb 62398	2.59973	1.80363	1.35385	0.7512	73.74	-0.2325	0.0311	0.2636	971.5037	0.135475	-421.756999	-421.749223	-421.748278	-421.788769	31.222	
O	-0.0526646938	 1.3714597252	 0.1163171538	-0.485291
C	 0.0265683003	-0.0411280668	 0.0521183017	 0.255911
C	 0.8399734541	-0.5738565804	 1.1327650359	 0.278818
C	 1.5425949832	-0.9667968584	 2.0264518289	-0.448787
C	-1.4024576341	-0.637078322	-0.2274114822	-0.112057
C	-1.1996932399	-0.1754606178	-1.7066532284	-0.263758
C	 0.245141144	-0.6276935536	-1.3966839827	 0.039078
O	 0.1314319238	-2.035427121	-1.1909055944	-0.27149
C	-1.0578523808	-2.1212764067	-0.3592032728	-0.092974
H	 0.8421593699	 1.7052071937	 0.2412148057	 0.286414
H	 2.1583859628	-1.3237377988	 2.8149604667	 0.195991
H	-2.2564275889	-0.3488401341	 0.3830785068	 0.086813
H	-1.7231341348	-0.7347688463	-2.4842408084	 0.100271
H	-1.3076912074	 0.8981243695	-1.8350464766	 0.127819
H	 1.1195456559	-0.4013705381	-2.0052803727	 0.083117
H	-0.8084405455	-2.6041408675	 0.590356559	 0.116763
H	-1.8353584789	-2.6986884769	-0.8716893304	 0.103364
139.3654	145.5683	277.2124	299.5997	314.9207	357.2203	453.3745	487.1823	512.8235	573.2966	628.254	644.7677	668.5207	707.9168	829.549	850.9815	912.4039	920.5979	964.7867	973.9695	1001.0192	1031.4201	1051.4147	1102.6573	1119.3177	1144.8539	1173.7022	1201.7498	1226.5871	1249.7016	1262.6983	1290.8149	1351.4056	1380.0394	1483.0502	1523.1804	2227.4288	3035.9286	3085.7984	3090.7106	3136.0499	3140.5607	3181.6779	3499.7945	3812.8223
OC1(C#C)C2CC1OC2	O[C@@]1(C#C)[C@H]2C[C@@H]1OC2	
InChI=1S/C7H8O2/c1-2-7(8)5-3-6(7)9-4-5/h1,5-6,8H,3-4H2	InChI=1S/C7H8O2/c1-2-7(8)5-3-6(7)9-4-5/h1,5-6,8H,3-4H2/t5-,6-,7-/m0/s1
