17
gdb 126370	4.2885	0.91853	0.81069	3.1361	70.83	-0.277	-0.0243	0.2527	1428.3847	0.135799	-455.154162	-455.145187	-455.144243	-455.189545	31.314	
C	 0.1784998148	 1.2844049799	-0.2191703769	-0.383596
C	-0.0676238121	-0.1995827576	 0.1068184327	-0.298392
C	 0.6980809445	-0.6600507002	 1.2993583178	 0.423429
N	 0.2497802534	-1.0262946405	 2.4639988577	-0.367993
C	 1.4106999656	-1.3230950651	 3.1466050084	 0.336835
C	 1.3678267481	-1.7951410146	 4.5694642988	-0.16299
O	 0.3776815322	-2.7856174873	 4.7503348282	-0.410512
N	 2.5055097757	-1.1568832544	 2.4591462968	-0.175598
O	 2.0342762245	-0.7030083422	 1.2145481013	-0.201238
H	 1.2366685525	 1.4703623058	-0.4196835286	 0.143248
H	-0.3950341566	 1.5738066946	-1.1034648349	 0.128236
H	-0.1297557379	 1.9237886729	 0.6128140484	 0.135461
H	-1.1247741997	-0.3828008271	 0.3107977654	 0.141384
H	 0.218336606	-0.8181770699	-0.7512482153	 0.138727
H	 2.332081968	-2.2298295293	 4.8426653231	 0.141195
H	 1.1950196815	-0.9244342713	 5.2230217883	 0.112317
H	-0.4251467105	-2.4584351535	 4.3268212587	 0.299489
24.3068	69.4358	120.8421	169.9535	203.3466	259.2757	357.8329	384.5417	410.6679	461.0857	617.6814	704.0422	746.4821	780.5375	812.6142	914.9123	970.8946	995.1574	1024.8798	1047.3807	1078.0441	1082.1027	1105.6021	1216.2163	1258.8199	1326.9827	1349.6757	1364.8649	1382.1594	1412.5002	1436.2436	1475.6832	1497.3466	1497.8949	1505.7783	1567.0595	1627.8402	2973.5413	3049.2052	3053.5632	3108.9556	3111.0512	3125.3091	3134.5796	3792.023
CCC1=NC(CO)=NO1	CCc1nc(CO)no1	
InChI=1S/C5H8N2O2/c1-2-5-6-4(3-8)7-9-5/h8H,2-3H2,1H3	InChI=1S/C5H8N2O2/c1-2-5-6-4(3-8)7-9-5/h8H,2-3H2,1H3
