19
gdb 126958	3.15197	1.05565	0.80203	2.1063	80.06	-0.1777	0.0439	0.2216	1433.136	0.160883	-415.398853	-415.389202	-415.388258	-415.433875	34.842	
C	-0.0787499502	 1.4772617443	 0.0385239138	-0.399289
C	 0.0781005787	-0.0391430463	 0.0100412546	-0.095174
N	 0.6053886172	-0.4763882474	-1.2778554586	-0.402114
C	 0.78329423	-1.8389540651	-1.480167172	 0.409159
N	 0.2531773834	-2.7720282506	-0.6956935302	-0.320747
N	 0.6215634414	-3.9414319487	-1.2768319002	-0.213321
C	 1.3702066096	-3.7657838791	-2.3981046316	-0.097898
C	 1.5000499951	-2.4050900369	-2.5715948392	 0.076947
N	 2.2122233811	-1.6461668108	-3.529671561	-0.625035
H	 0.8875426949	 1.9794524003	-0.0914092929	 0.110308
H	-0.7447245428	 1.815870011	-0.7608067628	 0.12336
H	-0.492732346	 1.8029008733	 0.9971811767	 0.117155
H	 0.7119486199	-0.3750055186	 0.8468555946	 0.094046
H	-0.8914720437	-0.5267599313	 0.1509810406	 0.125306
H	 1.4247748352	 0.043199716	-1.5716460957	 0.231394
H	 0.3675071472	-4.8040302991	-0.8321597665	 0.266829
H	 1.7441824946	-4.598151954	-2.9736932379	 0.118318
H	 2.7265660581	-2.2355739843	-4.1728892191	 0.237404
H	 1.5873051063	-1.0607137128	-4.0765598627	 0.24335
64.1401	69.3476	122.4444	172.0744	234.2494	251.162	276.7557	287.1374	344.8888	383.4001	522.6025	622.2187	631.8104	678.119	733.9315	749.3829	805.5584	826.1636	860.1109	926.3746	944.9192	1062.0592	1078.6163	1122.0709	1147.1075	1157.4097	1214.2584	1260.5108	1289.0695	1332.0548	1371.1578	1409.4534	1425.9039	1480.6127	1490.5956	1498.2797	1505.1638	1524.348	1577.589	1632.3089	1660.5537	2971.8107	3030.7304	3071.8361	3100.0224	3117.5266	3253.9624	3490.5884	3539.7493	3592.5531	3704.8898
CCNC1=NNC=C1N	CCNc1n[nH]cc1N	
InChI=1S/C5H10N4/c1-2-7-5-4(6)3-8-9-5/h3H,2,6H2,1H3,(H2,7,8,9)	InChI=1S/C5H10N4/c1-2-7-5-4(6)3-8-9-5/h3H,2,6H2,1H3,(H2,7,8,9)
