18
gdb 119869	3.39651	0.97875	0.80945	2.6316	77.2	-0.2432	-0.0281	0.2151	1398.9115	0.148335	-439.107734	-439.098952	-439.098008	-439.141948	31.969	
O	 0.1033217125	 1.4277610781	-0.0446218292	-0.414822
C	 0.0710673862	 0.0114298451	-0.0607151414	-0.064855
C	-1.3568636302	-0.5339569476	 0.1422285558	-0.327164
C	-1.4102456675	-2.0267751773	 0.1051474059	 0.264616
C	-1.5784881373	-2.9143772615	 1.0899328017	-0.222459
C	-1.540577087	-4.3036997566	 0.5289114585	-0.135821
O	-1.3316180289	-4.1228189952	-0.8756536182	-0.244227
C	-1.253402747	-2.7834856961	-1.154648141	 0.354365
N	-1.0794505774	-2.2851563388	-2.3071893576	-0.555014
H	-0.3076384226	 1.7378132316	-0.8578857996	 0.285397
H	 0.4864940859	-0.3973846089	-0.9903918119	 0.121707
H	 0.7098800197	-0.3146568787	 0.7669361283	 0.108165
H	-1.7496752505	-0.1559427753	 1.0908070962	 0.108673
H	-1.9876544609	-0.1417433402	-0.6650583757	 0.118455
H	-1.7291747375	-2.7055329678	 2.1411451145	 0.119124
H	-0.7227906558	-4.9129267571	 0.9368395447	 0.129971
H	-2.4774732044	-4.8559003039	 0.6824971145	 0.129968
H	-1.0055434176	-3.0182150698	-3.0134646255	 0.223924
68.7829	83.9485	119.7806	187.8841	270.1161	297.2075	309.7304	355.8801	436.3495	493.8455	666.3791	753.9227	770.5569	793.8075	815.1869	836.3494	872.2383	952.2936	997.9305	1017.9458	1031.4927	1049.3239	1076.5356	1092.4892	1152.4555	1196.7346	1196.9885	1254.2326	1303.6522	1314.8365	1363.6677	1400.0523	1403.6922	1413.3044	1475.4437	1502.0696	1512.4875	1706.5102	1750.6992	3012.5107	3025.7179	3035.614	3040.7773	3074.7388	3099.6442	3222.8677	3485.0681	3817.6454
OCCC1=CCOC1=N	OCCC1=C(OC[CH]1)[NH]	
InChI=1S/C6H9NO2/c7-6-5(1-3-8)2-4-9-6/h2,7-8H,1,3-4H2	InChI=1S/C6H9NO2/c7-6-5(1-3-8)2-4-9-6/h2,7-8H,1,3-4H2
