13
gdb 15969	3.27923	1.91364	1.38569	3.2002	58.32	-0.2882	-0.0135	0.2747	857.2284	0.094745	-398.554556	-398.547544	-398.5466	-398.586283	24.967	
N	-0.1362537145	-1.1116795608	-0.4435275352	-0.317151
C	-0.0721415975	 0.0101926537	-0.1739901679	 0.282334
C	 0.041719668	 1.4350478695	 0.1373675138	-0.083514
O	 0.0180014124	 1.7143114904	 1.5508363756	-0.278101
C	 1.2961176947	 2.4025331449	 1.515277339	-0.150547
C	 1.4467736613	 2.0601719348	 0.0376141188	 0.35603
C	 2.5915228817	 1.7109910376	-0.7935270585	-0.248181
O	 1.8489024464	 2.9357971464	-0.9746721651	-0.247323
H	-0.7253804937	 1.9967825925	-0.4102975017	 0.142924
H	 1.1931286749	 3.4736250122	 1.7219018246	 0.131155
H	 2.020460816	 1.9540183727	 2.2027283166	 0.131354
H	 3.5986679785	 1.8334116865	-0.400036238	 0.134478
H	 2.4760716518	 0.9747496698	-1.5863125519	 0.146541
77.8226	125.6011	215.435	302.3992	344.9836	374.4367	512.6102	548.067	613.088	819.3412	865.3868	906.773	926.7868	958.2367	1011.3574	1056.2151	1092.7837	1122.1884	1148.2179	1161.7284	1183.7651	1231.0739	1322.7228	1347.071	1452.9738	1511.8162	1543.5795	2357.6381	3034.5952	3040.8362	3091.2704	3096.7398	3190.6586
N#CC1OCC11CO1	N#C[C@H]1OC[C@]21CO2	
InChI=1S/C5H5NO2/c6-1-4-5(2-7-4)3-8-5/h4H,2-3H2	InChI=1S/C5H5NO2/c6-1-4-5(2-7-4)3-8-5/h4H,2-3H2/t4-,5-/m1/s1
