16
gdb 16106	4.3411	1.70206	1.48697	1.8827	71.2	-0.2261	0.0381	0.2642	880.9922	0.130547	-346.556337	-346.549267	-346.548323	-346.587307	27.752	
C	 0.1320702581	-1.233681224	-0.1705544678	-0.396648
C	 0.1025258513	-0.0424265794	-0.0112809008	 0.234361
C	 0.0708605992	 1.3790797364	 0.1519658084	 0.275057
C	 0.1472978767	 2.31042061	-1.046093141	-0.351699
C	 1.2738897446	 2.2836217285	-0.0373103614	-0.114822
C	 1.214941114	 3.2667241778	 1.1184421161	-0.238501
C	-0.2391301427	 3.1266428097	 1.6192695991	-0.101392
O	-0.6774294888	 1.8148499859	 1.2651506856	-0.294199
H	 0.1572219813	-2.2867113803	-0.3038183554	 0.190011
H	 0.3338456491	 1.8490589947	-2.0087106552	 0.12868
H	-0.5292589419	 3.1581177882	-1.0741847372	 0.121694
H	 2.230060377	 1.8697144026	-0.3322672029	 0.106223
H	 1.9290815509	 2.9619192795	 1.8900064926	 0.114824
H	 1.4452289587	 4.297859057	 0.8335639449	 0.109273
H	-0.3389147543	 3.2297299538	 2.7030559062	 0.115365
H	-0.8865162234	 3.8793558396	 1.1486517388	 0.101773
136.0052	159.4577	220.8906	312.1024	411.5957	482.9015	523.9546	571.5931	598.3339	662.4168	679.2037	711.2054	819.6397	857.687	881.4213	927.4544	930.0505	974.4837	1024.3808	1042.4853	1072.217	1098.6532	1131.2431	1207.9838	1220.5531	1235.8975	1277.2765	1326.7035	1374.9627	1397.4232	1472.8786	1493.9215	1527.8377	2242.5005	3005.3643	3049.7043	3084.9825	3097.7228	3136.2911	3190.5378	3227.8506	3503.8709
C#CC12CC1CCO2	C#C[C@]12C[C@H]1CCO2	
InChI=1S/C7H8O/c1-2-7-5-6(7)3-4-8-7/h1,6H,3-5H2	InChI=1S/C7H8O/c1-2-7-5-6(7)3-4-8-7/h1,6H,3-5H2/t6-,7+/m1/s1
