20
gdb 18126	3.92164	1.83827	1.39588	1.6124	73.2	-0.2461	0.0726	0.3187	928.3766	0.181306	-349.026991	-349.020172	-349.019228	-349.05836	27.047	
C	-0.0518926003	 1.5692950455	-0.0248075926	-0.192251
C	 1.4425852386	 1.9378801307	 0.013726551	-0.22888
C	 2.1246789522	 0.8690805565	-0.8671441583	 0.002807
C	 3.4581077842	 0.2785825129	-0.3655248064	-0.102837
O	 3.3992675751	-1.1134074248	-0.6421722237	-0.24197
C	 2.0655405797	-1.5139107771	-0.3620766216	-0.102843
C	 1.1627261887	-0.368936803	-0.8644216636	 0.002773
C	-0.0393167456	 0.0302234264	 0.0183217525	-0.228858
H	-0.6284867247	 2.0191671039	 0.7894676513	 0.093195
H	-0.4978524741	 1.9134465082	-0.9664389586	 0.097233
H	 1.6398816852	 2.9595891646	-0.3230669894	 0.095673
H	 1.8115262295	 1.8635556515	 1.0449048552	 0.094761
H	 2.2494463305	 1.242646588	-1.8869019684	 0.074468
H	 4.3436502947	 0.6786639392	-0.8662494744	 0.105264
H	 3.5685530416	 0.4509914426	 0.7193896923	 0.080648
H	 1.8958237045	-2.4719466725	-0.8604121249	 0.105262
H	 1.9279064889	-1.6612161872	 0.7234236593	 0.08066
H	 0.8290559292	-0.5846632678	-1.8828288812	 0.074468
H	 0.1265993699	-0.3057683863	 1.0500950854	 0.094758
H	-0.9813403678	-0.4146602512	-0.3147254837	 0.09567
56.4839	198.1111	248.0654	363.4727	390.6681	522.8565	583.1971	615.313	645.61	792.914	869.9893	870.5752	918.6755	918.9956	962.8324	974.5867	977.4576	1021.8332	1048.0624	1056.2328	1072.0277	1113.5317	1118.9296	1184.8052	1193.3313	1230.6176	1238.8245	1269.488	1304.1424	1307.4405	1313.0801	1321.5394	1344.6073	1345.6074	1349.2159	1375.5671	1401.0755	1490.6416	1490.7347	1505.6243	1509.3252	1520.6327	2948.3897	2955.8236	3023.772	3024.2289	3031.282	3052.4921	3066.4529	3080.8225	3084.614	3089.1642	3091.1888	3099.2728
C1CC2COCC2C1	C1C[C@H]2COC[C@H]2C1	
InChI=1S/C7H12O/c1-2-6-4-8-5-7(6)3-1/h6-7H,1-5H2	InChI=1S/C7H12O/c1-2-6-4-8-5-7(6)3-1/h6-7H,1-5H2/t6-,7+
