19
gdb 82418	2.52817	1.76791	1.17617	3.7456	76.33	-0.2196	0.0594	0.279	1069.6374	0.161986	-419.241647	-419.233395	-419.232451	-419.274541	31.353	
C	-0.086921775	 1.4233389006	 0.1111921285	-0.343011
N	-0.0040452357	-0.0280502921	 0.1254496738	-0.116905
C	-1.2320913987	-0.7492546853	-0.0640859041	 0.041125
C	-1.5124304929	-1.5040672001	-1.3504289289	-0.315405
C	-1.1910442072	-2.2446803304	-0.0701464888	-0.047736
C	 0.1661503184	-2.8746153492	 0.1479069663	-0.181523
N	 1.2176023124	-1.9774646859	-0.3059003991	-0.363786
C	 1.2316281147	-0.6091771114	-0.0830060624	 0.44255
O	 2.2748674365	 0.025135385	-0.1145333022	-0.424491
H	 0.9079411986	 1.8204793654	 0.3044040374	 0.167207
H	-0.4396849179	 1.8025622137	-0.8577567012	 0.11842
H	-0.7789319772	 1.7648372631	 0.8889332672	 0.115272
H	-2.0668052907	-0.2593044682	 0.4271557208	 0.097868
H	-2.5316046812	-1.5398214054	-1.71909233	 0.114585
H	-0.7460383045	-1.4720914492	-2.1167523152	 0.133621
H	-2.0058920509	-2.7645779814	 0.4232113474	 0.094182
H	 0.2694131819	-3.1158411975	 1.2185536981	 0.106333
H	 0.2561668359	-3.8178692801	-0.4042808948	 0.113233
H	 2.1569021234	-2.3452670516	-0.3154853628	 0.248461
97.683	116.865	141.8538	204.5256	298.3002	346.7505	393.5812	462.9785	520.7296	575.1679	585.9597	708.5928	755.6082	768.1299	789.6326	838.492	915.9685	965.0103	992.5377	1053.0986	1060.0384	1092.397	1117.1949	1134.5587	1139.3216	1161.1201	1202.8243	1235.3108	1270.0537	1290.3636	1334.271	1370.104	1421.7805	1430.5506	1456.199	1479.5225	1489.8844	1500.9314	1519.0916	1536.8239	1777.3649	2965.3734	3007.8202	3039.7314	3066.626	3135.7604	3151.0778	3162.5419	3170.2532	3228.3701	3624.9925
CN1C2CC2CNC1=O	CN1[C@H]2C[C@H]2CNC1=O	
InChI=1S/C6H10N2O/c1-8-5-2-4(5)3-7-6(8)9/h4-5H,2-3H2,1H3,(H,7,9)	InChI=1S/C6H10N2O/c1-8-5-2-4(5)3-7-6(8)9/h4-5H,2-3H2,1H3,(H,7,9)/t4-,5-/m0/s1
