17
gdb 124955	3.01164	1.3435	1.00805	3.0498	76.29	-0.2375	-0.0062	0.2312	1176.2274	0.135929	-417.970924	-417.962735	-417.96179	-418.004575	29.905	
C	 0.0114137919	 1.4844228482	-0.14850282	-0.496767
C	-0.0208697525	 0.0071992192	-0.0108648252	 0.370673
C	-1.0513824371	-0.8730071806	 0.1570546687	 0.07576
C	-0.3960114843	-2.1410418814	 0.2170804122	-0.030588
N	 0.9022185813	-2.0313475827	 0.0966003837	-0.142558
O	 1.1437140616	-0.6645682864	-0.0486064871	-0.213117
N	-2.4128318122	-0.5081296814	 0.239593678	-0.18387
C	-3.4101346027	-1.415689889	-0.3423665125	-0.226158
C	-3.2852956086	-1.2831367948	 1.1312244198	-0.226167
H	 0.4521111884	 1.7836293835	-1.1052779075	 0.146526
H	-1.0103601104	 1.8643636793	-0.0932684338	 0.155815
H	 0.6066154998	 1.9434982421	 0.6477884154	 0.146526
H	-0.8226711906	-3.1267385114	 0.3433300323	 0.125303
H	-4.2229843343	-0.9273652217	-0.8719160545	 0.126148
H	-3.0531407731	-2.3347566576	-0.8007204873	 0.123166
H	-2.8431371692	-2.1117093233	 1.6791055504	 0.123163
H	-4.0056129678	-0.696546032	 1.6939533473	 0.126145
40.696	129.6766	163.0354	181.9499	243.3737	271.9345	457.3245	475.0622	565.343	642.0106	698.6412	714.4947	814.6683	855.7717	897.4744	906.8648	918.5584	960.0091	1008.0578	1036.6526	1068.5987	1108.6849	1125.0906	1149.5964	1158.8945	1178.5773	1203.8989	1265.6118	1309.2442	1399.5203	1435.2649	1479.3446	1481.7061	1492.406	1511.1094	1520.2264	1674.721	3040.3769	3096.3359	3106.5439	3110.1223	3142.9626	3188.2348	3203.1523	3234.086
CC1=C(C=NO1)N1CC1	Cc1c(cno1)N1CC1	
InChI=1S/C6H8N2O/c1-5-6(4-7-9-5)8-2-3-8/h4H,2-3H2,1H3	InChI=1S/C6H8N2O/c1-5-6(4-7-9-5)8-2-3-8/h4H,2-3H2,1H3
