19
gdb 11356	4.29441	1.31353	1.18722	1.1408	73.07	-0.2392	0.0296	0.2688	1111.1835	0.165779	-365.097887	-365.089313	-365.088369	-365.131726	30.647	
C	 0.3216373107	 0.9662220741	 0.686462059	-0.379231
C	-0.3703606706	 0.352693798	-0.541363116	-0.270593
C	 0.5969640487	-0.2471016334	-1.510822524	 0.406166
N	 0.7737801434	 0.1022381183	-2.7192225192	-0.317334
C	 1.8245284251	-0.7699668395	-3.2737409795	 0.030135
C	 2.9689078851	 0.0447512652	-3.8743730281	-0.386427
C	 2.2462810025	-1.6596005788	-2.0705777762	-0.121365
O	 1.3501537202	-1.2708020903	-1.009917058	-0.2589
H	 0.9064035292	 0.2134166897	 1.2208143488	 0.135246
H	 0.9965162097	 1.7751475619	 0.3904869142	 0.125851
H	-0.4204191208	 1.3791333685	 1.375354726	 0.117813
H	-1.0608816031	-0.4343398109	-0.2144761343	 0.121001
H	-0.9513825568	 1.1031882355	-1.081018981	 0.130105
H	 1.3765074892	-1.3809995292	-4.0677245199	 0.085322
H	 3.4385474749	 0.6711952512	-3.1086749569	 0.117058
H	 3.7350842509	-0.6124650458	-4.2998306419	 0.110471
H	 2.5953680743	 0.6987214518	-4.6664990602	 0.130341
H	 2.1264904439	-2.7315670351	-2.2479636559	 0.11505
H	 3.2741702934	-1.4675577513	-1.7424741469	 0.109289
44.9881	79.7762	135.103	202.7393	237.6027	261.7946	334.3884	402.2668	446.5162	635.04	687.9628	723.8342	793.9269	853.7641	906.2528	938.2808	946.1764	971.7683	1024.3636	1060.1603	1090.7655	1122.4545	1124.242	1161.908	1226.4558	1245.4566	1292.6702	1314.5944	1354.3939	1369.9549	1385.9256	1405.6417	1410.8974	1474.0546	1488.4408	1496.6325	1497.2133	1509.352	1521.2326	1737.8461	3015.8846	3032.5738	3038.4373	3040.6524	3046.084	3093.2983	3102.9959	3109.317	3117.1189	3122.3204	3132.9243
CCC1=NC(C)CO1	CCC1=N[C@@H](C)CO1	
InChI=1S/C6H11NO/c1-3-6-7-5(2)4-8-6/h5H,3-4H2,1-2H3	InChI=1S/C6H11NO/c1-3-6-7-5(2)4-8-6/h5H,3-4H2,1-2H3/t5-/m0/s1
