21
gdb 103313	3.09008	1.27641	1.10258	3.1631	82.73	-0.237	0.0151	0.2521	1191.2173	0.181678	-387.060565	-387.051599	-387.050655	-387.094064	34.71	
C	-1.4562345118	-0.6298111707	 0.1601834587	-0.381057
C	-0.0602819211	-0.0155723801	-0.0116755942	-0.265278
C	 0.7066525698	-0.5311590424	-1.2431131624	 0.357652
C	 0.1653937645	 0.1309741863	-2.5133933325	-0.480238
C	 2.287266843	-0.626525281	-1.1249244477	-0.218785
C	 2.0825783071	-1.8821026202	-0.2068205083	-0.258134
C	 1.0168865343	-2.0853238433	-1.3379034856	-0.206797
C	 2.1768088962	-1.6628376842	-2.2537263057	 0.445719
O	 2.7246273469	-1.994677956	-3.2592810209	-0.337994
H	-2.0871577642	-0.4720024225	-0.7199107671	 0.121432
H	-1.3936164301	-1.7088893108	 0.3344453976	 0.119797
H	-1.9711368407	-0.184151174	 1.016894613	 0.115867
H	-0.1541296069	 1.0724033599	-0.1175136293	 0.099578
H	 0.5056312801	-0.1678097053	 0.9106142508	 0.101384
H	 0.3114537622	 1.2160270405	-2.4700343966	 0.119831
H	 0.6570319571	-0.2356236355	-3.4184996018	 0.140827
H	-0.9082201624	-0.0496604524	-2.6263535337	 0.12205
H	 2.9977015751	 0.1887191608	-0.9974192359	 0.086951
H	 2.9027101011	-2.6011756659	-0.1692333165	 0.115256
H	 1.6878584327	-1.6908317324	 0.7884690056	 0.114063
H	 0.3110076573	-2.9060406809	-1.4518259575	 0.087875
66.9328	140.4776	162.644	206.7052	219.3998	292.9526	373.2859	404.5553	423.1539	484.5236	509.0151	626.066	699.8705	727.8926	773.2457	783.5539	817.4204	882.7939	919.4729	948.3982	993.4808	1017.6685	1024.9705	1039.5543	1059.6939	1074.6077	1104.9642	1126.3541	1154.5191	1165.7568	1201.5981	1222.4481	1230.0912	1257.6531	1330.7123	1365.0562	1410.1532	1424.5611	1482.1046	1493.1684	1502.5227	1505.2803	1506.1851	1535.3866	1912.2673	3031.8735	3037.0559	3038.6002	3079.4506	3089.9896	3098.0002	3105.0819	3111.2076	3116.2556	3133.9187	3138.5806	3164.1457
CCC1(C)C2CC1C2=O	CC[C@@]1(C)[C@H]2C[C@@H]1C2=O	
InChI=1S/C8H12O/c1-3-8(2)5-4-6(8)7(5)9/h5-6H,3-4H2,1-2H3	InChI=1S/C8H12O/c1-3-8(2)5-4-6(8)7(5)9/h5-6H,3-4H2,1-2H3/t5-,6+,8-
