14
gdb 34511	4.43476	1.43461	1.25804	5.4804	71.67	-0.2561	-0.0705	0.1856	955.4521	0.103273	-395.681377	-395.67505	-395.674106	-395.712148	24.924	
N	 0.0944797544	-1.1065233639	 0.1443408747	-0.321437
C	 0.0125042571	 0.0445638058	 0.0687758084	 0.271732
C	-0.0498281252	 1.4703694446	-0.0274500719	 0.221438
N	-1.128909263	 2.1473567888	 0.087311999	-0.238268
C	-0.6960656658	 3.5226340029	-0.0039929864	-0.019263
C	 0.5127176348	 3.9900827626	 0.8584062885	-0.091672
C	 1.3572095667	 2.8048701202	 1.2653577632	-0.190427
N	 1.1861667735	 2.2160823473	-0.1561402366	-0.208838
C	 0.6782628218	 3.5794165085	-0.5808739806	-0.046147
H	-1.4488688899	 4.2673656684	-0.2233584059	 0.119779
H	 0.4996311331	 4.9770420803	 1.3018893973	 0.115585
H	 2.4080386448	 3.0629575917	 1.401631669	 0.138683
H	 1.0240730925	 2.1477767014	 2.0752947142	 0.131979
H	 1.0358625653	 4.0736280415	-1.4751267329	 0.116856
121.9197	172.6813	363.0334	391.0447	497.2649	528.3768	578.5798	696.667	736.8857	785.0346	802.781	811.9481	862.2647	884.2634	915.6432	966.2493	1005.8279	1023.4731	1035.4274	1051.9979	1098.0187	1128.7	1160.9489	1209.7873	1229.0092	1302.5895	1306.2109	1358.6853	1506.8998	1639.2211	2355.6844	3053.9128	3128.4469	3193.736	3206.1437	3222.4003
N#CC1=NC2C3CN1C23	N#C[C]1[N][C@H]2[C@H]3CN1[C@@H]23	
InChI=1S/C6H5N3/c7-1-4-8-5-3-2-9(4)6(3)5/h3,5-6H,2H2	InChI=1S/C6H5N3/c7-1-4-8-5-3-2-9(4)6(3)5/h3,5-6H,2H2/t3-,5+,6-/m1/s1
