18
gdb 45055	2.57129	1.80291	1.26687	2.1893	76.13	-0.2284	-0.0231	0.2053	1014.9892	0.148589	-401.937436	-401.929934	-401.928989	-401.969431	29.676	
O	 0.059215289	 0.1275103988	-0.5926730641	-0.329569
C	-0.0060888031	 1.2432961603	-0.1391550474	 0.31765
C	-1.2753396259	 1.9617261772	 0.3467883045	-0.280453
N	-0.8837752782	 3.2636627635	 0.8991144964	-0.102848
C	-0.0146549662	 3.1698472303	 2.078363986	-0.250441
C	 0.592182365	 3.401135035	 0.7413848118	-0.143738
C	 1.1369129445	 2.202853603	 0.0292029544	 0.263474
C	 2.5324253	 1.6365475037	 0.2018191446	-0.296232
C	 2.1598656968	 2.2797118033	-1.0927632723	-0.309412
H	-1.9436430078	 2.1116824457	-0.5096616316	 0.139247
H	-1.8142532938	 1.3505269425	 1.0775908133	 0.136632
H	-0.1173649561	 3.9895846375	 2.7835822027	 0.120898
H	 0.1374886358	 2.1930426945	 2.5366739276	 0.11361
H	 0.9499138546	 4.3887445276	 0.4632463023	 0.097816
H	 3.198789597	 2.1656384814	 0.8739948452	 0.123296
H	 2.6010033318	 0.5538923394	 0.2251630248	 0.137861
H	 1.9839039498	 1.6369327268	-1.9482595582	 0.138796
H	 2.5595742168	 3.2621558695	-1.32149178	 0.123415
78.8108	185.0865	224.7126	241.1647	362.1729	428.9392	468.3091	550.8345	576.2609	657.6839	697.0177	774.6092	791.9109	831.5909	856.9449	872.3074	943.4953	984.2518	998.9733	1039.4963	1051.3223	1061.7001	1087.6349	1094.5229	1096.0021	1118.1159	1159.3067	1202.184	1219.5315	1272.3179	1282.2616	1298.3844	1311.487	1411.5739	1452.1871	1458.7177	1485.3355	1507.6801	1831.0052	3039.7536	3087.428	3091.1099	3131.0286	3132.5667	3141.2274	3183.5175	3217.9791	3232.5681
O=C1CN2CC2C11CC1	O=C1CN2C[C@H]2C21CC2	
InChI=1S/C7H9NO/c9-6-4-8-3-5(8)7(6)1-2-7/h5H,1-4H2	InChI=1S/C7H9NO/c9-6-4-8-3-5(8)7(6)1-2-7/h5H,1-4H2/t5-,8?/m0/s1
