20
gdb 7643	3.79465	1.3868	1.30522	1.5614	71.24	-0.2509	0.0781	0.329	1059.1632	0.176058	-386.13565	-386.126876	-386.125932	-386.168949	32.857	
C	 0.0261599862	 1.5137479334	 0.1182279076	-0.404084
C	-0.0046554547	-0.0168010139	 0.1394945475	 0.114723
O	 0.4873728201	-0.526875296	 1.3707917396	-0.44035
C	-1.4107988255	-0.5556588321	-0.1201581995	 0.146416
C	-1.6347647044	-2.0783999877	-0.0518492639	-0.323108
C	-2.6533699055	-1.7454726937	 1.059519707	 0.175589
C	-2.4857762609	-2.386693348	 2.4207113366	-0.407927
O	-2.2545937223	-0.3446964749	 1.0452832503	-0.333187
H	 1.0249355052	 1.872005533	 0.3797139652	 0.122624
H	-0.2369613264	 1.9018312418	-0.8716461164	 0.109744
H	-0.6888994378	 1.9184790997	 0.8426207315	 0.127811
H	 0.6624344106	-0.4115526144	-0.6378201341	 0.085961
H	-0.2047682197	-0.3297206351	 2.0162960345	 0.282788
H	-1.8451231609	-0.0787105233	-1.0094998252	 0.069618
H	-2.0273479533	-2.5556944642	-0.9503758052	 0.103632
H	-0.7599354493	-2.6209005801	 0.3113414485	 0.12226
H	-3.6960098544	-1.8312472077	 0.7237084654	 0.076945
H	-1.4405062033	-2.3434384982	 2.7415317115	 0.125191
H	-3.1036530611	-1.8756879738	 3.1661288733	 0.126039
H	-2.7936242926	-3.4375004048	 2.385602476	 0.119314
67.9962	84.4815	204.6608	243.0112	244.3858	275.2881	336.5577	364.6769	445.3329	461.0103	500.7631	636.3873	682.9912	789.3781	885.559	891.4594	925.1567	929.3676	964.2374	1007.6737	1047.3619	1061.2713	1097.6471	1120.4092	1142.3135	1156.1234	1207.4099	1255.0327	1265.3602	1303.4089	1316.1222	1345.1933	1376.3636	1394.9846	1400.6602	1411.8539	1430.1076	1484.8462	1487.6966	1492.9327	1499.4616	1499.7688	3004.3541	3009.7099	3033.1777	3033.4624	3034.7075	3081.0444	3103.7974	3105.0185	3114.6241	3122.8992	3141.2367	3759.5844
CC(O)C1CC(C)O1	C[C@@H](O)[C@H]1C[C@@H](C)O1	
InChI=1S/C6H12O2/c1-4-3-6(8-4)5(2)7/h4-7H,3H2,1-2H3	InChI=1S/C6H12O2/c1-4-3-6(8-4)5(2)7/h4-7H,3H2,1-2H3/t4-,5-,6-/m1/s1
