16
gdb 132577	3.16772	1.31967	0.93757	3.2414	76.48	-0.2236	-0.0054	0.2182	1188.2458	0.12468	-442.101476	-442.093209	-442.092265	-442.134852	31.052	
C	-0.0241022363	 1.5068181569	-0.0149505629	-0.465029
C	 0.0284561265	 0.0001677657	 0.0151325313	 0.337561
N	 0.0965914722	-0.6136598477	-1.1755764454	-0.34341
C	 0.1459448874	-1.94830962	-1.1784566654	-0.105192
C	 0.1324460888	-2.7045213397	-0.0252871298	 0.179626
F	 0.1724169032	-4.0500061739	-0.0782654743	-0.095912
C	 0.0641926987	-2.0939596268	 1.2308237686	 0.232389
N	 0.1022525546	-2.8541684801	 2.3804529479	-0.594636
C	 0.0086634758	-0.6957641867	 1.2229382296	-0.255173
H	 0.888082886	 1.910583697	-0.4663311472	 0.13875
H	-0.861622735	 1.8451799867	-0.6326248443	 0.13817
H	-0.1323643022	 1.9312112057	 0.9862174448	 0.11229
H	 0.1954129357	-2.4523721611	-2.1407564678	 0.114785
H	-0.1342887407	-3.8273278176	 2.2637482004	 0.262351
H	-0.2866242823	-2.4345799407	 3.2100712924	 0.256531
H	-0.0460650024	-0.1573471677	 2.1640253921	 0.086899
37.0997	142.1885	214.735	279.4222	307.2938	359.6887	396.6306	442.7422	455.2506	516.9657	521.3569	585.4703	641.5844	749.0306	759.1562	796.4705	868.4956	946.3539	964.0962	1019.617	1058.9394	1093.9883	1191.831	1251.2283	1300.7402	1326.7116	1347.6421	1407.5191	1442.2052	1474.5955	1495.4784	1539.5334	1624.6927	1629.9367	1662.8123	3041.3463	3102.0741	3123.8235	3158.5931	3171.8841	3585.0853	3693.7695
CC1=NC=C(F)C(N)=C1	Cc1ncc(F)c(N)c1	
InChI=1S/C6H7FN2/c1-4-2-6(8)5(7)3-9-4/h2-3H,1H3,(H2,8,9)	InChI=1S/C6H7FN2/c1-4-2-6(8)5(7)3-9-4/h2-3H,1H3,(H2,8,9)
