21
gdb 113862	3.81146	0.80257	0.71891	1.5332	79.24	-0.2433	0.0726	0.3159	1588.8738	0.182233	-424.17643	-424.166944	-424.166	-424.21197	34.131	
O	-0.2254360521	 1.4610896081	-0.6701516367	-0.418908
C	-0.008046168	 0.2179107493	-0.0144288996	-0.102339
C	-1.3387556307	-0.4790498736	 0.0961139894	 0.008672
C	-1.8838399235	-1.2876421991	-1.0530009917	-0.300469
C	-1.4765508632	-1.9827831863	 0.2260419829	-0.031832
C	-0.3064226075	-2.9278637185	 0.2649284641	-0.032561
C	 0.2728792097	-3.3291837305	 1.6441226439	-0.086152
O	 0.1007185898	-4.7317431162	 1.3612169076	-0.271978
C	-0.602612964	-4.4431184902	 0.136135644	-0.089978
H	 0.6033112937	 1.9493733234	-0.6649525518	 0.285036
H	 0.7065087098	-0.4023534815	-0.5770674296	 0.082027
H	 0.4170365398	 0.3737234186	 0.9906648177	 0.086803
H	-2.0669242632	 0.1028763509	 0.654449925	 0.09251
H	-2.9371767484	-1.208706591	-1.296801631	 0.113912
H	-1.2369222778	-1.4153812352	-1.915844279	 0.112795
H	-2.2968680858	-2.3013564091	 0.8666123072	 0.085046
H	 0.4755858076	-2.6132419413	-0.4296178238	 0.076667
H	 1.3214523314	-3.0728328848	 1.8370870847	 0.098843
H	-0.3353421857	-3.004606638	 2.5003846607	 0.095002
H	-1.6689548977	-4.700860191	 0.2035790157	 0.09591
H	-0.1651372341	-4.9641382041	-0.7233749795	 0.100993
55.6762	68.33	90.3068	128.8705	182.5473	262.2659	297.416	318.5676	353.8333	453.4784	568.5399	716.3927	804.922	849.9057	872.6303	894.8234	910.9695	941.578	975.1196	1013.2103	1038.4179	1044.8343	1055.7815	1066.4072	1075.0399	1100.6628	1141.5088	1160.0419	1161.1797	1176.6996	1209.3351	1248.3292	1260.1594	1265.0269	1286.4613	1306.8363	1307.6756	1377.3781	1389.1664	1442.6442	1473.0888	1497.7054	1511.7932	1520.9485	1537.6823	2963.7493	2993.5356	2995.0556	3005.1891	3047.3366	3052.0797	3084.1102	3120.6435	3129.0235	3146.9288	3214.4882	3824.9162
OCC1CC1C1COC1	OC[C@H]1C[C@H]1C1COC1	
InChI=1S/C7H12O2/c8-2-5-1-7(5)6-3-9-4-6/h5-8H,1-4H2	InChI=1S/C7H12O2/c8-2-5-1-7(5)6-3-9-4-6/h5-8H,1-4H2/t5-,7-/m1/s1
