13
gdb 23742	3.3342	2.31046	1.37632	1.439	62.12	-0.2551	-0.0445	0.2106	822.7224	0.096222	-402.803939	-402.797267	-402.796323	-402.835209	24.084	
C	-0.0303783339	 1.5116640688	-0.0009682491	-0.488959
C	-0.0076661737	 0.0114167516	-0.0051330727	 0.2154
N	-0.0418307793	-0.6435192903	-1.1704149213	-0.288718
C	-0.0199622847	-1.9770257134	-1.127311789	 0.065786
N	 0.0328540652	-2.7479479703	-0.0421669304	-0.24506
C	 0.0673233042	-2.1024342716	 1.1268734389	-0.079706
C	 0.0483400611	-0.7212152011	 1.1804319041	 0.191682
F	 0.0831109197	-0.0855883943	 2.3542078561	-0.067393
H	 0.8602908081	 1.9147103878	 0.4925794583	 0.146309
H	-0.0722837661	 1.8774635933	-1.0270642714	 0.149061
H	-0.896062432	 1.8878455002	 0.5544360457	 0.146364
H	-0.0484471599	-2.4895875074	-2.0853069112	 0.12311
H	 0.1108869112	-2.6893357335	 2.041015402	 0.132123
73.6652	163.4339	267.3289	288.766	445.0719	459.4181	542.567	579.2471	606.5019	766.1803	769.3226	888.0504	948.0578	986.9481	998.2761	1060.9721	1164.2732	1209.0572	1260.66	1284.0905	1321.3855	1405.2964	1442.1643	1468.1574	1479.2311	1494.4327	1602.6492	1624.7005	3043.3924	3097.9995	3155.5218	3166.4387	3173.3708
CC1=NC=NC=C1F	Cc1ncncc1F	
InChI=1S/C5H5FN2/c1-4-5(6)2-7-3-8-4/h2-3H,1H3	InChI=1S/C5H5FN2/c1-4-5(6)2-7-3-8-4/h2-3H,1H3
