20
gdb 84652	2.33861	1.79536	1.36767	3.1802	79.27	-0.2353	0.0037	0.239	1030.5401	0.173394	-403.13891	-403.130982	-403.130038	-403.170786	32.211	
C	 0.1188021175	 1.5631171815	-0.0193180819	-0.397118
C	 0.0713487737	 0.0306482861	 0.0015164121	-0.009343
C	 0.7372251972	-0.5719667219	-1.2219345977	-0.026247
N	 2.1835588791	-0.8410113403	-1.1226918156	-0.351003
C	 1.2142733256	-1.9816052817	-1.147694645	-0.089522
C	 1.0237100772	-2.7121571001	 0.1289133051	-0.020762
C	 0.7576256492	-2.0578244675	 1.2611375459	-0.107834
C	 0.6778948684	-0.5450073191	 1.3081752225	 0.058505
O	 1.9534307593	 0.0202466567	 1.6007757853	-0.438848
H	 1.1511747567	 1.9161280029	 0.0321088187	 0.132246
H	-0.3433122489	 1.9570223379	-0.9308008305	 0.100778
H	-0.4178091817	 1.9823746062	 0.8377371292	 0.11318
H	-0.9798639183	-0.2910256478	-0.0260739395	 0.077407
H	 0.364619004	-0.2177852109	-2.1814639097	 0.08438
H	 2.628891089	-0.7418654152	-2.0312241383	 0.235401
H	 1.1973828398	-2.5732877394	-2.0581144814	 0.086173
H	 1.1156699027	-3.7942892422	 0.1112395504	 0.092175
H	 0.6532004476	-2.5958391808	 2.1985525826	 0.094844
H	 0.0351115003	-0.2403764884	 2.141641725	 0.078168
H	 2.5098212214	-0.2267653459	 0.8439280629	 0.287421
142.2738	202.5295	211.0635	265.0219	283.2859	351.987	415.6882	458.9443	511.3716	621.9122	628.2727	702.0068	709.8192	762.5218	811.7035	842.9774	881.9372	913.7129	943.5236	956.2986	984.673	990.1333	1027.1395	1063.5973	1098.4188	1124.5947	1140.5655	1154.628	1189.0795	1202.3361	1262.6134	1290.8686	1315.1486	1342.3011	1360.3025	1394.0179	1403.9502	1425.2091	1449.9217	1477.2091	1493.1913	1500.9856	1702.7599	3004.685	3036.5078	3045.8112	3098.9077	3119.847	3129.3542	3149.7579	3162.3506	3183.3621	3501.7549	3668.1195
CC1C2NC2C=CC1O	C[C@H]1[C@H]2N[C@H]2C=C[C@H]1O	
InChI=1S/C7H11NO/c1-4-6(9)3-2-5-7(4)8-5/h2-9H,1H3	InChI=1S/C7H11NO/c1-4-6(9)3-2-5-7(4)8-5/h2-9H,1H3/t4-,5+,6-,7-/m1/s1
