16
gdb 83196	2.99203	1.45471	1.28404	3.3773	64.91	-0.233	0.0152	0.2482	1005.4333	0.125697	-475.023584	-475.016021	-475.015077	-475.0558	29.178	
O	 0.0585265149	 1.3882624638	 0.0222832626	-0.423909
C	 0.0084380926	 0.0062039012	 0.0391831504	 0.096864
C	-1.3479196359	-0.7056099374	 0.0614707962	-0.100582
N	-2.5489702059	 0.0608720393	-0.0151888855	-0.289496
C	-3.132560592	 0.464893127	-1.1815337949	 0.382061
O	-4.1849793144	 1.0674553751	-1.2356910249	-0.363211
C	-2.3288112267	 0.1066606859	-2.4333167519	-0.201583
O	-0.918465684	 0.162629548	-2.2077266422	-0.263564
C	-0.5014796784	-0.702414546	-1.1911656632	 0.006078
H	-0.1847157459	 1.6611906631	-0.8735730846	 0.298072
H	 0.8175271861	-0.448260033	 0.6032706348	 0.110535
H	-1.4237344153	-1.6401835395	 0.6119703029	 0.108764
H	-2.9721356223	 0.4096655747	 0.8332738937	 0.25807
H	-2.6244344121	-0.888123168	-2.7961516353	 0.12664
H	-2.5617485289	 0.8427859308	-3.2028928058	 0.149169
H	-0.0490156218	-1.627862945	-1.5408539022	 0.106095
74.4858	151.6562	219.6371	298.083	394.5002	432.8679	435.9995	503.7544	530.7221	594.7187	650.1282	658.9815	734.3386	798.3932	822.8888	873.1408	941.9009	1019.6147	1037.6234	1059.1259	1063.5368	1123.4725	1168.9028	1172.7808	1233.8155	1263.3834	1320.4555	1340.5656	1367.0748	1385.3015	1399.0828	1438.1045	1466.7655	1480.5702	1809.6911	3012.6463	3121.8699	3131.3943	3141.073	3158.0602	3602.3552	3741.1046
OC1C2NC(=O)COC12	O[C@H]1[C@H]2NC(=O)CO[C@@H]12	
InChI=1S/C5H7NO3/c7-2-1-9-5-3(6-2)4(5)8/h3-5,8H,1H2,(H,6,7)	InChI=1S/C5H7NO3/c7-2-1-9-5-3(6-2)4(5)8/h3-5,8H,1H2,(H,6,7)/t3-,4+,5-/m1/s1
