18
gdb 48550	3.09126	1.46454	1.39501	3.0992	76.55	-0.2361	-0.0262	0.2098	1005.7402	0.149446	-401.921844	-401.914611	-401.913667	-401.953546	28.409	
O	-0.9034502746	 1.2033148173	 0.0730566732	-0.282122
C	 0.2538423818	 0.8518827056	 0.0233381074	 0.033376
C	 1.391258215	 1.7729053138	-0.037673738	 0.260716
C	 1.7017775747	 3.0388438223	 0.7693843064	-0.125485
C	 3.0906810388	 2.4573917102	 1.0008076414	-0.185179
N	 2.8236149246	 1.3720063024	-0.0174033199	-0.169832
C	 3.3375114697	 1.8096729694	-1.3333495298	-0.172828
C	 2.6221649933	 3.1588268434	-1.6626474828	-0.255988
C	 1.4319373791	 3.1366070038	-0.7086083327	-0.079889
H	 0.5450084354	-0.2216706314	 0.0313997172	 0.08027
H	 1.0518765956	 3.500322327	 1.5029120319	 0.112832
H	 3.9569715142	 3.0905850998	 0.7779027761	 0.104132
H	 3.2110061796	 2.0215739466	 1.995642268	 0.119756
H	 4.4275829178	 1.8887676118	-1.3049802839	 0.108531
H	 3.0718460319	 1.0456086791	-2.0711900255	 0.111799
H	 3.2714667674	 4.0219764201	-1.4844501674	 0.110195
H	 2.294991921	 3.2071025852	-2.7047544022	 0.111103
H	 0.4797111146	 3.5722211137	-0.9865669992	 0.118611
112.2764	167.7268	193.672	247.5729	368.1782	449.224	498.0043	646.4979	691.906	712.8046	736.7114	812.4841	823.4357	878.7604	907.8271	929.6481	943.3519	956.2616	997.9796	1037.4558	1056.2891	1066.5449	1095.8507	1119.9537	1141.3717	1194.1461	1208.4811	1233.4752	1263.7892	1293.0524	1303.4991	1312.3999	1346.7602	1403.8773	1430.131	1490.5231	1498.0135	1517.2276	1793.7523	2890.834	3036.0853	3048.7273	3053.9493	3091.2165	3097.3391	3109.3279	3189.9036	3200.9039
O=CC12C3CN1CCC23	O=C[C@@]12[C@H]3CN1CC[C@@H]23	
InChI=1S/C7H9NO/c9-4-7-5-1-2-8(7)3-6(5)7/h4-6H,1-3H2	InChI=1S/C7H9NO/c9-4-7-5-1-2-8(7)3-6(5)7/h4-6H,1-3H2/t5-,6+,7-/m1/s1
