20
gdb 86944	2.66728	1.13825	1.06073	2.5703	77.29	-0.2503	0.0186	0.2688	1259.6513	0.169898	-440.271187	-440.261656	-440.260712	-440.306117	34.936	
C	 1.0904385782	 1.3451433347	 0.0969750619	-0.420338
C	 0.1129020084	 0.1732654113	 0.1281281639	-0.032375
C	 0.2982544914	-0.8610539487	-1.0271805986	-0.262873
C	 1.0331885075	-1.8134820437	-0.0615186498	 0.066603
O	 2.4445562843	-1.6416856392	-0.2008231736	-0.206495
C	 3.2310979156	-2.5122706137	 0.4694506667	 0.125217
N	 4.4668085956	-2.2823515789	 0.5791155634	-0.445576
C	 0.4853603287	-0.9708371187	 1.1323465464	 0.133036
O	 1.3399293221	-0.7263842196	 2.2116040392	-0.429066
H	 2.1164307965	 1.0111872955	-0.0892810212	 0.135192
H	 0.8244435135	 2.0443406341	-0.702327177	 0.118
H	 1.0739251091	 1.893878471	 1.0441119288	 0.12464
H	-0.9072434439	 0.5485179675	 0.2487059398	 0.072009
H	-0.640637609	-1.2867947847	-1.3880373252	 0.107813
H	 0.8947752497	-0.5352592881	-1.8817392619	 0.120247
H	 0.7840478963	-2.8800598858	-0.0929413836	 0.078049
H	 2.6875670688	-3.3855137124	 0.8531967328	 0.092874
H	 4.9196448511	-3.0479171315	 1.0740344796	 0.231201
H	-0.413514177	-1.4350475762	 1.5488162478	 0.090694
H	 2.1676429429	-0.3760156328	 1.8618692207	 0.301148
52.7802	82.2035	102.2111	212.1257	225.4428	240.8489	255.6969	355.753	383.8997	415.625	508.0148	555.2404	634.1809	735.4644	799.5093	824.6717	842.8972	880.8179	913.2397	958.7657	1008.9578	1042.9954	1045.9039	1085.2545	1105.4084	1135.3267	1172.4385	1176.8283	1212.7421	1256.1681	1277.1748	1282.6967	1297.7568	1301.4319	1359.4294	1376.3181	1411.3383	1421.8389	1432.6558	1472.1922	1498.3679	1512.1452	1742.1382	3030.256	3034.2924	3042.3233	3056.8764	3068.5415	3078.5598	3103.1552	3108.5021	3129.4252	3518.3799	3799.2699
CC1CC(OC=N)C1O	C[C@H]1C[C@@H](O[CH][NH])[C@H]1O	
InChI=1S/C6H11NO2/c1-4-2-5(6(4)8)9-3-7/h3-8H,2H2,1H3	InChI=1S/C6H11NO2/c1-4-2-5(6(4)8)9-3-7/h3-8H,2H2,1H3/t4-,5+,6-/m0/s1
