16
gdb 53739	3.95263	0.72952	0.64909	3.0968	78.86	-0.252	-0.0219	0.2302	1678.7687	0.122246	-437.867977	-437.858338	-437.857394	-437.903724	34.462	
N	 0.0218903427	 1.2276389554	 0.4862573116	-0.522475
C	 0.0411508095	-0.0164919293	-0.0825734705	 0.255839
O	 1.0299559503	-0.5003096449	-0.5996897035	-0.33576
C	-1.238042667	-0.7045140636	-0.0374701014	-0.001745
C	-2.2665830029	-1.3371215789	-0.0229884801	 0.074045
C	-3.506549875	-2.0621841254	-0.0210058159	 0.208282
O	-4.6157393232	-1.3777945327	 0.4983038888	-0.440057
C	-3.7593858386	-3.0793913819	-1.1273006516	-0.310004
C	-3.4988871819	-3.5422354003	 0.2796117533	-0.284901
H	 0.9030710499	 1.7058527976	 0.5850103222	 0.265072
H	-0.7589724546	 1.5275384564	 1.0443708989	 0.265204
H	-4.8014540634	-0.6341748306	-0.0864874527	 0.287309
H	-4.7805538676	-3.1218850469	-1.4886015073	 0.126811
H	-2.9881953158	-3.2202661287	-1.8750030285	 0.136864
H	-2.5480265505	-4.0063086686	 0.5098726162	 0.13862
H	-4.3442869319	-3.8897520776	 0.8618378906	 0.136895
30.3852	72.6473	97.9553	189.0475	240.8453	251.7603	291.0791	334.924	388.3256	451.2188	521.607	542.5325	586.6585	606.0624	645.811	769.3862	776.1023	829.0925	876.876	932.7952	972.0927	1013.8332	1057.8492	1085.3789	1092.6917	1195.6451	1241.2939	1293.3689	1350.6693	1378.0408	1449.3476	1483.6883	1609.276	1771.1083	2328.2542	3142.9826	3150.0906	3234.9125	3249.6814	3595.2626	3733.9214	3795.0827
NC(=O)C#CC1(O)CC1	NC(=O)C#CC1(O)CC1	
InChI=1S/C6H7NO2/c7-5(8)1-2-6(9)3-4-6/h9H,3-4H2,(H2,7,8)	InChI=1S/C6H7NO2/c7-5(8)1-2-6(9)3-4-6/h9H,3-4H2,(H2,7,8)
