15
gdb 80160	2.48241	1.64142	1.36181	5.3519	66.11	-0.2551	-0.0819	0.1733	982.7407	0.112264	-457.796606	-457.788938	-457.787994	-457.829016	28.508	
C	-0.0753090488	 1.5675386108	-0.0371798534	-0.427425
C	 0.0620728365	 0.0628611183	 0.0278528857	-0.052751
C	 1.339320808	-0.675713125	-0.166738364	 0.063108
O	 2.5312160233	 0.0958215386	-0.1337582597	-0.212742
C	 2.804388716	 0.5350881567	 1.1302016143	 0.329719
O	 3.7510666751	 1.2016250524	 1.40882815	-0.301801
C	 1.6748914557	 0.024771278	 2.070193268	 0.296886
O	 1.6846777096	 0.1724732389	 3.2614157895	-0.28307
C	 0.7104167135	-0.7015370688	 1.2095956306	-0.221789
H	 0.8390048305	 2.0900201147	 0.2509911173	 0.150448
H	-0.3214047546	 1.8742668194	-1.0585635411	 0.137343
H	-0.879303318	 1.9083499624	 0.6214424256	 0.140704
H	-0.804621015	-0.4781759318	-0.3441813309	 0.117971
H	 1.4331667408	-1.544825759	-0.8054416396	 0.130147
H	 0.1895973773	-1.5552977155	 1.6220314578	 0.133252
97.3571	125.1567	161.3095	251.4031	326.1971	354.713	470.1465	527.1471	568.9266	625.9669	676.266	728.4395	771.573	836.7161	849.9715	909.6515	966.223	1010.9292	1029.0307	1064.4787	1105.3791	1130.2489	1146.2078	1212.1271	1229.5004	1312.6431	1356.3245	1423.2294	1427.6706	1487.8504	1503.24	1854.1184	1894.5854	3048.5968	3111.6393	3129.2264	3148.2353	3196.5924	3209.0828
CC1C2OC(=O)C(=O)C12	C[C@H]1[C@H]2OC(=O)C(=O)[C@@H]12	
InChI=1S/C6H6O3/c1-2-3-4(7)6(8)9-5(2)3/h2-3,5H,1H3	InChI=1S/C6H6O3/c1-2-3-4(7)6(8)9-5(2)3/h2-3,5H,1H3/t2-,3-,5-/m1/s1
