13
gdb 80119	2.98066	1.54401	1.3013	3.4595	63.44	-0.2694	-0.0258	0.2436	950.8089	0.089426	-452.733808	-452.726361	-452.725416	-452.765841	27.221	
O	-0.1386319734	 1.3988097587	-0.1161923898	-0.41383
C	-0.0605391896	 0.0268840364	 0.000305584	 0.045256
C	-0.4364996494	-0.6859642615	 1.2732747912	-0.145316
N	-1.2022155533	 0.0885344045	 2.2127268049	-0.26578
C	-2.2896956938	 0.3945184124	 1.6233913833	 0.103525
O	-2.5177476107	-0.0805876441	 0.3757250426	-0.222942
C	-1.3475397592	-0.7950445269	 0.0167681724	 0.251802
C	-1.557725106	-1.9404377347	-0.8084075878	 0.232527
N	-1.6761531981	-2.8747403014	-1.4801890096	-0.3325
H	-0.0843158429	 1.7838307891	 0.7675839235	 0.306927
H	 0.7413736321	-0.4323518318	-0.5724344923	 0.138713
H	 0.1708166709	-1.4941548757	 1.6618147701	 0.134602
H	-3.0866998967	 1.0062468049	 2.0264712078	 0.167016
134.2319	153.5992	165.0317	219.3079	259.5234	458.3579	488.1119	500.2657	552.5638	630.4656	710.7555	740.5678	786.7364	903.8271	923.4295	949.8647	1004.259	1045.8106	1104.7533	1131.0713	1145.2984	1227.6936	1231.8169	1310.766	1335.8887	1355.9989	1413.3881	1655.627	2353.3755	3147.6537	3195.1673	3242.8226	3775.6427
OC1C2N=COC12C#N	O[C@H]1[C@H]2N=CO[C@@]12C#N	
InChI=1S/C5H4N2O2/c6-1-5-3(4(5)8)7-2-9-5/h2-4,8H	InChI=1S/C5H4N2O2/c6-1-5-3(4(5)8)7-2-9-5/h2-4,8H/t3-,4+,5-/m1/s1
