21
gdb 103673	3.77165	0.97752	0.92881	0.9549	85.12	-0.245	0.0491	0.2941	1356.594	0.179683	-387.041578	-387.031665	-387.030721	-387.076069	37.411	
C	-0.1315260216	 1.5712501391	-0.3749837255	-0.252855
O	-0.2971393273	 0.1738334435	-0.2734598536	-0.284846
C	 0.6742759172	-0.6110342019	-0.9408164715	 0.44385
C	 0.6576741568	-0.4088915999	-2.4545902024	-0.45821
C	 2.1079257625	-0.5870126414	-0.3177593044	-0.287864
C	 2.0803845336	-2.1531000852	-0.2438500348	-0.180708
C	 0.5380499052	-2.0931194173	-0.5142996505	-0.2834
C	 2.8611240092	-2.8290239722	-1.2626402726	 0.351035
C	 3.5057364855	-3.3849617319	-2.1132560823	-0.494498
H	 0.8772943567	 1.8902057705	-0.072456175	 0.105284
H	-0.3229947924	 1.9485329413	-1.3891159103	 0.109296
H	-0.8570238839	 2.0255531591	 0.3045534389	 0.126227
H	 0.9751792142	 0.600960019	-2.7328111093	 0.11356
H	 1.3392394356	-1.114410447	-2.9376019209	 0.135938
H	-0.3516559721	-0.5768302018	-2.8443747786	 0.119987
H	 2.9125098814	-0.1437644689	-0.906892506	 0.107082
H	 2.0952141316	-0.1468832044	 0.6818643335	 0.107355
H	 2.3426151284	-2.5545842903	 0.7385247134	 0.104994
H	-0.0335921989	-2.1698376704	 0.4122503034	 0.113405
H	 0.1414619777	-2.790730785	-1.2535917828	 0.108815
H	 4.0784083005	-3.8816233449	-2.8566009588	 0.195554
71.6894	106.5567	131.5981	188.8889	214.5131	256.8606	277.9089	340.042	359.3115	384.703	462.7099	502.6349	536.4181	615.0296	619.3621	651.048	786.9439	820.5092	839.5683	911.2037	918.7169	949.0613	964.8614	1017.5029	1088.3554	1106.6844	1146.3707	1164.7225	1181.8556	1186.6683	1210.0589	1235.4935	1254.7472	1279.1355	1302.7807	1348.4055	1407.1629	1460.7392	1475.0452	1480.4322	1487.2663	1491.9434	1508.0493	1512.0615	2229.2661	2986.0309	3033.0545	3040.0076	3063.0321	3069.7446	3079.3347	3105.9313	3110.6038	3120.2871	3132.9664	3140.8454	3504.8636
COC1(C)CC(C1)C#C	CO[C@@]1(C)C[C@@H](C1)C#C	
InChI=1S/C8H12O/c1-4-7-5-8(2,6-7)9-3/h1,7H,5-6H2,2-3H3	InChI=1S/C8H12O/c1-4-7-5-8(2,6-7)9-3/h1,7H,5-6H2,2-3H3/t7-,8-
