23
gdb 103827	3.14718	0.88745	0.82176	2.1427	82.69	-0.2549	0.0716	0.3265	1522.0744	0.202547	-425.411361	-425.40016	-425.399216	-425.447565	40.859	
C	-0.0651866641	 1.5017728003	-0.2386802757	-0.396871
C	 0.0130200385	 0.0112281297	 0.0991031783	 0.11766
O	 0.7065077178	-0.2017037351	 1.3313099456	-0.434201
C	-1.3573912344	-0.6354582651	 0.1128987647	-0.071473
C	-1.9516230813	-1.2751514821	-1.1219797263	-0.328764
C	-1.5448297351	-2.1356954751	 0.0517206396	 0.353599
C	-0.3476470419	-3.0608333134	-0.0739861837	-0.465315
C	-2.6603141335	-2.6961817108	 0.9062671603	-0.144207
O	-3.1705112619	-3.8684727916	 0.2813545904	-0.420667
H	 0.9335459014	 1.9464785866	-0.2310357498	 0.120817
H	-0.5151382989	 1.6584366151	-1.2240793847	 0.119574
H	-0.6819445339	 2.03327783	 0.4971736139	 0.102557
H	 0.6413436985	-0.4845152483	-0.6482241823	 0.085355
H	 0.1824741481	 0.2023117112	 2.0318487719	 0.271997
H	-2.0666016465	-0.1030602222	 0.7482783558	 0.064306
H	-3.0074604654	-1.1318211907	-1.3252990832	 0.110239
H	-1.3320905387	-1.3198203277	-2.0126214246	 0.107148
H	 0.3630326284	-2.7144605872	-0.8279669508	 0.109925
H	 0.1900328649	-3.1350579561	 0.8773088137	 0.122131
H	-0.6851912005	-4.0596841992	-0.3633620397	 0.129438
H	-2.2701404295	-2.9271761018	 1.9112032835	 0.084595
H	-3.4529396099	-1.9399139261	 1.0256600719	 0.076413
H	-3.7504026322	-4.3130684304	 0.9062418414	 0.285745
65.0791	79.716	131.3212	134.9802	183.7031	233.218	240.2895	251.4282	264.9359	301.3391	352.1735	366.1609	380.5423	452.575	496.8777	603.8975	724.975	800.0952	880.2007	897.1111	937.7031	962.8023	976.6434	984.3144	1036.5852	1064.1895	1074.2351	1088.7755	1096.8645	1114.5464	1127.9077	1197.9149	1238.4275	1248.1534	1253.2968	1304.1167	1332.8346	1361.4401	1399.1259	1408.8317	1415.414	1434.1174	1458.6319	1486.0308	1490.7864	1491.6984	1496.3405	1507.6115	1514.9558	2956.8317	2988.2443	3024.1789	3039.9778	3055.3095	3089.6806	3097.6743	3107.9336	3119.9921	3121.0841	3125.0743	3207.7877	3798.2461	3830.9404
CC(O)C1CC1(C)CO	C[C@@H](O)[C@H]1C[C@]1(C)CO	
InChI=1S/C7H14O2/c1-5(9)6-3-7(6,2)4-8/h5-6,8-9H,3-4H2,1-2H3	InChI=1S/C7H14O2/c1-5(9)6-3-7(6,2)4-8/h5-6,8-9H,3-4H2,1-2H3/t5-,6-,7-/m1/s1
