17
gdb 24588	4.83944	1.03637	0.9518	4.4557	75.16	-0.2184	0.0214	0.2398	1238.7525	0.1387	-418.020055	-418.012421	-418.011477	-418.05358	27.942	
C	-0.0218952804	 1.3546606579	-0.2021684043	-0.061934
C	 1.4844897247	 1.5123319411	 0.0696159714	-0.286374
C	 1.3668977469	 0.0912171249	 0.6966140307	 0.017656
O	 0.0025349802	-0.0234110746	 0.2340567683	-0.277782
C	 2.2257003361	-1.008249508	 0.1878959862	 0.303749
C	 2.1551216533	-1.784912442	-0.9422601487	-0.153316
N	 3.2027189238	-2.6751124541	-0.9948215727	-0.252859
C	 3.9067828647	-2.4449051091	 0.0885767182	 0.009855
N	 3.3591189995	-1.449497998	 0.8439213082	-0.322262
H	-0.671588529	 1.9693476136	 0.4339042533	 0.10237
H	-0.3521055857	 1.4454057736	-1.2422407668	 0.112347
H	 2.1037378542	 1.5335197858	-0.8277648907	 0.121873
H	 1.7832915058	 2.3161411238	 0.7441338848	 0.108666
H	 1.4074665719	 0.1205121611	 1.7978091103	 0.069018
H	 1.3924143065	-1.7597563117	-1.7044062927	 0.116735
H	 4.8110367111	-2.9575741489	 0.3813203679	 0.129188
H	 3.7091455268	-1.1034845855	 1.7219366866	 0.263071
35.8909	87.4144	137.3163	203.5192	370.6293	406.95	519.4787	650.9241	681.3445	688.246	784.3665	806.1906	851.9149	862.6566	912.2808	939.8075	954.2173	1013.4218	1028.2083	1056.5073	1090.7116	1113.2461	1146.9275	1167.2592	1213.0559	1229.7932	1254.8394	1263.8123	1278.9251	1344.1796	1352.7463	1417.8177	1442.0737	1487.5209	1498.6296	1532.3542	1609.4741	2960.089	3018.9	3069.2541	3083.467	3144.0386	3250.5384	3262.4185	3658.8283
C1CC(O1)C1=CN=CN1	C1C[C@@H](O1)c1cnc[nH]1	
InChI=1S/C6H8N2O/c1-2-9-6(1)5-3-7-4-8-5/h3-4,6H,1-2H2,(H,7,8)	InChI=1S/C6H8N2O/c1-2-9-6(1)5-3-7-4-8-5/h3-4,6H,1-2H2,(H,7,8)/t6-/m1/s1
