21
gdb 84008	2.07817	1.62908	1.39547	0.7146	77.87	-0.2361	0.076	0.3121	1084.0153	0.183435	-424.216165	-424.207513	-424.206569	-424.248757	34.224	
C	-0.2156583069	 1.5264159855	 0.1311577828	-0.429296
C	-0.0044745279	 0.0314941934	 0.0195356756	-0.076378
C	 0.6789395223	-0.6339838942	-1.1756229301	-0.093295
C	 1.3079098341	 0.18793316	-2.2987168052	-0.237784
C	 2.744405812	 0.5928175143	-1.9551806557	-0.071936
O	 2.831583187	 1.1316062103	-0.6435966336	-0.23767
C	 2.6285967617	 0.1395618709	 0.3478903302	-0.156103
C	 1.3332942359	-0.6450909915	 0.1804537292	 0.335318
O	 1.3653094031	-1.8931007364	 0.8280576113	-0.461011
H	 0.6561476006	 2.0860804865	-0.2117699251	 0.14335
H	-1.0827613024	 1.8436514656	-0.4598355619	 0.113206
H	-0.4079158355	 1.8134642179	 1.1712068127	 0.11051
H	-0.8226078734	-0.5652823766	 0.4165319273	 0.082174
H	 0.2447333512	-1.5837610261	-1.4692977421	 0.094496
H	 1.3141087891	-0.3950891016	-3.2255948532	 0.100958
H	 0.7139715662	 1.0869412955	-2.499568167	 0.107874
H	 3.4153788867	-0.2775129861	-2.0431587739	 0.091864
H	 3.1102487935	 1.3721672109	-2.6300400911	 0.104574
H	 3.4514651855	-0.5938786516	 0.3308801596	 0.099708
H	 2.6614812775	 0.6635030961	 1.3105422425	 0.098651
H	 1.2033319296	-1.743693903	 1.7662373477	 0.28079
139.4331	169.1522	216.1776	241.5587	249.9586	309.2024	347.9215	368.112	444.0289	456.2313	487.8022	543.4008	605.2784	733.75	776.4603	813.3196	878.6779	911.9523	962.9676	987.7791	1019.7999	1039.1902	1077.3279	1098.6896	1123.3765	1132.2438	1141.4764	1143.7388	1212.7638	1244.8667	1268.1274	1293.4381	1318.3214	1334.1198	1350.4066	1368.5772	1384.0501	1412.1645	1418.8654	1462.0773	1485.6216	1493.1498	1500.1463	1508.1939	1516.435	2970.2821	2975.2152	3029.0977	3036.4638	3052.4896	3075.4976	3080.3751	3085.8811	3124.6186	3142.4931	3163.5764	3792.2336
CC1C2CCOCC12O	C[C@H]1[C@H]2CCOC[C@@]12O	
InChI=1S/C7H12O2/c1-5-6-2-3-9-4-7(5,6)8/h5-6,8H,2-4H2,1H3	InChI=1S/C7H12O2/c1-5-6-2-3-9-4-7(5,6)8/h5-6,8H,2-4H2,1H3/t5-,6+,7+/m0/s1
