19
gdb 57078	3.06598	1.19871	0.90933	1.2727	83.5	-0.2338	0.0138	0.2476	1287.5908	0.15782	-385.861588	-385.852507	-385.851562	-385.895655	33.869	
C	-0.0512629043	 1.5283352533	-0.0452199407	-0.395856
C	-0.0448704809	-0.0096265502	 0.04085368	-0.159326
C	 0.7762617445	-0.4803246439	 1.1532174069	 0.324747
C	 1.4267965939	-0.8595622668	 2.0910760689	-0.481778
C	-1.4908938683	-0.5662651033	 0.1676290383	 0.084998
O	-2.273938406	-0.1168823249	-0.9398810079	-0.275474
C	-2.8321984156	-1.225515443	-1.643004515	-0.116976
C	-2.3348237216	-2.4398686446	-0.9122108454	-0.103955
C	-1.5843351433	-2.0672199046	 0.1172048921	-0.09007
H	 0.9614388705	 1.9110068482	-0.1948808467	 0.120453
H	-0.6822541151	 1.8455649527	-0.8778127545	 0.136853
H	-0.4453531296	 1.9630722388	 0.8786956148	 0.122297
H	 0.3639754503	-0.4126533455	-0.8952531612	 0.10515
H	 2.0150914045	-1.1954376475	 2.9087534297	 0.194636
H	-1.9202453831	-0.1618460403	 1.0989997146	 0.089829
H	-3.9312138095	-1.1521079961	-1.6378989408	 0.107672
H	-2.5120238394	-1.2023319527	-2.6961480571	 0.107485
H	-2.5778347254	-3.4516479357	-1.2108666578	 0.108031
H	-1.0839910115	-2.704147464	 0.8334483721	 0.121283
70.8607	92.8675	129.6476	212.4559	223.2795	243.3723	321.4625	394.4036	439.2748	512.5007	559.2519	629.4348	642.1307	718.1022	769.9608	816.7934	853.3328	899.0502	940.3735	952.7945	963.8823	1020.1297	1045.715	1081.5492	1092.6728	1112.7782	1122.7057	1138.1756	1196.614	1274.3054	1300.9284	1327.0922	1359.0787	1367.2048	1384.1821	1402.4556	1495.002	1499.1101	1521.4952	1692.405	2230.8065	2965.3171	2977.2745	2994.7441	3021.7318	3047.0372	3118.0549	3140.411	3213.6393	3243.0986	3504.0034
CC(C#C)C1OCC=C1	C[C@@H](C#C)[C@H]1OCC=C1	
InChI=1S/C8H10O/c1-3-7(2)8-5-4-6-9-8/h1,4-5,7-8H,6H2,2H3	InChI=1S/C8H10O/c1-3-7(2)8-5-4-6-9-8/h1,4-5,7-8H,6H2,2H3/t7-,8-/m0/s1
