19
gdb 58824	3.39992	1.29086	1.11917	3.1882	74.14	-0.247	0.0452	0.2923	1149.0893	0.156405	-422.935456	-422.926833	-422.925889	-422.968749	33.027	
C	-0.1578944426	 1.5507537938	-0.1598733144	-0.389729
C	-0.0220892452	 0.0270232131	 0.0088264515	-0.115023
C	-1.3913146557	-0.6546295806	 0.1255479333	-0.39226
C	 0.7891916176	-0.5392498536	-1.1206578568	 0.440486
O	 0.2185523975	-0.6734675449	-2.4244963399	-0.261644
C	 0.8332474099	-1.8202126733	-1.8313276612	-0.129611
C	 2.3978423207	-1.6797620046	-2.0093319892	-0.011542
O	 2.6620923003	-0.4658691116	-2.7082968179	-0.211052
C	 2.3646296359	-0.3942926385	-1.3154980724	-0.072761
H	 0.8208853494	 2.0356742047	-0.2314263755	 0.11791
H	-0.7155412418	 1.7862821958	-1.0718150117	 0.135993
H	-0.6905477128	 1.9878606168	 0.6900811228	 0.113072
H	 0.5449392539	-0.1659108227	 0.9311297304	 0.0806
H	-1.9622783541	-0.5274818168	-0.7984362421	 0.136888
H	-1.2874084304	-1.7274332023	 0.3153137728	 0.11168
H	-1.9662593403	-0.2202261246	 0.9486997413	 0.112475
H	 0.2509423356	-2.7282652015	-1.7347955401	 0.111655
H	 3.1399019202	-2.4677675832	-2.0327553856	 0.112697
H	 3.077312922	 0.085117354	-0.6550823053	 0.110165
59.9528	144.1015	180.3262	210.4817	249.9343	296.2029	347.3555	417.8174	437.1569	515.9154	629.2123	692.4121	764.1701	796.7774	822.2051	855.944	872.2285	893.4986	927.4186	940.1654	973.2193	982.0007	986.9912	1026.2769	1067.3255	1122.8858	1137.3146	1188.5494	1201.4273	1226.6256	1248.5421	1336.3358	1349.5786	1373.99	1396.4287	1415.2333	1461.5771	1486.1985	1491.3632	1500.9369	1517.1993	3001.9525	3035.5438	3041.1995	3105.3732	3108.5299	3111.9589	3121.2667	3185.6377	3193.7556	3205.4489
CC(C)C12OC1C1OC21	CC(C)[C@]12O[C@H]1[C@H]1O[C@@H]21	
InChI=1S/C7H10O2/c1-3(2)7-5-4(8-5)6(7)9-7/h3-6H,1-2H3	InChI=1S/C7H10O2/c1-3(2)7-5-4(8-5)6(7)9-7/h3-6H,1-2H3/t4-,5+,6-,7+/m0/s1
