16
gdb 67722	3.77633	1.86609	1.61055	3.6418	71.65	-0.2087	-0.0537	0.155	851.1121	0.123638	-400.620403	-400.61391	-400.612966	-400.650718	27.361	
C	-0.069678257	 1.4360433158	-0.0267933477	-0.484639
C	 0.0118135794	-0.0640959162	-0.0050798944	 0.338064
N	-0.4853489056	-0.7968103339	-1.1535134747	-0.243289
C	-0.140925023	-1.9883074869	-0.8508330879	 0.203906
O	-1.1000278493	-2.8738394707	-0.3301146307	-0.282404
C	-0.4551252398	-2.4011012557	 0.9577848547	 0.090625
C	-0.410661493	-0.8512633387	 1.2841601576	-0.163031
C	 1.0535599262	-0.8008037944	 0.8315727577	-0.137309
C	 0.903112883	-2.2046944155	 0.2849681759	-0.137792
H	 0.6311499392	 1.8442171441	-0.7619523192	 0.132149
H	-1.0774201603	 1.7595016692	-0.3005767529	 0.140974
H	 0.180172997	 1.855631226	 0.9522599652	 0.118286
H	-0.6637907644	-3.1000111183	 1.7652650479	 0.119109
H	-0.8974316556	-0.3617009763	 2.1160092367	 0.10053
H	 1.9143117612	-0.3394982417	 1.293540305	 0.102063
H	 1.6572845021	-2.9796093869	 0.2041328168	 0.102758
200.6183	228.7399	302.2351	393.6043	497.342	537.5956	581.6283	643.5341	673.3217	710.7494	728.0199	755.8187	803.6194	844.6621	863.1843	898.8282	904.0596	914.5897	951.6696	992.837	1029.6607	1048.3024	1082.5361	1095.4259	1117.6277	1170.3377	1178.1536	1237.155	1250.2035	1302.8437	1347.0312	1416.675	1477.9049	1496.9642	1554.486	3041.3499	3109.467	3121.4354	3147.0278	3180.8293	3213.6855	3225.0779
CC12N=C3OC4C1C2C34	C[C@]12[N][C]3O[C@@H]4[C@H]1[C@H]2[C@H]34	
InChI=1S/C7H7NO/c1-7-3-2-5(4(3)7)9-6(2)8-7/h2-5H,1H3	InChI=1S/C7H7NO/c1-7-3-2-5(4(3)7)9-6(2)8-7/h2-5H,1H3/t2-,3+,4+,5-,7+/m0/s1
