17
gdb 93323	2.07763	1.71722	1.14715	4.4094	73.08	-0.2483	-0.0457	0.2027	1095.958	0.13586	-418.033724	-418.025093	-418.024149	-418.067334	31.279	
C	-0.3045423247	 1.4063138481	-0.0445517089	-0.335547
N	 0.1032045143	 0.0137734888	 0.008180329	-0.055636
C	 0.8710801565	-0.4682596791	-1.1460368679	-0.172318
C	 1.2653733996	-1.8896497832	-0.7354322305	-0.33209
C	 1.3356263128	-1.8271548539	 0.7879334684	 0.417328
O	 1.709078178	-2.6732086526	 1.5456987305	-0.286073
C	 0.8013867531	-0.4205753742	 1.2050667704	-0.247205
C	 1.9467564047	 0.4360632232	 1.5913602403	 0.274989
N	 2.8331875887	 1.1386330221	 1.8327922287	-0.325226
H	 0.5457163321	 2.1082514715	-0.0433056872	 0.127887
H	-0.8882456993	 1.5704845726	-0.9551159979	 0.12883
H	-0.9424920588	 1.638257061	 0.8137286648	 0.130857
H	 0.2445822038	-0.4340149115	-2.0413258593	 0.119428
H	 1.7678782684	 0.1465596494	-1.338634624	 0.110598
H	 0.4954174503	-2.6194499762	-1.0073895021	 0.151157
H	 2.2153405857	-2.2379622166	-1.1463416814	 0.147965
H	 0.1291090248	-0.5127154093	 2.064061757	 0.145058
64.7981	127.9137	152.6254	174.9173	233.9374	300.4425	331.0574	412.684	462.1332	518.2903	574.4485	611.5977	634.6502	801.4864	829.457	887.9527	927.3805	990.7174	1053.2612	1060.1533	1121.3085	1140.8517	1173.0409	1203.3621	1206.52	1264.2552	1279.8305	1291.821	1336.7746	1382.9417	1446.3372	1459.8686	1488.3253	1506.4693	1523.089	1876.1565	2337.356	2952.7137	2975.4466	3062.4389	3064.6508	3072.0869	3086.4068	3112.0109	3121.8431
CN1CCC(=O)C1C#N	CN1CCC(=O)[C@H]1C#N	
InChI=1S/C6H8N2O/c1-8-3-2-6(9)5(8)4-7/h5H,2-3H2,1H3	InChI=1S/C6H8N2O/c1-8-3-2-6(9)5(8)4-7/h5H,2-3H2,1H3/t5-/m1/s1
