13
gdb 7242	4.90669	1.31937	1.03978	1.5932	59.16	-0.2442	-0.0548	0.1894	1044.6651	0.096141	-431.982254	-431.97427	-431.973326	-432.015104	27.864	
N	 0.111797359	 1.2948375999	 0.0063567656	-0.516671
C	 0.0618036259	-0.0471951799	 0.0002668786	 0.345048
O	 1.0115457062	-0.813352281	-0.0126302958	-0.380358
C	-1.4007624793	-0.5613976824	 0.0120074391	 0.347323
O	-2.3444999882	 0.1957029501	 0.0251049159	-0.337715
N	-1.4056430679	-1.9310961568	 0.0046360445	-0.323637
C	-2.4821083424	-2.8126144634	 0.0104149407	 0.085411
N	-3.6935918125	-2.4437128708	 0.0243749068	-0.395595
H	 0.9963914831	 1.7727962523	 0.0004382795	 0.273601
H	-0.7602185718	 1.8012532779	 0.0175384785	 0.287705
H	-0.4666617313	-2.3146246813	-0.0065695531	 0.276896
H	-2.1276496746	-3.8504904876	 0.0012712225	 0.104414
H	-4.3016831662	-3.2612562668	 0.0259120472	 0.233578
76.3625	102.7335	163.527	181.5251	279.732	360.9922	361.9146	498.0356	517.6853	552.746	680.2859	689.1192	743.2441	825.3695	840.255	930.1564	1043.3293	1068.9068	1102.4426	1194.1533	1261.2408	1377.0768	1428.3902	1558.422	1590.5309	1727.8741	1800.2985	1824.6604	3044.2625	3499.8202	3550.8107	3589.7278	3735.2741
NC(=O)C(=O)NC=N	NC(=O)C(=O)NC=N	
InChI=1S/C3H5N3O2/c4-1-6-3(8)2(5)7/h1H,(H2,5,7)(H2,4,6,8)	InChI=1S/C3H5N3O2/c4-1-6-3(8)2(5)7/h1H,(H2,5,7)(H2,4,6,8)
