14
gdb 5026	3.47421	2.34748	1.4026	5.177	70.44	-0.1852	-0.0011	0.1841	823.8058	0.110996	-374.941578	-374.934875	-374.933931	-374.972078	26.39	
N	 0.0443882308	 1.3830474447	 0.1392904722	-0.585787
C	-0.0311210564	 0.0133898479	 0.0448169765	 0.274093
C	-1.1729503376	-0.715501614	 0.0174064951	-0.119356
N	-1.0871731247	-2.105412863	-0.0172010396	-0.292936
C	 0.1220513423	-2.7106296758	-0.0221239093	 0.086766
N	 1.2561830431	-2.0910203909	-0.0112562296	-0.335684
C	 1.2664964002	-0.6959535294	 0.0082423255	 0.311386
N	 2.3358206171	 0.0178894528	-0.0134136227	-0.564682
H	 0.9743380102	 1.7184626335	-0.0841068154	 0.270374
H	-0.7196762206	 1.924560332	-0.2324592147	 0.241715
H	-2.16877832	-0.2938187941	 0.0306634676	 0.11297
H	-1.9270781938	-2.6587893121	-0.0308493176	 0.265723
H	 0.1009936396	-3.7982853847	-0.0401248412	 0.122905
H	 3.1504634197	-0.5953650269	-0.0467436169	 0.212515
128.8669	289.3713	335.8778	390.8058	400.2701	429.574	488.2174	532.911	583.0503	588.8911	611.6695	760.9194	791.0665	804.2336	873.7501	935.8004	940.2591	1044.4193	1061.4433	1133.7744	1234.2358	1305.3942	1325.1138	1421.3761	1439.531	1539.5836	1604.9461	1641.9192	1664.3333	1705.9922	3154.5005	3219.9563	3481.8931	3528.2653	3660.415	3668.8771
NC1=CNC=NC1=N	NC1=CNCN=C1[NH]	
InChI=1S/C4H6N4/c5-3-1-7-2-8-4(3)6/h1-2H,5H2,(H2,6,7,8)	InChI=1S/C4H7N4/c5-3-1-7-2-8-4(3)6/h1,6-7H,2,5H2
