15
gdb 49353	1.8153	1.48135	1.1037	2.7212	78.7	-0.2483	-0.0315	0.2168	1159.634	0.108836	-383.413859	-383.40478	-383.403835	-383.447977	33.055	
O	 0.0351408338	-0.0427494854	-0.3727019742	-0.263865
C	 0.0272364929	 1.084137919	 0.0565359685	 0.166206
C	 1.2382609034	 1.9486270551	 0.0744282136	-0.152513
C	 1.1113869983	 3.4567299778	-0.1588152833	-0.23397
C	-0.155549997	 4.0730709965	-0.4208069838	 0.34204
C	-1.2006146493	 4.6173953593	-0.6576322989	-0.439767
C	 1.4657529061	 2.9316544077	 1.2262860822	-0.23397
C	 0.5457211744	 3.0339766503	 2.3202319198	 0.34204
C	-0.1986655826	 3.1327745894	 3.2586682751	-0.439768
H	-0.8909038719	 1.5482262483	 0.4673733457	 0.104981
H	 2.1222383121	 1.4710160697	-0.3327881333	 0.123065
H	 1.9452617833	 3.8890612799	-0.7041261888	 0.136639
H	-2.1277796471	 5.0930836473	-0.8624558626	 0.206122
H	 2.5094625537	 3.0530670005	 1.50115107	 0.136639
H	-0.8624906102	 3.2182372547	 4.0832284099	 0.206122
73.2502	92.8658	128.4562	162.295	232.3909	302.8731	306.0866	416.9739	454.6695	520.4443	608.0444	609.1495	630.029	649.8828	665.0189	666.3159	776.5219	789.2999	890.4622	944.8778	964.7368	1045.4243	1098.4198	1121.9257	1147.0058	1219.9062	1329.6959	1363.4436	1380.9253	1439.765	1817.7003	2241.7271	2243.5221	2944.3805	3147.0451	3154.2097	3187.0159	3502.938	3503.5924
O=CC1C(C#C)C1C#C	O=C[C@H]1[C@@H](C#C)[C@H]1C#C	
InChI=1S/C8H6O/c1-3-6-7(4-2)8(6)5-9/h1-2,5-8H	InChI=1S/C8H6O/c1-3-6-7(4-2)8(6)5-9/h1-2,5-8H/t6-,7+,8-
