18
gdb 82370	2.7071	1.49068	1.19589	4.3964	70.7	-0.2432	-0.0112	0.232	1064.0414	0.14878	-439.074188	-439.066236	-439.065292	-439.107679	30.314	
O	 0.1721786956	 1.2600303746	 0.3890148675	-0.429445
C	 0.0048130115	-0.1225519026	 0.1401914591	 0.110839
C	-1.4593410629	-0.4714096812	-0.1378684756	-0.079007
N	-2.0149735679	 0.5108900671	-1.0937092072	-0.346023
C	-1.6250061005	-0.8352505489	-1.565776136	-0.028419
C	-0.2754931089	-0.8565626422	-2.2657462231	-0.241931
C	 0.7682856741	-0.6056243295	-1.1489517533	-0.136395
C	 1.875432434	 0.3642333022	-1.5107464709	 0.166348
O	 2.0021336214	 0.8913846453	-2.5865910432	-0.250264
H	-0.4601525001	 1.6953805174	-0.2044652495	 0.293833
H	 0.3758641794	-0.6412900558	 1.0281128409	 0.087294
H	-2.0922779228	-0.8574245989	 0.6536151561	 0.094736
H	-3.0234454069	 0.5706136388	-0.9845305707	 0.239458
H	-2.4134018486	-1.5070757747	-1.8896989765	 0.093881
H	-0.1080505225	-1.8210213598	-2.7528647659	 0.10397
H	-0.2080701048	-0.0829929797	-3.0349389666	 0.139482
H	 1.2682382379	-1.5508233626	-0.8950324834	 0.095309
H	 2.599321602	 0.5560466004	-0.6906156617	 0.086336
30.6632	97.0499	233.7758	239.6346	287.7229	385.7497	455.7359	522.57	578.1135	637.4393	670.5483	721.7077	780.7427	815.5341	862.8473	889.5235	931.6866	938.8335	959.5945	993.461	1035.4542	1074.0294	1080.7085	1118.2931	1145.9464	1160.848	1204.6885	1221.5017	1249.5274	1293.3642	1317.8363	1323.2213	1346.3756	1361.6283	1415.9764	1435.0975	1455.8412	1491.3733	1826.7988	2907.3093	3010.9425	3065.3955	3075.6383	3111.2549	3160.7653	3175.044	3513.7094	3695.2052
OC1C2NC2CC1C=O	O[C@H]1[C@H]2N[C@H]2C[C@H]1C=O	
InChI=1S/C6H9NO2/c8-2-3-1-4-5(7-4)6(3)9/h2-7,9H,1H2	InChI=1S/C6H9NO2/c8-2-3-1-4-5(7-4)6(3)9/h2-7,9H,1H2/t3-,4-,5-,6+/m0/s1
