21
gdb 64236	2.7213	1.02788	0.92193	3.9445	80.54	-0.276	0.0096	0.2856	1377.3757	0.180266	-424.250526	-424.2407	-424.239755	-424.28571	35.985	
C	-0.1005588913	 1.4991526277	 0.1413185646	-0.427264
C	 0.0408523721	-0.021699591	 0.0381343746	 0.2856
C	-1.3092537037	-0.6844116264	-0.217203309	-0.457979
C	 1.2196343646	-0.4392957492	-0.9041880853	-0.259243
C	 2.1453362183	-0.5727322978	 0.3367896552	-0.268154
C	 0.8802076638	-0.622594307	 1.2104044902	 0.123039
O	 0.9310050048	 0.1241929918	 2.4230567907	-0.186066
C	 0.4960570381	-0.4494282345	 3.560198775	 0.16279
O	 0.4812880684	 0.1199637868	 4.6096889798	-0.277225
H	 0.8598264938	 1.9910833529	 0.3192035238	 0.12213
H	-0.5183713029	 1.898613927	-0.7890635679	 0.112798
H	-0.7676508167	 1.7785200075	 0.9623493045	 0.125703
H	-1.7502991151	-0.3270839432	-1.1544465483	 0.120257
H	-1.2139490117	-1.7734381282	-0.2890191241	 0.108559
H	-2.0194181224	-0.4595305036	 0.5872752223	 0.118953
H	 1.0365735259	-1.4001751019	-1.3928590918	 0.10171
H	 1.5141503808	 0.2879933058	-1.6637257242	 0.105604
H	 2.8241114511	-1.4262924424	 0.3877925702	 0.105366
H	 2.7123030322	 0.3406426144	 0.5297593255	 0.125928
H	 0.5705718978	-1.6520805591	 1.429480373	 0.081317
H	 0.1634071523	-1.4959531896	 3.4113425212	 0.076177
43.7073	84.912	147.3109	205.0129	212.9913	234.5699	276.6268	295.7921	342.03	381.44	405.0332	482.0902	591.1207	673.2277	749.6569	834.6814	868.435	915.0817	945.7578	961.3931	972.9971	1004.6522	1025.8992	1045.4649	1088.3925	1136.7046	1179.9407	1187.3413	1209.6158	1232.724	1251.8012	1268.2621	1285.2952	1316.8194	1386.3542	1402.1363	1421.6348	1441.6542	1478.4662	1481.2398	1489.0999	1499.3154	1503.1423	1504.8612	1864.4164	2939.9022	3020.0824	3026.2809	3036.1282	3061.3904	3074.2141	3088.2023	3091.9681	3104.4291	3111.4155	3113.1696	3131.3729
CC1(C)CCC1OC=O	CC1(C)CC[C@H]1OC=O	
InChI=1S/C7H12O2/c1-7(2)4-3-6(7)9-5-8/h5-6H,3-4H2,1-2H3	InChI=1S/C7H12O2/c1-7(2)4-3-6(7)9-5-8/h5-6H,3-4H2,1-2H3/t6-/m1/s1
