17
gdb 65416	3.92847	0.85893	0.77793	1.945	82.23	-0.2581	0.0207	0.2787	1469.7433	0.1312	-384.601724	-384.59189	-384.590946	-384.636719	35.891	
C	 0.1154417888	 1.4797647723	-0.2096812148	-0.47126
C	-0.0499847208	 0.0069309674	 0.1080624899	 0.176055
O	 1.1610208119	-0.7806487777	 0.1336643881	-0.269859
C	 0.4509974767	-0.6211654804	 1.3555247108	 0.027962
C	 1.1304391259	 0.1436257355	 2.4815360753	-0.394043
C	 2.0059934673	-0.7156201652	 3.2717685554	 0.298077
C	 2.7141980671	-1.4425796942	 3.9143983235	-0.431597
C	-1.1724686147	-0.6244036973	-0.5526638902	 0.28816
C	-2.1170350476	-1.1171410151	-1.109146018	-0.424361
H	 1.0003843382	 1.8952987145	 0.2740832323	 0.130501
H	 0.2224743356	 1.612492304	-1.2899570369	 0.14237
H	-0.7670382356	 2.0405019411	 0.1128130215	 0.134969
H	-0.0659326471	-1.5220476003	 1.6875006911	 0.110567
H	 1.7051964291	 0.9796318628	 2.0726199618	 0.141319
H	 0.3549281328	 0.5738441667	 3.1295774905	 0.14026
H	 3.3487916637	-2.0780101859	 4.4809117873	 0.200053
H	-2.9468543911	-1.5644476082	-1.5985351876	 0.200827
47.2697	95.1578	139.9013	168.4795	184.4201	240.8161	314.7897	331.3008	394.4968	421.2233	476.9687	554.9594	601.6797	623.5714	626.8872	648.7376	664.5408	688.1498	816.8742	881.5362	925.9302	965.1295	1014.5262	1080.8224	1105.1007	1123.7429	1228.8519	1247.0948	1318.5033	1334.3592	1413.3648	1447.4445	1456.8132	1483.2545	1499.7914	2237.9944	2243.1353	3024.232	3050.7756	3084.8728	3112.5356	3117.1488	3144.4255	3501.5274	3507.0558
CC1(OC1CC#C)C#C	C[C@]1(O[C@H]1CC#C)C#C	
InChI=1S/C8H8O/c1-4-6-7-8(3,5-2)9-7/h1-2,7H,6H2,3H3	InChI=1S/C8H8O/c1-4-6-7-8(3,5-2)9-7/h1-2,7H,6H2,3H3/t7-,8-/m0/s1
