21
gdb 57205	2.60468	1.28804	1.01695	3.2526	78.49	-0.2434	-0.0233	0.2201	1257.639	0.179705	-424.235146	-424.225198	-424.224253	-424.270194	37.529	
C	-0.5163019304	 1.3197136558	-0.0617654369	-0.431726
C	 0.0264508466	-0.1174457208	 0.0331808371	-0.177557
C	 0.900891312	-0.4740940937	-1.1803798831	 0.401958
C	 0.3687154072	-0.1331883769	-2.5608236703	-0.47895
O	 1.9713858667	-1.0352571908	-1.0599729273	-0.322368
C	 0.7495751491	-0.465645569	 1.3339079004	 0.460501
O	 1.0823782551	-1.8239049029	 1.4175193093	-0.48405
C	 1.6931115859	 0.5023633183	 2.0062819278	-0.314593
C	 0.3735764545	 0.1316110338	 2.6563517901	-0.330958
H	 0.2898459137	 2.0599373503	-0.0574795641	 0.130023
H	-1.0954340523	 1.4626660859	-0.9769497955	 0.12379
H	-1.1813764636	 1.5366714056	 0.7768437375	 0.134175
H	-0.8345923265	-0.8017875937	-0.038458041	 0.110271
H	 0.4724780255	 0.9414160919	-2.7478854976	 0.150388
H	 0.9439017432	-0.6767572784	-3.3112066511	 0.145344
H	-0.6951186413	-0.3743104085	-2.6512445481	 0.138193
H	 1.7373456348	-1.9626841305	 0.7182625325	 0.289984
H	 2.5971105059	 0.0752788331	 2.4241612805	 0.11863
H	 1.8055361382	 1.507051617	 1.6137522038	 0.104918
H	-0.4036418433	 0.8843032544	 2.7120265133	 0.10706
H	 0.404441449	-0.551338881	 3.4971900929	 0.124967
40.1855	82.2646	142.686	203.4871	223.1632	257.8175	322.8472	329.3834	342.442	424.367	436.7397	478.6673	561.5293	595.0743	617.217	709.463	761.3014	777.5434	886.9922	919.4194	934.5478	959.7877	964.7261	989.3208	1048.536	1061.522	1076.6224	1092.3397	1114.3664	1186.8424	1191.7823	1251.4013	1301.6981	1309.4719	1340.1404	1381.8198	1398.6409	1417.6104	1451.063	1461.8647	1474.2121	1502.5489	1507.8777	1511.1978	1784.1606	2983.6179	3040.9913	3051.8854	3104.1389	3120.2532	3128.1206	3137.2225	3145.8618	3152.3874	3221.5464	3236.4954	3732.1204
CC(C(C)=O)C1(O)CC1	C[C@@H](C(=O)C)C1(O)CC1	
InChI=1S/C7H12O2/c1-5(6(2)8)7(9)3-4-7/h5,9H,3-4H2,1-2H3	InChI=1S/C7H12O2/c1-5(6(2)8)7(9)3-4-7/h5,9H,3-4H2,1-2H3/t5-/m0/s1
