16
gdb 34938	4.83137	0.99389	0.91812	4.2875	75.49	-0.2509	0.0079	0.2588	1247.6197	0.125208	-396.85589	-396.848342	-396.847398	-396.888048	28.827	
N	-0.1249886625	-1.0483284405	-0.0025343793	-0.320546
C	-0.0399734021	 0.1038740485	 0.032307026	 0.298436
C	 0.0239079145	 1.5426947812	 0.0946889856	-0.177255
C	 0.5987709809	 2.199187703	 1.3050326363	-0.126405
N	 1.3905697333	 2.1183008838	 0.0264716703	-0.123347
C	 1.1831737757	 3.6084668625	-0.1555181253	-0.242288
C	 0.4379015548	 3.6962664979	 1.1829410946	 0.349655
C	-0.6335491148	 4.5719168309	 1.7046302611	-0.309858
N	 0.7558184234	 4.6860560203	 2.1971755279	-0.364763
H	-0.7807378554	 2.0463964176	-0.4367033567	 0.135482
H	 0.8689365887	 1.6335142505	 2.1915339102	 0.125112
H	 2.1477686626	 4.1176602355	-0.1307657865	 0.142867
H	 0.6442373895	 3.8694323116	-1.071016195	 0.119773
H	-0.9777064888	 5.4202624731	 1.1194866404	 0.130291
H	-1.3872991882	 4.1265838348	 2.3494427299	 0.122943
H	 0.8486170984	 4.2525043792	 3.1131163004	 0.239903
109.8143	133.3395	195.8122	274.7104	332.1265	384.2565	454.4823	506.5738	531.9272	577.6935	790.4945	808.3628	844.3777	872.7922	905.0508	940.4981	962.3466	989.8382	1002.227	1037.2176	1056.4526	1068.6976	1099.7661	1131.324	1169.3816	1196.156	1255.6951	1263.4791	1288.2084	1292.7731	1390.0227	1435.8262	1488.9716	1515.5075	2363.1084	3061.6444	3106.493	3133.4217	3134.6249	3165.4812	3193.3778	3495.7236
N#CC1C2N1CC21CN1	N#C[C@H]1[C@H]2N1C[C@]12CN1	
InChI=1S/C6H7N3/c7-1-4-5-6(2-8-6)3-9(4)5/h4-5,8H,2-3H2	InChI=1S/C6H7N3/c7-1-4-5-6(2-8-6)3-9(4)5/h4-5,8H,2-3H2/t4-,5+,6-,9?/m0/s1
