22
gdb 82313	2.44222	1.72073	1.27267	1.5228	84.53	-0.2253	0.0822	0.3075	1087.5743	0.195971	-367.185027	-367.176892	-367.175948	-367.217188	33.229	
C	-0.8264576468	 1.0694372087	-0.0008516352	-0.415331
C	 0.0154804582	-0.1983437606	 0.1468338913	-0.046939
C	 0.8879842785	-0.5960720094	-1.0543071955	 0.333114
C	 0.3119279341	-0.9741968934	-2.3876659452	-0.342296
C	 1.1019261883	 0.304091202	-2.24935871	-0.30316
C	 2.05643741	-1.3800942556	-0.4491561557	-0.231124
N	 2.2470550434	-0.9096772281	 0.936587317	-0.106367
C	 2.3154856647	 0.5565223882	 1.0456695059	-0.25419
C	 1.0297090203	-0.1493931567	 1.2854484999	-0.021661
H	-0.1967929319	 1.9518908069	-0.1485877536	 0.120496
H	-1.5179447981	 0.9973369074	-0.8477622747	 0.114728
H	-1.429106113	 1.2367454711	 0.8976307502	 0.115767
H	-0.6656094406	-1.0359566263	 0.3577430635	 0.077755
H	 0.7616052223	-1.8054729677	-2.9221026755	 0.110637
H	-0.7624615051	-0.8929532478	-2.5233962676	 0.10976
H	 0.5612461452	 1.2423802999	-2.306020064	 0.111968
H	 2.0963967083	 0.340428018	-2.6834932309	 0.107945
H	 1.8162841266	-2.4493750295	-0.39521979	 0.104321
H	 2.9848348515	-1.2766634543	-1.0213326031	 0.10193
H	 2.8981827993	 0.9162636349	 1.8886629368	 0.111119
H	 2.4221925786	 1.142695347	 0.1367444193	 0.117406
H	 0.6614806564	-0.2669338544	 2.3014753772	 0.084121
102.5056	204.4448	229.2757	262.4336	278.5167	346.5596	377.2083	414.6773	496.5361	558.74	635.3651	730.5399	761.619	782.3049	845.6546	867.2374	876.2805	919.9156	931.3968	979.4487	997.3896	1007.3881	1042.2827	1055.0351	1065.6574	1082.6028	1088.5283	1111.2758	1135.8638	1148.4091	1171.2316	1189.9849	1229.2124	1258.2565	1268.872	1312.2472	1325.7528	1362.9137	1371.014	1393.9646	1414.8226	1464.2324	1493.0588	1496.5044	1501.4297	1503.0505	1509.23	2992.9398	3022.8723	3032.1138	3069.1486	3094.7634	3108.925	3111.3022	3117.5231	3127.0652	3137.5479	3195.545	3195.9271	3214.6585
CC1C2(CC2)CN2CC12	C[C@H]1C2(CC2)CN2C[C@@H]12	
InChI=1S/C8H13N/c1-6-7-4-9(7)5-8(6)2-3-8/h6-7H,2-5H2,1H3	InChI=1S/C8H13N/c1-6-7-4-9(7)5-8(6)2-3-8/h6-7H,2-5H2,1H3/t6-,7+,9?/m1/s1
