15
gdb 125352	2.6911	1.71526	1.05432	1.2399	68.75	-0.2603	-0.0375	0.2228	1063.8132	0.113559	-450.17464	-450.166408	-450.165464	-450.207749	29.844	
C	-0.0315970946	 1.5370687276	-0.0095146153	-0.474795
C	-0.0126493701	 0.0479413686	-0.0247788219	 0.334763
C	-0.0236957192	-0.848576374	-1.0651638323	-0.151473
N	 0.003359512	-2.124345862	-0.5772232776	-0.184801
N	 0.030910335	-2.0789109872	 0.7117052874	-0.151784
N	 0.0217780788	-0.7619811926	 1.0788391188	-0.104219
C	 0.0472402689	-0.3897481453	 2.4647025694	 0.517583
N	 0.0774690188	-1.4629485948	 3.2795161842	-0.557853
O	 0.0404074917	 0.7727500043	 2.7972160546	-0.375
H	 0.8501721718	 1.941547644	 0.4936558365	 0.158337
H	-0.0584541098	 1.9070795508	-1.0369013008	 0.129684
H	-0.9011907156	 1.9188797366	 0.5311898957	 0.158287
H	-0.0493045896	-0.6493723548	-2.1243659322	 0.130991
H	 0.0821261396	-2.3939155737	 2.894350433	 0.292653
H	 0.0988970523	-1.3002672675	 4.2703787903	 0.277626
62.8761	147.9164	182.1341	220.9486	248.3357	291.2081	334.0145	437.6074	504.5572	600.333	658.9237	680.0029	695.8189	715.2323	775.6991	849.7895	977.5233	1016.0368	1069.253	1079.1343	1134.1891	1163.9296	1191.7199	1291.4842	1356.4694	1374.3148	1424.0478	1442.7801	1473.479	1486.4713	1589.4715	1595.0391	1844.0019	3056.0054	3120.872	3136.1826	3271.8383	3598.0137	3749.0614
CC1=CN=NN1C(N)=O	Cc1cnnn1C(=O)N	
InChI=1S/C4H6N4O/c1-3-2-6-7-8(3)4(5)9/h2H,1H3,(H2,5,9)	InChI=1S/C4H6N4O/c1-3-2-6-7-8(3)4(5)9/h2H,1H3,(H2,5,9)
