15
gdb 72990	2.75906	1.56554	1.22463	1.1403	67.94	-0.2372	0.0098	0.2471	1010.1295	0.109392	-457.663045	-457.654601	-457.653657	-457.695566	32.433	
O	 0.0735839141	 1.4296072219	-0.0061293071	-0.448309
C	-0.0212660357	 0.0649496415	 0.0183682568	 0.285018
C	 0.6293946478	-0.8159716385	-1.0315114566	-0.163099
O	-0.4475798383	-1.800038345	-0.9050759481	-0.304491
C	-1.165420409	-0.9440993129	-0.0122176327	-0.075913
C	-0.3181353362	-0.8010412083	 1.249006874	 0.147338
O	 0.5141422332	-1.8443879082	 1.6550343773	-0.471993
C	-0.9085496041	-0.0440395033	 2.3179078012	 0.229788
C	-1.3754745705	 0.6721640639	 3.1656672449	-0.382148
H	-0.0971188141	 1.7582338586	 0.8871903339	 0.297831
H	 0.6188664699	-0.3706484329	-2.0304298537	 0.132987
H	 1.6119040648	-1.2386844099	-0.8018330422	 0.124658
H	-2.2476385655	-0.9267782986	-0.0612292508	 0.125462
H	 0.3888512999	-2.5438883969	 0.9974478337	 0.299163
H	-1.8124797364	 1.2598942985	 3.9353277094	 0.203708
119.4822	136.4497	242.8903	251.5452	287.8732	302.6528	362.1809	428.2359	462.3344	474.2086	533.037	589.9592	595.6596	692.9633	700.8244	710.52	788.9381	903.6933	961.2606	1001.6797	1013.8132	1034.713	1059.8195	1147.2351	1152.7271	1206.2293	1238.202	1302.9988	1386.5285	1407.1867	1449.9934	1506.0728	2226.027	3051.8049	3112.3075	3189.2825	3498.1919	3738.187	3749.9244
OC12COC1C2(O)C#C	O[C@]12CO[C@H]1[C@]2(O)C#C	
InChI=1S/C6H6O3/c1-2-5(7)4-6(5,8)3-9-4/h1,4,7-8H,3H2	InChI=1S/C6H6O3/c1-2-5(7)4-6(5,8)3-9-4/h1,4,7-8H,3H2/t4-,5+,6+/m0/s1
