20
gdb 107915	3.87862	1.13428	1.11482	1.3694	78.5	-0.242	0.0641	0.3061	1199.8091	0.171236	-403.096375	-403.087907	-403.086963	-403.129439	32.706	
C	 0.2312718297	 1.4786553255	-0.1660526691	-0.382912
C	-0.0856224249	 0.0065480267	 0.1223703842	-0.296979
C	 0.5495428645	-0.5126626124	 1.3813329546	 0.357606
C	 0.543392562	 0.114329035	 2.7720453666	-0.291791
C	 1.7929492793	-0.7492775705	 2.9960716214	-0.066531
C	 1.2992655368	-2.2158527428	 2.9720032247	 0.132589
O	 0.2256344292	-2.6209985806	 3.7879239316	-0.437499
C	 0.980194721	-1.9375620581	 1.5249714543	-0.121436
N	 2.0223698144	-0.8378614162	 1.4553111425	-0.207504
H	 1.31241067	 1.6347103226	-0.2274837265	 0.133379
H	-0.2144564771	 1.7934687654	-1.114226415	 0.111538
H	-0.1608017872	 2.1351211987	 0.6174483988	 0.116121
H	-1.1721798187	-0.1387109268	 0.1900870183	 0.10507
H	 0.2567195765	-0.6124065706	-0.7158489648	 0.105913
H	 0.7966152372	 1.1762527514	 2.7261621926	 0.104423
H	-0.3166152408	-0.0489066258	 3.4273209052	 0.107183
H	 2.6101545184	-0.4301785618	 3.6407174264	 0.075166
H	 2.150805488	-2.9050267836	 3.0425840085	 0.080773
H	 0.5766301574	-2.9081609431	 4.6366299314	 0.284911
H	 0.8666536345	-2.6556950431	 0.7205621444	 0.089979
68.9915	140.9009	188.0626	220.1458	265.7895	290.1581	324.4426	439.7852	497.2716	574.1549	627.6784	721.4195	763.8624	767.8289	803.7727	835.4535	909.9546	933.8535	974.6007	980.289	1007.5467	1022.1655	1052.2861	1059.7059	1094.3053	1127.8664	1150.1581	1172.7633	1194.3126	1227.1483	1241.8566	1274.0862	1283.0727	1316.1659	1352.0246	1363.5456	1406.5964	1417.1791	1443.0685	1470.5569	1490.1416	1497.5634	1508.1051	3018.7506	3024.2704	3038.7102	3056.0058	3057.871	3105.9537	3115.6144	3115.8206	3131.4639	3178.6709	3820.2943
CCC12CC3C(O)C1N23	CC[C@@]12C[C@H]3[C@@H](O)[C@@H]1N23	
InChI=1S/C7H11NO/c1-2-7-3-4-5(9)6(7)8(4)7/h4-6,9H,2-3H2,1H3	InChI=1S/C7H11NO/c1-2-7-3-4-5(9)6(7)8(4)7/h4-6,9H,2-3H2,1H3/t4-,5+,6-,7+,8?/m0/s1
