20
gdb 69578	3.47813	1.3037	1.18519	1.7573	85.6	-0.2214	0.0142	0.2356	1135.1083	0.172016	-365.986793	-365.978811	-365.977867	-366.018796	32.36	
C	-0.0351171132	 1.5433845378	 0.0285452077	-0.482935
C	 0.0440741409	 0.0353746398	 0.0058394368	 0.312769
C	-0.8038094802	-0.8023385006	 0.9451921256	-0.328734
C	 0.7044962962	-0.7962996571	 1.0944479966	-0.19523
C	 1.4795768213	-1.8942707241	 0.4045763957	 0.340247
C	 2.7892368133	-2.3768164849	 0.9245504297	-0.296436
N	 1.611221277	-3.2572217264	 0.9682064914	-0.363523
C	 1.166309325	-1.7467880288	-1.0476667562	-0.138127
C	 0.402551753	-0.6741194305	-1.2678655499	-0.159824
H	 0.9021413251	 1.9974215615	-0.3119907905	 0.120379
H	-0.8372475598	 1.9058361801	-0.6253252348	 0.118418
H	-0.2412241316	 1.9135395012	 1.0376689132	 0.114831
H	-1.3651898311	-0.2752847249	 1.7110193896	 0.10583
H	-1.2885245134	-1.6904606428	 0.5538605932	 0.117572
H	 1.1312378445	-0.3240627229	 1.9729520559	 0.082794
H	 3.5693312944	-2.6888201687	 0.2348284728	 0.115605
H	 3.154545579	-1.9367071541	 1.850191726	 0.108389
H	 1.2203576582	-3.2672565704	 1.9077885704	 0.231152
H	 1.5053593797	-2.4645363122	-1.7845979035	 0.103041
H	 0.0383588616	-0.3432234021	-2.2346160896	 0.093782
114.3637	207.0771	212.5932	250.3003	313.0668	354.4045	380.1505	442.9491	517.7812	599.0895	625.0484	753.7162	780.2394	788.7225	842.9761	862.0905	906.6982	930.4418	940.6039	948.5765	972.2054	975.0762	988.3272	1038.204	1059.2789	1071.8519	1096.266	1111.4087	1126.2866	1141.4962	1236.1709	1258.3534	1270.1194	1322.6319	1345.551	1361.5882	1418.1428	1430.2406	1479.499	1488.9914	1501.0367	1508.5002	1663.5769	3023.7513	3083.3022	3095.6409	3100.2287	3120.57	3163.2995	3181.4995	3183.8908	3211.4777	3216.3306	3490.5307
CC12CC1C1(CN1)C=C2	C[C@]12C[C@H]1[C@]1(CN1)C=C2	
InChI=1S/C8H11N/c1-7-2-3-8(5-9-8)6(7)4-7/h2-3,6,9H,4-5H2,1H3	InChI=1S/C8H11N/c1-7-2-3-8(5-9-8)6(7)4-7/h2-3,6,9H,4-5H2,1H3/t6-,7+,8-/m1/s1
