21
gdb 89984	2.74527	1.3787	1.23615	2.2137	78.	-0.2443	0.0585	0.3027	1136.9853	0.18234	-424.20339	-424.194507	-424.193563	-424.236953	34.123	
C	-0.3398478494	 1.4462446989	 0.0718112974	-0.403777
C	-0.1397187415	-0.0662768253	 0.0645414255	-0.037061
C	 0.9388346914	-0.5735176006	-0.9432329901	-0.305269
C	 1.9524916645	-0.6750192189	 0.2121365201	 0.409607
C	 3.1570044474	-1.6225350561	 0.3185470342	-0.372371
C	 3.9795157897	-0.3443514948	 0.5606983002	-0.070702
O	 2.8136652649	 0.4927129095	 0.3613108217	-0.332167
C	 0.7761659084	-0.6038403594	 1.2217578031	 0.093632
O	 0.9985232228	 0.1703296015	 2.3636490989	-0.435388
H	 0.6176054119	 1.9768431368	 0.071244994	 0.12729
H	-0.8970762187	 1.7661602736	-0.8149153838	 0.108855
H	-0.8970118449	 1.7600616042	 0.9595355958	 0.123832
H	-1.1077754755	-0.5704232572	-0.0059358058	 0.064782
H	 0.70818746	-1.5550505706	-1.3681215578	 0.101104
H	 1.2237109664	 0.1076686344	-1.749068446	 0.108665
H	 3.1192990751	-2.3333572619	 1.1463890357	 0.117121
H	 3.3969232072	-2.1541804368	-0.6045951451	 0.11346
H	 4.3897300875	-0.2316416408	 1.5705178633	 0.110442
H	 4.7611084753	-0.1198658324	-0.17281722	 0.110018
H	 0.4600120139	-1.6028685628	 1.542436839	 0.079903
H	 1.6608724835	 0.8251138389	 2.0973547096	 0.288024
74.0277	92.9861	203.6021	222.1204	239.7045	252.1275	326.3301	373.7196	455.7848	522.2852	570.4856	603.4226	754.4681	780.5678	809.5735	813.7857	860.2856	890.1095	916.844	945.3393	981.5145	1011.7106	1034.484	1081.7041	1131.7087	1139.0035	1162.1174	1176.6197	1182.4987	1201.0811	1216.5023	1235.5561	1260.7732	1277.0512	1304.8856	1323.2271	1354.3256	1367.6717	1412.8036	1443.9813	1464.8754	1483.6195	1497.1259	1506.2561	1527.9242	3030.3899	3035.6465	3043.3982	3051.0697	3064.1484	3072.6768	3075.7227	3103.1453	3110.4321	3114.6144	3127.6399	3722.5087
CC1CC2(CCO2)C1O	C[C@H]1C[C@]2(CCO2)[C@H]1O	
InChI=1S/C7H12O2/c1-5-4-7(6(5)8)2-3-9-7/h5-6,8H,2-4H2,1H3	InChI=1S/C7H12O2/c1-5-4-7(6(5)8)2-3-9-7/h5-6,8H,2-4H2,1H3/t5-,6-,7+/m0/s1
