25
gdb 118463	1.688	0.99662	0.74504	1.8956	85.79	-0.2582	0.0691	0.3273	1682.7686	0.226085	-426.624944	-426.612974	-426.61203	-426.662672	42.833	
C	 0.4423901728	-0.1339634135	 1.6728689116	-0.391827
C	 0.0599581822	-0.2111507397	 0.1910183737	-0.184475
C	-1.3866884737	-0.6833069185	-0.0794184118	 0.0378
C	-1.85126563	-0.2730256746	-1.49177777	-0.178102
C	-2.275204322	 1.1880234522	-1.5867216185	-0.083452
O	-2.650696767	 1.4437541466	-2.9330228194	-0.42124
C	-1.5162641805	-2.2023471306	 0.1507030032	 0.117592
C	-2.9603680635	-2.7012268677	 0.2401388405	-0.416278
O	-0.8103137347	-2.8417346013	-0.9124980209	-0.43341
H	 1.4737788107	 0.2127488674	 1.7930582572	 0.111637
H	-0.2070032704	 0.5642962555	 2.2136846875	 0.109526
H	 0.3680341788	-1.1057563269	 2.1719005991	 0.115805
H	 0.2032779795	 0.7790658665	-0.2558729706	 0.089437
H	 0.7405892495	-0.8869205031	-0.3391462455	 0.115948
H	-2.0472629681	-0.2026886743	 0.6579665268	 0.058115
H	-1.0501636612	-0.4589821818	-2.2139903707	 0.116675
H	-2.7005052447	-0.8810099633	-1.8176090854	 0.102078
H	-3.1177818812	 1.3728190758	-0.8987432765	 0.078403
H	-1.4540019854	 1.852938227	-1.2752288871	 0.084024
H	-2.8971554891	 2.3703467462	-3.0048199928	 0.282985
H	-1.0259105755	-2.4381468964	 1.1091502443	 0.061129
H	-3.5118188553	-2.512169565	-0.6847279542	 0.130001
H	-2.9790464631	-3.7818236015	 0.4254370969	 0.102253
H	-3.4896704303	-2.2174635249	 1.0678231803	 0.114519
H	-0.8677561476	-3.7926672042	-0.7796974277	 0.280858
64.2538	72.1104	83.9549	90.4623	161.8382	201.5104	229.8591	263.6704	267.4389	272.7137	278.5547	292.0027	354.9351	396.1969	495.6409	501.9016	627.7512	751.0001	781.1264	843.7198	882.7998	947.3999	988.917	1014.697	1034.7408	1038.3627	1053.926	1066.2956	1080.071	1141.0202	1166.8028	1179.4145	1211.6609	1237.0082	1259.8857	1291.5285	1305.4388	1323.1145	1335.9546	1366.9884	1386.7094	1398.5219	1409.5413	1412.5011	1419.7924	1461.7348	1486.319	1490.4932	1495.2406	1502.1108	1504.515	1506.9251	1527.181	2953.7119	2964.8338	2985.3783	2990.9046	3028.6911	3029.4675	3037.7723	3058.2241	3070.1253	3090.4024	3096.8567	3098.5332	3100.6675	3121.742	3824.7086	3829.5798
CCC(CCO)C(C)O	CC[C@@H](CCO)[C@@H](C)O	
InChI=1S/C7H16O2/c1-3-7(4-5-8)6(2)9/h6-9H,3-5H2,1-2H3	InChI=1S/C7H16O2/c1-3-7(4-5-8)6(2)9/h6-9H,3-5H2,1-2H3/t6-,7+/m1/s1
