19
gdb 7605	3.26728	1.57983	1.29703	3.4003	72.49	-0.2409	0.0353	0.2761	1021.3239	0.164208	-365.09812	-365.088823	-365.087878	-365.131734	34.176	
C	-0.149221408	 1.4614533787	 0.0073083424	-0.421538
C	 0.0867882698	-0.0318453165	-0.0104789722	 0.000932
C	 1.4225472752	-0.6255572401	-0.3265446139	-0.312003
C	 0.8687495391	-0.7579459657	 1.0875631629	 0.214188
C	 1.5305092105	 0.0190728172	 2.2099377705	-0.506159
C	 0.3187176382	-2.1297061814	 1.3916189203	 0.371203
N	 0.4240846525	-2.5534805459	 2.6867866874	-0.548384
O	-0.1837801087	-2.8357892643	 0.5321938969	-0.383355
H	 0.7384315715	 2.0216471315	 0.3140468867	 0.113411
H	-0.4203527386	 1.8098161794	-0.9953621439	 0.124234
H	-0.968209994	 1.732656592	 0.6827693904	 0.118135
H	-0.7517805962	-0.6202585733	-0.3702104635	 0.112275
H	 1.4498630387	-1.5302299967	-0.9217095569	 0.13511
H	 2.2657996914	 0.0470771495	-0.4517360013	 0.103046
H	 1.9365198121	 0.967025634	 1.8513058865	 0.124609
H	 0.827119573	 0.2590008187	 3.017453983	 0.116499
H	 2.3680620884	-0.5419320349	 2.6405398723	 0.123839
H	 0.7260652843	-1.9553273332	 3.4335827394	 0.256056
H	-0.005726039	-3.434088509	 2.9170983931	 0.257902
63.7139	142.613	158.1371	178.4393	213.4073	255.6748	300.4723	335.3029	387.5479	431.1373	461.9264	564.7763	583.5347	678.5767	737.8089	812.2056	856.9052	903.6585	940.6343	970.6456	1031.7089	1069.1096	1086.8782	1104.733	1128.6853	1137.2421	1201.2836	1230.6589	1315.4339	1365.4644	1402.3843	1413.3088	1427.3843	1474.7153	1487.3761	1496.1177	1502.7702	1517.096	1615.7959	1769.502	3018.6639	3031.8828	3074.7415	3089.4699	3104.5068	3120.1716	3129.7369	3163.8297	3229.1576	3612.3307	3749.8317
CC1CC1(C)C(N)=O	C[C@H]1C[C@]1(C)C(=O)N	
InChI=1S/C6H11NO/c1-4-3-6(4,2)5(7)8/h4H,3H2,1-2H3,(H2,7,8)	InChI=1S/C6H11NO/c1-4-3-6(4,2)5(7)8/h4H,3H2,1-2H3,(H2,7,8)/t4-,6-/m0/s1
