18
gdb 84226	2.69738	1.71305	1.36066	1.3613	78.95	-0.2177	-0.0464	0.1712	997.909	0.147081	-401.825852	-401.817915	-401.81697	-401.857839	31.328	
C	 0.0571794965	 1.7209326777	-0.1430934023	-0.511221
C	 0.1673805374	 0.2392921871	 0.030580015	 0.296389
C	 0.8222031063	-0.7986072889	-0.7793393904	-0.095466
C	 1.8253366128	-1.5476383582	 0.1324911166	 0.088406
O	 3.1237592691	-0.9953376119	 0.0048120821	-0.422101
C	 1.0504658598	-1.494653508	 1.4514281749	-0.189156
C	 0.0324340339	-0.6191415807	 1.2975023607	-0.004678
C	-1.2778759581	-1.1702194907	 0.7555894729	-0.176276
N	-0.7298796764	-0.7531837248	-0.6218056176	-0.195328
H	 0.9441294095	 2.2315543245	 0.2479256431	 0.122157
H	-0.0427229413	 1.9689827686	-1.2036949738	 0.135523
H	-0.8156530772	 2.1187267588	 0.3856791221	 0.128145
H	 1.0630390596	-0.6556053963	-1.8290378234	 0.105893
H	 1.9460394349	-2.6043308309	-0.13127749	 0.104126
H	 3.092366224	-0.1003372318	 0.3597195886	 0.280518
H	 0.925216228	-2.4116028147	 2.0213263885	 0.096139
H	-1.4772315098	-2.2337078675	 0.9105959071	 0.115081
H	-2.1867752688	-0.5787421523	 0.8942048457	 0.121849
122.3512	189.2751	211.5689	256.2171	278.4764	344.4275	362.9683	476.8783	532.9863	585.0527	630.36	731.3808	735.4221	780.579	828.0057	861.7899	873.4271	913.8433	954.1238	991.1954	1014.4779	1056.968	1074.6944	1082.4989	1111.5138	1116.7474	1204.6352	1233.4241	1251.3848	1261.2148	1278.7815	1300.4549	1400.8543	1420.8003	1434.0084	1481.4943	1491.2362	1506.4135	1579.956	3031.5293	3054.038	3055.602	3093.581	3113.8963	3118.0205	3157.9121	3165.326	3809.4799
CC12C3C(O)C=C1CN23	C[C@@]12[C@H]3[C@@H](O)[CH][C]1CN23	
InChI=1S/C7H9NO/c1-7-4-2-5(9)6(7)8(7)3-4/h2,5-6,9H,3H2,1H3	InChI=1S/C7H9NO/c1-7-4-2-5(9)6(7)8(7)3-4/h2,5-6,9H,3H2,1H3/t5-,6+,7-,8?/m0/s1
