17
gdb 60836	2.12003	1.22702	0.95771	1.7246	73.55	-0.2626	-0.0474	0.2152	1268.5058	0.133775	-455.179318	-455.169699	-455.168755	-455.214566	33.252	
C	 0.1181123675	 1.1323116176	 0.3812976031	-0.395399
C	-0.0062187334	-0.2843306257	-0.1769959838	-0.077971
C	-1.4453572783	-0.7805818606	-0.2603956381	 0.143136
O	-2.3706497891	-0.2669937254	 0.3096003756	-0.236026
N	 0.6660480282	-0.4685501145	-1.4692527217	-0.093449
C	 1.8898237353	-1.1376555445	-1.5344754932	 0.097622
N	 2.4231521388	-1.6352767038	-0.4955668843	-0.46449
C	 0.1184236771	 0.0626039251	-2.6271895976	 0.160804
O	 0.6151029851	-0.0038519776	-3.7253162256	-0.311986
H	 1.1698258429	 1.388645842	 0.5266836082	 0.136704
H	-0.3351137796	 1.8663042561	-0.2912240806	 0.129475
H	-0.4014041381	 1.1948299991	 1.339529603	 0.14823
H	 0.5071342425	-0.9852594759	 0.4953065794	 0.166293
H	-1.5720144641	-1.6952325412	-0.882902543	 0.096129
H	 2.2789235453	-1.1596441857	-2.5527678954	 0.151599
H	 3.3065178749	-2.0842622708	-0.7276392329	 0.240648
H	-0.848118685	 0.5627701658	-2.4310159229	 0.108682
49.4933	89.1921	125.8491	187.4989	215.5796	225.0611	236.6745	277.1217	288.7181	400.736	452.0361	588.7823	602.6002	726.6822	821.3869	837.3266	888.0268	935.0189	1035.5472	1056.7706	1082.3504	1102.0511	1148.2637	1160.0504	1241.0466	1325.4145	1336.301	1386.8701	1401.5856	1412.8221	1424.6275	1452.5453	1490.4203	1491.423	1714.277	1812.4154	1835.4508	2882.5914	2965.0079	3032.6712	3054.9534	3127.8826	3138.0581	3145.1608	3515.9407
CC(C=O)N(C=N)C=O	C[C@@H](C=O)N(C=N)C=O	
InChI=1S/C5H8N2O2/c1-5(2-8)7(3-6)4-9/h2-6H,1H3	InChI=1S/C5H8N2O2/c1-5(2-8)7(3-6)4-9/h2-6H,1H3/t5-/m0/s1
