18
gdb 78853	2.70113	1.859	1.50957	1.693	73.32	-0.2159	0.0708	0.2867	939.5159	0.148242	-401.885463	-401.878236	-401.877292	-401.916634	29.812	
C	 0.0694371014	 1.5419252021	 0.0139177319	-0.39282
C	 0.0321892418	 0.0186508622	-0.0348234617	 0.040569
C	 0.8326272585	-0.602252609	-1.1686838633	-0.123328
C	 1.3010970722	-1.9898100375	-0.748669555	-0.214334
C	 1.2018834688	-1.9147141676	 0.8032906988	-0.057686
C	 2.1341356483	-0.7569608914	 0.840844038	-0.163071
N	 0.701365086	-0.5708618202	 1.1429214815	-0.117007
C	 2.2496848934	-0.8016517433	-0.7187096586	 0.386164
O	 3.3403362099	-0.45547341	-1.4815967993	-0.461719
H	 1.102498945	 1.9041217073	 0.0214108111	 0.124046
H	-0.4331514209	 1.9694710698	-0.8592958377	 0.112318
H	-0.4302990591	 1.9104609546	 0.9139076738	 0.12391
H	-1.0057405144	-0.3345943665	-0.0408044981	 0.078629
H	 0.6388017437	-0.4059138148	-2.2161579854	 0.096228
H	 1.2666274191	-2.8688486606	-1.3758627313	 0.09324
H	 1.0484818588	-2.7362600643	 1.4912211537	 0.093378
H	 2.8911264676	-0.4495807726	 1.5524563826	 0.09218
H	 4.0466446798	-1.087840768	-1.3086766208	 0.289303
151.1126	215.0674	256.0359	310.2927	336.5891	378.3501	529.8024	575.0514	608.2551	714.766	731.4351	762.2675	786.0467	830.1452	860.9412	885.0844	912.6702	931.2436	938.8601	954.2503	987.7631	989.0683	1032.8607	1075.2312	1114.6816	1127.8596	1137.0319	1175.5042	1214.3242	1222.8598	1261.1643	1295.8206	1315.7392	1321.6818	1369.2586	1405.2485	1472.8269	1489.3932	1495.9272	3038.8354	3040.8824	3108.8277	3117.9361	3181.2478	3195.9569	3198.3829	3223.5231	3792.5705
CC1C2C3C4C(N14)C23O	C[C@H]1[C@@H]2[C@@H]3[C@H]4[C@H](N14)[C@]23O	
InChI=1S/C7H9NO/c1-2-3-4-5-6(8(2)5)7(3,4)9/h2-6,9H,1H3	InChI=1S/C7H9NO/c1-2-3-4-5-6(8(2)5)7(3,4)9/h2-6,9H,1H3/t2-,3+,4+,5-,6-,7-,8?/m0/s1
