14
gdb 49356	1.95584	1.59513	1.22671	3.1083	75.34	-0.2544	-0.0077	0.2467	1068.3547	0.097286	-399.460694	-399.451792	-399.450847	-399.49454	31.9	
O	 0.2390387821	 0.2151819716	-0.6063837243	-0.278802
C	 0.2461431576	 1.3693500356	-0.270321675	 0.166258
N	 1.2833211105	 1.9814098732	 0.4287013249	-0.087437
C	 2.6943117632	 1.9285571487	 0.1004555813	-0.234641
C	 3.1603303668	 1.3448506139	-1.123505377	 0.383309
C	 3.5936221707	 0.8541623328	-2.1304286633	-0.427647
C	 1.9098550493	 3.2489393814	 0.0931052889	-0.24739
C	 1.608991453	 3.918587288	-1.1399366585	 0.364404
C	 1.3428891888	 4.5077233339	-2.1530094269	-0.428348
H	-0.6074617477	 2.0593375462	-0.4050962432	 0.09909
H	 3.339322454	 1.7682564902	 0.9622701456	 0.135968
H	 3.958806645	 0.411464084	-3.0242861446	 0.209552
H	 2.0700905878	 3.9044358563	 0.9471066015	 0.133592
H	 1.1140277087	 5.0180343041	-3.0562522694	 0.212091
89.2303	100.6953	106.7514	188.3335	227.3677	257.333	306.1492	413.7907	481.2558	597.1286	612.6706	632.4225	641.4877	655.4071	674.7685	678.0452	775.0744	878.7207	922.3491	1030.7154	1045.271	1065.8319	1116.6732	1145.4306	1352.408	1362.9876	1398.9523	1420.4656	1814.2328	2241.4761	2247.2118	2966.2955	3122.7189	3130.1662	3500.9079	3502.9003
O=CN1C(C#C)C1C#C	O=CN1[C@@H](C#C)[C@H]1C#C	
InChI=1S/C7H5NO/c1-3-6-7(4-2)8(6)5-9/h1-2,5-7H	InChI=1S/C7H5NO/c1-3-6-7(4-2)8(6)5-9/h1-2,5-7H/t6-,7+,8?
