21
gdb 96301	2.17193	1.5384	1.00854	2.9121	80.35	-0.2148	-0.0162	0.1986	1227.1608	0.184066	-420.404382	-420.395481	-420.394537	-420.43813	33.821	
C	 0.2847184668	 1.3399033548	-0.3098594952	-0.321001
N	-0.015550965	-0.0749254302	-0.1319070977	-0.070185
C	-1.4090217786	-0.4009386099	-0.447049476	-0.152926
C	-1.5585453361	-1.7937410272	-1.0799297159	-0.149207
N	-1.166532151	-2.945210439	-0.278773218	-0.287082
C	 0.2183193725	-2.9664173595	 0.1978214955	-0.234765
C	 0.4107751455	-2.0499928543	 1.4018994364	 0.338636
O	 0.5277911432	-2.488128622	 2.5245203021	-0.306471
C	 0.4023360115	-0.5341625092	 1.181679441	-0.243629
H	 1.3532447516	 1.5132503472	-0.1464395753	 0.120357
H	 0.0480761247	 1.6442125889	-1.3335302857	 0.120899
H	-0.2728095782	 1.9993959685	 0.3814736207	 0.097249
H	-2.0573831376	-0.3156445458	 0.4459269282	 0.080623
H	-1.7792737007	 0.3340009471	-1.1703621823	 0.099224
H	-2.6059724594	-1.9360086597	-1.3720625138	 0.100089
H	-0.9604892295	-1.8099944865	-1.9997768005	 0.11054
H	-1.8056671566	-3.0913823809	 0.4957679984	 0.223951
H	 0.4814196082	-3.9807544179	 0.5122564327	 0.116656
H	 0.8693691754	-2.6617161958	-0.6281208873	 0.119756
H	 1.4405397025	-0.215888727	 1.3457074998	 0.130121
H	-0.1852670391	-0.0898580917	 2.0075461731	 0.107165
60.2355	113.9565	165.3485	233.3593	287.2459	327.3128	332.7743	365.7061	389.5271	483.2394	508.143	534.4318	618.8636	716.8036	797.2277	810.1764	878.2839	924.7011	972.8215	992.5235	1025.5307	1082.5792	1089.0609	1141.16	1145.7699	1177.5512	1203.9032	1228.2821	1264.2534	1288.1445	1331.9368	1336.8709	1354.7084	1369.5284	1393.699	1400.0057	1447.9623	1456.5884	1462.6861	1472.3218	1489.3654	1493.2874	1502.0651	1507.496	1799.9108	2922.0769	2927.423	2937.4598	3022.1893	3037.7534	3045.6724	3059.2514	3063.3519	3069.1904	3104.2939	3105.7669	3523.7527
CN1CCNCC(=O)C1	CN1CCNCC(=O)C1	
InChI=1S/C6H12N2O/c1-8-3-2-7-4-6(9)5-8/h7H,2-5H2,1H3	InChI=1S/C6H12N2O/c1-8-3-2-7-4-6(9)5-8/h7H,2-5H2,1H3
