18
gdb 26234	3.24297	1.06878	0.95864	2.3786	76.64	-0.1858	0.0306	0.2164	1292.5305	0.147069	-439.113164	-439.103827	-439.102883	-439.14757	34.443	
C	-0.1201799091	 1.5726550972	 0.3261745691	-0.397218
C	-0.0669975251	 0.0702055002	 0.0203489471	 0.00613
O	 0.7216276263	-0.6175931136	 0.9986585988	-0.429839
C	-1.4207976272	-0.5357943084	-0.1323423503	 0.35741
C	-2.0591726547	-1.2265936604	-1.1069921104	-0.26504
C	-3.3645589936	-1.5663610024	-0.6098164975	-0.259128
C	-3.4204910837	-1.0505457316	 0.6502780126	 0.362016
N	-4.417498498	-0.9711501879	 1.6130850962	-0.594999
O	-2.2635654288	-0.4190030362	 0.9634583936	-0.227847
H	 0.8940321618	 1.9603305012	 0.4530122594	 0.119534
H	-0.6132686199	 2.1192974174	-0.4835914119	 0.118693
H	-0.6831308587	 1.7567954443	 1.2470583668	 0.118288
H	 0.4606183719	-0.0880133765	-0.9259889968	 0.099143
H	 0.2223925903	-0.6019751196	 1.8225749564	 0.279209
H	-1.6497363351	-1.4773287613	-2.0736786443	 0.10675
H	-4.1409142093	-2.1162534849	-1.1167379179	 0.096786
H	-5.1215442668	-1.6878047691	 1.5028065286	 0.256333
H	-4.05025785	-0.9755497484	 2.5564721405	 0.253781
49.3236	114.8755	154.1421	170.0661	251.6036	258.635	281.7381	342.0954	406.3607	424.0166	516.0369	633.4625	650.0785	695.9216	702.9528	740.5273	763.6135	832.4768	891.9217	962.0256	988.6991	1011.2211	1038.0554	1076.1206	1087.8345	1108.1369	1223.6182	1246.7532	1283.4154	1299.1066	1344.1001	1397.8166	1411.2354	1443.0638	1489.1608	1494.2878	1607.248	1644.5194	1674.4546	3037.7706	3063.8925	3111.4709	3122.6999	3248.5001	3264.5379	3543.9396	3644.7447	3807.43
CC(O)C1=CC=C(N)O1	C[C@@H](O)c1ccc(N)o1	
InChI=1S/C6H9NO2/c1-4(8)5-2-3-6(7)9-5/h2-4,8H,7H2,1H3	InChI=1S/C6H9NO2/c1-4(8)5-2-3-6(7)9-5/h2-4,8H,7H2,1H3/t4-/m1/s1
