19
gdb 17378	3.64341	1.57427	1.55542	0.1552	70.37	-0.2282	0.0708	0.299	938.4	0.165598	-365.010681	-365.002634	-365.00169	-365.042968	30.765	
C	 0.3374044848	 0.2580336357	-1.4906073637	-0.418561
C	 0.3122686634	-0.5483134875	-0.1919717021	 0.112763
O	 0.8029349917	 0.2249132951	 0.9058324078	-0.431611
C	-1.0645126865	-1.1635107771	 0.0592588991	 0.072735
C	-1.4051936362	-1.8931423125	 1.3868868136	-0.295273
C	-2.6364906269	-0.9878153874	 1.4453586994	-0.012107
C	-2.2329126068	 0.4256354121	 1.4872638316	-0.246577
N	-2.2701477199	-0.2524142117	 0.1656300765	-0.165482
H	 1.3302729267	 0.6873025113	-1.651790025	 0.120305
H	 0.0874737717	-0.3696519746	-2.3510892892	 0.123272
H	-0.3999702011	 1.0680780883	-1.450865572	 0.132785
H	 1.0152729592	-1.3890841823	-0.2773628943	 0.087378
H	 0.5249490916	 1.1357419278	 0.7675113639	 0.284939
H	-1.2699425559	-1.8248934326	-0.7898516832	 0.083079
H	-1.6231745364	-2.953770426	 1.2522991626	 0.105318
H	-0.6986563782	-1.7728266647	 2.2119868639	 0.1172
H	-3.6534793168	-1.316774919	 1.6317434074	 0.092963
H	-3.0155862936	 1.1732486022	 1.5733791719	 0.116048
H	-1.2851686109	 0.690063003	 1.9416448019	 0.120825
65.3393	182.5322	193.708	247.1048	287.3697	308.2069	356.595	435.0803	471.9217	640.325	692.4603	760.8021	765.2487	807.9671	897.5536	933.3352	937.1963	980.7358	1020.946	1042.3812	1061.4417	1073.5333	1106.3865	1125.7311	1133.5917	1151.6413	1186.139	1230.8432	1265.9586	1284.1417	1298.564	1357.6341	1367.8396	1380.5967	1404.0485	1422.6679	1482.2697	1492.6793	1496.3031	1501.5565	3009.5977	3034.0927	3041.8493	3067.8227	3105.7662	3118.4325	3123.7615	3129.0089	3166.0533	3222.526	3820.026
CC(O)C1CC2CN12	C[C@@H](O)[C@H]1C[C@H]2CN12	
InChI=1S/C6H11NO/c1-4(8)6-2-5-3-7(5)6/h4-6,8H,2-3H2,1H3	InChI=1S/C6H11NO/c1-4(8)6-2-5-3-7(5)6/h4-6,8H,2-3H2,1H3/t4-,5+,6-,7?/m1/s1
