17
gdb 83719	2.63456	1.75268	1.25288	4.3504	67.34	-0.2328	0.011	0.2438	1001.6698	0.139037	-455.155482	-455.14799	-455.147046	-455.187542	28.945	
N	-0.0778156553	 1.5261384998	 0.0565093069	-0.524231
C	-0.0283670337	 0.0763023669	-0.0141252292	-0.108157
C	-1.4001300427	-0.5814061927	-0.0774472531	-0.025366
N	-2.3140088421	 0.0573727875	-1.0597844784	-0.32184
C	-2.4480003813	-1.2121011671	-1.8215373206	-0.184235
C	-1.2356006407	-1.775695581	-1.0540965157	 0.08899
O	 0.0039662943	-1.5808286473	-1.7396700208	-0.230034
C	 0.6734476784	-0.4881968995	-1.2655732116	 0.409842
O	 1.6672058921	-0.0707750607	-1.7836428821	-0.339216
H	 0.8471461997	 1.8890022138	-0.1624639967	 0.242793
H	-0.6929182356	 1.8415652132	-0.6914138796	 0.238267
H	 0.5256253794	-0.3088620074	 0.8534155706	 0.110029
H	-1.837905527	-0.8069314737	 0.898050503	 0.081634
H	-3.1726767352	 0.4305005059	-0.6747318893	 0.231585
H	-3.3640896712	-1.7782176596	-1.6100191568	 0.103871
H	-2.3254982922	-1.1098596238	-2.9037257421	 0.12541
H	-1.279439087	-2.8027914344	-0.6933016645	 0.100658
94.9799	144.4618	238.7688	259.6425	325.3776	383.5841	480.2685	502.6794	617.9192	637.9154	701.874	741.9065	817.6445	845.9472	894.2433	940.9739	958.8476	979.2541	1004.6364	1039.1497	1082.7149	1103.3859	1140.0514	1154.8062	1160.2201	1215.5077	1232.0829	1266.672	1285.4216	1327.874	1357.6139	1368.7135	1377.2284	1416.8724	1503.8288	1650.916	1881.6307	3014.8577	3020.4825	3074.8494	3087.9246	3119.2659	3471.0122	3548.3155	3557.9149
NC1C2NCC2OC1=O	N[C@H]1[C@H]2NC[C@H]2OC1=O	
InChI=1S/C5H8N2O2/c6-3-4-2(1-7-4)9-5(3)8/h2-4,7H,1,6H2	InChI=1S/C5H8N2O2/c6-3-4-2(1-7-4)9-5(3)8/h2-4,7H,1,6H2/t2-,3+,4+/m1/s1
