15
gdb 25782	4.30171	1.09286	0.87619	4.857	70.98	-0.2486	-0.0413	0.2073	1267.8181	0.112434	-454.016034	-454.007337	-454.006393	-454.050017	30.67	
C	-0.0296527636	 1.4910529107	-0.0271583375	-0.491564
C	-0.03629247	 0.0000899869	-0.0352882906	 0.249681
C	-0.065632295	-0.8633517609	-1.0843167312	-0.119854
O	-0.0592832969	-2.1368898916	-0.595494782	-0.186067
C	-0.0256437862	-1.9786707653	 0.7583628694	 0.316331
N	-0.0109788242	-0.7413952628	 1.1381748242	-0.318176
C	-0.0101490956	-3.2034720067	 1.613783447	 0.309559
N	-0.0329365583	-4.3685977955	 0.9056978973	-0.534544
O	 0.0199308497	-3.1401292837	 2.8237275025	-0.336562
H	 0.8654761438	 1.8711370739	 0.4752743139	 0.147376
H	-0.0525220403	 1.8913232512	-1.0437903398	 0.125306
H	-0.896151998	 1.8787256412	 0.5178664804	 0.147374
H	-0.0911255569	-0.7567092046	-2.1554041995	 0.150422
H	-0.0574074253	-4.3825286425	-0.0984826616	 0.272262
H	-0.0240551631	-5.2333259504	 1.4193144573	 0.268458
58.6272	127.4044	133.8836	158.6275	172.8109	303.7654	327.4551	402.7253	506.1764	545.8184	635.6451	649.7344	678.3661	715.2019	765.7025	803.1035	961.0064	999.4039	1025.1139	1067.8933	1088.6847	1135.979	1177.9518	1272.7343	1321.205	1370.3476	1418.7493	1475.45	1489.8982	1582.8049	1613.6651	1633.7183	1806.8837	3043.1378	3102.5559	3125.7282	3289.505	3613.0557	3752.2636
CC1=COC(=N1)C(N)=O	Cc1coc(n1)C(=O)N	
InChI=1S/C5H6N2O2/c1-3-2-9-5(7-3)4(6)8/h2H,1H3,(H2,6,8)	InChI=1S/C5H6N2O2/c1-3-2-9-5(7-3)4(6)8/h2H,1H3,(H2,6,8)
