19
gdb 99578	2.31946	1.11999	0.80914	1.8944	78.49	-0.2635	-0.0405	0.2229	1421.774	0.155481	-423.004692	-422.994423	-422.993479	-423.040245	36.995	
C	-0.0591398782	 1.602142497	 0.0408323145	-0.39555
C	-0.0235195841	 0.0746281723	-0.0163598608	-0.176864
C	 0.7371082009	-0.4725240957	-1.2471130738	-0.183769
C	 2.1501232729	-0.1009225512	-1.2211625514	 0.325679
C	 3.3183272292	 0.181169527	-1.1691086111	-0.468645
C	 0.5762728322	-2.022269531	-1.3375326213	 0.030494
O	-0.774500184	-2.3818080561	-1.3446943309	-0.428042
C	 1.2609854418	-2.5745421276	-2.5757586952	 0.132215
O	 0.6430842876	-3.2160374828	-3.3927963602	-0.267001
H	 0.9499375428	 2.0230105599	 0.0817661676	 0.12918
H	-0.5614896251	 2.0198719043	-0.8388131433	 0.116079
H	-0.6039629046	 1.9421616269	 0.9265120806	 0.11748
H	 0.4488107315	-0.3258433755	 0.8888407759	 0.102969
H	-1.0378841864	-0.3305810268	-0.057187668	 0.129902
H	 0.2713224079	-0.0513599744	-2.1493323553	 0.112482
H	 4.3469731035	 0.4438825712	-1.135729527	 0.201998
H	 1.0920551299	-2.455714061	-0.4622443427	 0.103864
H	-0.9026252997	-2.8870211038	-2.1649406156	 0.295664
H	 2.3382721419	-2.3587799126	-2.6892401119	 0.121863
61.8235	92.8502	114.4668	141.2828	179.0832	216.0851	264.4032	320.9347	330.4795	362.2166	438.9919	498.813	507.0953	554.5484	637.6939	652.5423	763.5195	777.6709	837.1066	880.0241	956.3473	995.9056	1030.1883	1071.3674	1121.8793	1122.9867	1161.3972	1249.1418	1269.8441	1285.3559	1341.4583	1353.7141	1366.5498	1391.5815	1412.762	1440.6386	1491.1629	1497.8404	1508.112	1806.2331	2228.4519	2953.9087	2988.1298	3010.5708	3035.0748	3040.5615	3094.0087	3106.2101	3118.4204	3501.7263	3665.1821
CCC(C#C)C(O)C=O	CC[C@@H](C#C)[C@@H](O)C=O	
InChI=1S/C7H10O2/c1-3-6(4-2)7(9)5-8/h1,5-7,9H,4H2,2H3	InChI=1S/C7H10O2/c1-3-6(4-2)7(9)5-8/h1,5-7,9H,4H2,2H3/t6-,7+/m1/s1
