14
gdb 131656	4.57182	0.93174	0.78313	2.2498	73.79	-0.2596	-0.0377	0.2218	1366.5381	0.09976	-436.638922	-436.630672	-436.629728	-436.672372	29.835	
O	 0.216728425	 1.138145019	-0.6744119859	-0.398537
C	-0.0329935009	 0.1085594183	 0.2586888098	-0.182923
C	-1.384312986	-0.5097498366	 0.0617405678	 0.39287
C	-2.2515371834	-0.5116083239	-0.9823084952	-0.42402
C	-3.3519358652	-1.2861024826	-0.5020948333	 0.236228
N	-3.1480370561	-1.7077368193	 0.7345335986	-0.203049
O	-1.9024189415	-1.2089213507	 1.0877603311	-0.202452
C	-4.5471399127	-1.6087737986	-1.1937421913	 0.255919
C	-5.5468252452	-1.8615128624	-1.8119021884	-0.382733
H	-0.4162135503	 1.8458441184	-0.5117471248	 0.292841
H	 0.7479714214	-0.6433339989	 0.0969411185	 0.148459
H	 0.0595001051	 0.4444411014	 1.3022384739	 0.125928
H	-2.1338603506	-0.0527956544	-1.9481719663	 0.139419
H	-6.4347135496	-2.0932065095	-2.3468899545	 0.20205
66.7906	113.6662	131.9333	209.8195	260.5262	344.7798	426.5725	471.2558	522.3355	579.2613	627.8284	641.2931	671.7823	726.1741	743.582	835.9246	955.9192	985.4136	1016.1777	1028.3697	1093.5312	1138.1695	1203.1092	1253.6986	1379.9886	1408.5228	1436.3508	1473.2101	1492.506	1629.2046	2247.0739	3001.5627	3064.0153	3296.6516	3502.5198	3810.0956
OCC1=CC(=NO1)C#C	OCc1cc(no1)C#C	
InChI=1S/C6H5NO2/c1-2-5-3-6(4-8)9-7-5/h1,3,8H,4H2	InChI=1S/C6H5NO2/c1-2-5-3-6(4-8)9-7-5/h1,3,8H,4H2
