18
gdb 72586	2.21464	1.66949	1.4785	1.9465	73.4	-0.2607	0.0178	0.2786	1016.1761	0.146332	-439.079603	-439.070872	-439.069927	-439.112654	33.069	
C	-0.3758225648	 1.3868175531	 0.1385160345	-0.477546
C	 0.114399811	-0.0200897133	-0.0263852448	 0.363783
C	 1.1832815669	-0.4243196818	-1.0629280913	-0.274267
C	 1.8985347583	-1.2997236024	 0.0132248349	-0.281138
C	 0.8232840145	-0.9202297439	 1.0661589728	 0.253423
O	 1.2887943298	-0.5499305315	 2.3159318675	-0.467555
C	-0.4470614154	-1.7284703236	 0.9853575677	 0.348595
N	-0.9063415184	-2.6651475011	 1.6846347217	-0.56183
O	-0.9929532471	-1.0071464097	-0.048930325	-0.301142
H	 0.4721819054	 2.0670703228	 0.261305865	 0.132603
H	-0.9474459044	 1.7061617427	-0.7396842491	 0.133909
H	-1.0187512277	 1.4745262367	 1.0191044104	 0.130308
H	 0.7743548913	-0.9543600075	-1.9245515185	 0.117707
H	 1.7890837698	 0.4138394635	-1.4148406531	 0.110756
H	 2.0162131652	-2.3649385258	-0.1937104093	 0.118812
H	 2.8638959326	-0.8881714322	 0.3150716841	 0.123708
H	 0.6589687821	-0.8685349561	 2.9734374364	 0.299539
H	-1.849709499	-2.9291531699	 1.3954767462	 0.230334
100.1856	164.8249	170.6825	182.8179	210.73	305.1746	326.9618	372.5899	419.9061	549.2749	591.7579	613.3867	704.0133	747.2411	749.2928	830.4519	868.4767	873.253	914.2761	946.2023	980.8789	1010.7627	1064.4173	1087.7733	1151.4574	1181.2726	1214.3307	1224.7132	1246.4913	1269.551	1321.228	1360.5976	1384.7808	1415.6227	1464.8862	1479.2679	1484.2346	1487.1306	1816.2042	3037.3028	3071.5577	3077.7841	3106.6071	3118.4764	3123.7787	3139.9098	3476.4502	3793.3195
CC12CCC1(O)C(=N)O2	C[C@@]12CC[C@]1(O)[C]([NH])O2	
InChI=1S/C6H9NO2/c1-5-2-3-6(5,8)4(7)9-5/h7-8H,2-3H2,1H3	InChI=1S/C6H9NO2/c1-5-2-3-6(5,8)4(7)9-5/h7-8H,2-3H2,1H3/t5-,6+/m1/s1
