18
gdb 107804	2.61914	1.63704	1.31416	1.5689	70.36	-0.25	0.0415	0.2916	1010.6876	0.148116	-439.017241	-439.009155	-439.008211	-439.049856	31.187	
O	-0.0265687425	 1.391807427	-0.3054484138	-0.418076
C	 0.0192337943	-0.0191613145	-0.0815774503	-0.212155
C	-1.3782218359	-0.5672165635	 0.0009288503	 0.276681
C	-2.2696054292	-0.4240342117	 1.2540559014	-0.295975
C	-2.8889608981	-1.7178012791	 0.7599213629	-0.031029
C	-2.9552377628	-1.6802762735	-0.7298102742	-0.073413
C	-2.3336324992	-0.3888861544	-1.2011827753	 0.115273
O	-3.1574904285	 0.7466552602	-1.2796580938	-0.441964
N	-1.6743195192	-2.1036020077	-0.0386872929	-0.20744
H	-0.3390761987	 1.8058564272	 0.5057390706	 0.291988
H	 0.5365923581	-0.4475376472	-0.9464522285	 0.12287
H	 0.6066590647	-0.2695762859	 0.8134672631	 0.099853
H	-1.694895706	-0.5872034981	 2.1705983526	 0.102795
H	-2.8991969957	 0.4655003213	 1.3409693218	 0.110796
H	-3.4349214733	-2.4593304299	 1.331917611	 0.098001
H	-3.5393664022	-2.3900857265	-1.3034728425	 0.096357
H	-1.7809306212	-0.5597164941	-2.1357809691	 0.078892
H	-2.5851327846	 1.4896542605	-1.5029643831	 0.286545
84.2378	117.9897	229.8221	256.2983	311.6417	327.919	369.1996	395.1256	495.3709	592.2751	694.1112	729.0411	785.1416	815.6308	828.2113	903.5471	924.2424	963.4121	1010.8649	1018.044	1037.7013	1041.912	1053.8125	1099.47	1110.1176	1142.0434	1162.1258	1193.9926	1246.2556	1265.0559	1279.6731	1337.3928	1354.8311	1376.5363	1383.8868	1409.1271	1439.4663	1485.1998	1503.1002	3003.5665	3009.5988	3051.3207	3078.5478	3109.0278	3179.4696	3192.7943	3802.0759	3815.2354
OCC12CC3C(C1O)N23	OC[C@@]12C[C@H]3[C@@H]([C@H]1O)N23	
InChI=1S/C6H9NO2/c8-2-6-1-3-4(5(6)9)7(3)6/h3-5,8-9H,1-2H2	InChI=1S/C6H9NO2/c8-2-6-1-3-4(5(6)9)7(3)6/h3-5,8-9H,1-2H2/t3-,4-,5+,6-,7?/m0/s1
