19
gdb 12225	3.68682	1.4264	1.12583	4.3808	73.81	-0.2374	0.0273	0.2647	1091.3423	0.16492	-365.082868	-365.074082	-365.073138	-365.116907	31.324	
C	-0.5372043879	 1.4395435162	-0.0618743757	-0.407541
C	 0.0856064353	 0.0514416897	-0.023254187	-0.011141
C	 1.4090248794	-0.1388574651	-0.8248988842	-0.181047
N	 2.0701827845	-0.5206662173	 0.4215840368	-0.040381
C	 3.2492208479	-1.1563683899	 0.5959004252	 0.123988
O	 4.0625081615	-1.3566005377	-0.2844761126	-0.333509
C	 0.8715286767	-0.3896885692	 1.2680030229	 0.030828
C	 0.9988111687	 0.583795141	 2.4326074218	-0.398149
H	 0.1929604963	 2.2226323236	 0.1646009733	 0.124338
H	-0.9392973257	 1.6444845937	-1.0597113063	 0.123795
H	-1.362665801	 1.5306945939	 0.6516767544	 0.12071
H	-0.6652432503	-0.6941520166	-0.2950945139	 0.085296
H	 1.409228725	-0.9337396002	-1.5774217202	 0.123149
H	 1.8167164409	 0.7716669839	-1.2783323497	 0.116658
H	 3.4001408156	-1.472609335	 1.649415266	 0.062987
H	 0.5263490193	-1.3610300205	 1.6454132523	 0.086726
H	 1.374047359	 1.5569536215	 2.1055788375	 0.125632
H	 0.0285418994	 0.7286300486	 2.9191987946	 0.122204
H	 1.6916650452	 0.1922797996	 3.1841128149	 0.125453
39.7231	75.9188	170.5149	218.8339	232.3874	282.998	309.4601	342.8826	374.3513	486.9668	571.5131	727.298	763.3527	860.1373	890.4928	914.0815	1001.4241	1030.088	1039.9671	1043.5031	1113.0621	1144.8397	1157.852	1184.1798	1205.0187	1269.227	1283.3217	1318.7384	1365.6303	1379.1486	1400.7201	1409.5921	1417.478	1443.0136	1483.6052	1492.2425	1500.8494	1510.1621	1519.3357	1787.955	2912.5393	3011.4518	3033.9422	3035.8437	3040.3901	3070.5478	3085.0114	3099.7738	3105.6235	3110.2133	3124.3899
CC1CN(C=O)C1C	C[C@H]1CN(C=O)[C@H]1C	
InChI=1S/C6H11NO/c1-5-3-7(4-8)6(5)2/h4-6H,3H2,1-2H3	InChI=1S/C6H11NO/c1-5-3-7(4-8)6(5)2/h4-6H,3H2,1-2H3/t5-,6-/m0/s1
