14
gdb 15487	3.54121	1.96753	1.2747	1.9264	67.2	-0.2323	-0.0301	0.2023	890.8987	0.108329	-378.764074	-378.757209	-378.756265	-378.795387	25.355	
N	-0.1148597343	 1.2797861049	 0.0071050208	-0.523486
C	-0.0250861273	 0.0174788577	 0.0005260103	 0.393699
C	-1.2216632414	-0.927689278	 0.0025118499	-0.33583
C	-0.5913798429	-2.2955143131	-0.0074510528	-0.157378
C	 0.7346407111	-2.1790553588	-0.0141194908	 0.003291
N	 1.1305214177	-0.8190324108	-0.0097564993	-0.123499
C	 2.4472361367	-0.4182007563	-0.0151891424	 0.153628
O	 3.3853223378	-1.1811446059	-0.0257466058	-0.310525
H	 0.7874499883	 1.7537349346	 0.0044761787	 0.225002
H	-1.8453062397	-0.7420142648	 0.8844369676	 0.151205
H	-1.854809541	-0.7336596948	-0.8708057127	 0.151207
H	-1.1381789413	-3.2261554185	-0.0088985526	 0.121283
H	 1.5155445999	-2.9232143769	-0.021913532	 0.16106
H	 2.5580883863	 0.6793966207	-0.0121726488	 0.090342
93.8581	159.0987	234.127	262.9687	399.2794	457.5108	569.6368	571.3002	649.7463	736.2918	788.516	863.4466	881.1073	945.025	960.4962	968.9745	984.7754	1017.5447	1107.3748	1159.8229	1216.655	1255.5192	1284.8069	1317.8908	1407.9739	1442.016	1452.5557	1685.3055	1756.4667	1796.6686	2987.6787	3044.8146	3073.3369	3249.4469	3278.5178	3490.1908
N=C1CC=CN1C=O	[NH][C]1CC=CN1C=O	
InChI=1S/C5H6N2O/c6-5-2-1-3-7(5)4-8/h1,3-4,6H,2H2	InChI=1S/C5H6N2O/c6-5-2-1-3-7(5)4-8/h1,3-4,6H,2H2
