12
gdb 129084	3.14099	1.53538	1.14829	2.8476	66.6	-0.2864	-0.112	0.1744	988.5749	0.076991	-468.76683	-468.759569	-468.758625	-468.799309	26.117	
N	-0.1867726909	 1.3597778117	-0.3161307013	-0.46297
C	-0.0325967709	 0.1253862472	-0.0644009754	 0.300598
C	-1.224454252	-0.7666661986	-0.159333238	 0.051246
N	-1.6406196087	-1.6577155954	 0.6462494205	-0.048168
O	-0.9679211765	-1.8101275349	 1.8904555117	-0.245067
C	 0.3820926858	-1.8774223735	 2.0710985836	 0.408784
O	 0.8021297302	-2.2788058789	 3.1198867402	-0.284772
C	 1.3505235904	-1.4156158741	 1.0170207733	-0.087572
N	 1.2096901137	-0.487846956	 0.1607880988	-0.218349
H	 0.711968448	 1.8464984058	-0.2560297397	 0.246273
H	-1.8548038016	-0.6468549461	-1.0382180412	 0.173553
H	 2.3314875225	-1.8761255671	 1.1330877875	 0.166443
65.6168	87.6987	256.4426	299.7457	359.5324	408.9003	454.3888	528.6161	619.889	671.2886	715.2593	770.134	832.1069	887.0541	921.6723	927.5657	954.9429	982.4999	1079.3187	1221.4234	1316.065	1329.3781	1393.8531	1686.9059	1717.5897	1723.1259	1821.3809	3144.8173	3167.7967	3449.9529
N=C1C=NOC(=O)C=N1	[NH][C]1C=NOC(=O)C=N1	
InChI=1S/C4H3N3O2/c5-3-1-7-9-4(8)2-6-3/h1-2,5H	InChI=1S/C4H3N3O2/c5-3-1-7-9-4(8)2-6-3/h1-2,5H
