16
gdb 95543	3.05852	1.45652	1.14905	2.4677	65.54	-0.2541	-0.0419	0.2122	1042.7537	0.124852	-475.035566	-475.027698	-475.026754	-475.068236	29.091	
O	-0.1202123205	 1.5705228572	 0.2657732338	-0.439292
C	-0.0039879686	 0.173451623	 0.1057834587	 0.071638
C	 0.7428513259	-0.3577729678	 1.3197201283	-0.079268
O	-0.0424594157	-0.2666857917	 2.5191464633	-0.218006
C	-1.3695152649	-0.4428950417	 2.3859781324	 0.15364
N	-2.061624816	-0.6084788737	 1.3383151079	-0.301038
C	-1.3747920678	-0.5295046577	 0.0531127594	-0.080521
C	-2.3500247852	 0.1272075894	-0.9153774224	 0.167127
O	-2.0639939067	 1.0184432133	-1.6783225171	-0.267235
H	-0.6236566457	 1.8869827666	-0.4965838563	 0.302142
H	 0.5748315982	-0.08043232	-0.7959684166	 0.08212
H	 1.0290112157	-1.4051031143	 1.1668202031	 0.113637
H	 1.6381041462	 0.2381451393	 1.5038969201	 0.137178
H	-1.8465805492	-0.4324017377	 3.3639575819	 0.134134
H	-1.2383174182	-1.5545328421	-0.334076252	 0.109401
H	-3.3787124175	-0.2825147123	-0.8553925545	 0.114343
89.0207	127.8551	173.6946	228.0709	291.4273	359.0901	375.3101	500.0801	558.6015	571.7575	667.4677	736.1723	771.0414	865.7285	897.0049	940.2143	961.9987	975.4494	1019.4873	1079.081	1093.4042	1154.7893	1201.8028	1253.5148	1276.3707	1284.4686	1316.1548	1372.544	1394.8531	1406.2426	1417.735	1442.7575	1492.3121	1729.2975	1814.5809	2937.2994	2957.9384	2982.5856	3042.4277	3126.0805	3165.2897	3752.5055
OC1COC=NC1C=O	O[C@H]1COC=N[C@H]1C=O	
InChI=1S/C5H7NO3/c7-1-4-5(8)2-9-3-6-4/h1,3-5,8H,2H2	InChI=1S/C5H7NO3/c7-1-4-5(8)2-9-3-6-4/h1,3-5,8H,2H2/t4-,5-/m0/s1
