14
gdb 23736	3.3207	2.27528	1.36148	2.9467	66.32	-0.2499	-0.0251	0.2248	847.1832	0.108319	-386.762025	-386.755372	-386.754428	-386.792938	24.858	
C	-0.0299598506	 1.5325497586	 0.0207201657	-0.499182
C	-0.0067020917	 0.0298412683	-0.0276886821	 0.128503
C	-0.0372525291	-0.7086802311	-1.2053380293	-0.146814
C	-0.0122720911	-2.1031768787	-1.1600538539	-0.121757
C	 0.0432338692	-2.7196819893	 0.0808825188	-0.006019
N	 0.0737788452	-2.0360312115	 1.2335828999	-0.31414
C	 0.0488086684	-0.7301533905	 1.147521758	 0.290839
F	 0.0799128823	-0.0639944498	 2.305270603	-0.073545
H	 0.8617878435	 1.9269642721	 0.5190020509	 0.144346
H	-0.075610439	 1.9542721351	-0.9862318557	 0.124052
H	-0.8935116409	 1.8976199694	 0.5864137885	 0.144352
H	-0.0806790918	-0.1895259621	-2.1581699663	 0.108672
H	-0.0354647816	-2.6942074516	-2.0679668955	 0.103873
H	 0.0645257473	-3.8023472391	 0.168140068	 0.116819
115.5425	169.4904	278.6243	282.817	460.9209	473.7878	542.128	570.2288	595.2393	762.888	784.1298	817.6779	874.1806	959.7923	984.1477	1007.5593	1067.3621	1088.5462	1135.5823	1207.2621	1296.4231	1310.943	1333.916	1417.9691	1465.7937	1480.838	1484.5428	1506.111	1621.5343	1644.3073	3039.1181	3094.8402	3122.8436	3167.5334	3175.6815	3206.1814
CC1=CC=CN=C1F	Cc1cccnc1F	
InChI=1S/C6H6FN/c1-5-3-2-4-8-6(5)7/h2-4H,1H3	InChI=1S/C6H6FN/c1-5-3-2-4-8-6(5)7/h2-4H,1H3
