15
gdb 30527	3.48655	1.09004	0.8314	6.2348	92.35	-0.1532	-0.0363	0.1168	1306.7743	0.112977	-453.934267	-453.925916	-453.924972	-453.967677	30.595	
N	-0.040587428	 1.4432325366	 0.1630169189	-0.520559
C	 0.1027696695	 0.0757946765	 0.0051038063	 0.05192
N	-0.9172275498	-0.7488845339	-0.0102686563	-0.285724
H	-1.877190981	-0.386471324	-0.0094435539	 0.278236
C	-1.0079948781	-2.0998722252	-0.0185984588	 0.260426
C	-2.2440061721	-2.7936004321	-0.0387172643	 0.246924
O	-3.3744273634	-2.2742418702	-0.0630380352	-0.472339
C	-1.7827415958	-4.1972283768	-0.019809365	-0.299003
C	-0.4325234983	-4.1809579155	 0.0089077665	 0.010263
O	 0.0915059808	-2.9083101473	 0.0119449281	-0.210802
H	 0.6647052958	 1.9906765433	-0.3115479607	 0.270704
H	-0.9672223616	 1.8117894246	-0.0096250534	 0.263751
H	 1.1001009321	-0.3394008102	 0.0029548132	 0.162922
H	-2.4107627375	-5.0745050785	-0.0270008829	 0.112436
H	 0.3098598074	-4.9632992673	 0.0281081276	 0.130846
80.0874	96.5476	155.6306	258.1508	274.0716	311.1719	337.7499	392.1489	546.8673	584.1614	626.6283	682.3262	705.6706	731.7855	773.6284	815.4982	842.3808	876.4081	930.1801	1039.9325	1048.6843	1104.8768	1158.4082	1240.3638	1312.3606	1334.2781	1360.7756	1466.9774	1504.2062	1576.8201	1650.5435	1691.738	1732.1413	3248.2617	3250.2247	3273.3951	3399.5208	3536.7064	3639.9694
NC=[NH+]C1=C([O-])C=CO1	[NH2]=CN[C]1C(=O)C=CO1	
InChI=1S/C5H6N2O2/c6-3-7-5-4(8)1-2-9-5/h1-3,8H,(H2,6,7)	InChI=1S/C5H6N2O2/c6-3-7-5-4(8)1-2-9-5/h1-3,7H,6H2
