20
gdb 67464	2.51375	1.70546	1.629	0.8028	78.11	-0.2172	0.0896	0.3068	982.6922	0.173069	-403.106852	-403.099288	-403.098344	-403.138429	30.598	
C	-0.0818078988	 1.5131591581	 0.0277991536	-0.51022
C	 0.0723829677	 0.0232864881	-0.0233054328	 0.327328
C	 0.5882884735	-0.924305652	-1.0855466599	-0.101226
C	 1.3800893346	-1.7296559966	-0.0482939903	-0.293106
C	 0.6861762825	-0.8810337944	 1.0733728375	 0.050199
O	-0.2666003245	-1.5268674681	 1.8955647256	-0.26196
C	-1.0928031027	-2.4238846116	 1.1669506639	-0.09291
C	-1.670962181	-1.7920751127	-0.1163325867	-0.16464
N	-0.8341165208	-0.798017794	-0.796644124	-0.134294
H	 0.8678116572	 2.0024313919	 0.2710997694	 0.115778
H	-0.4344777783	 1.8922750078	-0.9351763664	 0.130039
H	-0.8105498133	 1.8040901295	 0.7936573696	 0.126367
H	 0.9084099009	-0.704232618	-2.0986224482	 0.0917
H	 1.2691339449	-2.8157447871	-0.0362512613	 0.102808
H	 2.4467508254	-1.493301254	-0.0942366843	 0.10666
H	 1.3838010199	-0.3827386282	 1.7492061903	 0.085618
H	-0.5360771195	-3.342389633	 0.9353234139	 0.094651
H	-1.9081841584	-2.7013423713	 1.8412721876	 0.107507
H	-1.9316337485	-2.580372177	-0.8310872258	 0.106557
H	-2.5992484309	-1.2645352973	 0.1316465083	 0.113144
150.9016	187.598	209.4808	273.2412	325.3613	387.0038	429.7467	495.7329	559.1012	651.0286	707.2291	731.3767	772.4956	828.2693	874.7767	903.0395	912.8655	934.3351	960.606	1009.6786	1026.7829	1062.2622	1109.6722	1120.8643	1129.097	1157.6967	1174.2652	1200.3871	1221.9394	1268.0804	1273.818	1282.5338	1298.8495	1367.8053	1378.2112	1403.372	1413.4565	1445.4369	1482.5526	1483.786	1487.4154	1494.882	1522.2391	3003.0309	3026.8325	3031.5942	3063.9846	3071.6483	3085.6129	3086.4815	3093.68	3113.013	3116.0237	3167.4647
CC12C3CC1OCCN23	C[C@@]12[C@H]3C[C@@H]1OCCN23	
InChI=1S/C7H11NO/c1-7-5-4-6(7)9-3-2-8(5)7/h5-6H,2-4H2,1H3	InChI=1S/C7H11NO/c1-7-5-4-6(7)9-3-2-8(5)7/h5-6H,2-4H2,1H3/t5-,6+,7-,8?/m1/s1
