17
gdb 91059	3.76837	1.35578	1.28218	1.8905	74.47	-0.238	-0.0117	0.2263	1036.8389	0.135486	-421.750803	-421.743455	-421.74251	-421.782703	28.723	
C	 0.1714179772	 1.5353933198	 0.011106204	-0.391625
C	 0.0286159961	 0.01904696	 0.0490128132	 0.105718
O	 0.6467713364	-0.5397772539	-1.1418972126	-0.289059
C	 1.2910011801	-1.7236471315	-0.7467988552	 0.070172
C	 2.8105092801	-2.0745573173	-0.8655007219	-0.027573
O	 3.601334787	-1.1746038144	-0.0927703108	-0.223817
C	 2.886881065	-2.206797062	 0.6148756743	-0.085869
C	 1.4941596429	-1.6204102484	 0.737232323	 0.192521
C	 0.7731550022	-0.6223670334	 1.2254892653	-0.227781
H	 1.2273924879	 1.8171101312	 0.047537008	 0.133918
H	-0.2623132969	 1.9260073351	-0.9134708394	 0.129921
H	-0.3501459639	 1.9930529053	 0.8579028676	 0.112796
H	-1.0412002976	-0.2481879647	 0.0430476018	 0.083465
H	 0.7290707936	-2.6211359992	-1.0579813229	 0.079195
H	 3.312497893	-2.6373451755	-1.6439966667	 0.107196
H	 3.4570389286	-2.8807029284	 1.240081489	 0.11731
H	 0.7717426283	-0.1889949026	 2.2176060232	 0.11351
77.3476	193.9979	231.8842	239.5584	316.2653	449.8467	480.4059	574.9502	679.6654	708.5358	743.9707	811.0026	828.7528	856.3283	862.8145	887.8111	894.0559	938.6016	981.4772	1019.6394	1030.7309	1078.4878	1109.0661	1114.2369	1140.1576	1200.9465	1218.8325	1244.1774	1259.8866	1306.5771	1336.9353	1355.1049	1379.152	1398.7172	1482.0813	1496.0875	1727.4122	2955.8429	2961.3295	3040.9067	3115.8645	3126.2328	3186.3488	3214.2228	3215.0651
CC1OC2C3OC3C2=C1	C[C@H]1O[C@H]2[C@H]3O[C@H]3[C]2[CH]1	
InChI=1S/C7H8O2/c1-3-2-4-5(8-3)7-6(4)9-7/h2-3,5-7H,1H3	InChI=1S/C7H8O2/c1-3-2-4-5(8-3)7-6(4)9-7/h2-3,5-7H,1H3/t3-,5-,6+,7-/m1/s1
