23
gdb 87145	2.6385	1.22174	1.13209	1.7435	85.51	-0.2557	0.089	0.3447	1265.8056	0.202887	-388.275702	-388.265408	-388.264464	-388.310477	38.91	
C	 0.2116898341	 1.3189375875	-0.4357790728	-0.424745
C	 0.347718605	-0.1244972312	-0.0237655394	 0.034625
O	 1.6476791417	-0.5790336481	 0.3866769397	-0.302602
C	 0.5793441762	-0.6188552919	 1.3487854589	 0.311099
C	 0.7432084949	 0.3256217967	 2.5227010913	-0.473108
C	 0.0985687361	-2.0109922836	 1.7095800859	 0.301281
C	-1.2831527789	-2.0633507565	 2.337152942	-0.470917
C	 0.5219545977	-3.1580673064	 0.8274122743	-0.309013
C	 1.1418857527	-2.9911649436	 2.1947206763	-0.303726
H	 0.694575716	 1.9983815705	 0.2684449088	 0.125185
H	 0.6671639971	 1.4728020511	-1.4199610325	 0.129372
H	-0.8466839605	 1.5913401418	-0.5133438318	 0.120629
H	-0.1509098064	-0.825998753	-0.6966770352	 0.083006
H	 1.2441681857	 1.2468033638	 2.2227770472	 0.126911
H	-0.2244282179	 0.5838836248	 2.9643413446	 0.122149
H	 1.3493308689	-0.1507284501	 3.3003219484	 0.127344
H	-2.0380011432	-1.6263714825	 1.6726046963	 0.114218
H	-1.5761385805	-3.0984154604	 2.5373769555	 0.115775
H	-1.3222794795	-1.5221122985	 3.2886548547	 0.117708
H	-0.1858461006	-3.9663839933	 0.6765724433	 0.101426
H	 1.1513703667	-2.929885754	-0.0241632501	 0.128964
H	 2.1729366017	-2.6556559042	 2.2282649428	 0.119804
H	 0.8666648433	-3.6861357692	 2.9813081919	 0.104616
61.9553	140.2599	149.3219	156.6064	205.8287	225.7392	276.9344	291.5157	305.8335	339.2109	414.7706	481.0448	488.9374	538.4635	621.6382	774.8429	795.5111	814.0883	876.1959	895.6685	939.3794	944.5201	955.2933	989.6181	1037.3429	1056.4176	1071.1801	1090.755	1101.4691	1127.7168	1138.4761	1156.3706	1197.6537	1212.1478	1309.1314	1339.7798	1357.1319	1403.9867	1413.1	1417.4946	1455.5324	1457.2177	1477.1264	1486.4355	1491.2986	1493.1718	1501.3395	1507.7788	1517.5399	3024.7044	3037.4328	3043.9836	3079.1508	3085.4641	3096.344	3100.3102	3104.7729	3127.9231	3132.6813	3136.0571	3144.7975	3211.6321	3230.8654
CC1OC1(C)C1(C)CC1	C[C@H]1O[C@]1(C)C1(C)CC1	
InChI=1S/C8H14O/c1-6-8(3,9-6)7(2)4-5-7/h6H,4-5H2,1-3H3	InChI=1S/C8H14O/c1-6-8(3,9-6)7(2)4-5-7/h6H,4-5H2,1-3H3/t6-,8+/m1/s1
