20
gdb 101355	3.40227	0.77776	0.72047	3.3036	71.91	-0.2514	0.0519	0.3033	1603.0832	0.16991	-477.374532	-477.364321	-477.363377	-477.411365	36.638	
O	 0.1530265726	 1.3334551166	 0.2894233224	-0.424253
C	 0.0089350208	-0.0672536252	 0.342892289	-0.067267
C	-1.3955306998	-0.4910397318	-0.0945668923	 0.103469
O	-1.6874774335	 0.0952672781	-1.3703649113	-0.444031
C	-1.561936044	-1.9937995185	-0.109285898	-0.070794
N	-2.085520343	-2.6212152845	 1.117544906	-0.345894
C	-2.8775905923	-2.6875125063	-0.1272898279	-0.037529
C	-4.2187935189	-1.9933403495	-0.0774000461	-0.065742
O	-5.1321947639	-2.7237641403	 0.7248529198	-0.421964
H	-0.2931191783	 1.6047807002	-0.5236506324	 0.28529
H	 0.7531108679	-0.5757403549	-0.3003996044	 0.065784
H	 0.1938080547	-0.386435907	 1.3740443774	 0.119353
H	-2.118582509	-0.0463955722	 0.5933417811	 0.108787
H	-1.1816226099	-0.3814408955	-2.0392260888	 0.282831
H	-0.7515763848	-2.5180390831	-0.6202531256	 0.080732
H	-1.6157697797	-3.5045209381	 1.2944442098	 0.237992
H	-2.901888212	-3.6499513191	-0.6363798834	 0.091991
H	-4.1064182019	-0.962717261	 0.2831053504	 0.098435
H	-4.6549802569	-1.9472741107	-1.0802979683	 0.113811
H	-4.7294139181	-2.7866653571	 1.5987637424	 0.288998
20.3889	61.0829	105.7849	129.9194	193.7818	244.7691	284.8822	309.3858	367.5299	413.5358	425.5948	497.0955	517.2684	547.6912	599.5611	818.6586	853.073	883.3608	941.8476	963.6353	995.3743	1030.6267	1067.1123	1074.7164	1078.6941	1107.9011	1141.9034	1175.8336	1195.0863	1224.532	1266.5829	1269.8816	1284.2571	1302.5849	1366.0275	1383.5575	1400.7928	1414.2607	1439.1653	1444.2767	1485.1464	1494.5109	1505.4927	2916.8553	3022.792	3073.5152	3078.7829	3083.444	3099.4151	3122.0047	3511.3627	3762.93	3787.9828	3795.5495
OCC(O)C1NC1CO	OC[C@@H](O)[C@H]1N[C@H]1CO	
InChI=1S/C5H11NO3/c7-1-3-5(6-3)4(9)2-8/h3-9H,1-2H2	InChI=1S/C5H11NO3/c7-1-3-5(6-3)4(9)2-8/h3-9H,1-2H2/t3-,4+,5-/m0/s1
