14
gdb 33632	3.2063	1.55354	1.36958	3.3129	74.96	-0.225	-0.0679	0.1571	948.7303	0.098757	-399.370082	-399.362965	-399.362021	-399.401418	28.127	
C	-0.1078526351	-1.2883376433	 0.0330524769	-0.338393
C	-0.1035955777	-0.0852421603	 0.0375430061	 0.046989
C	-0.0870436818	 1.3269610719	 0.0572316906	 0.122895
C	-0.9053168709	 2.378606864	 0.7517574958	-0.146821
C	 0.0637019428	 3.0067259424	 1.78519879	-0.178324
N	 1.3516407911	 3.1307489507	 1.0081091546	-0.22299
C	 1.105917865	 2.3818685705	 0.0233185243	 0.231385
O	 0.7701486723	 2.887249859	-1.238404304	-0.251555
C	-0.578680514	 2.3960649724	-0.8204635671	 0.019949
H	-0.1106411211	-2.3502313206	 0.0230458765	 0.191049
H	-1.9502898218	 2.2001220731	 0.9948269235	 0.113321
H	-0.1954762866	 4.0326055262	 2.0615406956	 0.141913
H	 0.1190140192	 2.4001104581	 2.7002051364	 0.125745
H	-1.3289920714	 2.4108946858	-1.6013205892	 0.144836
127.2331	147.9912	256.62	370.5406	412.3631	497.315	516.9615	537.9366	613.0456	629.0215	651.492	663.3251	715.4314	767.6238	858.5886	913.7304	933.1969	941.5567	966.499	1019.4131	1030.0665	1053.079	1079.6602	1174.3791	1185.5084	1258.6137	1292.5666	1432.066	1479.7341	1630.3848	2238.7999	3006.407	3089.7451	3152.4972	3205.6698	3500.3509
C#CC12C3CN=C1OC23	C#C[C@@]12[C@H]3C[N][C]1O[C@@H]23	
InChI=1S/C7H5NO/c1-2-7-4-3-8-6(7)9-5(4)7/h1,4-5H,3H2	InChI=1S/C7H5NO/c1-2-7-4-3-8-6(7)9-5(4)7/h1,4-5H,3H2/t4-,5+,7-/m0/s1
