21
gdb 53677	4.87722	0.42733	0.39772	0.282	98.09	-0.2362	0.0499	0.2861	2739.9691	0.178941	-349.918304	-349.906338	-349.905394	-349.959929	39.2	
C	 0.0784839208	 1.5151914535	-0.1379479064	-0.497475
C	 0.0573613612	 0.0628455289	-0.0340337923	 0.123798
C	 0.0492330424	-1.1381621646	 0.052872517	 0.007168
C	 0.0042913282	-2.5925021481	 0.1544260951	-0.354806
C	-1.4241947271	-3.1608465986	 0.0462332784	-0.159134
C	-1.4420682021	-4.6979793563	 0.1566732533	-0.354805
C	-2.7835538844	-5.261870992	 0.0572736462	 0.007163
C	-3.9017729727	-5.700475213	-0.0278781154	 0.123803
C	-5.249960238	-6.2413868606	-0.129657539	-0.497475
H	 0.6761563	 1.8461270184	-0.9947102101	 0.145274
H	-0.9316850505	 1.9204228571	-0.2649146178	 0.145915
H	 0.5069136112	 1.9741117015	 0.7601688259	 0.145282
H	 0.6313297589	-3.0372927837	-0.6307854148	 0.123389
H	 0.4491189782	-2.9102694147	 1.1076969168	 0.123389
H	-2.0499707551	-2.7301299602	 0.8340530406	 0.117632
H	-1.8674613705	-2.8573599118	-0.9072774783	 0.117633
H	-0.8026987753	-5.1248241392	-0.6285545552	 0.123389
H	-0.9849128318	-4.99779542	 1.1099264726	 0.123389
H	-5.3425331358	-6.9272439313	-0.9792477154	 0.145279
H	-5.5275663467	-6.7959061496	 0.7737891297	 0.145277
H	-5.989676141	-5.4447584158	-0.267414961	 0.145915
14.6367	14.9451	47.9927	71.3676	83.789	116.773	215.2373	221.6961	247.4709	286.1854	317.688	382.8038	387.1089	451.8521	542.2566	736.0683	738.6444	802.3455	839.5592	1023.9283	1029.1809	1049.8534	1053.4085	1053.6012	1055.4794	1084.7759	1165.9065	1172.6719	1173.3836	1259.2769	1295.0929	1317.0223	1352.6573	1383.9168	1415.1421	1415.9418	1473.4573	1475.9267	1479.3801	1479.4234	1479.6614	1479.6918	1501.6455	2373.4274	2374.4822	3002.3716	3005.2954	3024.2355	3024.447	3030.2388	3030.6526	3055.6381	3083.8421	3083.8582	3083.9976	3084.0157	3100.7954
CC#CCCCC#CC	CC#CCCCC#CC	
InChI=1S/C9H12/c1-3-5-7-9-8-6-4-2/h7-9H2,1-2H3	InChI=1S/C9H12/c1-3-5-7-9-8-6-4-2/h7-9H2,1-2H3
