21
gdb 112702	2.91821	1.17493	0.97204	1.1688	81.97	-0.2458	0.0157	0.2615	1320.5999	0.180706	-424.240063	-424.230213	-424.229269	-424.274933	35.827	
C	-0.054571718	 1.2624125581	-0.4250206498	-0.238463
O	-0.1063964254	-0.1431212456	-0.2674403836	-0.241326
C	-1.362225569	-0.610814621	 0.1624377016	 0.179737
O	-2.3689023243	-0.4494868591	-0.8240262798	-0.276563
C	-2.69388196	-1.7159468587	-1.4076762938	 0.033013
C	-2.2475951821	-1.7705424004	-2.8708342996	-0.394871
C	-2.0178092345	-2.7341843711	-0.5141468825	 0.325134
C	-2.1988669008	-4.2060514086	-0.6975523817	-0.497582
C	-1.2804002418	-2.092710907	 0.3876781926	-0.247333
H	 0.9694538555	 1.516753194	-0.7079513652	 0.122541
H	-0.7430525343	 1.6050268488	-1.2069999135	 0.122704
H	-0.3040713018	 1.7817673429	 0.5134642314	 0.101473
H	-1.6738675913	-0.0242360775	 1.0432490301	 0.06452
H	-3.7883849083	-1.8236903717	-1.362263878	 0.081152
H	-1.1602381163	-1.6731393349	-2.9357178472	 0.130092
H	-2.5493456928	-2.7131237492	-3.3397428344	 0.110139
H	-2.7059800154	-0.9502903299	-3.4299664632	 0.125022
H	-1.8408909976	-4.5315464772	-1.6816858978	 0.135774
H	-1.6560513265	-4.7724381311	 0.0630845227	 0.130609
H	-3.2584028691	-4.4851660903	-0.6411256925	 0.129706
H	-0.6535943162	-2.5318081505	 1.1525954841	 0.104522
65.2211	112.5877	120.0153	166.1827	187.8197	225.3529	249.6311	314.1585	321.741	388.8832	453.9443	533.0845	573.6274	629.2145	789.7445	803.4637	851.8228	885.8684	969.7968	984.9041	1003.7606	1037.7866	1050.7173	1086.5679	1096.8777	1114.9059	1137.2756	1177.8057	1208.3807	1215.447	1284.3851	1353.6146	1365.0129	1372.1796	1395.8957	1400.204	1415.6355	1474.8742	1478.863	1483.9266	1486.6567	1490.8342	1496.7744	1513.4581	1732.3481	2958.9201	2985.087	2988.0426	3023.9774	3038.4065	3057.0196	3072.17	3111.4203	3118.0867	3119.5558	3125.1848	3221.6671
COC1OC(C)C(C)=C1	CO[C@H]1O[C@@H](C)C(=C1)C	
InChI=1S/C7H12O2/c1-5-4-7(8-3)9-6(5)2/h4,6-7H,1-3H3	InChI=1S/C7H12O2/c1-5-4-7(8-3)9-6(5)2/h4,6-7H,1-3H3/t6-,7-/m0/s1
