20
gdb 64340	2.39552	1.4745	1.16236	4.024	75.15	-0.2253	0.017	0.2422	1146.3248	0.170896	-440.326312	-440.317299	-440.316355	-440.359907	34.453	
C	 0.0561632269	 1.4580025745	 0.1474836127	-0.406318
C	-0.1131153904	-0.0465952141	-0.0510533026	 0.339667
C	-1.5925089532	-0.4232782182	-0.1757980531	-0.409677
C	 0.7132175981	-0.5449739411	-1.248877012	-0.201287
N	 0.8746263635	-1.9905577283	-1.2875386654	-0.293121
C	 1.4994870705	-2.4644914482	-0.0594962313	-0.308184
C	 1.0445584551	-1.8210617806	 1.2507013294	 0.38474
O	 1.3154622731	-2.292369613	 2.3225801487	-0.326479
O	 0.3726261126	-0.6493667034	 1.1897286542	-0.259675
H	 1.1102083292	 1.7092030915	 0.2950596514	 0.126096
H	-0.3126896178	 2.0033568102	-0.7268018513	 0.118514
H	-0.5016296115	 1.7927179969	 1.0259990668	 0.132743
H	-2.0524923428	 0.0970697034	-1.0216846041	 0.120443
H	-1.7213311773	-1.5002634962	-0.3233055757	 0.110477
H	-2.1273189248	-0.1470135919	 0.7361447386	 0.138293
H	 0.2428279597	-0.2031674882	-2.1764898673	 0.11143
H	 1.7135247707	-0.0946128796	-1.2073349204	 0.111045
H	-0.0243807084	-2.4413031778	-1.4181087496	 0.225457
H	 1.3700903633	-3.5437282528	 0.0450444492	 0.142097
H	 2.5835035735	-2.2891119331	-0.1163201582	 0.143738
74.5095	92.0781	213.6224	243.1393	270.7799	299.9346	327.6668	374.2901	439.2972	448.1304	480.8223	529.7016	547.981	631.3393	742.5984	808.2522	839.0383	906.771	935.9203	945.919	991.1244	1005.1909	1013.4245	1075.2034	1155.3497	1167.8296	1200.5459	1236.956	1273.0081	1293.9903	1336.2374	1356.5133	1382.8565	1402.1769	1421.144	1453.3901	1471.2969	1478.9467	1483.99	1494.9908	1495.208	1507.5585	1836.6842	3014.9086	3025.1641	3039.3186	3044.7577	3082.3769	3108.2109	3114.6264	3117.4288	3123.3038	3128.1484	3530.8358
CC1(C)CNCC(=O)O1	CC1(C)CNCC(=O)O1	
InChI=1S/C6H11NO2/c1-6(2)4-7-3-5(8)9-6/h7H,3-4H2,1-2H3	InChI=1S/C6H11NO2/c1-6(2)4-7-3-5(8)9-6/h7H,3-4H2,1-2H3
