15
gdb 74971	2.56973	1.74002	1.51375	3.0993	66.9	-0.2268	-0.0252	0.2015	921.5233	0.114819	-453.954917	-453.947858	-453.946914	-453.986205	27.754	
N	 0.007125292	 1.3252190303	 0.1605927997	-0.604375
C	 0.0174170791	-0.0302151144	 0.0295907925	 0.419134
N	-1.0452260798	-0.7773890779	 0.0240310184	-0.283348
C	-0.5562959573	-2.1637069906	-0.0665319654	-0.132976
C	 0.1289784734	-2.34233686	-1.431753847	-0.080111
O	 1.3075702417	-1.5011448839	-1.3343262858	-0.281716
C	 1.2684535143	-0.8675508963	-0.0383401889	-0.124169
C	 0.7110734923	-2.041882079	 0.8168298413	 0.438265
O	 1.1006793054	-2.5993616695	 1.7939639357	-0.310604
H	 0.7839992329	 1.8400403007	-0.2204898178	 0.26506
H	-0.8954728562	 1.7684848176	 0.0631124218	 0.263711
H	-1.2988226973	-2.9092048611	 0.2068946294	 0.09885
H	 0.4396811118	-3.3770764523	-1.6179338784	 0.115505
H	-0.5040906601	-1.9906848014	-2.2534215058	 0.113995
H	 2.2395595477	-0.4407845322	 0.1976398303	 0.102778
131.1072	205.9868	256.3701	328.6137	399.6819	405.8562	480.493	527.0173	602.3576	614.412	693.6186	735.6351	783.6567	851.9857	897.0391	905.4215	944.1765	982.8333	1029.6253	1050.9421	1089.5354	1145.2639	1172.8947	1185.6246	1231.3234	1267.0994	1280.2907	1361.3254	1445.6334	1513.2581	1608.0602	1667.3816	1909.5275	3027.0542	3076.426	3156.0271	3166.7128	3573.0122	3696.3462
NC1=NC2COC1C2=O	N[C]1[N][C@H]2CO[C@@H]1C2=O	
InChI=1S/C5H6N2O2/c6-5-4-3(8)2(7-5)1-9-4/h2,4H,1H2,(H2,6,7)	InChI=1S/C5H6N2O2/c6-5-4-3(8)2(7-5)1-9-4/h2,4H,1H2,(H2,6,7)/t2-,4+/m0/s1
