17
gdb 114419	3.19226	1.13324	1.11479	3.7095	68.39	-0.2359	0.0143	0.2502	1151.5615	0.137468	-455.120464	-455.112478	-455.111534	-455.15346	30.26	
O	 0.0115698079	 1.375305608	-0.2943125304	-0.420584
C	 0.0504241217	 0.0562969166	 0.2159556043	-0.066858
C	-1.3254108481	-0.58916886	 0.1127896855	 0.007234
N	-1.8719111131	-0.5286617243	-1.2798636837	-0.345172
C	-2.1969896229	-1.9831665465	-1.2522964104	-0.170097
C	-1.4725250158	-2.1425713609	 0.1176848998	-0.028324
N	-0.4532086794	-2.9172658614	-0.587421858	-0.323903
C	-1.0212373586	-2.8100044304	-1.8483299467	 0.449784
O	-0.6733662611	-3.1876527189	-2.9305655049	-0.350323
H	-0.2981316949	 1.2867731879	-1.2052545241	 0.288366
H	 0.7863416353	-0.5576652815	-0.3244229617	 0.084879
H	 0.3681823172	 0.1258460054	 1.2620862307	 0.106479
H	-2.0080034522	-0.1406005384	 0.8444291994	 0.082621
H	-2.6979734383	 0.0519775283	-1.3562354798	 0.23454
H	-3.2223281022	-2.2823587854	-1.464184569	 0.103558
H	-1.8920715812	-2.6223483875	 1.0012135836	 0.095657
H	 0.4873104058	-3.173821381	-0.3220401346	 0.252141
68.7685	113.4205	184.112	209.6546	314.3698	426.1696	452.2555	484.3106	499.1194	536.7369	672.9952	728.558	788.9237	815.1862	822.2007	881.0254	908.3527	959.7113	1022.3787	1049.0367	1050.1417	1087.2938	1120.3779	1139.1589	1148.1602	1184.6812	1207.5923	1240.855	1288.2217	1335.8122	1359.3101	1363.6665	1378.5007	1398.9635	1434.0626	1502.7171	1901.9958	2991.7719	3033.0963	3073.4868	3114.7841	3133.0236	3553.2544	3598.1841	3765.2733
OCC1NC2C1NC2=O	OC[C@H]1N[C@@H]2[C@H]1NC2=O	
InChI=1S/C5H8N2O2/c8-1-2-3-4(6-2)5(9)7-3/h2-4,6,8H,1H2,(H,7,9)	InChI=1S/C5H8N2O2/c8-1-2-3-4(6-2)5(9)7-3/h2-4,6,8H,1H2,(H,7,9)/t2-,3+,4-/m1/s1
