21
gdb 108493	2.71727	1.47913	1.20102	1.7516	83.06	-0.2362	0.0149	0.251	1139.6063	0.183371	-387.092812	-387.084377	-387.083433	-387.125842	32.668	
C	-0.2241853362	 1.5721681597	-0.1264605813	-0.388776
C	-0.0337379155	 0.0530231292	-0.0494700945	-0.245406
C	 0.795441824	-0.5054772569	-1.195978153	 0.43754
O	 0.1366605742	-0.2642078635	-2.4812926009	-0.33303
C	 0.2712561466	-1.6521748196	-2.8484170672	-0.083108
C	 0.8393001745	-2.0388871388	-1.4665455867	-0.139258
C	 2.3102090358	-2.483550277	-1.4052667826	-0.286801
C	 3.0580715762	-1.169486926	-1.3411439597	-0.067906
C	 2.2539168818	-0.1129265629	-1.2218545194	-0.12596
H	 0.7260051461	 2.1058376689	-0.0224044432	 0.114215
H	-0.6655472146	 1.8513597264	-1.0871995318	 0.139453
H	-0.8877780579	 1.9222844059	 0.6697318381	 0.110118
H	 0.4451253921	-0.226276569	 0.8979654184	 0.095987
H	-1.01409745	-0.437694748	-0.0702093722	 0.096778
H	-0.694982696	-2.0931065005	-3.1197345161	 0.099875
H	 0.9729033247	-1.7920259392	-3.6822342082	 0.09488
H	 0.1666408843	-2.6478845371	-0.8612236854	 0.073933
H	 2.518772159	-3.1064318313	-0.5253527123	 0.107435
H	 2.6013666808	-3.0832198628	-2.2776537036	 0.106338
H	 4.1414849163	-1.1213496402	-1.3862332636	 0.095791
H	 2.5811186937	 0.9187199427	-1.1637114947	 0.097902
86.7005	114.9801	179.0074	203.9012	251.4127	310.3988	365.7595	432.9774	483.5026	630.	666.5247	744.7392	758.6817	785.8378	830.8846	886.0516	921.183	933.0851	953.9315	975.6702	981.3634	1013.772	1024.7896	1070.2055	1082.4465	1102.5971	1134.8865	1161.9869	1165.0761	1202.1878	1206.0281	1254.8699	1299.5151	1313.7598	1326.7798	1349.6668	1372.0182	1393.8299	1406.3851	1473.5568	1484.4076	1499.1383	1508.1299	1520.5193	1676.5892	3004.3102	3015.3764	3022.1429	3040.4726	3040.7983	3052.7152	3060.6191	3101.4495	3105.7376	3120.6402	3178.3523	3208.0858
CCC12OCC1CC=C2	CC[C@]12OC[C@H]1CC=C2	
InChI=1S/C8H12O/c1-2-8-5-3-4-7(8)6-9-8/h3,5,7H,2,4,6H2,1H3	InChI=1S/C8H12O/c1-2-8-5-3-4-7(8)6-9-8/h3,5,7H,2,4,6H2,1H3/t7-,8-/m1/s1
