15
gdb 27939	2.60873	1.32169	0.88201	5.5955	74.48	-0.2027	-0.0224	0.1803	1234.8552	0.112487	-453.985324	-453.976646	-453.975702	-454.018681	31.773	
N	 0.0215984891	 1.3868805627	 0.0282238216	-0.597597
C	-0.0970220217	 0.0048249128	-0.0022406692	 0.298062
C	-1.1493260214	-0.8324801861	 0.0477291591	-0.296581
C	-0.6449631309	-2.1857143723	-0.016595987	 0.116303
C	-1.4003276173	-3.4129123111	 0.0196562065	 0.054751
O	-2.6103344486	-3.4945803485	 0.1057280376	-0.301228
C	 0.7298038196	-2.053485689	-0.1109550497	 0.330051
N	 1.7439299231	-2.9581252236	-0.2739737789	-0.5912
O	 1.0930725981	-0.7648272313	-0.1021003093	-0.20923
H	 0.5145112169	 1.7267556965	 0.8479221638	 0.24699
H	 0.4769209669	 1.7630819577	-0.7971516272	 0.248014
H	-2.1859476804	-0.5487669701	 0.1246307968	 0.136857
H	-0.7802193904	-4.3417978792	-0.0364504509	 0.02702
H	 1.5318473788	-3.9060461704	-0.0038367667	 0.270983
H	 2.6515386481	-2.640714738	 0.0338765233	 0.266805
98.6422	146.9472	161.6614	209.4477	224.4098	286.5922	317.1449	398.74	417.5603	535.344	560.4998	616.3852	646.3026	675.6201	725.8822	750.9171	859.8844	869.6283	916.3962	1021.6239	1067.3064	1150.7312	1187.8608	1211.2404	1220.8757	1354.3864	1437.2834	1493.9365	1596.7692	1652.4131	1662.5975	1717.7816	1770.7064	2809.4081	3280.988	3495.793	3562.0142	3577.2451	3686.9724
NC1=CC(C=O)=C(N)O1	Nc1cc(C=O)c(N)o1	
InChI=1S/C5H6N2O2/c6-4-1-3(2-8)5(7)9-4/h1-2H,6-7H2	InChI=1S/C5H6N2O2/c6-4-1-3(2-8)5(7)9-4/h1-2H,6-7H2
