21
gdb 119839	4.12377	0.74775	0.70064	2.0261	81.41	-0.2378	0.0215	0.2592	1650.7288	0.182234	-424.233704	-424.224081	-424.223137	-424.268859	35.556	
O	-0.1717500766	 1.4353498107	-0.1088349636	-0.417523
C	-0.0414038009	 0.0236627215	-0.1619599387	-0.066088
C	-1.4083046756	-0.5760136767	 0.1784643086	-0.30174
C	-1.4268537992	-2.0742130418	 0.1322732053	 0.319896
C	-1.6052404437	-2.908739846	 1.1623623661	-0.187232
C	-1.5329590448	-4.3588613754	 0.7474943274	-0.273362
C	-1.7030200217	-4.2808316956	-0.7911903717	 0.130272
O	-3.0590778939	-4.4694831577	-1.174265265	-0.436444
C	-1.2052082307	-2.8590364763	-1.150155454	-0.32335
H	 0.6825418784	 1.8248331186	-0.3162680416	 0.286386
H	 0.2773635379	-0.309421118	-1.1623125879	 0.089221
H	 0.7071902769	-0.3402927186	 0.5594828439	 0.089724
H	-1.7013407703	-0.2215483514	 1.1722509844	 0.109692
H	-2.133721313	-0.1644827654	-0.5364558439	 0.110593
H	-1.7584523682	-2.5937860498	 2.1895346488	 0.087042
H	-0.5658468617	-4.8024206107	 1.0244706131	 0.104923
H	-2.3096377542	-4.9942329008	 1.1867825275	 0.107344
H	-1.151360203	-5.0638915394	-1.3167534774	 0.081394
H	-3.5802393336	-3.8034490993	-0.7107220669	 0.278452
H	-1.7546284999	-2.4639537383	-2.0123571907	 0.106604
H	-0.1417515324	-2.8674533397	-1.4279799038	 0.104193
60.2834	81.0974	98.2391	139.918	255.7389	268.6704	332.6135	340.7835	366.9154	397.5661	449.7603	493.0314	689.6865	768.4505	800.262	819.4186	859.4932	878.2541	898.1187	950.0304	966.561	1007.1392	1039.8839	1057.1493	1073.7331	1086.7051	1147.287	1170.8818	1190.6646	1219.8793	1238.1832	1263.1239	1280.7846	1302.7493	1312.454	1319.2446	1339.7463	1364.1018	1432.9427	1457.561	1469.778	1480.4594	1486.0422	1528.409	1705.9133	2968.727	2995.6389	3006.5277	3009.2515	3020.9087	3062.483	3067.0266	3079.4277	3088.0439	3183.1873	3790.0868	3830.4084
OCCC1=CCC(O)C1	OCCC1=CC[C@@H](O)C1	
InChI=1S/C7H12O2/c8-4-3-6-1-2-7(9)5-6/h1,7-9H,2-5H2	InChI=1S/C7H12O2/c8-4-3-6-1-2-7(9)5-6/h1,7-9H,2-5H2/t7-/m1/s1
