20
gdb 32520	1.98295	1.43853	0.89055	0.6205	82.39	-0.1946	0.0544	0.249	1333.7568	0.171127	-403.183041	-403.173345	-403.172401	-403.218391	35.274	
C	 0.075837024	 1.5277185264	-0.0943264649	-0.365815
C	-0.0106170309	-0.0009762082	 0.0609337353	-0.302843
C	-1.4143552361	-0.5363248	 0.0315504286	 0.176242
C	-2.1415727513	-0.9714247248	 1.1176056403	-0.171738
N	-3.3795947869	-1.3657833372	 0.6779976546	-0.251278
C	-3.4636058276	-1.1931823451	-0.6796826008	-0.154456
C	-2.2640704757	-0.6800399976	-1.1146748142	 0.193483
C	-1.9298337631	-0.343655877	-2.5339052109	-0.199961
O	-2.8930201065	-0.9486256457	-3.3882624913	-0.419386
H	 1.116277949	 1.8690790487	-0.0693562883	 0.104763
H	-0.3617652079	 1.8566741386	-1.0424285387	 0.11622
H	-0.4691375641	 2.0305397777	 0.7106968664	 0.116284
H	 0.5853924473	-0.472408204	-0.7323425288	 0.097367
H	 0.4644260673	-0.2913546213	 1.0054146157	 0.095391
H	-1.8706220757	-1.0361255077	 2.1598835545	 0.111675
H	-4.1052565097	-1.7483741786	 1.2570654724	 0.257519
H	-4.3474244408	-1.4595098664	-1.2336942325	 0.129216
H	-1.9203683546	 0.7502444518	-2.6809794214	 0.091898
H	-0.9118194722	-0.6963657625	-2.7737870858	 0.090122
H	-2.7443293444	-0.6199963871	-4.2792434503	 0.285298
46.9809	57.8177	146.7216	169.4638	213.3344	228.4916	268.786	302.6456	390.7801	454.0903	487.6052	605.2753	639.2068	667.9199	716.7178	747.5057	769.6649	785.3516	914.3308	963.0144	1041.9365	1047.896	1067.2919	1082.9553	1088.2232	1122.6942	1193.4744	1219.7904	1243.7591	1259.6952	1293.2874	1324.3017	1364.7293	1402.183	1405.9845	1465.0539	1475.0155	1481.7946	1494.8337	1504.6305	1518.4026	1560.002	1621.3294	2941.9501	2953.9924	3009.4058	3032.0223	3051.928	3100.4664	3107.7613	3253.5894	3284.0304	3691.0456	3834.7458
CCC1=CNC=C1CO	CCc1c[nH]cc1CO	
InChI=1S/C7H11NO/c1-2-6-3-8-4-7(6)5-9/h3-4,8-9H,2,5H2,1H3	InChI=1S/C7H11NO/c1-2-6-3-8-4-7(6)5-9/h3-4,8-9H,2,5H2,1H3
