20
gdb 47086	2.59	1.69346	1.19132	3.0478	78.8	-0.252	0.0304	0.2824	1078.5353	0.174983	-403.191977	-403.184453	-403.183509	-403.224368	29.638	
N	 0.0874536982	 1.1974512002	 0.3974146438	-0.541655
C	 0.0574857777	-0.0145342017	 0.0433274098	 0.402895
O	 1.1469821873	-0.7184872399	-0.3878995265	-0.241845
C	 0.782552666	-2.0639158906	-0.7424572506	-0.115359
C	-0.5697752708	-2.3210700458	-0.0745485391	-0.020356
C	-0.5150503942	-2.8165329959	 1.3830918592	-0.220871
C	-1.8139442121	-2.2716828886	 1.9987525944	-0.200696
C	-1.9822504502	-0.8630843462	 1.3768662507	-0.222683
C	-1.1747225589	-0.9029646263	 0.0514465294	-0.098715
H	 1.0301893749	 1.57814624	 0.3006684914	 0.219288
H	 0.7239159032	-2.1360460763	-1.8354492284	 0.108483
H	 1.5794429369	-2.7267238125	-0.3928620058	 0.116648
H	-1.1906540388	-2.9873729622	-0.6795510162	 0.077122
H	-0.4181853963	-3.9033416295	 1.4600105247	 0.096717
H	 0.3538917867	-2.3732754243	 1.8866492721	 0.110287
H	-2.6537638523	-2.9138026604	 1.7072992869	 0.098048
H	-1.7915104689	-2.2507084016	 3.0917058752	 0.10085
H	-3.0326586192	-0.6194629944	 1.2020272213	 0.100815
H	-1.5778052346	-0.0807352764	 2.0234858664	 0.131041
H	-1.7912195944	-0.6319227776	-0.8107621989	 0.099987
64.4684	137.1132	202.0806	263.0173	327.6205	453.7193	530.5384	580.0258	612.3823	710.913	747.3723	781.271	817.6851	882.032	888.7673	901.7794	915.0593	955.7901	980.261	997.969	1020.6342	1050.4754	1054.2792	1109.7624	1142.3056	1157.7767	1197.9662	1226.0152	1232.6818	1257.5604	1275.6079	1285.3837	1311.5152	1331.4628	1334.1796	1348.2551	1370.8771	1410.5994	1491.2721	1494.2777	1511.5399	1521.6497	1769.5302	3025.8385	3028.6694	3035.5706	3059.1501	3069.8097	3073.2272	3087.3795	3090.0261	3094.074	3116.2726	3473.0188
N=C1OCC2CCCC12	[NH][C]1OC[C@H]2CCC[C@@H]12	
InChI=1S/C7H11NO/c8-7-6-3-1-2-5(6)4-9-7/h5-6,8H,1-4H2	InChI=1S/C7H11NO/c8-7-6-3-1-2-5(6)4-9-7/h5-6,8H,1-4H2/t5-,6-/m1/s1
