12
gdb 132034	2.37297	1.85139	1.03999	4.1198	62.39	-0.2315	-0.0377	0.1938	1008.6642	0.076999	-521.879336	-521.872379	-521.871435	-521.910943	26.082	
F	 0.0526969647	 0.051496349	-0.0002262774	-0.020973
C	-0.0497566205	 1.3568970833	-0.0430751429	 0.265063
C	-1.2091743677	 2.0275459804	 0.0658448771	-0.002636
F	-2.3407857819	 1.35580299	 0.2280005442	-0.036706
C	-1.2473221392	 3.4859726344	 0.0089502564	 0.204798
N	-2.3644835902	 4.1085871924	 0.114883712	-0.534461
C	 0.0911517689	 4.0569704543	-0.1734279708	-0.227887
C	 1.1842655649	 3.2922054252	-0.2705433624	 0.066404
O	 1.1543559062	 1.9308702333	-0.2096916296	-0.206044
H	-2.2132557932	 5.1173921378	 0.0545159212	 0.213663
H	 0.1986086189	 5.1339677646	-0.2314826702	 0.123862
H	 2.1958502191	 3.6489200052	-0.4052323575	 0.154915
120.006	192.1988	283.6025	302.8094	333.1783	490.2373	491.8608	521.3573	559.358	597.0115	694.1474	715.3347	807.6176	849.6672	883.9302	944.9818	1029.98	1064.6049	1169.3558	1259.2997	1288.3697	1324.5209	1415.0427	1459.4203	1639.3003	1701.1338	1762.0699	3201.4784	3244.2724	3452.562
FC1=C(F)C(=N)C=CO1	F[C@H]1C(=C([NH])C=CO1)F	
InChI=1S/C5H3F2NO/c6-4-3(8)1-2-9-5(4)7/h1-2,8H	InChI=1S/C5H4F2NO/c6-4-3(8)1-2-9-5(4)7/h1-2,5,8H/t5-/m1/s1
