17
gdb 97867	5.61602	0.47049	0.43763	1.2415	99.67	-0.2415	-0.0135	0.228	2432.3612	0.132653	-347.476672	-347.46623	-347.465286	-347.514111	36.132	
C	-0.0366563464	 1.6287606687	-0.0125428132	-0.365345
C	-0.0036211502	 0.0894150074	-0.0078855633	-0.313014
C	 0.6894337241	-0.4637620297	 1.1510926403	 0.097113
C	 1.2648371817	-0.8994609482	 2.1137599141	 0.056901
C	 1.963785377	-1.4376335811	 3.2831099896	-0.531501
C	 2.0070258661	-2.8986235441	 3.3156303927	 0.433604
C	 2.0485579008	-4.1062891689	 3.3523772077	-0.282726
C	 2.0941827289	-5.465882754	 3.392606412	 0.296822
C	 2.1353357549	-6.6720324432	 3.4295069018	-0.548428
H	 0.9765919119	 2.0394507681	-0.0211164509	 0.12835
H	-0.5648948999	 1.995199396	-0.8976378916	 0.116245
H	-0.547441535	 2.0094619917	 0.8760387319	 0.128355
H	-1.0293360706	-0.2997302638	-0.0363688794	 0.131962
H	 0.4802185456	-0.2700204868	-0.9249784699	 0.131948
H	 2.9918021153	-1.0485420526	 3.3142848251	 0.164382
H	 1.4850082308	-1.0733100852	 4.2035602737	 0.164386
H	 2.171249625	-7.7325411541	 3.4611046593	 0.190948
18.7498	43.4552	123.6047	137.6759	171.0989	178.4914	254.3959	322.3791	337.9485	381.916	467.0286	509.8129	532.9902	538.3431	591.0402	596.0066	734.251	748.1402	786.2278	928.0333	962.1294	1078.0084	1104.7605	1146.3141	1180.3011	1226.8766	1285.5434	1335.7101	1350.7896	1408.8367	1448.6367	1476.6834	1494.8225	1505.9686	2184.6906	2370.3207	2377.4453	2999.343	3022.1637	3022.5235	3045.1077	3050.1097	3118.8501	3123.8584	3506.3364
CCC#CCC#CC#C	CCC#CCC#CC#C	
InChI=1S/C9H8/c1-3-5-7-9-8-6-4-2/h1H,4,9H2,2H3	InChI=1S/C9H8/c1-3-5-7-9-8-6-4-2/h1H,4,9H2,2H3
