18
gdb 84636	2.76929	1.72584	1.1766	3.3361	77.88	-0.2364	-0.0031	0.2333	1054.7882	0.148705	-401.964933	-401.957109	-401.956165	-401.99713	30.371	
C	-0.793275824	 1.3385020265	 0.0480656612	-0.395895
C	-0.0300388142	 0.0164527065	-0.0216824476	-0.141137
C	 0.7393928746	-0.1623967264	-1.325022249	-0.059409
C	 1.7722192776	-1.0002867245	-1.4241715482	-0.093263
C	 2.180105774	-1.8001004478	-0.2427290054	-0.072245
C	 3.1604825635	-1.277673333	 0.7774698218	-0.239427
N	 1.7327237625	-1.3005815141	 1.0486256207	-0.096371
C	 1.0033172759	-0.1032130383	 1.1028811037	 0.369908
O	 1.1970009372	 0.7429525472	 1.942179199	-0.338661
H	-0.1092234633	 2.1872355103	-0.0357352428	 0.132268
H	-1.5265831664	 1.3990525332	-0.7621177117	 0.107849
H	-1.317326462	 1.4328967473	 1.0013662715	 0.132789
H	-0.7377654372	-0.8189468357	 0.0797510312	 0.114744
H	 0.423560118	 0.4392296261	-2.1734998133	 0.102206
H	 2.3080095488	-1.1416665272	-2.3580443011	 0.103352
H	 2.1250648478	-2.8837481355	-0.3541010426	 0.108999
H	 3.7662017094	-1.976493592	 1.3477801828	 0.127026
H	 3.6106549378	-0.3049093226	 0.6002016696	 0.137266
89.8535	182.6342	198.5478	271.934	286.7997	333.191	444.8177	492.6666	510.6839	574.0677	667.2198	719.3078	775.0372	810.7896	843.1354	914.8069	945.1972	964.5902	983.7622	1037.1394	1063.4604	1084.8166	1113.7085	1122.4532	1126.9349	1156.1934	1168.1685	1198.1075	1268.9074	1316.8325	1349.4092	1375.3766	1410.4668	1423.8246	1490.5022	1493.4464	1506.9784	1695.8692	1809.2172	3002.6531	3047.0578	3095.7096	3112.82	3117.846	3133.3496	3156.7269	3181.3861	3205.6972
CC1C=CC2CN2C1=O	C[C@H]1C=C[C@H]2CN2C1=O	
InChI=1S/C7H9NO/c1-5-2-3-6-4-8(6)7(5)9/h2-3,5-6H,4H2,1H3	InChI=1S/C7H9NO/c1-5-2-3-6-4-8(6)7(5)9/h2-3,5-6H,4H2,1H3/t5-,6-,8?/m0/s1
