20
gdb 10724	2.42009	1.81046	1.34152	1.5201	70.43	-0.2591	0.0669	0.326	1015.934	0.175484	-386.121876	-386.112578	-386.111634	-386.155698	34.806	
C	 1.475459571	-0.8830206299	-1.1449019934	-0.422833
C	 0.3522490567	-0.393004851	-0.2293561567	 0.066652
O	-0.9028761226	-0.9338126391	-0.6381182707	-0.433103
C	 0.6318319966	-0.6512372973	 1.2572754458	 0.321985
C	 1.8624753434	 0.0424032121	 1.8104998283	-0.13614
O	 1.8323009002	 1.4509831531	 1.6204479139	-0.418435
C	-0.5516250067	-0.7675092421	 2.191467738	-0.3136
C	 0.272698569	-1.9871899741	 1.8565456265	-0.319663
H	 1.6604677168	-1.9548555115	-0.9985228272	 0.107798
H	 1.1971525419	-0.7178218895	-2.1894519683	 0.122846
H	 2.411560845	-0.351402639	-0.9554253656	 0.133152
H	 0.244289883	 0.6894292536	-0.3573431855	 0.095029
H	-0.7724004969	-1.8681163742	-0.8307500247	 0.279838
H	 1.9728679573	-0.2144611907	 2.8762432221	 0.08303
H	 2.7716435026	-0.2983126399	 1.3042028397	 0.110466
H	 1.0224673801	 1.7760705457	 2.0289510012	 0.283567
H	-0.4628368101	-0.3519794414	 3.1907512126	 0.101281
H	-1.5380572544	-0.703276195	 1.7495320169	 0.131156
H	-0.1842014659	-2.7350222006	 1.2170696148	 0.096787
H	 0.9244408731	-2.4004796893	 2.6193807821	 0.110185
47.548	108.3433	198.6693	223.6351	262.6292	269.2478	301.3502	330.1031	369.9201	414.8788	446.5125	474.8327	600.3938	680.3882	794.1056	856.5649	912.7387	915.1313	942.8332	961.2104	1015.7663	1049.4173	1060.8803	1066.9705	1080.7295	1085.5221	1133.1465	1190.6418	1206.9347	1272.2159	1314.7104	1325.6465	1366.4709	1393.3975	1399.6206	1418.0795	1421.7642	1455.9415	1492.3567	1494.2541	1499.956	1512.7292	2974.0145	3026.3587	3055.2787	3072.6618	3102.2387	3123.7797	3127.3348	3130.0217	3206.3522	3230.5726	3803.8135	3807.8163
CC(O)C1(CO)CC1	C[C@@H](O)C1(CO)CC1	
InChI=1S/C6H12O2/c1-5(8)6(4-7)2-3-6/h5,7-8H,2-4H2,1H3	InChI=1S/C6H12O2/c1-5(8)6(4-7)2-3-6/h5,7-8H,2-4H2,1H3/t5-/m1/s1
