16
gdb 31888	3.92723	1.01452	0.84567	1.161	83.95	-0.2266	-0.0282	0.1985	1352.7952	0.123698	-400.762476	-400.753926	-400.752982	-400.796472	31.017	
C	 0.3515972374	 1.5116483497	-0.0913496659	-0.381098
C	-0.0162241343	 0.032528485	 0.1185961167	-0.300636
C	 0.5962284172	-0.5539978066	 1.3427123817	 0.390005
N	 0.0026148647	-1.0107864401	 2.4057965249	-0.294352
C	 1.0291892868	-1.4221290297	 3.2321549065	-0.207173
C	 2.2275898684	-1.1918983424	 2.6242961804	 0.182663
O	 1.9487426175	-0.6275854001	 1.3961917785	-0.205761
C	 3.5649603144	-1.4064007635	 2.9870261736	 0.234835
C	 4.7080664244	-1.5979387441	 3.3148618156	-0.407136
H	 1.4342707281	 1.6366791336	-0.1771315098	 0.136659
H	-0.1102395444	 1.8902728418	-1.0072690415	 0.12219
H	 0.0030853059	 2.1236015053	 0.7455959021	 0.131987
H	-1.0974128221	-0.0889756784	 0.2162283432	 0.138625
H	 0.3031895827	-0.5509489458	-0.7534560694	 0.127874
H	 0.8495859256	-1.8543003976	 4.203382006	 0.133238
H	 5.7159506278	-1.7668481973	 3.6036783272	 0.198079
41.8484	112.3846	140.5204	191.0982	217.683	329.3012	393.7155	467.3541	536.2347	547.0975	565.2959	683.0107	684.4986	691.8163	750.7136	797.3585	872.5786	962.8245	993.0271	1000.3883	1076.1731	1091.8056	1168.1499	1208.8548	1254.6317	1289.938	1340.8176	1364.5364	1410.8122	1472.904	1497.6828	1505.6479	1571.556	1613.7695	2233.4623	3039.6724	3046.8748	3107.0629	3120.7384	3130.1447	3270.5201	3502.7366
CCC1=NC=C(O1)C#C	CCc1ncc(o1)C#C	
InChI=1S/C7H7NO/c1-3-6-5-8-7(4-2)9-6/h1,5H,4H2,2H3	InChI=1S/C7H7NO/c1-3-6-5-8-7(4-2)9-6/h1,5H,4H2,2H3
