19
gdb 93173	2.80839	1.35493	0.95217	4.6468	78.86	-0.228	-0.0554	0.1725	1232.0126	0.160878	-419.253055	-419.244484	-419.24354	-419.286438	32.684	
C	-0.0510638191	 1.5439153774	 0.0527596445	-0.411049
C	-0.031211748	 0.0206403213	-0.0654002249	 0.066296
C	 0.7991238099	-0.4608850495	-1.2575163088	-0.209934
C	 0.8373892603	-1.9916492378	-1.3015571142	-0.330036
C	 1.3086378906	-2.5969048156	 0.0067892246	 0.351927
O	 1.8694704417	-3.665110344	 0.0696036979	-0.304864
C	 1.0105333935	-1.8265338531	 1.2958892603	 0.259837
N	 1.2353453009	-2.3307214068	 2.4480619847	-0.516244
N	 0.5212322034	-0.5504147604	 1.156526564	-0.32705
H	 0.9637318526	 1.9349116048	 0.175565439	 0.130318
H	-0.4939630302	 1.9907258269	-0.8419754762	 0.123698
H	-0.6469601982	 1.8636555047	 0.9143422246	 0.120315
H	-1.0698934248	-0.3247714804	-0.21763944	 0.077896
H	 0.3719667056	-0.0667296033	-2.1847436578	 0.108724
H	 1.8161601699	-0.0597263413	-1.1686810396	 0.115008
H	-0.1798071809	-2.3763137581	-1.4710266264	 0.135046
H	 1.4601918062	-2.3826904029	-2.1101134241	 0.131454
H	 1.6441589064	-3.2571029563	 2.3115489289	 0.234328
H	 0.2418991402	-0.1287871159	 2.0316660436	 0.24433
70.561	91.1337	210.0399	246.8907	277.0518	368.8915	371.4618	413.3298	425.6278	503.1533	559.5345	595.8048	621.0027	687.0417	738.6195	828.1994	876.5596	907.9169	954.3211	983.1328	1025.8482	1066.0164	1098.5737	1148.2876	1179.7458	1204.9469	1213.4506	1261.4109	1335.0876	1349.0407	1374.1614	1382.177	1410.5421	1439.7075	1451.7007	1462.0013	1489.2348	1495.6853	1501.0718	1701.1713	1814.2463	2928.9054	3008.3608	3034.5815	3038.5085	3087.8501	3100.9808	3104.5064	3119.4955	3469.2273	3590.4563
CC1CCC(=O)C(=N)N1	C[C@H]1CCC(=O)[C]([NH])N1	
InChI=1S/C6H10N2O/c1-4-2-3-5(9)6(7)8-4/h4H,2-3H2,1H3,(H2,7,8)	InChI=1S/C6H10N2O/c1-4-2-3-5(9)6(7)8-4/h4H,2-3H2,1H3,(H2,7,8)/t4-/m0/s1
