27
gdb 99777	1.68067	1.3198	0.90278	0.1076	95.69	-0.2677	0.0812	0.3489	1500.0078	0.250909	-353.554615	-353.543468	-353.542524	-353.590816	42.054	
C	-0.4263301537	 1.5327340255	 0.0353137489	-0.393964
C	 0.2232135161	 0.1450129144	 0.0191653842	-0.178444
C	 0.9354513251	-0.2686259125	 1.3270733443	 0.009467
C	-0.0080907766	-0.2790701833	 2.5633554922	 0.041328
C	-1.1374391752	-1.3178920147	 2.4723606804	-0.394498
C	 0.7600246209	-0.4435294017	 3.8832717589	-0.39492
C	 1.6734091688	-1.5825724649	 1.1112659921	 0.0369
C	 2.9602918611	-1.6059720716	 0.3217462334	-0.278884
C	 2.9793984194	-1.8911568111	 1.8018008978	-0.27541
H	 0.2930428344	 2.3036163693	 0.3353924729	 0.110906
H	-0.7976517258	 1.7974407606	-0.9599226427	 0.109253
H	-1.2755060577	 1.5879671128	 0.7232592189	 0.118642
H	-0.5288343538	-0.6090257934	-0.246051337	 0.09335
H	 0.9673370363	 0.1119732364	-0.7851766004	 0.095634
H	 1.6988167991	 0.4993441188	 1.5290342191	 0.056438
H	-0.481551313	 0.7105507876	 2.5971897971	 0.069673
H	-0.7452509564	-2.3405901814	 2.4805771663	 0.114493
H	-1.8113906286	-1.2234509282	 3.330326275	 0.108505
H	-1.7407112953	-1.1978524338	 1.5674992271	 0.111923
H	 1.5538439047	 0.3051132927	 3.9812852529	 0.103187
H	 0.0852499017	-0.3254916909	 4.7380978088	 0.103997
H	 1.2221473397	-1.4322939865	 3.9596262119	 0.12182
H	 1.0232510171	-2.4379490274	 0.94453372	 0.079377
H	 3.1347618913	-2.4250602584	-0.3672092434	 0.106858
H	 3.3647917082	-0.6549708327	-0.0115863429	 0.107551
H	 3.4004299107	-1.133336116	 2.4538234724	 0.110118
H	 3.1652470617	-2.9079570696	 2.1312487618	 0.106695
52.8284	84.1629	109.686	170.3276	193.807	219.7209	236.7337	263.8899	288.0479	305.6123	330.9505	392.5425	428.994	496.3742	548.9736	715.8092	781.0215	821.8115	830.9564	864.8938	890.0711	922.9653	929.317	968.2429	971.2085	983.2044	1043.0147	1056.624	1060.6924	1067.6461	1076.5352	1120.5806	1141.5415	1176.8266	1199.8051	1201.855	1208.7163	1230.8831	1281.0436	1293.6967	1340.8789	1356.3126	1367.2694	1381.5263	1401.8457	1412.1891	1422.2723	1428.3391	1471.4187	1484.9929	1489.5585	1497.6272	1500.4679	1504.4851	1506.6863	1511.9654	1514.211	2975.7916	3017.0623	3025.6402	3028.8385	3030.9042	3035.8594	3056.5453	3090.1745	3094.5666	3095.9241	3103.8077	3105.8535	3109.4449	3124.7932	3130.2339	3137.0103	3202.3031	3218.0692
CCC(C(C)C)C1CC1	CC[C@@H](C(C)C)C1CC1	
InChI=1S/C9H18/c1-4-9(7(2)3)8-5-6-8/h7-9H,4-6H2,1-3H3	InChI=1S/C9H18/c1-4-9(7(2)3)8-5-6-8/h7-9H,4-6H2,1-3H3/t9-/m0/s1
