20
gdb 89744	2.44247	1.55647	1.13972	2.5473	79.58	-0.2388	0.065	0.3038	1144.1242	0.170342	-403.091159	-403.082507	-403.081563	-403.124359	33.281	
C	-0.7836178111	 1.1823790727	-0.0505163084	-0.416338
C	 0.1215261573	-0.0396311998	-0.0300709206	-0.061572
C	 1.4916064659	 0.0268905704	-0.790917857	-0.364574
C	 2.1617586129	-0.6156349734	 0.4332438882	 0.275844
C	 3.0258037649	-1.8148900051	 0.4758989444	-0.298504
N	 3.5253267363	-0.4996200143	 0.9335411344	-0.370477
C	 0.9152146595	-0.3657523779	 1.2482523824	 0.409081
C	 0.8164485049	 0.1917478965	 2.5971346868	-0.267449
O	 0.4720404551	-1.1775856574	 2.3160763535	-0.281281
H	-0.2405234129	 2.0815631471	 0.2601966674	 0.115081
H	-1.1817956835	 1.361191085	-1.0549957105	 0.117861
H	-1.6360824998	 1.0532278668	 0.6250899982	 0.124421
H	-0.4343422235	-0.9313840683	-0.3391796929	 0.090076
H	 1.5565951801	-0.515782791	-1.7365613565	 0.106994
H	 1.8176467445	 1.0605241425	-0.9494278687	 0.105201
H	 2.8833010521	-2.5451681701	 1.2670759835	 0.13254
H	 3.3911446291	-2.2159565293	-0.4664566415	 0.11086
H	 4.1243236279	-0.0861771136	 0.2221173467	 0.230537
H	 1.7275235005	 0.3316178388	 3.1755311772	 0.12967
H	-0.0215756099	 0.8341678604	 2.8635225534	 0.112031
68.0854	178.0979	203.0096	213.9683	217.9438	250.2323	333.579	405.1514	462.8694	529.8892	570.7406	602.0166	769.8415	844.9586	860.0192	866.3133	900.6194	915.1986	943.9028	953.1856	978.2008	989.6898	1062.9495	1099.9245	1117.4481	1124.9773	1136.627	1158.4629	1170.6153	1176.1378	1229.7376	1257.8934	1265.1539	1286.9512	1366.2365	1388.6928	1410.155	1450.6618	1486.2096	1494.1095	1497.9999	1511.0433	1534.9257	3027.697	3045.5807	3051.0657	3086.6314	3096.4262	3098.176	3105.9872	3108.3686	3179.818	3197.4199	3489.7101
CC1CC2(CN2)C11CO1	C[C@H]1C[C@]2(CN2)[C@]21CO2	
InChI=1S/C7H11NO/c1-5-2-6(3-8-6)7(5)4-9-7/h5,8H,2-4H2,1H3	InChI=1S/C7H11NO/c1-5-2-6(3-8-6)7(5)4-9-7/h5,8H,2-4H2,1H3/t5-,6-,7+/m0/s1
