18
gdb 64056	2.33593	1.7972	1.31161	3.918	74.5	-0.2449	-0.0171	0.2279	1012.7459	0.148807	-435.294882	-435.286479	-435.285535	-435.327335	32.837	
C	 0.8470798006	 1.251040336	-0.2025550909	-0.41222
C	-0.0769268818	 0.0399387025	 0.0348052185	 0.297476
O	-1.4128285473	 0.4712290057	 0.1601096253	-0.474283
C	 0.0092642554	-0.9611069172	-1.1334813273	-0.194897
N	 1.2718190494	-1.6921725245	-1.2189552487	-0.237565
C	 1.8576628449	-1.9329072771	-0.1216933857	 0.082707
N	 1.4258319105	-1.5284256705	 1.1434985044	-0.35616
C	 0.3583088434	-0.66573615	 1.3184245371	 0.358759
N	-0.2416165031	-0.3869658024	 2.4061877424	-0.554917
H	 1.8820562506	 0.9498581296	-0.3895275283	 0.121235
H	 0.4814276881	 1.7987461498	-1.0754320749	 0.129283
H	 0.8207419022	 1.918304942	 0.662941913	 0.124551
H	-1.5869064494	 0.5028333169	 1.1143626805	 0.291342
H	-0.8118893613	-1.6838361191	-1.0317138494	 0.122941
H	-0.157005922	-0.4295017661	-2.0751440005	 0.117922
H	 2.7804309871	-2.5118970495	-0.1033075247	 0.121494
H	 1.8790546921	-1.9145823579	 1.9584410501	 0.250088
H	 0.1199431007	-0.8935996181	 3.2143020193	 0.212245
110.6284	154.8509	219.7349	242.2244	314.147	347.4854	386.653	433.8461	457.7747	489.1288	506.1006	539.2136	587.248	693.9364	707.7765	850.5648	876.5221	895.5928	940.4758	975.0362	980.8079	1002.71	1051.152	1133.097	1150.0967	1169.7913	1199.9952	1254.2114	1303.8958	1376.0908	1401.2837	1422.4024	1437.3316	1460.0155	1479.9009	1491.8466	1496.212	1730.3566	1745.6663	3022.1156	3043.9898	3079.8818	3122.351	3126.0852	3139.0299	3474.2074	3608.6572	3686.432
CC1(O)CN=CNC1=N	C[C@@]1(O)CN=CN[C]1[NH]	
InChI=1S/C5H9N3O/c1-5(9)2-7-3-8-4(5)6/h3,9H,2H2,1H3,(H2,6,7,8)	InChI=1S/C5H9N3O/c1-5(9)2-7-3-8-4(5)6/h3,9H,2H2,1H3,(H2,6,7,8)/t5-/m1/s1
