19
gdb 72174	2.35901	2.17617	1.68303	1.1598	73.04	-0.2312	0.0824	0.3137	895.609	0.162399	-423.017564	-423.010852	-423.009908	-423.048111	28.773	
O	 0.0749203146	 1.3769690135	-0.0581465054	-0.496563
C	 0.0116794209	-0.0098391061	-0.0556243878	 0.439532
C	 0.2131667308	-0.8094390403	-1.3496272966	-0.285655
C	-0.4439523034	-1.948923154	-0.5148759939	-0.052937
C	 0.6611702374	-2.2171041831	 0.532257056	-0.239713
C	 0.7503037719	-0.769699671	 1.0804854016	 0.029521
O	-0.1218210894	-0.617826889	 2.208164199	-0.285646
C	-1.4444280103	-0.9162341306	 1.7126701547	-0.13004
C	-1.2974316877	-0.8334415668	 0.1956603483	-0.097459
H	 0.0388403366	 1.6679831488	 0.8611484736	 0.285861
H	-0.4319890273	-0.4416683472	-2.1508997023	 0.106267
H	 1.2298905881	-0.9631339137	-1.7231703368	 0.092694
H	-0.915157299	-2.8035185861	-0.9973535577	 0.06776
H	 0.3877000222	-2.9186924403	 1.3245152776	 0.106187
H	 1.5883353056	-2.5642075279	 0.0670471104	 0.098952
H	 1.7362443612	-0.4016016034	 1.3652363368	 0.077689
H	-1.7699208552	-1.9042199249	 2.0656051616	 0.09914
H	-2.1407212455	-0.1691612738	 2.1100173657	 0.105084
H	-2.1717413114	-0.507204014	-0.3660612847	 0.079327
227.5383	254.2797	300.9104	364.3151	425.4451	453.5331	468.0519	597.1336	635.7627	688.2093	742.2204	810.1969	841.4599	880.8804	888.714	911.72	940.419	967.3719	982.424	1003.1998	1035.716	1044.9266	1071.2638	1078.9042	1108.8553	1137.4857	1163.4151	1194.2041	1200.544	1226.208	1239.7306	1249.4664	1295.0674	1317.5458	1328.6507	1342.2084	1378.8575	1396.0517	1492.2442	1514.0928	1525.7375	3007.8518	3052.7894	3055.7466	3057.4707	3104.5966	3116.2432	3119.5628	3125.0891	3133.8878	3786.7635
OC12CC3CC1OCC23	O[C@@]12C[C@H]3C[C@@H]1OC[C@@H]23	
InChI=1S/C7H10O2/c8-7-2-4-1-6(7)9-3-5(4)7/h4-6,8H,1-3H2	InChI=1S/C7H10O2/c8-7-2-4-1-6(7)9-3-5(4)7/h4-6,8H,1-3H2/t4-,5-,6+,7-/m1/s1
