21
gdb 104524	2.19564	1.31016	0.9788	2.0812	83.53	-0.2413	0.0489	0.2902	1296.7903	0.180563	-387.037057	-387.027217	-387.026273	-387.071987	36.372	
C	-0.1438570192	 1.5713916402	-0.0378787931	-0.398283
C	 0.1308588643	 0.0632402928	-0.0435775991	-0.238264
C	 0.7567310882	-0.4984662393	 1.2413927278	 0.284185
C	 2.1310380093	 0.1396406679	 1.5284570501	-0.437001
C	 2.8148967873	-0.3892758425	 2.7030151047	 0.288414
C	 3.3706203955	-0.8282294493	 3.6745737245	-0.429245
C	-0.2391740442	-0.5836907118	 2.4277951671	-0.109963
O	-0.3843081846	-2.0074281395	 2.2602186062	-0.276602
C	 0.6873056924	-2.0463116031	 1.297147987	-0.11709
H	 0.7776405279	 2.1605539981	-0.0031775147	 0.120894
H	-0.6827216499	 1.8660027266	-0.9432783324	 0.119498
H	-0.7592126333	 1.8636860427	 0.8201125159	 0.121685
H	-0.8112712871	-0.471755962	-0.2131981175	 0.109268
H	 0.7816266553	-0.1886761889	-0.8921892321	 0.095752
H	 2.7729063883	 0.007485287	 0.6462201801	 0.130442
H	 2.0095973182	 1.2229970267	 1.6500606434	 0.135688
H	 3.8646579157	-1.2139633929	 4.5317624575	 0.197496
H	 0.1913963935	-0.3298152129	 3.4044621762	 0.107151
H	-1.192651464	-0.0558682074	 2.3032714575	 0.094954
H	 0.3905526841	-2.5488458995	 0.3679513733	 0.093471
H	 1.5836142623	-2.5301214228	 1.7039380475	 0.10755
70.0542	82.1051	116.3012	152.3838	213.113	248.2544	303.3167	336.1442	349.7197	382.9327	433.1597	537.7575	622.0743	638.4552	674.973	786.5387	834.1334	858.4654	884.1811	961.7435	980.1392	997.1484	1010.6342	1039.8549	1044.9903	1060.161	1138.2555	1163.5192	1168.5487	1208.1203	1243.0925	1271.4453	1317.2771	1327.6222	1347.0047	1373.0116	1395.8998	1415.4622	1467.1893	1483.8964	1502.6567	1508.2462	1510.0927	1533.6711	2236.5285	3007.2578	3011.1262	3012.7394	3020.1622	3036.4281	3050.7429	3054.2372	3057.8624	3060.6861	3102.8006	3108.7321	3504.9284
CCC1(CC#C)COC1	CCC1(CC#C)COC1	
InChI=1S/C8H12O/c1-3-5-8(4-2)6-9-7-8/h1H,4-7H2,2H3	InChI=1S/C8H12O/c1-3-5-8(4-2)6-9-7-8/h1H,4-7H2,2H3
