18
gdb 39451	2.46351	1.97734	1.32906	1.7395	70.99	-0.2489	0.0586	0.3075	973.0443	0.150085	-439.030111	-439.023092	-439.022148	-439.061425	28.097	
C	-0.0041738933	 1.5026247041	 0.0873936954	-0.146329
O	 1.4289873525	 1.4677018978	-0.137929826	-0.293539
C	 1.3939850705	 0.0669737164	-0.5076724084	 0.055899
C	 2.4344050697	-0.8229741175	 0.1741791496	-0.112056
O	 2.0467266799	-1.2747872151	 1.4569718478	-0.233264
C	 0.7937325036	-1.9462597195	 1.4275441048	-0.106882
C	-0.3384953726	-0.9746480224	 1.1267528344	-0.089813
N	-1.081746243	-0.9723325789	-0.1575242745	-0.400429
C	-0.02326845	-0.0154952018	 0.0501483741	 0.277267
H	-0.2651379137	 1.9909732313	 1.0318867213	 0.114482
H	-0.5359351006	 1.9877204534	-0.7421671383	 0.106553
H	 1.4672291545	-0.0396463135	-1.6007183736	 0.074981
H	 2.6373665368	-1.6897170279	-0.4794354463	 0.08404
H	 3.3644465439	-0.2617039027	 0.3013735323	 0.129709
H	 0.8168506887	-2.7595001917	 0.680309081	 0.085002
H	 0.6712007583	-2.3997737504	 2.4136726704	 0.11965
H	-0.9413820912	-0.6511314833	 1.9707859372	 0.105103
H	-0.7791877839	-1.7311082183	-0.7666057212	 0.229626
130.6743	194.5723	255.5575	337.0613	381.2221	440.4502	463.7507	507.1152	586.865	717.6196	807.6283	819.4704	858.6406	882.131	939.2638	971.9045	989.884	1014.3337	1025.2057	1067.9637	1073.7868	1088.1095	1114.1132	1143.4401	1151.3667	1197.4554	1251.4166	1256.6102	1289.5302	1316.154	1334.3891	1355.555	1363.3428	1381.8561	1411.7883	1470.2812	1483.5182	1492.4949	1520.0794	2945.9113	2950.9205	2988.4189	3013.3655	3076.3118	3095.0221	3101.9023	3148.2128	3473.0139
C1OC2COCC3NC123	C1O[C@H]2COC[C@@H]3N[C@]123	
InChI=1S/C6H9NO2/c1-4-6(7-4)3-9-5(6)2-8-1/h4-5,7H,1-3H2	InChI=1S/C6H9NO2/c1-4-6(7-4)3-9-5(6)2-8-1/h4-5,7H,1-3H2/t4-,5-,6-/m0/s1
