16
gdb 77028	2.34008	1.25016	0.9765	3.9324	74.83	-0.2656	0.0215	0.2872	1223.9306	0.12215	-400.707906	-400.698608	-400.697664	-400.742665	33.435	
O	 0.0025417475	 1.4442092378	-0.0316233232	-0.398837
C	 0.0535156502	 0.0585760535	-0.0292236256	 0.063934
C	-1.2436763312	-0.6535352443	 0.1692690354	-0.044304
C	-2.5336650167	 0.126338988	 0.3761648137	-0.380993
C	-3.7157847857	-0.6736109695	 0.0748033217	 0.300798
C	-4.6764175285	-1.3524630057	-0.1692841323	-0.435898
C	-0.5660264187	-0.714325828	-1.2024982401	-0.235452
C	-1.0751930915	 0.0439048075	-2.3064244541	 0.293036
N	-1.4500843418	 0.6738173826	-3.2020872478	-0.340997
H	 0.5444610186	 1.7810558161	-0.7541432969	 0.306358
H	 0.9530538234	-0.3775953781	 0.4041561206	 0.110193
H	-1.1956981717	-1.5888874885	 0.7174245517	 0.118928
H	-2.571944184	 0.4654637516	 1.4191209071	 0.141938
H	-2.521646227	 1.0323474938	-0.2364806813	 0.165312
H	-5.5346451207	-1.9359074943	-0.3938732851	 0.19918
H	-0.1007411825	-1.6532745424	-1.4826452936	 0.136804
40.982	112.1762	118.0488	152.3817	221.0845	276.618	331.4525	337.5392	396.7518	481.0927	561.5161	609.2445	624.8508	651.889	661.1853	765.1476	800.0768	900.5145	922.7604	967.7179	1008.8638	1033.5236	1105.1582	1127.5666	1160.8001	1235.0883	1239.2499	1305.1648	1317.5273	1363.5353	1393.5825	1452.8603	1467.6519	2243.6759	2350.5744	3034.0705	3090.6606	3107.6384	3164.9858	3174.4646	3507.1959	3800.882
OC1C(CC#C)C1C#N	O[C@H]1[C@@H](CC#C)[C@H]1C#N	
InChI=1S/C7H7NO/c1-2-3-5-6(4-8)7(5)9/h1,5-7,9H,3H2	InChI=1S/C7H7NO/c1-2-3-5-6(4-8)7(5)9/h1,5-7,9H,3H2/t5-,6+,7-/m0/s1
