15
gdb 42222	3.3355	1.30463	1.09897	5.4999	72.68	-0.2666	-0.0559	0.2107	1089.5919	0.113109	-416.76349	-416.755973	-416.755029	-416.796095	27.709	
O	-0.0974291476	 0.000688735	 0.3906678938	-0.3356
C	-0.1099431162	 1.1666136098	 0.0601231838	 0.285268
C	 1.1164073642	 1.9955590095	 0.1006867269	 0.231325
N	 2.0764884401	 2.6343579106	 0.177913407	-0.325747
N	-1.1689913136	 1.8378941272	-0.4772840071	-0.093657
C	-1.6888550287	 3.2178137724	-0.1242207055	-0.036605
C	-2.9272584345	 2.8603306406	-0.9933469191	-0.21727
C	-2.6162384418	 1.611960843	-0.1175688799	-0.025853
C	-2.4221529076	 2.5784401835	 1.0929269889	-0.219451
H	-1.0441374521	 4.0936453541	-0.166718699	 0.126114
H	-3.8479430019	 3.3947270989	-0.7603798291	 0.116573
H	-2.7505480918	 2.7553048613	-2.0633975078	 0.125495
H	-3.0552209476	 0.6179133621	-0.1449146148	 0.125326
H	-1.7940490357	 2.213479617	 1.9068303981	 0.129634
H	-3.3128862952	 3.0959893651	 1.4554990038	 0.114447
83.9287	119.6173	126.5629	240.675	319.3099	459.3867	498.1053	570.4115	614.4862	684.5403	773.5377	784.9685	798.7671	892.9322	900.9568	918.2515	988.7678	1008.5148	1017.5438	1080.0966	1105.9758	1117.0243	1126.7249	1193.641	1195.0213	1228.1645	1253.0759	1263.4061	1368.3402	1484.2693	1522.746	1766.8775	2345.2409	3071.4703	3093.7358	3147.0972	3148.9671	3163.2506	3172.5835
O=C(C#N)N1C2CC1C2	O=C(C#N)N1[C@H]2C[C@@H]1C2	
InChI=1S/C6H6N2O/c7-3-6(9)8-4-1-5(8)2-4/h4-5H,1-2H2	InChI=1S/C6H6N2O/c7-3-6(9)8-4-1-5(8)2-4/h4-5H,1-2H2/t4-,5+
