16
gdb 97083	3.4295	1.06686	0.99036	3.324	73.14	-0.2408	0.0042	0.245	1240.0578	0.125341	-434.08842	-434.07978	-434.078836	-434.122613	30.31	
C	 0.3815568687	 1.22454159	 0.2163642318	-0.332259
N	-0.0646120366	-0.1058096737	-0.1569723331	-0.363632
C	 0.3679242651	-0.6413352361	-1.2050151394	 0.506459
N	-0.0455512894	-1.8875874464	-1.6906892108	-0.349568
C	 0.924204431	-2.3775282416	-2.6521148237	-0.152329
C	 1.4558232569	-1.0213732271	-3.1790568271	-0.09295
O	 1.2951780066	-0.1289467306	-2.0818506683	-0.246337
C	 1.9846373428	-3.2161646129	-2.0573316609	 0.271724
N	 2.7963248612	-3.8891610785	-1.5843176018	-0.3075
H	 1.0700880396	 1.6858513853	-0.5009674262	 0.121881
H	-0.4898605571	 1.878954336	 0.3327720162	 0.124193
H	 0.8771981425	 1.17988067	 1.1929667326	 0.126739
H	-0.4139154116	-2.5181096823	-0.9939615299	 0.269954
H	 0.44655617	-2.9507053006	-3.4523239358	 0.143498
H	 2.5073248652	-1.0499623537	-3.4663306182	 0.148474
H	 0.8453319451	-0.6882112479	-4.0254856156	 0.131653
67.3567	68.884	136.6423	185.0707	229.3065	241.1422	292.5388	460.7835	494.1503	560.1592	612.692	708.5995	716.3972	792.2559	829.234	891.7438	981.8289	1047.7327	1052.6521	1097.1647	1127.2835	1138.4714	1162.9812	1225.4353	1238.2908	1278.3061	1366.6316	1405.9166	1410.3832	1446.8944	1495.5883	1502.0511	1513.6291	1832.9303	2352.9512	3015.5979	3047.0657	3069.7084	3074.5252	3084.2738	3134.2409	3628.6602
CN=C1NC(CO1)C#N	CN=C1N[C@@H](CO1)C#N	
InChI=1S/C5H7N3O/c1-7-5-8-4(2-6)3-9-5/h4H,3H2,1H3,(H,7,8)	InChI=1S/C5H7N3O/c1-7-5-8-4(2-6)3-9-5/h4H,3H2,1H3,(H,7,8)/t4-/m1/s1
