19
gdb 68137	3.94928	1.21392	1.09686	2.0571	82.78	-0.2376	0.0341	0.2716	1160.6577	0.158451	-385.840497	-385.832291	-385.831347	-385.872661	33.039	
C	-0.0712043249	 1.532076401	 0.0187311733	-0.501899
C	 0.0301608521	 0.0265369618	 0.0270260212	 0.245381
C	 0.977683295	-0.7791786044	-0.9225097611	-0.300561
C	 0.6693692449	-1.9029232078	 0.1088623708	 0.328833
C	 0.6819140869	-0.7874027106	 1.1937706096	-0.300573
O	-0.7432363169	-2.1394965872	-0.0894592189	-0.322509
C	-1.2571244451	-0.7926623295	-0.1560412399	-0.103873
C	 1.4156645766	-3.1300152793	 0.2083331407	 0.133215
C	 2.0726332915	-4.1322490172	 0.2964411589	-0.346612
H	 0.9099315912	 1.9969247695	 0.1573169172	 0.120792
H	-0.4822513724	 1.894692058	-0.9303800867	 0.121307
H	-0.7265467251	 1.8878884603	 0.821965172	 0.121311
H	 0.6592636369	-0.9619999675	-1.9515513148	 0.104691
H	 2.0123341878	-0.4352414583	-0.8823888944	 0.107341
H	 1.6875500647	-0.4442670363	 1.4414770811	 0.107341
H	 0.0937638667	-0.977711819	 2.0946622376	 0.104691
H	-1.9899317632	-0.6286258132	 0.6437549641	 0.09886
H	-1.7427734171	-0.6217482129	-1.1248136594	 0.098858
H	 2.6459491504	-5.0227961671	 0.3727183886	 0.183405
138.8136	139.5633	214.2981	274.7889	289.6628	360.8934	452.423	479.6478	517.6401	538.29	554.766	595.4223	624.2859	670.1444	681.0677	811.8199	869.1469	908.3493	927.7944	955.0715	970.541	996.1245	1029.5816	1043.5835	1083.2832	1119.4535	1153.1366	1158.6037	1176.487	1228.7021	1259.9445	1277.6886	1305.4445	1379.5033	1416.4751	1472.5136	1492.7651	1494.2668	1504.3252	1533.0176	2246.1861	3014.829	3026.7625	3055.3734	3065.6219	3072.5378	3089.2292	3100.1922	3136.0138	3142.3945	3503.3832
CC12CC(C1)(OC2)C#C	C[C@@]12C[C@@](C1)(OC2)C#C	
InChI=1S/C8H10O/c1-3-8-4-7(2,5-8)6-9-8/h1H,4-6H2,2H3	InChI=1S/C8H10O/c1-3-8-4-7(2,5-8)6-9-8/h1H,4-6H2,2H3/t7-,8+
