20
gdb 82183	2.76887	1.65583	1.3213	1.1061	77.83	-0.2215	0.0754	0.2969	1049.1529	0.170949	-403.115816	-403.107644	-403.1067	-403.147951	32.494	
C	-0.0597191059	 1.5507411408	-0.0556893362	-0.394858
C	 0.0406597438	 0.0285746257	 0.0075588344	 0.006972
C	 0.6877008811	-0.622904301	-1.2113714874	 0.030411
O	 2.0612559925	-0.2602892069	-1.4104783915	-0.257131
C	 1.7701065796	-1.4960586545	-0.7409175299	-0.025581
C	 1.8131016775	-1.4263577909	 0.7750083422	 0.311607
C	 1.9600588405	-2.7233455007	 1.5314946824	-0.489471
C	 2.2014457302	-0.1020054704	 1.3309348514	-0.292003
N	 0.7769326102	-0.4603662519	 1.2039627055	-0.153372
H	 0.9183218188	 2.0016619651	-0.2413661681	 0.131662
H	-0.7319145137	 1.8575595272	-0.8631568032	 0.115643
H	-0.453208934	 1.9438132406	 0.8855538587	 0.127609
H	-0.9723299138	-0.3881791101	 0.0933405265	 0.085462
H	 0.1128254889	-0.7982795131	-2.1194238768	 0.094962
H	 2.0914174828	-2.3978113648	-1.2554999271	 0.094904
H	 2.9577589682	-3.1522219957	 1.3849386424	 0.119965
H	 1.8098911344	-2.5563345849	 2.600591552	 0.132557
H	 1.2224758555	-3.4635572409	 1.2002534876	 0.119036
H	 2.5451678538	-0.0324799743	 2.3604580947	 0.106647
H	 2.6374241498	 0.6144505307	 0.6444598723	 0.134978
152.8631	184.1694	193.6937	223.4365	268.5582	297.2126	376.4869	446.1905	516.3695	540.161	600.9197	713.6161	737.6032	786.3795	810.4027	853.9251	887.6256	899.0098	948.0094	964.3564	1015.8216	1021.8594	1060.8028	1089.7348	1107.6544	1112.0684	1132.8592	1161.9007	1173.0287	1244.3598	1263.5941	1318.9818	1341.7909	1359.0903	1367.8352	1405.7609	1412.3735	1432.8891	1485.05	1490.4146	1494.3355	1499.6111	1503.4623	3010.5756	3028.9618	3045.7552	3088.4576	3109.617	3113.946	3123.9892	3124.3281	3129.5378	3152.7647	3213.5689
CC1C2OC2C2(C)CN12	C[C@H]1[C@H]2O[C@H]2[C@@]2(C)CN12	
InChI=1S/C7H11NO/c1-4-5-6(9-5)7(2)3-8(4)7/h4-6H,3H2,1-2H3	InChI=1S/C7H11NO/c1-4-5-6(9-5)7(2)3-8(4)7/h4-6H,3H2,1-2H3/t4-,5+,6+,7+,8?/m0/s1
