21
gdb 63532	2.87458	1.33836	1.20696	1.7058	82.73	-0.2443	0.0826	0.3269	1150.7917	0.180796	-387.04118	-387.032289	-387.031345	-387.074267	34.725	
C	-0.0889423733	 1.5060858013	 0.0269767779	-0.453032
C	-0.0241102589	-0.0095878019	 0.0276051336	 0.285193
C	-1.2465866152	-0.6899006087	-0.5588166537	-0.450671
C	 1.3301490771	-0.6596294414	-0.1923252187	-0.406937
C	 0.6872060663	-0.6844804405	 1.1681137586	 0.333182
C	 1.2783766866	-0.0909981388	 2.4765988729	-0.350266
C	 0.8290884041	-1.3852040343	 3.1797983518	 0.035768
O	-0.5860165108	-1.5053798034	 3.004184987	-0.249202
C	 0.273188717	-1.9307767093	 1.9314554123	-0.07049
H	 0.8125498127	 1.9508953742	 0.4587858751	 0.11376
H	-0.1939866523	 1.8915805052	-0.9941122054	 0.113646
H	-0.9482904822	 1.8633980863	 0.6063867035	 0.119354
H	-1.4055363579	-0.380256996	-1.5985292431	 0.111917
H	-1.147220664	-1.7792983096	-0.5488227427	 0.109897
H	-2.1479616062	-0.4335664143	 0.0092315706	 0.124092
H	 1.3691304896	-1.5880534994	-0.7553923496	 0.106768
H	 2.195058645	-0.0183838136	-0.3356369441	 0.106411
H	 2.3652820407	 0.0230833773	 2.4367946173	 0.106819
H	 0.8231987875	 0.823781413	 2.8646817936	 0.110284
H	 1.2701521475	-1.8839374264	 4.0346938805	 0.102933
H	 0.1685084366	-2.9530077597	 1.5861564224	 0.100572
103.4174	148.0323	171.8566	201.9446	227.7712	309.5599	362.3815	385.1424	402.2128	448.0093	502.6923	591.3171	726.0705	783.8993	843.6861	860.0895	872.57	884.3424	916.4519	947.9592	967.6288	972.7956	991.8928	1021.9909	1041.3353	1052.5377	1071.9557	1145.7223	1154.493	1173.8369	1185.6164	1227.959	1249.4467	1265.986	1300.9327	1375.9299	1411.2096	1414.2639	1427.6847	1472.4146	1480.7866	1486.5582	1491.8035	1500.0669	1516.5491	3021.3914	3026.173	3057.2141	3080.6063	3085.7808	3101.7457	3103.7938	3111.9777	3113.3698	3178.2399	3193.9321	3195.0703
CC1(C)CC11CC2OC12	CC1(C)C[C@]21C[C@H]1O[C@@H]21	
InChI=1S/C8H12O/c1-7(2)4-8(7)3-5-6(8)9-5/h5-6H,3-4H2,1-2H3	InChI=1S/C8H12O/c1-7(2)4-8(7)3-5-6(8)9-5/h5-6H,3-4H2,1-2H3/t5-,6-,8-/m1/s1
