16
gdb 110795	2.9447	1.30729	1.16532	3.4763	65.57	-0.25	0.0505	0.3005	1089.0829	0.124517	-475.004596	-474.996626	-474.995681	-475.037912	29.318	
O	-0.3705502883	 1.6062111012	-0.0974180715	-0.418606
C	-0.0933051963	 0.2630977021	 0.2677767032	-0.109657
C	-1.3745117562	-0.5127887192	 0.0982103903	-0.088868
C	-1.7889033656	-1.1618274825	-1.2045911319	 0.04883
O	-0.7751768213	-1.4033354767	-2.1550227565	-0.221444
C	 0.1137223378	-2.3024334955	-1.6560094892	 0.484838
N	 1.1304389274	-2.6713617795	-2.2934928992	-0.575255
O	-0.256938483	-2.6931827116	-0.3932990807	-0.248908
C	-1.4437309539	-2.017970081	-0.0275364205	 0.015476
H	 0.4582869558	 2.0941646719	-0.0941443793	 0.292121
H	 0.7051329287	-0.1636171236	-0.3522624749	 0.122064
H	 0.2331813893	 0.1918503025	 1.3174267383	 0.097446
H	-2.2137465613	-0.0911346151	 0.6465724453	 0.114134
H	-2.7659195364	-1.0336153189	-1.6505532848	 0.127652
H	 1.6646929863	-3.3419128513	-1.7467421639	 0.234587
H	-2.1213053229	-2.6339030525	 0.5490856753	 0.125589
57.4682	102.9852	154.6837	216.3028	252.2184	325.9172	465.5684	554.221	598.2622	715.561	730.097	770.2067	785.8628	799.2269	813.1422	891.3907	927.6343	1006.811	1024.3149	1059.8494	1072.3974	1090.0974	1094.0659	1133.5234	1145.9632	1195.2235	1234.5376	1268.2057	1277.7264	1346.149	1376.5243	1426.3117	1478.1175	1517.5828	1800.503	2978.2719	3039.6273	3146.8206	3199.1953	3211.0851	3542.5871	3830.5497
OCC1C2OC(=N)OC12	OC[C@H]1[C@H]2O[C]([NH])O[C@@H]12	
InChI=1S/C5H7NO3/c6-5-8-3-2(1-7)4(3)9-5/h2-4,6-7H,1H2	InChI=1S/C5H7NO3/c6-5-8-3-2(1-7)4(3)9-5/h2-4,6-7H,1H2/t2-,3+,4-
