18
gdb 84317	3.2744	1.4252	1.08136	5.7511	81.89	-0.2023	-0.0213	0.181	1116.9851	0.149321	-401.969742	-401.961789	-401.960845	-402.002275	30.459	
C	 0.0324497311	 1.4293489152	 0.0808111175	-0.340033
N	-0.1005023879	-0.0121570115	 0.0020826381	-0.044193
C	 0.0015855664	-0.6690041324	-1.1822673651	 0.044827
C	 0.063401796	-2.0190951177	-1.3320421772	-0.287541
C	 0.026828751	-2.9190500562	-0.1950412696	 0.386075
O	-0.0874009197	-4.1326397157	-0.2777779082	-0.37389
C	 0.1001794184	-2.2526992449	 1.1556891266	-0.178144
C	 1.3325929751	-1.4511754297	 1.5389796933	-0.313706
C	 0.0410460195	-0.7407300365	 1.2300840619	 0.012255
H	 1.0461251866	 1.7359606839	 0.3758206453	 0.131202
H	-0.1991028483	 1.8733588482	-0.8895145484	 0.138286
H	-0.6709115382	 1.8308955151	 0.8187871725	 0.135018
H	 0.007288653	-0.0173799251	-2.0516769112	 0.119027
H	 0.0766585713	-2.4496261946	-2.3246736535	 0.098269
H	-0.3800242365	-2.821939229	 1.9433817045	 0.111218
H	 1.6565979861	-1.4937562681	 2.5721269405	 0.125897
H	 2.1307409964	-1.3851775125	 0.8076982853	 0.13115
H	-0.5023359403	-0.2834415382	 2.0517585178	 0.104285
85.1746	141.0615	175.8894	240.9906	320.1545	360.2266	435.9464	453.9757	505.3273	557.2714	719.3456	733.9363	762.1838	808.078	827.6778	835.8679	937.3669	973.7156	979.5185	1024.2547	1051.2961	1074.4519	1117.2717	1136.5822	1151.0501	1187.856	1206.6916	1232.5702	1250.73	1354.2141	1394.9488	1407.688	1458.5791	1473.035	1478.8714	1481.8617	1525.8291	1657.6724	1745.4072	3000.9241	3065.1911	3126.6541	3139.1395	3146.1152	3169.0812	3180.611	3220.551	3231.384
CN1C=CC(=O)C2CC12	CN1C=CC(=O)[C@H]2C[C@@H]12	
InChI=1S/C7H9NO/c1-8-3-2-7(9)5-4-6(5)8/h2-3,5-6H,4H2,1H3	InChI=1S/C7H9NO/c1-8-3-2-7(9)5-4-6(5)8/h2-3,5-6H,4H2,1H3/t5-,6+/m0/s1
