13
gdb 21168	3.59041	1.87243	1.24542	4.1478	59.45	-0.2002	-0.0165	0.1838	907.925	0.094366	-431.884378	-431.876423	-431.875478	-431.916999	27.488	
C	 0.1370389041	 1.5016958413	 0.0360902989	-0.331493
N	-0.1669792548	 0.0863897126	-0.1229814839	-0.392228
C	 0.477653903	-0.6639916606	-1.0573493711	 0.434569
C	 0.5990162472	-2.0272182207	-1.2130941087	 0.208458
O	 0.1123222359	-2.9884462211	-0.3877409211	-0.447688
N	 1.2934749311	-2.2458769886	-2.3464124978	-0.186624
N	 1.6239027623	-1.1611365725	-2.914662528	-0.064797
O	 1.094890863	-0.0835686547	-2.0786083484	-0.226158
H	 1.1597457753	 1.6849632607	 0.3931563782	 0.132624
H	 0.0131116059	 2.0099953471	-0.9223603105	 0.161052
H	-0.5698425305	 1.9305427933	 0.7487164729	 0.135944
H	-0.3938840571	-0.4232506475	 0.7173773588	 0.265203
H	 0.4004874447	-3.8411261392	-0.7328033092	 0.311137
86.9964	134.1295	146.7333	171.5773	268.7422	309.5457	363.4139	461.0837	541.0008	631.4245	651.2114	662.6171	716.7295	807.7009	984.8993	1070.4827	1142.2839	1156.865	1167.9293	1278.9165	1356.9676	1414.8439	1452.5539	1483.6472	1493.4763	1513.1959	1535.6908	1716.6799	3011.2492	3102.3435	3143.5264	3621.4348	3821.9385
CNC1=C(O)N=NO1	CNc1c(O)nno1	
InChI=1S/C3H5N3O2/c1-4-3-2(7)5-6-8-3/h4,7H,1H3	InChI=1S/C3H5N3O2/c1-4-3-2(7)5-6-8-3/h4,7H,1H3
