17
gdb 37991	3.57012	1.67439	1.41528	0.9579	92.08	-0.184	-0.0393	0.1447	945.9165	0.137492	-347.495297	-347.488724	-347.48778	-347.525838	27.85	
C	-1.6391262853	 0.5248289289	 0.3756376659	-0.456365
C	 2.8569988056	 1.3186282269	-0.1364643619	-0.068025
C	 2.7163716669	 0.3434969651	-1.0579426467	-0.151527
C	 1.6929245342	-0.5626123074	-0.457893357	 0.037959
C	 0.3851954489	-0.4139769796	-0.7968090649	-0.17055
C	-0.3528244777	 0.1439072544	 0.3461349714	 0.379101
C	 0.6812512724	 0.3521303817	 1.4061342383	-0.152579
C	 2.2024355742	 0.9511262198	 1.1672041649	-0.087489
C	 1.8565284546	-0.4850477555	 1.0565418342	-0.125634
H	-2.0470463979	 1.0821473172	 1.2111939184	 0.100305
H	-2.3120280814	 0.3041334129	-0.4452377288	 0.100977
H	 3.3771185945	 2.2567692602	-0.2912350755	 0.103499
H	 3.0319898105	 0.3739857503	-2.0919130936	 0.112593
H	 0.0284610112	-0.2916769791	-1.8143724923	 0.102128
H	 0.3668141667	 0.4895501995	 2.4360295506	 0.092162
H	 2.5956250524	 1.3691780211	 2.0880554547	 0.092385
H	 2.2745104302	-1.2991378265	 1.6425046722	 0.091061
134.4058	287.4676	328.654	350.732	474.2908	574.8097	614.5611	647.766	698.1578	706.3317	739.7692	757.0979	797.9086	819.6638	849.1638	856.7279	884.7	902.0729	918.0513	966.5074	977.5053	987.8771	1065.1571	1098.0069	1105.5892	1121.4914	1139.3475	1238.1176	1273.278	1300.4633	1309.2475	1337.0748	1358.1482	1450.8585	1555.0818	1574.3091	1677.6381	3134.635	3153.8877	3161.5379	3172.0173	3182.566	3198.8924	3233.0846	3237.5604
C1C2C=C3C=C1C1C2C31	C=C1[CH][C]2C=C[C@H]3[C@@H]1[C@@H]23	
InChI=1S/C9H8/c1-4-2-6-3-5(1)8-7(4)9(6)8/h1-2,5,7-9H,3H2	InChI=1S/C9H8/c1-5-4-6-2-3-7-8(5)9(6)7/h2-4,7-9H,1H2/t7-,8+,9-/m0/s1
