21
gdb 68280	2.26721	1.4819	1.40901	2.7133	83.43	-0.2415	-0.0218	0.2197	1098.6749	0.18081	-387.054091	-387.044921	-387.043977	-387.0877	34.95	
C	 0.4721614266	 1.1945673416	 0.326765444	-0.517522
C	 0.2347305269	-0.2764785063	 0.1059780419	 0.28815
C	 0.7173465982	-1.1596035818	-1.087089757	-0.269012
C	-0.0798763453	-2.12611663	-0.1593432832	-0.078768
C	 0.6839354452	-1.4601138056	 1.0210190347	-0.278319
C	-1.1726020616	-1.0199809989	-0.023263908	 0.239299
C	-2.145279669	-0.9967517638	 1.1624141005	-0.497323
C	-1.9951942738	-0.6983807105	-1.2520676623	 0.08736
O	-2.1188339512	-1.3967815065	-2.2273045291	-0.256135
H	 1.544309963	 1.4021455399	 0.4140196219	 0.125176
H	 0.0841949881	 1.7932547733	-0.504407433	 0.12224
H	-0.0102996088	 1.5416755439	 1.2472181791	 0.120891
H	 0.3081917072	-0.9575759771	-2.0758672522	 0.115267
H	 1.7958034337	-1.3318934877	-1.1327217558	 0.086416
H	-0.2559410084	-3.1894299369	-0.318273743	 0.079317
H	 1.7622129315	-1.6405171344	 1.0472683306	 0.091728
H	 0.2620437466	-1.5325017349	 2.0234457409	 0.090982
H	-1.6480570725	-1.0797216658	 2.129317097	 0.128948
H	-2.7186057656	-0.0623100506	 1.1699959161	 0.122147
H	-2.8656967178	-1.8186932372	 1.0854675149	 0.132502
H	-2.5499578228	 0.2689779092	-1.1781315182	 0.066658
84.9051	137.2058	145.8647	188.612	196.7528	277.6276	314.059	371.5625	388.22	467.8168	569.135	595.437	636.8341	709.6184	770.6743	801.5387	895.0105	900.9971	921.2186	940.4425	991.0376	1008.6484	1013.8856	1021.2577	1084.8887	1099.0876	1129.0387	1160.2719	1174.3412	1183.6205	1203.1709	1223.1461	1234.2201	1280.9332	1314.7641	1404.8932	1409.5018	1426.5253	1485.1062	1488.2768	1490.8385	1496.9024	1518.6743	1554.1133	1817.5119	2829.0046	3026.1711	3033.1224	3062.6123	3070.0179	3086.8991	3093.7279	3095.1251	3121.496	3127.1167	3142.5	3150.4204
CC12CC(C1)C2(C)C=O	C[C@@]12C[C@@H](C1)[C@]2(C)C=O	
InChI=1S/C8H12O/c1-7-3-6(4-7)8(7,2)5-9/h5-6H,3-4H2,1-2H3	InChI=1S/C8H12O/c1-7-3-6(4-7)8(7,2)5-9/h5-6H,3-4H2,1-2H3/t6-,7+,8-/m0/s1
