25
gdb 102398	1.6643	1.46429	0.99155	2.5243	88.48	-0.2434	-0.0216	0.2219	1381.7086	0.225843	-389.512278	-389.500656	-389.499712	-389.549211	41.971	
C	 0.1882582058	 1.542634281	-0.011937269	-0.401933
C	 0.0770498471	 0.0154496626	 0.0456094865	-0.216254
C	-1.3620656736	-0.5547070661	 0.0966680195	 0.164738
C	-2.1572362349	-0.1052545945	 1.345160294	-0.191122
C	-1.4794037361	-0.3469016203	 2.6985231764	-0.411214
C	-2.1989106524	-0.1597124246	-1.1620989056	-0.199618
C	-1.6217353997	-0.5320668972	-2.5335038054	-0.411028
C	-1.2525204887	-2.0794577289	 0.0796063628	 0.154567
O	-2.0032655594	-2.8363128601	 0.6417644596	-0.269575
H	 1.2398467883	 1.8448282558	-0.0333855252	 0.117339
H	-0.2880168402	 1.9551008022	-0.9064684631	 0.120927
H	-0.2721210362	 2.0185812121	 0.8590264165	 0.124378
H	 0.5947721281	-0.412506318	-0.821527656	 0.099101
H	 0.6281854046	-0.3480645366	 0.9210291029	 0.104852
H	-2.3942485027	 0.9597975373	 1.2401142142	 0.090357
H	-3.1121274568	-0.6399532209	 1.3317305709	 0.114077
H	-1.2342587699	-1.4035038543	 2.8378674089	 0.131475
H	-0.5599662507	 0.2356846782	 2.8137509798	 0.112995
H	-2.1509343337	-0.0558429195	 3.5122076448	 0.114351
H	-3.1877031791	-0.6204835682	-1.0527410685	 0.111878
H	-2.3660378221	 0.9228697025	-1.1251875677	 0.102875
H	-0.6599865554	-0.0461719974	-2.7234539941	 0.121823
H	-1.4777536254	-1.6114100853	-2.6440916869	 0.122855
H	-2.3081142324	-0.2145439676	-3.3245216507	 0.120184
H	-0.4075945647	-2.4791634121	-0.5291957547	 0.071972
49.0592	80.376	102.5476	115.9682	172.1505	211.389	224.4442	241.0485	273.4911	300.6487	321.3696	322.8114	393.9586	404.4719	484.7	597.7811	720.1642	758.1911	782.5146	798.082	875.7792	926.0619	965.4456	1004.7928	1021.5218	1032.9116	1057.3323	1057.6094	1098.9942	1111.3879	1184.7824	1205.8205	1235.992	1296.4733	1312.3477	1333.8402	1363.3137	1377.2459	1394.4982	1410.3948	1413.3814	1417.4662	1438.6604	1473.735	1484.4493	1493.822	1499.4061	1501.2504	1505.049	1506.5756	1510.4107	1517.3307	1822.082	2850.4415	3028.2551	3030.6333	3037.6769	3039.1042	3041.0408	3043.5414	3057.3855	3065.2184	3080.0417	3103.2012	3104.9275	3106.2942	3109.153	3112.8903	3118.429
CCC(CC)(CC)C=O	CCC(CC)(CC)C=O	
InChI=1S/C8H16O/c1-4-8(5-2,6-3)7-9/h7H,4-6H2,1-3H3	InChI=1S/C8H16O/c1-4-8(5-2,6-3)7-9/h7H,4-6H2,1-3H3
