20
gdb 72888	3.00026	1.43895	1.18608	2.1342	79.37	-0.2407	0.0566	0.2973	1115.1739	0.171062	-403.088022	-403.079742	-403.078798	-403.121078	32.18	
C	-0.5190757496	 1.5449203162	-0.0768057146	-0.499471
C	 0.0190098474	 0.134355268	-0.018871323	 0.304091
C	-0.9630579213	-1.0187917772	 0.2986053478	-0.118507
O	-0.1379638777	-1.508932978	 1.3839258326	-0.292532
C	 0.8406986153	-0.475041008	 1.1638845836	-0.034013
C	 1.927194452	-0.8880150325	 0.1685553353	 0.369867
C	 3.381376812	-0.9693443129	 0.4306582808	-0.312149
N	 2.5934495938	-2.1824096089	 0.1483105533	-0.353483
C	 1.1485005999	-0.2840740785	-1.0116023316	-0.376239
H	 0.2930165932	 2.2797659737	-0.0901899703	 0.119563
H	-1.1157848659	 1.6989170065	-0.9841960084	 0.122426
H	-1.1594356262	 1.7650550949	 0.7841486421	 0.121056
H	-1.9455793778	-0.6965163308	 0.6671653518	 0.099024
H	-1.1036876543	-1.767557461	-0.4907562544	 0.103959
H	 1.1263962927	 0.0336294522	 2.0903635544	 0.068361
H	 4.0906598131	-0.6962411679	-0.3468747511	 0.116818
H	 3.7276962827	-0.7851370367	 1.4455209851	 0.110739
H	 2.3768300228	-2.6887198932	 1.0046887923	 0.238796
H	 0.8609305944	-0.9925633081	-1.7931861347	 0.108708
H	 1.6485904535	 0.571266822	-1.4762061911	 0.102985
43.7263	204.4034	214.1798	230.3989	260.25	308.1044	363.5213	389.7223	499.6483	530.4254	651.5231	765.3466	811.3437	843.822	877.88	898.5948	917.1185	945.687	963.9935	983.4248	996.6284	1013.5019	1029.389	1055.9251	1115.6998	1140.5897	1148.0626	1159.4484	1186.2611	1221.3963	1245.7323	1250.2147	1273.0055	1292.5184	1316.0576	1374.4995	1411.0752	1418.144	1476.1923	1493.4208	1493.9246	1511.8534	1522.2241	3006.8044	3022.5889	3047.9122	3054.3322	3057.3354	3085.1206	3096.0598	3096.6104	3102.9222	3180.4643	3488.653
CC12COC1C1(CN1)C2	C[C@]12CO[C@H]1[C@]1(CN1)C2	
InChI=1S/C7H11NO/c1-6-2-7(3-8-7)5(6)9-4-6/h5,8H,2-4H2,1H3	InChI=1S/C7H11NO/c1-6-2-7(3-8-7)5(6)9-4-6/h5,8H,2-4H2,1H3/t5-,6+,7-/m1/s1
