23
gdb 92500	2.76467	1.3201	1.11019	1.774	84.71	-0.2388	0.0775	0.3163	1230.9249	0.206461	-388.301574	-388.292697	-388.291753	-388.334906	34.944	
C	-0.2119795444	 1.4971091768	 0.0262161064	-0.406229
C	 0.0868992171	 0.00024803	 0.0634903448	 0.054314
C	 0.7549151539	-0.5545016373	-1.2150448096	-0.24089
C	 1.3387845673	-1.9130235075	-0.7900719367	-0.111965
C	 2.8665059161	-2.0970038959	-0.8571270518	-0.094047
O	 3.012262192	-1.8698983653	 0.5588252817	-0.333462
C	 1.5652153482	-1.8247830339	 0.7499474421	 0.45682
C	 1.0972503343	-2.9771823988	 1.6184155865	-0.453118
C	 1.0529066562	-0.4366701516	 1.185764068	-0.277737
H	 0.7097639819	 2.0743020015	-0.1127777469	 0.114196
H	-0.8910518228	 1.7489783441	-0.7955680113	 0.111263
H	-0.678646156	 1.8351538174	 0.9575220902	 0.112961
H	-0.8608451325	-0.5396780018	 0.2066075638	 0.069452
H	 0.0564930199	-0.6288784266	-2.0538987261	 0.094741
H	 1.5583664222	 0.1256693487	-1.5270104776	 0.096185
H	 0.7462980746	-2.7601711917	-1.1415605468	 0.069779
H	 3.2037203589	-3.1021239469	-1.1425278213	 0.094194
H	 3.4150543765	-1.3578733927	-1.4550778031	 0.094616
H	 1.528174372	-2.8938647031	 2.6218365492	 0.12528
H	 0.0055657068	-2.973320518	 1.7149553917	 0.112005
H	 1.4037384353	-3.9385457947	 1.1950162374	 0.11508
H	 1.9096387417	 0.2447422307	 1.2336770141	 0.106978
H	 0.5767658808	-0.4431171635	 2.1711729553	 0.089583
73.3537	115.9774	233.8891	243.9442	254.3922	281.6623	333.383	393.5207	415.9769	438.278	511.5359	581.9938	694.7558	799.502	840.8664	861.2243	889.3633	897.0503	927.0122	934.0099	962.4388	1003.3235	1022.269	1026.4349	1080.7762	1084.6927	1123.8575	1151.5037	1170.435	1173.2107	1200.1577	1226.4375	1256.1646	1274.5561	1289.2438	1318.625	1341.6661	1351.5344	1359.3671	1384.403	1404.4574	1413.4113	1480.2065	1486.7626	1490.2123	1496.3887	1498.6865	1502.5352	1525.7025	2990.7441	3003.0996	3022.3122	3025.6197	3027.8638	3042.1811	3043.6368	3074.6298	3087.4654	3090.9523	3095.0192	3095.9109	3098.6557	3106.7901
CC1CC2COC2(C)C1	C[C@H]1C[C@H]2CO[C@@]2(C)C1	
InChI=1S/C8H14O/c1-6-3-7-5-9-8(7,2)4-6/h6-7H,3-5H2,1-2H3	InChI=1S/C8H14O/c1-6-3-7-5-9-8(7,2)4-6/h6-7H,3-5H2,1-2H3/t6-,7-,8-/m0/s1
