18
gdb 115554	2.62509	1.14801	1.0924	4.6913	73.19	-0.2764	0.0066	0.283	1225.7481	0.145175	-439.06658	-439.056927	-439.055982	-439.10172	33.86	
C	 0.1207157765	 1.4689307829	-0.0660902804	-0.245629
O	-0.2998754025	 0.1575129107	-0.3916930022	-0.238706
C	 0.5948313415	-0.52256177	-1.2155906985	 0.038089
C	 1.7863840409	-1.2397829142	-0.5390387963	-0.106792
O	 1.2770507055	-2.5365191568	-0.9260048249	-0.302441
C	 0.1096976425	-1.9670762005	-1.5646806129	 0.222422
C	-1.1892151991	-2.4367649401	-0.9251182837	-0.425796
C	 0.1223289633	-2.2469835921	-3.0105684615	 0.26277
N	 0.1311708874	-2.4469582546	-4.1487782497	-0.337386
H	 1.0595090356	 1.4679678097	 0.5063781286	 0.116301
H	 0.2626870487	 2.0796663358	-0.9697931972	 0.119135
H	-0.665695506	 1.9134676835	 0.5466900166	 0.140388
H	 0.8661436766	 0.0804113314	-2.0913866815	 0.099441
H	 2.7760291916	-1.0467831287	-0.9662547515	 0.117969
H	 1.8188074799	-1.1230887965	 0.5500848387	 0.114309
H	-1.1959527884	-2.1634926629	 0.1302846383	 0.141149
H	-2.0499285955	-1.9748933237	-1.4155023435	 0.141908
H	-1.2663196385	-3.5226908439	-1.0225423186	 0.142869
47.8287	85.7728	141.8436	181.1401	188.6342	203.8683	220.8309	314.5024	376.5711	407.5326	452.2821	554.7078	591.2127	638.3134	820.946	879.8092	920.7498	929.1277	1020.6443	1038.1048	1059.6827	1127.8261	1156.7188	1173.8979	1182.1697	1183.6126	1208.1948	1249.5817	1279.5706	1332.0816	1395.789	1410.2017	1478.2809	1479.105	1483.7319	1490.8643	1507.9463	1510.5535	2353.0986	2986.8542	3025.03	3031.2258	3040.3048	3057.8499	3085.5338	3129.9516	3133.4934	3156.9807
COC1COC1(C)C#N	CO[C@H]1CO[C@]1(C)C#N	
InChI=1S/C6H9NO2/c1-6(4-7)5(8-2)3-9-6/h5H,3H2,1-2H3	InChI=1S/C6H9NO2/c1-6(4-7)5(8-2)3-9-6/h5H,3H2,1-2H3/t5-,6+/m0/s1
