19
gdb 26272	3.51881	1.10708	1.03164	2.488	83.3	-0.2467	-0.033	0.2137	1251.7048	0.160904	-382.136465	-382.127919	-382.126975	-382.17072	31.565	
C	-0.2204200562	 1.5926412619	-0.1204858316	-0.3939
C	 0.0129159683	 0.073857742	-0.0377171699	-0.061238
C	-1.2987696369	-0.6796862571	 0.2445035778	-0.393902
C	 0.6976776956	-0.4512466307	-1.2838465605	 0.326638
N	 1.909949711	-1.0013255233	-1.1275892123	-0.308751
C	 2.5106222168	-1.4627595965	-2.2258002529	 0.069055
N	 2.0452073146	-1.4424479083	-3.4739608906	-0.25203
C	 0.8351846589	-0.8916749593	-3.6192585015	 0.021139
C	 0.114147724	-0.3781608981	-2.5523026239	-0.164365
H	 0.7167861232	 2.1299771868	-0.293005061	 0.125957
H	-0.9110919099	 1.8498642957	-0.9310557586	 0.115052
H	-0.6556356842	 1.9601463045	 0.8142053361	 0.119012
H	 0.7099035247	-0.1251879006	 0.782283638	 0.098436
H	-2.034726251	-0.5177875391	-0.5507144016	 0.115052
H	-1.1276983733	-1.7567472427	 0.3312360123	 0.125955
H	-1.7421756152	-0.3295463135	 1.1820072111	 0.119013
H	 3.4939137484	-1.9064571934	-2.0837079497	 0.117588
H	 0.4337192331	-0.8635784728	-4.630060619	 0.116934
H	-0.8647512218	 0.0621253044	-2.7027302923	 0.104356
21.0685	119.9458	206.7117	221.8797	256.3143	298.1181	303.7578	379.9347	473.6861	567.6445	582.6789	689.3826	775.3327	821.456	869.2773	906.3075	933.372	967.5506	990.794	1008.2394	1024.0211	1068.8574	1101.7397	1118.474	1172.9909	1200.7964	1231.9105	1278.7471	1313.7036	1352.5823	1372.0655	1397.4788	1416.7552	1424.1442	1485.7989	1489.8727	1498.233	1501.7454	1514.3049	1592.1876	1621.3345	3030.8944	3034.1769	3060.2937	3097.2688	3105.7216	3109.9085	3111.8465	3152.1408	3157.8768	3197.4399
CC(C)C1=NC=NC=C1	CC(C)c1ncncc1	
InChI=1S/C7H10N2/c1-6(2)7-3-4-8-5-9-7/h3-6H,1-2H3	InChI=1S/C7H10N2/c1-6(2)7-3-4-8-5-9-7/h3-6H,1-2H3
