27
gdb 112809	2.19948	1.06924	0.87277	0.1008	95.83	-0.2715	0.0757	0.3473	1550.1425	0.251508	-353.56042	-353.549504	-353.54856	-353.596111	41.124	
C	-0.0564211844	 1.4883419288	-0.503043415	-0.384844
C	-0.0558419187	-0.0439116613	-0.4722019258	-0.182567
C	-1.329667933	-0.6197903643	 0.1512453201	 0.005576
C	-2.6052764173	-0.5412674475	-0.7413430729	-0.243252
C	-2.5472490824	-2.079868596	-0.9789935337	 0.017446
C	-2.1049449923	-2.4811593696	-2.3850429635	-0.40675
C	-1.4866726843	-2.17870651	 0.1747341295	 0.021834
C	-0.264486459	-3.0843877095	 0.0449820333	-0.192847
C	-0.604036211	-4.5731306933	 0.1879980615	-0.388479
H	 0.8590489137	 1.8785556266	-0.9588915594	 0.108702
H	-0.9045242932	 1.8768662416	-1.0771727272	 0.117185
H	-0.1279486387	 1.9015110528	 0.5094341819	 0.112239
H	 0.0747988664	-0.4263223524	-1.4920809007	 0.094569
H	 0.8164063251	-0.3917143061	 0.0957092444	 0.093219
H	-1.455159271	-0.1648415306	 1.1407378869	 0.056535
H	-3.4962480636	-0.2205341526	-0.1952445624	 0.092273
H	-2.5202436142	 0.0759353369	-1.6419934623	 0.088687
H	-3.4830845921	-2.5993847573	-0.749636673	 0.061505
H	-1.1782347858	-1.9822842049	-2.6868240515	 0.117409
H	-1.9433697566	-3.5608567431	-2.4729603345	 0.113929
H	-2.8743569846	-2.2025817179	-3.1141930378	 0.110893
H	-2.0097306779	-2.4558123833	 1.0984922921	 0.061566
H	 0.2415930343	-2.9141935789	-0.9124579669	 0.09367
H	 0.4625373029	-2.8094872055	 0.8208803736	 0.091821
H	-1.0528161324	-4.7816561146	 1.1658365755	 0.112066
H	-1.3187019212	-4.8976782061	-0.5754238377	 0.118653
H	 0.2901210314	-5.1973012517	 0.0921217756	 0.108959
80.9349	104.0024	127.4314	134.5532	190.0591	216.0706	238.101	263.5002	264.1678	305.6421	342.2896	386.8774	491.3802	507.5645	713.3699	752.3184	781.3703	801.9218	811.1031	851.739	910.0661	941.922	950.2494	985.3103	1001.7317	1031.2565	1041.295	1052.3398	1063.9754	1120.842	1129.0796	1169.4446	1191.2163	1195.2708	1236.8832	1262.1898	1273.3388	1283.9837	1292.0253	1309.8237	1340.0559	1345.596	1369.908	1391.7099	1394.6905	1409.5422	1412.5399	1414.6597	1478.9819	1483.4231	1493.0479	1494.6919	1499.5042	1499.7743	1501.2998	1507.2628	1509.7325	3009.2484	3015.7129	3022.4636	3027.0849	3028.2261	3029.722	3030.9505	3039.9553	3047.9668	3052.1255	3058.8516	3090.0874	3094.4136	3096.0165	3097.4023	3100.4402	3101.5946	3104.0169
CCC1CC(C)C1CC	CC[C@H]1C[C@@H](C)[C@H]1CC	
InChI=1S/C9H18/c1-4-8-6-7(3)9(8)5-2/h7-9H,4-6H2,1-3H3	InChI=1S/C9H18/c1-4-8-6-7(3)9(8)5-2/h7-9H,4-6H2,1-3H3/t7-,8+,9-/m1/s1
