19
gdb 114885	4.12805	1.03265	0.89889	2.431	78.43	-0.227	0.0087	0.2357	1302.4646	0.159501	-422.986479	-422.978109	-422.977164	-423.019794	31.469	
O	 0.078995378	 1.28008875	-0.2588858425	-0.42057
C	-0.0052380407	-0.0836672198	 0.1260661944	-0.093555
C	-1.4605430409	-0.4943488056	 0.03887174	-0.060701
C	-2.1405901432	-0.6484046948	-1.3787735826	-0.267674
C	-2.8827702679	-1.9203080938	-0.8258260875	 0.094873
O	-2.8695734021	-3.1822101836	-1.4637983964	-0.280936
C	-2.0833755626	-4.0707285124	-0.6460813992	-0.10539
C	-1.2777831952	-3.1691110214	 0.2808921191	-0.245192
C	-1.8142208167	-1.9562653459	 0.2167876555	 0.202868
H	 1.0035383205	 1.5433827783	-0.2376555405	 0.288786
H	 0.5949175606	-0.7292673082	-0.5343611086	 0.087827
H	 0.3584772589	-0.2340196746	 1.155870324	 0.089753
H	-2.061687217	 0.1696220456	 0.6695498568	 0.095586
H	-2.7542031787	 0.1839487331	-1.728017049	 0.107163
H	-1.4047697077	-0.9259178645	-2.1367290818	 0.114668
H	-3.8977987346	-1.6684584309	-0.4872570692	 0.078353
H	-2.7444956008	-4.7747381346	-0.1149009999	 0.102856
H	-1.429217844	-4.6646388293	-1.2980762117	 0.11032
H	-0.359599166	-3.4865288578	 0.7585672691	 0.100965
83.6145	114.2581	133.4507	220.6636	254.1559	312.6412	361.5352	420.9512	448.8906	664.1813	703.3279	738.0765	795.0724	809.3615	870.5156	919.1653	925.051	961.85	980.5211	1014.7351	1033.6458	1073.0041	1078.1509	1115.987	1125.4983	1143.2431	1184.4153	1197.2787	1230.7461	1240.1407	1258.6552	1266.8327	1294.1822	1342.7491	1351.5664	1388.0182	1460.2805	1469.7062	1517.8284	1522.3882	1723.4086	2963.1905	2969.235	2994.681	2999.471	3028.0334	3053.4644	3070.7143	3139.7365	3212.7385	3831.8138
OCC1CC2OCC=C12	OC[C@H]1C[C@H]2OC[CH][C]12	
InChI=1S/C7H10O2/c8-4-5-3-7-6(5)1-2-9-7/h1,5,7-8H,2-4H2	InChI=1S/C7H10O2/c8-4-5-3-7-6(5)1-2-9-7/h1,5,7-8H,2-4H2/t5-,7-/m1/s1
