25
gdb 108671	2.23349	1.31082	0.91295	0.0377	96.28	-0.2157	0.0353	0.251	1412.1054	0.230014	-352.393291	-352.383369	-352.382425	-352.427939	37.928	
C	 0.0651549331	 1.6132268091	 0.1192302797	-0.367633
C	 0.0322400142	 0.0738992357	 0.1175197695	-0.279864
C	-1.366775939	-0.4939283333	-0.0171164654	 0.222678
C	-1.9262778783	-0.8526281831	-1.1834949169	 0.212333
C	-1.2596293871	-0.7111191885	-2.5292606315	-0.482079
C	-3.3233366644	-1.4383264842	-1.2657792232	-0.265648
C	-3.8914454356	-1.889377306	 0.0828081957	-0.201882
C	-3.6169228886	-0.8290401007	 1.1499339782	-0.202559
C	-2.1082356638	-0.6184475179	 1.3016021256	-0.275451
H	 1.0808823362	 1.9856666685	 0.2885318371	 0.108626
H	-0.2883618296	 2.012055048	-0.8368144773	 0.118057
H	-0.5760564925	 2.025298369	 0.9053891144	 0.116206
H	 0.6884585385	-0.2987365399	-0.674180232	 0.098574
H	 0.4642501831	-0.2878960236	 1.060167487	 0.093029
H	-1.0928095126	-1.6939259251	-2.9907347998	 0.118003
H	-1.9098284632	-0.157331387	-3.2196636379	 0.118242
H	-0.3022286629	-0.1901503522	-2.4919863466	 0.118635
H	-3.9938682757	-0.6932102192	-1.7227396395	 0.0992
H	-3.3145344452	-2.2809242817	-1.9710463222	 0.093334
H	-4.9645132866	-2.0910302439	-0.0069192624	 0.087136
H	-3.4169952991	-2.8330292787	 0.3828424488	 0.094187
H	-4.0902762969	 0.1156998953	 0.8514418953	 0.093934
H	-4.0583471486	-1.1134858263	 2.1114833209	 0.086871
H	-1.6718955455	-1.4523516999	 1.8741393219	 0.100218
H	-1.9133297999	 0.2751562655	 1.9096278308	 0.095855
77.7092	105.752	139.2406	143.1839	217.0807	230.6329	309.1006	341.7969	365.4085	397.7407	448.7136	482.2789	569.4155	595.8672	681.8513	782.8146	833.5576	855.5449	879.4184	905.4658	927.7834	966.2506	1014.7487	1036.5258	1044.2764	1070.9639	1089.8267	1111.7591	1149.0189	1155.4547	1167.0221	1198.6546	1235.5809	1273.304	1299.3155	1299.5753	1350.8097	1371.9354	1373.0198	1381.834	1388.0278	1408.0386	1412.3374	1472.655	1476.0178	1482.628	1484.9035	1490.8035	1498.6784	1499.4896	1502.8509	1515.0487	1736.6237	2981.5034	2982.2776	3010.4179	3012.9406	3015.6407	3020.0522	3027.7472	3030.8178	3033.6713	3050.7205	3064.4402	3068.6278	3073.756	3101.4837	3107.5296	3134.3393
CCC1=C(C)CCCC1	CCC1=C(C)CCCC1	
InChI=1S/C9H16/c1-3-9-7-5-4-6-8(9)2/h3-7H2,1-2H3	InChI=1S/C9H16/c1-3-9-7-5-4-6-8(9)2/h3-7H2,1-2H3
