21
gdb 38347	2.15571	2.03027	1.26845	0.7005	91.33	-0.2096	-0.02	0.1895	1064.1027	0.186214	-349.949243	-349.941725	-349.940781	-349.981034	30.81	
C	 0.0049528865	 1.5176545536	 0.2421024024	-0.246029
C	 1.5446950167	 1.3803473766	 0.085565033	 0.014881
C	 1.4134048239	-0.1631140875	 0.2058133445	-0.246371
C	-0.1441681506	-0.0353705087	 0.0955830506	-0.033631
C	-0.7439074308	-0.5082402714	-1.187026399	-0.101949
C	-0.3940287976	-0.19013493	-2.4458106063	-0.062824
C	 0.634445297	 0.6741235744	-3.0221807137	-0.076385
C	 1.609577528	 1.4811395735	-2.5607326302	-0.055757
C	 2.1356515686	 1.9030163032	-1.2155275732	-0.278856
H	-0.299676027	 1.8772145768	 1.2282436902	 0.094705
H	-0.506349431	 2.1112424768	-0.5191736462	 0.107602
H	 2.1103571498	 1.8373763475	 0.9031647	 0.065053
H	 1.8926053819	-0.7507479495	-0.5805762614	 0.107764
H	 1.7345198619	-0.5505706246	 1.1760501354	 0.094687
H	-0.6759210956	-0.4986961719	 0.9291872106	 0.064802
H	-1.5760029812	-1.2019661132	-1.0875778247	 0.084509
H	-0.9909197911	-0.6701943675	-3.2192381101	 0.081053
H	 0.5885554287	 0.6511665781	-4.1102977089	 0.080186
H	 2.1806159	 1.9683346514	-3.3518771781	 0.086853
H	 2.0943156013	 3.0044763648	-1.1939383456	 0.109938
H	 3.2145853804	 1.6766599674	-1.2172811395	 0.109768
86.227	223.6766	228.0793	303.6393	317.4321	376.8176	466.7552	562.902	677.6014	689.1907	692.7761	780.589	786.4678	798.3612	805.4134	839.7145	890.039	907.9106	957.7414	964.7674	1005.3456	1027.6668	1036.565	1088.1329	1091.2215	1096.2547	1128.8583	1162.8708	1205.4828	1243.3278	1263.2034	1274.5845	1300.9039	1310.8002	1324.8383	1372.2353	1377.1825	1408.6911	1444.5265	1448.9314	1473.9695	1474.1881	1495.4098	1675.2728	1701.2345	2972.7541	2990.5921	3046.2156	3057.5408	3062.0559	3074.0008	3103.1002	3114.2838	3117.0734	3122.2186	3136.3154	3154.6086
C1C2CC1C=CC=CC2	C1[C@H]2C[C@@H]1C=CC=CC2	
InChI=1S/C9H12/c1-2-4-8-6-9(7-8)5-3-1/h1-4,8-9H,5-7H2/b3-1-,4-2-	InChI=1S/C9H12/c1-2-4-8-6-9(7-8)5-3-1/h1-4,8-9H,5-7H2/b3-1-,4-2-/t8-,9+
