16
gdb 97634	3.19192	0.66756	0.57866	1.8349	74.73	-0.2746	0.0051	0.2797	1843.3746	0.122293	-437.849619	-437.839381	-437.838437	-437.886933	34.548	
O	 0.1909597845	 1.2732657878	-0.5657442304	-0.396113
C	 0.0326781263	 0.0778866258	 0.1801320746	-0.198629
C	-1.3284074347	-0.4612206313	 0.1356089793	 0.11196
C	-2.4676502839	-0.8485999178	 0.1060887651	 0.039634
C	-3.823956526	-1.3847614932	 0.0450009161	-0.33368
C	-3.8246067542	-2.9418673531	-0.1005367388	-0.064248
O	-5.1242617473	-3.4536964558	-0.2284531912	-0.406523
C	-4.6179487652	-1.0196790453	 1.2292954671	 0.275645
N	-5.265579395	-0.7964691582	 2.1599352727	-0.322599
H	-0.4462469187	 1.9133044244	-0.2312720463	 0.292137
H	 0.7317769489	-0.6430236333	-0.2574812444	 0.14767
H	 0.3309627273	 0.2109592621	 1.2319177754	 0.128307
H	-4.3471507044	-0.9847244022	-0.8333095413	 0.165502
H	-3.287455809	-3.1874614508	-1.0196339479	 0.137028
H	-3.2759400748	-3.3740966617	 0.7465203416	 0.121061
H	-5.5751701339	-3.3612408072	 0.6188816084	 0.302846
19.3863	77.0354	83.6807	118.2057	157.8938	208.3049	249.1742	334.5591	346.6494	386.331	391.4151	477.198	516.9571	572.0892	601.8502	804.7503	849.6687	983.2342	1017.0458	1024.5306	1056.0178	1095.3185	1158.2337	1195.9971	1216.8443	1269.4361	1330.3502	1365.3965	1388.724	1412.8663	1417.4916	1487.4946	1502.8526	2356.9641	2368.241	2984.8215	3020.7656	3036.7872	3068.5914	3112.2696	3799.3501	3815.8209
OCC#CC(CO)C#N	OCC#C[C@@H](CO)C#N	
InChI=1S/C6H7NO2/c7-4-6(5-9)2-1-3-8/h6,8-9H,3,5H2	InChI=1S/C6H7NO2/c7-4-6(5-9)2-1-3-8/h6,8-9H,3,5H2/t6-/m1/s1
