23
gdb 113794	2.93883	1.00497	0.96059	0.863	86.6	-0.2238	0.0784	0.3021	1402.068	0.204894	-384.412359	-384.402407	-384.401462	-384.447593	37.389	
C	-0.2933795091	 1.7241420779	 0.3960509928	-0.372628
C	 0.0247760026	 0.3045345954	-0.067865591	-0.119694
N	 0.7835787322	-0.3985581202	 0.9618788536	-0.082926
C	 0.0498573971	-1.1743287483	 1.9535886164	-0.264618
C	 0.8950100372	-1.8614539933	 0.9341345996	-0.077734
C	 0.335362611	-2.7528598861	-0.1575788225	 0.332424
C	-1.1458629106	-3.0773898441	-0.1633890972	-0.459405
C	 1.0880922466	-2.7647447535	-1.4464426273	-0.266827
N	 1.1708430131	-3.9150727408	-0.5343637534	-0.36186
H	 0.6258489048	 2.2613281676	 0.6455793272	 0.126219
H	-0.8220074981	 2.2776071266	-0.3862965344	 0.109955
H	-0.928009808	 1.7100734382	 1.2883251745	 0.117214
H	-0.9100417848	-0.2092585352	-0.3430270927	 0.087008
H	 0.6444725626	 0.3379356315	-0.9715353548	 0.103299
H	 0.3845978615	-1.0842249283	 2.9842940452	 0.112329
H	-1.0299204951	-1.2551404329	 1.8380898306	 0.109034
H	 1.8857479228	-2.1866996849	 1.2559924861	 0.082863
H	-1.7662155157	-2.1921161163	-0.3317587644	 0.119247
H	-1.3565311243	-3.7986991106	-0.9567563153	 0.127905
H	-1.4480009431	-3.5263800911	 0.7884683751	 0.122317
H	 0.5630116827	-2.9545636946	-2.3791495708	 0.114477
H	 1.9498054128	-2.1083037691	-1.5387088511	 0.114072
H	 2.0542859118	-3.890826938	-0.0298629962	 0.227329
44.995	71.5747	132.9042	205.698	216.9242	247.872	276.8108	332.7798	359.6577	370.3773	414.8687	459.9667	593.9916	695.7652	739.3996	808.6634	823.4663	860.6943	911.112	922.9441	968.8229	976.7711	988.7594	1040.8955	1057.2154	1090.4051	1096.8469	1106.9702	1118.849	1137.475	1143.4794	1150.5021	1198.5495	1263.6742	1307.0787	1313.6554	1332.6917	1366.1692	1383.6824	1401.0955	1409.0933	1428.0137	1484.2026	1488.6501	1489.2333	1497.2295	1505.0404	1509.9817	1517.4661	2977.3224	3038.1521	3038.6872	3051.8935	3076.2749	3090.128	3101.9005	3104.2135	3107.0384	3119.3935	3122.9714	3171.1503	3186.2987	3489.5228
CCN1CC1C1(C)CN1	CCN1C[C@H]1[C@@]1(C)CN1	
InChI=1S/C7H14N2/c1-3-9-4-6(9)7(2)5-8-7/h6,8H,3-5H2,1-2H3	InChI=1S/C7H14N2/c1-3-9-4-6(9)7(2)5-8-7/h6,8H,3-5H2,1-2H3/t6-,7+,9?/m0/s1
