20
gdb 87805	2.81929	1.36817	1.17476	2.2966	79.19	-0.225	0.0679	0.2929	1138.5586	0.170483	-403.087482	-403.078735	-403.077791	-403.12069	33.831	
C	-0.0640041931	 1.5410092321	-0.0052503462	-0.388469
C	 0.0068510632	 0.0376827295	 0.097837397	-0.077513
N	 1.3509531998	-0.5758631497	-0.0406742219	-0.403263
C	 0.6458253743	-0.6574949223	 1.2365662768	 0.392552
C	 1.2610780357	-0.1215824539	 2.5421124957	-0.303946
C	 0.8196141384	-1.4186266885	 3.2438345693	-0.095623
C	-0.6501971332	-1.6205677987	 3.1082110828	 0.111901
O	-1.507099523	-0.5156267151	 3.1519248171	-0.421056
C	 0.2122714923	-1.9425274633	 1.9160651103	-0.237329
H	 0.8071649053	 1.9983752601	 0.4707294277	 0.127838
H	-0.0845428287	 1.8643346349	-1.0517145026	 0.115798
H	-0.9655798066	 1.9212159997	 0.487583431	 0.114941
H	-0.8190087245	-0.4937073357	-0.3770214218	 0.068828
H	 1.2886322119	-1.4626002298	-0.5366286975	 0.223979
H	 2.3460117789	-0.03567664	 2.4558214536	 0.113112
H	 0.8435142669	 0.8027651846	 2.9477726192	 0.111737
H	 1.4034449036	-1.9538607749	 3.9825925404	 0.090639
H	-1.0275376788	-2.5022875228	 3.6288310324	 0.086708
H	-2.2037354168	-0.6525952722	 2.5018057174	 0.286058
H	 0.2490769846	-2.9330609341	 1.4734747994	 0.083109
80.8988	143.5763	179.09	200.0436	238.5621	270.7632	357.6378	409.0816	454.9785	506.6299	555.5592	637.8565	727.7429	785.725	807.4246	833.3492	890.2744	919.8904	959.9046	974.7417	994.1182	1010.825	1030.0431	1043.8955	1070.7985	1073.7494	1103.6021	1125.4574	1167.9152	1204.6572	1226.8991	1245.126	1256.6182	1285.0352	1306.9216	1319.845	1365.1124	1410.7984	1443.3473	1469.4949	1481.6467	1490.8206	1505.7916	3032.1026	3069.0256	3090.2877	3090.7568	3093.9275	3122.7661	3126.8519	3158.0643	3187.0776	3483.6524	3812.4833
CC1NC11CC2C(O)C12	C[C@H]1N[C@]21C[C@H]1[C@@H](O)[C@@H]21	
InChI=1S/C7H11NO/c1-3-7(8-3)2-4-5(7)6(4)9/h3-6,8-9H,2H2,1H3	InChI=1S/C7H11NO/c1-3-7(8-3)2-4-5(7)6(4)9/h3-6,8-9H,2H2,1H3/t3-,4-,5+,6-,7+/m1/s1
