22
gdb 81940	2.08734	1.7921	1.08876	1.3432	89.12	-0.2143	0.027	0.2412	1198.1206	0.194061	-367.212846	-367.203494	-367.20255	-367.246372	35.939	
C	-0.1517912743	 1.5439330517	-0.0275312129	-0.394524
C	 0.0156910645	 0.0173287937	 0.0038758567	-0.068999
C	 0.8259443922	-0.5265299688	-1.1708740614	-0.054572
N	 2.2170302967	-0.0202648959	-1.2274465261	-0.33763
C	 1.9234145311	-1.3563049245	-0.624185162	-0.141317
C	 1.8095080611	-1.2989174453	 0.867041748	 0.250697
C	 2.7964514293	-2.0124569657	 1.7371581405	-0.507361
C	 0.7759823215	-0.5165644297	 1.2200254435	 0.206364
C	 0.3431925092	-0.1361491014	 2.6020523079	-0.498512
H	 0.8282568096	 2.0267620471	-0.0621280727	 0.137088
H	-0.7169994697	 1.8521867893	-0.9135123314	 0.106576
H	-0.6928738545	 1.9073909837	 0.8515738326	 0.107936
H	-0.9873829801	-0.4373713079	-0.0162269284	 0.070096
H	 0.3261947999	-0.7680112767	-2.1032967382	 0.079656
H	 2.5611749287	-0.1620562428	-2.1764517083	 0.222533
H	 2.304054045	-2.2433763577	-1.1218464516	 0.078923
H	 3.8095035803	-1.618276337	 1.5839857273	 0.131973
H	 2.5611355232	-1.9242458111	 2.8004159366	 0.121335
H	 2.8375835549	-3.0817816182	 1.4921824245	 0.119482
H	 0.9073985243	-0.6646311017	 3.3740170904	 0.120404
H	 0.4679542694	 0.9393216017	 2.7801712924	 0.130784
H	-0.7221576024	-0.3545950928	 2.7546014426	 0.119066
109.2313	150.5922	171.1105	189.7241	231.7697	240.1699	262.5387	294.4286	383.1203	472.8453	497.6153	572.1945	613.8204	675.3108	726.4404	806.341	852.552	875.3901	894.1913	923.0728	975.6578	1008.7547	1037.9672	1058.3439	1071.6955	1096.1024	1104.0143	1125.7911	1139.6384	1178.6703	1193.9996	1242.116	1268.1204	1318.7436	1342.2767	1372.3774	1397.352	1406.7072	1417.716	1423.7667	1478.2626	1481.7828	1485.6543	1492.3746	1499.7938	1504.8808	1724.0418	2976.8038	3014.3275	3016.547	3036.3498	3057.8001	3059.2923	3098.7499	3111.9528	3118.5715	3124.273	3149.9454	3162.4105	3466.8505
CC1C2NC2C(C)=C1C	C[C@H]1[C@H]2N[C@H]2C(=C1C)C	
InChI=1S/C8H13N/c1-4-5(2)7-8(9-7)6(4)3/h5,7-9H,1-3H3	InChI=1S/C8H13N/c1-4-5(2)7-8(9-7)6(4)3/h5,7-9H,1-3H3/t5-,7-,8+/m1/s1
