17
gdb 6110	2.98043	1.81031	1.48095	2.9161	64.92	-0.2483	0.0206	0.2689	917.7384	0.140052	-401.025094	-401.01627	-401.015326	-401.058052	32.235	
C	 0.0125546362	 1.504075203	 0.0154545952	-0.413182
C	-0.0363253529	-0.0199440223	 0.0356460206	 0.302837
C	-1.4297021019	-0.5657064726	-0.2566817619	-0.433171
N	 1.0265277322	-0.6541045162	-0.7912534214	-0.363066
C	 1.7885699118	-1.0861169014	 0.2572510614	 0.399771
O	 2.9009187242	-1.5386615413	 0.3591523452	-0.378636
C	 0.6992466832	-0.6687348659	 1.2706386698	-0.063118
O	 1.1252925862	 0.1968220428	 2.2884072386	-0.428688
H	 1.0129494061	 1.8679121424	 0.2566047756	 0.126994
H	-0.2740658738	 1.8837637146	-0.9714810814	 0.10978
H	-0.6821921709	 1.9173456733	 0.7523492176	 0.131358
H	-1.7735933051	-0.2518741918	-1.2484144589	 0.117449
H	-1.4366943714	-1.6591344808	-0.2262908252	 0.12206
H	-2.1498133624	-0.1929898669	 0.4786355912	 0.128435
H	 1.2634517214	-0.5390283843	-1.7674177917	 0.246366
H	 0.138195026	-1.5200181562	 1.678999519	 0.092343
H	 2.0567379012	 0.0059810036	 2.4512328364	 0.302468
74.456	179.3433	185.5009	205.8812	230.079	255.9286	316.1446	338.171	381.8759	439.6703	520.3359	566.2914	623.3167	739.7825	801.5941	855.9218	919.0899	949.5097	979.3963	1013.007	1125.2398	1135.6248	1186.5965	1222.7988	1252.4062	1274.8397	1352.8139	1365.5792	1384.2666	1405.9741	1424.1231	1476.0989	1481.9526	1499.5556	1502.4846	1885.0757	3015.8854	3032.8743	3040.7825	3099.9462	3108.3264	3114.7215	3136.5626	3585.8061	3790.2384
CC1(C)NC(=O)C1O	CC1(C)NC(=O)[C@H]1O	
InChI=1S/C5H9NO2/c1-5(2)3(7)4(8)6-5/h3,7H,1-2H3,(H,6,8)	InChI=1S/C5H9NO2/c1-5(2)3(7)4(8)6-5/h3,7H,1-2H3,(H,6,8)/t3-/m1/s1
