17
gdb 29397	4.88157	0.87168	0.75537	2.4257	80.14	-0.1999	0.0113	0.2112	1479.7391	0.136081	-418.040801	-418.03195	-418.031006	-418.075001	32.028	
C	-0.4183408746	 1.3142466121	 0.3409248555	-0.498719
C	-0.0747944943	-0.1042302062	 0.0004849585	 0.294031
C	 0.2421935512	-0.5920827366	-1.2441754207	-0.177127
N	 0.4958403252	-1.9441593917	-1.1284790469	-0.31374
C	 0.3491374303	-2.308151788	 0.1779958431	 0.398867
O	 0.5949483616	-3.6087110739	 0.5079130953	-0.21148
C	-0.2680562712	-4.208384185	 1.3749968447	 0.109753
N	 0.0214115801	-5.3402547558	 1.8423591613	-0.429605
C	-0.000945378	-1.2049234201	 0.9160510398	-0.373371
H	 0.2760819172	 1.7347172952	 1.0777058696	 0.125974
H	-0.381808269	 1.9508804809	-0.5478956104	 0.119519
H	-1.425248282	 1.3983349443	 0.7666334579	 0.123673
H	 0.3156845887	-0.0936458398	-2.1970965511	 0.118497
H	 0.7520400289	-2.5768191797	-1.8661492751	 0.269526
H	-1.1609765683	-3.6022808031	 1.5640210068	 0.108359
H	-0.7281874634	-5.6667130937	 2.448752244	 0.236052
H	-0.1554212625	-1.1746130388	 1.9832718776	 0.099791
58.9256	110.276	122.387	137.0305	234.3496	296.8116	355.3267	431.5791	455.7505	485.2995	635.3952	645.669	663.4368	709.4413	784.5858	805.721	830.8283	980.7881	1001.837	1005.6521	1053.4735	1059.2027	1065.156	1121.0314	1186.9066	1254.0133	1277.7039	1326.0009	1400.9045	1415.5618	1422.019	1482.0981	1482.7619	1507.2992	1557.7323	1631.9315	1746.8765	3024.1158	3065.7528	3072.1112	3104.9092	3251.3216	3264.8041	3521.5163	3686.4139
CC1=CNC(OC=N)=C1	Cc1c[nH]c(O[CH][NH])c1	
InChI=1S/C6H8N2O/c1-5-2-6(8-3-5)9-4-7/h2-4,7-8H,1H3	InChI=1S/C6H8N2O/c1-5-2-6(8-3-5)9-4-7/h2-4,7-8H,1H3
