14
gdb 43659	3.55047	1.09419	0.86313	0.9982	66.94	-0.2556	-0.1105	0.1451	1228.8765	0.100428	-436.73305	-436.725136	-436.724192	-436.766147	28.558	
O	 0.0049731734	-0.0176121764	 0.1792893795	-0.263878
C	-0.039197988	 1.1786999053	 0.1230030665	 0.313828
C	-1.2712782469	 2.0701176025	 0.0482167262	-0.342016
C	-0.7692669517	 3.4672870904	 0.5077408506	-0.182683
C	 0.7071988159	 3.5463787025	 0.029059771	-0.342011
C	 1.2119069915	 2.1122226257	 0.1109168944	 0.313824
O	 2.3467579432	 1.729728746	 0.1567147046	-0.263879
C	-1.5949643728	 4.5677407159	 0.0233044523	 0.278865
N	-2.2461730908	 5.435341978	-0.3748719903	-0.308994
H	-1.6001649961	 2.1114969445	-0.9979792238	 0.164329
H	-2.1004149054	 1.680436945	 0.6402641264	 0.160207
H	-0.7828617763	 3.4997045602	 1.6033730056	 0.147872
H	 0.748102895	 3.8636689678	-1.0207297625	 0.16433
H	 1.324076149	 4.2357137127	 0.6070829694	 0.160207
86.7969	89.1695	146.5685	254.1434	314.7499	356.7489	465.9259	469.0461	516.9471	546.6388	626.5258	647.6158	705.542	835.3832	902.9556	910.5558	1026.3678	1027.8625	1079.3847	1137.4731	1161.2435	1199.0945	1250.7239	1274.3805	1304.2969	1366.2993	1441.6781	1454.6155	1849.9706	1869.3803	2362.6787	3040.7475	3044.1621	3054.4974	3131.0628	3131.4017
O=C1CC(CC1=O)C#N	O=C1CC(CC1=O)C#N	
InChI=1S/C6H5NO2/c7-3-4-1-5(8)6(9)2-4/h4H,1-2H2	InChI=1S/C6H5NO2/c7-3-4-1-5(8)6(9)2-4/h4H,1-2H2
