20
gdb 12926	3.31887	1.67979	1.39112	1.0143	75.77	-0.235	0.0901	0.3251	1000.8202	0.176329	-348.969186	-348.960697	-348.959753	-349.001841	31.69	
C	 0.1527996511	 1.0728901679	-0.3910856415	-0.234017
O	-0.0697324107	 0.0015365541	 0.5027819874	-0.240533
C	-1.3085189381	-0.610481745	 0.3130940946	 0.095288
C	-1.5524643682	-1.6398665054	-0.7580474949	-0.160443
C	-0.2852706978	-2.4705261138	-0.9889917547	-0.220047
C	-0.2544322496	-2.8367204364	 0.5263344852	-0.269669
C	-1.533989011	-2.0143043584	 0.7547671225	 0.284297
C	-2.6407624879	-2.4176995789	 1.6873552161	-0.496472
H	 1.150615504	 1.4668190147	-0.1833463225	 0.124671
H	 0.1041561124	 0.7453139341	-1.4394272201	 0.110514
H	-0.5835253298	 1.878956341	-0.2477733707	 0.103348
H	-2.1559208278	 0.0579119071	 0.4872796387	 0.074837
H	-2.3936022871	-1.5669028815	-1.4393744651	 0.076878
H	-0.4618595824	-3.3415328096	-1.6233773399	 0.098391
H	 0.58075398	-1.9252891973	-1.3751484562	 0.099018
H	-0.4170172401	-3.9038858502	 0.6974355382	 0.095021
H	 0.6226971819	-2.5137818063	 1.0924111754	 0.106411
H	-2.3167130722	-2.3517568941	 2.7335608823	 0.122574
H	-3.5184836013	-1.7729459851	 1.5728571968	 0.114974
H	-2.9586999753	-3.4507230269	 1.5047885884	 0.114959
94.3978	169.0376	179.8073	197.3766	215.1671	257.0122	292.7032	345.8477	502.8159	563.7209	614.082	767.9626	792.7801	814.6619	885.0137	952.3794	957.9713	971.4822	992.3576	1010.1501	1054.8053	1089.5947	1122.9334	1147.0384	1164.9638	1182.7514	1216.7776	1232.9673	1243.9817	1254.2775	1267.3231	1306.5659	1344.0487	1415.2012	1449.6833	1473.5115	1483.5096	1486.53	1486.7331	1496.4689	1506.342	1515.7602	2979.1769	3017.7741	3030.8176	3054.729	3061.793	3069.5087	3076.1891	3093.316	3100.4175	3115.2683	3118.6154	3163.5132
COC1C2CCC12C	CO[C@H]1[C@H]2CC[C@@]12C	
InChI=1S/C7H12O/c1-7-4-3-5(7)6(7)8-2/h5-6H,3-4H2,1-2H3	InChI=1S/C7H12O/c1-7-4-3-5(7)6(7)8-2/h5-6H,3-4H2,1-2H3/t5-,6+,7-/m1/s1
