14
gdb 35654	4.3446	1.00526	0.87871	1.3462	78.17	-0.2569	-0.0372	0.2196	1271.2343	0.099333	-399.484696	-399.476353	-399.475408	-399.518536	30.196	
C	 0.0152134852	-1.1922621957	 0.0450777389	-0.458778
C	 0.0227613655	 0.0083975008	 0.0129619576	 0.342643
C	-0.0044542402	 1.4666310197	 0.0010942144	-0.187291
C	-0.595231755	 2.083756995	 1.3104116895	-0.125401
O	 0.4134802111	 3.0180205748	 1.7422140803	-0.252743
C	 1.4548128636	 2.8681827754	 0.877284991	 0.264465
N	 1.3509522174	 2.0552380243	-0.0985072734	-0.310623
C	 2.597476156	 3.6717237975	 1.1541617174	 0.274206
C	 3.5557517227	 4.3543489874	 1.3948194235	-0.3513
H	 0.0209219476	-2.254179054	 0.0627510854	 0.204464
H	-0.57628389	 1.7973975741	-0.8753707721	 0.124784
H	-1.5254701806	 2.631121436	 1.1455667394	 0.1295
H	-0.7397207762	 1.337348678	 2.0946623367	 0.135775
H	 4.4084833529	 4.9542855268	 1.5998411113	 0.210299
36.4153	113.2268	146.0217	190.9477	232.6416	366.8282	479.1135	485.9326	550.8987	617.5393	628.2534	659.4076	661.2855	673.4773	698.6679	748.2143	851.4988	944.0728	992.1486	1023.2369	1043.9659	1076.4585	1215.5606	1236.5971	1290.8506	1343.6427	1376.4226	1517.0064	1686.659	2243.1253	2254.3454	3019.6318	3069.5918	3124.8628	3500.6343	3503.1646
C#CC1COC(=N1)C#C	C#C[C@H]1COC(=N1)C#C	
InChI=1S/C7H5NO/c1-3-6-5-9-7(4-2)8-6/h1-2,6H,5H2	InChI=1S/C7H5NO/c1-3-6-5-9-7(4-2)8-6/h1-2,6H,5H2/t6-/m0/s1
