23
gdb 117782	1.99227	1.12569	1.01176	1.3293	88.37	-0.2492	0.0473	0.2965	1412.9977	0.201069	-388.256055	-388.244569	-388.243625	-388.292707	41.82	
C	 0.0389744221	 1.5676457953	-0.1515645766	-0.382431
C	 0.0286026948	 0.0551323812	 0.0094770992	-0.043222
O	 0.6371392329	-0.4944680995	-1.1478120549	-0.289469
C	 0.7214516494	-1.9239847418	-1.2489246842	 0.176809
C	 1.4912537925	-2.5396024601	-0.0619398072	-0.429059
C	-0.6817221226	-2.5733140816	-1.3760753843	-0.202899
C	-1.5400713582	-1.9901218081	-2.4986085133	-0.390544
C	 1.4898979268	-2.1653694919	-2.4799905957	 0.353043
C	 2.1230719753	-2.4073016543	-3.4718769498	-0.475315
H	 1.0641579674	 1.9328965347	-0.2581331226	 0.128189
H	-0.5225785034	 1.8637944455	-1.0420297862	 0.127309
H	-0.4138259131	 2.046326055	 0.7221405671	 0.111813
H	 0.5784018446	-0.228918954	 0.9182534424	 0.09126
H	-1.0048253988	-0.3039557536	 0.1259831406	 0.089644
H	 0.9148251693	-2.466273533	 0.8643742443	 0.115727
H	 1.6881466757	-3.5969856546	-0.2549123118	 0.128313
H	 2.4476733526	-2.0279965765	 0.0709961311	 0.131037
H	-0.5344585038	-3.6478603909	-1.5310154663	 0.105805
H	-1.1952957427	-2.4715966547	-0.4128053583	 0.095295
H	-2.5163045673	-2.4828733507	-2.5331809964	 0.107343
H	-1.7021200748	-0.9184716861	-2.3558634839	 0.125877
H	-1.0555408259	-2.1247475811	-3.4698622712	 0.13142
H	 2.6834410471	-2.606660659	-4.3517280521	 0.194057
47.1173	81.7845	122.4447	130.0366	174.3786	213.0532	237.6906	250.7308	260.2461	262.8182	344.6339	379.4007	431.8073	459.8793	556.2738	593.7017	623.9334	660.0164	702.5915	782.5417	825.1283	866.9819	904.4852	960.869	998.868	1040.7356	1056.8773	1093.1626	1135.091	1142.0999	1180.638	1187.1633	1240.6208	1299.7923	1316.1797	1360.6205	1394.3188	1401.8677	1409.9971	1423.6875	1479.9052	1482.416	1489.1312	1493.3768	1494.9	1500.4728	1508.2035	1529.8188	2238.6153	2986.9254	3018.3831	3036.6772	3044.4718	3045.5995	3048.6947	3071.5693	3113.9242	3118.3211	3121.74	3123.4833	3123.6878	3132.1756	3502.2776
CCOC(C)(CC)C#C	CCO[C@@](C)(CC)C#C	
InChI=1S/C8H14O/c1-5-8(4,6-2)9-7-3/h1H,6-7H2,2-4H3	InChI=1S/C8H14O/c1-5-8(4,6-2)9-7-3/h1H,6-7H2,2-4H3/t8-/m1/s1
