18
gdb 49285	2.95405	1.42192	1.02685	3.436	80.54	-0.2273	-0.057	0.1704	1147.2423	0.148909	-401.943519	-401.935762	-401.934818	-401.975983	29.663	
O	-0.0878148436	-0.0124435742	 0.1265566947	-0.269014
C	-0.0138151998	 1.1951775714	 0.1118957966	 0.086568
C	 1.247324504	 1.9541804094	 0.079405297	 0.21192
C	 1.2270780004	 3.2938719442	 0.0071810411	-0.140291
C	 2.4998347656	 4.0878933785	-0.0530407491	-0.258519
C	 3.6268631723	 3.3662483252	 0.700861375	-0.158113
N	 3.7827548778	 1.9624247146	 0.277662569	-0.107585
C	 3.3538642797	 0.9437517643	 1.2402611527	-0.240104
C	 2.5393074899	 1.2208064025	 0.0261028693	-0.103272
H	-0.9285660754	 1.8315412626	 0.114153676	 0.065965
H	 0.274071075	 3.8188675964	-0.0102544165	 0.105675
H	 2.7819069657	 4.2389489937	-1.1050581313	 0.135517
H	 2.3557702151	 5.087803628	 0.3691056774	 0.116079
H	 4.5812558232	 3.8754985094	 0.5296007053	 0.110796
H	 3.4144426709	 3.4326474612	 1.7769053336	 0.099891
H	 3.9664005833	 0.0477714421	 1.2896651324	 0.120846
H	 2.961149905	 1.2846265238	 2.196609179	 0.110254
H	 2.6075038611	 0.5065192967	-0.7923706722	 0.113388
86.0594	159.5129	173.2217	228.3529	310.6097	409.4788	416.6003	513.9354	556.4269	589.2563	700.1035	726.1273	778.9007	860.5421	887.9061	917.9191	968.1101	1006.9748	1035.9151	1048.2949	1054.3819	1089.9626	1103.7195	1114.4525	1161.9439	1199.9192	1226.7603	1262.8052	1308.3959	1324.9116	1351.2503	1391.7619	1417.4487	1439.8046	1465.7047	1497.0848	1518.8489	1695.72	1791.4967	2866.6366	3001.9568	3013.6503	3060.8924	3074.2595	3096.2112	3121.1977	3151.9921	3185.9313
O=CC1=CCCN2CC12	O=CC1=CCCN2C[C@@H]12	
InChI=1S/C7H9NO/c9-5-6-2-1-3-8-4-7(6)8/h2,5,7H,1,3-4H2	InChI=1S/C7H9NO/c9-5-6-2-1-3-8-4-7(6)8/h2,5,7H,1,3-4H2/t7-,8?/m0/s1
