17
gdb 94337	2.81732	1.24984	1.07574	1.4946	74.88	-0.255	0.0092	0.2642	1169.7577	0.132838	-421.749102	-421.740203	-421.739259	-421.783005	32.66	
C	-0.3388343598	 1.3736446528	 0.1269459833	-0.397817
C	 0.1312832417	-0.0520438447	-0.0733878485	 0.054776
O	 1.392987665	-0.1494037481	-0.7948522573	-0.297304
C	 2.0644843892	-0.7973947671	 0.3056969632	-0.157344
C	 0.7802950573	-0.7495402541	 1.1220363708	 0.362984
O	 0.678855201	-0.3192994322	 2.4567405116	-0.261535
C	 0.2144268164	-1.6544762179	 2.1339785641	-0.266024
C	-1.1998687447	-1.8965044978	 2.2073477728	 0.342073
C	-2.3804477595	-2.1187017276	 2.2517353959	-0.420139
H	 0.41285143	 1.9634141093	 0.6582325177	 0.127598
H	-0.5334817994	 1.8423353845	-0.8421307885	 0.127418
H	-1.2641830403	 1.3837113923	 0.7111658113	 0.131491
H	-0.6415370968	-0.655031849	-0.5681836279	 0.09168
H	 2.4370053367	-1.7946326868	 0.0412373633	 0.111211
H	 2.8858282481	-0.1954339745	 0.7139657502	 0.119263
H	 0.8505718761	-2.4451333781	 2.530207111	 0.123727
H	-3.4240285611	-2.3115119111	 2.2991558369	 0.207943
67.558	95.6697	152.8226	196.9657	207.9027	275.5546	333.5896	397.5424	471.1446	529.3727	564.6097	605.5556	631.4029	678.5854	790.9776	831.0848	873.9566	910.0182	993.5999	1011.8518	1032.8594	1058.0027	1083.4737	1086.8919	1139.8809	1157.9912	1185.2497	1276.3721	1309.926	1352.3062	1376.3731	1404.3695	1477.3481	1488.0152	1500.4868	1514.6392	2240.1316	3014.0651	3021.9416	3043.6045	3062.1153	3117.748	3118.546	3126.0029	3501.2479
CC1OCC11OC1C#C	C[C@H]1OC[C@]21O[C@H]2C#C	
InChI=1S/C7H8O2/c1-3-6-7(9-6)4-8-5(7)2/h1,5-6H,4H2,2H3	InChI=1S/C7H8O2/c1-3-6-7(9-6)4-8-5(7)2/h1,5-6H,4H2,2H3/t5-,6+,7-/m1/s1
