18
gdb 79434	2.90633	1.74696	1.35692	2.2568	75.33	-0.2201	-0.012	0.2081	983.0713	0.149338	-401.912046	-401.90499	-401.904046	-401.943255	28.552	
C	-0.1769611417	 1.5177589609	 0.012905652	-0.416415
C	-0.006560874	 0.0123928977	-0.0716704875	 0.062406
C	 0.8847335698	-0.56260295	-1.2127708194	-0.19026
C	 2.0974844164	-0.3248849167	-0.2254664973	-0.009314
C	 2.7306479907	-1.6608277303	 0.1837243702	-0.250651
C	 1.2587659694	-1.9817821159	 0.5524353922	-0.124498
N	 1.0591631943	-0.4918705901	 0.883676959	-0.153713
C	 0.6744423088	-2.0362411166	-0.8663667379	 0.4462
O	 0.2039645481	-2.9439264934	-1.4918780854	-0.339603
H	 0.7672581962	 2.0492070972	-0.1352092641	 0.122136
H	-0.8831343504	 1.8642373524	-0.7482475167	 0.122622
H	-0.568547006	 1.7920622329	 0.997424796	 0.132482
H	-0.978517123	-0.4792647713	 0.0620791914	 0.087448
H	 0.8350257869	-0.2601051355	-2.2572939123	 0.083464
H	 2.6579953142	 0.6064417638	-0.2931233364	 0.089927
H	 3.2247753362	-2.2861920406	-0.5632195873	 0.117305
H	 3.3579608409	-1.5390895006	 1.068876388	 0.124623
H	 0.9622069732	-2.7284845037	 1.2852745056	 0.095841
152.1681	211.8573	232.4714	258.7809	377.5743	452.583	493.3742	574.6638	706.3449	759.1615	770.8225	795.7616	809.8744	834.3434	894.5943	909.1251	937.7965	958.7	1005.4227	1023.5372	1053.3954	1067.394	1094.2715	1121.677	1143.9528	1162.7032	1183.4091	1206.8391	1221.7776	1227.0847	1258.6804	1276.0753	1310.6082	1393.1985	1412.3184	1484.2849	1490.0487	1492.0953	1884.7443	3025.1343	3040.4037	3070.1099	3110.41	3114.3897	3123.8569	3134.1455	3136.9363	3152.8164
CC1C2C3CC(N13)C2=O	C[C@H]1[C@H]2[C@@H]3C[C@@H](N13)C2=O	
InChI=1S/C7H9NO/c1-3-6-4-2-5(7(6)9)8(3)4/h3-6H,2H2,1H3	InChI=1S/C7H9NO/c1-3-6-4-2-5(7(6)9)8(3)4/h3-6H,2H2,1H3/t3-,4-,5+,6-/m0/s1
