17
gdb 66061	2.50888	1.27853	1.21895	3.8881	73.92	-0.25	-0.0486	0.2014	1113.8981	0.13467	-418.008049	-417.99902	-417.998076	-418.042076	32.419	
C	-0.1704956763	 1.7631877882	-0.0758072444	-0.454008
C	 0.0346053929	 0.2625991181	 0.0243815311	 0.216858
N	 1.2900656119	-0.237931643	-0.6153281359	-0.340038
C	 1.5555652613	-1.1532699214	 0.5199322515	-0.175681
C	 0.4964126917	-0.3881525241	 1.3716829001	-0.221025
C	 1.0362660517	 0.5255258865	 2.3607429152	 0.294565
N	 1.4654626726	 1.2545080348	 3.1488993551	-0.334244
C	-1.1471254313	-0.5063055166	-0.552500911	 0.119862
O	-1.7389250263	-1.4003571295	-0.0038221376	-0.249201
H	 0.7278508783	 2.2871763557	 0.2566885027	 0.156717
H	-0.3698828901	 2.0490228899	-1.1144922261	 0.12327
H	-1.0174695822	 2.0878569437	 0.5378793552	 0.137021
H	 1.1811439303	-0.6744900807	-1.5273074431	 0.226069
H	 1.2613521798	-2.1962614185	 0.3607043851	 0.123659
H	 2.5863146271	-1.1136760392	 0.8789350607	 0.134446
H	-0.2743987038	-1.0189457786	 1.8170181908	 0.151028
H	-1.3958794476	-0.2052432553	-1.5972106594	 0.090702
67.0165	110.1681	140.2403	195.0353	200.7606	272.1726	301.6178	335.6179	371.8942	511.0092	547.4825	605.9445	636.1118	741.2517	818.74	902.7583	908.9974	954.1764	993.6148	1000.2255	1058.503	1088.2774	1133.3773	1166.3052	1191.8829	1215.3104	1224.3883	1321.6972	1345.7188	1376.6896	1406.0246	1414.9471	1482.4149	1488.1349	1513.6301	1820.1458	2357.2564	2862.9846	3036.3873	3041.6544	3103.6869	3104.6137	3112.113	3135.9004	3496.6031
CC1(NCC1C#N)C=O	C[C@]1(NC[C@H]1C#N)C=O	
InChI=1S/C6H8N2O/c1-6(4-9)5(2-7)3-8-6/h4-5,8H,3H2,1H3	InChI=1S/C6H8N2O/c1-6(4-9)5(2-7)3-8-6/h4-5,8H,3H2,1H3/t5-,6+/m1/s1
