19
gdb 32872	6.11349	0.76777	0.6993	1.4093	81.81	-0.1711	0.0463	0.2174	1621.831	0.159828	-419.223371	-419.213838	-419.212894	-419.258236	34.599	
C	-0.8253818463	 1.4830838565	 0.4254420564	-0.222053
O	-0.7494984223	 0.0914135588	 0.6254239044	-0.243298
C	-0.5778386646	-0.6291543089	-0.5859162593	-0.185238
C	-0.6123509325	-2.0874807562	-0.2836819224	 0.334128
C	 0.076472392	-3.149776372	-0.8302531133	-0.326443
C	-0.3973217877	-4.3390005583	-0.2011156722	 0.26371
N	-0.0036938099	-5.6521931448	-0.5342476369	-0.606412
C	-1.3553514087	-3.9601956727	 0.71562973	-0.17065
N	-1.4927483221	-2.5883194022	 0.6319241956	-0.291185
H	-0.977041201	 1.9466106143	 1.4032516118	 0.127103
H	 0.1008131889	 1.8824938674	-0.0166117018	 0.106973
H	-1.6643102975	 1.7572107139	-0.2341266679	 0.104482
H	-1.3801947999	-0.3419644924	-1.2906212315	 0.095623
H	 0.3776668117	-0.3717416806	-1.06973434	 0.101526
H	 0.822132829	-3.0896388115	-1.6094044078	 0.080011
H	 0.9848239451	-5.7053060014	-0.748136128	 0.236931
H	-0.2029011181	-6.3099661695	 0.2093695353	 0.23422
H	-1.9398787568	-4.5428185248	 1.4089821129	 0.099693
H	-2.0147528491	-2.0065714857	 1.2634705346	 0.260882
47.3389	97.3239	110.4219	179.1063	223.9818	244.5275	301.3227	336.388	350.0504	442.7441	488.8129	626.5366	637.6305	663.9904	682.3858	767.2604	774.3319	809.4375	967.55	995.4932	1004.5658	1030.1782	1104.8943	1127.2901	1144.903	1181.6331	1187.5137	1219.6183	1248.0224	1300.1678	1332.2444	1400.0731	1460.8789	1475.6954	1484.3629	1491.0807	1503.0624	1522.4301	1552.6287	1641.4661	1659.6626	2925.8923	2970.2992	2990.8004	3015.3259	3114.3811	3236.9983	3261.7094	3523.8753	3610.8425	3687.4102
COCC1=CC(N)=CN1	COCc1cc(N)c[nH]1	
InChI=1S/C6H10N2O/c1-9-4-6-2-5(7)3-8-6/h2-3,8H,4,7H2,1H3	InChI=1S/C6H10N2O/c1-9-4-6-2-5(7)3-8-6/h2-3,8H,4,7H2,1H3
