16
gdb 43025	2.80435	1.9247	1.4124	3.249	68.93	-0.232	-0.0297	0.2022	913.2693	0.125889	-437.813629	-437.806989	-437.806045	-437.844535	26.862	
O	-0.0856231483	 0.0021706512	-0.0921182729	-0.3083
C	-0.0711557609	 1.1948865199	-0.0060049095	 0.407853
C	-1.2701656621	 2.194239172	 0.0576456307	-0.042189
C	-0.8922160433	 3.3540036681	 1.0392888442	-0.346541
C	 0.1957187176	 3.4740670684	-0.0390953357	 0.391521
C	 1.3597969303	 4.1824194898	-0.7268322197	-0.286011
N	 1.9691078075	 2.8238877152	-1.0229077822	-0.351429
C	 1.0801099557	 2.2274180397	 0.0493378578	-0.099668
O	-0.7921278987	 3.0279210388	-1.0399552058	-0.318695
H	-2.2773017309	 1.7978823063	-0.0541007307	 0.109466
H	-1.6569926052	 4.1326547833	 1.0180303838	 0.126849
H	-0.5773757327	 3.1206477282	 2.0591640936	 0.116159
H	 1.1047032803	 4.7948829652	-1.5949829037	 0.126692
H	 2.0105109104	 4.7433121694	-0.0507448713	 0.12621
H	 1.6374641862	 2.5164084684	-1.9336338232	 0.240218
H	 1.665508964	 2.0803121361	 0.9635460645	 0.107866
127.3851	241.888	292.788	319.592	439.7218	503.7274	567.2869	617.5494	643.1591	744.5747	803.1147	824.5479	848.511	860.03	902.6864	918.3294	933.4388	976.9186	990.9305	1035.1114	1074.1991	1100.8012	1157.5866	1186.1598	1204.5623	1222.0877	1235.7623	1253.0604	1272.6545	1289.7408	1328.0418	1383.2522	1483.2631	1486.0572	1880.4028	3051.695	3061.5427	3069.4534	3120.806	3139.4554	3154.954	3512.0049
O=C1C2CC3(CNC13)O2	O=C1[C@H]2C[C@]3(CN[C@H]13)O2	
InChI=1S/C6H7NO2/c8-4-3-1-6(9-3)2-7-5(4)6/h3,5,7H,1-2H2	InChI=1S/C6H7NO2/c8-4-3-1-6(9-3)2-7-5(4)6/h3,5,7H,1-2H2/t3-,5-,6-/m1/s1
