19
gdb 35267	3.75702	0.82111	0.72621	1.171	82.82	-0.2441	0.0468	0.291	1556.818	0.157501	-385.819611	-385.810452	-385.809508	-385.854465	33.875	
C	-0.2765082162	-1.1934058905	 0.3340518949	-0.475985
C	-0.1310876383	-0.0126194325	 0.1519657101	 0.337735
C	 0.0342283794	 1.3930302375	-0.0762827182	-0.209833
C	 0.6072426329	 2.2861686957	 1.0170167397	-0.291308
C	 1.4215213138	 2.0102421812	-0.2142396521	 0.011612
C	 2.670299292	 1.1555537975	-0.151958839	-0.261429
C	 3.883926695	 1.96686337	 0.2356938126	 0.105701
C	 5.2103921673	 1.7207803096	-0.3409135967	-0.18041
O	 4.4197271232	 2.8288556461	-0.7751863313	-0.239372
H	-0.4098871861	-2.2339519445	 0.4965391823	 0.194857
H	-0.7382470419	 1.8407003502	-0.6947892808	 0.114396
H	 0.1612920615	 3.265548513	 1.1479481694	 0.120807
H	 0.8975726235	 1.7939315343	 1.9388939684	 0.124136
H	 1.4816241297	 2.8200234723	-0.9356433266	 0.108386
H	 2.5290482225	 0.3416957536	 0.5686362976	 0.113731
H	 2.851132245	 0.6904863924	-1.1280479355	 0.109047
H	 3.8392574849	 2.4301382437	 1.223252669	 0.091678
H	 6.1061348442	 1.976510774	 0.2235727148	 0.11333
H	 5.3362747675	 0.9222447065	-1.0714223986	 0.112923
54.8409	71.574	102.7222	163.0997	210.9344	300.6997	339.0844	419.751	458.6651	527.6753	575.3152	608.625	648.5902	769.0629	794.0815	810.967	859.5503	874.8553	901.2319	951.1689	963.5041	1010.447	1067.0772	1084.3444	1103.5178	1123.8626	1141.3332	1159.1484	1165.072	1184.3316	1226.5011	1265.203	1294.5922	1316.5723	1375.5227	1417.419	1447.5034	1467.7861	1489.0546	1531.0823	2233.3466	3035.469	3075.2362	3081.0272	3096.6497	3136.908	3145.101	3156.9151	3166.5249	3226.1862	3505.191
C#CC1CC1CC1CO1	C#C[C@H]1C[C@H]1C[C@H]1CO1	
InChI=1S/C8H10O/c1-2-6-3-7(6)4-8-5-9-8/h1,6-8H,3-5H2	InChI=1S/C8H10O/c1-2-6-3-7(6)4-8-5-9-8/h1,6-8H,3-5H2/t6-,7-,8-/m0/s1
