16
gdb 27001	2.99999	1.21275	0.90334	3.8557	76.3	-0.2063	0.0271	0.2334	1237.2969	0.125997	-396.974722	-396.966041	-396.965097	-397.009011	31.393	
N	 0.0578512989	 1.5189227248	 0.2377605008	-0.614863
C	 0.0711903633	 0.1099405154	 0.0312031618	 0.129938
C	-1.0731863332	-0.6401420513	-0.1434050258	 0.304632
C	-2.498148448	-0.1778476688	-0.1389376181	-0.456194
C	-3.3272039144	-0.8874071434	-1.1163072306	 0.256679
N	-3.9628996335	-1.4928751398	-1.8680700787	-0.316871
N	-0.6924192569	-1.9489495282	-0.318892583	-0.306095
C	 0.6747125892	-2.0413304316	-0.2929160375	-0.082158
C	 1.1803781614	-0.7835270553	-0.0631119152	-0.217274
H	 0.0364796756	 1.7541878364	 1.2256870566	 0.239588
H	 0.8946946282	 1.9456174546	-0.1446050202	 0.238949
H	-2.9773130376	-0.2927647575	 0.844383208	 0.155639
H	-2.4974149315	 0.8956703515	-0.3595651103	 0.182058
H	-1.3231063549	-2.6998666049	-0.5438231859	 0.272499
H	 1.1686696597	-2.9881176878	-0.4395323098	 0.122898
H	 2.2241778235	-0.5237376841	 0.0301821379	 0.090577
36.8906	105.7851	110.4823	224.1533	244.4846	289.6831	386.6063	413.6486	483.5601	528.3263	639.6871	648.7401	674.0637	714.631	779.1347	816.9317	849.3768	914.6522	936.2828	944.3422	1076.346	1094.0892	1154.6136	1196.6071	1228.9205	1278.2673	1314.2493	1340.3309	1436.2967	1462.3696	1490.6987	1519.4385	1625.6494	1668.4615	2359.4214	3000.4921	3072.393	3242.3888	3271.1264	3493.1838	3570.4648	3669.2002
NC1=C(CC#N)NC=C1	Nc1c(CC#N)[nH]cc1	
InChI=1S/C6H7N3/c7-3-1-6-5(8)2-4-9-6/h2,4,9H,1,8H2	InChI=1S/C6H7N3/c7-3-1-6-5(8)2-4-9-6/h2,4,9H,1,8H2
