19
gdb 57870	2.60754	1.17075	0.87572	2.0778	75.7	-0.2598	-0.0223	0.2375	1340.0684	0.157949	-456.369248	-456.359182	-456.358237	-456.404558	36.21	
C	-0.2499801103	 1.6768312136	 0.057955981	-0.391545
C	-0.1511618714	 0.1569004275	 0.0168209883	 0.033925
O	 0.6042767877	-0.3532732419	 1.1182941013	-0.42491
C	-1.5231401655	-0.5257560676	-0.0420550079	 0.381533
N	-2.5571443249	 0.1765028899	 0.2062056079	-0.510895
N	-1.5542110737	-1.8949043567	-0.3702210873	-0.136843
C	-2.8498478058	-2.5413913067	-0.5604927545	-0.375632
C	-0.4207226377	-2.6976205479	-0.4767068599	 0.14976
O	-0.4575452958	-3.8687881061	-0.7770391341	-0.322536
H	 0.7595941739	 2.0901429865	 0.1277476273	 0.119082
H	-0.7356373203	 2.0643215838	-0.8407228285	 0.129403
H	-0.8401758263	 2.0073443319	 0.9157563083	 0.133732
H	 0.4246787317	-0.1336203191	-0.8687996448	 0.106522
H	 0.1490076347	-0.0889085861	 1.9262591194	 0.290105
H	-3.4203750652	-0.363087672	 0.1699621264	 0.221316
H	-3.4317502309	-2.0166522766	-1.3241620906	 0.140389
H	-2.6559942651	-3.5624965787	-0.8831511247	 0.177799
H	-3.4215814198	-2.5624817551	 0.3738283636	 0.13842
H	 0.5094698247	-2.1732878688	-0.2354968812	 0.140376
45.1449	85.3785	144.9321	196.4791	224.104	242.6384	295.5734	322.3207	326.479	352.768	374.3417	391.4545	478.688	517.8498	658.4943	750.015	820.5641	889.763	895.0965	948.0043	1021.8942	1043.2478	1073.0513	1116.7653	1121.2148	1152.9079	1214.8824	1280.8763	1310.3112	1345.8267	1403.8003	1406.5791	1422.7768	1440.4916	1466.3393	1481.2682	1490.2682	1503.8166	1513.3006	1696.4028	1793.5321	3034.8909	3050.971	3054.1069	3095.7467	3097.076	3132.5941	3136.157	3173.8964	3499.8925	3796.7595
CC(O)C(=N)N(C)C=O	C[C@@H](O)C(=N)N(C)C=O	
InChI=1S/C5H10N2O2/c1-4(9)5(6)7(2)3-8/h3-4,6,9H,1-2H3	InChI=1S/C5H10N2O2/c1-4(9)5(6)7(2)3-8/h3-4,6,9H,1-2H3/t4-/m1/s1
