18
gdb 55945	4.47962	0.97222	0.88703	5.28	71.36	-0.2612	0.0175	0.2787	1302.36	0.149639	-439.101011	-439.093059	-439.092115	-439.134241	29.681	
O	-0.4117016143	 0.3631795794	 0.919812037	-0.21848
C	-0.0938214917	 1.3663342805	 0.0574246926	 0.428747
O	 1.0370149126	 1.6438500211	-0.2155406219	-0.335647
C	-1.3795410974	 2.0187977918	-0.4424443037	-0.376381
C	-2.4672418539	 0.9957911954	-0.0893833771	-0.01869
C	-1.8335790104	 0.268370597	 1.1126368928	-0.093348
N	-4.6750458158	 0.9160548121	 1.1787641137	-0.31792
H	-5.6498009428	 0.885497825	 0.894423316	 0.237838
C	-4.2369225127	 2.307231897	 1.3829080442	-0.241343
C	-3.84741735	 1.5687302554	 0.1539095006	-0.027249
H	-1.5193335526	 2.958579219	 0.1058730845	 0.137173
H	-1.2933678189	 2.2630794229	-1.5018654818	 0.138378
H	-2.5417924738	 0.2728801952	-0.9112198519	 0.093351
H	-2.0985265421	-0.7876867631	 1.1644850088	 0.134047
H	-2.0891028344	 0.733605131	 2.0698139154	 0.124063
H	-4.964513405	 3.1079195966	 1.2804147119	 0.119199
H	-3.5320293383	 2.4498578251	 2.1971538322	 0.123373
H	-4.3502038984	 1.8897298783	-0.7574070434	 0.09289
64.8364	105.897	166.6451	182.1308	264.9859	389.5886	499.408	522.2307	553.696	610.3132	692.2426	806.9671	841.4888	875.3292	899.5442	907.6216	924.3161	972.5689	1046.1985	1051.5958	1063.857	1085.0965	1122.3006	1135.7297	1172.5258	1176.8297	1205.1422	1244.223	1256.2322	1275.4875	1290.948	1342.2563	1365.753	1411.4518	1440.943	1467.6593	1512.0212	1523.9289	1884.3811	3025.7911	3047.8344	3062.7027	3110.7358	3114.8692	3127.885	3132.0077	3193.4285	3514.4857
[O-]C(=O)CC1C[NH+]2CC12	O1C(=O)C[C@@H](C1)[C@H]1NC1	
InChI=1S/C6H9NO2/c8-6(9)1-4-2-7-3-5(4)7/h4-5H,1-3H2,(H,8,9)	InChI=1S/C6H9NO2/c8-6-1-4(3-9-6)5-2-7-5/h4-5,7H,1-3H2/t4-,5-/m0/s1
