16
gdb 132742	2.35066	1.81737	1.03222	1.3688	76.51	-0.2107	-0.0107	0.2	1098.776	0.124925	-442.10692	-442.098704	-442.09776	-442.139999	30.906	
C	-0.0126787378	 1.517895489	-0.0129496657	-0.497293
C	-0.0156554679	 0.0136680379	 0.0171009674	 0.181522
C	-0.0191972128	-0.7143520228	-1.1552999533	 0.143657
F	-0.0112407453	-0.0800418802	-2.3470217271	-0.093645
C	-0.0196375642	-2.1172043316	-1.1564714932	 0.282535
N	-0.0795689296	-2.8140846721	-2.3447073088	-0.568734
N	-0.0052434222	-2.807082093	-0.015005487	-0.34967
C	-0.0071573733	-2.1160978459	 1.1303205301	-0.00903
C	-0.0150652205	-0.7318839582	 1.2051141267	-0.215262
H	 0.8664069999	 1.9009190099	-0.5416963835	 0.142077
H	-0.8911662408	 1.9040167158	-0.5403328348	 0.14372
H	-0.0110306436	 1.927573804	 0.999247313	 0.128045
H	 0.2529661206	-2.3298361895	-3.1633318327	 0.257034
H	 0.2057482899	-3.778558365	-2.268362808	 0.257409
H	 0.0018001969	-2.7123412338	 2.0392854211	 0.104608
H	-0.0133314393	-0.2293576644	 2.1657400957	 0.093026
49.6178	140.3253	229.3736	267.2291	290.709	308.8664	411.9294	498.3801	507.3162	529.8389	558.6066	563.6655	606.5345	700.0273	790.031	823.7825	851.2123	964.8328	976.3127	1028.5521	1059.6563	1094.9268	1157.5316	1241.7325	1295.4974	1328.1349	1366.1494	1414.7512	1478.7538	1481.3229	1505.1616	1519.1974	1602.8434	1626.1781	1664.1616	3041.2291	3096.0765	3129.6415	3157.3636	3194.0002	3582.8118	3701.4379
CC1=C(F)C(N)=NC=C1	Cc1c(F)c(N)ncc1	
InChI=1S/C6H7FN2/c1-4-2-3-9-6(8)5(4)7/h2-3H,1H3,(H2,8,9)	InChI=1S/C6H7FN2/c1-4-2-3-9-6(8)5(4)7/h2-3H,1H3,(H2,8,9)
