20
gdb 80287	2.31726	1.574	1.2982	3.0851	80.24	-0.2421	0.0288	0.271	1101.7054	0.170859	-403.168647	-403.159857	-403.158912	-403.201825	33.679	
C	-0.3432202851	 1.437019514	-0.2504299223	-0.42632
C	-0.0075297411	-0.0331675502	-0.1282396629	-0.074474
C	 1.3907158092	-0.6108270539	-0.3392496559	-0.14235
C	 2.58189126	 0.3199085186	-0.2310113029	-0.315363
C	 2.4835587759	 0.8940078181	 1.1739245498	 0.388403
N	 3.2269804557	 1.794132255	 1.6533188969	-0.541557
O	 1.4515191909	 0.2983580021	 1.8521799245	-0.264087
C	 0.7545406555	-0.6323535181	 1.0275877024	 0.39895
C	 0.3086302726	-1.8453548911	 1.7911273722	-0.468369
H	-0.4767754236	 1.7167683195	-1.300888161	 0.121055
H	-1.2768163239	 1.6625652451	 0.2754787694	 0.123997
H	 0.4307609101	 2.082871285	 0.1695968959	 0.14189
H	-0.7904888659	-0.690140854	-0.5015711097	 0.088798
H	 1.4917999068	-1.5196247958	-0.9210316131	 0.093139
H	 3.523887341	-0.2273649025	-0.3355650893	 0.136122
H	 2.5998529595	 1.1307679681	-0.9642751895	 0.137456
H	 2.9532016194	 2.0112449437	 2.6131260581	 0.221331
H	-0.3920841661	-1.5714393795	 2.5867112435	 0.131867
H	-0.1947706205	-2.5488392459	 1.1223348974	 0.121954
H	 1.1628829895	-2.3537637181	 2.2498590864	 0.127558
90.1454	152.3854	189.1057	198.401	213.524	245.4001	304.0123	447.4717	487.6061	531.6638	539.7354	596.1732	686.5123	728.0509	794.4051	835.3894	875.6002	891.9106	926.9244	960.4558	988.7522	1019.0357	1051.8521	1077.7836	1104.4122	1127.1027	1139.6154	1150.8832	1194.6546	1225.9013	1256.4594	1301.7801	1332.5897	1354.4085	1415.6716	1422.9018	1460.1959	1472.76	1478.4929	1494.6967	1499.7789	1508.9377	1772.6607	3036.2284	3038.4117	3061.4435	3095.0518	3098.1627	3101.5643	3116.5551	3120.3536	3135.619	3175.7311	3473.0737
CC1C2CC(=N)OC12C	C[C@H]1[C@H]2C[C]([NH])O[C@@]12C	
InChI=1S/C7H11NO/c1-4-5-3-6(8)9-7(4,5)2/h4-5,8H,3H2,1-2H3	InChI=1S/C7H11NO/c1-4-5-3-6(8)9-7(4,5)2/h4-5,8H,3H2,1-2H3/t4-,5+,7-/m0/s1
