22
gdb 110351	2.18904	1.33687	1.24967	2.3272	81.65	-0.2294	0.0698	0.2992	1189.7969	0.193639	-404.290915	-404.281115	-404.280171	-404.325256	36.66	
C	-0.2032971167	 1.6343585074	-0.5310291505	-0.426403
C	 0.0368672966	 0.1399382253	-0.3385531605	-0.008593
C	 0.8027914872	-0.6923087952	-1.3718234529	-0.084947
C	 2.2636264213	-0.4957746894	-1.4273549219	-0.002363
C	 3.0804561385	 0.7719968003	-1.3193139235	-0.102362
O	 4.3631065003	 0.5157168792	-0.7659433682	-0.424336
N	 1.7210811012	-1.3111768228	-0.3094044694	-0.183381
C	 1.0214323065	-0.4528540887	 0.7244464992	 0.056527
C	 1.8632202338	 0.3926942402	 1.6705991306	-0.432192
H	 0.714707117	 2.2144131494	-0.6429944238	 0.125621
H	-0.8112371235	 1.8076051894	-1.4259846977	 0.121101
H	-0.7529014018	 2.0464015323	 0.3224670707	 0.117636
H	-0.9403886551	-0.3288491727	-0.1861462733	 0.08628
H	 0.3057307357	-1.3195168828	-2.1073969694	 0.092506
H	 2.7451513253	-1.1895099926	-2.1174246513	 0.105675
H	 3.2598342606	 1.1529275658	-2.3313065398	 0.1123
H	 2.5631817216	 1.5636806592	-0.7700895609	 0.088174
H	 4.230533394	-0.017294315	 0.0252019292	 0.291112
H	 0.4716532131	-1.1659966345	 1.3461847611	 0.090348
H	 2.4355093513	 1.1847491515	 1.1860867274	 0.130476
H	 1.2188891312	 0.8628321552	 2.4215627595	 0.120866
H	 2.5671341322	-0.2542700914	 2.2069771853	 0.125955
87.8624	139.8998	144.0006	171.0832	180.7364	204.1036	277.3419	301.0492	326.1744	374.396	485.7332	537.7239	616.2351	667.5057	728.5709	752.948	776.4975	869.8096	889.7243	960.6463	1009.0565	1029.54	1039.719	1061.5363	1077.7529	1094.2205	1106.7042	1133.1751	1180.7541	1198.5469	1221.2785	1263.21	1281.4975	1304.8854	1343.8291	1367.5306	1386.2232	1393.6403	1406.2597	1416.6776	1417.7385	1463.9279	1487.6755	1492.6115	1495.9836	1502.4287	1521.6775	3033.7484	3035.9799	3040.0217	3045.9312	3058.9726	3076.319	3090.9809	3093.586	3107.0841	3129.8432	3139.7495	3141.7146	3813.7758
CC1C2C(CO)N2C1C	C[C@H]1[C@H]2[C@@H](CO)N2[C@H]1C	
InChI=1S/C7H13NO/c1-4-5(2)8-6(3-9)7(4)8/h4-7,9H,3H2,1-2H3	InChI=1S/C7H13NO/c1-4-5(2)8-6(3-9)7(4)8/h4-7,9H,3H2,1-2H3/t4-,5+,6-,7+,8?/m1/s1
