23
gdb 93922	3.3206	0.99355	0.85417	2.5338	86.1	-0.2388	-0.0053	0.2335	1460.5017	0.205384	-388.338989	-388.32905	-388.328106	-388.375072	36.543	
C	-0.2333256247	 1.497873774	-0.0721092159	-0.40953
C	 0.0958137406	 0.0082896152	-0.0188260596	 0.057213
C	 1.025731135	-0.4905433803	-1.1365765444	-0.20295
C	 1.4573143612	-1.8849619449	-0.6576528018	-0.233061
C	 1.5684621652	-1.7512423635	 0.9033311664	-0.080859
C	 0.8315627987	-0.4369894066	 1.262010118	-0.229465
C	 0.9793085478	-2.9905450585	 1.5711530562	 0.371764
C	 1.8409033203	-4.2417503649	 1.5340533008	-0.477959
O	-0.1168970988	-2.9917825146	 2.0842178175	-0.302894
H	 0.6791242963	 2.1035054623	-0.0125390904	 0.108727
H	-0.7475798977	 1.7611129364	-1.0027082391	 0.110175
H	-0.8819437021	 1.7924504698	 0.7596604365	 0.115514
H	-0.8414011445	-0.5620192279	-0.0835057819	 0.080917
H	 0.548133518	-0.5117928851	-2.1213408886	 0.093773
H	 1.8989077836	 0.1719383938	-1.2106711162	 0.092227
H	 0.6807918334	-2.6146923612	-0.9166246611	 0.108627
H	 2.3886676981	-2.2314121675	-1.1130413845	 0.098863
H	 2.6272301619	-1.6948259505	 1.1787925181	 0.076302
H	 1.5609742294	 0.3289219586	 1.5503078051	 0.086102
H	 0.1486466222	-0.5844102372	 2.1009790886	 0.119184
H	 2.2064694945	-4.4388232041	 0.5207855763	 0.138059
H	 2.7250358496	-4.0945418455	 2.1659215082	 0.139733
H	 1.2743054817	-5.0984058978	 1.9008923717	 0.139538
30.6702	44.903	121.418	162.4407	210.1109	238.8675	276.3677	291.8514	357.4418	433.323	523.3646	573.4013	592.6025	643.8776	747.7425	817.5927	861.3672	895.0824	919.2035	945.2143	952.1811	966.8325	1004.1762	1025.8528	1037.6781	1092.0664	1112.0486	1156.1043	1165.96	1188.3733	1215.6786	1267.8881	1290.2276	1299.4775	1321.608	1337.2473	1348.1305	1366.2004	1382.9533	1391.1263	1412.1457	1463.4994	1476.8279	1479.5168	1488.9782	1497.4144	1499.7641	1503.5199	1807.5038	3004.5537	3018.7159	3023.4511	3031.4501	3033.4257	3036.1167	3048.3157	3078.3406	3088.8385	3093.9402	3096.086	3096.8638	3114.0947	3151.1941
CC1CCC(C1)C(C)=O	C[C@H]1CC[C@@H](C1)C(=O)C	
InChI=1S/C8H14O/c1-6-3-4-8(5-6)7(2)9/h6,8H,3-5H2,1-2H3	InChI=1S/C8H14O/c1-6-3-4-8(5-6)7(2)9/h6,8H,3-5H2,1-2H3/t6-,8-/m0/s1
