15
gdb 127493	3.24838	1.47162	1.02014	3.2848	73.4	-0.2127	-0.0721	0.1406	1100.3311	0.113846	-450.161138	-450.15294	-450.151996	-450.194676	29.934	
C	-0.0316988137	 1.4087756328	-0.0459066599	-0.316219
N	 0.0118868806	-0.04648069	-0.0217262595	-0.049556
N	-0.0121545545	-0.6708600571	-1.2266558934	-0.299769
C	 0.0409975445	-1.9752069429	-1.2036559331	 0.450549
N	 0.1082551302	-2.6607896003	-2.3976924525	-0.554982
N	 0.0777654962	-2.7639316495	-0.0730432962	-0.273713
C	 0.0888289396	-2.1407652411	 1.0580079377	-0.06947
C	 0.0735596899	-0.6818406466	 1.2033717409	 0.392743
O	 0.1008834007	-0.0739015771	 2.2653442111	-0.408547
H	 0.88896973	 1.8193246204	 0.3786061494	 0.153457
H	-0.1459614703	 1.7178986046	-1.0829054579	 0.14713
H	-0.8674357359	 1.7635758378	 0.5624681118	 0.155416
H	-0.1914914866	-2.1413037901	-3.2081776779	 0.262393
H	-0.2281875557	-3.6097734079	-2.3488665347	 0.26433
H	 0.1085099652	-2.717548673	 1.9807073842	 0.146238
32.9966	113.0002	184.5542	298.8548	322.9549	346.7979	386.4232	412.3814	481.6774	542.2606	571.418	592.4256	637.54	753.7049	794.7544	833.1336	929.7668	978.9146	1039.1361	1143.7784	1147.4193	1172.3401	1294.3416	1337.9837	1362.7876	1430.7129	1457.57	1471.4354	1499.4018	1550.9875	1624.9142	1664.2958	1758.198	3054.5999	3116.2398	3160.2363	3181.0065	3587.3875	3704.1824
CN1N=C(N)N=CC1=O	Cn1nc(N)ncc1=O	
InChI=1S/C4H6N4O/c1-8-3(9)2-6-4(5)7-8/h2H,1H3,(H2,5,7)	InChI=1S/C4H6N4O/c1-8-3(9)2-6-4(5)7-8/h2H,1H3,(H2,5,7)
