20
gdb 56296	6.943	0.48433	0.46033	3.4613	82.56	-0.2466	0.0322	0.2788	2281.7619	0.168135	-403.159063	-403.148022	-403.147078	-403.197312	38.265	
N	-0.0195088269	 1.3412879246	-0.1958113319	-0.523462
C	 0.075651006	 0.0269965978	 0.1668767898	 0.40976
O	 1.1236457371	-0.4708267146	 0.529423227	-0.356411
C	-1.2356164253	-0.7550121509	 0.0868244693	-0.324846
C	-1.0090742882	-2.263124671	-0.0303478089	-0.16361
C	-2.3099431618	-3.0660441459	 0.0363984731	-0.183702
C	-2.0661344815	-4.584385677	-0.0814533512	-0.35666
C	-3.2943631557	-5.3670758526	-0.0187113234	 0.293174
C	-4.3225919906	-5.9875435872	 0.0356875923	-0.438118
H	 0.7872558767	 1.9290541443	-0.0630421586	 0.259577
H	-0.899875007	 1.7741553514	-0.4127317332	 0.256345
H	-1.8040347969	-0.5326645767	 1.0011317236	 0.126471
H	-1.8440643899	-0.3828956588	-0.7468769257	 0.104477
H	-0.4873418847	-2.477376049	-0.9715467762	 0.104376
H	-0.3250689119	-2.5716801905	 0.766854673	 0.125472
H	-2.8299228126	-2.8629182065	 0.9805009025	 0.107451
H	-2.9925500138	-2.7542944239	-0.7635161965	 0.105196
H	-1.5449123016	-4.7974722799	-1.0241231656	 0.130044
H	-1.3855461007	-4.9060318525	 0.717761758	 0.132652
H	-5.2229980805	-6.5478359209	 0.0829363027	 0.191813
23.7609	45.458	77.2788	113.979	122.1195	164.0446	168.131	291.5742	310.7671	350.2346	463.0379	514.9886	521.5556	614.3301	618.8231	634.5621	659.5467	733.7576	789.3456	851.1299	911.5634	951.2269	1028.2054	1048.804	1071.1813	1091.5599	1110.3874	1155.6489	1233.1147	1269.9994	1291.3009	1321.1752	1321.6886	1353.1812	1390.0041	1408.7543	1464.5563	1473.6401	1487.1385	1506.863	1617.1865	1798.3675	2238.2832	3012.8371	3015.2196	3026.6911	3036.6624	3041.7979	3051.3719	3066.4257	3093.0487	3508.1662	3600.8027	3737.3507
NC(=O)CCCCC#C	NC(=O)CCCCC#C	
InChI=1S/C7H11NO/c1-2-3-4-5-6-7(8)9/h1H,3-6H2,(H2,8,9)	InChI=1S/C7H11NO/c1-2-3-4-5-6-7(8)9/h1H,3-6H2,(H2,8,9)
