23
gdb 88070	3.07267	1.23662	1.15223	0.0781	89.36	-0.2374	0.0882	0.3256	1221.8248	0.207519	-351.150272	-351.141845	-351.140901	-351.182861	34.232	
C	-0.0936930715	 1.5271235876	-0.0279738764	-0.408852
C	-0.0100207733	 0.0182762674	 0.0585519217	-0.048131
C	 1.2902998876	-0.7077788569	-0.2104541742	-0.353749
C	 0.706464427	-0.68568168	 1.1847743659	 0.395684
C	 1.4065829095	 0.0628135593	 2.3246926675	-0.317878
C	 1.8746727969	-1.0474868999	 3.2987860092	-0.218174
C	 0.8894381515	-2.1916423395	 3.098298678	-0.029661
C	-0.5830795118	-1.8609902967	 3.0830067908	-0.302494
C	 0.179273026	-1.9669039274	 1.7810200395	-0.095081
H	 0.830319085	 2.0019304771	 0.3158455367	 0.11326
H	-0.2663196001	 1.852409897	-1.0601572359	 0.113823
H	-0.9142971405	 1.9194139251	 0.5837707616	 0.114196
H	-0.9027914345	-0.4914850769	-0.2981033984	 0.077258
H	 1.2627828101	-1.6359196961	-0.7733548993	 0.1027
H	 2.1734384997	-0.1030803174	-0.3971231671	 0.10148
H	 2.2371601679	 0.683175476	 1.9790834664	 0.096679
H	 0.7021267691	 0.7348978056	 2.8282067995	 0.102412
H	 2.8791871172	-1.3909583529	 3.0245537356	 0.099427
H	 1.9260479049	-0.6932789744	 4.334162624	 0.092959
H	 1.185447712	-3.1868920601	 3.4116830307	 0.077348
H	-1.270050658	-2.6667179586	 3.3187096311	 0.105134
H	-0.9178220841	-0.8860708678	 3.4237492081	 0.10686
H	-0.0519618808	-2.7881039507	 1.1107256751	 0.074802
108.7067	154.2079	198.032	206.3227	287.7789	354.0996	368.5571	422.9667	465.1179	542.966	630.0611	714.9358	784.3631	817.0587	826.8567	842.5792	876.75	913.2881	917.2244	942.3479	953.4553	984.5568	1016.3799	1034.8864	1047.226	1059.495	1074.0052	1086.0152	1104.6177	1123.1272	1131.8193	1180.334	1197.5537	1203.0341	1216.1919	1257.7029	1296.9042	1317.8075	1326.0155	1362.6483	1385.3847	1412.304	1433.7678	1485.6207	1488.8005	1492.1991	1493.6426	1506.3515	1513.0054	3025.3938	3031.2908	3038.0577	3069.239	3082.8119	3091.3064	3099.1792	3112.9131	3125.7339	3126.3858	3156.335	3166.7556	3197.0091	3208.9647
CC1CC11CCC2CC12	C[C@H]1C[C@]21CC[C@H]1C[C@@H]21	
InChI=1S/C9H14/c1-6-5-9(6)3-2-7-4-8(7)9/h6-8H,2-5H2,1H3	InChI=1S/C9H14/c1-6-5-9(6)3-2-7-4-8(7)9/h6-8H,2-5H2,1H3/t6-,7-,8+,9-/m0/s1
