19
gdb 39116	3.7912	1.08789	1.01877	1.7306	74.65	-0.2365	0.0666	0.3031	1216.6269	0.159618	-422.948625	-422.940623	-422.939678	-422.982466	29.853	
C	 0.0411041584	 1.4865257724	 0.1068545498	-0.354499
C	 1.3198359129	 0.7227755592	-0.0272662871	 0.051093
O	 1.7241082433	 0.1929814235	 1.235455802	-0.284504
C	 0.5179984527	-0.6158949514	 1.2965427536	-0.139079
C	 0.0035062409	-0.0303152838	-0.0225681698	 0.288843
C	-0.7547426954	-0.7537161747	-1.0873739645	-0.166802
C	-0.3408368753	-2.195536969	-1.4792520969	-0.08933
O	-1.6579860588	-2.7029918966	-1.1893439387	-0.269802
C	-2.1003358933	-1.4233172742	-0.699213717	-0.082325
H	-0.1899132398	 1.9742773144	 1.0503666016	 0.117061
H	-0.2863044102	 2.0187678175	-0.7816209812	 0.114438
H	 2.0822490921	 0.8795446557	-0.7821323942	 0.106649
H	 0.7718025586	-1.680584877	 1.2450221119	 0.114416
H	-0.070702415	-0.4222796408	 2.201125169	 0.106246
H	-0.8564538594	-0.1080253372	-1.9634278874	 0.080587
H	-0.061541253	-2.3480319683	-2.5284512414	 0.103173
H	 0.4264824545	-2.6530812459	-0.8411414404	 0.101791
H	-2.3071363153	-1.444697216	 0.3797052167	 0.098382
H	-2.994036178	-1.0650114578	-1.223295336	 0.103663
39.4563	67.0147	151.236	225.64	317.7412	351.1407	453.0567	458.1934	601.3274	755.4798	815.537	848.8016	875.919	893.4407	929.554	949.496	984.6667	1000.2078	1010.719	1022.2456	1041.917	1046.8012	1062.0714	1082.8499	1087.2512	1122.1934	1158.5661	1160.8618	1162.167	1224.1343	1255.1009	1286.0043	1307.1907	1311.4001	1356.9836	1381.8716	1429.3759	1483.8695	1509.8518	1520.5834	1539.5811	3001.0264	3013.7846	3024.0607	3049.1681	3053.4787	3072.787	3077.0516	3110.7853	3176.9523	3203.7668
C1C2OCC12C1COC1	C1[C@H]2OC[C@@]12C1COC1	
InChI=1S/C7H10O2/c1-6-7(1,4-9-6)5-2-8-3-5/h5-6H,1-4H2	InChI=1S/C7H10O2/c1-6-7(1,4-9-6)5-2-8-3-5/h5-6H,1-4H2/t6-,7-/m1/s1
