20
gdb 56685	2.49094	1.28126	1.14976	2.8391	78.91	-0.2475	0.0315	0.279	1180.6203	0.172121	-399.322447	-399.313077	-399.312133	-399.356208	35.76	
N	-0.4232912861	 1.234116474	 0.1252384977	-0.506781
C	 0.0095536631	-0.1580570536	 0.0935855221	-0.135953
C	 0.7183531287	-0.5273786644	-1.1563585366	 0.255132
N	 1.2803261257	-0.7757847956	-2.1367283386	-0.338368
C	 0.9251889415	-0.4520120609	 1.3075523031	 0.333375
N	 2.0863541455	 0.4181280221	 1.206472628	-0.582257
C	 0.131061697	-0.3571714853	 2.6399122179	-0.258889
C	-0.029610537	-1.9021372258	 2.6336003633	-0.218922
C	 1.0865435365	-1.9892596477	 1.5578526778	-0.275838
H	 0.4045408433	 1.8182828105	 0.2093704882	 0.250435
H	-0.9045063618	 1.4847581464	-0.7318421992	 0.239927
H	-0.87380883	-0.8037867833	 0.1614099004	 0.122895
H	 2.6474875409	 0.3555800177	 2.0492955038	 0.230762
H	 2.6807302333	 0.1320474522	 0.4316301848	 0.242657
H	 0.7771990367	-0.012931996	 3.4531243592	 0.096335
H	-0.7659205281	 0.2631300945	 2.6227277737	 0.125831
H	 0.1531092838	-2.4208580608	 3.5763264991	 0.104065
H	-1.0044841254	-2.2207116315	 2.2556954061	 0.108213
H	 0.9328654993	-2.6579414606	 0.7061514476	 0.10996
H	 2.065761773	-2.206804372	 1.9939326718	 0.09742
86.8143	131.7605	135.477	234.2323	240.4244	290.8668	307.8215	343.3356	355.2225	395.7699	467.6179	528.3557	602.724	673.4601	764.8184	784.2755	825.5733	869.9343	877.7809	901.381	936.5952	958.832	980.0091	1020.1765	1053.3618	1099.2847	1110.8734	1183.8066	1202.5144	1221.0536	1247.4762	1250.8571	1274.2559	1298.7192	1329.7004	1355.9051	1394.496	1475.2162	1487.043	1508.118	1637.9926	1654.2078	2336.3041	3045.5121	3052.4079	3060.461	3069.1823	3101.1615	3118.8449	3132.535	3484.3416	3496.0595	3571.8667	3585.536
NC(C#N)C1(N)CCC1	N[C@@H](C#N)C1(N)CCC1	
InChI=1S/C6H11N3/c7-4-5(8)6(9)2-1-3-6/h5H,1-3,8-9H2	InChI=1S/C6H11N3/c7-4-5(8)6(9)2-1-3-6/h5H,1-3,8-9H2/t5-/m0/s1
