15
gdb 28821	3.28382	1.37735	1.04435	2.1399	80.36	-0.2455	-0.0837	0.1618	1114.7369	0.112654	-416.838801	-416.830949	-416.830005	-416.871435	28.798	
C	-0.391955897	 1.4050317477	 0.1296267776	-0.438449
C	 0.0620175418	-0.0153674364	-0.0478626124	 0.357916
N	 0.0762773642	-0.5145618688	-1.2456142024	-0.274865
C	 0.2641044956	-1.829568567	-1.5534515238	 0.013651
C	 0.0723897227	-2.9404434659	-0.7891583055	-0.18408
C	-0.1215418294	-2.9764829666	 0.6558423522	 0.309735
O	-0.5722289643	-3.9259518905	 1.2725357674	-0.340402
C	 0.5087109199	-1.8347394026	 1.4025900635	-0.05863
N	 0.5427580686	-0.5898781185	 1.1094536066	-0.222688
H	 0.4452380071	 2.0293308335	 0.4588095529	 0.152883
H	-0.7972216035	 1.7918539329	-0.8047563273	 0.144342
H	-1.1512536028	 1.4571185203	 0.9174859104	 0.144672
H	 0.486873017	-1.9861335148	-2.6077676072	 0.124233
H	 0.0950140124	-3.9132381614	-1.2730162841	 0.125309
H	 0.9867767078	-2.1435173819	 2.3362313922	 0.146373
81.5126	123.6	180.6806	289.4191	301.9053	341.8159	365.4758	452.7532	494.0404	618.2344	681.133	718.3676	732.4291	835.641	851.0101	912.4257	974.9061	985.0472	1015.1355	1063.7655	1099.01	1250.3883	1266.158	1302.4067	1387.3316	1403.5385	1447.2811	1464.7006	1472.3476	1555.0485	1616.2283	1689.4577	1748.2237	3044.1376	3100.5681	3101.6811	3141.6618	3163.4617	3176.2977
CC1=NC=CC(=O)C=N1	C[C]1[N]C=CC(=O)C=N1	
InChI=1S/C6H6N2O/c1-5-7-3-2-6(9)4-8-5/h2-4H,1H3	InChI=1S/C6H6N2O/c1-5-7-3-2-6(9)4-8-5/h2-4H,1H3
