17
gdb 34912	2.91895	1.61268	1.29101	2.9602	77.15	-0.2226	0.06	0.2826	1003.7392	0.13741	-380.775021	-380.767705	-380.766761	-380.806664	29.546	
C	-0.1854206554	-1.267088096	-0.3297276514	-0.47203
C	-0.0757613236	-0.0879656654	-0.1259998355	 0.361215
C	 0.0379836457	 1.3475074662	 0.0925421169	-0.187111
C	-0.5957023451	 1.8592403114	 1.4030871468	-0.061032
N	 0.0167440621	 1.3647336367	 2.6404343234	-0.296624
C	 0.3963247601	 2.6967463016	 2.1301551596	-0.047979
C	 1.6819009283	 2.7172911296	 1.3261933021	-0.047999
N	 2.3372767148	 1.4018217959	 1.189284958	-0.296629
C	 1.4815494134	 1.8924071098	 0.1040627795	-0.061011
H	-0.2695859422	-2.3128558016	-0.4914438433	 0.190032
H	-0.4818336167	 1.8661605246	-0.725442282	 0.102051
H	-1.6578252579	 2.0837199347	 1.3925138165	 0.092086
H	-0.6472480516	 1.4720211623	 3.4038611953	 0.23085
H	 0.1078525299	 3.5860589048	 2.6800714084	 0.085621
H	 2.2820024913	 3.6208096828	 1.3204054034	 0.085621
H	 3.31156223	 1.5352947088	 0.9281913643	 0.230848
H	 1.9315494269	 2.141018604	-0.8521273719	 0.092088
109.9086	129.8117	283.3351	302.1675	373.2071	503.4534	525.0442	565.6722	616.9273	627.4826	690.6075	732.3553	765.6687	841.5983	848.2753	866.7925	873.9816	893.4023	924.6088	985.5227	996.773	1042.6541	1058.6689	1077.8857	1130.3281	1138.7012	1173.4552	1186.1188	1226.8841	1243.8442	1295.2806	1318.9377	1328.8646	1391.7672	1424.9963	1427.522	2239.4316	3009.407	3151.5705	3154.1587	3163.8591	3176.989	3495.1221	3496.4022	3506.422
C#CC1C2NC2C2NC12	C#C[C@H]1[C@H]2N[C@H]2[C@H]2N[C@@H]12	
InChI=1S/C7H8N2/c1-2-3-4-6(8-4)7-5(3)9-7/h1,3-9H	InChI=1S/C7H8N2/c1-2-3-4-6(8-4)7-5(3)9-7/h1,3-9H/t3-,4+,5-,6+,7-
