19
gdb 18527	5.5926	1.12518	1.0523	1.6346	71.79	-0.231	0.0838	0.3148	1174.9575	0.165584	-364.997107	-364.988996	-364.988052	-365.030112	29.608	
C	 0.7753391662	 1.3054204267	-2.5516209268	-0.224785
O	 0.8257301165	-0.0658712688	-2.2400110581	-0.232883
C	-0.2974260417	-0.5065836736	-1.5070751904	-0.067937
C	-0.1029259809	-1.984943868	-1.2265653487	 0.045703
C	 0.9375855442	-2.46307165	-0.177662849	-0.269144
C	-0.2312196364	-3.1638197756	 0.5124040419	-0.006972
C	-1.2875078447	-2.2003865797	 0.863783502	-0.239215
N	-1.2396054264	-2.6951782525	-0.5295191664	-0.156177
H	-0.1017551279	 1.5522833344	-3.1707297605	 0.105362
H	 0.7395526945	 1.9302111445	-1.6447258365	 0.10266
H	 1.6819808732	 1.548012178	-3.1113452452	 0.127416
H	-0.3959441611	 0.0778107784	-0.5776584969	 0.081245
H	-1.2285466222	-0.3631154085	-2.0822033078	 0.096256
H	 0.052766122	-2.4856687413	-2.1854284994	 0.095607
H	 1.6830712204	-3.1393791131	-0.5975755521	 0.113149
H	 1.4510928546	-1.6960164342	 0.4100497528	 0.103385
H	-0.2317189089	-4.1873451458	 0.8727387355	 0.094778
H	-2.1576677333	-2.5728720619	 1.3954824357	 0.120955
H	-1.0296008682	-1.1698954188	 1.09406808	 0.110597
74.9295	91.2145	139.5029	219.5417	242.0469	335.791	357.2257	454.2554	517.7601	718.7944	760.7171	787.5768	857.2427	885.0735	949.6857	974.551	991.7081	1041.4404	1060.9829	1103.2129	1116.8269	1127.1299	1130.5059	1163.0483	1179.1736	1200.4215	1223.1231	1235.4991	1260.1956	1268.4514	1285.3144	1354.4789	1380.3833	1429.9771	1480.8436	1486.0256	1489.3737	1501.5745	1509.566	1527.6471	2953.47	2970.8505	2985.6498	3012.4156	3056.5363	3076.0859	3113.2456	3113.422	3124.2416	3164.6352	3199.7082
COCC1CC2CN12	COC[C@H]1C[C@H]2CN12	
InChI=1S/C6H11NO/c1-8-4-6-2-5-3-7(5)6/h5-6H,2-4H2,1H3	InChI=1S/C6H11NO/c1-8-4-6-2-5-3-7(5)6/h5-6H,2-4H2,1H3/t5-,6+,7?/m0/s1
