18
gdb 33253	4.27737	0.87611	0.81923	3.7617	74.85	-0.1915	0.0318	0.2233	1417.1278	0.150061	-435.289551	-435.28097	-435.280026	-435.323692	31.879	
O	 0.3776291522	 0.1578137056	-0.8191151846	-0.421109
C	-0.4696939419	-0.3793231913	 0.1727340461	-0.037872
C	-1.7123143173	 0.4986612248	 0.3658688447	-0.179525
N	-2.40735675	 0.6890721729	-0.9035856273	-0.397153
C	-3.4122300195	-0.2022915071	-1.2744685033	 0.323937
C	-3.6331403197	-1.5022058137	-0.8789917087	-0.186664
N	-4.7548635438	-1.89820336	-1.5949432172	-0.232824
C	-5.1423277195	-0.8487575201	-2.357739601	 0.018332
N	-4.3565072306	 0.1936707848	-2.1907916596	-0.324128
H	-0.2131402414	 0.3966367403	-1.5470848752	 0.283297
H	-0.7724394774	-1.4099796474	-0.0764963694	 0.083415
H	 0.1010202789	-0.423007557	 1.1068928288	 0.102528
H	-2.3752151337	 0.0655831304	 1.1314695085	 0.092983
H	-1.3844500963	 1.4813885743	 0.7176191484	 0.109972
H	-2.6984886129	 1.6383700286	-1.0862572903	 0.245487
H	-3.1246199858	-2.1655112829	-0.2029013907	 0.123217
H	-5.1938645458	-2.8015836453	-1.5505465389	 0.265911
H	-5.9998798955	-0.8911079671	-3.0120925501	 0.130195
59.6745	64.4423	126.272	197.7555	282.4412	347.6146	449.4057	472.1255	472.3208	547.5315	610.4072	639.6974	655.762	726.342	750.2597	809.7409	882.1584	889.7529	948.8109	989.6814	1070.3738	1091.3523	1123.0121	1132.2769	1153.5878	1208.9604	1247.327	1280.243	1295.0594	1357.0861	1383.9086	1390.4295	1436.9905	1461.3506	1473.2233	1494.0256	1507.2281	1543.2766	1630.9906	2966.2843	2983.1087	3066.004	3086.8015	3254.576	3293.0003	3602.2878	3675.7001	3738.532
OCCNC1=CNC=N1	OCCNc1c[nH]cn1	
InChI=1S/C5H9N3O/c9-2-1-7-5-3-6-4-8-5/h3-4,7,9H,1-2H2,(H,6,8)	InChI=1S/C5H9N3O/c9-2-1-7-5-3-6-4-8-5/h3-4,7,9H,1-2H2,(H,6,8)
