23
gdb 100255	2.17921	0.99682	0.87726	0.932	91.22	-0.2398	0.0528	0.2925	1542.7074	0.201135	-388.262509	-388.250499	-388.249555	-388.300809	41.894	
C	-0.1217965159	 1.5108035774	 0.1675888298	-0.387316
C	 0.0228057571	-0.0084496246	 0.075318551	-0.199838
C	 0.7037521255	-0.4990759476	-1.2295058845	 0.167243
C	 0.747068933	-2.0405040031	-1.2630557407	-0.427323
O	 0.0493554714	 0.036180126	-2.3944484361	-0.275427
C	-1.2756690853	-0.3811471728	-2.6420434285	-0.241167
C	 2.0784000733	 0.0170510636	-1.2995324716	 0.091138
C	 3.215720648	 0.4102758704	-1.3270540858	 0.069652
C	 4.5877998782	 0.8952823917	-1.3771074281	-0.501797
H	 0.8572652919	 1.9967662735	 0.1311504806	 0.127837
H	-0.7151665462	 1.9010973544	-0.6634374086	 0.125556
H	-0.6112091799	 1.7969501929	 1.1034753194	 0.104783
H	 0.6147116026	-0.38459053	 0.91709414	 0.103114
H	-0.9599977368	-0.48812007	 0.1567924164	 0.091824
H	-0.251054888	-2.4697039544	-1.1366824611	 0.112026
H	 1.1645146172	-2.3831560232	-2.2131315864	 0.128553
H	 1.3795107456	-2.4117629443	-0.4529831245	 0.125498
H	-1.3516746425	-1.4565487686	-2.8531644106	 0.107121
H	-1.9629073062	-0.1397800536	-1.8190423472	 0.105645
H	-1.602512492	 0.1653158767	-3.5306488563	 0.127558
H	 5.2776283052	 0.1114081425	-1.7088078558	 0.147006
H	 4.6825078986	 1.7363342292	-2.0727133271	 0.151651
H	 4.925145115	 1.2401386839	-0.3934177345	 0.146663
26.4778	76.8407	83.7415	94.025	123.4984	190.8922	221.6958	232.1763	273.4044	290.7237	300.496	335.1683	364.7506	416.4478	442.6704	542.1372	590.9273	643.6233	766.3171	844.0593	883.9941	993.8478	1025.6222	1040.9545	1052.344	1055.5888	1086.8456	1106.8453	1135.632	1175.2479	1179.312	1211.8516	1265.7492	1326.5831	1359.9516	1397.3865	1408.4334	1413.8804	1468.2103	1475.6123	1477.9682	1479.16	1490.0048	1492.2853	1498.7584	1500.9944	1506.5026	1514.1384	2372.7048	2993.2798	3027.2792	3031.6831	3043.6457	3045.302	3048.4917	3069.8023	3087.3781	3089.4172	3107.26	3113.3501	3119.6813	3123.4142	3131.4449
CCC(C)(OC)C#CC	CC[C@@](C)(OC)C#CC	
InChI=1S/C8H14O/c1-5-7-8(3,6-2)9-4/h6H2,1-4H3	InChI=1S/C8H14O/c1-5-7-8(3,6-2)9-4/h6H2,1-4H3/t8-/m1/s1
