18
gdb 110341	2.38018	1.32166	1.2251	3.2547	72.57	-0.2376	0.0083	0.2459	1130.8438	0.147055	-439.066587	-439.057607	-439.056663	-439.100787	32.481	
C	-0.0222109174	 1.2751220932	-0.2821332234	-0.348905
N	-0.0032921812	-0.1077347337	 0.1407725527	-0.081925
C	-1.0893726908	-1.0888704284	 0.1802732655	-0.046281
C	-1.1740885696	-1.9136955314	-1.0741097566	-0.045957
C	-0.8812463072	-1.4329555668	-2.480222057	-0.098246
O	-0.3943758557	-2.4801072656	-3.3016420571	-0.416395
C	-0.0740767264	-2.1971539824	-0.0404996908	-0.263513
C	 0.9644831696	-1.0751750726	-0.1167100045	 0.398009
O	 2.1400802402	-0.9856660396	-0.3503438839	-0.367632
H	 1.0129512872	 1.5795281542	-0.4566296775	 0.159509
H	-0.59525822	 1.4219094165	-1.2073644157	 0.123493
H	-0.4484939836	 1.9170080897	 0.4954454561	 0.131254
H	-1.8614930697	-1.0310666797	 0.9370567819	 0.115694
H	-1.9564675837	-2.6711638125	-1.0377641782	 0.10811
H	-1.8084389183	-1.0895782281	-2.9516944373	 0.114024
H	-0.1862264279	-0.5827178177	-2.4640032174	 0.106368
H	 0.4499546449	-2.7639876773	-2.933986409	 0.292234
H	 0.0236198096	-3.1437911678	 0.4707919122	 0.12016
59.13	117.8685	136.8193	147.8285	216.7152	241.1961	298.7154	366.2119	468.9149	483.4334	594.8898	705.2933	730.2393	772.9147	822.6089	842.251	878.1056	960.0879	990.2376	1008.6097	1044.7321	1064.9875	1076.8981	1098.2379	1148.8366	1170.7389	1238.4869	1244.7275	1264.9458	1278.6439	1361.6694	1381.212	1413.5557	1439.0518	1445.699	1482.6042	1503.4406	1514.8098	1876.8691	3010.6753	3016.5362	3071.9621	3077.0718	3126.2167	3126.619	3195.4402	3228.2972	3804.734
CN1C2C(CO)C2C1=O	CN1[C@H]2[C@@H](CO)[C@H]2C1=O	
InChI=1S/C6H9NO2/c1-7-5-3(2-8)4(5)6(7)9/h3-5,8H,2H2,1H3	InChI=1S/C6H9NO2/c1-7-5-3(2-8)4(5)6(7)9/h3-5,8H,2H2,1H3/t3-,4+,5-/m0/s1
