18
gdb 29782	2.50729	1.50651	0.95626	1.8314	76.81	-0.1737	0.0483	0.2219	1209.4666	0.148225	-435.281091	-435.271179	-435.270235	-435.315978	35.69	
C	-0.0816088807	 1.4535180638	-0.0220103315	-0.339214
N	-0.0607468831	 0.0069781098	-0.001459458	-0.007884
C	-0.1295729314	-0.8049671934	-1.0994051928	-0.17288
C	-0.0166304901	-2.1171990393	-0.6761406352	 0.054297
N	-0.0429734721	-3.3611541562	-1.3802033595	-0.625773
C	 0.1354370899	-2.0821717154	 0.7335754452	 0.260252
O	 0.2637736083	-3.1786487285	 1.5298201057	-0.463928
C	 0.1117858738	-0.7673549034	 1.1447312875	 0.139613
N	 0.1847992726	-0.1627065675	 2.4189759816	-0.614104
H	-0.2610528171	 1.8046016982	 0.9946348989	 0.15969
H	 0.8705686215	 1.8698042844	-0.3736223114	 0.124531
H	-0.8815118164	 1.8103851723	-0.6774301216	 0.12673
H	-0.247029776	-0.3906346944	-2.0887316534	 0.104493
H	 0.7210367827	-3.4390274435	-2.0440098148	 0.238472
H	-0.9040059225	-3.4832522888	-1.9034179707	 0.238537
H	 0.2144982003	-3.9299487253	 0.9198154617	 0.289565
H	 1.1100178732	-0.2514727452	 2.8290963177	 0.241667
H	-0.4648030431	-0.5987431476	 3.0653593606	 0.245935
54.5858	110.8592	140.5663	163.9949	184.5409	240.1196	293.0149	300.2587	314.216	327.1827	532.3276	569.0979	602.414	610.5806	619.1911	687.5676	703.023	760.1728	808.3121	847.6004	940.2228	1077.7002	1145.9808	1152.1833	1197.0527	1202.2231	1218.6682	1251.1064	1334.446	1404.4725	1420.5633	1463.4163	1484.7693	1497.5718	1518.1625	1577.4722	1645.7542	1659.6619	1683.4594	3021.2037	3085.132	3149.9838	3248.1146	3488.2638	3493.2914	3551.4472	3559.1965	3722.157
CN1C=C(N)C(O)=C1N	Cn1cc(N)c(O)c1N	
InChI=1S/C5H9N3O/c1-8-2-3(6)4(9)5(8)7/h2,9H,6-7H2,1H3	InChI=1S/C5H9N3O/c1-8-2-3(6)4(9)5(8)7/h2,9H,6-7H2,1H3
