18
gdb 104567	2.7723	1.16729	0.97497	1.7192	73.81	-0.2571	-0.0417	0.2155	1244.9743	0.145429	-439.12228	-439.112946	-439.112002	-439.156812	33.83	
C	-0.3165090411	 1.5888231984	 0.0287053915	-0.399861
C	 0.043427083	 0.0998594518	 0.0715433156	-0.23375
C	 0.7372346687	-0.4005392456	-1.1939359564	 0.24181
C	 0.7168590063	-1.9572011244	-1.4253255371	-0.458199
C	-0.1474859989	-1.6533505405	-2.6720162616	 0.444443
O	-0.6957990521	-2.2962997099	-3.5218255004	-0.347984
N	-0.042102033	-0.2999049529	-2.4418306032	-0.36356
C	 2.1464415741	 0.1481654857	-1.3722363639	 0.135402
O	 2.7752436305	 0.7252718432	-0.5244233773	-0.249149
H	 0.5775828253	 2.2091469202	-0.0706382491	 0.142393
H	-0.9896682798	 1.8120367653	-0.8066418595	 0.107927
H	-0.8305012464	 1.8852028178	 0.9472422926	 0.125306
H	 0.7107250108	-0.0939920494	 0.9176266948	 0.124621
H	-0.8626640543	-0.4969321364	 0.2249241433	 0.10222
H	 1.6790848752	-2.4192359826	-1.6580778571	 0.140144
H	 0.2190178974	-2.5202325608	-0.6349057351	 0.145007
H	-0.4631962168	 0.4914467831	-2.9071400721	 0.256154
H	 2.5678561509	-0.0504468829	-2.3848636249	 0.087077
62.3326	99.7208	104.0819	193.7485	213.6125	282.4488	317.9455	369.6875	395.2459	425.5977	465.9157	533.3221	560.026	711.2975	776.0087	800.2564	884.9428	925.2078	956.0045	987.987	1023.3484	1045.0066	1079.9425	1116.7503	1146.6869	1190.1667	1236.1007	1265.701	1328.5761	1353.6068	1371.6992	1411.098	1419.4263	1453.4402	1472.2891	1502.2714	1508.8605	1830.7462	1905.6608	2872.668	3039.0192	3041.6332	3082.4295	3085.7217	3106.9572	3129.3583	3145.7663	3605.4521
CCC1(CC(=O)N1)C=O	CC[C@]1(CC(=O)N1)C=O	
InChI=1S/C6H9NO2/c1-2-6(4-8)3-5(9)7-6/h4H,2-3H2,1H3,(H,7,9)	InChI=1S/C6H9NO2/c1-2-6(4-8)3-5(9)7-6/h4H,2-3H2,1H3,(H,7,9)/t6-/m0/s1
