15
gdb 33618	3.53113	1.67009	1.46064	1.8551	75.26	-0.2329	0.0124	0.2453	903.2725	0.1139	-379.533356	-379.526946	-379.526001	-379.563984	26.424	
C	-0.0176098554	-1.1967020554	-0.0715131474	-0.31429
C	-0.017264893	 0.0057814251	-0.037095044	-0.010623
C	-0.021378974	 1.4260671148	-0.0054470121	 0.372557
C	-0.5106334735	 2.3601401793	 1.1579543267	-0.104669
N	 0.8961123211	 2.6199780248	 1.5287119251	-0.306723
C	 1.2142488261	 2.3886490103	 0.1042193728	-0.104671
C	 0.3406172235	 3.3147029663	-0.787583802	-0.06156
C	-0.9277522964	 3.293712086	-0.0127613484	-0.061553
N	-0.7037655921	 2.2821190547	-1.0993509455	-0.2089
H	-0.0179423855	-2.2582573042	-0.101739985	 0.186035
H	-1.2198377046	 2.090372727	 1.9371206341	 0.095994
H	 1.0836940631	 3.5661672487	 1.8613689374	 0.213362
H	 2.237378617	 2.1475214318	-0.1749029416	 0.095998
H	 0.6285992562	 4.0677102922	-1.509845259	 0.104522
H	-1.7197740624	 4.0288365587	-0.0752784109	 0.104521
146.3042	156.5648	415.6718	460.9712	499.7189	572.6538	580.3762	621.3769	664.2014	747.6281	772.5791	820.6985	824.3477	840.5279	860.1304	916.1426	931.3657	955.3516	992.7135	1004.8882	1014.4989	1031.7208	1088.4375	1116.1787	1127.7673	1195.3979	1213.7962	1263.984	1269.911	1314.2018	1338.9451	1351.6566	2235.4487	3148.385	3149.8395	3193.6435	3205.0792	3451.6565	3501.3927
C#CC12C3NC1C1C3N21	C#C[C@@]12[C@H]3N[C@@H]1[C@@H]1[C@H]3N21	
InChI=1S/C7H6N2/c1-2-7-5-3-4(9(3)7)6(7)8-5/h1,3-6,8H	InChI=1S/C7H6N2/c1-2-7-5-3-4(9(3)7)6(7)8-5/h1,3-6,8H/t3-,4+,5+,6-,7-,9?
