19
gdb 92465	2.65792	1.74535	1.72553	1.1029	74.71	-0.2417	0.0007	0.2423	932.7886	0.161269	-423.026401	-423.019112	-423.018168	-423.057683	29.757	
C	-0.0964807551	 1.5493723298	-0.0034741661	-0.407035
C	 0.0345843553	 0.0313538369	 0.0055975912	 0.15283
O	 0.7448674308	-0.3874734479	-1.1719051773	-0.298749
C	 1.8686252072	-1.2304264652	-0.8596107686	 0.032072
C	 2.8265690848	-0.3880473326	 0.0001949889	-0.069501
O	 2.1399439891	 0.0165957741	 1.1864922424	-0.277074
C	 0.8014316374	-0.5160048465	 1.2326488347	 0.022705
C	 0.8445770666	-2.0200373409	 1.1098793302	-0.07855
C	 1.42344063	-2.4086666725	-0.0265697679	-0.077057
H	 0.8798097137	 2.0200192042	 0.134336065	 0.132529
H	-0.5193921722	 1.8817979269	-0.9551064575	 0.123166
H	-0.7603289253	 1.8795443878	 0.8029421546	 0.107935
H	-0.9661636605	-0.4256880981	-0.0142473219	 0.072829
H	 2.3201927184	-1.5051413697	-1.8137390936	 0.081175
H	 3.7255903784	-0.9582536074	 0.2701129809	 0.097073
H	 3.1255461014	 0.5083131605	-0.5575716161	 0.103277
H	 0.3664008479	-0.1593002726	 2.1671340535	 0.07996
H	 0.4375377157	-2.6766702753	 1.8698621853	 0.101087
H	 1.5873051764	-3.4343436516	-0.3355766076	 0.101326
130.7638	219.5042	258.9297	307.5938	372.0002	410.0945	419.4735	492.2843	648.9032	659.6441	690.0851	720.6606	804.6139	831.0023	870.0708	925.7612	950.6679	960.0025	975.086	985.4938	1029.792	1059.1881	1080.1088	1092.36	1107.8272	1139.2003	1149.6975	1227.9734	1286.6977	1301.7553	1318.1091	1334.4474	1358.6502	1378.5258	1385.3555	1396.7956	1402.4102	1485.8195	1493.9901	1509.4033	1677.7924	2986.566	3005.6516	3040.8944	3049.4618	3107.4791	3109.5041	3112.9008	3133.3459	3185.4697	3209.2141
CC1OC2COC1C=C2	C[C@H]1O[C@H]2CO[C@@H]1C=C2	
InChI=1S/C7H10O2/c1-5-7-3-2-6(9-5)4-8-7/h2-3,5-7H,4H2,1H3	InChI=1S/C7H10O2/c1-5-7-3-2-6(9-5)4-8-7/h2-3,5-7H,4H2,1H3/t5-,6-,7-/m1/s1
