19
gdb 68797	2.79239	1.32195	1.09222	1.9468	82.53	-0.2296	0.0242	0.2539	1187.0425	0.155994	-385.824143	-385.814764	-385.81382	-385.857822	35.448	
C	-0.0805758621	 1.5259785927	 0.0298292383	-0.493357
C	 0.0484056248	 0.0388528254	 0.0579607574	 0.437972
C	 1.2256418315	-0.7883177667	-0.3688664279	-0.390776
C	 0.6442417643	-0.9670746536	 1.0231189002	 0.202182
C	 1.419510416	-0.8486232353	 2.3005465518	-0.499112
C	-0.7003367633	-1.6979953028	 0.8768668894	-0.102967
O	-1.1578314169	-0.728402712	-0.1132836201	-0.335868
C	-0.7154279467	-3.0766587481	 0.4168812606	 0.329428
C	-0.7164983848	-4.2225953519	 0.0533657139	-0.444414
H	 0.8804175885	 1.9995895757	 0.2504469655	 0.123067
H	-0.4008856601	 1.8629161746	-0.9626190359	 0.136009
H	-0.8189841272	 1.87139719	 0.7600817471	 0.127551
H	 1.1035300628	-1.5558971456	-1.127964358	 0.122766
H	 2.1813111673	-0.2719081324	-0.3824708293	 0.109448
H	 2.183488993	-0.0684048922	 2.2238358712	 0.122532
H	 0.7685588683	-0.5972875865	 3.145687961	 0.119986
H	 1.9330615265	-1.7871771171	 2.5406762279	 0.131213
H	-1.3088629504	-1.5969332997	 1.7853576999	 0.104264
H	-0.7215974815	-5.2336314644	-0.2719889029	 0.200077
105.0147	125.1441	167.5605	177.0929	194.3861	254.9528	308.4017	345.3017	391.7115	460.7088	522.4989	558.7096	622.7012	626.4326	668.5875	708.9162	744.6051	843.8572	922.1501	942.9873	947.5972	978.5009	993.1618	1041.2133	1054.1614	1104.7419	1114.1496	1195.2661	1208.6739	1243.6592	1318.5003	1350.6833	1399.9788	1414.2116	1434.9141	1473.1752	1485.475	1493.9377	1496.5936	1516.9474	2233.7614	3014.9562	3022.8426	3033.1575	3081.7632	3096.7773	3097.998	3113.0337	3115.8661	3204.0142	3502.1315
CC12CC1(C)C(O2)C#C	C[C@@]12C[C@]1(C)[C@@H](O2)C#C	
InChI=1S/C8H10O/c1-4-6-7(2)5-8(7,3)9-6/h1,6H,5H2,2-3H3	InChI=1S/C8H10O/c1-4-6-7(2)5-8(7,3)9-6/h1,6H,5H2,2-3H3/t6-,7+,8+/m0/s1
