21
gdb 91855	3.60504	1.08694	0.96688	3.0204	83.64	-0.2449	-0.0187	0.2262	1294.9466	0.182811	-387.113273	-387.104585	-387.103641	-387.146548	33.495	
C	-0.0446616138	 1.5531666706	-0.1346467863	-0.408467
C	 0.0640440696	 0.0352379395	-0.0144084891	 0.064772
C	 0.8857604175	-0.6459677328	-1.1401121843	-0.246462
C	 1.3601133384	-1.9745640939	-0.5579527166	-0.054331
C	 2.5828083687	-1.9871158402	 0.2878458717	-0.315966
C	 1.23648858	-1.8656270503	 0.9843543919	 0.260855
C	 0.7178631316	-0.4667760118	 1.2981646531	-0.336475
C	 0.7427337194	-3.0457594525	 1.7229151085	 0.063458
O	 1.1229685509	-4.1807502309	 1.5446445497	-0.279965
H	 0.946058451	 2.0214977525	-0.0968922296	 0.113162
H	-0.5153549933	 1.8461006357	-1.0790701397	 0.115746
H	-0.6436755343	 1.97588585	 0.6789012965	 0.115509
H	-0.9466734895	-0.3934425241	-0.0518342262	 0.075898
H	 0.2882650599	-0.7901723553	-2.0445978217	 0.105578
H	 1.7412591102	-0.0174211881	-1.419836176	 0.100332
H	 1.0587204662	-2.9074092478	-1.0208266441	 0.109166
H	 3.0864890263	-2.937874661	 0.4255013955	 0.13803
H	 3.220012676	-1.1075792553	 0.2990295278	 0.11152
H	 1.5345794987	 0.1997388218	 1.6025875221	 0.100276
H	 0.0011840804	-0.4837609263	 2.1269284253	 0.10277
H	-0.048573674	-2.8224797997	 2.4757053915	 0.064597
82.4727	116.499	199.069	218.2525	241.131	303.9784	337.8587	403.8951	429.1219	467.962	571.543	698.7379	750.2211	771.8127	836.2547	866.4672	875.5576	924.1929	941.926	966.6841	977.4068	1035.8793	1052.0669	1074.5511	1091.6583	1098.4959	1121.158	1160.8923	1187.7263	1252.7129	1258.7325	1294.4582	1301.558	1313.3754	1351.7669	1374.6621	1388.1584	1413.5672	1431.6461	1466.5416	1490.7734	1495.8161	1497.1715	1504.4311	1797.0537	2859.9893	3006.8944	3022.8432	3023.8948	3029.7617	3068.6642	3087.1371	3093.682	3097.7112	3119.9849	3179.2404	3219.16
CC1CC2CC2(C1)C=O	C[C@H]1C[C@H]2C[C@]2(C1)C=O	
InChI=1S/C8H12O/c1-6-2-7-4-8(7,3-6)5-9/h5-7H,2-4H2,1H3	InChI=1S/C8H12O/c1-6-2-7-4-8(7,3-6)5-9/h5-7H,2-4H2,1H3/t6-,7-,8+/m0/s1
