25
gdb 120977	3.7746	0.82246	0.77233	0.1622	92.76	-0.2587	0.0809	0.3396	1643.4274	0.229793	-352.337946	-352.32843	-352.327486	-352.373032	36.304	
C	-0.132976804	 1.576215073	-0.0253733161	-0.38006
C	-0.0696375706	 0.0473338794	-0.0759819577	-0.160224
C	 0.7679965371	-0.4850405211	-1.2461631045	-0.194634
C	 0.82427215	-2.0069436721	-1.2996945933	 0.04915
C	-0.4533024507	-2.8166915679	-1.6922014206	-0.254361
C	 0.4035971384	-3.7206751067	-2.6271450343	-0.005573
C	 0.341022199	-3.3450301973	-4.1248863518	-0.21799
C	 1.4084517491	-2.2343553396	-3.883677417	-0.231212
C	 1.6122702277	-2.7368175095	-2.4205530873	-0.051287
H	 0.8685394657	 2.0100831275	 0.072371894	 0.112329
H	-0.5802537587	 1.9847610082	-0.938524471	 0.112343
H	-0.7310137284	 1.92523701	 0.8224687743	 0.1092
H	 0.3454017722	-0.3339081579	 0.8666833126	 0.092015
H	-1.087082325	-0.3594717603	-0.1439377554	 0.098344
H	 0.3570632553	-0.0916830892	-2.185751291	 0.08965
H	 1.7899718482	-0.0862286702	-1.1712155138	 0.088144
H	 1.193005531	-2.3759746168	-0.3341270795	 0.064619
H	-0.9582387885	-3.3269461449	-0.8685592861	 0.095839
H	-1.2034678704	-2.2286059049	-2.2331992375	 0.089535
H	 0.4426850039	-4.7787407031	-2.3636293744	 0.057518
H	 0.7121206698	-4.1415924825	-4.7760563475	 0.095694
H	-0.6351607178	-3.0239932323	-4.5025622968	 0.090229
H	 2.297209719	-2.3199753195	-4.5131990049	 0.098651
H	 1.0391771119	-1.2095044797	-3.9724548155	 0.097997
H	 2.6237424758	-3.0687296225	-2.178076655	 0.054083
55.4884	79.5346	100.4167	125.738	246.7521	256.9285	311.2037	343.9578	384.6444	487.5623	630.2834	728.0855	743.1531	747.4236	785.9344	839.3837	849.4762	891.1636	897.9475	899.8887	938.9931	957.0757	1010.4708	1017.8965	1038.6184	1058.225	1061.2294	1110.4145	1132.0409	1143.6765	1158.1314	1202.6697	1215.8865	1230.0273	1247.9123	1261.0763	1268.0033	1271.8181	1292.5274	1305.7514	1307.9531	1324.1659	1338.2641	1373.586	1396.9536	1412.2951	1475.0709	1479.1362	1484.0789	1493.1984	1497.2324	1499.741	1510.1467	3001.0702	3012.3471	3015.9095	3027.8642	3032.3677	3036.5744	3042.1548	3054.4535	3062.8548	3076.2714	3086.6375	3089.3567	3094.5422	3099.3054	3102.2023	3114.183
CCCC1CC2CCC12	CCC[C@H]1C[C@H]2CC[C@@H]12	
InChI=1S/C9H16/c1-2-3-7-6-8-4-5-9(7)8/h7-9H,2-6H2,1H3	InChI=1S/C9H16/c1-2-3-7-6-8-4-5-9(7)8/h7-9H,2-6H2,1H3/t7-,8+,9-/m0/s1
