18
gdb 105841	2.14658	1.55529	1.2078	2.186	73.29	-0.2497	0.0129	0.2626	1117.4529	0.146471	-439.053901	-439.045099	-439.044154	-439.087487	32.98	
C	 0.0769153896	 1.5525686158	-0.1658440528	-0.379457
C	-0.1066772738	 0.0381924618	 0.010090692	-0.301942
C	 0.644823207	-0.4887166621	 1.2004950278	 0.147541
C	 2.1143195493	-0.9744583736	 1.1728013535	 0.084744
O	 3.1423285588	-0.4922697223	 1.9637177781	-0.423653
C	 1.0630872326	-1.8871716261	 1.6772869457	-0.054339
O	 0.7916042984	-1.522899014	 3.0617994167	-0.299663
C	 0.2820277599	-0.2860167025	 2.633171839	 0.400361
N	-0.3201282127	 0.6009018992	 3.2795702925	-0.553786
H	 1.1309691069	 1.8046536899	-0.3194397828	 0.122494
H	-0.4894647692	 1.9135058745	-1.0294317683	 0.111235
H	-0.2711616664	 2.085316202	 0.7230055361	 0.152879
H	-1.1726549902	-0.1939765921	 0.1228452481	 0.112783
H	 0.2333094698	-0.4899770202	-0.8891307765	 0.099922
H	 2.4548877454	-1.1616521736	 0.1574346933	 0.122049
H	 2.9048461984	-0.6745890482	 2.8822774999	 0.300614
H	 0.7828099291	-2.887282416	 1.3717727579	 0.12528
H	-0.4156978331	 0.3520300175	 4.2652605599	 0.232939
72.4002	124.1549	149.5301	197.4414	246.536	285.3078	344.2518	390.8379	426.473	456.9882	641.8068	662.3122	709.8766	766.8195	788.4679	824.6917	862.8886	896.1815	918.5251	943.5803	994.8538	998.9569	1021.4517	1064.5365	1106.3598	1162.7272	1176.7847	1233.0758	1272.8084	1295.4887	1323.7357	1357.4452	1401.2698	1414.2028	1465.0896	1483.8718	1497.8652	1511.2651	1828.6418	3025.4526	3041.7409	3059.5875	3110.9655	3126.554	3155.1592	3198.4653	3482.4517	3773.423
CCC12C(O)C1OC2=N	CC[C@]12[C@@H](O)[C@H]1O[C]2[NH]	
InChI=1S/C6H9NO2/c1-2-6-3(8)4(6)9-5(6)7/h3-4,7-8H,2H2,1H3	InChI=1S/C6H9NO2/c1-2-6-3(8)4(6)9-5(6)7/h3-4,7-8H,2H2,1H3/t3-,4+,6-/m0/s1
