14
gdb 9466	2.816	1.80632	1.71349	3.5407	58.17	-0.2708	-0.0525	0.2182	843.0657	0.105407	-419.710333	-419.702502	-419.701558	-419.7429	27.115	
C	 0.043771435	 1.686993722	 0.2971580715	-0.465682
C	-0.0293963805	 0.177669042	 0.058040733	-0.006642
C	 0.6451788127	-0.4164830665	-1.1876699138	-0.116038
O	 1.5964688482	-1.1501466227	-0.338434028	-0.23878
C	 1.0594033145	-0.6386794232	 0.8044349359	 0.439049
O	 1.3962243811	-0.8104936064	 1.9298789292	-0.319078
C	-1.4219963126	-0.3577304159	 0.3461839316	 0.125755
O	-2.0440631134	-1.0728487699	-0.394058887	-0.238339
H	 1.0628607663	 2.0555229036	 0.1534053819	 0.143866
H	-0.6181001625	 2.2237777882	-0.3894524044	 0.139845
H	-0.2572885454	 1.9242466283	 1.3219083366	 0.14987
H	 0.028422785	-1.1044051896	-1.7650880558	 0.154249
H	 1.1743349114	 0.2905085075	-1.8283533524	 0.128582
H	-1.8341553198	-0.0307789475	 1.3249683616	 0.103343
76.9744	128.6965	174.8017	188.1605	242.7239	286.0376	338.7823	486.5845	612.2932	677.8407	724.5839	806.6686	871.2079	927.8409	959.5953	978.3463	1018.9002	1110.6822	1152.8851	1160.6409	1214.4632	1270.9515	1339.1983	1404.8548	1426.3911	1488.3619	1495.9044	1510.7012	1824.0938	1933.6631	2907.1214	3041.3513	3088.5516	3115.1189	3121.253	3162.0794
CC1(COC1=O)C=O	C[C@]1(COC1=O)C=O	
InChI=1S/C5H6O3/c1-5(2-6)3-8-4(5)7/h2H,3H2,1H3	InChI=1S/C5H6O3/c1-5(2-6)3-8-4(5)7/h2H,3H2,1H3/t5-/m1/s1
