15
gdb 15031	2.34389	1.88284	1.11554	3.2196	66.45	-0.273	-0.0509	0.2221	1025.8983	0.117469	-362.666059	-362.657869	-362.656925	-362.699722	28.347	
O	 0.2901149381	 0.0064758314	 0.3628214922	-0.23152
C	 0.1580624857	 1.1548718572	 0.0447478172	 0.173644
C	 1.3483467358	 2.1141466918	-0.1270112224	-0.253574
C	 1.1833846223	 2.9207601619	-1.3371855686	 0.265354
N	 1.0149873421	 3.5527979436	-2.2899733483	-0.308221
C	 1.456731525	 2.9914563952	 1.1220354259	 0.012167
C	 2.0744927143	 2.4112044382	 2.3678949881	-0.273881
C	 2.8079888316	 3.4709001464	 1.5853533235	-0.266853
H	-0.8384735465	 1.6219421445	-0.1038415148	 0.107984
H	 2.2459843034	 1.4942438964	-0.2208050052	 0.143333
H	 0.6226690092	 3.674112638	 1.2509880832	 0.111436
H	 1.6366399648	 2.679494944	 3.3222728988	 0.12751
H	 2.4430535168	 1.3922834022	 2.3194308783	 0.134939
H	 3.6768686363	 3.1698938717	 1.0101350474	 0.127508
H	 2.8732114013	 4.4707899075	 1.9982823848	 0.130176
55.2302	73.5378	138.6407	176.3174	218.6882	337.0118	380.1606	477.4658	523.2702	540.7551	769.6027	828.7434	847.1892	927.9611	936.164	960.2537	1045.9747	1061.7401	1065.2917	1086.5412	1135.6317	1157.6915	1195.5444	1220.4668	1243.4554	1290.9718	1394.3778	1418.7471	1472.9417	1504.8537	1842.0913	2357.2546	2913.4733	3069.0516	3139.5549	3143.3686	3159.9052	3219.6846	3233.4746
O=CC(C#N)C1CC1	O=C[C@@H](C#N)C1CC1	
InChI=1S/C6H7NO/c7-3-6(4-8)5-1-2-5/h4-6H,1-2H2	InChI=1S/C6H7NO/c7-3-6(4-8)5-1-2-5/h4-6H,1-2H2/t6-/m1/s1
