17
gdb 83661	2.58384	1.70167	1.30707	2.3241	67.22	-0.2485	0.0406	0.2891	991.6797	0.135943	-458.894146	-458.886648	-458.885704	-458.926197	29.129	
O	 0.5051743386	 1.0475419589	-0.5628945219	-0.430908
C	 0.1205046062	-0.2011901984	-0.072290158	 0.050639
C	 0.2280296987	-0.3975443897	 1.4652201718	 0.059834
O	-0.086885767	 0.843415096	 2.1414248612	-0.30632
C	-1.4428937066	 0.3973723521	 2.4186362875	-0.082596
C	-1.2612728528	-0.8542621723	 1.5443215607	-0.198799
C	-1.3835828146	-0.5451149881	 0.0443471808	 0.409369
C	-2.514522205	-0.0260850437	-0.7243940683	-0.269131
O	-2.0513044439	-1.3766757587	-0.8831819981	-0.278437
H	 0.3096243161	 1.6740097684	 0.1495020434	 0.289768
H	 0.6473714771	-0.977271499	-0.6383780403	 0.102119
H	 1.0915193187	-0.9072729195	 1.8959966791	 0.08584
H	-1.5690386428	 0.1889473055	 3.4874850767	 0.112514
H	-2.1945700786	 1.1268912238	 2.0973878045	 0.110971
H	-1.611579222	-1.8210824324	 1.8991809866	 0.099068
H	-3.4920986774	 0.0774948095	-0.2547747987	 0.114885
H	-2.3218166747	 0.6353102975	-1.567147357	 0.131183
86.1723	197.4304	211.7619	246.0749	298.263	428.2898	446.3334	512.8054	578.3008	659.9519	703.3012	819.452	823.9127	864.6397	901.1941	928.7613	958.7326	976.3845	1013.9332	1044.0222	1092.1451	1118.514	1123.6904	1132.3686	1152.4147	1168.1121	1176.9969	1223.3588	1243.0524	1265.7532	1296.7703	1319.3657	1351.1711	1430.5654	1440.0464	1518.8231	1529.7725	3024.2753	3060.5434	3074.7609	3084.0653	3098.4736	3142.5777	3175.7684	3728.8853
OC1C2OCC2C11CO1	O[C@H]1[C@H]2OC[C@H]2[C@]21CO2	
InChI=1S/C6H8O3/c7-5-4-3(1-8-4)6(5)2-9-6/h3-5,7H,1-2H2	InChI=1S/C6H8O3/c7-5-4-3(1-8-4)6(5)2-9-6/h3-5,7H,1-2H2/t3-,4+,5+,6+/m1/s1
