17
gdb 15232	3.06179	1.49056	1.30923	3.8099	69.36	-0.2727	0.026	0.2987	1014.8742	0.141225	-363.865266	-363.856546	-363.855601	-363.898767	31.16	
C	 0.2311672117	 1.4917524373	 0.1364063508	-0.382212
C	-0.1890280764	 0.0432581105	-0.1388706083	-0.19898
C	 0.5799143979	-0.5580207196	-1.2969296623	-0.040844
C	 1.9262371558	-1.1745548993	-1.0958118711	 0.095368
O	 2.4151966218	-1.187481526	 0.2018742204	-0.401613
C	 0.7368128527	-2.0756609132	-1.45662075	-0.265133
C	 0.2376096235	-2.9714555945	-0.4565212353	 0.292912
N	-0.1393542484	-3.7127646861	 0.3487869432	-0.345944
H	 1.2873081801	 1.5415319297	 0.4171833415	 0.13475
H	 0.0846275007	 2.1266431183	-0.7445871999	 0.111109
H	-0.3574093367	 1.9173748209	 0.9543959716	 0.117947
H	-0.0320542938	-0.5621793457	 0.7570963721	 0.134088
H	-1.2604755068	-0.0018811307	-0.3671119078	 0.106012
H	 0.4466890123	-0.0435914639	-2.2453861289	 0.102632
H	 2.676004243	-1.0536837753	-1.8772911145	 0.103243
H	 2.8040980898	-2.0500103132	 0.3852799798	 0.303806
H	 0.7063276029	-2.475651889	-2.4647146514	 0.13286
70.9311	99.9385	126.9708	200.3685	251.1748	273.3093	288.3304	370.3945	402.166	564.751	620.7413	659.1242	747.2412	788.0674	805.6249	862.967	968.8971	985.0884	1021.8815	1048.8403	1100.8291	1125.2905	1148.6605	1193.8496	1238.8827	1288.7417	1311.4662	1338.6234	1362.596	1402.8707	1413.1718	1453.4298	1484.603	1500.1996	1507.3762	2348.0205	3035.1483	3041.8304	3092.5276	3104.2834	3110.807	3118.1121	3143.4047	3167.6743	3801.5032
CCC1C(O)C1C#N	CC[C@H]1[C@@H](O)[C@H]1C#N	
InChI=1S/C6H9NO/c1-2-4-5(3-7)6(4)8/h4-6,8H,2H2,1H3	InChI=1S/C6H9NO/c1-2-4-5(3-7)6(4)8/h4-6,8H,2H2,1H3/t4-,5+,6-/m1/s1
