13
gdb 128983	3.98985	1.80061	1.24069	4.5883	75.71	-0.2253	-0.0757	0.1496	903.9191	0.094299	-411.817427	-411.8117	-411.810756	-411.847407	23.074	
N	 0.0139027828	 1.2689523282	 0.0093224056	-0.186553
C	 1.1564314865	 2.000057265	 0.001864284	 0.073595
N	 2.360358913	 1.4881607843	-0.0129626776	-0.312554
C	 2.3859600043	 0.1399914731	-0.0205453754	 0.348109
N	 3.438677966	-0.6466473139	-0.0352628437	-0.338046
C	 2.9039755963	-1.926134548	-0.0368445197	-0.015609
C	 1.5235329892	-1.9993809981	-0.0235170197	-0.275161
C	 1.1164524424	-0.6448399913	-0.0120617948	 0.339694
N	-0.0638039186	-0.0724537503	 0.0028287202	-0.299224
H	-0.8828194071	 1.7331810163	 0.020786993	 0.290809
H	 1.0144383686	 3.0766159426	 0.009112456	 0.146383
H	 3.5840916453	-2.7698227164	-0.0482016195	 0.116153
H	 0.9004752714	-2.8790689914	-0.0220895284	 0.112404
219.7386	262.4279	424.6216	488.229	570.1087	583.3658	602.8816	620.227	688.5166	764.0419	764.2471	835.204	871.0887	901.5708	956.8838	960.0254	1042.0574	1076.1836	1126.8546	1172.6826	1275.2817	1351.4124	1388.2438	1424.0625	1443.44	1509.7073	1576.4748	1593.5379	1624.9998	3182.6839	3210.0174	3266.7611	3614.7911
N1C=NC2=NC=CC2=N1	[nH]1cnc2nccc2n1	
InChI=1S/C5H4N4/c1-2-6-5-4(1)9-8-3-7-5/h1-3H,(H,6,7,8)	InChI=1S/C5H4N4/c1-2-6-5-4(1)9-8-3-7-5/h1-3H,(H,6,7,8)
