20
gdb 31770	2.89815	1.27239	0.95483	1.0339	83.32	-0.1719	0.0586	0.2305	1272.7386	0.170494	-403.18775	-403.177956	-403.177012	-403.222464	35.765	
C	 0.0674215984	 1.4764100483	 0.2526964761	-0.367773
C	-0.0245044793	-0.0225784928	-0.0919173005	-0.298408
C	-1.4127709059	-0.57835848	-0.1000153284	 0.274913
C	-2.2313149908	-0.8909429353	-1.1568138345	-0.217709
C	-3.4789066952	-1.3627779398	-0.6459875789	-0.305028
C	-3.3657108648	-1.3206075564	 0.7206370414	 0.3498
O	-4.2198949578	-1.6465624816	 1.7300946459	-0.444637
N	-2.1260568208	-0.8533838882	 1.0684459667	-0.095331
C	-1.6707076641	-0.6848979807	 2.4327667111	-0.345267
H	 1.1042416525	 1.825876266	 0.2036760323	 0.107515
H	-0.5288015065	 2.0679968694	-0.448318444	 0.122728
H	-0.305683356	 1.6837079423	 1.2607384799	 0.11338
H	 0.3938766338	-0.1838690504	-1.0911237894	 0.111029
H	 0.6203596717	-0.5894501374	 0.5942451369	 0.097328
H	-1.9627004949	-0.7947252135	-2.1983866549	 0.085695
H	-4.3397047002	-1.6923054462	-1.2070989782	 0.081996
H	-5.0045000002	-2.040117344	 1.3377478502	 0.306183
H	-0.6194094275	-0.970526149	 2.5168308689	 0.135359
H	-1.7796344912	 0.3502190132	 2.7774781594	 0.133367
H	-2.261809901	-1.328726674	 3.0848193499	 0.154857
68.2062	106.476	115.2727	175.0871	205.4527	217.0673	279.8166	309.136	318.6428	392.32	503.4574	578.92	643.7104	669.3061	708.074	721.4625	734.3935	781.2399	792.4039	944.7316	985.1634	1035.106	1067.0505	1080.8354	1132.3381	1151.9674	1192.4314	1236.8812	1274.4005	1295.3392	1327.8842	1356.9613	1400.6545	1412.4727	1451.7267	1477.9615	1493.6334	1496.5623	1504.049	1513.6896	1552.5766	1569.959	1622.6399	3006.3908	3030.429	3034.4265	3066.5194	3100.3484	3102.518	3113.2993	3149.6888	3234.6896	3249.7848	3852.5505
CCC1=CC=C(O)N1C	CCc1ccc(O)n1C	
InChI=1S/C7H11NO/c1-3-6-4-5-7(9)8(6)2/h4-5,9H,3H2,1-2H3	InChI=1S/C7H11NO/c1-3-6-4-5-7(9)8(6)2/h4-5,9H,3H2,1-2H3
