18
gdb 48837	2.82572	1.48228	1.16669	3.188	78.46	-0.2299	-0.0224	0.2075	1086.9835	0.148286	-401.938929	-401.931074	-401.93013	-401.971414	30.206	
O	-0.1105431077	 0.0224217195	 0.3081711262	-0.260136
C	 0.0795669583	 1.0985697328	-0.1976939933	 0.128748
C	 1.3161160545	 1.9246882973	-0.0070322122	 0.181856
C	 1.0711812987	 3.4003820017	 0.1949047833	-0.277235
N	 1.5242574942	 2.9083065319	-1.0904446173	-0.132865
C	 2.9331970645	 3.1777467161	-1.450298617	-0.156133
C	 3.810772828	 1.921435633	-1.3942760317	-0.262118
C	 3.6498737599	 1.2117791722	-0.0726652685	-0.065885
C	 2.4931224473	 1.2423510451	 0.5865792747	-0.142483
H	-0.6740248661	 1.5911105329	-0.852385884	 0.07976
H	 0.0554468908	 3.7885836534	 0.2299688588	 0.120521
H	 1.7854760903	 3.9120080276	 0.8373028572	 0.124152
H	 2.9355464102	 3.6050677366	-2.4585653968	 0.11171
H	 3.3620881607	 3.9303095299	-0.7756970632	 0.102478
H	 3.5534020649	 1.2406824581	-2.2176761002	 0.126304
H	 4.8541834362	 2.2117885173	-1.5556780392	 0.110784
H	 4.4985957706	 0.6660352324	 0.3288968252	 0.099127
H	 2.3459198848	 0.7135120622	 1.5219019178	 0.111416
82.801	139.1017	186.272	245.5486	300.8603	413.888	448.7722	482.2309	532.4992	547.212	701.0216	726.2775	753.6565	800.358	862.0411	905.1173	948.1301	973.3819	994.0487	1007.1084	1049.2436	1054.4127	1098.7661	1118.6933	1137.6487	1187.1225	1230.7891	1266.6867	1280.2077	1328.8884	1359.3632	1383.4838	1408.4689	1432.158	1476.3712	1491.5523	1514.9911	1713.5837	1823.1191	2887.4243	3010.9141	3017.7721	3064.8886	3072.626	3089.2563	3167.9255	3177.7412	3195.6318
O=CC12CN1CCC=C2	O=C[C@]12CN1CCC=C2	
InChI=1S/C7H9NO/c9-6-7-3-1-2-4-8(7)5-7/h1,3,6H,2,4-5H2	InChI=1S/C7H9NO/c9-6-7-3-1-2-4-8(7)5-7/h1,3,6H,2,4-5H2/t7-,8?/m0/s1
