20
gdb 66323	2.41029	1.36124	1.26248	4.1097	84.71	-0.2612	-0.0003	0.2609	1143.9752	0.172335	-366.053953	-366.045323	-366.044379	-366.086912	33.398	
C	-0.0387076561	 1.5545200583	 0.0001803533	-0.427443
C	-0.0129029405	 0.0088925357	-0.0026388396	 0.069515
C	 0.6783662297	-0.5203223618	-1.2857821152	-0.222773
C	 1.0120442712	-2.0106944661	-1.1780170298	-0.228182
C	 1.9784680683	-2.2710157723	-0.0142177411	-0.24792
C	 1.6040074348	-1.490662914	 1.2164027586	-0.056557
C	 0.7119520306	-0.502834505	 1.2358836412	-0.065121
C	-1.4065744728	-0.4763312606	 0.0366892295	 0.276554
N	-2.4989445051	-0.8551853475	 0.0659982136	-0.353173
H	 0.986626645	 1.9348925839	 0.0106494735	 0.126519
H	-0.5471738177	 1.936453499	-0.8894648326	 0.132525
H	-0.5590616476	 1.93664766	 0.8826808812	 0.13337
H	 0.0413255161	-0.3206521533	-2.1527303161	 0.112523
H	 1.6007797961	 0.0577846459	-1.4207487047	 0.102553
H	 0.085497339	-2.5752027521	-1.0194642276	 0.126065
H	 1.4428629566	-2.3688750561	-2.1181818377	 0.100333
H	 2.0078856164	-3.3406876337	 0.2265319459	 0.113591
H	 3.0069897911	-2.0102291848	-0.3057452886	 0.112453
H	 2.10413347	-1.7636635638	 2.1429437208	 0.096987
H	 0.467508155	 0.0024012482	 2.1665027754	 0.09818
86.6315	148.8074	186.1639	243.2892	275.2792	288.4497	328.135	416.0287	459.7627	484.816	567.6128	595.7133	665.524	711.3273	750.6349	844.7046	875.8839	909.6405	918.1003	977.9053	996.3879	1010.6577	1051.7639	1076.1237	1112.9345	1137.6775	1147.6082	1231.8446	1259.6307	1263.8063	1294.1126	1353.0506	1376.1612	1379.5256	1402.2268	1422.9396	1471.1784	1482.5783	1490.6141	1494.8974	1497.7433	1721.9836	2344.3951	2999.8588	3030.5547	3037.0105	3042.3065	3050.4766	3083.0571	3087.3545	3121.0215	3122.3862	3146.8112	3171.2562
CC1(CCCC=C1)C#N	C[C@]1(CCCC=C1)C#N	
InChI=1S/C8H11N/c1-8(7-9)5-3-2-4-6-8/h3,5H,2,4,6H2,1H3	InChI=1S/C8H11N/c1-8(7-9)5-3-2-4-6-8/h3,5H,2,4,6H2,1H3/t8-/m0/s1
