20
gdb 65164	2.57571	1.31264	1.15134	0.8463	86.15	-0.2215	0.0347	0.2563	1180.0344	0.168681	-365.929535	-365.920319	-365.919375	-365.963271	35.831	
C	 0.2635666207	 1.5668767036	 0.0713367933	-0.481654
C	 0.1345304811	 0.055376166	 0.028215389	 0.392611
C	 1.1898728279	-0.7523302691	-0.681846772	-0.290164
C	 1.1310605978	-0.7553961601	 0.8273295722	-0.295107
N	-1.1819598857	-0.558950307	-0.0139079086	-0.140158
C	-2.3890107844	 0.2027996228	 0.2240577827	-0.253605
C	-2.1094724936	-0.3554067533	-1.1430872965	-0.179879
C	-1.8228525571	 0.5111558936	-2.2535624588	 0.349385
C	-1.6041845371	 1.1801564596	-3.2298481858	-0.474537
H	 1.3208096343	 1.846698824	 0.0817305714	 0.114236
H	-0.1992161586	 2.0441701539	-0.7964534632	 0.135108
H	-0.1904214893	 1.9797700114	 0.9795206742	 0.115932
H	 0.8616176684	-1.647243208	-1.1974156581	 0.117295
H	 1.995564629	-0.2170932801	-1.1719202455	 0.110668
H	 1.8989042664	-0.2209073722	 1.3766089973	 0.105813
H	 0.7556074107	-1.6489419711	 1.3108137092	 0.117116
H	-3.1393642827	-0.2698882764	 0.8537821989	 0.118659
H	-2.323126348	 1.2829997762	 0.3241548493	 0.124103
H	-2.6228705136	-1.2713623134	-1.4295035499	 0.11503
H	-1.4063670261	 1.7809786297	-4.0827673689	 0.199147
52.4171	128.8627	194.0922	231.0809	256.7233	278.0523	331.4125	350.1467	407.1558	457.5444	532.61	592.557	615.4624	647.8499	659.3597	780.7759	785.0418	820.9885	864.3138	903.3827	938.423	957.2473	1013.2162	1035.8029	1043.8514	1066.7632	1078.8686	1117.0829	1123.1201	1130.248	1158.585	1191.5664	1246.8261	1333.4891	1351.3788	1372.6559	1413.3563	1456.932	1491.7601	1495.8707	1499.8562	1513.6375	2228.6087	3032.8745	3097.2918	3101.8107	3118.9832	3120.2868	3134.8662	3139.9618	3189.592	3220.7398	3234.5772	3502.6543
CC1(CC1)N1CC1C#C	CC1(CC1)N1C[C@H]1C#C	
InChI=1S/C8H11N/c1-3-7-6-9(7)8(2)4-5-8/h1,7H,4-6H2,2H3	InChI=1S/C8H11N/c1-3-7-6-9(7)8(2)4-5-8/h1,7H,4-6H2,2H3/t7-,9?/m1/s1
