17
gdb 24715	3.89852	1.58803	1.36191	3.6314	77.51	-0.2171	0.0303	0.2474	958.9586	0.139822	-380.858121	-380.851593	-380.850649	-380.889214	26.036	
C	 0.1319567711	 1.5595893227	-0.1350368971	-0.228099
C	 1.6193034189	 1.5057322069	 0.3209709881	-0.220958
C	 1.5227054869	-0.0454423789	 0.497095027	-0.184477
C	-0.0060242865	 0.0251208824	 0.0785157013	-0.010245
N	 0.3578981832	-0.793508126	-1.0997601922	 0.021813
C	 0.2339880188	-1.0925686214	-2.4390069434	-0.18097
C	 1.5345124175	-1.3504919501	-2.8315570359	-0.080562
N	 2.4543971527	-1.1291474661	-1.8161311817	-0.355231
C	 1.6845473517	-0.8020110826	-0.8058223744	 0.340195
H	-0.5092071279	 2.1372605656	 0.5343715633	 0.113687
H	-0.0522625412	 1.8834863924	-1.1610421138	 0.121279
H	 2.3681753819	 1.8385158849	-0.3987709416	 0.126448
H	 1.7884268883	 2.0234455102	 1.2674760697	 0.109747
H	 1.8789689203	-0.4869204885	 1.4263993693	 0.09672
H	-0.8387828618	-0.358293924	 0.6676651209	 0.096359
H	-0.7057083917	-1.186069627	-2.9565985283	 0.12754
H	 1.8584505779	-1.7113988104	-3.7972212214	 0.106752
101.7494	139.961	272.2403	429.3657	475.8242	627.6459	678.6414	704.2587	725.1545	742.7516	785.4191	820.23	838.41	852.8409	918.5938	940.4338	965.7512	988.1984	1019.6291	1072.5954	1116.9137	1126.2501	1138.3913	1152.6294	1186.6012	1229.6087	1237.2023	1264.3604	1272.0134	1282.5194	1300.2253	1386.1887	1411.8001	1466.6977	1472.296	1491.4527	1566.3326	3071.6997	3078.2697	3112.9323	3122.8547	3127.5156	3140.3042	3238.7917	3281.1305
C1CC2C1N1C=CN=C21	C1C[C@H]2[C@@H]1n1ccnc21	
InChI=1S/C7H8N2/c1-2-6-5(1)7-8-3-4-9(6)7/h3-6H,1-2H2	InChI=1S/C7H8N2/c1-2-6-5(1)7-8-3-4-9(6)7/h3-6H,1-2H2/t5-,6+/m0/s1
