23
gdb 58740	3.45341	1.06097	0.96756	1.391	85.93	-0.2549	0.0796	0.3345	1338.4172	0.20471	-388.255706	-388.246185	-388.245241	-388.289629	37.335	
C	 0.0164541727	 1.5251121425	 0.0099811242	-0.392171
C	 0.0068605775	-0.0084441619	-0.0710696776	-0.098983
C	-1.4244582355	-0.5576857388	 0.0185950619	-0.392293
C	 0.7133473641	-0.5019251904	-1.3155106543	 0.3822
C	 2.1942653647	-0.2164581255	-1.7340193696	-0.307194
C	 1.6084944839	-1.1160057959	-2.8399498698	 0.393736
O	 2.3397081573	-1.5266866249	-3.9394133571	-0.470054
C	 0.9682178724	-1.9896430798	-1.7203210177	-0.342182
C	 0.3231396277	-0.2331049563	-2.8076587366	-0.328673
H	 1.0357579824	 1.9222677107	-0.0147950838	 0.116029
H	-0.535584182	 1.9650973018	-0.8282963543	 0.115258
H	-0.45594869	 1.8685642612	 0.9359927895	 0.109121
H	 0.570404299	-0.3946762099	 0.7910207061	 0.072966
H	-2.0338123127	-0.2019104334	-0.8200077158	 0.114745
H	-1.4368495948	-1.6517817799	 0.0020300105	 0.114551
H	-1.9094384218	-0.2300494541	 0.9438036089	 0.109588
H	 2.4370636639	 0.8105239037	-2.0195785239	 0.090992
H	 2.972698326	-0.658249161	-1.1053506725	 0.08878
H	 1.7738455347	-2.0762632623	-4.4922302356	 0.280287
H	 1.6566700785	-2.5575998581	-1.0878803315	 0.088957
H	 0.089147793	-2.5805379897	-1.995838859	 0.081477
H	-0.6032129821	-0.6955147389	-3.1624334143	 0.081524
H	 0.4279502413	 0.793727291	-3.1681037376	 0.091338
61.7008	152.1099	161.8269	222.719	245.937	258.3103	305.1939	335.4776	386.2429	451.1223	464.0617	550.6923	557.5495	602.6929	647.6953	774.5215	793.8272	880.0876	928.0278	934.3512	957.1875	966.13	983.7612	1014.323	1038.2013	1067.0069	1098.915	1112.3584	1119.2471	1130.9068	1138.1154	1159.8011	1178.6378	1188.3072	1195.1228	1290.7689	1321.2874	1344.6215	1360.0444	1385.0678	1397.5962	1418.9107	1488.6284	1490.747	1491.2566	1495.8316	1502.965	1512.2927	1562.6185	2994.9351	3027.6906	3032.1848	3037.6357	3042.2664	3052.9911	3093.4237	3099.9795	3102.7816	3105.5576	3106.1495	3111.7626	3116.1888	3808.8065
CC(C)C12CC(O)(C1)C2	CC(C)[C@@]12C[C@@](O)(C1)C2	
InChI=1S/C8H14O/c1-6(2)7-3-8(9,4-7)5-7/h6,9H,3-5H2,1-2H3	InChI=1S/C8H14O/c1-6(2)7-3-8(9,4-7)5-7/h6,9H,3-5H2,1-2H3/t7-,8+
