17
gdb 12450	3.45711	1.89733	1.29822	2.9856	72.	-0.2167	-0.0007	0.216	929.2776	0.145324	-363.913821	-363.906696	-363.905752	-363.945287	27.316	
O	-0.0129010927	-0.1181633686	 0.1663489865	-0.358382
C	-0.0092125279	 1.0934800065	 0.0599060526	 0.382032
C	-1.2767815113	 1.9039387975	-0.1303164911	-0.298732
C	-1.436966652	 3.0802150173	 0.8501432467	-0.219727
C	-0.7275131236	 4.3549667037	 0.3885994458	-0.258733
C	 0.7401183406	 4.2257786365	 0.0979916617	-0.067188
C	 1.507483012	 3.1361622243	-0.0034929484	 0.003903
N	 1.1908075067	 1.7779014789	 0.1037457828	-0.320285
H	-1.3005740821	 2.2787546791	-1.1624411997	 0.12196
H	-2.0928980514	 1.1868912132	-0.0263065133	 0.129588
H	-2.5034508756	 3.2992823145	 0.9650697332	 0.106651
H	-1.0756886679	 2.7842532037	 1.8419524964	 0.113795
H	-1.2358726689	 4.7405435157	-0.5089577021	 0.109831
H	-0.8638795922	 5.1373655585	 1.1476645842	 0.107879
H	 1.262652708	 5.1646637564	-0.0635317669	 0.08987
H	 2.5659849821	 3.2738451335	-0.202304396	 0.106313
H	 1.9725750563	 1.1433631293	 0.1838850875	 0.251224
90.5558	138.2224	252.6391	327.6479	363.789	445.3709	491.4695	550.839	619.799	705.536	730.4076	741.0295	842.1497	857.9693	900.0178	940.1995	960.7554	973.1182	1067.5475	1081.2235	1124.001	1169.3744	1227.9477	1261.0503	1296.8329	1338.859	1364.4823	1385.6357	1400.1075	1456.095	1468.6108	1478.7775	1493.08	1497.0445	1744.2884	1784.3909	2986.3116	3021.7364	3027.8311	3042.8874	3078.8612	3118.2836	3156.5561	3180.1724	3606.4499
O=C1CCCC=CN1	O=C1CCCC=CN1	
InChI=1S/C6H9NO/c8-6-4-2-1-3-5-7-6/h3,5H,1-2,4H2,(H,7,8)	InChI=1S/C6H9NO/c8-6-4-2-1-3-5-7-6/h3,5H,1-2,4H2,(H,7,8)
