17
gdb 34498	4.20205	1.01618	0.8811	3.7102	85.62	-0.2442	-0.0485	0.1957	1291.8126	0.137801	-380.879004	-380.871057	-380.870113	-380.912057	29.847	
N	 0.0075010512	-1.1452248652	-0.0285669916	-0.334704
C	-0.0235249896	 0.0133078049	-0.0234392689	 0.20624
C	-0.0214609091	 1.433005319	-0.0082342623	 0.176999
C	-1.0786385754	 2.2166103256	-0.272902755	-0.232838
C	-0.7391035143	 3.6482579181	-0.1323402674	 0.340495
C	-1.5444316563	 4.7166394419	-0.7829221477	-0.291161
N	-1.6074338573	 4.5405199916	 0.6731302755	-0.345282
C	 0.7790615201	 3.7071740078	 0.0763634461	-0.305843
C	 1.2150873323	 2.243356602	 0.3511189207	-0.325515
H	-2.0712298194	 1.8628330512	-0.5277679267	 0.121636
H	-1.0437589243	 5.6244253107	-1.1106243044	 0.127053
H	-2.3975315164	 4.4257870399	-1.3914002274	 0.118154
H	-2.4649752869	 4.058474592	 0.9357877941	 0.235227
H	 1.2665719046	 4.0824609453	-0.8281361753	 0.117587
H	 1.028830025	 4.3840372235	 0.8951836921	 0.129724
H	 1.4869324101	 2.0728712523	 1.399189216	 0.132535
H	 2.0806855055	 1.9449323592	-0.2476569678	 0.129693
62.4592	110.0647	145.1154	287.5873	309.6889	354.9966	464.6278	506.411	541.8698	570.0928	579.8904	752.9683	829.0646	853.1539	895.1066	902.7946	925.8467	944.4159	975.9091	992.0095	1051.1973	1078.161	1135.4667	1147.7557	1181.087	1227.6808	1258.3496	1269.6102	1295.1549	1325.6749	1339.2175	1400.4348	1479.7064	1497.9309	1507.5023	1665.8	2333.8182	3043.5466	3061.9453	3084.5544	3100.5011	3122.3711	3186.4484	3202.6756	3487.1031
N#CC1=CC2(CN2)CC1	N#CC1=C[C@]2(CN2)CC1	
InChI=1S/C7H8N2/c8-4-6-1-2-7(3-6)5-9-7/h3,9H,1-2,5H2	InChI=1S/C7H8N2/c8-4-6-1-2-7(3-6)5-9-7/h3,9H,1-2,5H2/t7-/m0/s1
