20
gdb 81434	3.34258	1.42174	1.32613	1.4872	78.12	-0.2282	0.08	0.3082	1070.257	0.17164	-403.087918	-403.080054	-403.07911	-403.119655	31.951	
C	-0.0353494735	 1.5576308816	 0.0028107363	-0.431231
C	-0.0522892565	 0.0366470836	 0.0029135489	 0.028397
C	 1.1320737208	-0.6358944819	-0.7416079326	 0.050729
O	 1.9781699937	-0.3368477349	 0.4309918928	-0.31026
C	 0.732745636	-0.6311849487	 1.1615485508	-0.004154
C	 0.625312528	-2.1622336377	 0.9091238598	 0.345042
C	 1.1632579325	-3.1366086237	 1.9163232052	-0.498679
N	-0.4439742108	-2.5258958962	-0.0538916866	-0.373652
C	 0.9104889161	-2.1515719035	-0.5432221291	-0.105025
H	 0.9657585138	 1.9423018484	 0.2103939168	 0.131882
H	-0.3623986558	 1.94718231	-0.9675445889	 0.11178
H	-0.7219219102	 1.9509906846	 0.7606669761	 0.1116
H	-1.043591905	-0.3636842875	-0.2030790248	 0.103637
H	 1.5429418236	-0.2742746236	-1.6844121195	 0.073558
H	 0.7297992972	-0.2682002117	 2.1904506282	 0.068997
H	 0.497075381	-3.2308081302	 2.7818614535	 0.123983
H	 1.28616274	-4.1328815859	 1.4776563595	 0.113888
H	 2.1424074778	-2.8054984887	 2.2775906338	 0.139762
H	-0.5179475478	-3.543018494	-0.0762408913	 0.224409
H	 1.5358411191	-2.8846512801	-1.0392839888	 0.095337
178.5855	211.5985	217.5124	231.5813	274.2459	325.9754	412.8541	440.5477	535.1694	611.3604	636.2219	743.7621	797.9077	836.975	852.0503	868.4772	888.9204	892.8572	908.2167	949.2925	1005.335	1040.7909	1042.0048	1072.815	1084.7347	1098.991	1119.3216	1141.6077	1190.733	1212.3304	1243.4358	1258.9512	1286.795	1305.8923	1340.9926	1380.7216	1404.7273	1411.1728	1438.6406	1485.6294	1494.1601	1497.515	1508.2972	3023.8883	3032.7833	3086.5406	3089.8285	3100.5408	3110.6981	3116.4858	3121.4901	3135.318	3181.601	3462.5246
CC1C2OC1C1(C)NC21	C[C@H]1[C@H]2O[C@@H]1[C@@]1(C)N[C@@H]21	
InChI=1S/C7H11NO/c1-3-4-5-7(2,8-5)6(3)9-4/h3-6,8H,1-2H3	InChI=1S/C7H11NO/c1-3-4-5-7(2,8-5)6(3)9-4/h3-6,8H,1-2H3/t3-,4+,5-,6-,7-/m0/s1
