25
gdb 59771	3.01972	1.0661	0.84107	0.2362	95.24	-0.2339	0.0303	0.2643	1481.5217	0.230184	-352.384693	-352.375044	-352.3741	-352.419222	37.56	
C	 0.0562639865	 1.5344158115	-0.0492981255	-0.396353
C	 0.034004584	 0.0013383269	 0.0588643567	 0.036168
C	 0.7814846806	-0.4229775683	 1.333153132	-0.397137
C	-1.4116348057	-0.5721660918	 0.0099518379	 0.002568
C	-2.2411571156	-0.0034893322	-1.1582303842	-0.213522
C	-3.5576854366	-0.7655589004	-1.3492037562	-0.216975
C	-3.2981185949	-2.2391020885	-1.6854820705	-0.237492
C	-2.2245728623	-2.8189812803	-0.8042212559	-0.070499
C	-1.4127764696	-2.0857125751	-0.0421585313	-0.046897
H	 1.0811430491	 1.9093309759	 0.0406158167	 0.106703
H	-0.3424045348	 1.8920602959	-1.0016879114	 0.115333
H	-0.5329639942	 1.9927462666	 0.7548749653	 0.109088
H	 0.575417834	-0.4070204822	-0.8069952792	 0.071259
H	 0.2649120325	-0.0538462584	 2.2276482703	 0.110765
H	 0.8790150327	-1.5071338221	 1.429024503	 0.115671
H	 1.7930863363	-0.0040308314	 1.3417290419	 0.108841
H	-1.8974773384	-0.2626215219	 0.951753553	 0.071364
H	-2.4485680446	 1.0576117486	-0.9922319774	 0.093272
H	-1.649519276	-0.0687152477	-2.0825682612	 0.092309
H	-4.1445918205	-0.705403785	-0.4233115754	 0.09702
H	-4.1605010607	-0.2950457481	-2.1336346139	 0.088071
H	-4.2207371778	-2.8246509538	-1.5826770324	 0.098548
H	-3.0044489724	-2.3426474764	-2.7412589818	 0.103964
H	-2.1275903392	-3.9027458107	-0.794598939	 0.078817
H	-0.6895899724	-2.5990675312	 0.5853473584	 0.079114
51.8823	84.419	185.496	215.0025	242.279	269.2544	299.0317	339.2489	400.2206	426.8	454.2697	472.2216	553.6958	667.033	734.4868	802.7791	856.071	880.7453	898.1833	926.5652	936.622	952.7944	967.1524	1004.7064	1008.3927	1053.6293	1073.8615	1081.8115	1133.8677	1140.3402	1170.7026	1188.4074	1221.1725	1258.6607	1277.4073	1284.4616	1334.4955	1349.525	1362.6011	1369.1296	1375.0758	1377.137	1402.0368	1419.3356	1428.2399	1475.4042	1486.7158	1487.6275	1494.5806	1499.783	1505.1854	1515.5587	1720.4718	2947.5877	2992.8772	2999.3375	3009.1482	3020.0744	3024.4254	3030.3365	3038.4361	3067.2821	3077.8908	3085.9913	3093.5107	3109.7009	3115.9218	3139.2625	3170.597
CC(C)C1CCCC=C1	CC(C)[C@H]1CCCC=C1	
InChI=1S/C9H16/c1-8(2)9-6-4-3-5-7-9/h4,6,8-9H,3,5,7H2,1-2H3	InChI=1S/C9H16/c1-8(2)9-6-4-3-5-7-9/h4,6,8-9H,3,5,7H2,1-2H3/t9-/m1/s1
