21
gdb 105460	2.87614	0.8969	0.76866	1.2321	85.15	-0.2468	0.0603	0.307	1546.4446	0.179444	-387.034035	-387.023772	-387.022828	-387.069764	37.679	
C	 0.57347629	 0.227671126	 1.2160931793	-0.250894
O	-0.0549103338	 0.0599330997	-0.0412657463	-0.287172
C	-1.2142935235	-0.732950933	-0.0154609067	 0.4567
C	-2.4296312316	-0.075373437	 0.6094009955	-0.263906
C	-2.8052977126	 1.2394359748	-0.1077877297	-0.352882
C	-3.9434535769	 1.9127327617	 0.5033346281	 0.293442
C	-4.8845389239	 2.4445726047	 1.0296946217	-0.442167
C	-1.3789371274	-1.5923944769	-1.2331914139	-0.313823
C	-1.0174396483	-2.2247405629	 0.0974644415	-0.340952
H	 1.5056605562	 0.7672103552	 1.0326746773	 0.12736
H	-0.0375862342	 0.8151345366	 1.9153002772	 0.111427
H	 0.8047568004	-0.7388145911	 1.6851441149	 0.108529
H	-3.2752296396	-0.769240684	 0.5706017388	 0.110073
H	-2.2522896555	 0.1321013653	 1.6708552565	 0.110013
H	-1.9330445486	 1.903088101	-0.1109231543	 0.142836
H	-3.0235379348	 1.0255240795	-1.1617735797	 0.131339
H	-5.714244431	 2.9269619441	 1.4833479589	 0.190906
H	-2.3780862869	-1.7452840355	-1.6269099614	 0.112386
H	-0.5964532426	-1.5288807946	-1.9800671356	 0.124581
H	 0.0001223483	-2.5814211985	 0.2106202595	 0.118608
H	-1.7657474037	-2.8140822451	 0.6164244685	 0.113594
52.4886	80.8206	117.5371	125.4232	190.7615	228.443	270.2632	328.7309	337.9887	363.0582	442.5749	498.2718	561.1282	614.1655	634.6001	732.249	769.9854	783.8894	889.2548	912.2876	941.975	956.4458	993.913	1036.3542	1048.8684	1055.9743	1080.0233	1104.0205	1167.8892	1181.6295	1189.5798	1221.5071	1278.816	1279.9157	1312.5803	1351.8904	1385.9776	1453.3755	1469.2522	1477.5475	1484.0851	1498.4248	1500.8138	1509.4746	2237.8703	2994.8509	3028.3021	3043.0358	3049.2226	3062.5397	3089.9168	3117.1728	3133.1927	3138.0563	3217.7302	3232.6919	3507.8211
COC1(CCC#C)CC1	COC1(CCC#C)CC1	
InChI=1S/C8H12O/c1-3-4-5-8(9-2)6-7-8/h1H,4-7H2,2H3	InChI=1S/C8H12O/c1-3-4-5-8(9-2)6-7-8/h1H,4-7H2,2H3
