18
gdb 73921	2.58602	1.4582	1.01304	3.9017	82.41	-0.2308	-0.0578	0.173	1172.0645	0.147589	-401.949505	-401.94125	-401.940306	-401.982368	30.963	
C	-0.0115245256	 1.4992688084	 0.1201839498	-0.508941
C	-0.0033509191	 0.0100132117	 0.0034397461	 0.242086
C	-0.0128834477	-0.7726229781	-1.0981931452	 0.100443
C	-0.0681589326	-2.2385834985	-0.7092115518	-0.261393
N	-0.0103875202	-2.2717072907	 0.7711001199	-0.101646
C	 1.2302565837	-1.740555702	 1.3263016923	-0.235261
C	 0.0283889732	-0.8573592326	 1.2128961037	-0.114223
C	 0.0184397434	-0.3465372901	-2.4911872525	 0.064681
O	 0.0609619669	-1.1192902731	-3.4278650607	-0.278531
H	 0.8924659685	 1.8502357211	 0.6327706004	 0.144782
H	-0.0760935779	 2.0019975443	-0.845845272	 0.141078
H	-0.8611865659	 1.8252627114	 0.7326666754	 0.143225
H	-1.0013845048	-2.7044529068	-1.0459355104	 0.127683
H	 0.7508990348	-2.8229280469	-1.1417630203	 0.130889
H	 1.5051619852	-2.1497295355	 2.2946898739	 0.123283
H	 2.0624728767	-1.5368073961	 0.6549727163	 0.116928
H	-0.5368201883	-0.575517374	 2.0978432027	 0.101748
H	-0.0084840103	 0.7508605376	-2.6651713776	 0.063169
107.5544	150.3466	185.1865	191.7297	219.6602	299.0495	380.8837	412.5408	513.937	589.8877	604.9971	683.7814	759.6654	814.9322	840.2631	900.3778	974.3558	1001.446	1020.97	1040.8133	1063.9758	1071.012	1106.1636	1112.0682	1150.3135	1208.8372	1215.5205	1264.0003	1270.7698	1350.8492	1377.5288	1411.3923	1428.1596	1476.0668	1480.9406	1488.5796	1501.5066	1682.3259	1764.2372	2890.1281	3027.7139	3039.016	3074.0236	3076.5081	3096.1896	3136.0854	3140.085	3187.7336
CC1=C(CN2CC12)C=O	CC1=C(CN2C[C@@H]12)C=O	
InChI=1S/C7H9NO/c1-5-6(4-9)2-8-3-7(5)8/h4,7H,2-3H2,1H3	InChI=1S/C7H9NO/c1-5-6(4-9)2-8-3-7(5)8/h4,7H,2-3H2,1H3/t7-,8?/m0/s1
