19
gdb 58719	1.86107	1.76701	1.17001	1.8501	71.44	-0.2468	-0.036	0.2109	1124.9984	0.156497	-460.152481	-460.142857	-460.141913	-460.187597	34.663	
C	-0.5464428758	 1.519748964	-0.0674757953	-0.428437
C	-0.0767984498	 0.0762954374	 0.1317840563	 0.082329
O	-1.1451717884	-0.7572686873	 0.5436869258	-0.43835
C	 0.5628766987	-0.5136148584	-1.1423731415	 0.325062
C	 0.8986280768	-2.0242686975	-1.1039647745	-0.327638
C	-0.1302275959	-2.1378148893	-2.243481085	-0.077685
O	-0.4534101138	-0.7243992174	-2.1598419558	-0.342856
C	 1.6787684663	 0.3693419072	-1.6685658681	 0.096079
O	 2.7650697268	 0.4459175964	-1.1537963876	-0.260742
H	 0.2946938131	 2.1958407443	-0.2524250051	 0.129706
H	-1.2337400315	 1.5853091127	-0.9179835759	 0.129685
H	-1.0711627601	 1.8593080761	 0.8285703582	 0.131155
H	 0.6739573664	 0.0291022749	 0.9284331895	 0.111081
H	-1.7600071977	-0.7813934345	-0.2013798921	 0.286445
H	 1.9302695481	-2.27838836	-1.3465063983	 0.126715
H	 0.597828438	-2.503859351	-0.1732786586	 0.135783
H	 0.2789797838	-2.393322936	-3.2275027375	 0.113168
H	-1.0061354458	-2.7630589746	-2.0436327754	 0.113107
H	 1.4063206607	 0.9437339629	-2.5825446392	 0.095392
42.9322	80.8971	106.4765	207.1497	210.1505	248.9615	264.1776	309.4082	370.7318	444.2367	463.3299	490.4764	645.7119	671.6588	787.3238	846.8933	899.7556	925.5842	949.997	978.1135	999.3901	1009.8138	1080.4884	1081.0782	1136.551	1163.2285	1194.9054	1204.0606	1238.2379	1265.8045	1295.2885	1333.2938	1353.5395	1390.622	1403.6924	1421.3303	1482.2074	1492.5502	1498.8159	1527.7023	1822.3131	2884.2281	3032.4008	3036.6424	3060.6449	3080.6444	3097.9185	3107.2406	3126.6481	3160.1197	3769.0932
CC(O)C1(CCO1)C=O	C[C@@H](O)[C@]1(CCO1)C=O	
InChI=1S/C6H10O3/c1-5(8)6(4-7)2-3-9-6/h4-5,8H,2-3H2,1H3	InChI=1S/C6H10O3/c1-5(8)6(4-7)2-3-9-6/h4-5,8H,2-3H2,1H3/t5-,6+/m1/s1
