17
gdb 128537	1.97407	1.92701	1.03943	3.6409	71.97	-0.2044	0.0267	0.2311	1134.8835	0.135206	-455.139452	-455.129949	-455.129004	-455.174793	32.799	
C	-0.0526529734	 1.4471617137	-0.0359338598	-0.257887
O	-0.0114577519	 0.0137974182	 0.0040916131	-0.282298
C	-1.2266453795	-0.5866107354	 0.0631327195	 0.281344
C	-1.9689811489	-0.9713008142	 1.1634989677	 0.149478
O	-1.6756519627	-0.7859076533	 2.4823070371	-0.455509
C	-3.1027242132	-1.6029448503	 0.6241059593	-0.063979
N	-3.0639505577	-1.6151337531	-0.7111485369	-0.285305
N	-1.9142635565	-1.0005017083	-1.0422031375	-0.007722
C	-1.5363688134	-0.8306114457	-2.4263558602	-0.32877
H	 0.984632664	 1.786885346	-0.0202720283	 0.136991
H	-0.5396223578	 1.8029281294	-0.951324207	 0.126236
H	-0.5875327095	 1.8479418586	 0.8323271272	 0.133086
H	-0.7404868745	-0.5616845445	 2.5471168647	 0.298065
H	-3.9315174964	-2.0509942737	 1.1506158311	 0.117139
H	-2.0188631051	 0.0472420692	-2.8710805568	 0.135617
H	-0.4526244914	-0.712782184	-2.4835713537	 0.147176
H	-1.840244932	-1.7186278625	-2.9825223995	 0.156337
35.3219	78.3799	133.1524	149.4055	176.2632	254.6114	276.7435	304.262	318.3912	441.1428	544.0954	589.7193	658.895	697.2427	745.7008	796.4849	852.3082	1011.1351	1026.8849	1103.7763	1148.3328	1162.1179	1173.4569	1206.1268	1233.5518	1286.0775	1348.2083	1415.2508	1438.6335	1460.4662	1472.9587	1487.6345	1490.0741	1500.8651	1513.064	1556.7579	1655.5919	3019.627	3035.2117	3088.1997	3113.1047	3136.6051	3153.7854	3252.8683	3806.0331
COC1=C(O)C=NN1C	COc1c(O)cnn1C	
InChI=1S/C5H8N2O2/c1-7-5(9-2)4(8)3-6-7/h3,8H,1-2H3	InChI=1S/C5H8N2O2/c1-7-5(9-2)4(8)3-6-7/h3,8H,1-2H3
