18
gdb 95420	2.88851	1.27064	0.91692	2.2626	82.6	-0.2464	-0.0193	0.2271	1270.114	0.147162	-401.937151	-401.928495	-401.927551	-401.970399	32.708	
C	 0.0384956784	 1.5128106432	 0.1310889086	-0.405568
C	 0.0123548042	 0.0031360372	-0.0315685378	 0.141063
C	 0.7456396029	-0.5153598729	-1.2641288182	-0.231483
C	 0.7504822084	-2.0461290365	-1.2324827079	-0.170426
N	 1.1043161486	-2.5986522712	 0.0685027352	-0.316702
C	 1.0332590438	-1.8438693991	 1.0881189632	 0.203147
O	 0.6132553426	-0.5496756622	 1.1601593521	-0.27334
C	 1.4292549314	-2.3257221683	 2.3820446982	 0.277786
C	 1.7606313324	-2.7209946449	 3.4671788461	-0.341967
H	 1.0692107031	 1.8789025663	 0.1574926645	 0.128546
H	-0.4803487434	 1.9901834196	-0.7055946599	 0.119698
H	-0.4556094349	 1.8070800261	 1.0607460151	 0.131826
H	-1.0295365608	-0.3483531365	-0.0575084093	 0.089606
H	 0.265131977	-0.1391484879	-2.1731140276	 0.103357
H	 1.7737505265	-0.1340500781	-1.2514427343	 0.113288
H	-0.2356707875	-2.4399969045	-1.5156301507	 0.115323
H	 1.455626426	-2.4476910783	-1.9687146713	 0.115988
H	 2.0558731214	-3.0809485921	 4.4218971041	 0.199857
92.6497	138.1924	149.1439	224.878	233.8571	305.5628	368.4247	449.6063	454.0062	492.3439	556.1917	614.1239	643.3003	659.5324	726.4657	809.4929	876.8879	894.0164	919.1678	966.562	1001.2462	1059.0748	1124.6289	1155.6547	1166.7506	1211.9292	1247.9622	1264.0226	1335.7659	1370.2559	1383.2039	1400.6144	1414.2881	1476.4527	1485.5093	1489.0741	1498.8392	1708.9135	2245.2211	2998.012	3012.4476	3035.6472	3044.5607	3058.061	3087.4465	3119.5974	3124.621	3502.541
CC1CCN=C(O1)C#C	C[C@H]1CCN=C(O1)C#C	
InChI=1S/C7H9NO/c1-3-7-8-5-4-6(2)9-7/h1,6H,4-5H2,2H3	InChI=1S/C7H9NO/c1-3-7-8-5-4-6(2)9-7/h1,6H,4-5H2,2H3/t6-/m0/s1
