23
gdb 123162	7.92727	0.4556	0.4471	1.2192	84.59	-0.2517	0.092	0.3438	2501.2643	0.203489	-425.399949	-425.389115	-425.388171	-425.437669	37.413	
C	 0.1152920963	 1.4686059474	-0.0930854245	-0.382255
C	-0.0081455376	-0.0474105779	 0.0760544526	-0.181985
C	 0.8228758621	-0.5740225562	 1.2380770508	-0.032015
O	 0.6445751656	-1.9716623681	 1.3293070501	-0.248932
C	 1.3848063771	-2.5639436582	 2.3722077911	-0.046214
C	 1.1231526138	-4.0668668775	 2.3541122298	-0.237954
C	 1.850880152	-4.7808349284	 3.4649674634	 0.09515
C	 2.4329738593	-6.116798473	 3.2931589159	-0.179727
O	 3.2633344193	-4.954990428	 3.2979059167	-0.236077
H	 1.1521181059	 1.7670489691	-0.2840312967	 0.116618
H	-0.4903232239	 1.8208847864	-0.9330034544	 0.116926
H	-0.2214525976	 1.9996820927	 0.8041723008	 0.115774
H	-1.0546482618	-0.3278487131	 0.2425590412	 0.105361
H	 0.3101471956	-0.5599815455	-0.8389593256	 0.106393
H	 1.8898406156	-0.3328644522	 1.0872861269	 0.08375
H	 0.5164321431	-0.0863961365	 2.1806610834	 0.08076
H	 2.4626118888	-2.3705002111	 2.247012909	 0.103567
H	 1.0898775854	-2.1354116025	 3.3468328824	 0.080483
H	 0.0445291263	-4.2411258281	 2.450525375	 0.109718
H	 1.4365711434	-4.4733436226	 1.3870376013	 0.112391
H	 1.567843458	-4.4849971618	 4.4776810365	 0.090539
H	 2.5442954306	-6.7764613097	 4.1527617456	 0.113782
H	 2.3390380027	-6.6204563951	 2.3317167388	 0.113947
38.8322	57.2584	78.1856	97.4061	137.6469	154.107	194.6513	231.8322	268.6761	349.5591	417.8127	484.1908	518.0041	765.7887	779.3337	820.652	875.5103	902.1148	909.7043	951.4326	1005.073	1026.4267	1057.8412	1066.7631	1106.9776	1151.4016	1159.5814	1162.0012	1164.835	1178.6286	1195.8172	1243.5653	1270.7981	1290.6715	1305.0572	1311.701	1315.4813	1335.3688	1402.4482	1413.972	1447.2345	1456.4746	1476.9656	1492.0423	1500.3805	1506.9364	1518.249	1531.2697	1538.6824	2938.0863	2949.8547	2967.426	2988.3029	3031.8014	3038.4954	3039.0531	3071.0567	3077.8894	3082.5211	3096.6966	3099.6193	3107.7415	3167.2907
CCCOCCC1CO1	CCCOCC[C@H]1CO1	
InChI=1S/C7H14O2/c1-2-4-8-5-3-7-6-9-7/h7H,2-6H2,1H3	InChI=1S/C7H14O2/c1-2-4-8-5-3-7-6-9-7/h7H,2-6H2,1H3/t7-/m0/s1
