17
gdb 80196	2.15066	1.5775	1.19862	3.3639	81.94	-0.2397	-0.0168	0.2229	1107.5374	0.133705	-384.652551	-384.643845	-384.642901	-384.685767	32.934	
C	-0.0267815537	 1.5422681251	 0.0435994892	-0.422895
C	 0.1183238003	 0.0344406192	 0.048570194	-0.046028
C	 1.3621189762	-0.73001228	-0.2225285186	-0.123891
C	 2.6016523712	-0.0052001091	 0.3128325901	-0.361574
C	 1.9642968223	-0.0712426649	 1.7228810326	 0.339168
O	 2.3793280886	 0.1651296365	 2.8187439377	-0.296468
C	 0.7186706207	-0.771868616	 1.2189941141	 0.053817
C	-0.0119285073	-1.784486877	 1.8944365357	 0.181963
C	-0.6205159932	-2.6429869718	 2.4786218765	-0.407865
H	 0.8534679439	 2.0558076257	 0.4364636287	 0.133691
H	-0.1985697132	 1.9022875456	-0.9767168908	 0.126418
H	-0.8842042017	 1.8421502093	 0.6536776907	 0.13624
H	-0.7696566105	-0.4791151895	-0.313953778	 0.113878
H	 1.3910102126	-1.5703198891	-0.9036145197	 0.117318
H	 3.5042534261	-0.6230633363	 0.2986982998	 0.1396
H	 2.8384829263	 0.9776381141	-0.1025067335	 0.125619
H	-1.1520278887	-3.400267172	 2.9994093214	 0.191008
95.6202	127.1271	144.6236	180.2391	255.8429	323.6961	380.3422	455.9686	491.3294	515.395	575.285	591.3542	647.873	650.7039	665.7567	743.2679	832.64	873.6317	944.8379	972.2314	997.9296	1021.8444	1051.8731	1099.8565	1108.283	1143.6929	1217.0555	1239.958	1289.3602	1332.2296	1415.3563	1439.7325	1463.6941	1492.223	1501.0883	1883.4766	2231.6475	3040.3264	3062.1959	3103.0089	3112.3333	3122.1493	3142.6911	3207.3737	3502.561
CC1C2CC(=O)C12C#C	C[C@H]1[C@H]2CC(=O)[C@@]12C#C	
InChI=1S/C8H8O/c1-3-8-5(2)6(8)4-7(8)9/h1,5-6H,4H2,2H3	InChI=1S/C8H8O/c1-3-8-5(2)6(8)4-7(8)9/h1,5-6H,4H2,2H3/t5-,6+,8-/m0/s1
