21
gdb 122559	4.93967	0.72411	0.69344	1.1194	79.69	-0.2482	0.0896	0.3378	1697.9204	0.181049	-424.177682	-424.168302	-424.167358	-424.212985	33.961	
C	-0.0890207035	 1.4642444864	-0.1716982994	-0.384139
C	-0.0271823289	-0.0389566429	 0.0409535955	-0.024552
O	-1.3420561393	-0.5542746822	 0.0069938595	-0.248827
C	-1.3974062333	-1.9551341889	 0.1788987668	-0.065859
C	-2.8457553366	-2.3891298456	 0.0771482792	-0.032148
C	-3.5635990421	-2.2687821871	-1.3181921204	-0.259177
C	-3.7988005023	-3.7838177527	-1.2726714808	 0.035145
O	-2.5130401517	-4.409987087	-1.1725805446	-0.24488
C	-3.1156962783	-3.9047169093	 0.0255467661	 0.000918
H	 0.9164782801	 1.8950605443	-0.1496059528	 0.1136
H	-0.5455320685	 1.6960715431	-1.1381988679	 0.125517
H	-0.6875214175	 1.9381982355	 0.6115801826	 0.124919
H	 0.5885548006	-0.5160183628	-0.7405070774	 0.085868
H	 0.4485188844	-0.2734101151	 1.0089269829	 0.08302
H	-0.8021366141	-2.4675454642	-0.5926369873	 0.101699
H	-0.9805782878	-2.2405388501	 1.1614029639	 0.079392
H	-3.438473948	-1.9037338804	 0.8578422912	 0.084093
H	-4.4811214845	-1.6791550964	-1.2656170067	 0.10764
H	-2.9511962113	-1.9185438026	-2.1520244406	 0.113821
H	-4.5993665947	-4.3728263711	-1.7048308586	 0.103689
H	-3.2525159324	-4.6049619208	 0.8420071887	 0.100259
50.4035	76.7648	101.7358	131.231	196.1511	243.9918	274.6496	341.3205	445.1269	456.0353	580.4409	729.8087	816.8471	821.7022	842.3835	865.879	878.3118	908.2406	943.4131	968.7123	1003.409	1033.4117	1053.079	1088.842	1114.5781	1145.3936	1161.118	1177.825	1196.836	1213.2278	1238.1979	1240.9176	1265.101	1280.0817	1296.1952	1340.8434	1384.1279	1394.301	1408.9506	1451.0608	1472.7659	1483.2103	1499.3826	1514.7141	1537.7703	2941.8971	2954.8032	2975.6743	3001.311	3044.3405	3070.6666	3076.0404	3118.5751	3120.5262	3129.9277	3176.1869	3192.685
CCOCC1CC2OC12	CCOC[C@H]1C[C@H]2O[C@@H]12	
InChI=1S/C7H12O2/c1-2-8-4-5-3-6-7(5)9-6/h5-7H,2-4H2,1H3	InChI=1S/C7H12O2/c1-2-8-4-5-3-6-7(5)9-6/h5-7H,2-4H2,1H3/t5-,6-,7+/m1/s1
