20
gdb 98542	3.47564	1.11827	0.93864	3.3377	81.91	-0.2388	0.0302	0.269	1311.1372	0.17138	-403.15809	-403.148925	-403.147981	-403.192504	33.708	
C	-0.1999694163	 1.4453444089	-0.1211072297	-0.334194
N	-0.2102716823	 0.0084165959	-0.3055286262	-0.329297
C	 0.8279060834	-0.6634333968	-0.8878414222	 0.309567
O	 1.8216993472	-0.1024101104	-1.3267204509	-0.399178
C	 0.6586652359	-2.1404162804	-0.9630950324	 0.26629
C	 1.8883133997	-3.0198903479	-0.9124172775	-0.308249
C	 1.0709553786	-3.0288117792	-2.1575411348	-0.075154
C	-0.1881274551	-3.8827986008	-1.96898897	-0.223759
C	-0.6072919279	-2.9875948005	-0.7549256471	-0.327593
H	 0.6984398476	 1.8255915457	-0.60866062	 0.171785
H	-1.0814487758	 1.9109533231	-0.5758281443	 0.121726
H	-0.170101365	 1.7172311057	 0.9407287662	 0.122497
H	-0.9687145365	-0.5252032489	 0.0839202224	 0.245621
H	 2.8157773377	-2.4619811562	-0.969163144	 0.142141
H	 1.895822733	-3.883178351	-0.2501679424	 0.102065
H	 1.4729387149	-2.6848558146	-3.1021096972	 0.105653
H	-0.8922619928	-3.805551429	-2.7995038915	 0.108433
H	-0.0131631234	-4.9423377703	-1.7563014345	 0.101542
H	-0.7013154385	-3.4822331631	 0.2177184349	 0.098333
H	-1.5327409944	-2.4429831203	-0.9614461586	 0.101771
64.2887	89.6683	115.3356	160.8993	194.0254	294.8636	314.1877	379.5529	427.1816	472.7532	502.8745	707.5748	747.89	787.8759	791.2769	852.0644	874.0552	930.9528	938.7603	973.2697	1001.7221	1026.132	1069.9452	1090.0957	1104.6396	1152.3889	1154.6286	1165.289	1205.9706	1230.62	1234.6043	1250.8105	1290.2393	1311.5688	1384.3077	1437.5371	1472.5392	1480.9408	1493.8782	1500.7705	1504.5222	1562.223	1755.2473	3023.3682	3038.267	3052.2801	3074.0556	3087.477	3106.4157	3115.4757	3153.1178	3197.0116	3222.9478	3656.6781
CNC(=O)C12CC1CC2	CNC(=O)[C@]12C[C@H]1CC2	
InChI=1S/C7H11NO/c1-8-6(9)7-3-2-5(7)4-7/h5H,2-4H2,1H3,(H,8,9)	InChI=1S/C7H11NO/c1-8-6(9)7-3-2-5(7)4-7/h5H,2-4H2,1H3,(H,8,9)/t5-,7-/m1/s1
