12
gdb 42351	7.85208	0.58933	0.55001	3.2368	82.85	-0.2851	-0.1109	0.1742	1824.5258	0.074241	-398.304051	-398.294939	-398.293995	-398.339242	30.791	
O	-0.1078472871	-0.1465315091	 0.0015855091	-0.237248
C	-0.0606040428	 1.0575827465	 0.0051176237	 0.200116
C	 1.2273237508	 1.8843458511	-0.0019395402	-0.46042
C	 2.4405068045	 1.0883970356	-0.0151593129	 0.30938
C	 3.4477055721	 0.4362853242	-0.0260974893	-0.423024
C	-1.2819956856	 1.8559037809	 0.017040365	 0.010985
C	-2.3049629346	 2.5016708134	 0.026949261	 0.147166
C	-3.4568573087	 3.2339249435	 0.0380752932	 0.212423
N	-4.4346500698	 3.8605361799	 0.0479525578	-0.313866
H	 1.1810811314	 2.5563063411	-0.8708571251	 0.172384
H	 1.1951980327	 2.5487001608	 0.873470972	 0.172439
H	 4.3375012472	-0.1437589578	-0.0357245444	 0.209663
40.5043	60.0796	116.5859	145.3619	220.6677	298.3846	319.3773	345.4734	420.3206	534.407	548.0756	583.116	600.87	639.8437	666.4181	789.4946	921.3989	940.4076	1013.7879	1162.4002	1213.9027	1341.0954	1430.3116	1785.1687	2250.35	2255.1915	2386.6601	3013.4866	3040.243	3504.6478
O=C(CC#C)C#CC#N	O=C(CC#C)C#CC#N	
InChI=1S/C7H3NO/c1-2-4-7(9)5-3-6-8/h1H,4H2	InChI=1S/C7H3NO/c1-2-4-7(9)5-3-6-8/h1H,4H2
