27
gdb 100931	2.19657	0.94658	0.70761	1.4497	92.75	-0.2632	0.0769	0.3401	1726.6629	0.250089	-390.695348	-390.683364	-390.68242	-390.732709	43.879	
C	-0.5759192291	 0.9876469022	-1.0879630661	-0.390765
C	-0.4330082825	-0.4496128583	-0.5753359024	-0.169074
C	 0.1465222259	-0.5740355342	 0.8513564516	 0.030951
C	-0.8899192094	-0.1020456176	 1.8850172009	-0.412845
C	 0.6623178899	-2.0206203906	 1.0981425109	 0.045384
C	 1.9610057467	-2.3033785111	 0.2965586409	-0.171425
C	 2.0561592783	-3.7195208627	-0.2816573006	-0.384176
C	 0.8807336332	-2.3098876098	 2.5868738085	-0.10739
O	 1.3939642701	-3.62944922	 2.7300367779	-0.419342
H	 0.3938183693	 1.4979385451	-1.1031397093	 0.113362
H	-0.9720277163	 0.9999304579	-2.1083984293	 0.111371
H	-1.2535509583	 1.5844172227	-0.4695492463	 0.116532
H	-1.4122597836	-0.9477009243	-0.5962732333	 0.09043
H	 0.197763349	-1.0042342822	-1.2783056125	 0.099159
H	 1.016852901	 0.0963956086	 0.9224814196	 0.065258
H	-1.7441906421	-0.7887196273	 1.9286731335	 0.113072
H	-0.4694544814	-0.0243239748	 2.8912775407	 0.113123
H	-1.278007043	 0.8869711191	 1.6251007295	 0.111243
H	-0.1187015624	-2.7134552775	 0.7515622494	 0.069736
H	 2.051471554	-1.5816411571	-0.5230866713	 0.087254
H	 2.8231075709	-2.1191568026	 0.9498308008	 0.092093
H	 2.9976586774	-3.8601022549	-0.8235079701	 0.09982
H	 1.9986159938	-4.4656607971	 0.5127026202	 0.140069
H	 1.2379612625	-3.9096420631	-0.9861143752	 0.104122
H	 1.5882028939	-1.5695990691	 2.9999899238	 0.080259
H	-0.0624776919	-2.2088160688	 3.1400892928	 0.086998
H	 1.5275117542	-3.7977735325	 3.6669440853	 0.284782
52.4957	75.4363	88.3278	127.6598	196.5281	207.0897	234.6913	247.6117	264.7742	293.7451	303.7054	334.5351	345.3958	368.0421	430.9849	481.0926	553.564	765.6531	773.3616	825.0333	842.1094	927.0956	975.5301	984.361	992.2564	1007.6534	1042.9222	1058.6276	1071.1315	1079.0121	1145.4049	1167.9587	1179.6028	1186.8227	1244.7385	1265.1993	1276.3507	1303.1328	1311.5911	1340.3867	1357.2179	1369.325	1382.3636	1387.1596	1406.0539	1410.4834	1418.0329	1458.9416	1479.6211	1493.914	1495.5062	1497.4878	1502.0708	1509.363	1511.8486	1517.1577	1526.7208	2947.887	2982.0483	2997.1912	3016.7587	3020.6468	3026.8095	3030.6801	3031.9029	3033.7021	3055.3883	3064.8625	3089.666	3096.9321	3097.2527	3104.7357	3111.2431	3140.7015	3833.0216
CCC(C)C(CC)CO	CC[C@@H](C)[C@@H](CC)CO	
InChI=1S/C8H18O/c1-4-7(3)8(5-2)6-9/h7-9H,4-6H2,1-3H3	InChI=1S/C8H18O/c1-4-7(3)8(5-2)6-9/h7-9H,4-6H2,1-3H3/t7-,8+/m1/s1
