25
gdb 101017	2.45009	1.02621	0.97402	0.9987	89.03	-0.2289	0.0831	0.3119	1459.7218	0.226297	-389.471871	-389.460779	-389.459835	-389.508117	40.998	
C	-0.1138586444	 1.5702958331	-0.1141273561	-0.393784
C	-0.1413523576	 0.0409597713	-0.1978950631	-0.166576
C	 0.844986836	-0.5598077431	-1.2193888963	-0.006883
C	 2.3144136817	-0.2897435451	-0.8626799476	-0.400592
C	 0.6001240466	-2.0548763191	-1.3883156203	 0.465146
C	-0.5047041763	-2.5041863432	-2.3075790699	-0.335835
C	 0.9524561967	-2.6977806283	-2.7043041173	-0.348856
O	 0.8235629349	-2.6900015232	-0.1519737525	-0.297264
C	 0.9921377844	-4.0855260154	-0.1253322643	-0.250565
H	 0.8481655755	 1.9457588764	 0.2480855167	 0.116992
H	-0.2993187732	 2.026145036	-1.0940091144	 0.107644
H	-0.885102535	 1.9363524015	 0.5711329874	 0.109591
H	 0.0637952221	-0.3922157364	 0.7871855527	 0.10911
H	-1.1540214972	-0.2838172229	-0.4675651026	 0.090883
H	 0.6376062726	-0.1001827133	-2.195977809	 0.062858
H	 2.9829008235	-0.727421298	-1.6112532847	 0.107195
H	 2.5262543372	 0.7817948827	-0.8144444856	 0.108322
H	 2.56003007	-0.7338605062	 0.1060638368	 0.125764
H	-1.066404908	-3.3956407576	-2.0503751331	 0.113279
H	-1.0910624145	-1.7449636539	-2.8144318881	 0.112378
H	 1.3720177015	-2.0662515125	-3.4806471885	 0.112672
H	 1.3248960525	-3.7150988143	-2.7199969136	 0.112849
H	 0.1359914653	-4.6275747917	-0.5532324854	 0.10723
H	 1.9049869501	-4.4050717402	-0.6472191946	 0.110887
H	 1.0789990857	-4.3650316965	 0.9276750937	 0.127556
60.8468	77.3319	88.5097	167.3113	197.1534	203.8101	235.3972	264.8921	288.0906	301.7089	351.8588	358.3482	455.6968	531.9588	549.3491	698.6409	764.2959	781.5836	831.5569	885.1923	902.258	939.6683	963.9763	971.0827	993.7949	1035.5333	1045.0744	1071.8788	1080.5302	1139.0415	1149.5396	1179.1532	1186.9094	1188.8211	1215.4228	1259.0719	1290.9715	1308.3487	1344.3627	1366.2022	1398.0109	1405.626	1412.8921	1457.7625	1484.9737	1486.5609	1493.0288	1494.8745	1501.7457	1503.2473	1508.4743	1510.6484	1512.1552	2986.4862	3005.766	3027.9888	3028.7754	3037.2382	3041.4208	3069.2331	3095.3012	3101.847	3107.798	3110.2121	3120.9521	3132.6016	3136.3605	3210.8458	3224.8654
CCC(C)C1(CC1)OC	CC[C@@H](C)C1(CC1)OC	
InChI=1S/C8H16O/c1-4-7(2)8(9-3)5-6-8/h7H,4-6H2,1-3H3	InChI=1S/C8H16O/c1-4-7(2)8(9-3)5-6-8/h7H,4-6H2,1-3H3/t7-/m1/s1
