16
gdb 29365	3.37331	1.22216	0.90284	5.8502	79.06	-0.2168	-0.04	0.1768	1236.8803	0.124016	-437.931132	-437.922474	-437.92153	-437.964343	31.705	
C	-0.0479887939	 1.5219842797	 0.0101317911	-0.51907
C	-0.0173630556	 0.0266254718	 0.0092721285	 0.219577
C	-0.0188292166	-0.8201525631	-1.060323773	-0.090256
O	 0.0028796981	-2.1098184763	-0.6949343481	-0.170952
C	 0.0234163403	-2.1349348465	 0.6832114759	 0.232874
C	 0.0607714134	-3.3961925551	 1.3680766243	 0.062153
O	 0.0734263356	-4.4994156516	 0.8591217422	-0.303867
C	 0.0094552841	-0.83193795	 1.1585066616	 0.065708
N	-0.0465296569	-0.3892907652	 2.4645768593	-0.605911
H	 0.8399793762	 1.9491543283	 0.49369673	 0.127431
H	-0.0812592833	 1.9138334436	-1.0095659363	 0.136583
H	-0.9249147635	 1.9065326476	 0.5440221883	 0.140059
H	-0.0351702416	-0.6296519708	-2.1228332203	 0.144896
H	 0.0802737536	-3.2771804745	 2.4785343059	 0.043064
H	 0.2384755497	-1.0487177873	 3.172674394	 0.260632
H	 0.3409439504	 0.5291611093	 2.6221318065	 0.257079
100.5482	143.6329	171.9093	213.9458	243.8228	264.2801	349.6317	357.4689	376.0583	520.1493	562.8758	617.6734	657.3623	722.1433	736.8665	807.1449	817.1884	943.6304	1005.3893	1012.0233	1066.8258	1171.8934	1204.8855	1220.4497	1306.613	1332.7809	1416.8828	1422.2951	1477.1937	1483.4961	1507.4422	1578.0126	1644.7827	1673.9787	1771.4576	2825.3027	3019.6088	3068.6221	3116.3802	3257.6803	3573.3294	3673.037
CC1=COC(C=O)=C1N	Cc1coc(C=O)c1N	
InChI=1S/C6H7NO2/c1-4-3-9-5(2-8)6(4)7/h2-3H,7H2,1H3	InChI=1S/C6H7NO2/c1-4-3-9-5(2-8)6(4)7/h2-3H,7H2,1H3
