18
gdb 48954	3.19307	1.63	1.4231	2.5755	75.33	-0.2408	-0.039	0.2018	958.7505	0.149559	-401.90208	-401.895115	-401.894171	-401.933808	27.811	
O	-0.7331771868	 0.9518185777	-0.6687834056	-0.24933
C	 0.0652802888	 1.110698022	 0.2214122523	 0.057915
C	 1.3379986882	 1.8839478325	 0.0899371558	 0.274553
C	 2.657402769	 1.4394669131	 0.7354938233	-0.292771
C	 2.9569915406	 2.9469145052	 0.6251147866	 0.000545
C	 3.082338845	 3.1352561574	-0.9057447095	-0.229595
C	 1.6024158265	 2.7953194009	-1.1750558831	-0.097367
C	 0.9313886638	 3.9070145087	-0.346980428	-0.174387
N	 1.4485761204	 3.2105825409	 0.8828015588	-0.185965
H	-0.1040631943	 0.6842679135	 1.2356669727	 0.081493
H	 2.4864204281	 1.11953518	 1.7657151847	 0.11769
H	 3.3052144645	 0.7366199799	 0.207782564	 0.105624
H	 3.6562377783	 3.4569899902	 1.2855698893	 0.080494
H	 3.3410387089	 4.1495056118	-1.2207238112	 0.102173
H	 3.7995285743	 2.439117319	-1.3479083789	 0.101759
H	 1.2872700039	 2.518423971	-2.1793888976	 0.083763
H	 1.2675398575	 4.9393047108	-0.4861632804	 0.100076
H	-0.1601986566	 3.8666502354	-0.3378946831	 0.123331
56.7158	178.1696	243.9125	409.9514	442.6379	444.2891	500.8832	645.8833	679.4094	739.1369	790.3138	831.1162	858.4737	885.1716	917.3698	940.0608	957.05	983.7164	991.3021	1013.2306	1030.7387	1065.829	1081.4633	1124.6756	1135.7356	1176.2094	1199.4985	1226.5047	1246.3067	1251.1309	1267.9262	1282.3065	1312.6376	1318.2319	1419.1985	1477.1897	1499.8749	1518.3212	1813.7567	2883.1208	3051.1523	3062.099	3069.8292	3107.3402	3117.9013	3130.1693	3134.2787	3136.5909
O=CC12CC3CC1CN23	O=C[C@@]12C[C@H]3C[C@@H]1CN23	
InChI=1S/C7H9NO/c9-4-7-2-6-1-5(7)3-8(6)7/h4-6H,1-3H2	InChI=1S/C7H9NO/c9-4-7-2-6-1-5(7)3-8(6)7/h4-6H,1-3H2/t5-,6-,7+/m1/s1
