18
gdb 94489	4.1332	0.75455	0.68253	5.6066	91.96	-0.2755	-0.0382	0.2374	1629.1046	0.147711	-364.799077	-364.790052	-364.789107	-364.833509	32.818	
C	-0.175105786	 1.5309493272	-0.0810912524	-0.398351
C	 0.0036838832	 0.0185103328	-0.0478504027	 0.010859
C	 1.2094580354	-0.5068935071	-0.8812730196	-0.227778
C	 2.0489528082	-0.6244407938	 0.4161576052	-0.224979
C	 0.7215382666	-0.548369563	 1.2412419742	-0.198049
C	 0.7043373407	 0.2182565257	 2.4613302171	 0.099427
C	 0.6975769066	 0.8778994844	 3.4762304709	 0.048365
C	 0.6917860286	 1.6180094883	 4.6220445424	 0.199194
N	 0.6868404521	 2.24903913	 5.5981657031	-0.34154
H	 0.765579776	 2.056097769	 0.1165405134	 0.123601
H	-0.5309120449	 1.8451303113	-1.0677920652	 0.120964
H	-0.903236344	 1.8642301011	 0.6645885691	 0.130169
H	-0.9516856887	-0.4715107801	-0.2524761394	 0.083893
H	 1.0086042089	-1.4814481509	-1.333745071	 0.108483
H	 1.5897666902	 0.1634556079	-1.6552736005	 0.107699
H	 2.6511263995	-1.523130563	 0.558947417	 0.115633
H	 2.6774713169	 0.2508328698	 0.5909539815	 0.123539
H	 0.3529568807	-1.5586792096	 1.4484614569	 0.11887
67.0907	75.0248	132.5007	194.9375	235.979	253.6647	333.0479	353.7674	447.2169	506.3879	571.0629	586.8323	646.0123	729.741	783.7014	858.2582	887.4752	917.7746	953.8413	969.4157	1018.0727	1073.5671	1114.2404	1156.0483	1197.8703	1220.3319	1237.8469	1258.3017	1275.6809	1281.7482	1340.4812	1367.7203	1416.2022	1482.2996	1492.9573	1497.1156	1499.9833	2257.1856	2390.4368	3033.7668	3048.7558	3061.2598	3070.8497	3079.4801	3102.658	3108.6317	3113.331	3137.2119
CC1CCC1C#CC#N	C[C@H]1CC[C@H]1C#CC#N	
InChI=1S/C8H9N/c1-7-4-5-8(7)3-2-6-9/h7-8H,4-5H2,1H3	InChI=1S/C8H9N/c1-7-4-5-8(7)3-2-6-9/h7-8H,4-5H2,1H3/t7-,8+/m0/s1
