16
gdb 61340	3.44541	0.83571	0.73391	3.8355	77.	-0.2848	-0.0757	0.2091	1500.5352	0.121091	-400.746848	-400.737071	-400.736127	-400.782446	34.081	
C	 0.0203260807	 1.6448040311	-0.1572874378	-0.400166
C	-0.0175907562	 0.1081668452	-0.0390393944	-0.139955
C	-1.4531308744	-0.443372665	 0.0774441128	-0.31412
C	-2.0753299765	-0.1741001785	 1.4402407376	 0.225516
O	-1.4607938204	 0.3100723329	 2.3660439697	-0.289694
C	-3.4678243134	-0.5631754672	 1.5633594016	 0.246934
C	-4.6228042129	-0.8930085669	 1.6394190282	-0.369421
C	 0.6604119861	-0.5161731405	-1.1789537018	 0.258398
N	 1.1857655839	-1.0047280513	-2.0851534756	-0.32079
H	 1.0505695649	 2.0009861031	-0.2281497661	 0.141255
H	-0.517865915	 1.9787496891	-1.0492165445	 0.132485
H	-0.4406463861	 2.0883960906	 0.7268293295	 0.149787
H	 0.523090271	-0.1812609537	 0.8690949272	 0.14963
H	-2.1021093794	-0.0262703802	-0.7017467229	 0.148264
H	-1.4702900357	-1.5297102662	-0.0768193737	 0.159556
H	-5.6435156766	-1.1788475725	 1.7254731103	 0.222319
42.4602	76.8133	103.8238	183.9704	203.934	224.906	240.44	289.3482	337.1309	447.2682	536.2904	556.7363	587.7501	621.6647	654.6905	714.8345	806.3421	863.4143	897.6043	942.6548	1052.2209	1086.5183	1119.3372	1136.8488	1238.3305	1289.34	1333.9405	1376.2472	1410.3114	1444.6889	1496.6222	1502.7053	1766.81	2214.0066	2357.9064	3039.1059	3052.1319	3058.5791	3077.5775	3127.4271	3147.7787	3492.3174
CC(CC(=O)C#C)C#N	C[C@@H](CC(=O)C#C)C#N	
InChI=1S/C7H7NO/c1-3-7(9)4-6(2)5-8/h1,6H,4H2,2H3	InChI=1S/C7H7NO/c1-3-7(9)4-6(2)5-8/h1,6H,4H2,2H3/t6-/m0/s1
