23
gdb 42003	3.09382	1.37635	1.02952	0.4046	91.24	-0.2194	0.0326	0.252	1232.4713	0.209772	-351.192841	-351.184817	-351.183873	-351.225394	32.333	
C	-0.0838196406	 1.5491274844	 0.022894161	-0.250473
C	 1.4228309763	 1.9143791297	-0.0269474962	-0.240692
C	 2.1441761947	 0.6905954696	 0.5779211024	-0.038822
C	 3.5194664224	 0.3332592313	 0.0037481912	-0.217022
C	 4.0680359072	-0.9875249689	 0.6149413394	-0.197344
C	 2.9708831071	-1.8955964114	 1.2195579902	-0.199792
C	 1.6619824965	-1.8536888126	 0.4120872694	-0.318382
C	 1.1551484916	-0.4381223879	 0.3295689836	 0.387512
C	-0.0564462165	 0.0357654073	 0.0390021278	-0.231419
H	-0.5655199185	 1.946123791	 0.9290501856	 0.098932
H	-0.6445640956	 1.9598064391	-0.8245357434	 0.096664
H	 1.7320023329	 2.0283914382	-1.0731097011	 0.096287
H	 1.6571988299	 2.8508488628	 0.4871795275	 0.088913
H	 2.2549424616	 0.833293907	 1.6657311017	 0.070731
H	 3.4133177791	 0.2224802501	-1.0829611752	 0.093241
H	 4.234033007	 1.148973003	 0.1598993927	 0.091006
H	 4.61212812	-1.5391194868	-0.1601735921	 0.095891
H	 4.802970929	-0.7625788797	 1.395503273	 0.095448
H	 3.340744676	-2.9236160617	 1.2917904112	 0.089722
H	 2.7551658997	-1.5762728301	 2.2463746766	 0.100464
H	 1.8555227508	-2.2350077679	-0.6016861296	 0.108044
H	 0.9110838922	-2.523057928	 0.8468336034	 0.10291
H	-0.9381766626	-0.5690949185	-0.148255709	 0.078181
76.7087	149.0909	186.5379	262.7284	325.7529	342.4215	431.7483	497.4282	562.9049	608.3098	643.6903	765.7605	802.3328	820.2739	845.9701	876.9576	887.1092	924.3677	929.3894	948.9027	1002.6925	1013.3134	1054.0555	1067.1749	1088.2226	1120.623	1141.9441	1161.9935	1173.5302	1210.151	1234.3995	1244.7178	1273.675	1290.7581	1307.7448	1318.2986	1336.0678	1348.6584	1360.2118	1373.5979	1374.1599	1382.1915	1474.9416	1483.8346	1486.215	1497.5225	1500.5147	1508.8719	1720.4922	2955.5046	2994.7321	2995.5063	3018.358	3027.1508	3031.6264	3035.4701	3052.6464	3053.6597	3057.0394	3069.7842	3081.5074	3089.6865	3177.7191
C1CC2CCCCC2=C1	C1C[C@@H]2CCCCC2=C1	
InChI=1S/C9H14/c1-2-5-9-7-3-6-8(9)4-1/h6,9H,1-5,7H2	InChI=1S/C9H14/c1-2-5-9-7-3-6-8(9)4-1/h6,9H,1-5,7H2/t9-/m0/s1
