20
gdb 87398	1.98294	1.60207	1.11931	0.4353	75.36	-0.2349	0.0579	0.2928	1169.9179	0.169771	-440.242926	-440.233448	-440.232503	-440.276963	35.822	
C	-0.1654503074	 1.4878855765	-0.071035107	-0.379814
C	 0.0051261886	-0.0057203326	 0.0685593986	-0.070725
N	 1.362746533	-0.5529415826	-0.1416870419	-0.407872
C	 0.7408680447	-0.6714667178	 1.1711915513	 0.255362
C	 1.2626426998	-0.1049733625	 2.5041721035	 0.062254
O	 0.9761568356	 1.2263820124	 2.866585801	-0.428412
C	 0.3784705499	-1.1460888556	 3.2302100958	-0.288832
C	 0.2528195537	-1.936547219	 1.8965903333	 0.068289
O	-0.972433373	-2.5208942628	 1.5297023884	-0.426917
H	 0.7424550387	 2.0109062589	 0.2346226313	 0.108677
H	-0.3694394404	 1.7501015529	-1.1149392424	 0.115462
H	-0.9944393927	 1.8519775801	 0.5432762614	 0.121094
H	-0.8146172619	-0.5976128481	-0.340021165	 0.086928
H	 1.318105094	-1.4444150297	-0.6321715337	 0.231251
H	 2.3325052466	-0.3275177122	 2.621256044	 0.076294
H	 1.6297957422	 1.7984400664	 2.4525624168	 0.28833
H	 0.7910966874	-1.6592018094	 4.0997895049	 0.106658
H	-0.5764138764	-0.6828457528	 3.4993674773	 0.108872
H	 0.9892433275	-2.7451671991	 1.8356064702	 0.093334
H	-1.6572340497	-1.849743193	 1.6243139922	 0.279769
77.7782	122.6441	149.7324	193.4349	229.4974	284.7321	307.9501	333.9346	355.3342	419.4707	482.8077	515.6262	553.1817	597.0126	697.837	796.6558	845.9153	868.7795	918.7422	978.661	1016.5459	1035.22	1058.9714	1069.7069	1079.2127	1111.9437	1123.8248	1173.1848	1200.1126	1229.9918	1236.8833	1260.8578	1272.713	1306.666	1317.416	1356.0395	1409.0468	1424.1933	1444.8456	1465.2302	1480.6569	1487.5267	1501.0467	3003.0585	3039.3556	3053.6049	3061.1684	3099.1199	3103.6733	3130.0855	3135.3399	3476.537	3804.1703	3823.0627
CC1NC11C(O)CC1O	C[C@H]1N[C@]21[C@@H](O)C[C@H]2O	
InChI=1S/C6H11NO2/c1-3-6(7-3)4(8)2-5(6)9/h3-5,7-9H,2H2,1H3	InChI=1S/C6H11NO2/c1-3-6(7-3)4(8)2-5(6)9/h3-5,7-9H,2H2,1H3/t3-,4-,5+,6+/m1/s1
