21
gdb 101140	3.56346	0.84686	0.83744	1.5064	81.55	-0.2259	0.0213	0.2472	1487.0505	0.181604	-424.223823	-424.213915	-424.212971	-424.259455	35.364	
C	-0.0194732061	 1.5700832418	 0.0438766051	-0.397493
C	-0.01721374	 0.0300482981	 0.0616945289	-0.093003
C	 0.786146466	-0.503986433	 1.2574965634	-0.076542
O	 2.1256160286	-0.056789093	 1.1156650004	-0.420672
C	-1.407381769	-0.5440076621	 0.048119838	 0.321242
C	-1.9598536671	-1.3294746872	-0.8734484179	-0.233074
C	-3.37400357	-1.6661222088	-0.5027649234	-0.102611
O	-3.5996234857	-1.0049731802	 0.7400455035	-0.265886
C	-2.4332673186	-0.2905101324	 1.1317649295	-0.156983
H	 1.0064206363	 1.9437747982	 0.0400971572	 0.136586
H	-0.5371171901	 1.9487567788	-0.8420618396	 0.115576
H	-0.5232023134	 1.9762518217	 0.9279702187	 0.112493
H	 0.500763446	-0.3219950404	-0.8387015954	 0.087944
H	 0.3437631265	-0.1374573492	 2.1980959002	 0.086411
H	 0.7313545235	-1.6033788264	 1.2708976109	 0.090997
H	 2.6239009131	-0.3453415015	 1.8854631046	 0.288437
H	-1.4830499906	-1.6880329971	-1.7777497231	 0.097927
H	-4.1025235891	-1.3149056275	-1.2516640768	 0.102423
H	-3.5351264944	-2.7498489699	-0.3833156406	 0.101971
H	-2.097892242	-0.6442060328	 2.1203494921	 0.09977
H	-2.6708610439	 0.779642133	 1.2409690142	 0.104487
44.7353	96.772	105.4212	130.518	204.6552	228.261	240.4084	286.7944	316.9889	361.4336	473.5681	536.3366	670.0728	776.1945	831.3104	861.3534	911.1295	927.6458	930.5045	972.2879	1007.9074	1024.9988	1061.1361	1078.5735	1097.2609	1119.4508	1156.6776	1178.2851	1215.5177	1229.7914	1231.7201	1268.6019	1295.1367	1341.1197	1361.5343	1372.0614	1396.1299	1400.6685	1453.7452	1493.977	1503.5016	1517.6851	1523.2376	1531.1826	1725.2356	2960.5647	2966.0159	2972.2411	2979.299	2984.6622	2999.79	3036.301	3041.7878	3105.7837	3134.5808	3207.1046	3835.1458
CC(CO)C1=CCOC1	C[C@@H](CO)C1=CCOC1	
InChI=1S/C7H12O2/c1-6(4-8)7-2-3-9-5-7/h2,6,8H,3-5H2,1H3	InChI=1S/C7H12O2/c1-6(4-8)7-2-3-9-5-7/h2,6,8H,3-5H2,1H3/t6-/m0/s1
