20
gdb 120100	4.04397	0.95935	0.87981	2.2095	79.52	-0.2113	0.0701	0.2814	1387.179	0.170505	-403.034689	-403.026215	-403.02527	-403.068244	32.37	
C	 0.1333998063	 1.3989830359	 0.2484289467	-0.223604
O	 0.2015892105	 0.0054365905	 0.0951323879	-0.247872
C	 0.3716371849	-0.3840134019	-1.2627754423	-0.079889
C	 0.4271504294	-1.9053811666	-1.2653017519	-0.020908
C	-0.2014847178	-2.8977846067	-2.2103477451	-0.095558
C	-0.0094263369	-2.5654485514	-3.7159917163	-0.055584
N	 0.6991062401	-1.2639738511	-3.8372866225	-0.332954
C	 1.4531007659	-2.5123452119	-3.5480987641	-0.055587
C	 1.3227028434	-2.8424626228	-2.0353817126	-0.095557
H	 1.0524696863	 1.8978120059	-0.1011553847	 0.097845
H	-0.7159569377	 1.8336166314	-0.3042152941	 0.097845
H	 0.0034579095	 1.6093551601	 1.313570972	 0.118979
H	-0.4615698951	-0.0091894937	-1.8722286013	 0.097511
H	 1.2921565939	 0.0544659187	-1.6708702953	 0.097509
H	 0.322460641	-2.2604137909	-0.2410165552	 0.106785
H	-0.8851369902	-3.6668888286	-1.8731557073	 0.087915
H	-0.6117147855	-2.9533658486	-4.5267597992	 0.093641
H	 0.8065746943	-1.0738736832	-4.8336313864	 0.227928
H	 2.2494303584	-2.8494801783	-4.1983104644	 0.093641
H	 1.9655424892	-3.563419937	-1.5459144939	 0.087915
66.5223	102.6367	151.3975	215.2075	253.4948	285.8784	377.6768	449.9577	488.6269	680.378	711.39	731.3526	734.2733	838.3737	842.1309	881.585	909.1103	916.1251	958.3225	991.1999	998.9064	1011.7341	1037.5915	1059.2167	1089.2944	1119.1387	1136.3763	1152.717	1184.5129	1186.8799	1228.1106	1248.6762	1255.3046	1258.1491	1315.6369	1338.0812	1349.0354	1392.9758	1448.2053	1478.921	1483.4132	1495.9185	1517.2725	2959.3103	2999.281	3002.9984	3035.6471	3103.1622	3127.9041	3180.4921	3190.7772	3195.7618	3208.7983	3466.9998
COCC1C2C3NC3C12	COC[C@H]1[C@H]2[C@H]3N[C@H]3[C@@H]12	
InChI=1S/C7H11NO/c1-9-2-3-4-5(3)7-6(4)8-7/h3-8H,2H2,1H3	InChI=1S/C7H11NO/c1-9-2-3-4-5(3)7-6(4)8-7/h3-8H,2H2,1H3/t3-,4+,5-,6+,7-
