19
gdb 78803	2.33022	1.69316	1.42941	2.1175	74.03	-0.2428	0.0712	0.314	1010.7641	0.158643	-422.974839	-422.966485	-422.965541	-423.00707	33.265	
C	-0.0691713983	 1.5687250341	 0.0086796109	-0.516993
C	-0.0838180668	 0.0668282677	 0.0636685171	 0.238608
C	-1.2159158686	-0.8898792093	 0.647713654	-0.169879
C	-0.780773655	-1.8823447594	-0.4115722667	-0.123256
C	-0.0976713499	-1.8603662213	 0.9582209684	-0.133567
C	 0.9252554435	-0.7314272774	 0.945047782	 0.12375
O	 2.2478095346	-0.9327013492	 0.5087607373	-0.44628
C	-0.1650367295	-0.7677502686	-1.2552500614	 0.108717
O	-1.038263179	-0.2368521602	-2.2279804893	-0.444793
H	 0.9147226969	 1.9211216957	-0.321710536	 0.131326
H	-0.8119380805	 1.9471086776	-0.7006906277	 0.119177
H	-0.2701613306	 2.0093221399	 0.9908402673	 0.11562
H	-2.1519814671	-0.7225813234	 1.1591748349	 0.09655
H	-1.3060730076	-2.7615017036	-0.7637822911	 0.092957
H	-0.1378952525	-2.7220838904	 1.6129596976	 0.091722
H	 1.0046200332	-0.2712547915	 1.9351502657	 0.088127
H	 2.2302004176	-1.5113467227	-0.2599687248	 0.285812
H	 0.7749305573	-0.9504737196	-1.7897003508	 0.06364
H	-1.9127826775	-0.1700042482	-1.8250831375	 0.278762
159.2286	189.8518	206.7539	231.204	252.4281	309.9809	348.304	385.5841	430.9473	565.5539	585.1907	658.4226	704.5119	780.5086	805.2163	829.2282	854.9067	910.0007	917.5586	949.715	987.7187	1002.9896	1024.2359	1037.1293	1097.4191	1122.3829	1142.7451	1144.4855	1177.2323	1217.3011	1230.267	1272.7708	1279.2057	1310.1088	1348.6341	1353.9985	1409.6798	1435.4678	1444.4305	1486.2271	1491.0601	3028.4363	3036.0788	3065.9142	3094.1558	3102.175	3188.6778	3196.6452	3229.906	3779.5447	3824.2385
CC12C3C(C3C1O)C2O	C[C@]12[C@H]3[C@H]([C@H]3[C@H]1O)[C@H]2O	
InChI=1S/C7H10O2/c1-7-4-2(5(7)8)3(4)6(7)9/h2-6,8-9H,1H3	InChI=1S/C7H10O2/c1-7-4-2(5(7)8)3(4)6(7)9/h2-6,8-9H,1H3/t2-,3+,4-,5-,6-,7+/m1/s1
