15
gdb 51394	2.86766	1.23627	1.03771	4.947	66.73	-0.2576	-0.0278	0.2298	1144.1076	0.111115	-457.765267	-457.757321	-457.756377	-457.798928	28.554	
O	 0.2781723717	 0.1235540757	-0.2134749067	-0.259901
C	 0.4132504884	 1.296286901	-0.3738619715	 0.176543
O	 1.0340608413	 2.0827552036	 0.5419197283	-0.194898
C	 1.0546759629	 3.4714476441	 0.280531452	 0.105862
C	 2.2152390231	 4.2687953735	 0.7117543907	-0.109932
C	 3.5097790205	 3.4502296803	 0.5704818222	-0.354447
C	 3.2050605695	 3.3550270864	-0.9430371954	 0.429427
O	 3.846914198	 3.0027273315	-1.8885565114	-0.303334
C	 1.8963580909	 4.0915520045	-0.8180044006	-0.240629
H	 0.0648869098	 1.8611204916	-1.2575747916	 0.092832
H	 0.0802256536	 3.9377433268	 0.4035976719	 0.128829
H	 2.1094344319	 5.171227516	 1.2985096235	 0.120684
H	 4.4180770608	 4.0353100038	 0.7355673844	 0.139822
H	 3.5609870442	 2.5173764982	 1.1344305893	 0.149014
H	 1.4626719934	 4.7657484629	-1.546731645	 0.120129
45.3624	103.0699	133.8724	182.9935	273.992	423.2669	451.8675	489.3171	577.8065	641.3658	713.6216	743.5339	807.2399	884.8792	918.2985	962.7672	985.1995	1013.9092	1028.0818	1047.3101	1086.5389	1112.7235	1146.6129	1154.0664	1197.6071	1223.9489	1285.3632	1331.8225	1404.3104	1432.657	1457.3132	1874.0321	1893.5345	2978.831	3077.92	3137.3288	3143.4826	3194.2725	3213.5963
O=COC1C2CC(=O)C12	O=CO[C@H]1[C@H]2CC(=O)[C@@H]12	
InChI=1S/C6H6O3/c7-2-9-6-3-1-4(8)5(3)6/h2-3,5-6H,1H2	InChI=1S/C6H6O3/c7-2-9-6-3-1-4(8)5(3)6/h2-3,5-6H,1H2/t3-,5-,6-/m0/s1
