23
gdb 96312	2.01337	1.45191	0.91802	1.607	88.02	-0.2277	0.023	0.2506	1346.7769	0.206618	-388.310254	-388.300939	-388.299995	-388.34389	36.509	
C	-0.1331099634	 1.5396080143	 0.0201988887	-0.477679
C	-0.0338693883	 0.0371750259	 0.0162232851	 0.327085
C	-0.0736156354	-0.6661520269	-1.1170672586	-0.199521
C	 0.0245861967	-2.1719073048	-1.2288524427	 0.093373
O	-0.1175633232	-2.5921312308	-2.584197439	-0.443964
C	 1.3650558407	-2.7317941757	-0.7358892824	-0.174206
C	 1.5013443	-2.7654761591	 0.7924579559	-0.198722
C	 1.4706390049	-1.4095496383	 1.5145578263	-0.176482
C	 0.1495774743	-0.625114487	 1.3703992445	-0.296665
H	 0.7590793413	 1.9925737286	 0.4727730702	 0.122573
H	-0.2462718739	 1.9452046142	-0.9887218688	 0.117535
H	-0.9872831455	 1.8758761333	 0.6227933109	 0.121662
H	-0.1601105737	-0.1449241775	-2.0693740334	 0.074685
H	-0.77154883	-2.6347265429	-0.6158230921	 0.065193
H	-0.946141099	-2.2323243213	-2.9166694875	 0.277261
H	 1.4478924915	-3.7535242475	-1.1231526774	 0.102294
H	 2.1799456427	-2.151711345	-1.184675599	 0.096832
H	 0.7011976936	-3.3979976863	 1.2033454704	 0.091922
H	 2.441070001	-3.2713349833	 1.0439300427	 0.093997
H	 1.6510300997	-1.59100986	 2.5812044361	 0.090399
H	 2.2992629982	-0.7814774639	 1.1630465649	 0.095211
H	 0.106954079	 0.1421388064	 2.1508866323	 0.092896
H	-0.6900431013	-1.3066641124	 1.5723422429	 0.104319
83.8154	158.6913	179.399	227.8567	264.5016	300.7137	312.6765	330.5318	356.425	421.19	479.3944	495.7745	530.1122	603.722	774.4232	817.6516	822.4057	850.4143	887.4743	940.2141	960.0869	1007.8061	1032.6409	1055.7337	1070.5083	1088.8491	1100.5183	1113.6259	1142.4837	1188.7003	1229.6647	1251.9175	1288.7909	1297.7088	1319.478	1355.7726	1366.7677	1378.5235	1388.4625	1393.249	1411.715	1418.5419	1478.7203	1481.1918	1481.9998	1485.5765	1492.9321	1494.7959	1736.4953	2912.1036	2997.6566	3005.6306	3010.2934	3017.5839	3031.9097	3053.7859	3054.7062	3059.8738	3062.8235	3078.2439	3110.2707	3135.0687	3814.214
CC1=CC(O)CCCC1	CC1=C[C@@H](O)CCCC1	
InChI=1S/C8H14O/c1-7-4-2-3-5-8(9)6-7/h6,8-9H,2-5H2,1H3	InChI=1S/C8H14O/c1-7-4-2-3-5-8(9)6-7/h6,8-9H,2-5H2,1H3/t8-/m0/s1
