21
gdb 73283	2.4415	1.7005	1.29783	1.9689	77.96	-0.2398	0.0757	0.3155	1063.5577	0.183898	-424.223805	-424.215716	-424.214771	-424.255869	32.886	
O	-0.0752494243	 1.3871414392	 0.0301276096	-0.483924
C	 0.0649451161	-0.0283700579	-0.0377002741	 0.399262
C	 0.1744868639	-0.4986864098	-1.5202527974	-0.277576
C	-1.3791022485	-0.5583309654	-1.566479821	-0.234151
C	-1.3841035179	-0.6070069336	-0.0230865864	 0.102111
O	-1.4329051165	-1.9636292262	 0.3786338805	-0.269714
C	-0.7341555914	-2.2309377007	 1.5840684548	-0.066049
C	 0.7661156351	-2.0092216787	 1.3948879991	-0.211513
C	 1.030426462	-0.5417443746	 1.0273005546	-0.293855
H	 0.7636280098	 1.77776381	-0.2385087623	 0.274974
H	 0.6812044529	 0.1923861437	-2.1992998189	 0.08655
H	 0.6265815267	-1.4891202376	-1.6132583315	 0.106234
H	-1.8145714871	 0.3676372578	-1.9443037939	 0.111783
H	-1.8406775657	-1.4168412729	-2.0560393766	 0.104639
H	-2.1194608545	-0.0027363159	 0.525710134	 0.06706
H	-1.1156167631	-1.5984474765	 2.4041035575	 0.086769
H	-0.9552196702	-3.2727314171	 1.8341796753	 0.104427
H	 1.3081262005	-2.2754491568	 2.3091983947	 0.095337
H	 1.1171281766	-2.6814950895	 0.6031589269	 0.105836
H	 2.0699028227	-0.3963540891	 0.7035632897	 0.085931
H	 0.8825940329	 0.0836619016	 1.9165261355	 0.105868
132.4658	162.1033	265.8048	278.2585	332.7123	336.5253	394.8824	418.6386	453.1597	476.6579	584.2838	627.9175	710.6743	825.8754	859.693	889.4063	891.2572	929.6462	953.094	956.9205	976.7637	1005.7566	1037.9596	1098.6397	1108.8429	1141.177	1161.7114	1195.9146	1207.6451	1228.6315	1249.0278	1256.8149	1271.3359	1284.9869	1314.8463	1340.7649	1359.8215	1372.1927	1387.0822	1410.2226	1458.9155	1474.7686	1478.677	1486.3566	1500.9614	2961.7321	3008.6251	3012.2187	3033.0552	3053.8459	3058.0461	3078.4574	3083.8122	3085.0287	3113.0319	3146.3881	3797.9894
OC12CCC1OCCC2	O[C@]12CC[C@H]1OCCC2	
InChI=1S/C7H12O2/c8-7-3-1-5-9-6(7)2-4-7/h6,8H,1-5H2	InChI=1S/C7H12O2/c8-7-3-1-5-9-6(7)2-4-7/h6,8H,1-5H2/t6-,7-/m1/s1
