17
gdb 94520	2.32798	1.23167	1.1648	4.4513	74.63	-0.242	-0.0865	0.1555	1177.1109	0.134708	-417.998713	-417.989564	-417.98862	-418.033709	31.913	
C	-0.2100108804	 0.4306343801	-0.8959358767	-0.333364
N	-0.017296135	-0.4422259604	 0.2422549427	-0.063559
C	-1.1392755759	-0.7052155783	 1.1629419827	-0.158822
C	-0.1282388225	-0.7207041308	 2.3344910459	-0.266487
C	 0.8475735157	-0.0100913662	 1.3428461092	-0.070107
C	 2.2666413537	-0.5311572207	 1.2997314649	 0.303681
O	 3.2298308939	 0.0570274228	 1.7201467611	-0.26846
C	 2.4172292532	-1.8897512188	 0.7218544909	 0.233007
N	 2.5913346814	-2.9550211877	 0.3070843777	-0.31305
H	 0.7385399718	 0.5692157919	-1.4244719906	 0.132406
H	-0.9159352945	-0.0310993279	-1.5930670856	 0.134731
H	-0.6002984967	 1.426049024	-0.6159257268	 0.099957
H	-1.8462090417	 0.1364935158	 1.2352794024	 0.095732
H	-1.6980855302	-1.6224552218	 0.9547717864	 0.118681
H	-0.3807621948	-0.1620754846	 3.2342862608	 0.128439
H	 0.1994644095	-1.7267066877	 2.6020486838	 0.135962
H	 0.8952922127	 1.0765866203	 1.5093843411	 0.091253
31.4982	103.758	119.0494	172.2613	208.5465	248.0959	284.0971	339.1134	356.1943	454.6266	617.9407	657.2102	705.4641	730.906	819.8014	905.3853	941.6373	977.0285	1007.5169	1066.0363	1129.6178	1164.448	1193.8351	1207.9183	1230.4705	1248.7629	1253.6862	1279.7367	1323.5035	1350.0949	1454.0266	1481.9989	1485.9583	1499.1685	1525.352	1796.3389	2336.761	2943.0535	2979.9078	2997.9607	3067.1945	3074.2119	3092.4573	3109.1231	3158.29
CN1CCC1C(=O)C#N	CN1CC[C@H]1C(=O)C#N	
InChI=1S/C6H8N2O/c1-8-3-2-5(8)6(9)4-7/h5H,2-3H2,1H3	InChI=1S/C6H8N2O/c1-8-3-2-5(8)6(9)4-7/h5H,2-3H2,1H3/t5-/m0/s1
