23
gdb 95952	2.57939	1.38268	1.18261	2.0161	83.61	-0.241	0.0622	0.3032	1180.4405	0.207156	-388.287007	-388.278018	-388.277074	-388.321275	34.093	
C	 0.4740546571	 1.7105671934	-0.2841347838	-0.407488
C	 0.053229145	 0.2656734711	 0.0198849899	-0.057214
C	 0.5160450456	-0.7203409897	-1.0741611943	-0.214846
C	 1.9860385291	-1.0675550836	-0.7128442001	-0.204199
C	 2.1478422138	-0.6850898384	 0.7855877894	-0.290816
C	 0.7356615426	-0.3158296326	 1.2725497288	 0.339525
C	 0.5962771363	 0.4120655389	 2.6277561635	-0.149982
O	-0.1221564555	-0.6916779236	 3.2125263055	-0.274053
C	-0.0529062683	-1.4464566096	 1.9887267392	-0.125296
H	 1.5514120861	 1.7962178901	-0.4614566648	 0.116856
H	-0.0350310473	 2.0762034973	-1.1817658831	 0.115647
H	 0.2185456497	 2.3867694287	 0.538097912	 0.11603
H	-1.0368463493	 0.2441113311	 0.1350980949	 0.067633
H	-0.101541164	-1.6248307761	-1.0347111157	 0.097569
H	 0.411372257	-0.3091311289	-2.0825329263	 0.092531
H	 2.1955811091	-2.1260192552	-0.8883428529	 0.100443
H	 2.6901210336	-0.5067778721	-1.3338072516	 0.102482
H	 2.5865727044	-1.4880667528	 1.385110209	 0.100389
H	 2.8119935774	 0.1794823876	 0.8934758015	 0.100622
H	 1.5385744087	 0.6136550329	 3.1546101638	 0.094586
H	-0.00527148	 1.3306980703	 2.6186800219	 0.094448
H	-1.0507755045	-1.6599874815	 1.5808387169	 0.092633
H	 0.4849311234	-2.3948017074	 2.1217546663	 0.0925
48.0033	83.1323	136.4204	206.9188	212.5834	291.37	314.703	392.9678	450.0609	485.0356	662.7342	717.1526	777.8594	841.138	844.4553	859.7532	889.6564	952.5731	956.325	968.2354	988.706	1001.741	1025.2032	1043.385	1055.3377	1085.3557	1146.8516	1147.954	1157.3933	1164.5091	1216.6254	1237.7438	1241.5563	1270.5756	1297.6276	1303.0408	1312.2071	1335.2885	1357.3065	1372.0943	1386.8787	1412.1492	1486.3486	1490.2855	1499.8419	1504.2784	1511.6592	1517.145	1535.9852	2988.9244	3002.9468	3027.4471	3032.751	3034.5175	3037.9351	3041.7205	3043.1325	3061.0093	3074.5782	3084.2825	3100.1226	3100.2825	3105.3443
CC1CCCC11COC1	C[C@H]1CCCC21COC2	
InChI=1S/C8H14O/c1-7-3-2-4-8(7)5-9-6-8/h7H,2-6H2,1H3	InChI=1S/C8H14O/c1-7-3-2-4-8(7)5-9-6-8/h7H,2-6H2,1H3/t7-/m0/s1
