13
gdb 132447	3.28647	1.38555	0.97552	4.0039	67.1	-0.2041	-0.0447	0.1593	1083.3964	0.0893	-497.908508	-497.901198	-497.900254	-497.94022	28.075	
N	 0.0078710975	 1.400363589	 0.1465351358	-0.578793
C	-0.0781447559	 0.0221476882	 0.0451351768	 0.128291
C	-1.2240978107	-0.7168477718	 0.0217650038	-0.147848
C	-1.1794824317	-2.1461084709	-0.0169451339	-0.356997
C	 0.0320800558	-2.7234280923	-0.0298054437	 0.390649
F	 0.2535909277	-4.0193627734	-0.0594065457	-0.041897
O	 1.1798083046	-2.044665808	-0.0183087726	-0.225842
C	 1.2183115516	-0.6506500159	 0.008199035	 0.428357
O	 2.2927096156	-0.1059000151	-0.0090569131	-0.35499
H	 0.9182565475	 1.7575210241	-0.1094222162	 0.269385
H	-0.7625382251	 1.9268170503	-0.2354105216	 0.252732
H	-2.1896248064	-0.2223397024	 0.0389624781	 0.109675
H	-2.0724932505	-2.7531625117	-0.0321624226	 0.127277
123.8716	184.9239	309.0268	333.2072	358.413	389.8814	423.2613	465.7816	534.7268	592.993	607.0699	646.1472	742.7687	775.2051	789.8931	815.534	902.9713	1018.7673	1048.0204	1096.3439	1151.3855	1281.323	1309.6862	1406.5665	1433.6085	1607.4009	1650.4164	1710.387	1821.2071	3185.8849	3244.5997	3561.4263	3675.5801
NC1=CC=C(F)OC1=O	Nc1ccc(F)oc1=O	
InChI=1S/C5H4FNO2/c6-4-2-1-3(7)5(8)9-4/h1-2H,7H2	InChI=1S/C5H4FNO2/c6-4-2-1-3(7)5(8)9-4/h1-2H,7H2
