21
gdb 87772	3.45376	1.14049	1.12447	1.4327	84.09	-0.2208	0.0824	0.3031	1239.7898	0.180636	-387.043469	-387.034461	-387.033517	-387.076714	35.067	
C	-0.0531580498	 1.4940921652	 0.1011146233	-0.40238
C	 0.0141809255	-0.0166488562	 0.0517338045	-0.083928
C	 1.3639068154	-0.7150376132	-0.1130763106	-0.379624
C	 0.624842299	-0.7792744066	 1.1825754098	 0.471794
O	 1.1364903368	-0.1207369319	 2.3570401212	-0.349635
C	 0.8030455572	-1.2801561945	 3.1477399726	 0.466204
C	 1.7705257385	-1.6793162616	 4.2118435217	-0.485299
C	-0.679442258	-1.5009580241	 3.1309197795	-0.339323
C	 0.1706427112	-1.9827718623	 1.9637021261	-0.277779
H	 0.7726153785	 1.8999954104	 0.6916387758	 0.132538
H	-0.0023129305	 1.9267426109	-0.9039909053	 0.112574
H	-0.9855487307	 1.8319079968	 0.5661645952	 0.116277
H	-0.8269516501	-0.5012946993	-0.4391820305	 0.084874
H	 1.4235638586	-1.6087658001	-0.7264611787	 0.109598
H	 2.2479527928	-0.0853790278	-0.1376993507	 0.1194
H	 1.8279419227	-0.9061857472	 4.9866635799	 0.13175
H	 1.4523373071	-2.610913094	 4.6884973947	 0.122359
H	 2.7735319827	-1.8205084187	 3.7976499769	 0.129023
H	-1.0411683311	-2.2909446497	 3.7825221976	 0.109636
H	-1.3536256641	-0.6580913843	 3.0071527738	 0.113137
H	 0.2222827482	-3.0137539417	 1.6395958631	 0.098803
104.5983	139.7305	174.2901	197.6656	206.0409	283.3036	341.65	389.5121	422.2012	478.7388	490.628	577.9957	668.8423	786.5777	813.9794	844.4974	879.5045	892.6873	911.2489	943.9438	958.9223	973.9204	987.2146	1022.0891	1038.2139	1066.7963	1090.2337	1108.696	1121.5119	1131.9487	1164.7433	1187.7287	1219.0204	1267.0595	1330.8558	1381.6196	1412.5538	1426.6829	1429.4823	1473.6907	1480.142	1492.4631	1495.2387	1501.5771	1516.3853	3031.7641	3032.8281	3090.7835	3096.6279	3111.8106	3113.8331	3117.3301	3120.9739	3133.2687	3196.7093	3207.1747	3210.3717
CC1CC11OC2(C)CC12	C[C@H]1C[C@]21O[C@@]1(C)C[C@@H]21	
InChI=1S/C8H12O/c1-5-3-8(5)6-4-7(6,2)9-8/h5-6H,3-4H2,1-2H3	InChI=1S/C8H12O/c1-5-3-8(5)6-4-7(6,2)9-8/h5-6H,3-4H2,1-2H3/t5-,6+,7-,8+/m0/s1
