20
gdb 120176	3.17713	1.03243	0.89415	2.0126	81.37	-0.2461	0.0041	0.2503	1383.7675	0.170086	-403.093738	-403.084871	-403.083926	-403.127961	33.029	
C	-0.2014337541	 1.5562523941	 0.0563593032	-0.382157
C	 0.0430897229	 0.0452837532	 0.02886671	-0.169095
C	 0.6835106476	-0.4180707926	-1.280397653	-0.149919
N	 0.8111481984	-1.8829526769	-1.3014976576	-0.096594
C	 1.9889929325	-2.5325363307	-0.5775820867	-0.143276
C	 1.7354724094	-3.7537726514	-1.4996653541	-0.222062
C	 1.6003013853	-2.5236511461	-2.4344682013	-0.140885
C	 2.8570720521	-1.947265068	-1.7247569829	 0.418399
O	 3.8013563515	-1.2482685202	-1.9169410893	-0.319548
H	 0.733997482	 2.1137002013	-0.062455635	 0.121272
H	-0.8746666996	 1.8636749759	-0.7515245318	 0.116361
H	-0.6551288118	 1.8653141195	 1.0025649757	 0.116034
H	 0.6923115439	-0.23686924	 0.8675367624	 0.099078
H	-0.8988238494	-0.4964734791	 0.1706414077	 0.107797
H	 0.0331163047	-0.1515508783	-2.1230060217	 0.10462
H	 1.6403411138	 0.1071251138	-1.4353065772	 0.110336
H	 2.0984731874	-2.500588947	 0.5044853547	 0.100989
H	 2.5661879099	-4.4381650856	-1.6756436834	 0.112701
H	 0.7857169748	-4.2525922185	-1.3032830614	 0.116711
H	 1.2659226986	-2.4756962935	-3.4693739682	 0.099239
67.1814	82.856	126.1096	160.1176	239.37	311.5582	341.104	376.7863	441.7392	559.3007	638.6362	742.3207	759.4357	797.4821	817.0104	855.0693	898.5826	907.9014	913.4331	957.2949	1011.1298	1013.9718	1050.9727	1101.2888	1112.325	1142.2225	1157.0013	1172.161	1188.6671	1210.4246	1215.7139	1247.6034	1280.0727	1322.044	1340.6961	1410.5172	1417.0535	1478.0225	1489.6956	1499.4347	1500.3967	1514.1712	1902.1121	2972.2035	3026.1983	3032.5292	3044.5181	3069.0485	3082.5191	3100.4216	3107.6747	3141.2988	3147.965	3163.6921
CCCN1C2CC1C2=O	CCCN1[C@H]2C[C@@H]1C2=O	
InChI=1S/C7H11NO/c1-2-3-8-5-4-6(8)7(5)9/h5-6H,2-4H2,1H3	InChI=1S/C7H11NO/c1-2-3-8-5-4-6(8)7(5)9/h5-6H,2-4H2,1H3/t5-,6+
