16
gdb 69185	1.98487	1.7291	1.16611	5.3351	74.91	-0.263	-0.033	0.23	1086.922	0.12353	-400.759048	-400.750799	-400.749855	-400.792006	30.632	
C	 0.0090666957	 1.5296440707	 0.0268985692	-0.49917
C	 0.0228534815	 0.0300415938	 0.0092792309	 0.347904
C	-0.8648796303	-0.8429666226	 0.8158914213	-0.335982
C	 0.6421347166	-0.9515163882	 1.053622413	-0.222726
C	 1.2610498244	-1.7318949394	-0.0479515801	 0.431407
O	 2.0924140949	-2.5831664213	-0.1234229517	-0.29568
C	 0.6074740154	-0.8044212219	-1.1565618041	-0.349008
C	-0.3109013515	-1.3754596449	-2.1229215841	 0.283872
N	-1.0632921034	-1.8452193957	-2.8653669506	-0.330449
H	 0.9876735943	 1.9425780955	-0.2394721516	 0.131775
H	-0.7255240775	 1.9181099953	-0.6870974285	 0.145997
H	-0.2605525973	 1.9052182446	 1.0184511222	 0.133144
H	-1.3896213848	-0.3566048337	 1.6320223528	 0.136355
H	-1.4103044739	-1.6654897144	 0.3634967631	 0.151268
H	 1.0758849961	-0.763611383	 2.027793161	 0.12362
H	 1.4237298696	-0.2859902947	-1.6704207828	 0.147673
93.2822	121.0782	157.5849	218.4714	267.388	349.6902	387.198	409.1519	522.0132	550.3806	579.8777	643.5578	728.7748	770.2461	839.3624	921.2681	934.06	990.0727	997.7312	1040.4615	1045.8711	1076.4186	1107.8757	1111.5	1137.0445	1230.5381	1270.7514	1303.1124	1398.9389	1428.8773	1485.142	1496.6321	1505.0603	1900.7083	2349.4097	3033.0289	3069.9927	3096.7982	3110.8944	3127.67	3201.2541	3214.3035
CC12CC1C(=O)C2C#N	C[C@]12C[C@H]1C(=O)[C@H]2C#N	
InChI=1S/C7H7NO/c1-7-2-4(7)6(9)5(7)3-8/h4-5H,2H2,1H3	InChI=1S/C7H7NO/c1-7-2-4(7)6(9)5(7)3-8/h4-5H,2H2,1H3/t4-,5+,7-/m0/s1
