19
gdb 78865	2.7152	1.81976	1.36817	2.0096	78.61	-0.2547	0.0957	0.3504	994.0596	0.159657	-385.818493	-385.811098	-385.810154	-385.849917	30.198	
C	 0.1584427885	 1.6178471964	 0.1073581899	-0.423865
C	 0.1601997163	 0.0970314845	 0.0230006726	 0.03015
C	 0.8355978439	-0.6380916994	-1.142530334	-0.088842
C	 1.2506396767	-1.7789983148	-0.2574102341	-0.083305
C	 2.319650927	-0.8353838256	-0.7880547426	-0.185025
C	 2.5075299309	-0.2923975373	 0.6007422395	 0.526541
C	 3.7041933141	-0.3192923983	 1.4336059293	-0.292176
O	 3.1203078767	 0.9238336149	 0.9920935067	-0.289804
C	 1.0898602174	-0.7581761147	 0.9455176392	-0.199478
H	 1.1621209875	 2.0330953193	-0.0046715436	 0.144575
H	-0.4786954119	 2.0420830171	-0.6769098246	 0.107466
H	-0.2379421496	 1.9548509862	 1.071725663	 0.111595
H	-0.8609849577	-0.289527757	 0.1202739703	 0.070033
H	 0.5151123406	-0.684498893	-2.1762501129	 0.085497
H	 1.1572224271	-2.8512065354	-0.3336270145	 0.096503
H	 3.0674737843	-1.0338521408	-1.5441326243	 0.0921
H	 3.6247044597	-0.5161633129	 2.5024067014	 0.113008
H	 4.6713692455	-0.557887124	 0.9920737405	 0.113591
H	 0.8088637531	-0.9904927553	 1.9706886181	 0.071436
156.5125	187.2845	220.1855	284.9428	314.8293	364.4833	488.3004	574.72	634.6063	698.408	774.3953	789.2157	807.3662	842.6598	864.1847	888.04	902.357	913.9408	977.8883	990.4312	1017.7379	1025.4355	1040.6876	1073.2516	1106.7456	1116.5368	1134.2701	1142.1982	1154.0937	1168.3861	1196.8987	1205.0629	1271.6848	1295.5372	1349.5865	1385.0817	1416.5142	1459.6549	1496.1469	1500.3468	1547.4442	3031.2367	3039.7788	3076.2721	3089.6309	3133.2723	3138.7758	3160.6631	3187.3337	3207.7359	3238.4494
CC1C2C3C2C2(CO2)C13	C[C@H]1[C@@H]2[C@H]3[C@@H]2[C@]2(CO2)[C@@H]13	
InChI=1S/C8H10O/c1-3-4-5-6(3)8(2-9-8)7(4)5/h3-7H,2H2,1H3	InChI=1S/C8H10O/c1-3-4-5-6(3)8(2-9-8)7(4)5/h3-7H,2H2,1H3/t3-,4+,5+,6-,7+,8-/m0/s1
