16
gdb 7124	4.29176	0.97862	0.82168	4.4932	63.07	-0.2478	-0.0313	0.2166	1346.2314	0.12591	-420.884191	-420.874684	-420.87374	-420.920672	30.814	
C	-0.5422378582	 1.2198730525	 0.6704804172	-0.23064
O	-0.7887940167	-0.1686008912	 0.6108756574	-0.232419
C	-0.7011137197	-0.6887966881	-0.6893910452	-0.152127
C	-1.0352491881	-2.1788034017	-0.7030811268	 0.33725
O	-0.8188951922	-2.8379358348	-1.6925040448	-0.294818
C	-1.6637340587	-2.7607434733	 0.5528800592	-0.381713
C	-1.9158679155	-4.2505105221	 0.4420976037	 0.168796
O	-2.9560572309	-4.7752376911	 0.7427307445	-0.240228
H	-0.6377264956	 1.5213597233	 1.7156323922	 0.136778
H	 0.4701258907	 1.4668052221	 0.3168382301	 0.114428
H	-1.2676167842	 1.7851213947	 0.0657955032	 0.114036
H	-1.4080408631	-0.1878610045	-1.3745885456	 0.124707
H	 0.3041605874	-0.561831312	-1.1219306723	 0.126252
H	-0.9845677735	-2.5623477255	 1.3940549245	 0.159159
H	-2.5938911411	-2.2349727794	 0.7921088972	 0.154526
H	-1.0517922106	-4.8417725989	 0.0750660454	 0.096014
40.9049	45.1765	64.6588	93.4867	140.0068	228.0507	249.8016	330.3698	424.4242	480.3123	508.1509	602.2999	733.8182	840.8792	913.0889	1007.6432	1045.5357	1078.4514	1122.6726	1174.0573	1180.8945	1193.2556	1232.3807	1250.2463	1322.3098	1382.2809	1409.9368	1430.1482	1467.8639	1486.5134	1489.707	1513.4733	1809.3946	1838.4917	2922.3985	2955.1204	2981.0708	2999.6832	3030.0553	3032.8939	3091.6961	3124.6394
COCC(=O)CC=O	COCC(=O)CC=O	
InChI=1S/C5H8O3/c1-8-4-5(7)2-3-6/h3H,2,4H2,1H3	InChI=1S/C5H8O3/c1-8-4-5(7)2-3-6/h3H,2,4H2,1H3
