14
gdb 18778	4.11001	2.46044	2.14314	0.88	58.91	-0.2346	0.0739	0.3085	666.4419	0.107802	-382.442301	-382.436761	-382.435817	-382.471542	23.234	
O	-0.0478027914	 1.3137983917	 0.0627596929	-0.465894
C	 0.044823242	-0.0557408473	 0.0468169603	 0.407365
C	-0.1454419427	-0.933851674	-1.2013942577	-0.183846
C	-1.076991565	-1.0536921076	-0.0026244847	-0.168186
C	-0.0740943964	-2.10368573	 0.5660254102	-0.090143
C	 0.7467524176	-2.1221180732	-0.7666259	 0.075135
O	 1.9270026817	-1.5767022759	-0.1246944613	-0.298457
C	 1.0050087966	-1.0001847369	 0.8286374498	-0.01465
H	 0.6785185368	 1.674261963	-0.4593960348	 0.291039
H	-0.3376066347	-0.5074317439	-2.17676124	 0.093579
H	-2.1477371643	-0.9387273606	 0.0737355154	 0.101684
H	-0.2748335772	-2.9548386823	 1.2109424601	 0.084139
H	 0.9475632191	-2.9677978822	-1.42284828	 0.082512
H	 1.4480759979	-0.7066609807	 1.7792289098	 0.085722
264.3283	308.2953	358.1762	536.6532	577.9849	636.3299	732.1568	774.5735	806.5364	822.1403	829.5145	853.6365	885.0261	888.5079	919.9032	936.3325	957.4856	997.0941	1061.1533	1092.1496	1115.0901	1146.7933	1167.7689	1187.4749	1207.7157	1247.9283	1284.3926	1294.9282	1321.3893	1460.5356	3129.3975	3135.4757	3157.6662	3208.8894	3232.8676	3783.1292
OC12C3C1C1C3OC21	O[C@]12[C@@H]3[C@H]1[C@H]1[C@@H]3O[C@@H]21	
InChI=1S/C6H6O2/c7-6-2-1-4(3(2)6)8-5(1)6/h1-5,7H	InChI=1S/C6H6O2/c7-6-2-1-4(3(2)6)8-5(1)6/h1-5,7H/t1-,2+,3+,4-,5+,6-/m0/s1
