23
gdb 113088	4.66568	0.75578	0.69713	1.3498	88.53	-0.2333	0.0279	0.2612	1699.1655	0.205715	-388.303993	-388.294073	-388.293129	-388.339326	36.819	
C	-0.0297875732	 1.5679451776	 0.1683917474	-0.386768
C	-0.0159234142	 0.0437055723	 0.0206238784	-0.175951
C	 0.656341976	-0.456864865	-1.2687567868	-0.006102
C	 0.7852855396	-2.0034906285	-1.3363818698	-0.2676
C	 0.5645857995	-2.3967781829	-2.8189084305	-0.015937
C	-0.2140523182	-3.698322724	-2.9895208833	-0.08502
O	-0.3068268836	-3.975889365	-4.379912846	-0.423939
C	-0.1352116034	-1.1803884881	-3.3823654242	-0.071098
C	-0.0855890576	-0.141198106	-2.5517680643	-0.080029
H	 0.9873361835	 1.9756585873	 0.1522847992	 0.113511
H	-0.5907691329	 2.0488140751	-0.6396339378	 0.117519
H	-0.4928366874	 1.8689489283	 1.1133879452	 0.111066
H	 0.5084626463	-0.395955772	 0.879274745	 0.092249
H	-1.0428301238	-0.3434114562	 0.0577988502	 0.092583
H	 1.6580014531	 0.0009048289	-1.3145497001	 0.072105
H	 1.7368189401	-2.3651716749	-0.9376280155	 0.095374
H	-0.0098179866	-2.4496648552	-0.7241297917	 0.093431
H	 1.5262481791	-2.537860101	-3.3343412136	 0.084463
H	 0.3037993536	-4.5117773328	-2.4550291202	 0.082474
H	-1.2126745254	-3.5870849201	-2.5363857644	 0.082818
H	-0.847277827	-4.7625145956	-4.4957155078	 0.286093
H	-0.5855727478	-1.1883772493	-4.3679976293	 0.100852
H	-0.4913019397	 0.8425318673	-2.7633031399	 0.087907
42.5009	97.5693	114.8203	195.6437	210.3059	233.3878	254.3506	266.9922	321.738	403.5394	476.5987	555.1376	609.5866	731.2147	770.793	793.3014	851.1603	860.0862	918.3848	958.9469	982.4512	986.5363	1004.3097	1059.8272	1063.6343	1077.9454	1113.3667	1129.4519	1137.7128	1147.1743	1198.4591	1240.2126	1248.792	1274.5982	1285.2914	1309.9367	1327.4701	1334.1022	1357.7642	1375.5384	1395.7299	1411.8793	1452.7743	1484.6377	1488.8166	1499.5834	1506.9347	1519.8215	1683.6496	2957.3168	2964.4852	2982.2345	3001.5651	3011.7807	3023.2489	3031.4208	3046.4815	3089.7741	3097.1863	3102.3352	3181.3533	3212.5853	3832.2883
CCC1CC(CO)C=C1	CC[C@H]1C[C@@H](CO)C=C1	
InChI=1S/C8H14O/c1-2-7-3-4-8(5-7)6-9/h3-4,7-9H,2,5-6H2,1H3	InChI=1S/C8H14O/c1-2-7-3-4-8(5-7)6-9/h3-4,7-9H,2,5-6H2,1H3/t7-,8+/m1/s1
