16
gdb 32652	2.10284	1.76849	1.03359	3.9521	78.01	-0.248	-0.0327	0.2153	1127.0478	0.126451	-396.989224	-396.981035	-396.980091	-397.022689	29.381	
C	-0.0089631783	 1.5426963153	-0.0926774345	-0.383963
C	-0.0291819411	 0.0169732387	 0.0090757425	-0.169432
N	-1.381604898	-0.5364629017	 0.0132536328	-0.063009
C	-2.0898780707	-0.9602174082	 1.0887065533	 0.015144
N	-3.3052135563	-1.3705133788	 0.775221843	-0.261751
C	-3.4009649778	-1.2047979205	-0.5720941932	-0.157222
C	-2.2236383051	-0.686934016	-1.0805036279	 0.17585
C	-1.8355159585	-0.3540542949	-2.3935481127	 0.218833
N	-1.5008047565	-0.0730062279	-3.4678345102	-0.359341
H	 1.024714232	 1.899380434	-0.0669151497	 0.133037
H	-0.4608073915	 1.8789339803	-1.0292409621	 0.155261
H	-0.5529594615	 1.9970739987	 0.7402301862	 0.133272
H	 0.5171494729	-0.431534541	-0.8256451268	 0.149516
H	 0.4516059993	-0.318311129	 0.9320061583	 0.131518
H	-1.6655264908	-0.9530542057	 2.0823089683	 0.142926
H	-4.2918315382	-1.4630179532	-1.1237150974	 0.13936
56.9845	128.0901	146.8812	171.5229	227.6069	345.6268	386.2076	519.4774	545.9296	604.6325	664.5427	682.4488	694.1663	796.8608	841.5404	878.2854	933.8663	971.6753	1097.128	1120.3863	1161.3904	1200.6536	1252.0309	1288.4317	1314.4839	1385.1061	1391.9052	1414.9075	1419.3098	1477.2459	1491.4028	1500.4697	1511.5661	1563.484	2334.1627	3048.6049	3064.0862	3104.9389	3124.5586	3135.6874	3247.8021	3259.5327
CCN1C=NC=C1C#N	CCn1cncc1C#N	
InChI=1S/C6H7N3/c1-2-9-5-8-4-6(9)3-7/h4-5H,2H2,1H3	InChI=1S/C6H7N3/c1-2-9-5-8-4-6(9)3-7/h4-5H,2H2,1H3
