17
gdb 64864	2.66932	1.27878	1.02621	1.9253	74.99	-0.2465	-0.0311	0.2154	1192.4255	0.132035	-421.782941	-421.773587	-421.772643	-421.817817	33.721	
C	-0.3621783902	 1.6986917002	 0.1539823827	-0.459425
C	 0.1484319683	 0.2758059172	-0.0091324213	 0.341023
C	 0.8498992338	-0.1097842818	-1.3246151186	-0.350735
C	 2.0786549618	-0.4121792813	-0.4251045952	-0.053717
O	 1.3606761221	 0.036552243	 0.7620321811	-0.327608
C	 2.5153537544	-1.7951972035	-0.3431329814	 0.343697
C	 2.8761916877	-2.9401437262	-0.2852806003	-0.450883
C	-0.9061916585	-0.7203791998	 0.4577878136	 0.127801
O	-1.6033018979	-1.373808669	-0.2725084557	-0.24642
H	 0.4261067012	 2.4110556926	-0.1049730737	 0.131308
H	-1.226278745	 1.8715104268	-0.4959134174	 0.137806
H	-0.6640670619	 1.8849926547	 1.1900489739	 0.133982
H	 0.411897586	-0.964900671	-1.8370540355	 0.145767
H	 1.0000696673	 0.7138722258	-2.0231374123	 0.115496
H	 2.9394020158	 0.2409108067	-0.6086980275	 0.111824
H	 3.1935319894	-3.9524123199	-0.2312433658	 0.20687
H	-0.9689287346	-0.7969979944	 1.5666624235	 0.093217
40.3789	68.0734	142.8997	215.0719	217.4844	255.0859	299.0511	321.8119	384.5816	481.2762	519.8159	599.8674	626.2987	676.9676	695.023	791.2535	868.8702	899.4488	933.7624	973.4643	978.5108	994.3152	1050.2272	1107.8976	1140.2557	1214.9882	1254.9886	1261.4261	1295.9471	1364.7778	1397.0438	1404.6737	1479.6657	1487.8358	1493.5522	1834.6221	2236.5514	2888.2158	3034.4486	3038.0188	3095.3969	3108.8455	3117.9655	3163.0251	3502.8708
CC1(CC(O1)C#C)C=O	C[C@]1(C[C@@H](O1)C#C)C=O	
InChI=1S/C7H8O2/c1-3-6-4-7(2,5-8)9-6/h1,5-6H,4H2,2H3	InChI=1S/C7H8O2/c1-3-6-4-7(2,5-8)9-6/h1,5-6H,4H2,2H3/t6-,7-/m0/s1
