15
gdb 73904	2.79564	1.29779	0.89613	2.6716	76.45	-0.236	-0.0553	0.1807	1217.428	0.11236	-416.878596	-416.87011	-416.869166	-416.911883	30.677	
C	-0.0022398759	 1.5109309852	 0.0818701048	-0.508827
C	 0.0124019639	 0.0238238879	 0.0187077235	 0.172797
C	-0.0054498914	-0.7571307425	-1.0809728717	 0.204027
N	 0.0179435321	-2.1273198562	-0.7486754767	-0.40435
C	 0.0524568923	-2.3114816686	 0.6228330658	 0.415871
O	 0.0776299818	-3.37044181	 1.1988889264	-0.357194
C	 0.0511604435	-0.8909437871	 1.2157421188	-0.435051
C	-0.0425547575	-0.3452908746	-2.43827967	 0.220861
N	-0.0727547587	-0.0195687071	-3.5494605108	-0.336602
H	 0.8866573617	 1.8925383857	 0.5993786347	 0.141403
H	-0.0321301819	 1.9530241634	-0.9170387438	 0.152729
H	-0.8721478021	 1.8732900414	 0.6435655006	 0.14137
H	 0.0096713708	-2.8852752851	-1.4114363655	 0.275593
H	 0.9431927764	-0.747095712	 1.8368176025	 0.158688
H	-0.8128688451	-0.7662897802	 1.8791096413	 0.158686
97.082	137.8263	152.5686	169.7661	253.2878	275.8392	405.9487	441.2606	454.4583	532.2088	561.9387	565.2173	617.1561	682.3671	798.8461	872.1643	915.7843	962.2015	1054.167	1098.757	1154.0117	1197.8341	1219.2524	1275.9613	1318.0035	1415.0713	1424.0777	1430.2681	1474.8151	1483.7321	1687.9653	1850.2786	2341.8898	3021.4294	3045.4402	3068.0966	3078.5072	3121.8785	3662.8982
CC1=C(NC(=O)C1)C#N	CC1=C(NC(=O)C1)C#N	
InChI=1S/C6H6N2O/c1-4-2-6(9)8-5(4)3-7/h2H2,1H3,(H,8,9)	InChI=1S/C6H6N2O/c1-4-2-6(9)8-5(4)3-7/h2H2,1H3,(H,8,9)
