15
gdb 30009	3.31254	1.61489	1.13582	2.2965	72.61	-0.1993	-0.0209	0.1784	1009.0207	0.115825	-416.832459	-416.825529	-416.824585	-416.863779	27.214	
O	 0.1905445301	 1.4293944712	-0.2135941382	-0.419909
C	 0.0292172863	 0.0280155079	-0.0530230605	-0.058584
C	 0.6135709063	-0.5472452669	 1.2512305067	-0.142314
C	-0.2847447246	-1.2964383478	 1.9159343723	-0.186245
C	-1.5439936357	-1.2804281205	 1.1567463372	 0.271313
C	-1.3789714609	-0.4942608913	 0.0488825642	 0.258909
N	-2.5690765676	-0.553273334	-0.6227705243	-0.382976
C	-3.3934439684	-1.3588741417	 0.1315699511	-0.018091
N	-2.8000363585	-1.8227716404	 1.2159820751	-0.344992
H	-0.1840835061	 1.8472667408	 0.5703531345	 0.28661
H	 0.5527535819	-0.4160293163	-0.9102998927	 0.116421
H	 1.633395834	-0.3351749714	 1.5436322342	 0.105762
H	-0.1217807701	-1.8206709014	 2.8486536335	 0.112281
H	-2.82184986	-0.0758323547	-1.4720405856	 0.271834
H	-4.4136076965	-1.5560751436	-0.1623175974	 0.129982
117.3936	171.5469	290.8884	349.6438	365.6393	494.4156	530.5356	560.4454	638.5796	669.4905	705.3322	722.3219	780.3248	788.537	849.2362	948.5766	961.881	967.9946	1050.2079	1070.4839	1100.8631	1163.3329	1208.6341	1242.8361	1262.3021	1304.6395	1368.946	1408.6088	1426.7534	1437.3476	1506.2468	1562.8147	1622.3014	3029.9051	3212.8269	3235.5732	3252.9385	3662.1829	3798.5589
OC1C=CC2=C1NC=N2	O[C@H]1C=Cc2c1[nH]cn2	
InChI=1S/C6H6N2O/c9-5-2-1-4-6(5)8-3-7-4/h1-3,5,9H,(H,7,8)	InChI=1S/C6H6N2O/c9-5-2-1-4-6(5)8-3-7-4/h1-3,5,9H,(H,7,8)/t5-/m0/s1
