23
gdb 76683	3.06164	0.96604	0.87845	1.5455	85.93	-0.2445	0.0708	0.3153	1459.1386	0.204934	-388.260367	-388.250334	-388.24939	-388.295674	37.532	
C	-0.0517873255	 1.5022678467	-0.1842091318	-0.414146
C	 0.1252610139	 0.0055318918	-0.0399135466	-0.07651
C	 1.5076491137	-0.6137114846	 0.0289760227	 0.076789
O	 2.6331613058	 0.2203942086	 0.0957993723	-0.412873
C	 0.6236919609	-0.6372741564	 1.2463243308	-0.029153
C	 0.9766142973	 0.162558884	 2.4884251035	-0.235657
C	 1.7632612464	-0.6557293046	 3.4952126339	 0.032939
C	 3.246184956	-0.85394735	 3.3084396589	-0.252417
C	 2.735044361	 0.0178812541	 4.4303800424	-0.281646
H	 0.7931963737	 2.0510152116	 0.2372164038	 0.12733
H	-0.13580945	 1.7825329632	-1.24064357	 0.108347
H	-0.961848687	 1.8470599293	 0.3183724678	 0.118928
H	-0.6120708647	-0.5785772177	-0.5860374656	 0.078537
H	 1.6806090219	-1.5510525191	-0.4993991815	 0.079717
H	 2.7832656333	 0.5924643057	-0.7795299633	 0.288954
H	 0.1850456845	-1.6075753577	 1.4693577331	 0.078257
H	 1.5664093357	 1.039813738	 2.2090664832	 0.107598
H	 0.0563632767	 0.536415727	 2.9578221445	 0.090339
H	 1.2184014845	-1.5023556162	 3.9076178185	 0.072866
H	 3.676697994	-1.8162197802	 3.5640648518	 0.10093
H	 3.7015420292	-0.3719170999	 2.4503353022	 0.131209
H	 2.8633009197	 1.0918214619	 4.3385111369	 0.105987
H	 2.8155424389	-0.3502368655	 5.4476026026	 0.103674
62.9074	76.3515	113.0735	156.4504	203.2391	207.0233	273.8769	303.4522	353.1996	386.2288	471.5523	565.6861	586.7431	761.8627	778.7695	787.4136	809.7071	837.2753	881.9861	906.9837	951.7612	962.0515	999.6227	1016.9432	1055.5973	1069.6061	1078.9648	1098.3694	1119.6319	1139.9144	1150.5493	1180.0541	1195.4546	1199.1652	1229.1945	1251.4222	1275.8556	1297.5904	1318.9451	1380.4368	1387.418	1412.3329	1423.6728	1458.0068	1472.3049	1480.3525	1499.9127	1505.9328	1509.7183	3013.2736	3030.6072	3083.6716	3087.897	3094.0042	3116.0011	3123.1931	3126.2338	3127.5522	3135.4006	3137.8429	3205.4675	3224.405	3805.3221
CC1C(O)C1CC1CC1	C[C@H]1[C@@H](O)[C@H]1CC1CC1	
InChI=1S/C8H14O/c1-5-7(8(5)9)4-6-2-3-6/h5-9H,2-4H2,1H3	InChI=1S/C8H14O/c1-5-7(8(5)9)4-6-2-3-6/h5-9H,2-4H2,1H3/t5-,7+,8-/m1/s1
