21
gdb 95426	2.5588	1.19185	0.84466	3.5056	87.67	-0.2454	-0.0473	0.1981	1384.7429	0.183148	-387.138295	-387.129447	-387.128503	-387.171803	33.744	
C	-0.0149502921	 1.5703539037	 0.0161631486	-0.402238
C	 0.0255260121	 0.0403865153	 0.0014408124	 0.023026
C	 0.6783907215	-0.5057563349	-1.2786068897	-0.196267
C	 0.6158581445	-2.0396622323	-1.3386787115	-0.27448
C	 0.93886649	-2.67557719	-0.0195771287	-0.112126
C	 1.0094914793	-1.9985778884	 1.1366895834	 0.207647
C	 0.7535694464	-0.5159181222	 1.2360965432	-0.295666
C	 1.3423555549	-2.738012536	 2.3664318637	 0.090183
O	 1.4216642125	-2.2406759741	 3.4677775434	-0.278614
H	 0.9966538951	 1.989619211	-0.0404391914	 0.114107
H	-0.5855956549	 1.9611116123	-0.8329377393	 0.109939
H	-0.4782994789	 1.9464816326	 0.9342559242	 0.115743
H	-1.0096733429	-0.3308111127	 0.0306732385	 0.073831
H	 0.1985943094	-0.0778383012	-2.1657099943	 0.094637
H	 1.7283805616	-0.1841855734	-1.3051138302	 0.100089
H	-0.3873375871	-2.3705635853	-1.6488941787	 0.120929
H	 1.2936463716	-2.4267389947	-2.1103924771	 0.113692
H	 1.1157839805	-3.7505986095	-0.0108016214	 0.096656
H	 1.7116395166	 0.0068013342	 1.3725359913	 0.113312
H	 0.1869615189	-0.3136520253	 2.1515675483	 0.122964
H	 1.5225943708	-3.826926329	 2.2131110553	 0.062633
90.1878	132.5519	178.8123	197.3237	241.9446	316.631	318.9712	402.5345	421.0352	437.5539	476.6336	576.6611	695.8522	777.2315	842.2485	861.2032	885.7039	922.7417	955.7095	965.3514	991.4876	1038.0967	1059.8671	1091.9645	1118.4206	1155.3294	1173.9805	1191.8924	1247.5	1278.9614	1307.0163	1329.5903	1366.0779	1373.1462	1391.3859	1401.1697	1413.8434	1429.2452	1464.5834	1473.1325	1493.6268	1499.1144	1500.3744	1705.2864	1788.134	2866.074	2991.2704	2995.5408	3009.3819	3019.0977	3026.3799	3040.8639	3066.8435	3069.477	3092.1909	3099.6049	3135.7322
CC1CCC=C(C1)C=O	C[C@H]1CCC=C(C1)C=O	
InChI=1S/C8H12O/c1-7-3-2-4-8(5-7)6-9/h4,6-7H,2-3,5H2,1H3	InChI=1S/C8H12O/c1-7-3-2-4-8(5-7)6-9/h4,6-7H,2-3,5H2,1H3/t7-/m0/s1
