18
gdb 58155	3.40428	0.74426	0.6309	6.4698	87.3	-0.2755	-0.0339	0.2416	1725.0946	0.14516	-401.941582	-401.93124	-401.930296	-401.977446	36.569	
C	 0.0358894852	 1.5595372641	 0.0927024297	-0.421992
C	 0.0063752042	 0.0324269642	 0.0398622863	 0.149481
O	 0.713854549	-0.5332747584	 1.1297769467	-0.418795
C	-1.4415160838	-0.5390310286	-0.032379062	-0.216378
C	-2.2318484406	-0.0499844989	-1.2657979395	-0.401935
C	-1.4086749202	-1.9960746589	-0.0010600363	 0.129209
C	-1.4014566398	-3.2045438628	-0.0121167178	 0.039043
C	-1.3914916253	-4.5693246354	-0.0205456388	 0.200683
N	-1.3876598231	-5.7312962125	-0.0296923213	-0.340848
H	 1.0683486614	 1.8923169742	 0.225731024	 0.136515
H	-0.3550260869	 2.0146647923	-0.8207263029	 0.128829
H	-0.5561292078	 1.9341382903	 0.9377541397	 0.111731
H	 0.5451720765	-0.313295511	-0.8499946217	 0.107233
H	 0.3477907724	-0.1757104864	 1.9467815911	 0.281102
H	-1.9672952587	-0.1988242916	 0.8733042411	 0.109675
H	-2.385796033	 1.0304485611	-1.2231510225	 0.129462
H	-1.6950507407	-0.2908916812	-2.1882145729	 0.137138
H	-3.2110329288	-0.5321204508	-1.3095044129	 0.139848
56.3388	67.2166	115.0488	190.7405	204.2742	223.8801	269.5179	280.4214	297.806	344.2498	401.1139	450.4718	498.6694	540.9019	579.4675	594.0223	716.4981	816.7691	921.9525	963.5775	1017.7743	1073.8297	1082.4803	1114.3272	1151.3099	1187.4368	1254.518	1318.6837	1326.2892	1367.9699	1402.1426	1409.8537	1422.7365	1490.524	1491.3452	1496.5974	1504.9342	2263.0388	2399.2662	2988.9551	3026.9648	3050.1398	3052.8649	3105.1872	3125.0477	3128.3087	3135.7454	3796.4553
CC(O)C(C)C#CC#N	C[C@@H](O)[C@@H](C)C#CC#N	
InChI=1S/C7H9NO/c1-6(7(2)9)4-3-5-8/h6-7,9H,1-2H3	InChI=1S/C7H9NO/c1-6(7(2)9)4-3-5-8/h6-7,9H,1-2H3/t6-,7+/m0/s1
