25
gdb 95578	2.15605	1.49974	1.07792	0.2493	93.3	-0.2334	0.0232	0.2566	1268.4382	0.230436	-352.377697	-352.368196	-352.367252	-352.411353	37.573	
C	-0.1122322469	 1.5407777113	-0.0298226619	-0.409075
C	 0.0601322815	 0.0134518951	-0.0107595969	 0.038867
C	 0.626598787	-0.4684563865	-1.3603914014	-0.178939
C	 0.5530464657	-1.9865890467	-1.6144626289	-0.259387
C	 1.5117764452	-2.8257663425	-0.8040983563	-0.050786
C	 1.6084856699	-2.8217418679	 0.5252806699	-0.043203
C	 0.7706152545	-1.9851531254	 1.4641362489	-0.276396
C	 0.8338939284	-0.4525425063	 1.2510107747	 0.04729
C	 2.2790735915	 0.0611676992	 1.3379675882	-0.399599
H	 0.8368663638	 2.0547005647	-0.2164940074	 0.116226
H	-0.8066290724	 1.8435133318	-0.8206624728	 0.107931
H	-0.508798394	 1.9098915132	 0.92233274	 0.106698
H	-0.9482606782	-0.4196066399	 0.0803277408	 0.061972
H	 0.0556309168	 0.0309133	-2.1537397937	 0.08666
H	 1.663428584	-0.1292510392	-1.4771557609	 0.096408
H	-0.4794569876	-2.3206920017	-1.4280534125	 0.103604
H	 0.7345038482	-2.1690740082	-2.6788912853	 0.094127
H	 2.1673214772	-3.4876326703	-1.3659732535	 0.080859
H	 2.3427833683	-3.4776053132	 0.9877137581	 0.080969
H	-0.2818613804	-2.2973502061	 1.3932647277	 0.100278
H	 1.0766649689	-2.1985211533	 2.4942843238	 0.091745
H	 0.2874208879	-0.0167896041	 2.0998040322	 0.064236
H	 2.9049977687	-0.353228259	 0.5429253701	 0.1232
H	 2.3277977226	 1.1519349842	 1.2765529843	 0.1102
H	 2.7282200893	-0.2328772093	 2.293053693	 0.106118
81.1636	143.6622	202.8037	222.7832	248.4264	269.0201	309.9648	316.3345	343.0084	375.1445	494.0564	516.7654	558.6652	703.0686	708.1754	747.5838	824.8363	860.4106	893.6087	923.5117	947.1934	965.488	996.9067	1000.2903	1025.0867	1036.5363	1063.6109	1091.6641	1107.0851	1136.2816	1174.9316	1214.5057	1247.4606	1267.3862	1279.0816	1302.5486	1333.0633	1350.4264	1361.1358	1368.2357	1387.5175	1399.7506	1412.2219	1415.9882	1426.8605	1478.4326	1481.4409	1485.7001	1493.7782	1499.3198	1507.0693	1510.868	1723.9889	2974.6543	2988.1793	2990.7023	3002.2356	3017.7492	3027.0844	3038.2208	3057.1622	3057.6003	3062.5449	3092.4025	3094.9252	3100.4257	3117.548	3134.2415	3159.3345
CC1CCC=CCC1C	C[C@H]1CCC=CC[C@H]1C	
InChI=1S/C9H16/c1-8-6-4-3-5-7-9(8)2/h3-4,8-9H,5-7H2,1-2H3	InChI=1S/C9H16/c1-8-6-4-3-5-7-9(8)2/h3-4,8-9H,5-7H2,1-2H3/t8-,9+/m1/s1
