17
gdb 113068	2.09585	1.23928	0.88318	0.6949	65.68	-0.2602	-0.0459	0.2143	1305.2394	0.133797	-496.079118	-496.069764	-496.06882	-496.114384	32.931	
O	-0.1104789179	 1.1819149028	-0.7356114695	-0.411818
C	-0.0251204078	-0.1462632949	-0.2643883534	-0.070099
C	-1.3911703338	-0.6419504766	 0.1928670261	-0.011249
O	-2.3505405682	-0.6619241524	-0.9032670267	-0.337637
C	-2.6022083551	-2.0924601499	-0.7913261821	-0.011247
C	-2.2624258625	-2.8259712313	-2.0825991204	-0.070102
O	-3.0732012808	-2.366651982	-3.143290024	-0.411816
C	-1.5975863362	-2.1522929359	 0.3667458626	 0.317176
O	-1.1490788362	-3.0042433725	 1.0704711402	-0.276312
H	-0.7760857105	 1.1862121244	-1.4334812408	 0.293607
H	 0.3788857689	-0.8249716003	-1.0314921723	 0.095133
H	 0.6659163795	-0.1480019035	 0.5843012099	 0.131336
H	-1.7582385015	-0.0297021365	 1.0264810696	 0.121475
H	-3.6437176301	-2.2880172844	-0.5058162644	 0.121476
H	-1.1913517611	-2.7056348663	-2.3076156946	 0.095135
H	-2.4622197603	-3.8947736467	-1.9578887806	 0.131337
H	-2.9455254863	-1.4122242738	-3.1965677496	 0.293607
50.4501	88.4304	112.3581	135.9505	152.9002	284.4259	319.5093	378.8387	424.5905	430.7525	461.1388	597.5797	621.0546	697.1124	846.2552	857.4038	943.4571	995.5633	1014.5799	1057.6178	1072.4472	1089.3354	1099.7365	1115.9225	1200.7874	1214.5973	1220.5349	1261.812	1298.5266	1337.1718	1385.4342	1399.8222	1415.4385	1423.1923	1490.0078	1496.8868	1917.6127	2982.0841	2987.7478	3034.6376	3039.9832	3088.9923	3090.078	3797.59	3799.5351
OCC1OC(CO)C1=O	OC[C@H]1O[C@@H](CO)C1=O	
InChI=1S/C5H8O4/c6-1-3-5(8)4(2-7)9-3/h3-4,6-7H,1-2H2	InChI=1S/C5H8O4/c6-1-3-5(8)4(2-7)9-3/h3-4,6-7H,1-2H2/t3-,4+
