15
gdb 17603	3.85223	1.65254	1.24839	1.9946	64.04	-0.239	-0.0438	0.1953	949.5403	0.119599	-395.983086	-395.975199	-395.974255	-396.01564	28.671	
N	-0.0854224901	 1.1206483499	 0.6133869408	-0.510945
C	 0.100064657	-0.0856784963	 0.0006724806	 0.257906
N	 1.2462325039	-0.5016272029	-0.3836171996	-0.519296
C	-1.2165979435	-0.8473523994	-0.1325413274	 0.346047
O	-2.2876514124	-0.2905493207	-0.0052064982	-0.347564
N	-1.0885451114	-2.1821473687	-0.4858202292	-0.096063
C	-0.5896563464	-3.2240033234	 0.4041008203	-0.230425
C	-2.0246845725	-3.1814105742	-0.024627427	-0.22063
H	 0.6657863118	 1.7870639327	 0.5374369991	 0.260632
H	-1.0310846036	 1.4694190488	 0.6203445848	 0.270186
H	 1.1587309898	-1.4258019643	-0.8002349115	 0.227462
H	 0.0933054702	-3.9400762901	-0.0433921437	 0.136841
H	-0.3556372509	-2.9391827494	 1.4262114072	 0.145612
H	-2.7683604065	-2.8530664899	 0.6960863755	 0.144997
H	-2.3797417054	-3.8774312822	-0.7784104317	 0.13524
75.9698	95.6398	183.9763	202.6113	319.3921	400.2658	420.1516	500.3847	511.5419	552.1146	624.5615	706.2302	805.9853	821.0684	871.9258	920.3467	966.8765	1049.0538	1105.3016	1132.8306	1136.9188	1147.0486	1165.7959	1178.3121	1189.5276	1382.2743	1442.4438	1496.56	1523.1187	1597.8812	1722.36	1770.1211	3116.0414	3121.4056	3201.9747	3215.6873	3519.7508	3588.6981	3715.595
NC(=N)C(=O)N1CC1	NC(=N)C(=O)N1CC1	
InChI=1S/C4H7N3O/c5-3(6)4(8)7-1-2-7/h1-2H2,(H3,5,6)	InChI=1S/C4H7N3O/c5-3(6)4(8)7-1-2-7/h1-2H2,(H3,5,6)
