16
gdb 51052	2.45594	1.34333	1.02353	5.9285	67.1	-0.2508	-0.0545	0.1963	1163.1954	0.122288	-475.01251	-475.003791	-475.002846	-475.046691	30.624	
O	 0.0105313286	-0.0538609009	 0.002922236	-0.269842
C	 0.0216789382	 1.1352193423	 0.082737326	 0.17136
O	 1.1631257287	 1.8512810934	-0.0859675778	-0.23196
C	 1.0775354569	 3.2619094454	-0.0497280418	 0.287555
C	 0.7966680203	 3.8996808809	 1.3536013284	-0.225107
N	 2.2380583622	 4.1705373083	 1.5151838857	-0.301383
C	 2.4957733618	 3.8800999516	 0.0884690398	-0.210498
C	 0.2310715637	 3.8080839222	-1.1829757563	 0.124603
O	-0.4449728162	 3.1340138693	-1.9118402763	-0.240698
H	-0.8566754574	 1.7572665137	 0.3235935062	 0.089357
H	 0.1507119718	 4.7863879558	 1.2928324246	 0.106435
H	 0.3783361485	 3.2095202098	 2.0934410807	 0.131433
H	 2.4715288279	 5.1084985186	 1.8169595773	 0.229027
H	 3.3029561114	 3.1651461857	-0.0924950919	 0.142705
H	 2.6387524938	 4.7590238871	-0.5542315453	 0.104215
H	 0.2777048998	 4.9156901069	-1.2812096555	 0.092797
71.7117	101.4333	104.2532	162.5634	231.5837	286.9967	319.2702	367.9748	454.9452	474.0074	597.0815	665.7297	850.0013	866.087	900.9749	939.8634	984.2011	998.6464	1033.5049	1051.0974	1100.7334	1124.8033	1141.2236	1173.0141	1197.8329	1278.7085	1283.6821	1358.2486	1385.0171	1415.0286	1435.4334	1489.7642	1512.851	1835.3187	1873.0309	2886.097	2994.8831	3003.3707	3012.955	3070.7812	3092.2809	3551.3059
O=COC1(CNC1)C=O	O=COC1(CNC1)C=O	
InChI=1S/C5H7NO3/c7-3-5(9-4-8)1-6-2-5/h3-4,6H,1-2H2	InChI=1S/C5H7NO3/c7-3-5(9-4-8)1-6-2-5/h3-4,6H,1-2H2
