25
gdb 104195	2.35189	1.23592	1.17414	1.6931	88.08	-0.2377	0.0734	0.3111	1289.9211	0.226444	-389.489999	-389.479289	-389.478345	-389.524787	41.023	
C	 0.0085779046	 1.599640907	 0.121579929	-0.4003
C	-0.1102586553	 0.0868709948	-0.1046159797	-0.223023
C	 0.6764107968	-0.4500439127	-1.3151665298	 0.253015
C	 0.2772536669	 0.268590563	-2.6024121196	-0.474076
C	 2.1897258231	-0.5533695322	-1.0073040649	-0.118718
O	 2.0978817903	-1.9665926774	-0.7597199191	-0.323699
C	 0.7667310328	-2.0318335217	-1.3515250987	 0.371217
C	-0.1775403453	-2.855207152	-0.4844932365	-0.43687
C	 0.8625192152	-2.6510444235	-2.7478940608	-0.42813
H	 1.0557526141	 1.9164834505	 0.1842522739	 0.116542
H	-0.4662262749	 2.1763844259	-0.6772046118	 0.119261
H	-0.4754038943	 1.8828666834	 1.0613046251	 0.114423
H	 0.2437281172	-0.4240909253	 0.7969818875	 0.107913
H	-1.1698938966	-0.1779463627	-0.2142393436	 0.092836
H	 0.5141924549	 1.3351869713	-2.5430664632	 0.119057
H	 0.7985360995	-0.1276038214	-3.4760784532	 0.115552
H	-0.8002956681	 0.1835870038	-2.786617732	 0.11276
H	 2.8442498641	-0.3254805854	-1.8612791466	 0.086265
H	 2.5561068351	-0.0077042204	-0.129555703	 0.095575
H	-0.2251495828	-2.4885976987	 0.5412224467	 0.11927
H	-1.1898356098	-2.8581928786	-0.9030462237	 0.112846
H	 0.1741871277	-3.8916625778	-0.4525173581	 0.120418
H	 1.1437584063	-3.704811574	-2.656737823	 0.118745
H	-0.094547574	-2.5982400749	-3.2777762643	 0.111127
H	 1.6229056328	-2.1585556611	-3.3583848005	 0.117996
81.0364	129.8667	164.9524	191.3484	198.6824	231.6404	260.3383	280.7848	337.1353	350.0995	352.0471	377.9025	390.2852	482.951	512.2508	625.2513	677.3165	799.2344	849.1501	855.1222	906.8651	925.3793	969.7092	981.123	998.1161	1018.7548	1021.4472	1047.9117	1065.41	1156.3607	1158.9306	1180.0348	1194.8843	1230.4162	1265.3562	1281.4007	1320.616	1362.9703	1365.5187	1399.2818	1408.5504	1412.0644	1420.7032	1468.9608	1479.0368	1485.5849	1491.292	1495.7058	1502.5021	1503.4466	1511.7227	1521.4889	1528.8204	2990.6447	3020.9475	3033.5131	3034.8347	3036.5164	3042.1759	3046.7968	3065.8266	3096.437	3098.2341	3099.5114	3107.703	3112.0507	3118.4697	3127.55	3138.5177
CCC1(C)COC1(C)C	CC[C@@]1(C)COC1(C)C	
InChI=1S/C8H16O/c1-5-8(4)6-9-7(8,2)3/h5-6H2,1-4H3	InChI=1S/C8H16O/c1-5-8(4)6-9-7(8,2)3/h5-6H2,1-4H3/t8-/m0/s1
