19
gdb 86604	3.74232	0.98203	0.83371	2.3256	76.75	-0.2435	-0.0258	0.2178	1388.0454	0.158014	-423.013073	-423.004005	-423.00306	-423.04761	33.315	
O	 0.4091800137	 1.4609770669	 0.0752785255	-0.436562
C	 0.1496910743	 0.0915146341	 0.0500523706	 0.072013
C	-1.3134077291	-0.4697522408	 0.1450945651	-0.301433
C	-0.9675017127	-1.5493938967	-0.9411211816	-0.109811
C	-1.9591335235	-1.9121852385	-2.0080771234	 0.027378
C	-1.8102883953	-3.1970976858	-2.783809313	-0.262543
C	-2.9363215015	-3.04421991	-1.7940801771	-0.278398
C	 0.1902563594	-0.6053246155	-1.3111065547	 0.322361
O	 0.6619816729	-0.2371711869	-2.3524626201	-0.313459
H	 0.5518286348	 1.7359110536	-0.8397554108	 0.295187
H	 0.7833797195	-0.420830708	 0.7860983538	 0.105514
H	-1.6342578046	-0.8320567062	 1.1216393383	 0.11463
H	-2.0297129088	 0.2617617849	-0.2370673792	 0.120131
H	-0.575820038	-2.4504856596	-0.4538753845	 0.096693
H	-2.3295413893	-1.0599930675	-2.5714366093	 0.08848
H	-2.0443990846	-3.183381587	-3.8420064785	 0.119094
H	-0.9875173793	-3.8540797715	-2.5218900633	 0.113733
H	-2.8744463442	-3.5979813291	-0.8628988816	 0.111016
H	-3.9455680337	-2.9271162465	-2.1725346161	 0.115976
55.0016	81.4107	125.1345	176.1732	219.5541	279.9336	296.4077	370.6086	398.6412	524.148	622.052	705.5181	767.6626	803.8223	812.6348	839.2556	887.4954	924.3239	963.6996	986.0773	1004.0028	1024.5978	1060.4777	1069.6159	1080.328	1131.7326	1143.9909	1164.1216	1196.5214	1217.1033	1229.7449	1238.2978	1254.8327	1298.3731	1344.737	1409.275	1429.5647	1471.5109	1482.2968	1506.8872	1861.5792	3022.7989	3040.7494	3076.6685	3131.736	3137.0368	3143.4918	3145.9831	3210.4765	3225.9075	3766.0174
OC1CC(C2CC2)C1=O	O[C@H]1C[C@@H](C2CC2)C1=O	
InChI=1S/C7H10O2/c8-6-3-5(7(6)9)4-1-2-4/h4-6,8H,1-3H2	InChI=1S/C7H10O2/c8-6-3-5(7(6)9)4-1-2-4/h4-6,8H,1-3H2/t5-,6-/m0/s1
