20
gdb 22840	2.7422	1.29309	0.98521	0.76	83.79	-0.2331	0.0101	0.2432	1237.56	0.172337	-403.123884	-403.115356	-403.114412	-403.1571	33.17	
O	 0.0358775384	 1.3728699837	 0.0326994858	-0.402813
N	 0.0921431548	-0.032805529	-0.0028834543	-0.176805
C	-1.0654884593	-0.5745228617	-0.0154246879	 0.374589
C	-1.0933811844	-2.0809194636	-0.0362705239	-0.272235
C	-1.6956250628	-2.7319771934	 1.2265922032	-0.184204
C	-3.16612323	-2.3674770789	 1.5147463267	-0.247297
C	-3.3815774399	-0.9565490089	 2.0157943918	-0.043924
C	-3.0383748091	 0.1520370307	 1.3614439163	-0.053534
C	-2.3799752015	 0.1734595584	-0.0057393339	-0.346609
H	 0.9685106454	 1.6078624025	-0.0051557328	 0.304044
H	-1.6792390422	-2.4065131627	-0.9084356038	 0.099335
H	-0.0702227348	-2.4397166623	-0.1775569815	 0.114347
H	-1.6231718739	-3.8190986919	 1.1029438124	 0.095333
H	-1.0814971823	-2.4704501068	 2.0958918232	 0.108958
H	-3.7562417893	-2.5332953376	 0.6002838762	 0.104773
H	-3.5601278959	-3.0711581129	 2.2547190712	 0.100047
H	-3.8513447067	-0.8548657045	 2.9911860222	 0.087057
H	-3.2259584762	 1.1192180435	 1.819073412	 0.094396
H	-2.2147135575	 1.2000648815	-0.3303106979	 0.133048
H	-3.0454800226	-0.3047289658	-0.7382483549	 0.111494
75.1235	95.5934	225.0483	273.8917	317.7702	320.929	358.8886	395.5564	441.7616	492.2459	561.1471	613.0311	693.6141	707.2708	793.6777	855.9701	876.1337	908.6603	950.5982	960.263	986.1493	993.459	1018.5709	1065.7902	1084.6368	1173.3575	1190.4193	1225.8322	1256.5409	1277.9007	1287.8281	1325.2365	1360.5647	1361.7363	1372.6192	1412.035	1415.5233	1471.0427	1477.9156	1484.3707	1489.4121	1716.3008	1730.8844	2991.3673	3002.2047	3010.216	3027.8998	3069.9938	3073.2625	3093.5269	3135.8661	3147.3697	3174.0334	3826.2041
ON=C1CCCC=CC1	ON=C1CCCC=CC1	
InChI=1S/C7H11NO/c9-8-7-5-3-1-2-4-6-7/h1,3,9H,2,4-6H2	InChI=1S/C7H11NO/c9-8-7-5-3-1-2-4-6-7/h1,3,9H,2,4-6H2
