14
gdb 31916	5.67631	0.88318	0.77438	4.041	74.73	-0.2449	-0.0463	0.1986	1367.9258	0.101492	-436.721557	-436.713552	-436.712608	-436.754845	28.606	
O	 0.4004179365	 0.8974924281	-0.6733567386	-0.399037
C	-0.0504524638	 0.0149317426	 0.3325461791	-0.178098
C	-1.4561550526	-0.4375353864	 0.0827324952	 0.304917
C	-2.2383272279	-0.4301630436	-1.0364396407	-0.241142
C	-3.4885058285	-0.9940981732	-0.653625906	-0.253354
C	-3.3778103205	-1.3049593976	 0.6729815877	 0.243832
O	-2.1331703494	-0.9613110812	 1.1324607709	-0.199152
C	-4.2817851992	-1.8797453978	 1.5896044141	 0.220187
N	-5.0398266951	-2.3530444801	 2.3274684867	-0.336453
H	-0.1388047289	 1.6945814592	-0.6307556063	 0.291746
H	 0.6340127765	-0.841528007	 0.3100664359	 0.145777
H	 0.0158684332	 0.4465929856	 1.3427710575	 0.123184
H	-1.9453819154	-0.0754388749	-2.0109286074	 0.136533
H	-4.3598028149	-1.1531039638	-1.2687265081	 0.14106
55.3886	128.9871	150.0458	209.0571	254.1685	347.5758	409.3972	498.5277	569.3707	601.954	637.6632	676.9584	713.3981	821.3638	877.1623	974.2345	980.7862	1000.92	1038.8839	1096.6105	1195.4562	1215.0443	1243.2634	1248.5542	1357.2321	1402.9398	1426.7706	1493.274	1551.0383	1623.8158	2340.8077	2995.7094	3055.9426	3266.6054	3280.2208	3810.6139
OCC1=CC=C(O1)C#N	OCc1ccc(o1)C#N	
InChI=1S/C6H5NO2/c7-3-5-1-2-6(4-8)9-5/h1-2,8H,4H2	InChI=1S/C6H5NO2/c7-3-5-1-2-6(4-8)9-5/h1-2,8H,4H2
