19
gdb 46316	2.93626	1.37437	1.24102	1.5862	75.9	-0.2282	0.0244	0.2526	1092.8621	0.16188	-419.209462	-419.201399	-419.200455	-419.24273	30.595	
N	-0.1364730435	 1.1683058624	-0.4412804709	-0.551936
C	-0.0647759249	-0.0104970193	-0.0163367279	 0.371819
O	 0.9687985574	-0.7042930696	 0.5669194905	-0.258725
C	 0.2051103613	-1.9559898965	 0.5365539788	-0.129221
C	-1.0312653635	-1.1920016458	-0.0100893495	 0.214705
C	-2.2372230888	-1.0517515841	 0.9414544293	-0.268274
C	-3.3686281353	-0.63036598	-0.0039989668	-0.213824
C	-3.0633056465	-1.4805980634	-1.2457014332	-0.157035
N	-1.5893390378	-1.593165169	-1.2976736336	-0.357288
H	 0.7396041663	 1.6751684292	-0.3030844214	 0.228091
H	 0.6457322377	-2.6660821539	-0.1662607294	 0.123214
H	 0.1253748496	-2.3884269472	 1.5372879883	 0.11288
H	-2.4560103088	-2.0283552601	 1.3901597266	 0.105795
H	-2.0472693532	-0.3448233624	 1.7517094221	 0.11647
H	-4.3648924688	-0.8073118585	 0.4100415576	 0.09662
H	-3.2751805886	 0.4342220065	-0.2420067822	 0.126095
H	-3.5061857149	-2.4806077397	-1.1425282903	 0.101518
H	-3.4494205148	-1.0496981183	-2.173346092	 0.105653
H	-1.2135829531	-1.0070526502	-2.0323084862	 0.233444
47.2131	114.8748	164.2949	213.9022	288.3231	326.6013	463.0578	521.7109	586.5347	671.8885	688.7101	764.9458	774.6835	866.0051	886.5085	894.6642	919.8851	927.4219	955.0989	971.5609	1005.2371	1013.6823	1051.415	1126.5799	1148.0595	1166.6319	1185.4569	1220.8676	1236.2895	1254.526	1277.87	1325.2695	1343.9395	1366.5765	1376.0928	1464.9226	1483.5342	1492.8571	1509.7838	1518.8971	1814.1606	3008.5909	3035.7476	3053.2746	3060.8646	3087.1551	3105.2195	3113.9501	3129.0657	3473.7932	3559.1256
N=C1OCC11CCCN1	[NH][C]1OC[C@]21CCCN2	
InChI=1S/C6H10N2O/c7-5-6(4-9-5)2-1-3-8-6/h7-8H,1-4H2	InChI=1S/C6H10N2O/c7-5-6(4-9-5)2-1-3-8-6/h7-8H,1-4H2/t6-/m0/s1
