20
gdb 80434	2.25202	1.72039	1.24931	1.7156	79.06	-0.2356	-0.0266	0.209	1085.0907	0.169015	-403.114647	-403.105559	-403.104615	-403.148045	34.433	
C	-0.3653264103	 1.4392913742	 0.0223291453	-0.440301
C	 0.0129024647	-0.0246845478	 0.0101261639	 0.025369
C	 0.6116039273	-0.7650495728	-1.1155701224	-0.041343
C	 1.629571602	 0.059199968	-1.9025740087	-0.321204
C	 2.396898196	 0.2094402437	-0.5685865626	 0.256729
C	 3.7226213708	-0.5548515767	-0.5219360433	-0.43679
C	 2.6608779168	 1.5947115291	-0.0239467028	 0.115534
O	 2.8105424909	 2.5818774316	-0.6985151507	-0.259312
N	 1.3705559165	-0.5995614226	 0.2081195889	-0.204431
H	 0.2007728004	 2.0476559059	-0.6836514247	 0.149085
H	-1.4253315812	 1.5337366026	-0.2368689318	 0.123662
H	-0.2333263463	 1.8675269801	 1.021969198	 0.128595
H	-0.6791699124	-0.6309549279	 0.5932311327	 0.10001
H	 0.24755189	-1.7396225657	-1.4257996862	 0.096642
H	 2.1811686355	-0.5196160176	-2.6449893503	 0.112062
H	 1.2705388857	 0.979173282	-2.3699549728	 0.121959
H	 4.4532831989	-0.1007180476	-1.1983462988	 0.130005
H	 4.1323396768	-0.5593229861	 0.4933561561	 0.128157
H	 3.5545964652	-1.5937708522	-0.8188130012	 0.130904
H	 2.7478909827	 1.6255393496	 1.0875588114	 0.084669
89.9687	142.344	159.4306	227.6719	245.7023	277.9596	286.508	313.4154	357.0423	454.8257	516.1772	587.7698	678.1972	708.8888	782.5916	826.9081	904.9745	918.057	928.3399	956.9569	977.7171	1000.4822	1021.5757	1076.9846	1102.6583	1125.1404	1134.4152	1164.4995	1207.5458	1250.4018	1272.9436	1291.4238	1357.8761	1395.2335	1407.9928	1416.6492	1442.1756	1481.7515	1489.7233	1493.6956	1502.4189	1507.9715	1822.8957	2861.6514	3035.6597	3039.5739	3072.5042	3094.1244	3110.6034	3114.9733	3120.2981	3124.9403	3148.3134	3158.3128
CC1C2CC(C)(C=O)N12	C[C@H]1[C@H]2C[C@@](C)(C=O)N12	
InChI=1S/C7H11NO/c1-5-6-3-7(2,4-9)8(5)6/h4-6H,3H2,1-2H3	InChI=1S/C7H11NO/c1-5-6-3-7(2,4-9)8(5)6/h4-6H,3H2,1-2H3/t5-,6+,7-,8?/m0/s1
