18
gdb 13464	3.64845	1.12041	1.0483	2.0643	63.71	-0.2394	0.0538	0.2932	1173.192	0.152293	-422.040679	-422.031543	-422.030599	-422.074944	32.946	
O	 0.0696620815	 1.3480737905	 0.0710998233	-0.419254
C	-0.0561985961	-0.058181436	 0.2136554856	-0.056892
C	-1.4117349676	-0.5811556844	-0.2749865222	-0.234217
C	-1.5006426936	-2.0892388495	-0.1825262602	-0.105982
C	-1.8653094132	-2.7561863766	 1.1344709378	 0.103863
O	-2.2091003566	-1.9601333383	 2.2264846151	-0.430764
C	-2.8324448527	-2.8037308462	-0.017103191	 0.010156
O	-4.0015656505	-2.0619527594	 0.2120466862	-0.42818
H	-0.538806932	 1.7592887064	 0.6930484519	 0.281204
H	 0.7512100199	-0.4900450143	-0.3883729296	 0.105917
H	 0.1012804007	-0.3775085138	 1.2538289764	 0.109278
H	-2.2000664754	-0.1258119814	 0.3341542739	 0.087976
H	-1.5659372394	-0.245341716	-1.3081541664	 0.098808
H	-0.7774603372	-2.6268213092	-0.7922607716	 0.087512
H	-1.3436163496	-3.6639789493	 1.4239803135	 0.098619
H	-3.1327635246	-1.7062024754	 2.09217494	 0.297324
H	-2.9937516944	-3.7397351575	-0.5484972366	 0.094872
H	-4.1630318191	-1.4884608897	-0.5441383258	 0.29976
51.3279	94.7119	115.5783	217.8344	251.0645	269.6977	300.4392	307.1277	408.9126	418.2774	532.1598	621.8414	648.7517	762.6843	792.3055	808.0764	928.4466	982.1454	1035.0968	1052.4278	1073.4679	1091.555	1119.0027	1123.4102	1166.402	1197.0738	1236.6488	1284.5087	1296.8643	1316.0825	1347.49	1380.8377	1398.4911	1407.9393	1418.3366	1452.5824	1485.5945	1510.306	3004.6085	3029.3518	3059.7364	3083.8169	3114.0214	3130.2449	3149.1884	3743.4967	3811.9324	3817.1129
OCCC1C(O)C1O	OCC[C@H]1[C@@H](O)[C@H]1O	
InChI=1S/C5H10O3/c6-2-1-3-4(7)5(3)8/h3-8H,1-2H2	InChI=1S/C5H10O3/c6-2-1-3-4(7)5(3)8/h3-8H,1-2H2/t3-,4+,5-
