18
gdb 51738	2.76233	1.14274	0.95305	4.7001	74.46	-0.2496	0.0241	0.2737	1267.8077	0.14732	-439.076398	-439.067806	-439.066862	-439.110533	31.552	
O	 0.1878821122	-0.3984080892	 0.2690104687	-0.31362
C	 0.0469429401	 0.8041070925	 0.2629428105	 0.155311
N	 1.0406910506	 1.7137973105	 0.0429470403	-0.293005
C	 2.4053360928	 1.3505849728	-0.2304715256	-0.029545
C	 3.0961580953	 1.8552934708	-1.5365812026	-0.251895
C	 4.3990120556	 2.106619678	-0.7206901589	-0.322532
C	 3.5419463635	 2.0320240599	 0.5456226481	 0.439774
C	 3.4358325177	 2.9954569308	 1.6439094694	-0.268959
O	 3.984012285	 1.6824698357	 1.8362261718	-0.264055
H	-0.9273694119	 1.3010080598	 0.4414762889	 0.07571
H	 0.7906289206	 2.6905792919	 0.0305263765	 0.24425
H	 2.4653344725	 0.2642756774	-0.1368176439	 0.138965
H	 3.1466559891	 1.1493857545	-2.3662364324	 0.118943
H	 2.649201985	 2.7888354191	-1.8901012197	 0.10178
H	 5.0948961249	 1.265269894	-0.7791936748	 0.125441
H	 4.9441689055	 3.0335230684	-0.9071955247	 0.111568
H	 4.1492742193	 3.8159102271	 1.7131188808	 0.118217
H	 2.4749212723	 3.167470536	 2.1276734173	 0.113652
42.7272	101.577	155.3631	185.4258	249.199	304.9704	348.2062	425.5054	504.9984	534.9258	570.9428	689.7069	770.0768	848.4535	852.7769	895.8532	905.7875	950.9356	964.206	1029.7087	1076.1862	1090.654	1121.3823	1130.4703	1152.1492	1168.6388	1212.7547	1218.3785	1245.2698	1269.8405	1275.4071	1359.4411	1428.002	1432.4933	1478.591	1495.8252	1527.2825	1536.517	1810.8091	2935.7009	3065.6425	3069.1506	3078.5586	3108.6481	3121.3281	3136.0157	3166.4631	3623.0677
O=CNC1CCC11CO1	O=CN[C@H]1CC[C@]21CO2	
InChI=1S/C6H9NO2/c8-4-7-5-1-2-6(5)3-9-6/h4-5H,1-3H2,(H,7,8)	InChI=1S/C6H9NO2/c8-4-7-5-1-2-6(5)3-9-6/h4-5H,1-3H2,(H,7,8)/t5-,6+/m0/s1
