23
gdb 90889	2.31379	1.8809	1.37749	0.2466	87.73	-0.2469	0.0833	0.3302	1065.9052	0.207364	-351.149904	-351.141715	-351.140771	-351.181804	34.061	
C	-0.1761982825	 1.5515537666	-0.0002431022	-0.41893
C	 0.0392842855	 0.0381495367	-0.0010388494	 0.019464
C	 0.8832635149	-0.4873108067	-1.195798178	-0.261384
C	 1.6230801398	-1.6946202449	-0.6241833792	-0.03909
C	 2.5916730407	-1.4717672361	 0.5279610715	-0.063065
C	 2.2869701255	-0.1526107237	 1.2331263505	-0.282879
C	 0.7635146254	-0.5473567773	 1.235714516	 0.334489
C	 0.0309216468	-0.3997236259	 2.5551898239	-0.496643
C	 1.1845165266	-1.9802170556	 0.7840232745	-0.126249
H	 0.7746600846	 2.0918525864	 0.0666350978	 0.114955
H	-0.6725196405	 1.8744541404	-0.9216064754	 0.112074
H	-0.8028993628	 1.8721322977	 0.8385184556	 0.111679
H	-0.9454299485	-0.4499122831	-0.0437511582	 0.063207
H	 0.2489362344	-0.768509315	-2.0424765502	 0.092995
H	 1.5759134328	 0.2807901932	-1.5618171429	 0.092823
H	 1.8634170435	-2.5310828407	-1.2715449824	 0.077499
H	 3.5264108363	-2.0186658362	 0.5788576302	 0.07581
H	 2.6888689179	-0.13713312	 2.2502555674	 0.094367
H	 2.5742450415	 0.7792877039	 0.7326219574	 0.085559
H	-0.0674771453	 0.652845675	 2.8433210832	 0.115567
H	-0.9785823601	-0.8246074993	 2.4963029778	 0.110305
H	 0.5623856633	-0.9140196552	 3.3628525789	 0.112784
H	 0.8299316603	-2.9269818001	 1.1712456332	 0.074662
142.3728	223.5433	232.2492	252.6189	283.6024	315.265	359.0414	435.5712	497.4561	540.2018	604.9838	697.5283	735.7976	780.5823	805.2868	855.8056	867.6778	906.7864	927.6116	959.0802	968.4363	989.541	990.3047	1018.39	1052.8893	1060.4353	1085.9312	1103.	1130.8729	1145.0086	1160.7152	1189.2933	1225.3933	1239.4148	1254.5005	1291.2462	1305.1388	1314.8375	1350.9033	1364.1454	1400.3783	1406.511	1412.3436	1488.8897	1491.7024	1494.3737	1497.4323	1502.4106	1510.5364	2991.8442	3020.3148	3025.2784	3027.363	3034.6411	3071.6269	3082.7838	3086.0183	3092.295	3094.4252	3097.9697	3164.643	3172.2907	3192.7912
CC1CC2C3CC1(C)C23	C[C@H]1C[C@H]2[C@H]3C[C@]1(C)[C@@H]23	
InChI=1S/C9H14/c1-5-3-6-7-4-9(5,2)8(6)7/h5-8H,3-4H2,1-2H3	InChI=1S/C9H14/c1-5-3-6-7-4-9(5,2)8(6)7/h5-8H,3-4H2,1-2H3/t5-,6-,7+,8-,9-/m0/s1
