23
gdb 73004	2.62327	1.46414	1.16696	0.2109	90.13	-0.2324	0.09	0.3224	1185.7101	0.206249	-351.122431	-351.113635	-351.11269	-351.155593	34.654	
C	-0.0059255279	 1.5698745655	 0.007727104	-0.501387
C	-0.0045484311	 0.0681873169	 0.024399614	 0.269236
C	-0.7723789265	-0.8104105767	-0.9796137705	-0.283513
C	-1.1302615167	-1.8044977434	 0.1721131349	-0.2292
C	-0.3391708222	-0.9321317868	 1.1501124003	-0.172885
C	 1.0736404741	-0.7511503811	 0.6673383435	 0.353345
C	 2.0285442735	-1.8199530936	 0.1043112408	-0.304484
C	 3.0103209946	-1.4824026544	 1.2646434607	-0.208933
C	 2.1819788184	-0.2039163929	 1.5833598312	-0.309848
H	 0.5451274044	 1.9582508677	-0.8586834061	 0.114864
H	-1.0259276077	 1.9680175314	-0.0481371439	 0.113112
H	 0.4633309361	 1.9823397636	 0.906487747	 0.119237
H	-1.6564416454	-0.3128525945	-1.3871628958	 0.09706
H	-0.1859424996	-1.2095032386	-1.8145131459	 0.090557
H	-2.2018100529	-1.8198486014	 0.3839498212	 0.099487
H	-0.7874387777	-2.8387061149	 0.0581287322	 0.092474
H	-0.6055945251	-0.7378437132	 2.184475861	 0.074045
H	 1.658013709	-2.8476898049	 0.0600684097	 0.09769
H	 2.4298246691	-1.5559106963	-0.8798705855	 0.096999
H	 2.9635362686	-2.2172524243	 2.0720045823	 0.103126
H	 4.0577348373	-1.3319315105	 0.9943993311	 0.095461
H	 2.6485932059	 0.7058845348	 1.1907582491	 0.097515
H	 1.9230281617	-0.0302187226	 2.6318084146	 0.096043
83.4319	169.0124	179.9238	187.1	221.3176	251.1651	326.8087	399.3797	488.4383	525.2179	644.2526	695.3122	727.7137	789.5567	801.3168	858.7891	889.5985	920.5047	934.8116	941.51	955.4758	961.4575	986.2876	1005.4472	1059.3569	1082.0669	1106.8357	1126.535	1158.2404	1171.5158	1207.7175	1217.1464	1228.7066	1238.9906	1251.6049	1257.5467	1262.8928	1281.8252	1287.8956	1310.1339	1412.3569	1451.8391	1475.2754	1480.4078	1482.2219	1487.5725	1497.5929	1505.2079	1509.1394	3014.1178	3035.0272	3037.6042	3040.7173	3045.1596	3064.0177	3068.7478	3083.5692	3085.078	3089.9501	3096.3428	3104.9751	3118.9736	3154.1284
CC12CCC1C21CCC1	C[C@]12CC[C@H]1C12CCC1	
InChI=1S/C9H14/c1-8-6-3-7(8)9(8)4-2-5-9/h7H,2-6H2,1H3	InChI=1S/C9H14/c1-8-6-3-7(8)9(8)4-2-5-9/h7H,2-6H2,1H3/t7-,8+/m1/s1
