17
gdb 18904	3.51735	2.71637	2.25578	1.5017	70.28	-0.2148	0.0874	0.3022	705.8737	0.14365	-326.637319	-326.631285	-326.630341	-326.666941	25.227	
C	 0.028032795	 1.5437485347	-0.0120139989	-0.526405
C	-0.0112286388	 0.0519817854	-0.0932478374	 0.391002
C	 0.6206345162	-0.8774847214	-1.1612146113	-0.178009
C	-0.4459798156	-1.8915591049	-0.779846826	-0.081901
C	 0.8749618868	-1.7995515019	-0.0084737755	-0.0153
N	 0.596418164	-0.7944203936	 1.0607521172	-0.190304
C	-0.8070151548	-1.1208281	 1.5152873418	-0.18863
C	-1.2648677463	-0.8890096231	 0.0646125792	-0.121973
H	 1.063214096	 1.9004987266	 0.0075757399	 0.131469
H	-0.4753376315	 1.9931334614	-0.8752442285	 0.12126
H	-0.4693168969	 1.9011949062	 0.8960905013	 0.125362
H	 1.1652483463	-0.6992907142	-2.078725732	 0.090605
H	-0.7728617723	-2.7746149747	-1.3113012335	 0.087739
H	 1.5818525403	-2.6103764461	 0.1093733348	 0.089411
H	-0.9329327693	-2.1116899917	 1.9620403863	 0.098414
H	-1.1524093009	-0.3506963944	 2.2113068838	 0.102965
H	-2.2806598082	-0.6341550881	-0.2384059311	 0.064297
210.1952	249.4206	268.4431	442.558	560.7476	597.1251	731.5129	764.3386	787.7245	810.8468	817.3109	833.3915	858.1016	873.9333	917.9391	943.3493	960.2868	993.9168	1022.3591	1036.7647	1051.8063	1078.1014	1105.4689	1147.1939	1157.8204	1180.8346	1219.5586	1223.6761	1246.4211	1293.4862	1339.2073	1350.267	1413.7115	1480.1917	1484.2099	1499.285	3027.8808	3048.8429	3097.0931	3100.2531	3106.5547	3112.5437	3193.455	3200.8478	3216.2516
CC12C3C4C3N1CC24	C[C@@]12[C@@H]3[C@H]4[C@@H]3N1C[C@@H]24	
InChI=1S/C7H9N/c1-7-3-2-8(7)6-4(3)5(6)7/h3-6H,2H2,1H3	InChI=1S/C7H9N/c1-7-3-2-8(7)6-4(3)5(6)7/h3-6H,2H2,1H3/t3-,4+,5-,6+,7-/m1/s1
