20
gdb 110357	3.19206	1.111	0.98098	1.8643	75.36	-0.2262	0.0535	0.2798	1281.9466	0.169998	-440.224616	-440.215473	-440.214528	-440.258548	34.672	
C	-0.0711108792	 1.4321621386	-0.3492620172	-0.373568
C	 0.0364161933	 0.041209387	 0.2698151492	-0.121956
N	-1.2379588976	-0.6638780061	 0.1365208387	-0.079072
C	-1.6449252821	-1.3737764103	-1.0556743271	-0.109198
C	-1.390730257	-2.0917232737	 0.2518340986	-0.063291
C	-0.2226769138	-2.8790949848	-0.3646797163	 0.039125
O	-0.588385992	-4.2464899987	-0.450561601	-0.433385
C	-0.4753668505	-2.1274190084	-1.7355960064	 0.098782
O	-0.8546001123	-2.9963454788	-2.7683737971	-0.440934
H	 0.8566245053	 1.9934752355	-0.2028199664	 0.11264
H	-0.2609526084	 1.36732418	-1.4257021099	 0.121911
H	-0.8944247008	 1.9908484929	 0.1045072797	 0.12862
H	 0.8905337919	-0.4928545686	-0.1732710072	 0.09178
H	 0.2405786101	 0.1225329316	 1.3436148163	 0.105191
H	-2.5790648509	-1.1121676529	-1.5425848652	 0.097039
H	-2.0791670476	-2.502835809	 0.9832424606	 0.099915
H	 0.7615314763	-2.7676728931	 0.1071260442	 0.069806
H	 0.1551018658	-4.7279427567	-0.8295469977	 0.294688
H	 0.3377948562	-1.5046467009	-2.1204279946	 0.081014
H	-1.2884577968	-3.7456101833	-2.3341188312	 0.280893
60.7287	122.8177	182.1716	214.7193	225.9113	271.182	307.5506	334.5017	360.4322	498.5012	564.1294	575.2082	614.7202	721.7101	799.946	814.0801	862.686	901.1546	910.5519	959.4756	986.3462	1014.0564	1065.3395	1076.7809	1104.5177	1121.4261	1134.2248	1177.8358	1190.2182	1221.4236	1237.2724	1265.5181	1294.7941	1306.0856	1314.8323	1374.3605	1392.0025	1413.4461	1421.6086	1449.0846	1488.9618	1497.6308	1515.7377	2989.0207	3019.5222	3039.7285	3053.1845	3062.6141	3108.9465	3120.5454	3159.1448	3170.556	3722.1476	3809.6019
CCN1C2C1C(O)C2O	CCN1[C@@H]2[C@H]1[C@@H](O)[C@H]2O	
InChI=1S/C6H11NO2/c1-2-7-3-4(7)6(9)5(3)8/h3-6,8-9H,2H2,1H3	InChI=1S/C6H11NO2/c1-2-7-3-4(7)6(9)5(3)8/h3-6,8-9H,2H2,1H3/t3-,4+,5+,6-,7?
