19
gdb 55764	3.918	1.04777	1.00907	1.8316	76.36	-0.2535	0.0148	0.2683	1274.4909	0.157753	-423.034384	-423.025423	-423.024478	-423.069145	32.686	
C	-0.0277566735	 1.4584103662	-0.1320283161	-0.484267
C	 0.018751454	-0.0362319333	 0.0708060823	 0.395563
O	 0.1719301471	-0.6037753812	 1.1195615333	-0.341562
O	-0.1482913245	-0.6789820006	-1.1165329035	-0.288151
C	-0.1116105675	-2.0806896262	-1.0596746117	 0.498893
C	 1.1732983669	-2.8327944946	-1.174349653	-0.319231
C	 0.0995600742	-3.0227076533	-2.2286427685	-0.150067
C	-0.9980462014	-3.9471695921	-1.6811455479	-0.2223
C	-1.2362379973	-2.945012105	-0.4981563811	-0.290115
H	 0.7588525333	 1.7672682774	-0.8264069106	 0.149427
H	-0.9842258554	 1.7465726974	-0.5773035339	 0.150519
H	 0.1030680507	 1.9590241262	 0.8263994093	 0.148314
H	 2.0152565542	-2.2284248372	-1.4959108983	 0.115723
H	 1.4230432466	-3.6277920838	-0.4751313902	 0.11114
H	 0.2857860809	-2.7993740579	-3.2715821248	 0.095601
H	-1.8657965649	-4.0303785605	-2.3383413388	 0.106964
H	-0.6679506634	-4.9529118519	-1.4035444246	 0.101553
H	-1.0964155028	-3.3084515686	 0.5224768702	 0.113478
H	-2.2092656772	-2.4545581512	-0.574386112	 0.108519
48.8287	64.5338	98.5134	135.9033	234.8331	326.5471	362.6266	407.8345	437.423	569.8846	609.6195	680.2019	743.0767	787.649	836.234	899.7529	926.3411	937.3019	953.6167	970.1151	1014.3071	1027.7915	1035.5462	1063.4865	1082.8695	1117.6005	1149.1827	1215.9742	1223.0448	1236.1667	1249.2611	1261.676	1305.6975	1379.9912	1395.3826	1469.3258	1475.4441	1480.1129	1481.5383	1511.5241	1833.7615	3053.2915	3056.6171	3068.3756	3106.3761	3106.8656	3121.0834	3126.044	3169.2102	3191.3407	3205.7934
CC(=O)OC12CC1CC2	CC(=O)O[C@]12C[C@H]1CC2	
InChI=1S/C7H10O2/c1-5(8)9-7-3-2-6(7)4-7/h6H,2-4H2,1H3	InChI=1S/C7H10O2/c1-5(8)9-7-3-2-6(7)4-7/h6H,2-4H2,1H3/t6-,7-/m1/s1
