18
gdb 88299	3.88386	1.0448	0.92224	4.1863	75.91	-0.2379	-0.007	0.231	1289.4632	0.147239	-439.067856	-439.059349	-439.058404	-439.101562	31.786	
O	 0.0192158352	 1.3032298334	-0.2449250749	-0.422156
C	-0.0433656436	-0.0533733436	-0.0096745203	 0.159143
C	-0.4334921362	-0.6236796806	 1.3065408265	-0.32882
C	-1.4006038096	-0.7786405239	 0.1235470706	-0.197415
C	-2.6013015428	 0.0820003041	 0.1117349686	 0.418188
O	-2.5948311139	 1.2401735189	 0.5138189862	-0.398891
N	-3.7258782915	-0.473534979	-0.4853266436	-0.088144
C	-4.4850802692	-1.5925954659	 0.045726205	-0.233634
C	-5.0656732863	-0.2093911258	-0.022160299	-0.217823
H	-0.8053901672	 1.6877593715	 0.1038033598	 0.304845
H	 0.7037053177	-0.5845874808	-0.5910613543	 0.113467
H	 0.0494468194	-1.5258987218	 1.6655679533	 0.118591
H	-0.7436931688	 0.0781337843	 2.0735803143	 0.135624
H	-1.5046467209	-1.7568299493	-0.3298960513	 0.09758
H	-4.7871213961	-2.3482646762	-0.6739505625	 0.131267
H	-4.2065852782	-1.9729189619	 1.0255339848	 0.134956
H	-5.1633946626	 0.3512421226	 0.9032209878	 0.141584
H	-5.7952598052	 0.029298994	-0.7902471912	 0.131637
62.3864	86.8737	176.2863	199.8708	228.3932	292.2754	390.6985	457.7854	495.0209	591.6365	609.2714	742.0998	761.4796	794.9145	817.3257	841.578	892.1565	949.801	977.1223	1026.0071	1047.4082	1057.5926	1084.5464	1115.0942	1126.5522	1134.6808	1143.1652	1150.2367	1174.2866	1178.029	1233.8238	1353.9994	1367.9073	1436.353	1452.3276	1492.069	1495.7181	1524.0942	1720.8246	3107.8915	3119.5026	3131.9948	3164.4397	3183.9124	3194.0289	3211.362	3227.8932	3607.7762
OC1CC1C(=O)N1CC1	O[C@H]1C[C@H]1C(=O)N1CC1	
InChI=1S/C6H9NO2/c8-5-3-4(5)6(9)7-1-2-7/h4-5,8H,1-3H2	InChI=1S/C6H9NO2/c8-5-3-4(5)6(9)7-1-2-7/h4-5,8H,1-3H2/t4-,5+/m1/s1
