17
gdb 7074	6.45025	0.85589	0.80096	2.2544	69.61	-0.2642	-0.0372	0.2271	1358.0483	0.139848	-363.893886	-363.884724	-363.88378	-363.928674	31.345	
C	-0.0758447314	 1.6441016383	-0.0437760922	-0.401439
C	-0.0142040028	 0.1128112214	 0.0110196031	 0.00746
C	 0.7401202887	-0.3833641582	 1.260136774	-0.285301
C	 2.2053670296	-0.0009170841	 1.2361218197	 0.157995
O	 2.7868637953	 0.5597376832	 2.1270542929	-0.232907
C	-1.427805354	-0.5172423084	-0.0201456951	-0.345993
C	-2.1702696355	-0.1893455299	-1.2355572206	 0.265465
N	-2.7392331368	 0.0765684687	-2.2056387877	-0.306844
H	 0.9282329541	 2.0783259433	-0.0549582007	 0.133963
H	-0.6015058625	 1.9855528487	-0.9394626102	 0.148398
H	-0.5986060993	 2.0448343213	 0.832338187	 0.126199
H	 0.5217336263	-0.2479148567	-0.8769184245	 0.1036
H	 0.2931081805	 0.0027467182	 2.1819485248	 0.125589
H	 0.7005071223	-1.4822490534	 1.297595301	 0.121062
H	 2.7359473913	-0.2940134386	 0.2989953432	 0.077513
H	-1.3582208391	-1.6083183041	 0.0558715394	 0.150738
H	-2.0086878369	-0.1763726495	 0.8456665259	 0.154502
56.4845	61.2388	99.1737	136.7749	230.3458	245.5956	306.6275	379.2177	397.2485	412.2376	499.8804	580.3752	778.5281	852.303	891.5466	929.092	960.5986	982.089	1026.0687	1123.0416	1127.2192	1154.191	1208.2654	1263.7456	1274.2755	1333.3749	1371.4656	1376.1254	1421.2221	1429.7568	1457.0043	1468.6361	1496.4359	1502.9324	1839.2033	2361.56	2851.5737	3008.2227	3021.3457	3035.9469	3039.9648	3078.4791	3089.917	3104.7887	3121.9688
CC(CC=O)CC#N	C[C@@H](CC=O)CC#N	
InChI=1S/C6H9NO/c1-6(2-4-7)3-5-8/h5-6H,2-3H2,1H3	InChI=1S/C6H9NO/c1-6(2-4-7)3-5-8/h5-6H,2-3H2,1H3/t6-/m1/s1
