16
gdb 18921	3.4437	2.62115	2.02321	3.1384	67.61	-0.2301	-0.0032	0.2269	716.5583	0.133233	-346.586766	-346.581112	-346.580167	-346.616282	23.549	
O	 0.0094694072	 0.1038543348	 0.0514082349	-0.347144
C	-0.0102209763	 1.3029259085	 0.0173160128	 0.4624
C	-1.1821320443	 2.2825195645	-0.0411187335	-0.158974
C	-0.9533418438	 2.9904911847	 1.3335443525	-0.24654
C	 0.3127451547	 3.5361341407	 0.6459038277	-0.030143
C	-0.4056903107	 3.4850117651	-0.7368430868	-0.030143
C	 0.8782571473	 2.9430098694	-1.3935510514	-0.24654
C	 1.1288673568	 2.3221757535	 0.0189030195	-0.158975
H	-2.1515313344	 1.9103664029	-0.3637304613	 0.083511
H	-1.6810865105	 3.7865322941	 1.5134814002	 0.108055
H	-0.8653583018	 2.3597113408	 2.2240015498	 0.109217
H	 0.8833195475	 4.3924771977	 1.0025279709	 0.077246
H	-1.0037185233	 4.3005280358	-1.1410148628	 0.077246
H	 0.8118456802	 2.2601082823	-2.2466472093	 0.109217
H	 1.5796615649	 3.7509874706	-1.6191060964	 0.108055
H	 2.1096521363	 2.0009565346	 0.3612344233	 0.083511
159.5214	367.8669	374.5974	461.2213	563.205	696.2891	752.8613	774.1466	777.1581	823.5724	828.6039	853.5138	912.0965	923.1402	979.1288	996.474	1008.3239	1013.8214	1057.9261	1073.6652	1102.2257	1136.9143	1146.5342	1194.9326	1199.9763	1211.4889	1224.4945	1268.9666	1269.6815	1291.7712	1309.8184	1496.8199	1498.7228	1880.7585	3044.7326	3046.5348	3103.8968	3104.5926	3120.3421	3128.7043	3151.1384	3152.282
O=C1C2CC3C2CC13	O=C1[C@H]2C[C@@H]3[C@H]2C[C@H]13	
InChI=1S/C7H8O/c8-7-5-1-3-4(5)2-6(3)7/h3-6H,1-2H2	InChI=1S/C7H8O/c8-7-5-1-3-4(5)2-6(3)7/h3-6H,1-2H2/t3-,4-,5+,6+/m1/s1
