19
gdb 75369	2.74539	1.71839	1.37611	1.5145	76.06	-0.2361	0.0186	0.2547	1008.2991	0.161303	-423.046534	-423.039053	-423.038109	-423.07825	29.671	
C	-0.024594695	 1.5144645425	 0.0397809533	-0.496129
C	 0.0123755553	 0.0177688689	-0.0554660515	 0.335809
C	 0.0249405084	-0.6720699048	-1.1980927967	-0.159492
C	 0.0233764551	-2.1810790943	-1.2178977854	-0.275806
C	-0.0925470206	-2.7208964409	 0.213840324	 0.1869
O	-1.4176250855	-2.5201811538	 0.7105699402	-0.278338
C	-1.3837606846	-1.3579477102	 1.5402982941	-0.081967
C	 0.0120812602	-0.7780165687	 1.2385528398	-0.050701
O	 0.7552725455	-1.9910952873	 1.0713302502	-0.247445
H	 0.8540556048	 1.9016198252	 0.5719364546	 0.127396
H	-0.0556913003	 1.9772445632	-0.9501883816	 0.125684
H	-0.9039583211	 1.859841139	 0.5998380002	 0.124074
H	 0.0418214527	-0.1536968169	-2.1540964469	 0.084145
H	-0.8191669714	-2.5641921353	-1.8061760872	 0.117486
H	 0.938130309	-2.5654851894	-1.6905635312	 0.108282
H	 0.1626051409	-3.7819720389	 0.2898237096	 0.087052
H	-2.2031862637	-0.6870061759	 1.2646931339	 0.10794
H	-1.4817261103	-1.6410244589	 2.5964671363	 0.099722
H	 0.4491236108	-0.2243247534	 2.0722142744	 0.085387
122.5907	182.3732	218.7632	279.1089	320.953	359.4349	471.0961	482.9637	569.2256	679.9758	737.7041	805.1393	826.4376	844.7887	888.4316	919.9456	948.3535	967.6555	1003.3913	1020.9403	1027.8615	1060.5876	1073.7644	1097.2091	1136.1684	1183.6512	1193.0883	1210.7309	1270.9575	1297.8425	1326.3894	1356.0825	1379.8882	1382.3411	1392.0152	1414.9689	1463.273	1478.591	1490.1464	1517.7973	1735.8792	3011.4374	3012.1307	3015.1252	3056.0403	3056.4214	3073.4738	3080.8088	3096.9197	3111.337	3151.6055
CC1=CCC2OCC1O2	CC1=CC[C@@H]2OC[C@H]1O2	
InChI=1S/C7H10O2/c1-5-2-3-7-8-4-6(5)9-7/h2,6-7H,3-4H2,1H3	InChI=1S/C7H10O2/c1-5-2-3-7-8-4-6(5)9-7/h2,6-7H,3-4H2,1H3/t6-,7-/m1/s1
