16
gdb 16829	3.63678	1.87848	1.40703	2.4114	64.51	-0.2384	-0.0114	0.227	871.5214	0.131392	-383.756413	-383.74941	-383.748466	-383.787547	27.209	
O	-0.1271688305	 1.4701137283	 0.1103474542	-0.432622
C	-0.0103278654	 0.0621778126	-0.0229852058	 0.111153
C	 0.7513901662	-0.6320450321	 1.1290081693	-0.388695
C	 0.0278457706	-1.9717814692	 1.3400358665	 0.419472
O	 0.5234912268	-2.9799169984	 1.7769935756	-0.329578
C	-1.3670089745	-1.8252163451	 0.8239775854	-0.149003
C	-2.1150392792	-0.5815390627	 1.2905774676	-0.281244
C	-1.4028842994	-0.5569780917	-0.0185849664	-0.035454
H	 0.75159794	 1.8529011356	 0.0223283887	 0.285017
H	 0.4749623257	-0.1898264977	-0.9779357806	 0.078222
H	 1.8116453316	-0.8011340972	 0.9314755615	 0.123393
H	 0.6755507934	-0.0276826381	 2.0405783437	 0.1348
H	-1.9260450693	-2.7206416973	 0.5845415375	 0.107007
H	-3.1961712515	-0.6551900282	 1.2711162821	 0.126953
H	-1.7232645955	-0.0077248703	 2.122502078	 0.131347
H	-1.9817034089	-0.5165697885	-0.9334326773	 0.099233
105.7527	171.9753	283.6202	295.7501	372.1802	477.6771	493.7911	536.8561	586.5707	668.8786	775.4984	816.4307	839.9274	899.3714	922.6585	963.3677	989.537	1011.0796	1061.6459	1096.961	1106.1284	1109.9652	1173.8631	1190.6411	1208.1939	1240.7505	1247.6051	1328.6956	1353.6566	1387.7532	1427.3159	1460.5475	1499.7648	1836.3844	2985.5783	3051.7343	3118.8282	3143.8375	3184.3396	3202.7365	3229.2288	3817.1836
OC1CC(=O)C2CC12	O[C@H]1CC(=O)[C@H]2C[C@@H]12	
InChI=1S/C6H8O2/c7-5-2-6(8)4-1-3(4)5/h3-5,7H,1-2H2	InChI=1S/C6H8O2/c7-5-2-6(8)4-1-3(4)5/h3-5,7H,1-2H2/t3-,4+,5+/m1/s1
