17
gdb 68773	2.42029	1.74416	1.24459	3.6511	69.45	-0.2367	-0.0219	0.2148	1017.5719	0.134598	-458.974545	-458.966064	-458.96512	-459.007266	32.513	
O	-0.0223525866	 1.3888647929	-0.032395455	-0.455889
C	 0.0104461626	 0.0038968882	-0.0042586675	 0.325954
C	-0.3806538963	-0.7433093013	 1.2388723027	-0.42704
C	-1.3010831902	-0.793116318	 0.025495484	 0.321068
O	-2.5649407575	-0.2576252766	 0.1171137274	-0.468242
C	-1.1190069509	-1.9152117082	-0.9324525976	 0.345532
O	-2.0508816844	-2.4644471715	-1.477957885	-0.350949
C	 0.3683511968	-2.1041903971	-1.2092545866	-0.346512
C	 0.9843501168	-0.7091705795	-0.94373838	-0.277998
H	 0.5704923356	 1.7256966639	 0.6477335649	 0.289664
H	 0.1697416568	-1.6191541739	 1.570577431	 0.115538
H	-0.8019185563	-0.1315676258	 2.0304062774	 0.136717
H	-3.1063683065	-0.7946053225	-0.4823246408	 0.296493
H	 0.768015811	-2.8630339207	-0.5257910293	 0.133614
H	 0.5223047812	-2.4712114298	-2.2252709659	 0.136522
H	 1.0367684984	-0.1342536219	-1.8735221282	 0.125655
H	 1.9968523196	-0.7646237183	-0.5282056615	 0.099875
99.5705	167.6669	181.7529	220.7064	280.7482	314.058	363.2422	424.4928	460.9941	490.7589	565.7573	569.8877	666.57	695.2287	712.8811	828.3249	879.4933	901.9606	936.0176	982.0301	1034.804	1047.7702	1081.3765	1097.9467	1167.6398	1213.7155	1236.4642	1257.7228	1306.6646	1311.8758	1363.7098	1389.9856	1427.9545	1462.5535	1483.6008	1506.9894	1810.7958	3038.4008	3046.5377	3088.8566	3114.3028	3122.907	3212.7153	3709.7446	3804.4656
OC12CC1(O)C(=O)CC2	O[C@@]12C[C@]1(O)C(=O)CC2	
InChI=1S/C6H8O3/c7-4-1-2-5(8)3-6(4,5)9/h8-9H,1-3H2	InChI=1S/C6H8O3/c7-4-1-2-5(8)3-6(4,5)9/h8-9H,1-3H2/t5-,6-/m0/s1
