12
gdb 23845	3.37764	2.36613	1.39141	4.4329	62.23	-0.2143	-0.034	0.1803	792.989	0.085898	-418.812364	-418.806161	-418.805217	-418.842699	23.651	
F	 0.0308215267	 0.0997389897	 0.0049317295	-0.061772
C	 0.0170558494	 1.427491757	 0.0112146991	 0.27635
N	-1.1410755346	 1.975628576	 0.0288153964	-0.242714
N	-1.1606836044	 3.326072572	 0.0350967414	-0.238569
C	-0.0342242666	 4.0937379202	 0.0239520106	 0.036344
C	 1.1946844382	 3.5290347691	 0.0053425692	-0.169638
C	 1.3346125604	 2.0855972099	-0.0030628769	 0.182492
N	 2.4693401917	 1.4803925524	-0.0206738986	-0.551253
H	-2.0830173147	 3.7251124956	 0.0492103447	 0.28389
H	-0.2050479083	 5.1635352028	 0.0310380843	 0.139939
H	 2.0884859759	 4.1381744785	-0.0035538458	 0.126279
H	 2.3239381763	 0.4700450869	-0.023358534	 0.218649
126.52	318.539	328.1609	361.0215	476.7497	486.5475	546.8097	558.5727	595.0313	742.9262	750.8146	829.9339	882.2139	917.3417	956.9772	1051.5561	1079.3624	1168.8058	1274.9463	1324.3319	1384.7853	1434.5947	1526.5021	1636.9605	1665.195	1687.1102	3208.7559	3233.1513	3474.3291	3676.2046
FC1=NNC=CC1=N	FC1=NNCC=C1[NH]	
InChI=1S/C4H4FN3/c5-4-3(6)1-2-7-8-4/h1-2H,(H2,6,7)	InChI=1S/C4H5FN3/c5-4-3(6)1-2-7-8-4/h1,6-7H,2H2
