15
gdb 43961	3.13375	1.74597	1.52213	5.3498	69.39	-0.2281	-0.0165	0.2115	885.5687	0.11404	-416.778786	-416.772041	-416.771097	-416.809741	27.1	
O	 0.0340421268	-0.0028394763	-0.0980897202	-0.296467
C	 0.0142962716	 1.1795608098	 0.068231785	 0.360799
C	-1.1593767985	 2.2117419982	 0.1838925271	-0.390522
C	-0.1237808287	 3.3245137695	-0.0602881173	 0.205501
C	 0.9337862511	 3.3288304281	 0.9991283322	-0.353562
C	 1.0462436641	 2.2792985917	-0.0871719763	 0.146914
N	 1.8859415329	 2.5479022499	-1.2238687913	-0.287182
C	 1.3254734822	 3.5474467045	-1.8084566117	 0.039964
N	 0.1084262011	 4.0069229949	-1.2962098464	-0.346858
H	-1.8436606338	 2.0642330169	-0.6561120824	 0.141317
H	-1.7286688312	 2.2587518558	 1.1161919181	 0.1226
H	 1.6982673134	 4.09567491	 0.9461890729	 0.135811
H	 0.6554175886	 3.0289113568	 2.0034282625	 0.132646
H	 1.7374477729	 4.0307123624	-2.6897415948	 0.136595
H	-0.1858851126	 4.9585072878	-1.4538453674	 0.252444
102.0046	248.2139	341.0289	388.2017	421.4137	451.2723	523.0437	586.5664	608.125	616.5839	693.0446	743.0926	788.8356	867.1803	915.0715	944.0495	955.5591	967.7323	979.7855	1054.3954	1081.1504	1095.7049	1127.0982	1206.3078	1261.238	1267.5674	1317.8758	1349.8253	1382.5158	1444.4185	1470.9216	1620.9646	1882.048	3059.159	3121.1195	3135.5997	3189.749	3228.7521	3620.5194
O=C1CC23CC12N=CN3	O=C1C[C@@]23C[C@@]12N=CN3	
InChI=1S/C6H6N2O/c9-4-1-5-2-6(4,5)8-3-7-5/h3H,1-2H2,(H,7,8)	InChI=1S/C6H6N2O/c9-4-1-5-2-6(4,5)8-3-7-5/h3H,1-2H2,(H,7,8)/t5-,6-/m1/s1
