21
gdb 103830	3.27663	0.88071	0.82872	1.8906	75.2	-0.2579	0.0664	0.3243	1489.9029	0.178908	-461.342335	-461.331541	-461.330597	-461.378515	38.993	
C	-0.1485510293	 1.3595565297	-0.4538367915	-0.407866
C	 0.0380934324	 0.0261463957	 0.2679735971	 0.093586
O	 0.6507696364	 0.1830371759	 1.5446755016	-0.427101
C	-1.2849804081	-0.7016771327	 0.4255121969	-0.008227
O	-1.8881948192	-1.2436152557	-0.7557353804	-0.310234
C	-1.4715548897	-2.1546811489	 0.2949158484	 0.350695
C	-0.3544808191	-3.1094553369	-0.0571645231	-0.468838
C	-2.6666318646	-2.7909512129	 0.9838325886	-0.116845
O	-3.3207556556	-3.7121702761	 0.1276746215	-0.416567
H	 0.8102635165	 1.8751727244	-0.5538186892	 0.125705
H	-0.5737787892	 1.2003283307	-1.4489181644	 0.138772
H	-0.8344767792	 2.0107606204	 0.1034459865	 0.105935
H	 0.729606878	-0.5973921177	-0.3047112354	 0.094844
H	 0.1584898625	 0.8561725822	 2.0277011987	 0.279869
H	-1.9886394489	-0.1651806328	 1.0718031244	 0.073241
H	 0.3442094103	-2.6681898965	-0.768939099	 0.128816
H	 0.1975456943	-3.4004806123	 0.8426489087	 0.130244
H	-0.7809569414	-4.0119679101	-0.5037430913	 0.139356
H	-2.3427112646	-3.3612652449	 1.861124708	 0.113007
H	-3.3554082599	-2.0039899955	 1.324735171	 0.088822
H	-3.5734657815	-3.216298086	-0.6601122371	 0.292784
48.8231	69.9983	126.0589	139.2348	193.1472	242.919	259.9451	264.3114	288.6616	353.0319	398.2709	413.6013	439.1899	452.6917	503.7975	633.3436	722.6882	837.6048	882.4329	914.0197	942.0974	954.5577	1041.0939	1049.5826	1073.8747	1088.3849	1108.5926	1150.9045	1173.6368	1204.3057	1256.26	1282.0642	1333.4497	1344.7904	1392.3032	1398.3925	1409.4588	1414.3559	1425.5346	1467.5313	1488.9701	1492.6763	1493.1064	1498.5677	1516.7277	2993.9471	3024.1359	3043.2018	3047.3226	3075.7159	3080.95	3103.1376	3114.8046	3126.3939	3144.1508	3793.6545	3799.1538
CC(O)C1OC1(C)CO	C[C@@H](O)[C@H]1O[C@]1(C)CO	
InChI=1S/C6H12O3/c1-4(8)5-6(2,3-7)9-5/h4-5,7-8H,3H2,1-2H3	InChI=1S/C6H12O3/c1-4(8)5-6(2,3-7)9-5/h4-5,7-8H,3H2,1-2H3/t4-,5-,6-/m1/s1
