18
gdb 90424	2.43617	1.61255	1.24491	4.7662	73.35	-0.2332	0.0322	0.2654	1064.5662	0.147382	-439.084887	-439.076226	-439.075282	-439.118425	31.807	
C	-0.0690240883	 1.3923031933	-0.1295576108	-0.34872
N	-0.0319870477	-0.0308125372	 0.0912037227	-0.064591
C	-1.082501872	-1.0451577301	 0.0526977059	-0.00072
C	-1.5487204191	-1.4342335445	-1.3787250261	-0.288687
C	-0.4389632972	-2.5374731105	-1.4207038839	 0.125088
O	 0.5646295269	-2.4393842066	-2.3983440284	-0.412203
C	 0.0492576058	-2.1241828205	-0.0037408791	-0.22786
C	 1.0208736067	-0.9217145764	-0.0030036159	 0.423047
O	 2.2083493482	-0.750913352	-0.0607327773	-0.371804
H	 0.9640002379	 1.7435812792	-0.1882433211	 0.162763
H	-0.5795572536	 1.6448590752	-1.0684480384	 0.123952
H	-0.5743448982	 1.9136190617	 0.6915063867	 0.127042
H	-1.8230073498	-0.9827989596	 0.851638758	 0.083239
H	-2.5656970487	-1.830600837	-1.4316781123	 0.103539
H	-1.4301772325	-0.6421268345	-2.1220996422	 0.106749
H	-0.8809651844	-3.5428932354	-1.4008427035	 0.07642
H	 0.1951035471	-2.7123639568	-3.2442603331	 0.286887
H	 0.2080301788	-2.9019280084	 0.7400695389	 0.095859
75.2689	127.9268	151.7108	152.7644	236.9887	262.5666	359.2901	400.6044	447.5419	511.7261	635.7502	683.8789	752.2132	815.6148	846.7338	871.0808	896.4545	954.8487	1003.0088	1031.4037	1064.8943	1097.0649	1131.5653	1143.9806	1164.8791	1183.3577	1201.457	1238.8801	1279.0106	1290.4934	1295.6431	1328.8808	1398.2515	1422.152	1446.1089	1464.7145	1483.6983	1514.5813	1880.9162	3001.8727	3009.744	3061.7156	3065.0916	3095.8367	3121.3914	3128.8511	3144.2554	3816.3987
CN1C2CC(O)C2C1=O	CN1[C@H]2C[C@@H](O)[C@H]2C1=O	
InChI=1S/C6H9NO2/c1-7-3-2-4(8)5(3)6(7)9/h3-5,8H,2H2,1H3	InChI=1S/C6H9NO2/c1-7-3-2-4(8)5(3)6(7)9/h3-5,8H,2H2,1H3/t3-,4+,5-/m0/s1
