18
gdb 14641	7.68449	0.61235	0.5752	0.7376	83.64	-0.2433	0.0445	0.2878	1893.996	0.150588	-310.618681	-310.608591	-310.607647	-310.655529	34.205	
C	 0.0353042424	 1.5101962341	 0.0096915319	-0.497487
C	 0.03018358	 0.0540129431	 0.0021196899	 0.123819
C	 0.0362136454	-1.1500629477	-0.0042667799	 0.008987
C	 0.009914645	-2.6083408269	-0.0119295086	-0.355938
C	-1.4192569601	-3.1843270677	-0.0013562794	-0.163451
C	-1.4171792364	-4.7255801261	-0.0096935855	-0.354014
C	-2.7591796061	-5.2939657432	 0.0001599006	 0.284383
C	-3.8766273623	-5.7367191073	 0.0083640904	-0.429734
H	 1.0575461414	 1.9047651251	 0.0018924518	 0.146595
H	-0.4814572687	 1.9162677941	-0.8670350607	 0.146244
H	-0.4643965866	 1.9070127002	 0.9004340198	 0.146243
H	 0.5452235514	-2.9829868187	-0.8955037896	 0.1246
H	 0.5620267238	-2.9924813504	 0.8571087233	 0.124595
H	-1.9530312284	-2.8243538486	 0.8834975119	 0.121334
H	-1.9698453902	-2.8148800885	-0.8718870926	 0.121331
H	-0.8743580057	-5.0862729281	-0.8937912161	 0.129655
H	-0.8575174242	-5.0957335014	 0.8598716824	 0.129646
H	-4.8595215609	-6.137901262	 0.0148474705	 0.193193
21.4414	63.9918	78.2895	87.8085	157.9842	219.3053	286.3111	304.7665	345.9328	386.2864	449.9107	550.8545	616.1124	634.5837	738.1332	765.6513	840.5296	958.9468	1031.5501	1035.7549	1054.0233	1054.101	1081.2317	1170.0459	1172.7761	1258.3252	1294.0645	1317.6602	1349.5029	1383.7908	1415.5467	1471.9797	1475.4613	1479.0838	1479.9252	1500.9016	2239.4498	2374.6062	3004.0451	3012.0454	3025.6772	3030.7674	3040.1884	3058.2252	3085.557	3085.6757	3103.7396	3507.8881
CC#CCCCC#C	CC#CCCCC#C	
InChI=1S/C8H10/c1-3-5-7-8-6-4-2/h1H,5,7-8H2,2H3	InChI=1S/C8H10/c1-3-5-7-8-6-4-2/h1H,5,7-8H2,2H3
