20
gdb 118006	3.50978	0.77071	0.66233	4.0235	76.56	-0.2786	0.0099	0.2885	1697.139	0.168171	-440.293786	-440.282935	-440.281991	-440.330257	38.274	
C	 0.0224974608	 1.5931789117	 0.0560092558	-0.383599
C	 0.0191420053	 0.063670857	-0.0013648669	-0.173198
C	-1.3943636904	-0.5282502494	-0.0085343528	-0.195231
C	-1.4066354853	-2.0573589996	 0.0098325246	 0.098199
O	-0.8126391335	-2.602690399	 1.1739696402	-0.416405
C	-2.8484400597	-2.6073775796	-0.1609936081	-0.049215
O	-3.4675441997	-2.1711387351	-1.3568095314	-0.40583
C	-2.8608820336	-4.0801566995	-0.0630225687	 0.266539
N	-2.8824607737	-5.2352335507	-0.0509316391	-0.315971
H	 1.0431454493	 1.9874039881	 0.0535422693	 0.117287
H	-0.5042564176	 2.0251420366	-0.8020964856	 0.116684
H	-0.4722507548	 1.9575368818	 0.9633584743	 0.114235
H	 0.5517471272	-0.2724636874	-0.9006028449	 0.099392
H	 0.5742184155	-0.3460716544	 0.8496803475	 0.110086
H	-1.9550738009	-0.1657035634	 0.8681934547	 0.084804
H	-1.9510621541	-0.1844799041	-0.8869358278	 0.1193
H	-0.8039153644	-2.4424724551	-0.8235587549	 0.09726
H	-1.2096784899	-2.1793298371	 1.9440477137	 0.286107
H	-3.4686134686	-2.2089996209	 0.6521482373	 0.13017
H	-3.050227752	-2.6266689598	-2.0973663473	 0.299385
52.5229	86.1357	95.2841	121.607	182.1784	238.8667	244.9933	256.0165	306.6207	310.4532	342.5113	390.2003	434.4039	479.2036	607.2852	613.2481	751.1343	858.002	876.6463	931.3245	959.9741	1035.9811	1060.8572	1082.8086	1099.6323	1121.6628	1147.8731	1214.392	1242.2766	1282.7278	1297.9859	1322.3909	1349.5592	1375.4094	1396.4044	1411.075	1414.2413	1419.6143	1484.3856	1494.9674	1499.9544	1512.0697	2357.8148	2985.7862	3023.3947	3028.182	3030.8906	3045.8079	3061.5999	3080.5912	3099.1056	3105.7684	3793.7919	3800.8121
CCCC(O)C(O)C#N	CCC[C@@H](O)[C@@H](O)C#N	
InChI=1S/C6H11NO2/c1-2-3-5(8)6(9)4-7/h5-6,8-9H,2-3H2,1H3	InChI=1S/C6H11NO2/c1-2-3-5(8)6(9)4-7/h5-6,8-9H,2-3H2,1H3/t5-,6+/m1/s1
