18
gdb 60807	2.67834	1.02073	0.95911	3.4046	69.09	-0.2465	-0.0263	0.2202	1299.7456	0.144438	-476.266603	-476.256134	-476.25519	-476.303415	36.418	
C	-0.0588143848	 1.5803159185	-0.0524462952	-0.422669
C	-0.0101814244	 0.0467517616	-0.0324782474	-0.078205
C	 0.6830290751	-0.4861148073	-1.2763095863	 0.155536
O	 0.2323871716	-1.3541321977	-1.9800389395	-0.254869
C	 0.7541526699	-0.4956313125	 1.2118643061	 0.019643
O	 2.0625173128	 0.0029584356	 1.2545347359	-0.436916
C	 0.0451145334	-0.1065120131	 2.5217539129	 0.384397
N	-1.1747014324	-0.6488749241	 2.7427048529	-0.518114
O	 0.5893633144	 0.6674799013	 3.2926531417	-0.375967
H	 0.9537257484	 1.9914888755	-0.0376790439	 0.143295
H	-0.5691908915	 1.9431031799	-0.9492244268	 0.125785
H	-0.5925371664	 1.9685624985	 0.8197868652	 0.135575
H	-1.0195720196	-0.3791306062	-0.0376965334	 0.081866
H	 1.6667165723	-0.0167583583	-1.4926601047	 0.097196
H	 0.7784246066	-1.5948654445	 1.1457853071	 0.099367
H	 2.0939056357	 0.5392922701	 2.0670750886	 0.297809
H	-1.5636254042	-1.3498456526	 2.1361111699	 0.273404
H	-1.6459265968	-0.4429993346	 3.6086779769	 0.272868
35.4952	49.0433	72.979	156.1279	174.179	246.846	258.3445	258.7179	327.6824	357.9491	419.7076	475.419	527.6371	545.3387	624.8566	662.1841	727.6252	855.7104	867.8971	928.4362	974.2379	1040.7205	1095.8843	1103.7102	1156.7705	1161.7406	1251.4463	1296.512	1305.5931	1360.4982	1366.1377	1403.1462	1422.6935	1464.4549	1493.7624	1501.1826	1622.044	1784.773	1826.412	2906.8618	2981.9366	3046.1692	3055.0361	3114.7075	3129.115	3601.5838	3627.8065	3733.8706
CC(C=O)C(O)C(N)=O	C[C@@H](C=O)[C@@H](O)C(=O)N	
InChI=1S/C5H9NO3/c1-3(2-7)4(8)5(6)9/h2-4,8H,1H3,(H2,6,9)	InChI=1S/C5H9NO3/c1-3(2-7)4(8)5(6)9/h2-4,8H,1H3,(H2,6,9)/t3-,4+/m0/s1
