13
gdb 133146	2.34482	1.85837	1.04343	5.455	64.63	-0.2689	-0.082	0.1869	1041.9557	0.087375	-497.854366	-497.846619	-497.845674	-497.887087	27.768	
C	-0.0315768089	 1.5274397184	 0.0099799046	-0.506291
C	-0.0085251037	 0.0282813866	-0.0429364999	 0.121649
C	-1.0855468102	-0.7501841998	 0.178892982	 0.07482
F	-2.2740261365	-0.2482243332	 0.4668872912	-0.036894
C	-1.0283738539	-2.2106987138	 0.1194517109	 0.381024
O	-1.9445947453	-2.9602555274	 0.3053961086	-0.320022
O	 0.2210963275	-2.729643809	-0.1830404006	-0.261807
N	 1.3515003714	-1.9621895194	-0.417453055	-0.060651
C	 1.2083539201	-0.6842582075	-0.3441017819	-0.004995
H	 0.6692091585	 1.8973919001	 0.7662425134	 0.154173
H	 0.2754960767	 1.9519922023	-0.9519948244	 0.154178
H	-1.0288939082	 1.8961838455	 0.2501826099	 0.15827
H	 2.1233235626	-0.1302616528	-0.5359343486	 0.146547
92.7402	111.0246	168.9514	272.1982	287.3023	314.4218	475.4754	512.3698	521.0414	561.1064	616.8458	665.9639	772.5436	859.9372	923.7737	946.6266	978.5769	1035.8556	1060.145	1151.1112	1280.149	1352.0595	1361.8098	1416.7891	1482.9224	1485.9633	1614.3439	1718.1801	1848.1422	3040.7409	3094.6191	3153.2271	3176.3559
CC1=C(F)C(=O)ON=C1	Cc1c(F)c(=O)onc1	
InChI=1S/C5H4FNO2/c1-3-2-7-9-5(8)4(3)6/h2H,1H3	InChI=1S/C5H4FNO2/c1-3-2-7-9-5(8)4(3)6/h2H,1H3
