20
gdb 12534	3.18923	1.84491	1.24658	1.1674	77.06	-0.2405	0.0222	0.2627	1014.3951	0.178005	-349.01223	-349.004216	-349.003272	-349.044758	30.607	
C	-0.2877232492	 1.4539468865	 0.0672276171	-0.393855
C	 0.0579438717	-0.0303394224	-0.0126140602	 0.133596
C	 0.7353723262	-0.3923811679	-1.3397093253	-0.179994
C	 0.7949806681	-1.8902879791	-1.6612646774	-0.266583
C	 1.4318375191	-2.8079418181	-0.648520104	-0.051055
C	 1.4780090372	-2.7011813213	 0.6796158527	-0.057695
C	 0.9259003344	-1.6192245707	 1.5751092804	-0.126789
O	 0.926009549	-0.2997536936	 1.0824898295	-0.248872
H	 0.6161278525	 2.0607960758	-0.0490700257	 0.123114
H	-0.9953807634	 1.7331915286	-0.7190502383	 0.109678
H	-0.7314434856	 1.6881538124	 1.0383423025	 0.118214
H	-0.8673530544	-0.6220166376	 0.1038362429	 0.058629
H	 0.2071481351	 0.1101765077	-2.1594076774	 0.088735
H	 1.7489729268	 0.024432222	-1.3075749168	 0.106738
H	-0.2290307679	-2.2533202596	-1.8470192413	 0.110379
H	 1.3144275918	-2.0172149929	-2.6188932253	 0.101619
H	 1.8663021409	-3.7089319666	-1.0791605097	 0.0852
H	 1.9353123858	-3.5215437221	 1.2316451052	 0.08442
H	-0.0970259216	-1.9067626463	 1.8871855704	 0.094309
H	 1.5259809833	-1.580709715	 2.4912100808	 0.110212
49.298	173.9516	216.6776	221.9816	322.1272	357.0053	365.9758	428.3457	469.3917	556.6966	694.7152	751.5816	776.3585	855.6299	872.8156	913.6246	955.1524	964.7653	1008.0116	1037.2395	1066.4158	1085.2113	1123.9833	1152.2544	1175.2254	1222.591	1255.3317	1282.8076	1304.9674	1333.3231	1379.7786	1382.5361	1398.7813	1409.039	1415.031	1429.6954	1468.2734	1477.7183	1478.2682	1485.8534	1499.6016	1736.6792	2915.6651	2946.3904	2980.6183	3024.0233	3040.3037	3044.8218	3056.7324	3071.8071	3112.6949	3120.4942	3121.6639	3145.4505
CC1CCC=CCO1	C[C@H]1CCC=CCO1	
InChI=1S/C7H12O/c1-7-5-3-2-4-6-8-7/h2,4,7H,3,5-6H2,1H3	InChI=1S/C7H12O/c1-7-5-3-2-4-6-8-7/h2,4,7H,3,5-6H2,1H3/t7-/m0/s1
