21
gdb 114348	3.14101	1.04303	1.02639	0.673	77.59	-0.2467	0.0718	0.3185	1281.3326	0.183552	-424.212525	-424.203631	-424.202687	-424.24644	34.203	
O	 0.0246006702	 1.3265724893	-0.1399904777	-0.426056
C	 0.0271688377	-0.0873555809	 0.0144585601	-0.098452
C	-1.4151045216	-0.5653233424	 0.0350653935	 0.06597
C	-2.2011175315	-0.2558139364	-1.266131978	-0.226541
C	-3.2373608068	-1.3699211765	-1.3983021481	-0.109812
C	-2.7567681556	-2.6954370003	-1.9450010748	 0.093281
O	-1.4840967936	-2.8205361353	-2.51246452	-0.412466
C	-2.8373248262	-2.5029989056	-0.4593921565	-0.082045
C	-1.5510684833	-2.0936506036	 0.2579017197	-0.261022
H	 0.9371525912	 1.625616073	-0.1866370098	 0.284489
H	 0.5582634563	-0.5787632738	-0.8178480246	 0.088037
H	 0.5337139743	-0.3829631027	 0.9478874675	 0.081504
H	-1.9228589749	-0.0511292234	 0.860817725	 0.077225
H	-2.6741410886	 0.727273229	-1.2254450162	 0.106026
H	-1.5184309378	-0.2429579917	-2.1248412235	 0.083482
H	-4.278372081	-1.10626118	-1.5514524981	 0.079244
H	-3.5109149678	-3.3416024322	-2.3949849871	 0.078308
H	-1.4970734594	-2.3873483523	-3.3725178537	 0.288463
H	-3.5798690811	-3.0747322161	 0.0857907432	 0.082588
H	-0.6902713778	-2.6240165016	-0.1640142022	 0.114135
H	-1.5985203429	-2.3426409867	 1.3216061112	 0.093641
45.5931	118.07	193.2429	235.4292	254.6294	278.9088	297.0954	398.5614	415.5961	503.0077	591.7821	598.4255	703.0732	768.3435	780.9764	833.7004	891.9868	910.9627	928.4614	1014.7102	1018.6266	1033.6726	1051.2547	1067.2455	1090.3099	1103.2382	1115.9041	1135.9314	1194.9165	1217.0344	1226.0685	1252.1626	1273.4384	1292.6361	1299.5184	1310.3811	1330.2834	1349.3452	1360.4025	1379.7268	1445.5165	1457.9416	1484.7708	1497.0227	1522.6394	2956.897	2984.2251	3023.7063	3033.5876	3046.3838	3089.9755	3093.1059	3103.7559	3159.7312	3171.317	3803.8341	3830.7386
OCC1CC2C(O)C2C1	OC[C@H]1C[C@H]2[C@@H](O)[C@H]2C1	
InChI=1S/C7H12O2/c8-3-4-1-5-6(2-4)7(5)9/h4-9H,1-3H2	InChI=1S/C7H12O2/c8-3-4-1-5-6(2-4)7(5)9/h4-9H,1-3H2/t4-,5+,6-,7+
