18
gdb 81643	2.67891	1.64649	1.48302	1.4626	71.54	-0.2386	0.0113	0.2499	983.6748	0.148907	-439.08818	-439.080453	-439.079509	-439.120057	30.5	
C	-0.0674684086	 1.4310338197	 0.0436953449	-0.467767
C	-0.0202067479	-0.0606498994	-0.0652373243	 0.364858
N	-0.0880952821	-0.6890721599	-1.1749025676	-0.315443
C	 0.0004934254	-2.1497717367	-1.0403733961	-0.051808
C	 1.1432952872	-2.5141373558	-0.0497929085	-0.259997
C	 0.1468737937	-2.1039936933	 1.0578339467	 0.061427
O	 0.1060304554	-0.6652959627	 1.1459839877	-0.261471
C	-0.9791797324	-2.5887019101	 0.0912081532	 0.152362
O	-2.2590301733	-2.0458180075	 0.162565811	-0.44169
H	 0.8598570668	 1.8049636437	 0.4894738325	 0.144231
H	-0.1978972532	 1.865391012	-0.9466716594	 0.149224
H	-0.8877013325	 1.7409411265	 0.6986030949	 0.143196
H	-0.0491725104	-2.6224484494	-2.0208195195	 0.077404
H	 1.3552695042	-3.5847245116	-0.0276339066	 0.11321
H	 2.0684615309	-1.9413085211	-0.1255241363	 0.115759
H	 0.2262606206	-2.4721961812	 2.0794228648	 0.088605
H	-1.0631570086	-3.6771361516	 0.1445812395	 0.095358
H	-2.2340151951	-1.1883503116	-0.279688267	 0.292544
128.3949	153.5989	239.7476	266.4714	334.8517	365.1706	408.8246	437.7321	567.4857	595.8653	621.7309	690.0443	780.4772	845.8867	851.4764	865.6075	888.1579	965.8365	981.1488	1034.0935	1052.6269	1065.464	1108.5835	1144.7235	1149.5976	1168.1645	1222.8668	1237.3483	1256.	1268.3753	1320.7682	1346.1895	1375.7899	1411.5748	1427.9804	1475.1384	1476.0036	1481.4392	1701.6891	3049.524	3076.7215	3085.2853	3106.9206	3113.3498	3130.5032	3142.682	3167.0808	3777.4743
CC1=NC2CC(O1)C2O	C[C]1[N][C@H]2C[C@@H](O1)[C@H]2O	
InChI=1S/C6H9NO2/c1-3-7-4-2-5(9-3)6(4)8/h4-6,8H,2H2,1H3	InChI=1S/C6H9NO2/c1-3-7-4-2-5(9-3)6(4)8/h4-6,8H,2H2,1H3/t4-,5+,6-/m0/s1
