23
gdb 117159	2.98227	0.75791	0.6328	2.8225	83.54	-0.2614	-0.0232	0.2382	1855.6198	0.202671	-425.460415	-425.449185	-425.448241	-425.497968	39.801	
C	-0.0383545944	 1.5710642663	 0.0947756078	-0.388028
C	-0.1450244324	 0.0448564597	 0.1108613314	-0.164641
C	 0.8566861382	-0.605526272	 1.0686054706	-0.285813
C	 0.8025451701	-2.1198519055	 1.073615698	 0.350999
O	 0.2398808004	-2.7535187075	 0.2030221309	-0.330825
C	 1.4740465161	-2.8843665101	 2.2196352147	 0.055559
O	 1.2555686255	-4.2604165448	 2.0566910787	-0.439574
C	 2.9821238748	-2.5777179609	 2.3151114546	-0.189542
C	 3.6543693381	-3.3610880297	 3.4446095427	-0.382362
H	 0.9578455251	 1.8985873201	-0.2236370915	 0.114895
H	-0.7670300411	 2.0084290831	-0.5942324943	 0.118768
H	-0.2233659287	 1.9966311454	 1.0875450862	 0.114423
H	-1.1592475378	-0.2576398767	 0.3957647054	 0.109614
H	 0.0142464005	-0.3589541679	-0.8935958724	 0.120683
H	 1.8832187936	-0.3173405619	 0.7974562393	 0.135012
H	 0.721636185	-0.2427716862	 2.096207679	 0.118631
H	 0.9955132056	-2.5398707849	 3.155046648	 0.082766
H	 0.7518862907	-4.3375042296	 1.2292534422	 0.291667
H	 3.4462246243	-2.834817406	 1.3547165133	 0.105153
H	 3.1250302659	-1.5014990681	 2.4679533263	 0.095453
H	 4.7299230685	-3.1623056269	 3.4715905488	 0.110297
H	 3.2365484661	-3.084539451	 4.4191224478	 0.112408
H	 3.502679166	-4.4337026648	 3.3049101724	 0.144458
43.4638	60.2709	82.0153	108.9611	126.6695	206.3048	237.304	248.5141	292.6191	323.3818	352.4939	404.9418	450.2238	497.7955	567.1286	715.8516	751.4829	783.2883	819.5823	889.6177	907.1178	931.5672	1001.2887	1049.6505	1054.3077	1059.7788	1089.4826	1138.4958	1145.0847	1188.1493	1243.3095	1268.3009	1293.7397	1315.7365	1333.1492	1345.5588	1375.3481	1395.6417	1407.3118	1415.5952	1441.6838	1450.2647	1476.7743	1488.376	1495.2711	1500.7807	1508.3676	1509.2137	1784.2977	2937.0761	3009.5571	3026.6437	3029.0915	3037.4587	3043.8388	3048.0961	3069.1355	3078.8352	3102.4196	3102.7197	3106.094	3132.5116	3663.1622
CCCC(=O)C(O)CC	CCCC(=O)[C@@H](O)CC	
InChI=1S/C7H14O2/c1-3-5-7(9)6(8)4-2/h6,8H,3-5H2,1-2H3	InChI=1S/C7H14O2/c1-3-5-7(9)6(8)4-2/h6,8H,3-5H2,1-2H3/t6-/m0/s1
