19
gdb 41509	2.91905	1.54045	1.06243	1.9029	83.12	-0.2331	0.0146	0.2477	1130.0773	0.161201	-385.876211	-385.868622	-385.867678	-385.908308	29.827	
C	 0.0287648365	 1.5441980384	 0.0206459441	-0.167143
O	 1.4621270658	 1.5097574983	-0.1994891119	-0.309245
C	 1.432028419	 0.0774559165	-0.4496865445	 0.07019
C	 2.3634045637	-0.759366785	 0.4156704004	-0.277705
C	 2.0931565794	-2.2342600747	 0.2234279259	-0.074951
C	 0.924195604	-2.8738846194	 0.1190107884	-0.034901
C	-0.5102051866	-2.4109505309	 0.2122013275	-0.301683
C	-0.842096228	-0.9431980596	 0.2710875769	-0.219118
C	-0.0196945022	 0.0368181973	-0.059338362	 0.275181
H	-0.2368255575	 2.0000234824	 0.9830488188	 0.114893
H	-0.4918397224	 2.0846788991	-0.7828450029	 0.108131
H	 1.626012877	-0.1285712795	-1.51234087	 0.086923
H	 3.4062278256	-0.5372688864	 0.1635726167	 0.10575
H	 2.2240573809	-0.464384844	 1.4630090339	 0.11573
H	 2.9835260889	-2.8549421805	 0.1486959349	 0.08715
H	 0.9861444621	-3.952270581	-0.0255180004	 0.086376
H	-1.0679819855	-2.8661331476	-0.6229281784	 0.123758
H	-0.9467494157	-2.8957141156	 1.1002362266	 0.123097
H	-1.8485464849	-0.7045245076	 0.610637106	 0.087564
90.1097	159.271	234.085	282.1339	325.1593	375.1453	424.3877	464.7824	588.4545	691.9612	712.8317	791.8862	820.6208	832.418	865.0256	942.6496	969.0878	979.9853	1000.1698	1005.144	1019.2977	1041.7603	1084.4517	1104.9784	1135.2264	1140.0568	1193.592	1237.1485	1251.355	1273.5414	1316.209	1332.6505	1363.3642	1386.2191	1396.8238	1432.4762	1455.0154	1487.3864	1510.2571	1724.7522	1813.9897	2975.9981	2988.5721	2990.9686	2998.8197	3029.5979	3039.4728	3069.7105	3119.913	3140.0175	3150.0537
C1OC2CC=CCC=C12	C1O[C@H]2CC=CCC=C12	
InChI=1S/C8H10O/c1-2-4-7-6-9-8(7)5-3-1/h1,3-4,8H,2,5-6H2	InChI=1S/C8H10O/c1-2-4-7-6-9-8(7)5-3-1/h1,3-4,8H,2,5-6H2/t8-/m0/s1
