14
gdb 20707	5.02751	1.50509	1.1667	4.3022	68.36	-0.2657	-0.0443	0.2215	976.5439	0.107864	-378.765796	-378.758667	-378.757723	-378.797414	25.568	
C	-0.0315872653	 1.4744284435	-0.0375944778	-0.490112
C	 0.006618563	-0.0175991591	 0.0370214933	 0.375178
N	-0.0203689123	-0.7498255452	-1.0620290678	-0.288017
N	 0.0275660982	-2.0407974013	-0.6260243181	-0.015862
C	 0.0180858456	-3.1350206966	-1.4989609434	 0.190077
O	-0.0316813738	-3.0683787783	-2.6924078128	-0.259208
C	 0.0849078728	-2.1168759544	 0.7468542132	 0.012525
C	 0.0731483995	-0.8359063864	 1.2106336481	-0.310624
H	 0.8595653196	 1.9148822368	 0.4224513143	 0.136054
H	-0.0815634605	 1.7942092142	-1.079740319	 0.152229
H	-0.902099763	 1.8733749155	 0.4942292036	 0.136042
H	 0.0634997982	-4.079575676	-0.9248072096	 0.095793
H	 0.1277999724	-3.0694125066	 1.2514265506	 0.148857
H	 0.1068720255	-0.5124313061	 2.2387786654	 0.11707
110.2239	135.0618	195.0788	219.0639	338.4874	368.7545	526.9558	627.9978	658.342	681.2585	777.3896	819.6118	860.7413	971.0297	986.2663	1022.3287	1040.9841	1065.3992	1089.2418	1212.4739	1298.1531	1364.2302	1417.5277	1427.0328	1456.325	1480.8191	1482.9972	1488.8957	1606.5115	1851.8154	2962.3627	3039.5132	3092.56	3142.757	3254.4302	3274.16
CC1=NN(C=O)C=C1	Cc1nn(C=O)cc1	
InChI=1S/C5H6N2O/c1-5-2-3-7(4-8)6-5/h2-4H,1H3	InChI=1S/C5H6N2O/c1-5-2-3-7(4-8)6-5/h2-4H,1H3
