25
gdb 86412	2.31404	1.53677	1.15158	0.0831	91.76	-0.2742	0.0823	0.3565	1222.3984	0.231785	-352.368776	-352.360185	-352.359241	-352.401266	35.467	
C	-0.8042458834	 1.0758260097	 0.8312670968	-0.406978
C	 0.1261735876	-0.0212339096	 0.3032881698	 0.033373
C	 0.8457293178	 0.4403360923	-0.9893548287	-0.207055
C	 2.1880113376	-0.2832784848	-1.2657505558	 0.033373
C	 3.1026019884	 0.5792947746	-2.1418062969	-0.406978
C	 2.8542679027	-0.6729695071	 0.0698150313	 0.007294
C	 1.9527256198	-1.6879886011	 0.820773	-0.245355
C	 1.1692584469	-0.458817753	 1.3520910533	 0.007294
C	 2.4960037511	 0.3440857576	 1.1953076443	-0.235893
H	-0.2327226377	 1.9578386255	 1.1443298074	 0.1128
H	-1.5147390833	 1.3987917579	 0.06238076	 0.108311
H	-1.3804730095	 0.7275981237	 1.6951975318	 0.107711
H	-0.4895462707	-0.9023735257	 0.0735554703	 0.065908
H	 0.1772418898	 0.3506898381	-1.8528271852	 0.088679
H	 1.055912522	 1.5133172584	-0.8923560012	 0.093347
H	 1.984650546	-1.2168260242	-1.8092839392	 0.065908
H	 3.3968220046	 1.4965485546	-1.6177132571	 0.1128
H	 4.0175573773	 0.0415472606	-2.4126575203	 0.107711
H	 2.6007558371	 0.8757472856	-3.0694700714	 0.108311
H	 3.907199407	-0.9323804867	-0.0738233675	 0.050261
H	 1.4036904863	-2.4232924197	 0.2221011767	 0.081068
H	 2.4940872389	-2.2048078285	 1.618476298	 0.087591
H	 0.7237397009	-0.5277871133	 2.3487589708	 0.050261
H	 3.142864621	 0.2142136454	 2.0670230154	 0.092041
H	 2.4459905219	 1.4091940896	 0.9517037177	 0.088219
127.901	172.4974	239.6919	249.6302	249.9196	341.4714	353.9104	420.2161	421.7606	474.6891	529.7013	541.312	743.7791	787.7992	829.5214	850.9793	897.5093	906.2298	924.75	927.1986	969.8355	978.9678	1004.2826	1030.9391	1056.9608	1060.1388	1066.6839	1085.4787	1120.0153	1135.0033	1152.0031	1190.7089	1193.3518	1246.5223	1254.6656	1272.2415	1279.771	1309.0479	1324.3648	1334.1051	1357.9679	1362.8672	1378.1419	1393.8633	1409.5235	1410.4561	1479.4737	1491.3982	1496.5126	1498.0469	1498.5647	1500.1834	1520.9297	2995.3083	2996.3956	3019.558	3021.9972	3024.7863	3033.3722	3049.7228	3057.5315	3062.9596	3065.1591	3088.4501	3088.9771	3092.3454	3093.9639	3094.357	3103.6501
CC1CC(C)C2CC1C2	C[C@H]1C[C@@H](C)[C@@H]2C[C@H]1C2	
InChI=1S/C9H16/c1-6-3-7(2)9-4-8(6)5-9/h6-9H,3-5H2,1-2H3	InChI=1S/C9H16/c1-6-3-7(2)9-4-8(6)5-9/h6-9H,3-5H2,1-2H3/t6-,7+,8-,9+
