21
gdb 59376	4.07026	0.83355	0.75728	3.7642	85.09	-0.2335	0.0249	0.2583	1548.005	0.182098	-383.269331	-383.259739	-383.258795	-383.303942	35.401	
C	 0.9203808348	-0.4260128744	-1.1762406358	-0.391022
C	 0.0534380379	-0.0240053085	 0.0192226468	 0.074194
C	-0.0221122908	 1.4972357594	 0.1690599552	-0.391022
N	-1.2899417021	-0.5671829718	-0.1453932065	-0.073323
C	-2.2499252701	-0.4298873703	 0.9666476857	-0.181145
C	-2.812443542	-1.8327836119	 0.5972892992	-0.160431
C	-1.4646842395	-2.0322565527	-0.1541932781	-0.181145
C	-3.1494157658	-2.7482123703	 1.6699209211	 0.268004
N	-3.4103141526	-3.4769330405	 2.5289278993	-0.325717
H	 1.9366077513	-0.0386700427	-1.0585028737	 0.117348
H	 0.990311379	-1.5137388015	-1.2760787544	 0.11729
H	 0.5001675578	-0.0250539039	-2.1041966769	 0.12381
H	 0.5158117576	-0.4402773689	 0.9382566583	 0.053966
H	-0.6275995072	 1.7877950208	 1.0333318848	 0.117291
H	 0.9780750668	 1.9173141792	 0.3096767637	 0.117347
H	-0.4662634706	 1.9470082093	-0.7247433062	 0.12381
H	-1.777715589	-0.4383605956	 1.9618546929	 0.108192
H	-2.9380788382	 0.4166884174	 0.8986392589	 0.120133
H	-3.6486293954	-1.7546583659	-0.1002168413	 0.134094
H	-1.508915594	-2.499675038	-1.1413278395	 0.120133
H	-0.7339052981	-2.5683679093	 0.4719356962	 0.108192
69.8009	78.7647	171.4077	211.8376	219.5852	226.9915	266.0821	314.3151	331.2545	450.0421	453.645	539.8185	563.7544	607.1156	741.5142	885.4577	901.6616	932.2012	949.5276	957.9061	994.7867	1043.6153	1080.7684	1100.9295	1116.9141	1126.3096	1175.5269	1187.1496	1198.8339	1239.874	1240.4833	1288.1547	1329.0075	1356.8308	1369.9059	1382.8546	1401.8695	1420.064	1485.2842	1488.1998	1498.7353	1504.0524	1511.9472	1528.1456	2357.2863	2882.6174	2977.0409	2985.9056	3035.6453	3039.5246	3081.5316	3084.1519	3102.0656	3105.6836	3107.844	3112.0088	3117.5353
CC(C)N1CC(C1)C#N	CC(C)N1CC(C1)C#N	
InChI=1S/C7H12N2/c1-6(2)9-4-7(3-8)5-9/h6-7H,4-5H2,1-2H3	InChI=1S/C7H12N2/c1-6(2)9-4-7(3-8)5-9/h6-7H,4-5H2,1-2H3
