19
gdb 75425	2.96052	1.27502	0.988	4.0901	78.07	-0.2322	0.0059	0.2381	1225.0725	0.161122	-419.251319	-419.242436	-419.241492	-419.284971	33.258	
C	-0.0781980958	 1.550990881	 0.0194117591	-0.486206
C	-0.0165465596	 0.0514501472	-0.018217913	 0.349993
C	-0.041936576	-0.6619301409	-1.1438601649	-0.147276
C	 0.0615752575	-2.1675045142	-1.1340652832	-0.227957
N	 1.3219884366	-2.6576991703	-0.5764120888	-0.322608
C	 1.888844583	-2.4200448345	 0.6568421767	 0.41582
O	 2.8477874087	-3.0737869057	 1.0391400402	-0.410114
N	 1.3912031333	-1.3889286529	 1.4299482394	-0.321262
C	 0.1204966668	-0.6790261142	 1.3052246241	-0.278131
H	 0.8264505652	 1.9676539523	 0.4804539848	 0.134648
H	-0.1779564187	 1.9765687345	-0.9824695113	 0.125119
H	-0.9260065578	 1.8981088528	 0.6242885257	 0.126115
H	-0.1074513855	-0.1643126813	-2.107552074	 0.090649
H	-0.8023554606	-2.6018432728	-0.604843522	 0.112987
H	 0.0113446212	-2.5459905682	-2.1576431693	 0.114751
H	 1.7238973346	-3.4791790874	-0.998778648	 0.248259
H	 1.8288531372	-1.3895973108	 2.3374044253	 0.248156
H	 0.0844381685	 0.0370368329	 2.1300436546	 0.11132
H	-0.7369620087	-1.3561393577	 1.4474953145	 0.115736
72.9053	111.3174	152.4495	204.7853	257.0648	324.3508	338.0449	383.0821	436.9434	479.4362	513.5605	539.3112	680.3355	717.3268	759.0225	773.2463	843.8441	870.0902	929.3337	993.1903	1039.3308	1060.8469	1069.1993	1130.5116	1171.9214	1198.1244	1283.5977	1287.8878	1315.9468	1360.4826	1378.6348	1412.2605	1433.0467	1464.3389	1470.4513	1479.0293	1489.4352	1509.6365	1513.2226	1743.6772	1783.6292	2958.3496	2970.008	3015.4638	3063.0654	3088.834	3092.3854	3114.0304	3163.3412	3640.4317	3643.7583
CC1=CCNC(=O)NC1	CC1=CCNC(=O)NC1	
InChI=1S/C6H10N2O/c1-5-2-3-7-6(9)8-4-5/h2H,3-4H2,1H3,(H2,7,8,9)	InChI=1S/C6H10N2O/c1-5-2-3-7-6(9)8-4-5/h2H,3-4H2,1H3,(H2,7,8,9)
