19
gdb 83268	1.84366	1.77907	1.57247	2.4981	69.86	-0.2426	0.0564	0.299	1013.6445	0.159503	-460.149613	-460.140974	-460.140029	-460.182274	33.968	
O	-0.1787388079	 1.4604845673	-0.2059015051	-0.428417
C	-0.1015696886	 0.0652968581	-0.0467149057	-0.005757
C	-0.4636773713	-0.6512929896	 1.2474270951	-0.150005
C	-1.1821762391	 0.1226579242	 2.3487571707	-0.231835
C	-2.3674098989	 0.8394411029	 1.6592181196	-0.249328
C	-2.643600695	 0.0612477277	 0.347680552	 0.074808
O	-3.0667885167	 0.8659022986	-0.7424866004	-0.455457
C	-1.3709345301	-0.7264663647	 0.0452489436	 0.35863
O	-1.5004407421	-1.9072326242	-0.6840674165	-0.47741
H	 0.5328516136	 1.8703035093	 0.297006958	 0.294319
H	 0.6877755108	-0.4122412981	-0.6261726245	 0.096916
H	 0.1645528585	-1.4929652505	 1.5197790391	 0.094199
H	-1.5406589443	-0.5917630018	 3.0977077055	 0.109666
H	-0.5251458104	 0.8239917038	 2.8756415582	 0.093296
H	-3.2537230188	 0.8816150422	 2.2971073827	 0.100548
H	-2.1012376155	 1.8664518528	 1.4018931128	 0.105059
H	-3.4460935659	-0.6704559168	 0.492975323	 0.091717
H	-2.3537308476	 1.4989050922	-0.8967042654	 0.291775
H	-1.8731343806	-1.6683252632	-1.5414505825	 0.287276
114.3393	171.2743	209.6537	239.3504	271.5207	290.4277	357.9888	380.0118	440.5437	514.1698	520.9939	570.9969	583.5102	686.602	733.5161	786.4299	848.7058	919.8268	940.0643	966.8256	986.3079	1051.004	1063.8103	1079.7033	1095.3124	1121.7848	1178.6356	1200.3759	1240.8018	1247.5456	1286.8751	1292.4895	1312.4552	1333.9056	1336.7137	1356.4477	1368.5005	1449.3368	1481.0836	1485.6971	1509.6374	3035.553	3051.4858	3067.4582	3072.5932	3112.5257	3120.1411	3168.1277	3774.8024	3782.4136	3803.5404
OC1C2CCC(O)C12O	O[C@H]1[C@H]2CC[C@@H](O)[C@@]12O	
InChI=1S/C6H10O3/c7-4-2-1-3-5(8)6(3,4)9/h3-5,7-9H,1-2H2	InChI=1S/C6H10O3/c7-4-2-1-3-5(8)6(3,4)9/h3-5,7-9H,1-2H2/t3-,4-,5+,6-/m1/s1
