20
gdb 82045	2.71587	1.50837	1.2713	0.8762	78.47	-0.2287	0.0697	0.2984	1085.523	0.171265	-403.085212	-403.076963	-403.076018	-403.118061	31.956	
C	-0.015591998	 1.6319547365	-0.3258861922	-0.418768
C	 0.0450311553	 0.1263080118	-0.1251807568	-0.047064
C	 1.0967529036	-0.6824050087	-0.9020723424	-0.060035
N	 2.4180519804	-0.2524159572	-0.3823325404	-0.343894
C	 1.6290065579	-1.2793979879	 0.349707981	-0.14746
C	 0.6435352896	-0.4749995486	 1.2012575127	 0.48058
C	 1.0839777761	 0.3285180919	 2.4359327885	-0.346242
C	 0.1131495731	-0.5889466444	 3.2028208742	-0.080566
O	-0.2882184369	-1.2499949142	 1.9811003914	-0.33098
H	 0.980685992	 2.072302703	-0.2316473104	 0.135335
H	-0.4042562903	 1.8788125008	-1.3201220741	 0.111164
H	-0.6756256757	 2.1036362821	 0.4103461039	 0.112238
H	-0.9408761818	-0.3353080042	-0.2431351052	 0.088752
H	 1.0051547287	-1.1136798195	-1.8916811117	 0.090497
H	 3.1316802781	-0.7492272766	-0.9148730423	 0.229734
H	 2.024807746	-2.2668473212	 0.5542334915	 0.095171
H	 2.1414197458	 0.2406701882	 2.6886985671	 0.115546
H	 0.8074813977	 1.3841039244	 2.4196203714	 0.112531
H	 0.5767237945	-1.2879497485	 3.9096936817	 0.100621
H	-0.7341396561	-0.0972677776	 3.6944600823	 0.10284
83.0002	120.4361	201.8331	227.5866	239.3032	288.1985	401.1506	456.6125	550.9605	570.4401	715.3975	782.3948	821.2867	841.4061	851.4757	870.5701	888.1848	930.3395	964.2772	984.7052	1011.2712	1021.431	1057.1561	1076.412	1114.3264	1119.4044	1149.4938	1159.0654	1175.784	1200.0514	1212.5342	1226.6498	1265.5905	1293.8795	1335.8898	1353.6251	1362.2322	1384.0812	1405.0328	1484.8269	1495.1844	1502.9762	1531.757	3018.6014	3031.1105	3059.8821	3061.8273	3083.1879	3090.5713	3118.8213	3136.8132	3180.0988	3194.6278	3472.9755
CC1C2NC2C11CCO1	C[C@H]1[C@H]2N[C@H]2[C@]21CCO2	
InChI=1S/C7H11NO/c1-4-5-6(8-5)7(4)2-3-9-7/h4-6,8H,2-3H2,1H3	InChI=1S/C7H11NO/c1-4-5-6(8-5)7(4)2-3-9-7/h4-6,8H,2-3H2,1H3/t4-,5+,6+,7+/m0/s1
