17
gdb 80282	2.48143	1.64452	1.29603	3.576	69.63	-0.2295	0.0513	0.2808	1028.7849	0.135835	-455.140583	-455.132295	-455.131351	-455.173065	32.021	
C	-0.2170184802	 1.432615124	-0.01036291	-0.474546
C	 0.0520327563	-0.0418380698	-0.0300878611	 0.362264
O	-1.0507489499	-0.8117084863	-0.4922551883	-0.267074
C	-1.1790977827	-1.9677220517	 0.2327983422	 0.433434
N	-2.1102328992	-2.8163833239	 0.1464273986	-0.58207
N	-0.0658339759	-2.0843817108	 1.0624832155	-0.358124
C	 0.6992859929	-0.8654495056	 1.0632390965	-0.154242
C	 1.4313455064	-0.6516770248	-0.2522613455	 0.05548
O	 1.6382967585	-1.7161314267	-1.1103755844	-0.427684
H	 0.6612727158	 1.9727334589	 0.3546800888	 0.125615
H	-0.4421427164	 1.7945602515	-1.0185858517	 0.142053
H	-1.0646527297	 1.6710696884	 0.6401805318	 0.131005
H	-2.799221123	-2.5210883088	-0.5408183442	 0.228446
H	-0.1610893624	-2.6453863954	 1.8923343759	 0.267895
H	 1.0445535036	-0.479352809	 2.0155861709	 0.109443
H	 2.2552075825	 0.0577826313	-0.246081577	 0.107816
H	 1.2928703134	-2.5073398814	-0.6721114679	 0.300288
108.0009	192.6502	203.5482	229.0799	259.3546	298.7357	351.9058	433.8052	457.4678	561.5908	627.0916	635.3804	717.9448	733.7558	783.3089	786.9528	838.0253	875.6839	935.1447	978.6964	1001.0688	1060.4113	1076.221	1107.8137	1132.9637	1168.9509	1224.2194	1247.4318	1323.5984	1355.052	1372.4282	1396.4654	1417.4097	1464.8699	1477.992	1500.7132	1789.2467	3036.9677	3106.0044	3115.5825	3142.1613	3172.57	3536.1144	3665.7575	3724.753
CC12OC(=N)NC1C2O	C[C@]12O[C]([NH])N[C@H]1[C@H]2O	
InChI=1S/C5H8N2O2/c1-5-2(3(5)8)7-4(6)9-5/h2-3,8H,1H3,(H2,6,7)	InChI=1S/C5H8N2O2/c1-5-2(3(5)8)7-4(6)9-5/h2-3,8H,1H3,(H2,6,7)/t2-,3+,5-/m0/s1
