21
gdb 114762	3.40856	1.19862	0.96669	1.0558	85.	-0.232	0.0143	0.2463	1285.9098	0.183089	-387.083836	-387.075328	-387.074384	-387.117002	33.201	
C	 0.0801305644	 1.5224644585	 0.1237442642	-0.386457
C	 0.0810705619	-0.0032553968	 0.0111956733	-0.181538
C	 0.6357217718	-0.5125465449	-1.3201907067	 0.094173
O	 1.9840429455	-0.040865167	-1.4089070132	-0.274587
C	 2.7359085516	-0.5385943596	-2.4772011157	 0.102073
C	 3.8254422403	-1.5170934047	-2.1304686218	-0.303943
C	 2.5600795716	-1.9852420372	-2.839768132	-0.099255
C	 1.4838902198	-2.7027907374	-2.1140027585	-0.100263
C	 0.5665907066	-2.0192417675	-1.4325086955	-0.072367
H	 1.0929640473	 1.9173361458	 0.0157286194	 0.136534
H	-0.5417668253	 1.9747447521	-0.6572857626	 0.10895
H	-0.3143002525	 1.8443155002	 1.0922822809	 0.107881
H	 0.6786950327	-0.4431196221	 0.8186779953	 0.105743
H	-0.9388488659	-0.3915840395	 0.1223715289	 0.09301
H	 0.0435437381	-0.0635300591	-2.1391360295	 0.073968
H	 2.9141895074	 0.1898634541	-3.2665421369	 0.085765
H	 4.7503036844	-1.4939987284	-2.6968450653	 0.109438
H	 3.9255089628	-1.7613793019	-1.0792771852	 0.122863
H	 2.6781011787	-2.2527525174	-3.8865086874	 0.095209
H	 1.4500308962	-3.7873342282	-2.1752477529	 0.092195
H	-0.2550585775	-2.518462059	-0.9265391387	 0.090607
82.4703	110.0217	182.7595	209.3302	244.0057	358.2082	393.4101	421.3152	498.0877	532.0665	593.4366	713.138	744.6123	783.5425	824.267	847.7741	858.4161	914.8248	966.2742	984.8044	991.5611	1019.3289	1041.0702	1053.8782	1067.452	1098.7454	1119.4198	1131.2806	1163.5626	1177.1323	1195.5136	1237.1783	1286.4766	1304.8401	1334.8692	1367.6486	1386.4765	1401.7302	1408.9146	1422.5486	1473.1295	1475.1974	1495.9637	1509.2197	1709.5123	2926.4538	3028.3063	3035.8694	3067.1403	3100.3722	3109.9601	3128.4234	3134.062	3139.74	3153.0444	3176.5566	3231.6075
CCC1OC2CC2C=C1	CC[C@H]1O[C@H]2C[C@H]2C=C1	
InChI=1S/C8H12O/c1-2-7-4-3-6-5-8(6)9-7/h3-4,6-8H,2,5H2,1H3	InChI=1S/C8H12O/c1-2-7-4-3-6-5-8(6)9-7/h3-4,6-8H,2,5H2,1H3/t6-,7-,8+/m1/s1
