18
gdb 51019	2.44404	1.27901	0.99087	3.3954	80.45	-0.2594	0.0182	0.2776	1245.8882	0.145616	-401.897246	-401.88803	-401.887085	-401.931766	33.739	
N	 0.1231513366	 1.3531456995	-0.1836564422	-0.441989
C	 0.0885175578	 0.0931606536	-0.1222881039	 0.113227
O	-1.1049690884	-0.5407769962	-0.1637111048	-0.227201
C	-1.1111141678	-1.9526713899	 0.0605411999	 0.232805
C	-0.9465591475	-2.4242020282	 1.5443388496	-0.268489
C	-2.1777842461	-3.3470796858	 1.3468425337	-0.214795
C	-2.5614945565	-2.5110976871	 0.0971249337	-0.267419
C	-0.2414291121	-2.6638869647	-0.8705534385	 0.313308
C	 0.4711503848	-3.2670176231	-1.6283430251	-0.48556
H	 1.0895958299	 1.6723857955	-0.1560227648	 0.228565
H	 0.9476238319	-0.5833314488	-0.0486597376	 0.100929
H	 0.0063825101	-2.8773697056	 1.8212240098	 0.111092
H	-1.1655006528	-1.5863144877	 2.2108448836	 0.124317
H	-1.8869459372	-4.3666745805	 1.0850636883	 0.118389
H	-2.9038806263	-3.3855625729	 2.159690266	 0.110727
H	-3.2435364846	-1.6935865542	 0.3404347214	 0.128763
H	-2.9122196375	-3.0304435941	-0.7949800755	 0.117105
H	 1.0972294657	-3.7943364999	-2.3056108838	 0.206226
70.622	87.0245	115.2051	148.9935	181.8205	232.6017	383.8532	395.2706	470.9426	511.3889	553.3822	622.2551	678.0836	692.8118	751.1491	796.4314	821.6832	870.8508	921.3023	936.4515	961.9803	1043.0521	1052.0416	1057.6	1068.431	1145.0019	1191.4764	1207.6509	1251.8459	1272.8736	1277.3312	1284.4998	1302.7803	1423.4129	1467.6285	1483.7429	1502.6113	1741.9835	2229.1756	3057.1762	3071.1129	3078.2608	3082.1189	3124.8043	3137.9847	3147.9833	3498.3616	3513.2044
N=COC1(CCC1)C#C	[NH][CH]OC1(CCC1)C#C	
InChI=1S/C7H9NO/c1-2-7(9-6-8)4-3-5-7/h1,6,8H,3-5H2	InChI=1S/C7H9NO/c1-2-7(9-6-8)4-3-5-7/h1,6,8H,3-5H2
