16
gdb 8901	2.63175	1.57412	1.05818	2.4202	57.86	-0.2723	-0.0393	0.233	1075.5418	0.127783	-458.014739	-458.00565	-458.004706	-458.048815	32.028	
O	 0.4295406312	 0.3764877829	 0.9776125181	-0.400679
C	-0.0701095043	 0.1705331206	-0.3299851142	-0.108195
C	-1.4672417646	-0.5005388271	-0.3647260435	 0.0165
O	-1.9697234776	-0.4391355433	-1.6711994181	-0.429833
C	-1.4075225339	-1.950903736	 0.1049132017	 0.336064
O	-1.6427101763	-2.8416934596	-0.6918639988	-0.347642
C	-1.0678415197	-2.2907410857	 1.5388548864	-0.140886
O	-1.0241066807	-3.6718772632	 1.7496183192	-0.41983
H	-0.0615914083	 1.0997787532	 1.3805441777	 0.292991
H	-0.1550024334	 1.1057103954	-0.8973769884	 0.122723
H	 0.6540140429	-0.4655798384	-0.8486072979	 0.12935
H	-2.1257879312	 0.0571701672	 0.3227804146	 0.086539
H	-2.0560544154	-1.3615648886	-1.9609579831	 0.298814
H	-0.1135505658	-1.8072650845	 1.7920620817	 0.15351
H	-1.8278184872	-1.8087761199	 2.1791604867	 0.114469
H	-1.2916682159	-4.075182793	 0.9104196381	 0.296106
61.0012	95.2723	139.1087	190.4795	238.6829	294.0101	335.6293	367.2339	376.4688	385.3417	435.9615	511.1917	583.3629	693.3131	847.8764	940.9772	1014.4855	1044.6951	1051.3699	1088.5247	1138.9187	1164.4346	1167.2593	1247.6002	1296.3207	1315.4908	1327.9662	1383.5287	1399.487	1443.2992	1449.3077	1485.6828	1503.4072	1769.1247	2956.7068	2969.0923	3029.4158	3031.3683	3093.4213	3685.4689	3719.4116	3818.5682
OCC(O)C(=O)CO	OC[C@@H](O)C(=O)CO	
InChI=1S/C4H8O4/c5-1-3(7)4(8)2-6/h3,5-7H,1-2H2	InChI=1S/C4H8O4/c5-1-3(7)4(8)2-6/h3,5-7H,1-2H2/t3-/m1/s1
