17
gdb 112232	2.03477	1.40422	0.94571	2.6556	75.44	-0.2409	-0.0254	0.2155	1238.319	0.133028	-421.79018	-421.78088	-421.779936	-421.824756	33.867	
O	-0.0843778306	 1.4010683137	-0.3444523787	-0.422066
C	 0.0129966739	-0.014104718	-0.3029771735	-0.091198
C	-1.3278721868	-0.5408890189	 0.1771365895	-0.016198
C	-2.4751399305	-0.316584551	-0.8521047123	-0.347766
C	-2.3715903546	-1.7978581178	-1.2307991039	 0.392888
O	-2.7323698727	-2.4600590396	-2.1534463642	-0.279229
C	-1.4930949059	-2.1006984699	 0.0278276858	-0.323948
C	-0.3446971164	-2.967726507	-0.0929056801	 0.328161
C	 0.6133329725	-3.6834589736	-0.2202350173	-0.439159
H	 0.7509098279	 1.7512022118	-0.6676234405	 0.290494
H	 0.2424742204	-0.4311034827	-1.2972262495	 0.097451
H	 0.8084213642	-0.3491445799	 0.3786376866	 0.102903
H	-1.5303367929	-0.165444939	 1.1811990053	 0.091645
H	-3.4425764861	-0.0848101585	-0.3953607521	 0.134319
H	-2.2854643484	 0.4041323374	-1.6501541717	 0.145943
H	-2.1692315539	-2.4691794812	 0.8105500772	 0.135696
H	 1.45411947	-4.3225598358	-0.3311664305	 0.200064
57.284	111.2196	116.1491	135.6344	248.9825	270.7947	338.1624	368.6139	417.6584	423.4547	542.2349	585.0622	615.5736	649.0357	706.5261	744.4916	822.8593	880.3769	909.9197	1021.633	1033.142	1067.9215	1079.7705	1089.0875	1118.6642	1175.8028	1205.1497	1238.0874	1264.4452	1275.3906	1315.5301	1362.8798	1440.9116	1465.1131	1518.2174	1903.7368	2232.8555	2971.5491	3013.0881	3027.46	3063.5209	3102.5479	3126.8557	3503.4923	3831.8167
OCC1CC(=O)C1C#C	OC[C@H]1CC(=O)[C@H]1C#C	
InChI=1S/C7H8O2/c1-2-6-5(4-8)3-7(6)9/h1,5-6,8H,3-4H2	InChI=1S/C7H8O2/c1-2-6-5(4-8)3-7(6)9/h1,5-6,8H,3-4H2/t5-,6+/m1/s1
