15
gdb 29215	3.20205	1.36399	0.95763	4.3006	73.47	-0.1865	-0.0215	0.165	1140.2726	0.11469	-454.013579	-454.005683	-454.004739	-454.045679	30.727	
N	 0.0721561599	 1.4479647972	 0.1507092218	-0.599253
C	 0.0139065753	 0.0466099966	 0.0434887717	 0.156976
C	-1.1407723808	-0.673312922	 0.0134619015	-0.036858
N	-1.1263082783	-2.0435528068	-0.018067268	-0.37762
C	 0.021137607	-2.848945346	-0.0238265192	 0.436395
O	-0.0740073449	-4.0685398156	-0.053317257	-0.41979
C	 1.2413190261	-2.0735894044	 0.0031224974	-0.426929
C	 1.2364303394	-0.7096032006	 0.0340086513	 0.42162
O	 2.3643171766	 0.0482839204	 0.0462594558	-0.442804
H	 0.944903218	 1.8169605212	-0.2023031849	 0.25853
H	-0.7094169313	 1.9167924915	-0.2870368639	 0.243605
H	-2.1168006081	-0.2038900338	 0.0183222199	 0.121245
H	-1.995699176	-2.555733953	-0.0406218858	 0.257433
H	 2.1699794816	-2.6336938662	-0.0083151481	 0.099878
H	 3.1356574656	-0.5286855585	 0.0229013275	 0.307573
122.3736	193.2665	206.5084	315.9731	344.9321	369.1786	400.8546	448.5604	454.2354	531.5402	588.753	616.4678	698.168	726.7883	738.9066	761.5209	807.469	838.2697	844.337	935.3575	1104.596	1176.8308	1204.8396	1239.4221	1247.2709	1308.8668	1388.3884	1446.3705	1527.5845	1604.5796	1645.4866	1701.5588	1776.0097	3190.3136	3205.4742	3547.1136	3624.1626	3643.103	3817.7639
NC1=CNC(=O)C=C1O	Nc1c[nH]c(=O)cc1O	
InChI=1S/C5H6N2O2/c6-3-2-7-5(9)1-4(3)8/h1-2H,6H2,(H2,7,8,9)	InChI=1S/C5H6N2O2/c6-3-2-7-5(9)1-4(3)8/h1-2H,6H2,(H2,7,8,9)
