19
gdb 92996	3.17418	1.03598	0.86977	2.506	77.84	-0.2496	-0.0222	0.2274	1339.9417	0.15838	-423.042185	-423.033267	-423.032322	-423.07688	32.777	
O	 0.1043119122	 1.4291737767	 0.0369259145	-0.424398
C	 0.0080339744	 0.0134994166	 0.0332653014	 0.100827
C	 0.6770004302	-0.604615971	 1.2860311343	-0.283359
C	-0.4836513094	-0.7625163368	 2.2423158725	-0.089694
C	-1.6540934463	-0.695962506	 1.6070979403	-0.068906
C	-1.4695157892	-0.4818033456	 0.1175757812	-0.07514
C	-2.4949892296	 0.4625786761	-0.5412295581	-0.270957
C	-3.8493984236	-0.2007403223	-0.6180125245	 0.153709
O	-4.8293971246	 0.1507147261	-0.0121511764	-0.243149
H	-0.23908766	 1.741779869	 0.8824460644	 0.283535
H	 0.4857735932	-0.2975922149	-0.8992665922	 0.085838
H	 1.1313350041	-1.5788832174	 1.0576607026	 0.112609
H	 1.4814675234	 0.0417809941	 1.6526120417	 0.112342
H	-0.3547472059	-0.9424428756	 3.3036353052	 0.099509
H	-2.6312458685	-0.8025158272	 2.0650042776	 0.11358
H	-1.530228261	-1.4558817621	-0.3948405826	 0.087442
H	-2.5879631271	 1.40013897	 0.0103956451	 0.114921
H	-2.1619525434	 0.6921735658	-1.5617082044	 0.121129
H	-3.8829940988	-1.0945866156	-1.2864670725	 0.070162
45.8423	73.6772	102.2643	177.9901	269.3502	290.7574	383.598	395.6257	446.0009	482.1936	562.7762	711.3415	769.1864	785.7041	816.0509	853.3391	884.894	944.8758	955.7674	977.7576	999.2848	1025.9438	1078.7323	1097.7466	1107.7318	1142.3505	1175.5693	1199.5749	1232.3039	1241.1436	1294.475	1305.2898	1325.1382	1355.727	1385.9204	1427.8816	1433.92	1460.2314	1475.4391	1673.1088	1831.7553	2843.4374	2969.2599	3013.8524	3034.8699	3070.855	3084.6984	3119.9679	3186.4677	3210.6313	3788.4517
OC1CC=CC1CC=O	O[C@H]1CC=C[C@H]1CC=O	
InChI=1S/C7H10O2/c8-5-4-6-2-1-3-7(6)9/h1-2,5-7,9H,3-4H2	InChI=1S/C7H10O2/c8-5-4-6-2-1-3-7(6)9/h1-2,5-7,9H,3-4H2/t6-,7-/m0/s1
