20
gdb 76122	2.94182	1.34414	1.11012	1.7991	85.01	-0.2302	0.033	0.2631	1172.946	0.168952	-365.942202	-365.932856	-365.931912	-365.975747	35.677	
C	-0.1262477675	 1.6612039526	 0.1009780919	-0.418376
C	 0.0510758856	 0.1501377132	 0.0849853206	-0.061714
C	 1.1611612428	-0.5226421387	-0.8026541691	-0.176087
C	 2.0898935663	 0.3248966136	-1.5250401347	 0.374641
C	 2.8525754012	 1.0417086099	-2.1184424111	-0.478458
N	 1.7238690134	-1.27788579	 0.3901913449	-0.174847
C	 2.1519990353	-0.2390593277	 1.3522148791	-0.292929
C	 0.7114430205	-0.5554440718	 1.2749569528	 0.352427
C	-0.0444898623	-1.253829297	 2.3668740328	-0.494415
H	 0.8156146761	 2.1809403713	 0.2938580638	 0.126149
H	-0.5073498716	 2.0181384031	-0.8613087023	 0.122346
H	-0.843258063	 1.9551739602	 0.8753793019	 0.114957
H	-0.9080478678	-0.3267439312	-0.1400115834	 0.082452
H	 0.7325948832	-1.2582041905	-1.4881645594	 0.10998
H	 3.5306777303	 1.6609344622	-2.651984689	 0.199648
H	 2.7043074856	-0.6570036812	 2.1885170697	 0.117968
H	 2.5539281885	 0.6952957289	 0.9704102478	 0.123051
H	-0.4917032453	-0.5285596947	 3.0570928193	 0.122295
H	-0.8519028585	-1.8707460533	 1.9572938153	 0.120712
H	 0.6190955071	-1.903711959	 2.9446315492	 0.130197
107.096	129.679	175.1563	187.2339	194.5411	240.0917	296.619	342.5508	411.843	475.1432	531.7708	593.2064	622.6689	651.4233	660.4878	716.741	749.2099	804.4806	874.7146	916.2307	962.528	983.3591	1051.0941	1057.1951	1093.7143	1099.7409	1121.0955	1132.0499	1156.1284	1217.8738	1247.3417	1302.5513	1342.2401	1361.1515	1396.9778	1413.1971	1425.9598	1482.5865	1491.5819	1491.9121	1493.6679	1508.225	2226.6554	3025.9815	3036.0956	3051.5569	3072.7158	3087.0987	3099.7925	3109.6605	3115.2824	3120.1692	3201.0704	3502.0886
CC1C(C#C)N2CC12C	C[C@H]1[C@@H](C#C)N2C[C@@]12C	
InChI=1S/C8H11N/c1-4-7-6(2)8(3)5-9(7)8/h1,6-7H,5H2,2-3H3	InChI=1S/C8H11N/c1-4-7-6(2)8(3)5-9(7)8/h1,6-7H,5H2,2-3H3/t6-,7+,8-,9?/m0/s1
