20
gdb 11964	2.72653	1.95855	1.71302	1.7049	74.4	-0.2535	0.0821	0.3356	911.535	0.175478	-348.982988	-348.974546	-348.973602	-349.015328	32.46	
C	-0.4007278474	 1.5164820228	 0.0905837241	-0.455925
C	-0.0020113265	 0.0456681913	 0.0245285391	 0.240106
C	-1.189990856	-0.835861431	-0.3729614182	-0.426607
C	 1.2917857637	-0.2864286118	-0.7976942383	-0.263777
C	 1.8223375511	-1.158490006	 0.3794337881	-0.324076
C	 0.7349345663	-0.5344838149	 1.2525522421	 0.442548
C	 0.8456652962	 0.0115913505	 2.6062028611	-0.268258
O	 0.0965772628	-1.1837385017	 2.3380909564	-0.275778
H	 0.4427477277	 2.1474347405	 0.3895014418	 0.108895
H	-0.7529191799	 1.8679237978	-0.8861227438	 0.114114
H	-1.2135890201	 1.6758386382	 0.8085859392	 0.117238
H	-1.5940674627	-0.5225156364	-1.3419066581	 0.108583
H	-0.9021583856	-1.8890349202	-0.4517461589	 0.115504
H	-1.9886769167	-0.7691989389	 0.372260391	 0.124317
H	 1.1342961396	-0.7976130199	-1.7499768967	 0.099477
H	 1.9089086404	 0.5985590792	-0.9726277978	 0.09953
H	 1.6554553727	-2.2284368799	 0.2271148915	 0.116687
H	 2.859176158	-1.0079187955	 0.68867151	 0.104084
H	 1.7654695076	-0.1323935004	 3.1729414495	 0.110769
H	 0.2520843186	 0.8760348562	 2.9011669478	 0.112566
79.6833	195.5017	210.7938	220.6095	267.6502	296.9052	341.81	351.2081	442.556	485.7055	567.2194	649.2948	748.1264	850.1362	864.9213	883.115	913.9491	941.6626	950.9088	971.5599	999.2786	1022.2063	1117.5097	1133.3036	1144.3819	1167.6208	1182.8589	1215.6211	1234.0016	1250.5027	1271.2462	1306.8771	1398.9966	1414.3639	1426.875	1474.2572	1481.0371	1486.7924	1496.0826	1501.2989	1505.9863	1535.2802	3021.1897	3030.7642	3059.6742	3064.4012	3075.428	3086.2127	3094.1638	3098.8648	3105.6925	3106.9191	3122.1952	3160.707
CC1(C)CCC11CO1	CC1(C)CC[C@]21CO2	
InChI=1S/C7H12O/c1-6(2)3-4-7(6)5-8-7/h3-5H2,1-2H3	InChI=1S/C7H12O/c1-6(2)3-4-7(6)5-8-7/h3-5H2,1-2H3/t7-/m1/s1
