21
gdb 60437	4.09078	0.64962	0.59915	2.4221	76.51	-0.2419	0.0611	0.303	1879.9544	0.18135	-457.588351	-457.577369	-457.576425	-457.625391	39.348	
C	-0.4416404469	 1.3120479954	 0.3231028996	-0.402645
C	 0.0704302891	-0.0835569368	-0.0316593725	 0.129193
O	 1.0343193154	-0.0267472571	-1.0866671544	-0.439297
C	 0.7556202266	-0.7671382114	 1.1479768805	-0.156815
C	 1.2167520268	-2.1900562408	 0.8136082812	-0.162706
N	 1.8922630496	-2.8368045733	 1.9332840893	-0.336025
C	 1.1564276272	-3.4179405938	 2.9371272531	 0.44165
N	 1.9124159453	-4.1610794767	 3.8426294823	-0.564225
O	-0.055304349	-3.3187678659	 3.0199505749	-0.394429
H	 0.3855816142	 1.9509566119	 0.6485018496	 0.121884
H	-0.917776551	 1.7859248945	-0.5434334963	 0.100914
H	-1.1845900509	 1.2653164009	 1.1257677809	 0.120355
H	-0.7849713901	-0.7056956856	-0.3464942968	 0.068522
H	 0.6144575529	 0.3797807408	-1.8509114744	 0.280307
H	 1.6194538975	-0.1648452972	 1.4550418619	 0.093537
H	 0.062032355	-0.8143911979	 1.9923658449	 0.122317
H	 0.3494497564	-2.7927700255	 0.519434925	 0.119256
H	 1.9105696657	-2.1608808037	-0.0287082166	 0.116276
H	 2.8239856703	-3.1826644236	 1.774904382	 0.240082
H	 2.8525590224	-3.8431543642	 4.0276809145	 0.24394
H	 1.3904988836	-4.3766608497	 4.6789639611	 0.257909
46.8184	55.5665	77.8175	117.256	189.8202	240.8985	258.8659	288.5595	304.8419	335.2659	395.8141	420.2486	451.1904	489.9294	528.7675	577.0649	676.2807	770.7156	784.3003	861.3285	908.4224	945.2111	991.8979	1034.5947	1079.6843	1094.0109	1135.5582	1144.4845	1164.582	1227.4092	1294.0901	1303.7801	1330.5437	1343.5898	1381.2407	1404.7059	1411.0317	1428.9037	1472.7504	1486.7535	1492.9647	1498.9439	1534.3414	1628.1729	1796.9828	2953.1652	3026.04	3033.9398	3045.0117	3092.6856	3095.9072	3112.5412	3122.7563	3569.1401	3642.6431	3681.5594	3821.9532
CC(O)CCNC(N)=O	C[C@@H](O)CCNC(=O)N	
InChI=1S/C5H12N2O2/c1-4(8)2-3-7-5(6)9/h4,8H,2-3H2,1H3,(H3,6,7,9)	InChI=1S/C5H12N2O2/c1-4(8)2-3-7-5(6)9/h4,8H,2-3H2,1H3,(H3,6,7,9)/t4-/m1/s1
