19
gdb 110996	2.82427	1.48348	1.22769	3.0237	75.11	-0.2316	0.0062	0.2378	1066.8459	0.159689	-422.981223	-422.973139	-422.972194	-423.013456	32.579	
O	 0.3280499306	 0.5404628123	 0.9822897307	-0.42955
C	-0.1215668079	 0.3615000224	-0.3513682253	-0.110303
C	-1.4886360003	-0.3154384172	-0.3689122012	 0.000821
C	-2.0335798652	-0.9826869024	-1.6944017993	-0.111625
C	-1.0921006103	-2.1962806732	-1.3767140737	-0.290629
C	-1.5300355044	-1.8171620644	 0.0819143041	 0.362301
O	-0.8111652171	-2.1705822188	 1.2295736286	-0.501007
C	-3.0427066883	-2.0893055669	-0.0072711401	-0.15971
C	-3.3708410759	-1.5356768426	-1.1774483134	-0.082095
H	 0.3011781164	-0.3300515358	 1.3991312172	 0.295486
H	-0.2021774178	 1.3639216698	-0.7875172746	 0.104287
H	 0.6201768027	-0.1865457394	-0.9509119634	 0.083634
H	-2.2078657196	 0.3218955702	 0.1518657275	 0.079466
H	-2.0088824303	-0.4693579225	-2.6535645086	 0.070162
H	-1.402978244	-3.1735108295	-1.7526041984	 0.091577
H	-0.035846214	-2.0150238118	-1.5848134364	 0.103157
H	-0.7748621307	-3.1303161734	 1.3002155025	 0.28579
H	-3.6438200587	-2.5857342024	 0.7416303186	 0.103062
H	-4.3302230548	-1.4584594242	-1.6692144851	 0.105176
105.4637	165.7959	206.1741	263.4806	349.5365	380.5343	394.4395	491.5386	496.9663	535.5683	578.896	646.2239	688.1876	711.2264	814.4368	855.0694	885.2715	901.812	915.9623	957.3066	1000.1353	1028.935	1047.5757	1056.3767	1083.8526	1099.2079	1118.0278	1153.8053	1200.9347	1218.2019	1227.5855	1245.5951	1263.3048	1315.4838	1324.4566	1367.1923	1402.7635	1450.6867	1489.1204	1518.6679	1624.6113	2990.3661	3053.9346	3068.965	3082.0445	3133.8545	3137.6305	3217.1047	3244.381	3776.7771	3810.101
OCC1C2CC1(O)C=C2	OC[C@H]1[C@H]2C[C@]1(O)C=C2	
InChI=1S/C7H10O2/c8-4-6-5-1-2-7(6,9)3-5/h1-2,5-6,8-9H,3-4H2	InChI=1S/C7H10O2/c8-4-6-5-1-2-7(6,9)3-5/h1-2,5-6,8-9H,3-4H2/t5-,6+,7-/m1/s1
