25
gdb 105100	2.72951	1.05958	0.94463	0.15	92.81	-0.2549	0.0851	0.34	1431.4347	0.229517	-352.335854	-352.326167	-352.325223	-352.370812	37.472	
C	-0.0835041059	 1.6556075929	-0.0645286413	-0.402521
C	-0.1932487344	 0.1446341982	 0.1664576556	-0.26214
C	 0.6572464503	-0.4551036582	 1.2860775414	 0.36696
C	 1.9354707527	 0.225982363	 1.7280446825	-0.307424
C	 0.7206876222	 0.2495279874	 2.623889547	-0.31146
C	 0.6835517053	-1.9722889234	 1.3452817434	-0.002055
C	-0.6253475697	-2.8181423368	 1.310764888	-0.241958
C	 0.1537420637	-3.9051558828	 0.5227726535	-0.208231
C	 1.2041803373	-2.8249912734	 0.1483865956	-0.239911
H	 0.9203164921	 1.9480396126	-0.3869701453	 0.119903
H	-0.7801562323	 1.9644135886	-0.8500621503	 0.11268
H	-0.330955499	 2.2326251559	 0.8321550916	 0.118385
H	-1.2447264255	-0.1001424477	 0.3652578853	 0.100796
H	 0.0568514737	-0.3611274279	-0.7749465285	 0.097448
H	 2.7716125801	-0.404846709	 2.0119726719	 0.104073
H	 2.2295048629	 1.1545263488	 1.2533137594	 0.107533
H	 0.1998106143	 1.1932714437	 2.742234383	 0.106901
H	 0.7273090166	-0.3621068769	 3.5202597393	 0.105096
H	 1.2526685626	-2.2648954015	 2.2361019416	 0.060536
H	-1.0784729378	-3.0938869046	 2.2664351902	 0.091124
H	-1.3926061541	-2.3537459199	 0.6849001803	 0.100052
H	 0.5747739178	-4.6637739151	 1.1891519901	 0.099146
H	-0.3667762303	-4.4118753697	-0.2931988632	 0.093288
H	 0.9723158627	-2.3639962971	-0.8162982867	 0.100189
H	 2.2602576146	-3.1066817871	 0.1500601055	 0.091591
47.857	73.5052	126.2172	189.5797	222.8895	274.3904	300.5312	341.036	348.5822	481.1427	498.7064	576.5343	701.8537	770.0377	776.8062	784.3818	815.8256	896.8888	898.5314	927.9345	932.3801	935.6923	957.8165	965.1827	1028.9517	1045.1582	1047.6404	1055.8544	1079.1899	1083.9855	1130.6126	1140.0789	1187.8029	1199.6404	1236.1614	1252.2683	1263.0518	1267.0025	1277.0249	1294.0514	1309.3068	1318.029	1388.1041	1402.1347	1419.4085	1467.8501	1476.9908	1487.0933	1491.1536	1500.9005	1509.9509	1512.0279	1516.1532	3015.0361	3023.5679	3039.4927	3042.606	3052.5842	3054.4799	3060.1447	3095.2489	3103.01	3103.2427	3109.1015	3118.0255	3130.6653	3136.4482	3207.536	3223.0379
CCC1(CC1)C1CCC1	CCC1(CC1)C1CCC1	
InChI=1S/C9H16/c1-2-9(6-7-9)8-4-3-5-8/h8H,2-7H2,1H3	InChI=1S/C9H16/c1-2-9(6-7-9)8-4-3-5-8/h8H,2-7H2,1H3
