19
gdb 81388	2.6826	1.51753	1.25205	1.3638	80.14	-0.2439	0.049	0.2929	1068.6126	0.159729	-385.837151	-385.829133	-385.828189	-385.86933	32.002	
C	-0.3863957506	 1.5354727379	-0.2184504195	-0.441907
C	-0.0385804189	 0.0653579676	-0.0606534589	 0.042861
C	 1.1226187964	-0.6314902666	-0.816039574	 0.055635
C	 2.3843930838	 0.1793766086	-0.454702725	-0.2519
C	 2.1596130211	 0.2150975386	 1.1021218101	-0.155619
C	 2.1900518022	 1.5164448383	 1.7458955259	 0.30924
C	 2.2270556241	 2.5786194157	 2.3096186333	-0.464709
C	 0.7910463898	-0.5371378047	 1.1039894932	 0.030845
O	 1.1137524904	-1.6561830481	 0.2296076745	-0.292282
H	 0.4778169613	 2.193113831	-0.1150694993	 0.136125
H	-0.8360028282	 1.7109756091	-1.2022018768	 0.115171
H	-1.1191361963	 1.8394984932	 0.5363599023	 0.123212
H	-0.9278756169	-0.559831329	-0.1760993512	 0.090222
H	 1.0275528148	-1.0240959578	-1.8287120911	 0.080091
H	 3.2973937027	-0.3544489953	-0.7230986121	 0.113769
H	 2.4099950345	 1.1729911273	-0.9064677899	 0.113949
H	 2.8876638249	-0.436613287	 1.5944696911	 0.115624
H	 2.2562656945	 3.5184252317	 2.8029867933	 0.194145
H	 0.3703752304	-0.8176049404	 2.0693907743	 0.085528
122.9118	148.4616	204.575	256.269	285.3191	351.0927	462.8724	504.7252	515.7789	597.2121	628.4569	633.4599	712.6946	737.7087	806.345	830.0751	871.9734	905.7236	942.0801	956.396	982.7695	1044.0664	1056.9743	1080.2595	1088.23	1140.3053	1161.7976	1183.4554	1207.8406	1228.6309	1273.2514	1292.8424	1298.0694	1333.0999	1340.4224	1396.4508	1422.6644	1486.8764	1498.2434	1508.555	2230.9624	3038.8287	3060.0105	3078.3325	3081.124	3095.5438	3120.0525	3128.5413	3132.98	3144.227	3503.2179
CC1C2CC(C#C)C1O2	C[C@H]1[C@H]2C[C@@H](C#C)[C@@H]1O2	
InChI=1S/C8H10O/c1-3-6-4-7-5(2)8(6)9-7/h1,5-8H,4H2,2H3	InChI=1S/C8H10O/c1-3-6-4-7-5(2)8(6)9-7/h1,5-8H,4H2,2H3/t5-,6+,7+,8+/m0/s1
