18
gdb 117857	4.28924	0.74679	0.68467	4.0659	76.12	-0.2471	0.0121	0.2592	1647.4322	0.146394	-435.270163	-435.260003	-435.259059	-435.306322	35.113	
C	 0.2955700542	 1.558912283	 0.8160898061	-0.230055
O	-0.1316246792	 0.2175574958	 0.9070563783	-0.245824
C	 0.7386277288	-0.6866440378	 0.2615595741	-0.11455
C	 0.2739256075	-2.1099535296	 0.5141799185	 0.342705
N	-0.3965270807	-2.2830995858	 1.6918200637	-0.542898
N	 0.6284677653	-2.9915025033	-0.3476867153	-0.299477
C	 0.3423620082	-4.3906718016	-0.070844242	-0.291519
C	-1.0889835769	-4.7110601156	 0.0850818902	 0.248843
N	-2.216837126	-4.9159929263	 0.2406561044	-0.32252
H	 0.3483986715	 1.8949450054	-0.2298707756	 0.117057
H	-0.436294167	 2.1700781721	 1.348524723	 0.134539
H	 1.2854971141	 1.7000398123	 1.2762291492	 0.112355
H	 0.7736110497	-0.5221054497	-0.8225898897	 0.128525
H	 1.7652612293	-0.575643294	 0.6500129137	 0.114186
H	-0.7505175331	-1.4303770509	 2.1013798076	 0.271741
H	-0.9897571919	-3.0919818583	 1.7986825803	 0.274189
H	 0.7294337945	-4.9953143835	-0.8971694689	 0.156523
H	 0.8507363217	-4.7407128323	 0.8421535725	 0.14618
55.2906	66.2506	91.1334	106.5274	185.2062	223.8606	242.4798	308.1859	365.0986	373.4306	415.3403	481.7651	547.216	598.9905	665.2225	698.1451	873.4377	906.0821	983.511	1010.325	1029.7157	1032.4847	1159.4945	1163.6793	1186.5615	1229.6343	1246.4887	1270.0516	1343.5598	1368.6993	1414.4586	1468.7158	1477.4645	1485.9161	1496.1846	1517.9576	1644.7336	1733.0893	2341.7446	2966.3758	2983.0134	2983.4802	3032.8143	3049.1433	3072.1708	3123.7919	3565.5344	3675.1282
COCC(N)=NCC#N	COCC(=NCC#N)N	
InChI=1S/C5H9N3O/c1-9-4-5(7)8-3-2-6/h3-4H2,1H3,(H2,7,8)	InChI=1S/C5H9N3O/c1-9-4-5(7)8-3-2-6/h3-4H2,1H3,(H2,7,8)
