18
gdb 11072	2.50619	2.19698	1.67158	0.8987	68.28	-0.2171	0.0657	0.2828	881.4117	0.15175	-384.899225	-384.89077	-384.889826	-384.931386	31.771	
C	-0.0518981184	 1.5903644433	 0.0272656896	-0.49836
C	 0.0402772647	 0.0939324312	 0.045433001	 0.179626
C	 0.6725439005	-0.7858444713	-1.0251565083	-0.132459
O	 1.1357242863	-1.7437817679	-0.0328286528	-0.32573
C	 0.6372543821	-0.9120810746	 1.0245191685	 0.384198
C	 1.4140876168	-0.8240690878	 2.2946260988	-0.501882
C	-0.8617360853	-0.8021562519	 0.8766823339	-0.026016
O	-1.5578186683	-0.1042165658	 1.8698264984	-0.423988
H	 0.9275703499	 2.0492924777	-0.1469321383	 0.115654
H	-0.7264245661	 1.9322973112	-0.7672839422	 0.120547
H	-0.4459188404	 1.9616994117	 0.9756382527	 0.142059
H	 0.0096054822	-1.2455671405	-1.7688724097	 0.100449
H	 1.5233137094	-0.313982332	-1.5326466066	 0.104754
H	 2.4171584245	-0.4208849405	 2.1243850521	 0.129181
H	 0.8941568386	-0.176182198	 3.0055806516	 0.128091
H	 1.5229916377	-1.8176824257	 2.7458126837	 0.128712
H	-1.407163014	-1.6215312668	 0.4002493535	 0.08262
H	-1.6622967101	-0.6901852625	 2.6268276843	 0.292545
154.3197	182.4316	189.9017	205.7553	247.6338	281.7267	317.2195	341.8167	409.4098	461.2178	537.0924	658.1116	686.4687	744.7773	863.9024	914.3534	975.3792	984.5468	994.3099	1050.4411	1096.7302	1118.4051	1149.9209	1154.7861	1192.4841	1236.954	1245.205	1302.2664	1348.0655	1362.0853	1405.416	1418.567	1471.5173	1481.0183	1491.4306	1497.0765	1507.4051	1521.6309	3010.2114	3025.9259	3029.7498	3056.6233	3059.175	3080.1574	3091.7853	3120.432	3128.6637	3805.8359
CC12COC1(C)C2O	C[C@@]12CO[C@]1(C)[C@H]2O	
InChI=1S/C6H10O2/c1-5-3-8-6(5,2)4(5)7/h4,7H,3H2,1-2H3	InChI=1S/C6H10O2/c1-5-3-8-6(5,2)4(5)7/h4,7H,3H2,1-2H3/t4-,5-,6+/m0/s1
