19
gdb 63236	2.53846	1.616	1.32019	2.284	76.4	-0.2493	0.0098	0.259	1046.0812	0.159073	-423.024093	-423.01579	-423.014846	-423.056513	32.814	
C	 0.3529035287	 1.5034104128	-0.0084288254	-0.410662
C	-0.0330172924	 0.0244386117	-0.0434423601	 0.292006
O	-1.4703620241	-0.0039774257	 0.0299465555	-0.458578
C	 0.4167484601	-0.6330726798	-1.3250159541	-0.09641
C	 1.0389828529	-1.8072352483	-1.4072999818	-0.070416
C	 1.4318118191	-2.6552335542	-0.2289463198	-0.308306
C	 1.2121627584	-1.9752637533	 1.1018638255	 0.042287
O	 1.9346621257	-0.7575552987	 1.3162096077	-0.262912
C	 0.513363863	-0.6838255242	 1.1891698178	 0.007255
H	 1.4400736788	 1.6068384637	 0.0158004054	 0.137787
H	-0.0401282419	 2.0169896586	-0.8903310927	 0.117989
H	-0.0696637619	 1.9786032089	 0.8819672957	 0.121393
H	-1.7486204356	-0.903042662	-0.1772307901	 0.275104
H	 0.1607134979	-0.0898695828	-2.2317085377	 0.093241
H	 1.2930827012	-2.2061896816	-2.3866987216	 0.095256
H	 0.8652131473	-3.5978486479	-0.2454658013	 0.114319
H	 2.4870013856	-2.9500189713	-0.3141566475	 0.126141
H	 1.1956060613	-2.6336305875	 1.9710233025	 0.091572
H	-0.0172715741	-0.4232446684	 2.1056053519	 0.092934
87.1862	200.7439	232.6716	253.2615	312.943	337.47	363.7483	391.2751	430.0518	527.7211	533.0433	576.9582	708.5254	747.7605	800.6845	864.9464	904.5783	915.7659	948.1732	953.577	999.9273	1008.7173	1036.8796	1072.5378	1085.9316	1146.5326	1151.7628	1194.7001	1236.4924	1278.8357	1300.4664	1343.3333	1363.8349	1379.2299	1404.1393	1430.893	1462.9746	1472.2561	1486.482	1494.3323	1727.2505	3004.4897	3030.1682	3044.6426	3099.2868	3112.474	3116.8595	3136.2636	3143.2791	3166.0245	3802.8207
CC1(O)C=CCC2OC12	C[C@@]1(O)C=CC[C@H]2O[C@@H]12	
InChI=1S/C7H10O2/c1-7(8)4-2-3-5-6(7)9-5/h2,4-6,8H,3H2,1H3	InChI=1S/C7H10O2/c1-7(8)4-2-3-5-6(7)9-5/h2,4-6,8H,3H2,1H3/t5-,6-,7-/m1/s1
