21
gdb 79964	1.83008	1.73191	1.54937	1.3401	83.09	-0.2227	0.0182	0.2409	1073.3724	0.18192	-387.086876	-387.077856	-387.076912	-387.119669	35.575	
C	 0.2189229896	 1.7710090909	-0.3816273461	-0.420131
C	 0.3012431192	 0.2697424953	-0.2164411402	-0.06839
C	 1.5802308165	-0.5548300101	-0.4167112478	-0.162955
C	 2.8755027875	 0.1581390674	-0.2274306895	-0.08345
C	 3.0319411946	 0.5757408389	 1.0320785175	-0.091148
C	 1.8851019589	 0.1432367524	 1.9255640243	-0.082389
C	 1.3026120555	 1.2272761415	 2.8436374472	-0.410701
C	 0.9015724889	-0.5024758856	 0.937143481	 0.362616
O	 0.2104906129	-1.6307458229	 1.3966811934	-0.472958
H	 1.1523888374	 2.2639366177	-0.1029089815	 0.126356
H	 0.008944252	 2.0251248359	-1.4269419047	 0.112676
H	-0.5858912727	 2.1974749647	 0.2274181731	 0.111689
H	-0.5657572258	-0.2602119223	-0.606867842	 0.085985
H	 1.5206519444	-1.4349953225	-1.047391205	 0.092489
H	 3.579907836	 0.3240179075	-1.0351307705	 0.093618
H	 3.8772933914	 1.1417516067	 1.4089569767	 0.091213
H	 2.2353445195	-0.6753179944	 2.5736265026	 0.09302
H	 0.9522039067	 2.0969123983	 2.2825904627	 0.123188
H	 0.4576149357	 0.8306199567	 3.4178004434	 0.105906
H	 2.0517763366	 1.5727998561	 3.5638265045	 0.113637
H	-0.5867907148	-1.3288425021	 1.8449883508	 0.279727
146.1308	186.9372	210.5705	228.3738	239.2801	260.1944	276.7312	312.0575	375.6921	462.7705	537.9119	577.4616	593.7467	697.4907	744.9402	759.1841	807.1503	881.5333	905.3863	934.244	959.7962	988.0921	1027.83	1052.0665	1076.1535	1094.9579	1102.3114	1122.9298	1125.7482	1155.9833	1195.3774	1258.7442	1305.0711	1319.8909	1336.4081	1342.8513	1380.1148	1407.0595	1411.856	1449.0109	1494.4043	1496.1529	1504.8454	1506.5254	1662.7693	2982.9259	3029.2449	3032.6391	3082.2888	3090.7163	3116.5986	3122.4035	3132.5847	3170.4003	3178.7329	3202.9922	3797.3878
CC1C2C=CC(C)C12O	C[C@H]1[C@H]2C=C[C@@H](C)[C@@]12O	
InChI=1S/C8H12O/c1-5-3-4-7-6(2)8(5,7)9/h3-7,9H,1-2H3	InChI=1S/C8H12O/c1-5-3-4-7-6(2)8(5,7)9/h3-7,9H,1-2H3/t5-,6+,7-,8-/m1/s1
