18
gdb 86239	2.48891	1.20591	0.8709	5.2145	72.24	-0.2698	0.036	0.3058	1293.2358	0.147736	-439.104986	-439.095842	-439.094898	-439.139806	33.437	
O	-0.0395485312	 1.4490128563	-0.0431608835	-0.431287
C	 0.0491706527	 0.0377563445	 0.0254229492	 0.130318
C	 0.6294132834	-0.5135133958	 1.3372626543	-0.295415
C	 0.0927392749	-1.9494204859	 1.3897692838	 0.115615
O	 0.0721860847	-2.5457234113	 2.6689946398	-0.430803
C	-1.3743191005	-1.7928470595	 0.9005882261	-0.134393
C	-1.3785195522	-0.5484210834	-0.0392305002	-0.243686
C	-1.897697305	-3.0065552765	 0.2832196519	 0.263883
N	-2.3005760578	-3.9636360418	-0.2247224433	-0.330692
H	 0.8514004757	 1.8064415949	-0.1106274761	 0.285544
H	 0.6391196559	-0.3466355704	-0.8210857111	 0.07553
H	 1.7219934764	-0.4634552926	 1.3867062107	 0.091479
H	 0.2183588004	 0.0534383216	 2.1806034871	 0.119495
H	 0.6418755486	-2.580229161	 0.675455556	 0.091215
H	 0.9655189774	-2.8220055404	 2.8945589678	 0.2907
H	-1.9706972009	-1.5913934834	 1.7966143545	 0.140146
H	-2.0763144559	 0.2062306271	 0.3303813565	 0.133044
H	-1.6740203866	-0.8006794924	-1.0583305935	 0.129306
26.3241	129.6695	142.7487	208.6577	235.782	267.9587	299.8395	389.1205	444.2024	468.5232	498.6931	505.5824	571.5437	625.9929	800.1951	875.0577	931.6163	945.6568	1001.9654	1040.3502	1070.9698	1094.4727	1103.8546	1125.9837	1150.9143	1190.3736	1228.5267	1256.5361	1282.0295	1286.7882	1310.2657	1339.7008	1361.1193	1384.6704	1433.499	1434.7407	1488.7391	1502.1239	2357.8278	2974.9361	2996.2453	3041.2392	3060.7346	3082.9378	3093.9199	3133.4435	3821.5873	3831.0666
OC1CC(O)C(C1)C#N	O[C@H]1C[C@@H](O)[C@@H](C1)C#N	
InChI=1S/C6H9NO2/c7-3-4-1-5(8)2-6(4)9/h4-6,8-9H,1-2H2	InChI=1S/C6H9NO2/c7-3-4-1-5(8)2-6(4)9/h4-6,8-9H,1-2H2/t4-,5+,6+/m0/s1
