20
gdb 6293	3.8445	1.06026	0.96279	2.9979	72.53	-0.2499	-0.0254	0.2245	1290.8825	0.172438	-386.152639	-386.142438	-386.141494	-386.188612	35.46	
C	-0.0933419288	 1.496401655	-0.0749354795	-0.388033
C	 0.0307514242	-0.0287990205	-0.0620767702	 0.149785
C	 0.8856587894	-0.5492312012	-1.2116730648	-0.387894
O	 0.6550216994	-0.4779424629	 1.1450009925	-0.279485
C	-0.1851913202	-0.6080669705	 2.2744956317	 0.035373
C	-0.8590017793	-1.975814864	 2.3685216683	-0.394537
C	 0.6844810006	-0.3089285863	 3.49326262	 0.148903
O	 0.4657541136	-0.7172738601	 4.6030903813	-0.244663
H	 0.8989246724	 1.9552026488	-0.020207481	 0.124442
H	-0.5832480476	 1.835807141	-0.9931853003	 0.116901
H	-0.6856386151	 1.8609465931	 0.7700568454	 0.115031
H	-0.9735664458	-0.4733242905	-0.1350341031	 0.072219
H	 1.9017490523	-0.1489788244	-1.1371224653	 0.125538
H	 0.9453098041	-1.640167338	-1.1818084907	 0.122173
H	 0.4648790683	-0.2464340752	-2.1750566394	 0.114264
H	-0.9582744862	 0.1818445426	 2.2742571935	 0.094765
H	-0.1050841708	-2.7663206999	 2.3204397743	 0.131188
H	-1.3900564895	-2.0602221474	 3.3196574772	 0.139527
H	-1.5703118457	-2.1213406601	 1.5512467704	 0.115891
H	 1.5514966446	 0.3468294505	 3.2578047996	 0.088612
37.7378	64.2926	78.1237	175.7849	210.3347	213.4197	248.0783	251.7425	323.4553	385.8905	411.4065	438.5159	485.7834	619.6946	813.4279	838.1649	903.5707	917.7036	926.3672	942.566	1014.223	1105.9527	1141.8909	1143.115	1147.8401	1168.3903	1201.8207	1324.4915	1327.7102	1366.5696	1378.4335	1397.5273	1400.1076	1409.294	1417.2426	1480.3095	1483.8932	1484.9463	1493.6165	1495.3876	1508.5068	1838.4246	2898.706	2943.5203	2984.6314	3036.0137	3043.3307	3049.9635	3106.2811	3110.8859	3118.0035	3124.0529	3124.4093	3135.9561
CC(C)OC(C)C=O	CC(C)O[C@@H](C)C=O	
InChI=1S/C6H12O2/c1-5(2)8-6(3)4-7/h4-6H,1-3H3	InChI=1S/C6H12O2/c1-5(2)8-6(3)4-7/h4-6H,1-3H3/t6-/m0/s1
