16
gdb 68772	2.53652	1.77045	1.2829	1.0653	66.25	-0.2497	0.0107	0.2604	981.3363	0.123541	-475.016221	-475.007941	-475.006996	-475.048732	31.523	
O	 0.0596332302	 1.3408200306	 0.0873783053	-0.470141
C	 0.0532075006	-0.0433755312	 0.0500113917	 0.313949
C	-0.294314059	-0.8596750052	 1.2712163986	-0.388034
C	-1.2226218116	-0.8504227228	 0.0715289284	 0.267056
O	-2.4683644109	-0.2554731961	 0.155979999	-0.475572
C	-1.0352124578	-1.9174019676	-0.9400470161	 0.368155
N	-1.9897703261	-2.6159752958	-1.3841207731	-0.576388
O	 0.2665941813	-1.9625200422	-1.3334277066	-0.247814
C	 0.9517146529	-0.7382991418	-0.9607992344	-0.145297
H	-0.821649809	 1.6409063922	-0.1706827412	 0.301016
H	 0.2755647323	-1.7502438536	 1.5191433369	 0.124592
H	-0.6698495934	-0.2856142952	 2.1109781981	 0.137577
H	-3.060340234	-0.8277662146	-0.3551939352	 0.305233
H	-1.6949013829	-3.233387958	-2.1401504783	 0.232573
H	 1.0767699301	-0.1127930954	-1.8511301894	 0.125746
H	 1.9339173173	-1.0204449831	-0.5723270637	 0.12735
112.4515	164.8811	190.2234	227.3785	287.9271	314.0485	343.0466	421.7606	465.4482	508.109	594.5941	651.5306	682.4291	727.4925	806.8602	864.9079	890.9468	923.488	949.2191	973.6223	1037.8139	1062.8017	1085.5808	1106.2401	1204.2851	1221.3513	1233.7779	1304.5907	1337.7345	1393.4162	1414.2818	1438.8848	1498.1498	1517.32	1777.3512	3048.3734	3103.45	3123.6093	3228.0133	3498.2227	3727.0001	3765.5297
OC12CC1(O)C(=N)OC2	O[C@@]12C[C@]1(O)[C]([NH])OC2	
InChI=1S/C5H7NO3/c6-3-5(8)1-4(5,7)2-9-3/h6-8H,1-2H2	InChI=1S/C5H7NO3/c6-3-5(8)1-4(5,7)2-9-3/h6-8H,1-2H2/t4-,5+/m1/s1
