17
gdb 41686	3.95535	1.53087	1.2824	0.9651	72.32	-0.2245	0.012	0.2365	980.2059	0.137903	-421.808397	-421.801706	-421.800762	-421.839241	27.147	
C	 0.1778626736	 1.3215257118	-0.244184984	 0.002206
O	 1.2931932231	 1.9040638305	 0.4157036038	-0.268041
C	 1.9720724661	 0.8616772143	 1.0708978414	 0.028601
C	 2.4044617851	-0.3407104214	 0.2258004733	-0.233965
C	 3.1921370946	-1.3566402685	 0.9785918938	-0.076042
C	 2.4818953612	-1.9342529876	 1.9542406864	-0.080393
C	 1.0508719497	-1.4378757035	 2.008348606	-0.369563
C	 1.0692015934	-0.3217602247	 0.9912144892	 0.425994
O	-0.1276129624	 0.1020426593	 0.4047931469	-0.301128
H	-0.6815139794	 1.9954972127	-0.1757274559	 0.122496
H	 0.4273062529	 1.1330340733	-1.3011706085	 0.097241
H	 2.5313078799	 1.1936691491	 1.9381070931	 0.111863
H	 2.5070161164	-0.2300916098	-0.8484053826	 0.099479
H	 4.2325886393	-1.5672909779	 0.7579522883	 0.100366
H	 2.8592460644	-2.6783680339	 2.6454443988	 0.099674
H	 0.3336859209	-2.2217285002	 1.7278402407	 0.122124
H	 0.7602183212	-1.0839674237	 3.0044452294	 0.11909
174.8257	213.1201	242.4223	356.0877	408.4516	442.9096	502.9646	696.1904	708.677	734.2613	770.4558	806.996	892.748	936.7417	945.4933	952.449	961.3836	992.986	1016.0703	1022.5972	1045.5988	1053.9948	1125.8468	1141.5052	1152.2836	1171.6943	1210.5238	1222.4972	1261.2075	1268.8177	1338.6726	1362.6934	1408.6289	1437.5834	1481.8165	1545.2324	1660.2365	2965.2247	3016.6558	3056.649	3078.4773	3168.3418	3178.0088	3188.1605	3214.0782
C1OC2C3C=CCC23O1	C1O[C@@H]2[C@H]3C=CC[C@@]23O1	
InChI=1S/C7H8O2/c1-2-5-6-7(5,3-1)9-4-8-6/h1-2,5-6H,3-4H2	InChI=1S/C7H8O2/c1-2-5-6-7(5,3-1)9-4-8-6/h1-2,5-6H,3-4H2/t5-,6-,7+/m1/s1
