16
gdb 80280	2.52764	1.58971	1.3023	5.1321	64.44	-0.2484	0.0431	0.2915	1014.0722	0.123873	-475.046279	-475.038102	-475.037158	-475.078762	30.937	
C	-0.0461682274	 1.5060903201	-0.0390276045	-0.490696
C	 0.0604253182	 0.0075955097	 0.033717252	 0.247571
N	-1.1158798245	-0.7751184973	-0.2588937032	-0.436363
C	-1.3132919545	-1.8037261261	 0.6522768849	 0.468102
O	-2.2434687624	-2.5514952198	 0.7332148062	-0.378482
O	-0.2013173403	-1.8667248634	 1.4533373291	-0.228749
C	 0.6830631782	-0.8108135756	 1.1518630631	-0.010129
C	 1.3283507398	-0.7898920145	-0.2267497114	 0.053203
O	 1.3280374763	-1.8980781964	-1.0538153338	-0.424703
H	 0.8963995428	 1.9688450622	 0.2652193092	 0.136667
H	-0.2607227387	 1.8402097828	-1.0606582476	 0.132645
H	-0.8372322229	 1.8785891997	 0.6208967133	 0.133885
H	-1.9114471054	-0.4014018625	-0.7492808379	 0.267288
H	 1.1674095244	-0.3965622094	 2.0281312597	 0.118941
H	 2.2507556399	-0.2180170664	-0.2881782013	 0.112867
H	 0.4317466066	-2.003516173	-1.4003197778	 0.297952
111.6184	195.8225	207.9353	216.0314	245.8798	299.2838	337.0774	414.4402	496.0606	555.2881	628.8993	650.2794	724.8973	768.1135	786.7969	837.1321	891.2619	939.7272	984.8158	1015.9696	1066.1649	1121.9061	1130.512	1161.5157	1202.8121	1226.1323	1298.7801	1350.0259	1352.8264	1393.6699	1419.1876	1474.4983	1486.0408	1500.6456	1898.8238	3029.6313	3092.6828	3116.9214	3145.979	3184.2205	3663.5559	3750.2617
CC12NC(=O)OC1C2O	C[C@]12NC(=O)O[C@H]1[C@H]2O	
InChI=1S/C5H7NO3/c1-5-2(7)3(5)9-4(8)6-5/h2-3,7H,1H3,(H,6,8)	InChI=1S/C5H7NO3/c1-5-2(7)3(5)9-4(8)6-5/h2-3,7H,1H3,(H,6,8)/t2-,3+,5-/m1/s1
