22
gdb 87152	2.76303	1.29062	1.11827	2.6222	83.03	-0.222	0.0784	0.3004	1218.8015	0.19223	-404.304957	-404.295296	-404.294352	-404.338892	37.636	
C	-0.2529883063	 1.2846017215	-0.1695827528	-0.318938
N	 0.0712687577	-0.1112359737	 0.0772698548	-0.132159
C	 1.4535366092	-0.5598950571	-0.0867824856	-0.2841
C	 0.8286542091	-0.5260282352	 1.272401792	 0.243615
C	 1.3044205274	 0.5055099038	 2.2752363283	-0.494749
C	 0.2856180361	-1.8338492012	 1.8239524159	 0.408326
O	-0.3084296894	-2.6230739769	 0.8353143434	-0.475579
C	 1.0000903226	-2.6106517502	 2.8851188815	-0.316109
C	-0.3138575864	-1.9212297957	 3.2116010903	-0.332985
H	 0.5639947985	 1.9872372978	 0.0500535259	 0.103827
H	-0.5176018539	 1.4000591834	-1.2256151153	 0.12822
H	-1.1232256891	 1.5698437873	 0.4299082111	 0.126706
H	 1.582235338	-1.5034580855	-0.6084202227	 0.12616
H	 2.2044014748	 0.1986743798	-0.3049834577	 0.102761
H	 1.795998791	 1.3478673776	 1.7852361437	 0.121419
H	 0.4741506688	 0.8976369929	 2.8713256058	 0.128694
H	 2.0315939534	 0.0659138428	 2.9642737987	 0.13116
H	-0.7471944473	-1.9809592885	 0.251998211	 0.280859
H	 0.9863648472	-3.6885183439	 2.7700304488	 0.123506
H	 1.91389458	-2.2138675717	 3.3136572612	 0.108082
H	-0.2933819191	-1.061761198	 3.8720968562	 0.10373
H	-1.1931190324	-2.548001339	 3.3041394855	 0.117555
67.1741	150.0894	171.0146	176.9645	247.0203	300.0992	304.6238	329.0779	385.7896	434.2997	447.218	460.9008	552.8436	584.9958	620.0913	762.1447	770.8107	809.7724	896.9907	899.331	935.0713	946.8545	976.744	991.9683	1049.7052	1062.0989	1074.3076	1090.4583	1127.0198	1149.3987	1164.5982	1190.1226	1198.5942	1221.2593	1270.6304	1334.7266	1363.8889	1414.2157	1434.6938	1447.8255	1451.0531	1484.214	1489.3999	1501.6858	1501.8779	1510.9552	1513.438	2992.7878	3045.1545	3070.2335	3092.0503	3101.729	3106.7588	3127.2936	3136.2988	3139.5219	3190.2138	3219.0117	3233.6788	3656.4067
CN1CC1(C)C1(O)CC1	CN1C[C@]1(C)C1(O)CC1	
InChI=1S/C7H13NO/c1-6(5-8(6)2)7(9)3-4-7/h9H,3-5H2,1-2H3	InChI=1S/C7H13NO/c1-6(5-8(6)2)7(9)3-4-7/h9H,3-5H2,1-2H3/t6-,8?/m1/s1
