16
gdb 78076	4.05599	1.02558	0.87789	4.1342	67.62	-0.2476	-0.0026	0.245	1264.0534	0.122983	-474.978135	-474.969764	-474.96882	-475.01131	30.924	
O	 0.0396116563	 1.3969471582	 0.1211911465	-0.432471
C	 0.0951798061	 0.0033314709	 0.0848349995	 0.104869
C	-1.2674684727	-0.7269692156	 0.1343568905	-0.094485
C	-1.0719096929	-1.260305007	-1.2646485787	-0.073681
C	 0.2861845517	-0.5647055097	-1.3974052261	 0.047124
O	 0.1968403166	 0.4685458875	-2.3586553191	-0.431784
N	-0.9688455198	-2.1277243292	-0.0998067085	-0.083866
C	-1.8425130925	-3.1650129258	 0.1840447418	 0.14196
O	-2.5069354135	-3.2560102413	 1.1865289544	-0.290714
H	-0.269153331	 1.6772348	-0.7532858543	 0.283958
H	 0.813913769	-0.3360104172	 0.8342393696	 0.100541
H	-2.1736333677	-0.4395601548	 0.6525134891	 0.12978
H	-1.7950320658	-1.4493282993	-2.0495672206	 0.121035
H	 1.1445643077	-1.2201742158	-1.5776557296	 0.088559
H	 1.0721813296	 0.8568946999	-2.4622579852	 0.301888
H	-1.7988044211	-3.9533570708	-0.5916696392	 0.087287
90.1206	139.7186	157.8402	220.877	243.9184	305.5679	351.1971	392.4834	434.0569	560.4364	595.3441	687.6287	771.3231	814.3126	874.4688	897.9065	924.774	986.774	1008.4071	1031.5099	1050.1494	1103.5638	1136.4101	1156.4141	1197.9568	1214.9731	1241.0216	1249.0126	1286.0902	1320.8714	1415.6382	1416.4817	1428.8191	1443.5003	1799.0597	2952.9241	3052.4207	3091.3405	3190.6233	3211.4223	3718.2942	3817.5926
OC1C2C(C1O)N2C=O	O[C@H]1[C@H]2[C@@H]([C@H]1O)N2C=O	
InChI=1S/C5H7NO3/c7-1-6-2-3(6)5(9)4(2)8/h1-5,8-9H	InChI=1S/C5H7NO3/c7-1-6-2-3(6)5(9)4(2)8/h1-5,8-9H/t2-,3+,4+,5-,6?
