19
gdb 48413	3.00775	1.08001	0.8913	4.1703	76.45	-0.2446	-0.0198	0.2248	1329.9198	0.157429	-423.00139	-422.992318	-422.991374	-423.036071	32.957	
O	-0.5749049892	 0.7152927726	-0.8268902635	-0.277352
C	-0.0827141998	 1.2680127165	 0.1295513966	 0.091728
C	 1.260080525	 1.9245998472	 0.1121603031	 0.260736
C	 1.7416819357	 2.5312579998	 1.4204447163	-0.34673
C	 2.0435141551	 1.496799373	 2.4817552479	 0.10441
C	 1.7897967807	 1.7395570167	 3.9063263036	-0.181884
O	 0.9153650223	 0.9077641125	 3.140249369	-0.230797
C	 2.2697512756	 1.3171802747	-0.8558408637	-0.283082
C	 1.6141563248	 2.60724539	-1.2074684548	-0.300198
H	-0.6186432696	 1.3256782454	 1.0988896432	 0.099162
H	 2.6496505435	 3.1184434187	 1.2356172027	 0.106714
H	 0.9889166973	 3.2275383926	 1.8106842439	 0.110046
H	 2.8191928505	 0.7748270564	 2.2206977602	 0.097741
H	 2.3827154088	 1.224050589	 4.6601660026	 0.118585
H	 1.3691742711	 2.694160191	 4.2204842457	 0.11567
H	 3.310528136	 1.3275062954	-0.5502161026	 0.115288
H	 1.943452149	 0.4276487587	-1.382151116	 0.142256
H	 0.8452567445	 2.5878119047	-1.9710312781	 0.140626
H	 2.1901355789	 3.5241102452	-1.1437199159	 0.11708
55.5709	75.7295	114.1178	163.9589	245.3689	281.9125	304.9476	347.3948	387.8159	470.4739	641.5557	743.9002	786.2852	799.6401	828.3477	860.6682	912.2088	936.4876	954.6701	974.7321	1023.9728	1060.2128	1067.1608	1095.7453	1098.5064	1119.5471	1159.0017	1168.4599	1205.6393	1227.8543	1287.0696	1296.0749	1323.3048	1361.3142	1435.6873	1445.683	1450.9649	1464.8516	1484.3866	1529.3086	1803.0192	2930.8297	3024.4036	3064.7168	3083.8678	3100.3388	3135.1337	3137.3728	3170.8985	3224.1829	3237.841
O=CC1(CC2CO2)CC1	O=CC1(C[C@H]2CO2)CC1	
InChI=1S/C7H10O2/c8-5-7(1-2-7)3-6-4-9-6/h5-6H,1-4H2	InChI=1S/C7H10O2/c8-5-7(1-2-7)3-6-4-9-6/h5-6H,1-4H2/t6-/m0/s1
