17
gdb 25564	6.19408	0.6931	0.64954	1.2253	76.16	-0.2248	-0.0308	0.194	1642.7698	0.13678	-418.054833	-418.046255	-418.045311	-418.089869	30.083	
O	-0.174101209	-0.072497937	-0.381453101	-0.231687
C	 0.006099283	 1.0813252243	-0.0905127124	 0.155333
C	 1.3353461752	 1.7971074485	-0.1690134263	-0.262791
C	 1.2666306208	 3.0184857914	-1.1198447712	-0.346504
C	 2.5233236967	 3.8234243607	-1.1496150909	 0.310469
C	 2.8297975542	 5.0774344167	-0.6841867336	-0.163551
N	 4.1463146705	 5.3941440192	-0.9306270753	-0.249598
C	 4.6422967772	 4.3445804763	-1.5405578693	 0.012393
N	 3.7065454224	 3.3634047445	-1.6984577264	-0.298279
H	-0.837779244	 1.7225645838	 0.2589273307	 0.074888
H	 1.5951053036	 2.1528821013	 0.8366995492	 0.131542
H	 2.0976281096	 1.079940205	-0.4864794815	 0.115076
H	 1.0063536158	 2.6701728404	-2.1281622743	 0.122525
H	 0.4514792496	 3.6779869951	-0.8030915314	 0.127908
H	 2.1677052008	 5.7713490849	-0.1873674309	 0.10606
H	 5.6575759625	 4.2326650295	-1.8911802751	 0.130695
H	 3.8469364712	 2.4722607453	-2.1450179903	 0.26552
48.4323	60.6527	76.8867	115.9332	281.8364	316.235	342.6007	509.52	533.7511	660.5769	683.8392	734.0955	768.2181	810.2363	843.789	861.5197	932.0378	976.0534	1019.91	1067.5784	1077.185	1114.2024	1147.483	1187.5277	1256.8105	1259.9531	1281.1412	1311.1335	1364.8123	1388.3085	1427.2099	1431.815	1464.416	1488.7252	1509.7237	1614.7574	1837.038	2852.7556	3017.9635	3033.3304	3073.544	3103.8654	3242.0989	3251.146	3659.003
O=CCCC1=CN=CN1	O=CCCc1cnc[nH]1	
InChI=1S/C6H8N2O/c9-3-1-2-6-4-7-5-8-6/h3-5H,1-2H2,(H,7,8)	InChI=1S/C6H8N2O/c9-3-1-2-6-4-7-5-8-6/h3-5H,1-2H2,(H,7,8)
