16
gdb 65869	2.86954	1.27497	1.18923	3.6404	65.12	-0.2676	-0.0463	0.2213	1091.7457	0.123384	-475.086696	-475.078165	-475.07722	-475.120307	30.833	
C	-0.026149394	 1.6648049816	 0.160435311	-0.448808
C	 0.1011717975	 0.1482272276	 0.060778389	 0.282563
C	 0.7835382908	-0.3628460525	-1.2241567211	-0.228713
N	 1.5554272123	-1.4614084597	-0.6786827606	-0.366496
C	 1.7688861853	-1.3247401103	 0.6720848099	 0.469037
O	 2.5204004453	-1.9327608367	 1.3781773857	-0.382721
O	 0.9306514534	-0.333441188	 1.1339666535	-0.277927
C	-1.2871182407	-0.4816254671	 0.2478193633	 0.128671
O	-2.032638146	-0.7471346725	-0.6561951352	-0.241599
H	 0.9667306278	 2.1213988078	 0.1362120931	 0.141129
H	-0.6192968275	 2.0469764608	-0.6755295353	 0.143881
H	-0.5148400939	 1.953502489	 1.0954123672	 0.142123
H	 0.0330117911	-0.6894535647	-1.9480084097	 0.149096
H	 1.4135355264	 0.4126010941	-1.6799738933	 0.111632
H	 2.2390009161	-1.969438901	-1.2148530726	 0.267535
H	-1.551663804	-0.6506466483	 1.3136768551	 0.110596
64.7234	101.5065	150.7484	226.2919	274.0852	296.5797	301.3402	415.9617	471.67	503.525	556.6693	659.8775	732.2391	769.2242	823.693	899.6299	944.2321	970.6214	981.4961	1032.9381	1084.7949	1149.7745	1182.6438	1188.8575	1268.3662	1284.1069	1353.8648	1392.9847	1404.2458	1434.5023	1482.8705	1495.473	1533.7271	1837.8036	1901.9406	2914.1922	3011.8143	3044.7347	3099.9627	3122.9418	3128.4749	3664.2654
CC1(CNC(=O)O1)C=O	C[C@]1(CNC(=O)O1)C=O	
InChI=1S/C5H7NO3/c1-5(3-7)2-6-4(8)9-5/h3H,2H2,1H3,(H,6,8)	InChI=1S/C5H7NO3/c1-5(3-7)2-6-4(8)9-5/h3H,2H2,1H3,(H,6,8)/t5-/m0/s1
