23
gdb 110206	2.01197	1.6283	1.08071	0.9793	87.56	-0.2409	0.0867	0.3276	1248.634	0.204154	-388.248094	-388.238291	-388.237347	-388.28228	37.207	
C	-0.2617958056	 1.3451112783	 0.1432233517	-0.2443
O	 0.2777340537	 0.0636882267	-0.0930891594	-0.262756
C	 0.7775103695	-0.5619856782	 1.0570268517	 0.120532
C	-0.1502338439	-1.4776093416	 1.9313441857	 0.285098
C	-1.3168279446	-1.0829103018	 2.7982506208	-0.518765
C	-0.151893973	-2.4695684859	 0.7259770549	-0.298332
C	 1.3321447894	-1.9916960802	 0.8452256868	 0.285266
C	 2.4984707383	-2.3853455584	-0.019914775	-0.516251
C	 1.1711891348	-2.165500698	 2.3856886166	-0.297859
H	 0.4762810619	 2.0140462842	 0.6130315701	 0.104475
H	-0.5459541007	 1.7619251648	-0.8262459319	 0.125526
H	-1.152025805	 1.3108680864	 0.7875670468	 0.109437
H	 1.4237328665	 0.1305195721	 1.6205533302	 0.047755
H	-2.1222710265	-0.6401568369	 2.2021406478	 0.120554
H	-1.7320237077	-1.9535519556	 3.318644509	 0.117545
H	-1.0184124594	-0.3518968592	 3.558380541	 0.114275
H	-0.3390788656	-3.5204264164	 0.9685151468	 0.078034
H	-0.6943979492	-2.1552421597	-0.1661760666	 0.102067
H	 2.3318259734	-2.0737232723	-1.056356319	 0.128399
H	 3.4251993338	-1.9151045479	 0.3278467004	 0.114057
H	 2.6490940746	-3.4702690627	-0.0124040758	 0.115604
H	 1.8443912265	-1.583528944	 3.0248290455	 0.081033
H	 1.0737273086	-3.1940803636	 2.742921992	 0.088606
82.9304	144.9449	178.3218	198.842	209.2245	212.9478	216.5359	282.5968	354.8662	381.3979	482.8934	536.4388	583.8585	597.5728	672.2971	749.8798	819.8488	911.2704	914.9925	925.2359	1005.586	1012.5736	1019.8705	1060.9036	1078.9177	1084.8237	1124.1938	1142.8749	1164.9673	1182.4	1186.3843	1199.2379	1204.0385	1232.1676	1235.0112	1318.692	1351.4413	1406.1177	1408.9497	1418.1502	1480.9575	1486.632	1488.4144	1489.0673	1491.984	1494.211	1495.2335	1509.6789	1544.1234	2968.8599	2980.2449	3022.0079	3027.0085	3028.8887	3037.1485	3052.078	3086.8456	3091.0763	3092.1384	3099.9095	3105.3173	3112.155	3135.2379
COC1C2(C)CC1(C)C2	CO[C@H]1[C@@]2(C)C[C@]1(C)C2	
InChI=1S/C8H14O/c1-7-4-8(2,5-7)6(7)9-3/h6H,4-5H2,1-3H3	InChI=1S/C8H14O/c1-7-4-8(2,5-7)6(7)9-3/h6H,4-5H2,1-3H3/t6-,7-,8+
