23
gdb 120300	3.14221	0.89354	0.80897	1.2227	86.06	-0.2414	0.0818	0.3232	1552.5151	0.204935	-388.264285	-388.25447	-388.253526	-388.299272	37.125	
C	 0.072232875	 1.538356852	-0.0455391904	-0.38252
C	 0.2800899281	 0.0220084695	-0.021642685	-0.150647
C	 0.5209660231	-0.5314300006	 1.3898349487	-0.209891
C	 0.7047744155	-2.0361101662	 1.4079257396	-0.073722
C	 1.9881625711	-2.7779478534	 1.0664155016	-0.12397
C	 3.2181703959	-2.0479250309	 1.6218895539	-0.225707
C	 2.6160925547	-2.149967218	 3.0621116949	-0.294649
C	 1.3877744092	-2.8539313483	 2.4687189729	 0.359423
O	 0.7819404955	-3.94998279	 3.0647609297	-0.461039
H	 0.9460241107	 2.0643467904	 0.3555251535	 0.112719
H	-0.097191313	 1.9038745696	-1.0632429094	 0.110769
H	-0.7930404894	 1.8294820908	 0.5607768944	 0.111961
H	-0.5951158236	-0.475883115	-0.459778785	 0.09245
H	 1.130693627	-0.247234438	-0.6605873947	 0.100965
H	 1.3936409278	-0.0319882542	 1.8264012124	 0.097556
H	-0.329325152	-0.262276117	 2.0327279753	 0.08686
H	-0.1555079081	-2.5807164354	 1.0180015862	 0.081971
H	 2.0063076883	-3.5333592881	 0.2900749637	 0.086518
H	 4.1382049622	-2.6261911431	 1.5152824282	 0.104364
H	 3.3993171247	-1.0391311073	 1.2381961467	 0.096017
H	 3.1892817085	-2.8322510148	 3.6936002389	 0.109079
H	 2.4460238643	-1.2184901296	 3.6125743646	 0.088708
H	 0.0158377044	-3.6408711925	 3.5600117392	 0.282784
57.2435	86.0418	122.2662	203.6505	238.6669	254.1961	263.9181	296.0822	332.4853	390.8313	482.9621	553.2998	628.765	713.2624	753.416	787.7929	822.2712	880.5313	898.9583	910.0005	927.8845	958.3927	990.6642	1020.46	1046.7139	1065.7617	1090.513	1119.9745	1134.1319	1156.2285	1208.1336	1221.2567	1230.2889	1239.5325	1267.6444	1294.2196	1300.2004	1321.5586	1330.4645	1349.5025	1388.2132	1412.8593	1467.8225	1474.8447	1488.5322	1494.9752	1500.8144	1509.2856	1512.9639	3005.0995	3017.8075	3027.9129	3041.6933	3043.4467	3053.2602	3063.0855	3094.0736	3098.8914	3100.2878	3111.9479	3116.9156	3183.943	3797.3971
CCCC1C2CCC12O	CCC[C@H]1[C@H]2CC[C@@]12O	
InChI=1S/C8H14O/c1-2-3-6-7-4-5-8(6,7)9/h6-7,9H,2-5H2,1H3	InChI=1S/C8H14O/c1-2-3-6-7-4-5-8(6,7)9/h6-7,9H,2-5H2,1H3/t6-,7+,8+/m0/s1
