21
gdb 76045	2.35065	1.33013	1.09215	0.8662	90.02	-0.2343	0.0485	0.2828	1236.8282	0.180979	-349.904196	-349.894718	-349.893774	-349.938411	35.957	
C	-0.0959406869	 1.5542009534	-0.2405922237	-0.413225
C	-0.0080880207	 0.0545551052	-0.0767101014	-0.095243
C	 1.3450894094	-0.6673223845	-0.092828404	-0.290583
C	 2.5726115973	 0.0593187015	-0.2085854936	 0.352572
C	 3.6092262461	 0.6670970776	-0.2893453381	-0.476609
C	 0.5079525198	-0.5668494652	 1.1782596768	 0.350019
C	 0.9734075331	 0.1060206839	 2.4762807974	-0.294035
C	 0.7133147391	-1.2418560608	 3.214277144	-0.204403
C	-0.0290569656	-1.7773848636	 1.9538538345	-0.299797
H	 0.7478052014	 2.0560382482	 0.2394836021	 0.132452
H	-0.0888329041	 1.8353784612	-1.2989085785	 0.121239
H	-1.020134971	 1.9407111207	 0.2031822877	 0.114551
H	-0.7975036529	-0.5031561944	-0.5770699999	 0.08532
H	 1.3484153616	-1.6430589787	-0.5728688148	 0.105021
H	 4.5235225685	 1.1999055607	-0.3730933402	 0.192369
H	 1.9991358871	 0.4824592854	 2.4827646929	 0.114416
H	 0.3047249806	 0.908667365	 2.8033280286	 0.099553
H	 1.63667641	-1.7886307147	 3.4188827983	 0.108059
H	 0.1303692174	-1.1891438813	 4.1359432853	 0.098114
H	-1.1187215794	-1.7580818404	 2.0612529389	 0.100898
H	 0.2648903192	-2.7658181593	 1.5895387776	 0.099311
71.2628	119.5886	135.1327	174.7489	179.5297	216.7883	340.5967	358.7008	416.1319	514.7392	564.6039	568.8331	623.0144	645.7867	710.7958	767.2515	788.9168	833.7685	866.6515	929.4649	939.3653	953.1554	998.5497	1014.0943	1071.3858	1094.3422	1116.7792	1133.6403	1144.6572	1189.5788	1222.1055	1234.29	1254.1757	1264.1102	1277.9064	1324.1194	1351.9016	1418.4383	1446.5373	1476.7007	1482.0688	1491.1529	1501.8224	1506.4277	2226.5385	3033.7723	3041.7679	3049.4573	3068.6336	3088.9232	3092.6143	3101.3831	3113.3869	3124.4393	3126.7986	3134.608	3504.8637
CC1C(C#C)C11CCC1	C[C@H]1[C@@H](C#C)C21CCC2	
InChI=1S/C9H12/c1-3-8-7(2)9(8)5-4-6-9/h1,7-8H,4-6H2,2H3	InChI=1S/C9H12/c1-3-8-7(2)9(8)5-4-6-9/h1,7-8H,4-6H2,2H3/t7-,8+/m0/s1
