17
gdb 47828	2.55558	1.73231	1.17717	3.3837	68.96	-0.2482	-0.0005	0.2477	1030.5884	0.137314	-458.966362	-458.958837	-458.957892	-458.998844	28.859	
O	 0.0339999039	 0.0929640026	 0.7659671075	-0.319501
C	-0.0125288234	 1.0727463763	 0.0730908435	 0.39236
O	-1.2305835672	 1.627403629	-0.2074198777	-0.236009
C	-1.5291377222	 2.1320262054	-1.5115965798	-0.092583
C	-0.8886677172	 3.4666426061	-1.8622102516	-0.100525
O	 0.449909186	 3.3468442117	-2.2954215317	-0.241971
C	 1.3949902104	 2.9020173859	-1.3797773721	 0.112874
C	 1.4234488157	 3.2347890458	 0.0717546308	-0.337307
C	 1.2285872972	 1.7703968802	-0.3759107282	-0.182343
H	-1.2634647431	 1.3904318401	-2.274525343	 0.125935
H	-2.6163463008	 2.2493248863	-1.5109474822	 0.128578
H	-1.4245531076	 3.895519146	-2.714978878	 0.122682
H	-0.9866259058	 4.1658425909	-1.0195495724	 0.111764
H	 2.3552060619	 2.8819508106	-1.8846804026	 0.12067
H	 2.3636965129	 3.5055608466	 0.537718376	 0.131473
H	 0.5523339607	 3.6988416982	 0.5182522437	 0.140474
H	 2.0872327887	 1.1199407884	-0.2572988122	 0.123431
51.1968	171.3163	220.6527	294.5411	340.1043	377.3503	465.3453	492.8479	577.7922	671.1337	694.9578	734.0008	793.8927	831.4229	881.7871	937.573	973.5409	982.2183	1040.6277	1058.6603	1099.5262	1109.5272	1124.5673	1138.1787	1181.4084	1245.1174	1279.3523	1281.0951	1342.983	1366.5065	1396.8987	1413.5985	1426.229	1485.069	1488.6564	1497.1066	1828.0091	3012.2172	3038.8112	3085.7622	3103.0047	3149.3102	3168.1421	3183.8815	3237.9065
O=C1OCCOC2CC12	O=C1OCCO[C@H]2C[C@@H]12	
InChI=1S/C6H8O3/c7-6-4-3-5(4)8-1-2-9-6/h4-5H,1-3H2	InChI=1S/C6H8O3/c7-6-4-3-5(4)8-1-2-9-6/h4-5H,1-3H2/t4-,5+/m1/s1
