17
gdb 76994	2.8902	1.43152	1.21195	2.1218	68.28	-0.2455	-0.0404	0.2051	1046.7881	0.134448	-458.933042	-458.924609	-458.923665	-458.965783	32.118	
O	 0.5624562959	 1.1697259093	-0.133837502	-0.438138
C	 0.16315689	-0.1557525985	 0.042933851	 0.053945
C	 0.2741945629	-0.8359064978	 1.467735914	-0.164441
C	 0.54018821	 0.0503999769	 2.6455191942	 0.161655
O	 0.3478552959	 1.249350842	 2.6511405655	-0.276039
C	-1.2070116848	-1.2732043308	 1.3225814433	-0.131735
C	-2.1010913093	-0.0628453498	 1.1657547911	-0.362447
C	-1.3178789404	-0.5508051159	-0.017794857	 0.379039
O	-1.9256962577	-1.0293380503	-1.1628419307	-0.465783
H	 0.3583067211	 1.6385731617	 0.6883330149	 0.297022
H	 0.7121699605	-0.7617114216	-0.6849067862	 0.103327
H	 0.955873741	-1.6904731594	 1.4858062457	 0.092738
H	 0.9021735262	-0.4551630853	 3.5669177581	 0.098785
H	-1.5892317883	-2.2428788492	 1.6125361601	 0.106671
H	-3.1567953574	-0.3093360855	 1.1125765887	 0.120972
H	-1.8777908203	 0.8736023198	 1.6680221908	 0.131714
H	-2.3629756352	-0.2929182156	-1.6042346416	 0.292715
110.4731	145.6837	206.8555	238.7994	251.8664	261.29	330.3725	427.0876	474.6876	539.3585	551.3463	607.3372	709.7756	773.2709	821.9792	833.6648	866.2669	949.7457	981.0247	986.2855	1023.7143	1059.3041	1083.5685	1094.6896	1150.6665	1169.875	1211.286	1234.604	1269.165	1311.8642	1321.9413	1348.3368	1411.0619	1423.7724	1459.887	1495.111	1781.2421	2896.7187	3063.3441	3078.0678	3124.1696	3203.4459	3212.9081	3719.8348	3800.1859
OC1C(C=O)C2CC12O	O[C@H]1[C@@H](C=O)[C@H]2C[C@@]12O	
InChI=1S/C6H8O3/c7-2-3-4-1-6(4,9)5(3)8/h2-5,8-9H,1H2	InChI=1S/C6H8O3/c7-2-3-4-1-6(4,9)5(3)8/h2-5,8-9H,1H2/t3-,4+,5-,6-/m0/s1
