20
gdb 78910	3.36664	1.7782	1.59051	1.7369	80.31	-0.2307	0.0914	0.3221	931.6755	0.17489	-365.991368	-365.984872	-365.983928	-366.021849	27.92	
C	-0.140363459	 1.5849481193	-0.0418015579	-0.407733
C	-0.0064982741	 0.061705763	-0.0096051953	-0.009087
C	 0.9266910724	-0.5036807377	-1.0661220876	-0.047442
C	 2.3119865651	-0.5503856484	-0.5211420548	-0.042024
C	 2.2945453535	-0.2898619513	 0.9884785732	-0.071902
C	 2.4927926567	-1.7279179456	 1.5567008204	-0.227238
C	 1.1504598442	-1.96795824	 0.8301705316	-0.009668
C	 0.7481109396	-0.5064936321	 1.1851865832	-0.041066
N	 1.503047904	-1.8021882051	-0.6229256324	-0.138673
H	 0.8368919555	 2.0682640232	 0.0606687201	 0.119093
H	-0.5823739409	 1.9236454148	-0.984682948	 0.115578
H	-0.7807353998	 1.942279584	 0.7711821926	 0.114238
H	-1.0001407688	-0.399399839	-0.0893212857	 0.074372
H	 0.720279808	-0.4106954439	-2.1274171767	 0.084838
H	 3.2096537012	-0.4735045945	-1.1239018708	 0.087713
H	 2.8306784536	 0.5764876212	 1.3736314663	 0.065337
H	 3.3608673883	-2.3021694316	 1.2232490902	 0.101363
H	 2.3973199081	-1.7719279261	 2.6447026602	 0.096264
H	 0.5131953809	-2.8327065228	 1.0121451425	 0.067265
H	 0.3628416714	-0.3290436371	 2.187651979	 0.06877
178.5217	224.0741	253.1025	431.1978	475.0297	546.3901	659.9428	700.132	719.8392	779.835	809.5553	850.2336	861.331	883.7705	891.4546	909.9924	935.7869	957.8487	972.7268	1014.6473	1026.6032	1044.9189	1050.93	1067.777	1089.5877	1107.7919	1124.3126	1126.7814	1185.1963	1193.2017	1229.867	1238.5066	1255.4511	1265.776	1280.9671	1290.1712	1325.386	1364.0511	1384.7839	1412.1549	1494.8747	1497.2087	1500.7886	3020.4547	3031.5828	3059.6638	3097.9436	3102.481	3119.1698	3119.9393	3122.3746	3138.7125	3164.9784	3177.9516
CC1C2C3C4CC(C14)N23	C[C@H]1[C@H]2[C@H]3[C@@H]4C[C@@H]([C@H]14)N23	
InChI=1S/C8H11N/c1-3-6-4-2-5(6)9-7(3)8(4)9/h3-8H,2H2,1H3	InChI=1S/C8H11N/c1-3-6-4-2-5(6)9-7(3)8(4)9/h3-8H,2H2,1H3/t3-,4-,5+,6-,7+,8-,9?/m1/s1
