15
gdb 18919	4.10568	2.3552	2.11764	1.4287	62.45	-0.224	0.0714	0.2954	691.068	0.120442	-362.591865	-362.586108	-362.585163	-362.621263	24.097	
O	-0.1332899171	 1.3942419669	-0.081336549	-0.463724
C	 0.0286303411	 0.0301922952	-0.0162831527	 0.389209
C	-0.064126669	-0.842767682	 1.2152901669	-0.169462
C	 0.9990747356	-1.9201140307	 1.1323289689	-0.170685
N	 1.1075741776	-2.1306568481	-0.3207390666	-0.117681
C	-0.2140308334	-1.9025121648	-0.9384622816	-0.049112
C	-1.0361716109	-1.0315623198	 0.0535803419	-0.151657
C	 0.8428413576	-0.8593040336	-1.0161255878	-0.149625
H	 0.6173740704	 1.8121386018	 0.35645055	 0.287379
H	-0.427280091	-0.4167332407	 2.1425316579	 0.094482
H	 1.9681985317	-1.6015204275	 1.531195529	 0.103121
H	 0.7080558226	-2.8574275497	 1.616936869	 0.108714
H	-0.5930107685	-2.6009996437	-1.6729445854	 0.095266
H	-2.110123443	-0.9459311539	 0.1276424775	 0.098309
H	 1.4812191465	-0.5282301893	-1.8260225381	 0.095467
242.7927	309.2787	348.0778	414.7552	561.7976	594.4271	723.4867	747.0568	771.0837	773.8135	822.2648	862.4199	880.3845	913.5157	940.1217	961.5831	970.7502	997.6017	1031.4068	1050.8636	1090.2093	1130.5342	1166.0193	1204.6012	1222.2496	1231.4254	1261.2058	1296.5766	1298.454	1342.0061	1471.8813	1500.1662	3045.6873	3091.1644	3186.3679	3199.145	3200.9238	3230.9214	3780.7333
OC12C3CN4C(C13)C24	O[C@@]12[C@@H]3CN4[C@@H]([C@H]13)[C@@H]24	
InChI=1S/C6H7NO/c8-6-2-1-7-4(3(2)6)5(6)7/h2-5,8H,1H2	InChI=1S/C6H7NO/c8-6-2-1-7-4(3(2)6)5(6)7/h2-5,8H,1H2/t2-,3-,4+,5+,6+,7?/m1/s1
