17
gdb 18618	2.81361	2.34914	1.74571	3.8489	67.39	-0.2424	-0.0025	0.2399	820.695	0.143165	-363.87754	-363.870251	-363.869307	-363.909235	27.46	
C	-0.1662022508	 1.4938282246	 0.1086386451	-0.416161
C	-0.0137721201	 0.0050010639	-0.0876804559	 0.001862
C	 0.7434315464	-0.6233459462	-1.2085507308	-0.04264
C	 1.6852629386	 0.2025909662	-2.0966188659	-0.26131
C	 2.9204135072	 0.4361437078	-1.201631669	-0.305054
C	 2.4236803751	 0.1637100899	 0.2251190529	 0.370408
O	 2.9015737286	 0.5750978312	 1.2471565884	-0.318865
N	 1.2784319805	-0.6850860337	 0.1622397804	-0.134893
H	 0.6137324691	 2.0736022853	-0.39109189	 0.127116
H	-1.1346098896	 1.8194639443	-0.2846098886	 0.124976
H	-0.1305614808	 1.7435350071	 1.1735602914	 0.149396
H	-0.8510408954	-0.5691790894	 0.306058331	 0.103756
H	 0.3809255379	-1.5673174389	-1.6067990099	 0.097952
H	 1.931514262	-0.3520693615	-3.0038498999	 0.115703
H	 1.2288009772	 1.1452938471	-2.4137602553	 0.117187
H	 3.7174748168	-0.2808349838	-1.4293569294	 0.138244
H	 3.3565930974	 1.4350775163	-1.2599453345	 0.132323
77.0054	133.4517	193.0247	246.0837	376.8957	472.5161	497.9172	553.8458	660.1661	706.7515	728.4162	779.2103	798.7645	866.119	948.3787	979.7675	988.3765	1009.5024	1073.1402	1098.8691	1132.6289	1146.4141	1165.3544	1186.728	1231.2491	1279.1046	1306.3493	1321.4144	1370.4892	1417.9918	1428.1075	1458.5823	1484.1709	1496.271	1508.1669	1848.668	3043.2101	3051.9206	3059.3673	3106.0048	3108.3012	3110.5408	3122.264	3127.8309	3142.8107
CC1C2CCC(=O)N12	C[C@H]1[C@H]2CCC(=O)N12	
InChI=1S/C6H9NO/c1-4-5-2-3-6(8)7(4)5/h4-5H,2-3H2,1H3	InChI=1S/C6H9NO/c1-4-5-2-3-6(8)7(4)5/h4-5H,2-3H2,1H3/t4-,5+,7?/m0/s1
