12
gdb 129098	2.68022	1.71631	1.05909	1.8558	69.6	-0.284	-0.1151	0.1688	1014.4323	0.076038	-468.700799	-468.693433	-468.692489	-468.734207	26.426	
N	-0.0784643481	 1.2681851722	 0.6202823905	-0.423729
C	-0.0262345813	 0.1328889795	 0.042964363	 0.156269
C	 1.2435242425	-0.4874720935	-0.373610847	 0.004011
N	 1.6012575025	-1.4518514526	-1.1323468548	-0.049079
O	 0.7597977152	-2.2802303728	-1.8652708947	-0.233962
N	-0.6127238415	-2.3802753801	-1.8655472818	-0.031759
C	-1.4300028827	-1.6977459779	-1.1568648281	-0.030632
C	-1.3380655146	-0.5859522176	-0.1736534336	 0.318542
O	-2.3379546531	-0.258397479	 0.4180527716	-0.266139
H	 0.8563628066	 1.6711581635	 0.7320174149	 0.241727
H	 2.121493366	 0.0017396439	 0.0528146067	 0.147297
H	-2.4630138716	-2.0012236158	-1.3212498565	 0.167455
24.7424	75.5752	318.2508	338.4758	360.3825	381.0667	434.7319	508.7556	593.5596	622.1653	719.353	781.617	804.9935	817.8141	890.8233	941.5165	947.9387	975.7298	1074.4592	1212.9783	1339.6785	1344.941	1399.6263	1644.8465	1653.0959	1677.4788	1784.9616	3117.348	3154.7558	3435.2358
N=C1C=NON=CC1=O	[NH][C]1C=NON=CC1=O	
InChI=1S/C4H3N3O2/c5-3-1-6-9-7-2-4(3)8/h1-2,5H	InChI=1S/C4H3N3O2/c5-3-1-6-9-7-2-4(3)8/h1-2,5H
