22
gdb 6538	3.04358	1.63666	1.31628	1.0051	79.15	-0.2422	0.083	0.3252	1065.9239	0.196959	-350.192494	-350.182459	-350.181515	-350.226407	37.163	
C	 0.2394026389	 1.2367687726	 0.273907437	-0.244917
O	-0.2292101962	 0.0143140833	-0.2571953666	-0.278036
C	 0.5510909259	-0.5242108536	-1.2966743336	 0.403565
C	 0.4029929584	 0.2279394337	-2.6032927196	-0.454682
C	 1.8756418537	-1.1458700169	-0.9010959382	-0.392776
C	 0.6874420895	-2.0327712515	-1.2454424713	 0.273343
C	 0.0109861476	-2.7734437472	-0.1050016016	-0.438591
C	 0.7342342349	-2.8395347489	-2.5314213545	-0.456961
H	 1.2872569166	 1.1655808564	 0.5986292744	 0.105753
H	 0.1553412337	 2.066558237	-0.4419522739	 0.107049
H	-0.38637143	 1.4646797848	 1.1405441859	 0.123873
H	 0.7410060263	 1.2645706226	-2.4995919238	 0.116031
H	 0.9930622767	-0.2228459187	-3.4029407446	 0.117795
H	-0.6463615759	 0.2460559147	-2.9162910923	 0.122868
H	 2.7040191949	-1.089989765	-1.6011542102	 0.102037
H	 2.1656550514	-1.0822329815	 0.1428292488	 0.108788
H	-0.0540123704	-2.1565359833	 0.791241474	 0.125505
H	-1.0086218054	-3.0667685242	-0.3813216922	 0.111258
H	 0.5653560047	-3.6881559885	 0.1353936969	 0.105501
H	 1.2085518419	-3.8104226423	-2.3461691682	 0.115177
H	-0.2739977374	-3.0351118664	-2.9154197236	 0.115815
H	 1.3046961201	-2.3469128272	-3.3222611029	 0.111607
101.2615	142.5468	167.7942	172.2567	187.0518	202.342	242.2787	312.2222	338.9445	373.8624	397.2082	422.3655	456.3923	547.3719	682.9871	719.6212	873.962	909.5663	924.6148	935.6967	971.8013	1016.264	1036.3275	1044.6933	1089.9815	1122.7937	1157.2361	1181.6301	1208.2979	1213.2578	1232.0731	1302.5941	1382.6575	1406.1311	1409.6947	1423.8957	1473.7568	1476.9557	1480.4347	1486.1429	1489.3323	1492.235	1500.4216	1508.4679	1511.5642	1520.1613	2990.6925	3023.4108	3028.5758	3036.332	3042.8952	3078.3004	3081.9468	3094.7007	3110.8223	3111.232	3119.9981	3134.1928	3145.599	3206.9693
COC1(C)CC1(C)C	CO[C@@]1(C)CC1(C)C	
InChI=1S/C7H14O/c1-6(2)5-7(6,3)8-4/h5H2,1-4H3	InChI=1S/C7H14O/c1-6(2)5-7(6,3)8-4/h5H2,1-4H3/t7-/m0/s1
