16
gdb 125509	3.99035	0.99281	0.90753	0.4057	77.47	-0.2518	-0.0031	0.2488	1316.9321	0.124091	-396.902235	-396.893489	-396.892545	-396.937222	30.739	
C	 0.0011939163	 1.4914053392	-0.0347296948	-0.49778
C	 0.0138588432	-0.0011919043	 0.030631842	 0.30909
N	 0.0077634302	-0.75817283	-1.0702279707	-0.285699
N	 0.0066158954	-2.0041542876	-0.6036342362	 0.153152
C	 0.0716544392	-3.1597494229	-1.4874350427	-0.29366
C	 1.433825948	-3.521823612	-1.869866061	 0.331598
C	 2.5467798051	-3.8328580072	-2.1941355213	-0.448836
N	 0.0225780064	-2.127262784	 0.7179777784	-0.219259
C	 0.0232258912	-0.8646426704	 1.1430263218	-0.126879
H	 0.876338611	 1.9196400176	 0.4651274487	 0.136256
H	 0.0063983092	 1.8186539356	-1.0761862216	 0.145653
H	-0.8877496366	 1.9062699752	 0.4521603099	 0.135191
H	-0.4110763355	-3.9854643391	-0.9582189202	 0.166784
H	-0.5232311824	-2.9203014191	-2.3731739773	 0.164781
H	 3.5341011765	-4.1031243238	-2.4774104021	 0.20832
H	 0.0212588529	-0.6355197371	 2.1972054772	 0.121287
34.0568	60.0662	79.7732	216.9352	259.9267	301.9642	317.477	410.5171	466.3496	623.6054	652.7062	678.3459	695.0622	697.7206	796.2972	870.4726	956.8875	961.7927	996.0659	1019.9719	1068.6097	1069.3937	1177.7752	1228.3909	1346.2458	1378.4258	1380.8277	1401.3991	1414.3199	1436.8027	1453.9088	1484.8253	1498.0405	1562.4585	2248.5976	3040.2345	3068.4264	3092.9299	3116.6784	3136.4332	3263.6852	3505.1361
CC1=NN(CC#C)N=C1	Cc1nn(CC#C)nc1	
InChI=1S/C6H7N3/c1-3-4-9-7-5-6(2)8-9/h1,5H,4H2,2H3	InChI=1S/C6H7N3/c1-3-4-9-7-5-6(2)8-9/h1,5H,4H2,2H3
