16
gdb 14376	3.94723	2.37985	2.01994	0.8161	63.73	-0.2442	0.0559	0.3002	714.4212	0.132493	-383.650011	-383.644394	-383.643449	-383.679336	23.886	
C	-0.000562875	 1.4843318883	-0.1850888654	-0.178465
O	 1.4482853499	 1.5215094174	 0.0954831263	-0.35637
C	 1.2737708216	 0.3340615504	 0.8865503288	 0.402872
C	 1.8515635353	-1.0661114926	 1.2139046497	-0.330584
C	 0.4737430513	-1.0655841049	 2.0153279939	 0.095707
C	 0.7656452107	 0.4043047365	 2.3575823494	-0.286634
O	-0.6153508941	-0.9260547664	 1.0472139984	-0.296809
C	 0.0375309391	-0.0474829299	 0.1287575835	 0.088711
H	-0.5585866042	 2.111266575	 0.5167853326	 0.117743
H	-0.2098808389	 1.7723464333	-1.2173220996	 0.118189
H	 1.9782750229	-1.7679148719	 0.3877890729	 0.111309
H	 2.6937130138	-1.1045270939	 1.9069430617	 0.112238
H	 0.2322029359	-1.8345446744	 2.7444493269	 0.097352
H	 1.5791849662	 0.5490962497	 3.0703821913	 0.106214
H	-0.0971294852	 1.0256464149	 2.5997988762	 0.106611
H	 0.2375510905	-0.5789422216	-0.8073118667	 0.091914
269.5163	341.9144	412.4846	458.6011	523.5536	556.7788	640.4751	724.5088	778.1733	813.9068	862.4981	881.0059	917.9203	933.4238	954.5958	993.5758	1014.786	1032.4667	1067.2852	1094.257	1106.3061	1139.0591	1147.993	1184.6118	1209.3678	1222.2431	1234.885	1285.787	1297.3761	1330.2041	1398.171	1473.7678	1503.4504	1512.4137	3047.309	3052.993	3074.1676	3082.6721	3124.3298	3144.5729	3149.9126	3164.4975
C1OC23CC(C2)OC13	C1O[C@@]23C[C@@H](C2)O[C@@H]13	
InChI=1S/C6H8O2/c1-4-2-6(1)5(8-4)3-7-6/h4-5H,1-3H2	InChI=1S/C6H8O2/c1-4-2-6(1)5(8-4)3-7-6/h4-5H,1-3H2/t4-,5-,6-/m0/s1
