21
gdb 94200	2.78834	1.24655	1.14055	3.0894	77.83	-0.2424	0.0789	0.3213	1203.6945	0.180593	-424.190637	-424.181182	-424.180237	-424.225072	35.084	
C	-0.0463052978	 1.3992354116	-0.4577186128	-0.416042
C	 0.0722836032	-0.008552219	 0.1070999618	-0.082809
C	 1.1510349682	-0.939609671	-0.4832815174	-0.083287
O	 1.7401523639	-1.1740821912	 0.8112386121	-0.320266
C	 0.8189099298	-0.2559901899	 1.4587754741	 0.375365
C	 1.5737346338	 0.9016012768	 2.0976716091	-0.441541
C	-0.0468424675	-0.9538928727	 2.4898978004	 0.048134
C	-0.1034731483	-2.4132611277	 2.6162194841	-0.178921
O	 0.6270165404	-1.6157077664	 3.5565953943	-0.245816
H	 0.9241266815	 1.9016257425	-0.5104598373	 0.123145
H	-0.457861875	 1.3681112233	-1.4724237815	 0.120174
H	-0.7143464846	 2.0200570578	 0.1485398661	 0.120593
H	-0.913866536	-0.483359939	 0.1186352894	 0.078496
H	 0.7957105294	-1.8660798256	-0.949886595	 0.100425
H	 1.8582219937	-0.4492456802	-1.1659096039	 0.098934
H	 2.2267235544	 1.3959672102	 1.3750149044	 0.117676
H	 0.8834636047	 1.6440020243	 2.5127944714	 0.113135
H	 2.1897382389	 0.5126983395	 2.9131437087	 0.146495
H	-0.9167445355	-0.3684348245	 2.8008009755	 0.088207
H	-1.0026121488	-2.8872668776	 3.0079645166	 0.107993
H	 0.5131114916	-3.0179160013	 1.9567434299	 0.129909
60.0329	83.1751	163.8175	209.1685	224.6001	247.3918	275.4478	290.9142	381.6282	409.7818	464.1	574.114	648.4533	760.3114	843.2774	883.273	891.1091	904.7357	919.0146	965.4747	991.8539	1017.917	1032.5493	1096.7366	1109.746	1136.5956	1158.6386	1160.4522	1170.5471	1186.1358	1226.584	1228.9789	1286.8249	1291.4495	1344.2794	1382.7235	1402.7696	1414.5742	1429.1372	1478.6474	1487.8863	1499.3758	1504.0922	1515.2699	1529.9461	3006.6304	3032.7693	3040.7387	3043.5192	3060.2082	3070.0678	3092.3592	3096.0805	3107.7239	3114.2805	3130.3376	3192.8998
CC1COC1(C)C1CO1	C[C@H]1CO[C@]1(C)[C@H]1CO1	
InChI=1S/C7H12O2/c1-5-3-9-7(5,2)6-4-8-6/h5-6H,3-4H2,1-2H3	InChI=1S/C7H12O2/c1-5-3-9-7(5,2)6-4-8-6/h5-6H,3-4H2,1-2H3/t5-,6+,7-/m0/s1
