17
gdb 97723	5.05696	0.69647	0.66677	1.6799	81.72	-0.2297	0.0116	0.2413	1688.8533	0.134587	-421.741113	-421.732233	-421.731289	-421.776027	32.	
O	 0.2018364122	 1.1307359152	 0.6666372982	-0.400751
C	-0.0126789382	 0.0631047037	-0.246150765	-0.206125
C	-1.3515715894	-0.5149572847	-0.1774738202	 0.194202
C	-2.4774001694	-0.9461201903	-0.1185158165	-0.105461
C	-3.8018537337	-1.4460034892	-0.0493417099	 0.291472
C	-4.5753192883	-1.7290224086	 1.212925307	-0.328932
C	-4.3843905606	-2.8375775415	 0.2096460878	-0.180515
C	-5.2389320518	-2.5576228873	-1.0175652738	-0.09222
O	-4.7182082522	-1.2055960471	-1.1327163113	-0.318368
H	-0.5159908939	 1.7610901802	 0.5450383147	 0.288568
H	 0.1865294187	 0.3740169297	-1.2844468695	 0.1242
H	 0.7377104352	-0.6959335024	 0.0027497487	 0.142317
H	-3.9771805141	-1.8168545404	 2.1133907308	 0.131488
H	-5.5451989334	-1.2544376382	 1.3357262195	 0.122054
H	-3.8705981054	-3.7611873444	 0.4364812416	 0.114608
H	-4.9577274143	-3.1519269248	-1.8937942701	 0.115461
H	-6.3275089713	-2.57306339	-0.8900626219	 0.108002
36.5544	80.2912	100.019	171.811	272.1279	321.2955	340.7821	388.6879	465.126	505.9179	524.1653	622.244	752.2	828.1115	838.4528	921.7184	962.6781	973.1056	982.5198	1001.3399	1007.0347	1035.9608	1070.1573	1078.28	1120.6146	1147.7674	1181.9843	1216.3836	1296.0084	1339.543	1356.358	1389.8499	1418.8293	1473.0344	1484.2195	1518.9873	2341.8378	2976.9292	3028.041	3060.2439	3077.591	3118.5899	3211.8201	3221.8893	3815.6216
OCC#CC12CC1CO2	OCC#C[C@]12C[C@H]1CO2	
InChI=1S/C7H8O2/c8-3-1-2-7-4-6(7)5-9-7/h6,8H,3-5H2	InChI=1S/C7H8O2/c8-3-1-2-7-4-6(7)5-9-7/h6,8H,3-5H2/t6-,7-/m0/s1
