16
gdb 13901	3.12635	1.66831	1.55618	3.4859	62.79	-0.2397	-0.034	0.2057	905.6775	0.128204	-420.87741	-420.869137	-420.868192	-420.910118	30.519	
C	 0.0454955125	 1.4084696652	 0.0440479932	-0.48111
C	 0.0103329279	-0.0997049095	-0.0311956459	 0.441672
O	 1.0596387382	-0.750613014	-0.1078955432	-0.410147
C	-1.2874820531	-0.7655580385	-0.0111661688	-0.292464
C	-1.3882478453	-2.1112001128	-0.8166794675	 0.090889
O	-0.3593434525	-2.5162203676	-1.6361549565	-0.416447
C	-1.3269329139	-2.1862617205	 0.6595295715	 0.090895
O	-0.235484826	-2.6678308254	 1.3458594645	-0.416441
H	 1.0777048281	 1.7589510736	 0.0192021738	 0.147244
H	-0.5131904189	 1.8414643567	-0.7931409125	 0.148767
H	-0.4405986831	 1.7521472598	 0.9638798989	 0.148757
H	-2.1704544748	-0.1407297907	 0.0572772037	 0.098603
H	-2.3516146552	-2.2657253226	-1.2929801296	 0.122356
H	 0.4695270757	-2.1661436484	-1.2687331706	 0.302535
H	-2.2482401219	-2.3922620896	 1.1957862976	 0.122358
H	 0.5616254622	-2.2789591956	 0.9484051213	 0.302534
83.1142	105.1351	186.1314	196.0308	262.2678	349.1978	387.8985	435.6437	474.2542	625.7858	642.3319	655.1942	657.2452	695.7028	770.3544	871.9569	963.2768	969.8711	983.8501	1052.1842	1068.0623	1098.8795	1147.6177	1194.2417	1245.9553	1349.2907	1368.4057	1377.3534	1410.2422	1429.0164	1461.4256	1473.9664	1499.6508	1689.1374	3038.5418	3099.4862	3154.7966	3157.7822	3164.8076	3178.6405	3638.9043	3661.4233
CC(=O)C1C(O)C1O	CC(=O)[C@H]1[C@@H](O)[C@H]1O	
InChI=1S/C5H8O3/c1-2(6)3-4(7)5(3)8/h3-5,7-8H,1H3	InChI=1S/C5H8O3/c1-2(6)3-4(7)5(3)8/h3-5,7-8H,1H3/t3-,4+,5-
