19
gdb 116076	2.64475	1.2774	0.909	5.685	72.72	-0.2762	0.0431	0.3193	1292.3369	0.159574	-460.22029	-460.211484	-460.210539	-460.254553	32.017	
C	 0.0254054408	 1.5594950141	 0.0215502801	-0.39116
C	-0.0722707085	 0.034250356	-0.0650774262	-0.189269
C	 0.7765008356	-0.5662728747	-1.1801015977	 0.151137
C	 0.7326258241	-2.0824092375	-1.2607285016	-0.253417
C	 1.4768065124	-2.501690661	-2.5131890524	-0.074565
O	 0.9496890217	-1.8461305108	-3.6753980057	-0.255178
C	 0.420593238	-0.6037602267	-3.6237621709	 0.473258
O	 0.0447533881	-0.0615242948	-4.619308975	-0.361971
O	 0.298706277	 0.0010634979	-2.4225925479	-0.273893
H	 1.0538629348	 1.8791692825	 0.2227924125	 0.114673
H	-0.2940482112	 2.0217741569	-0.9152351899	 0.149063
H	-0.6067137947	 1.943063529	 0.8272582143	 0.117374
H	 0.2516996277	-0.4206635919	 0.8793510556	 0.100539
H	-1.1136630255	-0.2702174171	-0.22423963	 0.112164
H	 1.8201873002	-0.239378122	-1.0589573661	 0.090105
H	 1.2036364089	-2.5236679276	-0.3770187973	 0.118948
H	-0.3067159009	-2.4277880349	-1.3010718062	 0.124429
H	 2.5447405787	-2.2611993322	-2.4301769976	 0.118285
H	 1.3841576229	-3.5709489652	-2.7165611681	 0.129477
62.2445	92.5953	125.1624	177.7607	204.736	269.3774	360.073	434.9918	486.3863	491.0091	558.486	670.3177	756.1343	765.7578	823.558	878.7328	940.5657	962.4848	981.588	1023.902	1060.6834	1090.7853	1135.8658	1162.3096	1174.169	1195.0075	1240.94	1269.9375	1298.5199	1323.5533	1374.3814	1391.1524	1412.9763	1416.644	1430.6678	1470.1406	1478.821	1497.4654	1509.0479	1518.8815	1877.5156	2994.0167	3025.0449	3029.0076	3040.6464	3047.6194	3069.0816	3099.3666	3105.2706	3107.5441	3132.0264
CCC1CCOC(=O)O1	CC[C@H]1CCOC(=O)O1	
InChI=1S/C6H10O3/c1-2-5-3-4-8-6(7)9-5/h5H,2-4H2,1H3	InChI=1S/C6H10O3/c1-2-5-3-4-8-6(7)9-5/h5H,2-4H2,1H3/t5-/m0/s1
