17
gdb 30761	2.78607	1.43739	1.00112	12.2366	81.04	-0.1177	-0.0045	0.1132	1149.9399	0.135665	-455.08104	-455.07277	-455.071825	-455.113925	31.509	
N	-0.338281854	 1.255663878	-0.4799981357	-0.644742
C	-0.1390895386	-0.1043107242	-0.053704584	-0.022852
C	-1.1395753991	-0.9985999216	 0.1573326324	 0.313202
C	-2.5823765177	-0.7512570221	-0.0282092379	-0.325555
N	-2.6481698325	 0.232027078	-1.2014626255	-0.44438
H	-3.5330458757	 0.7364386483	-1.261603824	 0.28366
H	-1.7547138765	 0.9246579439	-1.0391597453	 0.355165
H	-2.4838029788	-0.2625966863	-2.0773715964	 0.3039
O	-0.6305447037	-2.2259617697	 0.3682532666	-0.207243
C	 0.7619204371	-2.0996709419	 0.2777019795	-0.25349
C	 1.1575172922	-0.7812760796	-0.0276662283	 0.25666
O	 2.2464874308	-0.2068377009	-0.280029636	-0.529455
H	 0.5021344981	 1.4882020233	-1.0221112736	 0.264139
H	-0.326915781	 1.9009697963	 0.3100980987	 0.257622
H	-3.1491996789	-1.6542027004	-0.2679832486	 0.157001
H	-3.0893032197	-0.2333992103	 0.7983868437	 0.139551
H	 1.2994753981	-3.0167281407	 0.4473045945	 0.096817
75.2789	144.9495	219.5747	248.74	270.211	322.9807	382.2833	460.1816	542.8811	548.5289	575.7915	592.8386	606.7545	727.9549	734.7957	758.5561	849.4384	897.1125	980.4425	1038.3407	1085.046	1100.2572	1132.4902	1168.0057	1197.0256	1228.7133	1266.2436	1327.0575	1346.0731	1406.3684	1479.3925	1499.0715	1584.5493	1631.9245	1661.0572	1696.8228	1703.4928	1860.8071	2993.9071	3103.7098	3275.6913	3380.0721	3446.6888	3460.1538	3537.8693
NC1=C(C[NH3+])OC=C1[O-]	NC1=C(C[NH3])O[CH]C1=O	
InChI=1S/C5H8N2O2/c6-1-4-5(7)3(8)2-9-4/h2,8H,1,6-7H2	InChI=1S/C5H8N2O2/c6-1-4-5(7)3(8)2-9-4/h2H,1,7H2,6H3
