25
gdb 113198	3.05767	0.87439	0.85743	1.6568	89.51	-0.2523	0.0815	0.3338	1586.9183	0.225612	-389.494783	-389.48335	-389.482406	-389.531634	41.75	
C	-0.6350372511	 1.4487706218	 0.5287632624	-0.370843
C	 0.1887423305	 0.30069133	-0.0688856394	-0.223268
C	 0.9519525378	-0.4504919906	 0.9970091808	 0.021156
O	 0.1980008488	-1.2905100365	 1.8852207687	-0.31473
C	 1.1967073711	-1.9065243807	 1.0471328261	 0.397098
C	 0.6534646136	-2.8332614412	-0.021700845	-0.476137
C	 2.417653666	-2.3913606564	 1.8319731099	-0.017339
C	 2.0954890652	-3.6322618101	 2.6783486223	-0.401223
C	 3.635505094	-2.6208788101	 0.9250922328	-0.399553
H	 0.0061569165	 2.167490095	 1.0507543817	 0.114101
H	-1.1803832666	 1.9904075284	-0.2497153874	 0.111286
H	-1.3608334043	 1.0625097332	 1.2504255424	 0.134496
H	-0.4707624344	-0.3781509955	-0.6160175749	 0.101546
H	 0.9109487215	 0.697212671	-0.794892282	 0.098285
H	 1.6824678772	 0.1742199031	 1.520804531	 0.075314
H	-0.2995416683	-2.4693523128	-0.4064917122	 0.12962
H	 1.3527273364	-2.9258688663	-0.8587781913	 0.121994
H	 0.4826098907	-3.8349790733	 0.3840375769	 0.125706
H	 2.6623075328	-1.5803356146	 2.5289897986	 0.077439
H	 1.9161737989	-4.5160782539	 2.0566171463	 0.111734
H	 2.9311428389	-3.8683725248	 3.3450694944	 0.109629
H	 1.2074879482	-3.4595759535	 3.2931910662	 0.131051
H	 3.8641334555	-1.7325533462	 0.3266630981	 0.111674
H	 4.5203132569	-2.8584300997	 1.5243651023	 0.114476
H	 3.4737554741	-3.4572225663	 0.2365152712	 0.116488
40.8623	71.119	105.1019	150.061	170.917	221.2188	244.9299	251.601	275.4602	287.6912	307.0376	361.1011	432.4797	474.2057	494.7993	580.6689	691.1014	756.6791	830.0198	858.1781	913.2024	928.1608	930.5743	965.5368	973.637	1029.2246	1070.2669	1081.295	1109.8059	1141.5987	1144.5116	1163.1205	1194.0972	1274.3464	1291.0602	1316.4212	1340.8174	1347.6085	1391.7512	1396.0727	1407.0041	1415.712	1419.7119	1465.7239	1475.461	1486.3985	1489.7191	1497.5544	1500.805	1503.9092	1507.1828	1511.3445	1517.1619	3025.2334	3026.5449	3029.1012	3034.2957	3035.8244	3048.0387	3053.1657	3087.2984	3094.0087	3099.2476	3101.827	3107.8939	3108.1598	3114.5366	3116.9418	3144.1185
CCC1OC1(C)C(C)C	CC[C@H]1O[C@]1(C)C(C)C	
InChI=1S/C8H16O/c1-5-7-8(4,9-7)6(2)3/h6-7H,5H2,1-4H3	InChI=1S/C8H16O/c1-5-7-8(4,9-7)6(2)3/h6-7H,5H2,1-4H3/t7-,8-/m1/s1
