21
gdb 61765	2.57213	1.02336	0.89699	3.4071	76.13	-0.2717	0.0069	0.2786	1390.9555	0.177989	-461.395948	-461.384954	-461.38401	-461.432192	39.641	
C	-0.1732719622	 1.6105395548	-0.019118602	-0.423093
C	-0.0101768471	 0.0945708462	-0.0172663057	 0.107906
O	 0.6768881743	-0.2961945486	-1.225463203	-0.193697
C	-0.038350491	-0.8377705804	-2.2275449175	 0.170454
O	 0.4473032551	-1.1587833234	-3.2704051158	-0.278135
C	 0.7720483522	-0.489014762	 1.1923407101	 0.33127
C	 0.7413052145	-2.0181003669	 1.1402767508	-0.409043
C	 2.2139551619	 0.0246198461	 1.2527290471	-0.439033
O	 0.0514752614	-0.1309573314	 2.3764265375	-0.463112
H	 0.7916633786	 2.1146818445	-0.1158477482	 0.136579
H	-0.7977818371	 1.9200420719	-0.8620017782	 0.128226
H	-0.6636319165	 1.9414052918	 0.8998920857	 0.124116
H	-1.0028559108	-0.3743072172	-0.0055284038	 0.091738
H	-1.1107028036	-0.9541261536	-1.9745084896	 0.077872
H	 1.2329825397	-2.392231179	 0.2397825324	 0.134261
H	 1.2521049351	-2.426529859	 2.0158334927	 0.123637
H	-0.2923331466	-2.3776543308	 1.1550272459	 0.118994
H	 2.2481117644	 1.1114313946	 1.3895818712	 0.107524
H	 2.7365401529	-0.438402853	 2.0942720775	 0.125148
H	 2.7509316349	-0.2116464635	 0.3310286232	 0.146242
H	 0.33238436	 0.7485200188	 2.6475275696	 0.282147
44.6896	64.6973	146.9044	195.8453	207.5388	238.6947	245.9607	264.6499	279.5024	313.7237	338.4984	350.7473	422.2368	430.7738	483.6301	559.6933	664.3225	752.9314	886.9556	928.5417	936.4161	981.2038	1002.2545	1046.4428	1051.9392	1083.0359	1122.0595	1153.0897	1188.2174	1217.3547	1266.4712	1331.3692	1362.1478	1380.421	1403.2295	1411.7539	1416.7564	1436.6114	1481.8509	1486.6083	1494.8348	1499.2665	1503.6193	1513.4843	1862.7103	2943.3176	3024.6384	3037.5474	3048.127	3051.128	3104.299	3118.5914	3119.8284	3131.9912	3134.6581	3139.2281	3821.2382
CC(OC=O)C(C)(C)O	C[C@@H](OC=O)C(C)(C)O	
InChI=1S/C6H12O3/c1-5(9-4-7)6(2,3)8/h4-5,8H,1-3H3	InChI=1S/C6H12O3/c1-5(9-4-7)6(2,3)8/h4-5,8H,1-3H3/t5-/m1/s1
