17
gdb 77123	3.11331	1.15615	0.98122	2.4671	69.9	-0.256	-0.0312	0.2249	1207.4103	0.133389	-458.931171	-458.922285	-458.921341	-458.965604	31.94	
O	 0.3474007952	 0.9996354272	-0.3642129593	-0.433049
C	-0.0183746497	-0.306305062	-0.0085601069	 0.03333
C	-0.1043579376	-0.6857276982	 1.500337149	-0.122234
C	-1.4709591971	-1.4098961392	 1.2111699913	-0.359765
C	-1.5050461611	-0.6216745011	-0.1020651771	 0.439241
C	-2.5552677812	 0.2545410058	-0.6164114827	-0.259981
O	-2.201582178	-0.9771223998	-1.272906497	-0.275563
C	 0.9978691296	-1.5231879711	 2.0829582629	 0.133656
O	 1.9515175976	-1.9189633133	 1.4586893354	-0.245849
H	 1.2902232531	 1.0127215061	-0.5539002107	 0.296003
H	 0.575345701	-1.0620085033	-0.5374452118	 0.104384
H	-0.2729502498	 0.1990762825	 2.1229289971	 0.105028
H	-1.3444113379	-2.4827020424	 1.0390685921	 0.129401
H	-2.2821980754	-1.2501035941	 1.9223782084	 0.121995
H	-3.5342888649	 0.2619168491	-0.139199652	 0.115444
H	-2.2758880036	 1.1605129481	-1.149293581	 0.135586
H	 0.8743754399	-1.7852568144	 3.1585478123	 0.082373
43.0638	81.2324	165.333	212.4485	238.7375	242.1699	286.3276	344.8729	455.2776	510.5709	560.0001	644.2959	768.1645	825.0465	861.8538	886.5725	907.2569	948.277	986.3548	1061.4119	1085.9231	1102.2384	1128.1944	1142.2185	1159.4362	1190.1959	1199.307	1230.1204	1240.3323	1260.6263	1348.1219	1419.994	1427.8599	1460.906	1489.9222	1536.0034	1817.2287	2872.1204	3040.2668	3065.2259	3068.6204	3089.7469	3130.8363	3185.9968	3830.5055
OC1C(CC11CO1)C=O	O[C@H]1[C@@H](C[C@]21CO2)C=O	
InChI=1S/C6H8O3/c7-2-4-1-6(3-9-6)5(4)8/h2,4-5,8H,1,3H2	InChI=1S/C6H8O3/c7-2-4-1-6(3-9-6)5(4)8/h2,4-5,8H,1,3H2/t4-,5-,6+/m0/s1
