16
gdb 97300	3.51558	1.08888	0.84	1.3931	77.49	-0.2519	-0.0289	0.223	1333.7909	0.124794	-434.115528	-434.107273	-434.106329	-434.148777	29.582	
C	 0.0007270823	 1.4640111734	 0.0185379777	-0.314471
N	 0.0137710287	 0.0180032754	-0.0636691422	-0.225626
C	 0.5193386448	-0.6189261587	 0.9023099214	 0.106399
N	 0.5732743603	-2.0110096578	 0.9058243453	-0.156185
C	 0.1097984326	-2.8844281381	-0.0898363366	 0.084466
N	 0.2724196731	-4.1267369513	 0.1429183699	-0.250119
C	 0.9273211294	-4.2200908088	 1.4496580859	-0.294186
C	 1.1209778937	-2.7867835979	 1.9457651792	 0.401588
O	 1.6102749091	-2.3594605564	 2.9597326188	-0.352668
H	 0.5419570858	 1.8819658574	-0.8376345752	 0.136027
H	-1.0319520011	 1.8231926465	-0.053546219	 0.136024
H	 0.4467564867	 1.8603292599	 0.9435369979	 0.108912
H	 0.9561145352	-0.189238176	 1.8104765928	 0.130527
H	-0.34723324	-2.4597331556	-0.9745854421	 0.170307
H	 0.3163941309	-4.7940706558	 2.1547056106	 0.159509
H	 1.8907505587	-4.7350885862	 1.3698921654	 0.159496
101.0635	138.2305	141.7672	182.3222	215.5329	348.3414	359.9527	369.7339	471.5462	566.45	610.0928	685.2144	803.5226	902.1355	938.4952	984.6786	997.2571	1004.4936	1020.8766	1097.7705	1141.9381	1153.6238	1185.8474	1212.1585	1284.5578	1305.9749	1392.472	1405.0474	1437.7195	1449.0087	1479.5049	1502.4364	1683.9388	1758.2118	1848.8525	2985.2997	3056.8053	3068.5008	3076.3645	3084.0575	3091.7973	3234.7399
CN=CN1C=NCC1=O	CN=CN1C=NCC1=O	
InChI=1S/C5H7N3O/c1-6-3-8-4-7-2-5(8)9/h3-4H,2H2,1H3	InChI=1S/C5H7N3O/c1-6-3-8-4-7-2-5(8)9/h3-4H,2H2,1H3
