23
gdb 13454	3.33782	1.10348	0.99742	1.3558	82.48	-0.2097	0.0776	0.2873	1331.3844	0.210321	-330.303491	-330.293353	-330.292409	-330.338718	36.446	
C	 4.1396995511	-5.5963855389	-0.1385084326	-0.38126
C	 2.6425321484	-5.3468935125	-0.3373853364	-0.161717
C	 2.0358586516	-4.4415796603	 0.7446494317	-0.198121
C	 0.5740931219	-4.1380376807	 0.4780157439	-0.01162
C	-0.5580055347	-4.9542481096	 1.0265041378	 0.00712
C	-0.3640985121	-6.1652359395	 1.9152487275	-0.41603
N	-0.3413282574	-3.5752532711	 1.4751034213	-0.117707
C	 0.1146719762	-3.2975899865	 2.8283638317	-0.311157
H	 4.5450803907	-6.2417305443	-0.9240209753	 0.11187
H	 4.7029132075	-4.6565972249	-0.1556478133	 0.114589
H	 4.3369596862	-6.0805869611	 0.8245537235	 0.112958
H	 2.4737704742	-4.8930429997	-1.3227061997	 0.097891
H	 2.105610569	-6.3037780431	-0.3496332058	 0.099955
H	 2.1791052451	-4.9070057272	 1.7244801412	 0.094125
H	 2.5938799777	-3.4949865527	 0.7749857507	 0.097388
H	 0.4228818038	-3.6999948667	-0.5107613065	 0.0796
H	-1.4441129497	-5.0441063955	 0.3965496659	 0.082088
H	 0.5691695725	-6.1493014212	 2.4807053474	 0.119237
H	-1.1868876053	-6.2532928768	 2.6339016206	 0.121822
H	-0.3648936128	-7.0753312527	 1.3056642786	 0.121107
H	 0.822435237	-4.0193431872	 3.2601176706	 0.097431
H	 0.5935542388	-2.3128577881	 2.8418495519	 0.120906
H	-0.7576325997	-3.2503117297	 3.4887650652	 0.119525
58.5738	86.1014	118.0617	155.2396	159.0269	230.1892	247.8659	262.3623	294.2928	359.9525	459.5999	517.5157	542.7732	712.0435	751.5603	779.9967	857.6386	904.874	908.1948	985.7406	1033.9108	1047.9623	1052.4223	1103.4905	1128.2286	1143.9407	1165.9242	1170.5224	1188.1699	1206.6053	1260.7684	1302.4323	1326.4641	1352.9133	1379.7471	1396.9825	1411.7228	1414.4756	1437.911	1461.8639	1479.1537	1488.94	1491.6494	1498.8431	1499.5916	1506.207	1506.9989	1514.1601	2995.4064	3010.5562	3020.6084	3028.7511	3035.6107	3048.9118	3063.2218	3068.038	3084.2146	3087.8408	3088.7028	3094.0222	3097.1066	3101.5585	3132.1708
CCCC1C(C)N1C	CCC[C@H]1[C@@H](C)N1C	
InChI=1S/C7H15N/c1-4-5-7-6(2)8(7)3/h6-7H,4-5H2,1-3H3	InChI=1S/C7H15N/c1-4-5-7-6(2)8(7)3/h6-7H,4-5H2,1-3H3/t6-,7+,8?/m1/s1
