23
gdb 112613	2.53087	1.07874	0.92451	2.6264	81.82	-0.2449	0.0693	0.3143	1408.579	0.20401	-425.421928	-425.411654	-425.410709	-425.457417	38.334	
C	-0.1812253583	 1.3261630675	 0.6985639755	-0.388978
C	-0.224276466	-0.1308579356	 0.2269686274	-0.216886
C	-1.6137353271	-0.6093971328	-0.1994367274	 0.451409
C	-2.1767134224	 0.1496329739	-1.3944899238	-0.436942
C	-1.7857833307	-2.1505985046	-0.2728157823	-0.380709
C	-2.7878681716	-1.971375311	 0.8811182314	 0.135513
C	-2.4560998342	-2.5912247963	 2.2283174003	-0.068198
O	-3.2106149597	-1.9762313523	 3.2527615506	-0.421721
O	-2.5544540044	-0.5400442799	 0.9248643904	-0.357327
H	 0.8066787935	 1.5735413683	 1.0979959711	 0.113069
H	-0.3930316496	 2.0281702065	-0.1134563418	 0.117298
H	-0.9185928551	 1.4908213767	 1.4897223115	 0.131804
H	 0.4667379156	-0.2830816068	-0.612869862	 0.095488
H	 0.1241212413	-0.7807354269	 1.0381145244	 0.096205
H	-1.5080961565	 0.061924522	-2.2581025019	 0.114399
H	-3.1561248206	-0.2482837085	-1.6744671708	 0.118134
H	-2.3007861427	 1.2104302889	-1.1607251618	 0.128397
H	-2.200918991	-2.530167382	-1.207467538	 0.106922
H	-0.8910138259	-2.7234917912	-0.016735544	 0.104474
H	-3.8358866136	-2.1781997411	 0.629375555	 0.080697
H	-2.7094628173	-3.6578505457	 2.2309539351	 0.105052
H	-1.3727479199	-2.5017845558	 2.4154298684	 0.079906
H	-3.0862052839	-1.0264588133	 3.1306920327	 0.291993
46.5847	99.0363	110.7082	165.4627	213.952	232.8455	266.3384	316.4915	357.0613	371.0086	411.594	468.7959	493.6995	520.1147	646.0451	776.6075	801.7605	862.9496	881.6219	918.2901	931.1132	967.4143	999.1993	1031.5235	1045.7952	1061.2487	1068.6287	1096.1735	1155.9383	1176.7183	1212.241	1225.809	1257.8292	1269.4769	1304.5089	1322.8024	1348.6443	1372.932	1397.228	1406.404	1408.892	1437.0374	1471.6137	1486.2986	1488.7397	1494.2728	1498.4417	1505.1956	1509.6396	2961.8464	3020.2625	3023.2372	3036.9526	3042.7991	3059.1105	3064.6594	3068.4063	3107.653	3109.0621	3117.1411	3121.041	3127.2688	3778.0519
CCC1(C)CC(CO)O1	CC[C@@]1(C)C[C@@H](CO)O1	
InChI=1S/C7H14O2/c1-3-7(2)4-6(5-8)9-7/h6,8H,3-5H2,1-2H3	InChI=1S/C7H14O2/c1-3-7(2)4-6(5-8)9-7/h6,8H,3-5H2,1-2H3/t6-,7-/m0/s1
