21
gdb 60203	3.39031	0.76333	0.68003	4.483	81.53	-0.2402	-0.0118	0.2284	1685.2062	0.179946	-424.22608	-424.215849	-424.214905	-424.262152	37.029	
C	-0.1178086622	 1.4943982301	-0.2290403382	-0.407187
C	 0.0630413354	-0.0211946975	-0.1394255417	 0.137464
O	 1.1283821258	-0.4652355893	-0.975858761	-0.430848
C	 0.4041280393	-0.4767580396	 1.2823829504	-0.209008
C	 0.4308665677	-1.9861207238	 1.4210902414	 0.005742
C	 1.660128832	-2.7817704444	 1.1627659166	-0.276772
C	 1.1190879482	-2.7060685445	 2.5882958932	-0.131313
C	 1.892218533	-1.9674882354	 3.6078820971	 0.16381
O	 1.9200230833	-2.2515787904	 4.7814903402	-0.274954
H	 0.7965027614	 2.0085213178	 0.0842254167	 0.126205
H	-0.3433580724	 1.7985814202	-1.2576860928	 0.10576
H	-0.9442952995	 1.8326759702	 0.4043417913	 0.118091
H	-0.8795857565	-0.5087961856	-0.4440840613	 0.06388
H	 0.9369990395	-0.1853259954	-1.8764079569	 0.281869
H	 1.3742671582	-0.0425390336	 1.5469467774	 0.107789
H	-0.3364107957	-0.0533808915	 1.9715968403	 0.104074
H	-0.5058506038	-2.4613790488	 1.1381771446	 0.094353
H	 1.5869376702	-3.7376007344	 0.6573718292	 0.123373
H	 2.5712791001	-2.2316804067	 0.9520937659	 0.130591
H	 0.6114913275	-3.5791532814	 2.9841642396	 0.103066
H	 2.4871296387	-1.109830636	 3.217152978	 0.064015
40.6456	80.9666	92.0081	146.0977	234.6517	244.4778	258.9927	283.4759	334.767	363.249	438.3574	455.9897	488.0567	537.002	807.6987	838.0333	839.0424	875.2018	888.5616	934.2197	965.8067	993.9762	1048.5333	1056.3989	1071.8429	1083.9607	1129.0939	1142.5294	1165.9771	1193.9578	1225.8819	1244.6216	1310.15	1320.2632	1345.5512	1383.6397	1405.9476	1416.8234	1428.9267	1452.5307	1473.4604	1491.8413	1494.4367	1499.063	1812.4382	2860.9145	2945.7722	3027.2568	3036.0716	3079.8961	3094.6505	3112.137	3131.6433	3139.1251	3174.2556	3226.3051	3819.889
CC(O)CC1CC1C=O	C[C@@H](O)C[C@H]1C[C@H]1C=O	
InChI=1S/C7H12O2/c1-5(9)2-6-3-7(6)4-8/h4-7,9H,2-3H2,1H3	InChI=1S/C7H12O2/c1-5(9)2-6-3-7(6)4-8/h4-7,9H,2-3H2,1H3/t5-,6+,7+/m1/s1
