20
gdb 72607	2.12821	1.88916	1.60971	2.2132	77.97	-0.2299	0.0832	0.3131	985.3123	0.171295	-403.10032	-403.092115	-403.09117	-403.132456	33.044	
C	-0.0621268237	 1.5613711099	-0.0078285865	-0.494952
C	-0.0120254919	 0.0521170971	 0.0134983755	 0.280907
C	 0.8909454722	-0.6829974683	-1.0211947031	-0.284045
C	 1.6657769086	-1.409930142	 0.1180517842	-0.279305
C	 0.718309397	-0.8138623839	 1.1676589381	 0.418111
O	 1.3359071188	-0.289539686	 2.2961812114	-0.483135
C	-0.5881741016	-1.5741774185	 1.3514400076	-0.142407
N	-1.5669925336	-0.5324920066	 1.7627038901	-0.369438
C	-1.272660267	-0.7435469624	 0.3214917715	-0.103415
H	 0.944685214	 1.9870605127	 0.0648458081	 0.118181
H	-0.5119111529	 1.9313408441	-0.9377600324	 0.109614
H	-0.6527332492	 1.9412232202	 0.830947845	 0.127525
H	 0.353369194	-1.3388715561	-1.7116506076	 0.093901
H	 1.5118853145	-0.0058647489	-1.612248851	 0.102802
H	 1.7231144784	-2.5011359758	 0.0747248994	 0.094202
H	 2.6747864171	-1.0139086204	 0.252370512	 0.115257
H	 0.6254060896	 0.0590349994	 2.8507860133	 0.288572
H	-0.733650571	-2.6140070832	 1.6241734021	 0.088993
H	-2.4457630172	-1.0054882957	 1.969065414	 0.230128
H	-2.0593748659	-1.0401319857	-0.3637568517	 0.088503
129.669	175.6317	197.9752	251.1809	260.6325	332.9726	395.8417	467.7739	508.1844	571.0191	599.0378	646.0479	707.1899	751.3916	830.1781	846.5682	854.999	897.7129	940.7165	944.9411	958.0823	979.8259	1034.3989	1048.9059	1080.9446	1108.6285	1122.4613	1151.487	1204.7487	1212.5382	1216.8439	1254.4397	1263.2119	1281.786	1319.0816	1352.0723	1382.3305	1405.1741	1407.0399	1475.1472	1486.85	1495.0117	1498.0878	3021.3651	3054.0365	3061.3009	3082.4556	3100.357	3108.8012	3121.1859	3163.8643	3177.433	3482.7545	3767.373
CC12CCC1(O)C1NC21	C[C@@]12CC[C@]1(O)[C@H]1N[C@@H]21	
InChI=1S/C7H11NO/c1-6-2-3-7(6,9)5-4(6)8-5/h4-5,8-9H,2-3H2,1H3	InChI=1S/C7H11NO/c1-6-2-3-7(6,9)5-4(6)8-5/h4-5,8-9H,2-3H2,1H3/t4-,5+,6+,7+/m1/s1
