18
gdb 34322	2.25454	1.79734	1.30753	4.3277	82.49	-0.2484	-0.0034	0.245	1034.4685	0.149534	-364.815448	-364.807805	-364.806861	-364.847496	29.923	
N	-0.1666081268	-1.1969646526	 0.0520900048	-0.35071
C	-0.1142987646	-0.0414434227	 0.0247169232	 0.252332
C	-0.063816157	 1.4167854662	-0.0016473721	 0.107754
C	-0.1552685346	 2.0212821791	 1.459963477	-0.277593
C	 1.4144489144	 2.1286430494	 1.4854810555	-0.321893
C	 1.3381000192	 2.0118994221	-0.0169295792	 0.285419
C	 1.6381848127	 2.5946058898	-1.1701164573	-0.224698
C	 0.5185094565	 2.3515379277	-2.1779718254	-0.245557
C	-0.7117368829	 2.0221484781	-1.2738388475	-0.295578
H	-0.6325210728	 3.0029280122	 1.4378149117	 0.119324
H	-0.6218588198	 1.3923726549	 2.2195926952	 0.124831
H	 1.8627524287	 3.0334265697	 1.8999918208	 0.120122
H	 1.8589008797	 1.2538327523	 1.9702415372	 0.134748
H	 2.4939165259	 3.2272613692	-1.3747588058	 0.105306
H	 0.3359114394	 3.230003683	-2.8050102786	 0.111165
H	 0.749308487	 1.5231076149	-2.8609271918	 0.124778
H	-1.4367022107	 1.3607544527	-1.7531787267	 0.118463
H	-1.2251280845	 2.950107984	-1.002965911	 0.111787
103.8501	145.7008	212.4767	247.282	314.5713	377.0618	499.7209	544.8177	578.1537	642.4356	675.8858	731.7482	783.4853	832.5012	864.0738	894.162	903.7802	933.3697	947.8759	986.3491	1012.5533	1074.3795	1107.3227	1116.3802	1148.6321	1192.265	1211.9966	1228.4001	1256.5899	1258.9669	1287.4308	1310.548	1328.4689	1471.0864	1480.2802	1484.2052	1495.2485	1741.4163	2342.483	3022.5791	3055.8548	3058.7474	3075.3161	3076.9836	3116.2057	3117.703	3144.1801	3202.3275
N#CC12CCC1=CCC2	N#C[C@@]12CC[C]1[CH]CC2	
InChI=1S/C8H9N/c9-6-8-4-1-2-7(8)3-5-8/h2H,1,3-5H2	InChI=1S/C8H9N/c9-6-8-4-1-2-7(8)3-5-8/h2H,1,3-5H2/t8-/m1/s1
