18
gdb 65604	3.79609	1.19968	1.18641	1.4926	72.5	-0.2339	-0.0434	0.1905	1093.8154	0.147922	-439.075484	-439.067616	-439.066672	-439.107737	30.861	
O	-0.2738333593	 1.0360868544	-0.5928712454	-0.472025
C	 0.0253105464	-0.217628546	-0.0243702115	 0.254266
C	-1.2513755268	-1.0864917809	 0.1591344351	-0.26436
C	-1.3308764964	-1.9144577652	-1.1143702184	-0.026463
C	-1.126106535	-1.2166507754	-2.4097130797	-0.251434
N	-0.0140303637	-1.9518433819	-1.7777858385	-0.100055
C	 0.8854262533	-1.1001571181	-0.9890533773	-0.19771
C	 0.736103478	-0.0019667924	 1.2941716628	 0.110813
O	 0.9918363921	 1.1009373881	 1.7131806729	-0.270852
H	 0.0739098354	 1.6956657175	 0.0298258474	 0.292404
H	-1.1472544297	-1.7554955025	 1.0223216276	 0.104136
H	-2.1166715843	-0.4419171331	 0.32954924	 0.129064
H	-1.8843462079	-2.8484968526	-1.0784225315	 0.09345
H	-1.4911088504	-1.6734678323	-3.3247689367	 0.114642
H	-1.1003254257	-0.1318290067	-2.4083741926	 0.151587
H	 1.4985906752	-0.4612630994	-1.6290276159	 0.128498
H	 1.5483302328	-1.762727886	-0.4191549087	 0.10345
H	 1.014452826	-0.9183456075	 1.8537137002	 0.10059
93.4438	134.1654	252.5022	320.8112	344.4556	369.9039	398.498	402.5291	476.5753	500.2962	669.5679	746.6196	774.5076	832.9674	838.7153	861.2426	910.6366	927.9795	984.3983	1033.8893	1043.9273	1049.0632	1088.2175	1118.0047	1123.9219	1156.9124	1188.2268	1229.0865	1266.7955	1296.2672	1309.4265	1333.0117	1383.3857	1399.7201	1433.274	1469.4696	1479.6295	1510.7723	1809.5181	2928.7487	3029.4436	3035.0632	3108.5701	3110.3612	3121.4714	3148.4303	3216.4406	3669.2345
OC1(CC2CN2C1)C=O	O[C@]1(C[C@H]2CN2C1)C=O	
InChI=1S/C6H9NO2/c8-4-6(9)1-5-2-7(5)3-6/h4-5,9H,1-3H2	InChI=1S/C6H9NO2/c8-4-6(9)1-5-2-7(5)3-6/h4-5,9H,1-3H2/t5-,6-,7?/m0/s1
