16
gdb 56358	5.26422	0.64385	0.608	2.768	76.28	-0.2575	-0.0499	0.2076	1733.1427	0.122175	-434.080586	-434.070715	-434.069771	-434.117019	33.656	
N	 0.0150915366	 1.2402484153	 0.6744766419	-0.550367
C	 0.1095296626	-0.0357568718	 0.1619158909	 0.263672
N	 1.1369430198	-0.677469804	-0.2395181798	-0.255233
C	 2.4304083225	-0.0214231606	-0.2280538303	-0.197849
C	 3.1240007939	-0.1765347718	 1.1454253209	-0.267248
C	 4.540339991	 0.3482940514	 1.0992398651	 0.154144
O	 4.9481455436	 1.2771787107	 1.7472945046	-0.231611
C	-1.1647427365	-0.7354473702	 0.1334161182	 0.277903
N	-2.1950405739	-1.258145975	 0.1123039668	-0.313077
H	 0.7945136149	 1.8654622608	 0.5473398052	 0.273425
H	-0.8923067106	 1.6776648705	 0.6871296114	 0.278748
H	 3.0485646187	-0.4996549778	-0.995385741	 0.125196
H	 2.3788320988	 1.0481818722	-0.4940798429	 0.096238
H	 2.5754220284	 0.349327332	 1.9310952488	 0.127008
H	 3.1485367538	-1.2462149929	 1.3887891456	 0.139725
H	 5.2078041564	-0.1899663288	 0.3861863447	 0.079328
38.0036	58.2643	85.9111	93.1372	178.4935	258.7545	293.4261	334.5657	386.4191	400.435	469.8602	514.3266	563.2183	608.0946	722.6332	785.2278	827.3648	871.827	970.0385	1007.4747	1081.1262	1118.8096	1156.1326	1225.2231	1271.6994	1301.8448	1336.3254	1365.4784	1429.2922	1470.4154	1523.8312	1638.4032	1717.164	1834.8254	2361.4943	2861.1001	2953.7172	3039.5055	3058.3415	3113.0815	3594.0822	3709.147
NC(=NCCC=O)C#N	NC(=NCCC=O)C#N	
InChI=1S/C5H7N3O/c6-4-5(7)8-2-1-3-9/h3H,1-2H2,(H2,7,8)	InChI=1S/C5H7N3O/c6-4-5(7)8-2-1-3-9/h3H,1-2H2,(H2,7,8)
