27
gdb 59654	2.20208	1.24073	0.9987	0.0617	95.72	-0.2735	0.0759	0.3495	1404.0459	0.25051	-353.566089	-353.555228	-353.554284	-353.601004	42.178	
C	 0.910747087	 1.5168770836	 0.3041977643	-0.388856
C	 0.3237831652	 0.1098204144	 0.1136876547	 0.010988
C	-1.2103576596	 0.1695442081	 0.0718568922	-0.392767
C	 0.9034236089	-0.5476175407	-1.1409710686	 0.04341
C	 2.4392379671	-0.7448585894	-1.2566760758	-0.254691
C	 2.1802613381	-2.0768846062	-2.002870958	-0.255997
C	 0.7190333743	-2.0843526889	-1.4501865475	 0.319531
C	 0.6090985413	-2.9622665148	-0.1989445887	-0.439126
C	-0.3701362652	-2.4470076097	-2.4567523998	-0.454196
H	 2.0025763653	 1.4919137543	 0.3749651151	 0.114059
H	 0.6462908993	 2.168041513	-0.5379536815	 0.108983
H	 0.5260426945	 1.9837915636	 1.2171777973	 0.106371
H	 0.6180568721	-0.4926271024	 0.9842658863	 0.06653
H	-1.5530778815	 0.7662054968	-0.7821683919	 0.109523
H	-1.6571860515	-0.8248831612	-0.0193438192	 0.114816
H	-1.6116023234	 0.6317994662	 0.9802981097	 0.107309
H	 0.5519914466	 0.0157253421	-2.0168368497	 0.056632
H	 3.0102480599	 0.025449689	-1.7803678927	 0.092707
H	 2.903320135	-0.9060331836	-0.2780245614	 0.096557
H	 2.2008634285	-1.9469991546	-3.0892086879	 0.092054
H	 2.8098301967	-2.9334020138	-1.7449226075	 0.088415
H	 1.4008349255	-2.74911469	 0.5264576148	 0.111769
H	-0.3521485158	-2.8308024663	 0.3091486671	 0.112272
H	 0.6939058595	-4.0198964963	-0.4744767902	 0.108085
H	-0.2800424102	-3.4938190225	-2.7719673856	 0.108337
H	-1.3728299208	-2.3173402985	-2.0332401814	 0.111287
H	-0.3037563168	-1.8226261021	-3.354302354	 0.105996
82.1191	121.6885	161.3519	218.3269	229.8527	236.6408	256.8176	264.7696	292.7588	323.2795	342.323	362.7391	417.9255	457.5123	501.482	604.4914	719.416	777.9894	871.4059	880.1967	912.2211	927.7539	949.1733	952.3265	964.3668	974.2572	980.5835	1004.1314	1031.0398	1089.7815	1129.1663	1168.7759	1183.8524	1198.2303	1217.6625	1234.2217	1253.8408	1269.4583	1281.4503	1313.0218	1323.8819	1350.153	1397.1449	1397.2946	1401.0558	1417.643	1420.9965	1478.6724	1484.2488	1486.0657	1490.2857	1492.8839	1499.3301	1503.4562	1505.4762	1508.8335	1510.7645	2998.1565	3013.805	3016.8996	3022.5112	3025.1502	3028.2494	3044.6308	3049.5805	3079.7436	3085.2126	3087.1106	3088.473	3091.4431	3092.151	3096.0902	3101.9631	3106.2836	3107.1815
CC(C)C1CCC1(C)C	CC(C)[C@H]1CCC1(C)C	
InChI=1S/C9H18/c1-7(2)8-5-6-9(8,3)4/h7-8H,5-6H2,1-4H3	InChI=1S/C9H18/c1-7(2)8-5-6-9(8,3)4/h7-8H,5-6H2,1-4H3/t8-/m1/s1
