19
gdb 68660	4.40968	0.88619	0.85834	2.4101	76.86	-0.249	-0.0234	0.2256	1372.4806	0.157675	-422.988231	-422.979473	-422.978529	-423.022497	32.898	
O	-0.1155969661	 1.3499726016	 0.0739736931	-0.466562
C	 0.0240137498	-0.0214383651	 0.017096391	 0.400499
C	 0.647981953	-0.981505773	 1.0791662602	-0.333583
C	 0.094597211	-1.8871444023	-0.0613162798	 0.321615
C	 0.1605359846	-3.3975449595	-0.1134253245	-0.401358
C	-0.5185283105	-3.9635629538	-1.3434618567	 0.161566
O	 0.0103994313	-4.6837324806	-2.1498480948	-0.237882
C	-1.1823129523	-0.9808043916	-0.0629357914	-0.29355
C	 0.7186149667	-0.8843685566	-1.0819468907	-0.319948
H	 0.7614967076	 1.7478500128	 0.0936905188	 0.284175
H	 1.736108842	-0.9567348404	 1.1931781109	 0.087623
H	 0.1384908307	-1.0438435493	 2.0446940745	 0.094473
H	 1.1965678369	-3.7496647482	-0.0965006033	 0.122901
H	-0.3552502106	-3.8078656466	 0.7673280233	 0.120895
H	-1.5843630954	-3.6590774731	-1.4601896707	 0.07737
H	-1.8224955943	-1.0371780305	 0.8217447838	 0.095301
H	-1.767082645	-0.9485762591	-0.9859944562	 0.097748
H	 0.2745034212	-0.8567276145	-2.0805955038	 0.099621
H	 1.8116729297	-0.8527664803	-1.1227634435	 0.089095
46.7885	63.9211	154.454	224.5643	253.8925	313.1515	406.266	416.1322	466.8622	551.4685	555.0421	626.3646	657.8398	759.4361	779.9664	837.9999	937.7023	957.6132	975.8456	984.4956	1014.8258	1071.9457	1073.8962	1104.9535	1115.0811	1131.973	1140.385	1151.9553	1161.9126	1174.131	1252.3139	1292.4444	1298.8872	1336.8449	1383.5032	1429.1134	1455.2282	1494.264	1495.3388	1564.0102	1835.647	2865.095	3009.0393	3041.895	3045.9447	3055.662	3090.1878	3110.7843	3116.2584	3119.3969	3808.6606
OC12CC(CC=O)(C1)C2	O[C@@]12C[C@@](CC=O)(C1)C2	
InChI=1S/C7H10O2/c8-2-1-6-3-7(9,4-6)5-6/h2,9H,1,3-5H2	InChI=1S/C7H10O2/c8-2-1-6-3-7(9,4-6)5-6/h2,9H,1,3-5H2/t6-,7-
