23
gdb 115273	3.41324	0.93256	0.88931	2.0212	81.44	-0.2581	0.0654	0.3235	1431.9836	0.205203	-425.442079	-425.432115	-425.431171	-425.476948	38.178	
C	-0.1910471449	 1.5214688615	 0.0641946103	-0.44558
C	 0.106207209	 0.0262651701	-0.0313761941	 0.39409
O	-1.102291708	-0.6964613637	-0.3129320227	-0.474175
C	 1.1909477454	-0.3445122029	-1.0607712152	-0.243763
C	 1.5542183854	-1.7931152011	-0.6993340975	-0.215347
C	 1.4571466132	-1.8545539134	 0.8515949387	 0.04526
C	 2.8262928535	-1.8799003111	 1.5231961785	-0.087277
O	 3.4820112664	-3.087156495	 1.1644812632	-0.422128
C	 0.6502547184	-0.5938561171	 1.2690877606	-0.25309
H	 0.7080528651	 2.0925895504	 0.3172688882	 0.110543
H	-0.5699843045	 1.9044115258	-0.8912923314	 0.101141
H	-0.9515391744	 1.7118954617	 0.8274137101	 0.121488
H	-1.4165273265	-0.4138619094	-1.178670133	 0.272145
H	 0.8414812763	-0.2240324251	-2.0928447171	 0.078888
H	 2.0541768456	 0.3212904295	-0.9345795127	 0.090746
H	 0.8220640325	-2.4722304801	-1.1424939781	 0.102688
H	 2.5410699852	-2.0979533106	-1.0551402189	 0.102074
H	 0.9353217976	-2.766008644	 1.1558732646	 0.082462
H	 3.4102250702	-1.0000717575	 1.2007436199	 0.076671
H	 2.7027617632	-1.8048501046	 2.6161419169	 0.083078
H	 4.3602533482	-3.0816811222	 1.5556439925	 0.284625
H	 1.3027382467	 0.1317437691	 1.7697493016	 0.086799
H	-0.172093674	-0.8201380502	 1.9515560757	 0.108663
36.6397	130.5755	161.1898	237.5424	249.933	265.7877	287.4294	298.2253	319.779	391.0442	403.058	431.1146	487.6305	595.3762	650.8155	753.7979	811.9622	849.8022	901.1593	914.2423	935.6655	964.4613	986.1716	1016.7086	1058.1732	1065.3562	1079.5272	1113.6039	1132.8826	1179.8127	1185.0672	1213.1922	1251.2248	1270.5932	1275.3804	1298.3762	1323.5249	1342.9586	1349.9127	1364.9037	1393.1233	1406.9261	1455.7864	1477.5114	1484.029	1492.571	1495.6188	1498.2647	1520.0149	2946.2862	2979.0094	3021.705	3026.043	3037.8529	3058.8751	3065.1796	3075.9533	3089.5631	3104.7547	3111.905	3115.1234	3801.7968	3831.1469
CC1(O)CCC(CO)C1	C[C@@]1(O)CC[C@@H](CO)C1	
InChI=1S/C7H14O2/c1-7(9)3-2-6(4-7)5-8/h6,8-9H,2-5H2,1H3	InChI=1S/C7H14O2/c1-7(9)3-2-6(4-7)5-8/h6,8-9H,2-5H2,1H3/t6-,7-/m1/s1
