16
gdb 15520	3.23575	1.79918	1.1818	1.5907	77.39	-0.2238	-0.0197	0.2041	990.1591	0.129014	-346.585453	-346.577227	-346.576283	-346.61825	29.478	
C	-0.0265730388	 1.5027075265	 0.0971422235	-0.516049
C	 0.0357188679	 0.0160048077	 0.0114949119	 0.175123
C	 0.0300359575	-0.7591330275	-1.0841405133	 0.09136
C	 0.1090664098	-2.2146486218	-0.674128617	-0.171246
O	 0.1595189043	-2.20200607	 0.7467065442	-0.265013
C	 0.1187779806	-0.8657091289	 1.2274430562	-0.137664
C	-0.0368525532	-0.3521535422	-2.4346134907	 0.214425
C	-0.0927099588	-0.0447977876	-3.5990120556	-0.433818
H	 0.8551352837	 1.9051634166	 0.6117853577	 0.134033
H	-0.0820094678	 1.9523086884	-0.8965176896	 0.143934
H	-0.9010820818	 1.82794908	 0.6748049445	 0.134049
H	-0.7662415418	-2.7861759552	-1.0175303376	 0.112554
H	 1.0044883442	-2.7078525111	-1.0812466427	 0.112517
H	 1.0180033752	-0.6508885283	 1.8289145914	 0.106137
H	-0.7493653768	-0.7282464309	 1.8937074801	 0.106169
H	-0.1424294243	 0.2348051044	-4.6221190132	 0.193488
85.0196	136.846	145.6835	156.1418	228.536	304.6201	402.264	493.8687	568.302	569.3112	601.6518	631.2872	647.8416	823.8182	938.6995	954.6221	967.2446	1049.7896	1086.753	1092.5746	1114.817	1172.5348	1198.0417	1223.5485	1277.948	1370.9208	1393.196	1414.9048	1480.3375	1481.9967	1515.8243	1529.9565	1709.6657	2220.9391	2959.1332	2972.7929	2985.8527	3007.1573	3020.5419	3065.7997	3127.1776	3502.6765
CC1=C(COC1)C#C	CC1=C(COC1)C#C	
InChI=1S/C7H8O/c1-3-7-5-8-4-6(7)2/h1H,4-5H2,2H3	InChI=1S/C7H8O/c1-3-7-5-8-4-6(7)2/h1H,4-5H2,2H3
