19
gdb 113053	5.91356	0.68419	0.64731	3.5318	77.23	-0.2396	0.021	0.2606	1682.3873	0.158927	-419.182441	-419.173039	-419.172095	-419.217669	33.442	
O	 0.2220024781	 1.309480355	-0.2601957737	-0.41448
C	 0.0846819387	-0.0455079994	 0.1402205535	-0.082566
C	-1.3533510912	-0.5263381851	 0.0652675605	-0.006583
C	-2.0254665841	-0.5967904848	-1.3286527813	-0.178212
N	-2.6221584772	-1.8914703417	-0.934550676	-0.076496
C	-2.7168868658	-2.9230423993	-1.9443098598	-0.287264
C	-3.3042904516	-4.1531963354	-1.3999556736	 0.277862
N	-3.7466356028	-5.1282435628	-0.9668961598	-0.303863
C	-1.6376094992	-2.0482987055	 0.158271594	-0.199174
H	-0.2485117294	 1.8566841287	 0.3769427509	 0.284357
H	 0.7086809714	-0.6209469407	-0.5529862411	 0.109488
H	 0.4874271605	-0.2123458894	 1.1523150191	 0.09423
H	-1.9765819559	 0.0303246587	 0.7730483893	 0.081874
H	-2.7497505124	 0.1748800692	-1.604945929	 0.112489
H	-1.2752713485	-0.6862959577	-2.1318510287	 0.093605
H	-3.35737868	-2.5653089979	-2.7594796944	 0.156225
H	-1.7391103839	-3.1851000199	-2.3954360822	 0.123844
H	-0.7579297945	-2.6471569992	-0.1335148323	 0.091999
H	-2.0463137522	-2.4516438728	 1.0884432445	 0.122665
49.9067	64.7591	110.2694	148.1641	212.3196	296.2575	329.0388	333.2137	387.47	396.4636	459.7967	510.2816	695.6542	800.5982	897.0638	902.2131	935.4322	962.535	990.0474	1022.8221	1067.8319	1105.7174	1111.4773	1121.5959	1135.6547	1166.0704	1221.5196	1252.8788	1260.2907	1268.0165	1295.178	1331.876	1365.9514	1389.6985	1398.41	1421.6006	1471.4089	1500.5944	1505.3919	1528.0791	2367.0415	2909.7356	2958.8591	2970.8005	2977.7996	3047.6818	3056.1711	3068.6882	3078.4607	3087.4786	3814.567
OCC1CN(CC#N)C1	OCC1CN(CC#N)C1	
InChI=1S/C6H10N2O/c7-1-2-8-3-6(4-8)5-9/h6,9H,2-5H2	InChI=1S/C6H10N2O/c7-1-2-8-3-6(4-8)5-9/h6,9H,2-5H2
