18
gdb 98094	3.72058	1.06082	0.85246	1.8576	77.3	-0.2408	-0.0291	0.2116	1356.6681	0.147594	-435.273462	-435.263975	-435.263031	-435.308684	33.256	
C	-0.0225102431	 1.3919907412	 0.0041524858	-0.333223
N	-0.1545660067	-0.0459197542	 0.0725646653	-0.302323
C	-1.3445588669	-0.6685845971	 0.2135514243	 0.40009
O	-2.4270096678	-0.1141147439	 0.3161466134	-0.388798
C	-1.2113791398	-2.194449874	 0.2189162754	 0.229221
N	-0.0692895039	-2.7123856553	-0.0260009631	-0.529403
N	-2.3632945095	-2.8621658382	 0.5844870131	-0.065
C	-3.6409137956	-2.7564102954	-0.0840409715	-0.199387
C	-2.8699930673	-4.0438622414	-0.0850498931	-0.247644
H	 0.3696718567	 1.7122294711	-0.9682125494	 0.127317
H	-1.0144396301	 1.8235920324	 0.1458121669	 0.165906
H	 0.6459366177	 1.7653289451	 0.7877452856	 0.128342
H	 0.6452241351	-0.6555232048	-0.0280926967	 0.266928
H	-0.1034546954	-3.7327428704	 0.0098485465	 0.219683
H	-4.5015093089	-2.6345134187	 0.566142794	 0.133308
H	-3.6807328397	-2.1894967559	-1.0083231307	 0.140468
H	-2.3839992356	-4.3408882078	-1.0127220158	 0.124959
H	-3.1715858791	-4.8635441326	 0.5605280802	 0.129557
57.7046	79.0861	100.7779	135.5843	163.4067	223.0168	260.9333	358.2905	402.8619	468.1813	518.9174	644.2677	658.1219	792.8969	806.4048	828.7642	882.0853	889.3044	968.7243	1035.6266	1049.9756	1102.394	1130.1404	1135.0151	1152.7529	1167.4735	1171.5142	1184.5431	1219.6342	1323.7069	1428.8084	1441.4883	1495.4341	1496.0902	1498.7499	1525.1241	1575.9053	1688.4107	1780.185	3025.8504	3077.1041	3101.185	3128.0423	3148.0007	3190.2358	3218.9597	3458.9525	3595.8205
CNC(=O)C(=N)N1CC1	CNC(=O)[C]([NH])N1CC1	
InChI=1S/C5H9N3O/c1-7-5(9)4(6)8-2-3-8/h6H,2-3H2,1H3,(H,7,9)	InChI=1S/C5H9N3O/c1-7-5(9)4(6)8-2-3-8/h6H,2-3H2,1H3,(H,7,9)
