17
gdb 67966	2.27825	1.88542	1.33234	4.2748	67.27	-0.2539	-0.003	0.2509	994.8863	0.136504	-459.000118	-458.992465	-458.991521	-459.032184	29.374	
C	-0.1650259871	 1.5952572326	 0.045420642	-0.466828
C	-0.0057369316	 0.0941114104	 0.0783486368	 0.400572
C	-1.2549522854	-0.7580971648	-0.1437871744	-0.272305
C	-0.9219506982	-2.0643264223	 0.5995979825	-0.106708
O	-0.1135345266	-1.6663807889	 1.7139650878	-0.248335
C	 0.6972516117	-0.6125087368	 1.2713542808	-0.116393
C	 1.7667964293	-0.9739222035	 0.206496923	 0.411931
O	 2.7932722729	-1.5678152882	 0.1412958756	-0.32246
O	 1.0974116403	-0.3408527719	-0.8119635064	-0.289631
H	 0.7874870202	 2.0915884908	 0.2513785969	 0.133983
H	-0.514471402	 1.9268535702	-0.9371800751	 0.139075
H	-0.8952020814	 1.9160455684	 0.794491273	 0.131096
H	-2.1154986919	-0.2637305754	 0.317309028	 0.117039
H	-1.4645490211	-0.9086799792	-1.2050986276	 0.127002
H	-1.7942103077	-2.5870828907	 0.9953456348	 0.122497
H	-0.3636081541	-2.7538101644	-0.0488701937	 0.122789
H	 1.0490438727	-0.0320032262	 2.1249196458	 0.116675
104.8445	181.1324	219.8825	257.0265	300.2065	333.6149	384.6756	486.8096	601.7614	628.4481	658.4749	734.6687	820.8635	837.7061	880.1374	926.4222	952.0457	973.3796	981.3958	1025.9833	1078.7297	1123.7989	1150.9257	1183.95	1229.4262	1235.3901	1247.2675	1275.0144	1320.864	1361.2028	1390.9887	1417.0065	1468.4647	1484.2793	1496.0355	1517.6639	1936.3033	3013.9016	3041.9323	3063.0154	3113.2759	3115.7168	3118.1217	3120.0789	3125.2974
CC12CCOC1C(=O)O2	C[C@]12CCO[C@H]1C(=O)O2	
InChI=1S/C6H8O3/c1-6-2-3-8-4(6)5(7)9-6/h4H,2-3H2,1H3	InChI=1S/C6H8O3/c1-6-2-3-8-4(6)5(7)9-6/h4H,2-3H2,1H3/t4-,6-/m0/s1
