21
gdb 80096	2.2088	1.72542	1.37498	1.3271	82.93	-0.2326	0.0147	0.2473	1066.0756	0.184067	-387.092102	-387.083743	-387.082799	-387.124542	33.555	
C	 0.0487728233	 1.5715855415	-0.0036766696	-0.39574
C	 0.0134634829	 0.0373927881	 0.0002256442	 0.016384
C	 0.5203884973	-0.5285918707	-1.3473652605	-0.267426
C	 0.885917222	-1.9886463725	-1.3000495222	-0.108133
C	 1.2148964634	-2.6231515836	-0.1678813364	-0.060883
C	 1.2897761116	-1.9426526211	 1.1423217732	-0.161261
C	 2.2267079841	-0.7379223549	 1.2713241152	 0.10502
O	 3.0717591862	-0.3712261115	 0.2241070642	-0.424449
C	 0.7400843507	-0.5239730174	 1.2154123263	-0.076526
H	 1.081167538	 1.9285684914	-0.0752848793	 0.132787
H	-0.5136174929	 1.9785531635	-0.8512375912	 0.106283
H	-0.3869005358	 1.9809372374	 0.9139244268	 0.106782
H	-1.0333030224	-0.2815472396	 0.103644456	 0.075372
H	-0.2460976694	-0.3643784461	-2.1144892373	 0.099961
H	 1.3917302188	 0.056422364	-1.6708269152	 0.119796
H	 0.8781045839	-2.5356809291	-2.2394088664	 0.089963
H	 1.4722380487	-3.6787607912	-0.1937920427	 0.089514
H	 1.201653676	-2.5803604786	 2.0157874334	 0.085059
H	 2.7088913836	-0.6042793892	 2.2368880492	 0.096988
H	 3.034957058	-1.0723921519	-0.4404194419	 0.288271
H	 0.2794990622	-0.2468466086	 2.1610766443	 0.082238
94.1295	189.7538	204.6631	247.7757	290.0097	348.9005	369.9301	417.6746	442.1097	519.9207	585.3627	681.8232	707.2933	742.6677	783.341	801.59	863.8434	901.356	926.6145	965.538	991.4467	1007.0233	1034.7977	1043.1421	1074.4064	1103.6927	1116.7067	1126.8372	1175.5624	1200.8816	1222.0382	1261.3376	1321.1521	1334.2792	1349.5129	1359.155	1379.9858	1394.6648	1410.6662	1423.6427	1441.5137	1477.8855	1496.9717	1503.7006	1696.3884	2996.4705	3016.4781	3028.8553	3049.4033	3094.4539	3107.4841	3123.5384	3133.8039	3146.8252	3158.4173	3172.6984	3736.0625
CC1CC=CC2C(O)C12	C[C@H]1CC=C[C@H]2[C@@H](O)[C@@H]12	
InChI=1S/C8H12O/c1-5-3-2-4-6-7(5)8(6)9/h2,4-9H,3H2,1H3	InChI=1S/C8H12O/c1-5-3-2-4-6-7(5)8(6)9/h2,4-9H,3H2,1H3/t5-,6+,7-,8+/m0/s1
