17
gdb 97184	2.78693	1.34349	0.94052	2.5643	73.12	-0.2573	-0.0094	0.2479	1215.7152	0.137324	-455.205198	-455.196827	-455.195882	-455.238652	30.507	
C	-0.1171873765	 1.4327963583	 0.0612874688	-0.349325
N	-0.0936466911	-0.0211425494	 0.0373634891	-0.290408
C	 0.5586375725	-0.6085054929	-0.8793506327	 0.401272
C	 0.6088061953	-2.1099309588	-0.9829920668	-0.299335
C	 1.9600819905	-2.5323722878	-1.5384053084	-0.089314
O	 2.212190553	-1.9043479497	-2.8080066021	-0.235431
C	 1.9993803716	-0.5783662637	-2.9274448609	 0.478463
O	 2.4032614018	 0.0435513596	-3.8723996095	-0.372214
N	 1.2860510118	 0.0235174856	-1.8924124397	-0.428834
H	 0.889888808	 1.8690293959	 0.1447680043	 0.119664
H	-0.593126231	 1.8592431938	-0.835578523	 0.120274
H	-0.6943306388	 1.7679893377	 0.9256791194	 0.134052
H	 0.4238745578	-2.5410296611	 0.001977405	 0.142893
H	-0.1836647107	-2.4543669329	-1.6588468825	 0.138521
H	 2.7706624049	-2.2712247656	-0.8467759789	 0.126654
H	 2.005021279	-3.6041581886	-1.7363145172	 0.135059
H	 1.2040769121	 1.0225611597	-2.006289295	 0.26801
81.3564	117.9255	139.6535	203.4713	213.7572	296.4268	403.8912	480.2014	507.9673	556.1701	608.7199	636.4455	704.6828	769.629	800.0193	901.2588	960.1171	997.9267	1031.8262	1076.3986	1103.3453	1110.9157	1164.7336	1218.4441	1241.714	1277.7191	1339.3912	1372.633	1419.8378	1426.3081	1438.7695	1463.4784	1496.5318	1508.6953	1513.8226	1760.179	1858.0146	2973.1576	3022.9686	3033.5295	3045.9407	3109.4954	3124.6066	3131.1969	3634.8752
CN=C1CCOC(=O)N1	CN=C1CCOC(=O)N1	
InChI=1S/C5H8N2O2/c1-6-4-2-3-9-5(8)7-4/h2-3H2,1H3,(H,6,7,8)	InChI=1S/C5H8N2O2/c1-6-4-2-3-9-5(8)7-4/h2-3H2,1H3,(H,6,7,8)
