23
gdb 61552	3.558	0.79476	0.73913	2.5891	86.31	-0.2371	-0.0075	0.2296	1653.1835	0.203315	-388.304984	-388.294303	-388.293359	-388.341814	38.48	
C	 0.0464191109	 1.5426062858	-0.0084624778	-0.392756
C	 0.0343529859	-0.0009558375	-0.0040401665	-0.081805
C	 0.6534515622	-0.6105291653	-1.2751211202	-0.199009
C	-0.079252472	-0.2650046213	-2.5549417385	 0.017436
C	 0.3333593756	 0.9140175057	-3.4046859591	-0.251645
C	 0.5885582102	-0.4914630825	-3.8878435384	-0.280492
C	 0.7849727136	-0.4769902968	 1.243484022	 0.385916
C	-0.0382115798	-0.6587309358	 2.5067571542	-0.481133
O	 1.9771965494	-0.6846954852	 1.2253894189	-0.311165
H	 1.0733734338	 1.9142981348	-0.0831284213	 0.130902
H	-0.5209998232	 1.9289918032	-0.8578732668	 0.132419
H	-0.3948613198	 1.9524778538	 0.9059151382	 0.112906
H	-1.0107402004	-0.3291935888	 0.0812970977	 0.071977
H	 1.7005688142	-0.2955765696	-1.3420122971	 0.113166
H	 0.6787413335	-1.7017951388	-1.1573461399	 0.097767
H	-1.1473446071	-0.4728043882	-2.529955604	 0.075981
H	-0.4379937851	 1.4968923729	-3.8965512224	 0.108118
H	 1.1880639828	 1.4975045499	-3.0784653596	 0.112512
H	 1.6130722007	-0.8495796054	-3.8824067036	 0.11323
H	-0.009185219	-0.8719081015	-4.7087530625	 0.108908
H	-0.69241458	 0.2015879244	 2.6824545903	 0.134837
H	-0.6912921547	-1.5322196165	 2.3885918649	 0.141666
H	 0.6173225782	-0.8149263973	 3.3643921415	 0.140264
38.0793	55.2048	99.1208	128.0825	145.7752	222.5468	236.7916	276.3199	292.7423	331.9214	391.317	484.1165	591.9479	601.5341	768.6566	780.2389	801.7164	838.1644	885.1928	889.5376	935.394	953.3465	986.4326	994.131	1051.3712	1060.6279	1080.4605	1091.9258	1126.2593	1143.5743	1161.7259	1199.4499	1205.4364	1228.7766	1267.3096	1310.562	1344.08	1373.9925	1384.9716	1399.0253	1417.7112	1462.3036	1468.8471	1475.3458	1482.4464	1496.8339	1501.5814	1508.671	1807.8502	3010.8641	3022.7334	3033.7797	3038.253	3073.5406	3094.7366	3104.2005	3121.8627	3126.7659	3128.1603	3133.6504	3150.61	3205.5893	3220.9182
CC(CC1CC1)C(C)=O	C[C@@H](CC1CC1)C(=O)C	
InChI=1S/C8H14O/c1-6(7(2)9)5-8-3-4-8/h6,8H,3-5H2,1-2H3	InChI=1S/C8H14O/c1-6(7(2)9)5-8-3-4-8/h6,8H,3-5H2,1-2H3/t6-/m0/s1
