23
gdb 95837	2.69838	1.1227	0.85561	2.6672	81.25	-0.2594	0.0712	0.3306	1387.9374	0.20726	-425.437241	-425.427904	-425.42696	-425.471045	36.569	
O	-0.2021326992	 1.5024054545	 0.1707090604	-0.442603
C	 0.0112673294	 0.097758824	 0.0334950656	 0.139867
C	 0.8901588912	-0.4539425857	 1.169052162	-0.21028
C	 1.6063820415	-1.7660801465	 0.8086849843	-0.214365
C	 0.7289284868	-3.0238207315	 0.7325198164	-0.207863
C	-0.4911058344	-2.9511741953	-0.1970430748	 0.142799
O	-1.1234410482	-4.2292089488	-0.2694537477	-0.442988
C	-1.5676743187	-1.9867710864	 0.3140412013	-0.203409
C	-1.3990340838	-0.5058916349	-0.060811948	-0.203489
H	 0.6545678705	 1.9386527369	 0.1237928539	 0.275592
H	 0.5456926236	-0.0968168051	-0.9121387206	 0.058096
H	 1.6575210164	 0.3014423205	 1.3841269612	 0.079999
H	 0.304150789	-0.560833291	 2.0903858339	 0.100749
H	 2.119301829	-1.624957545	-0.1532883569	 0.093793
H	 2.3979612568	-1.9524882084	 1.5434366065	 0.097156
H	 1.3648522765	-3.8598757371	 0.4073555732	 0.077296
H	 0.3627350277	-3.2879457384	 1.7330908829	 0.103606
H	-0.1678401538	-2.6402338395	-1.2064154094	 0.057092
H	-0.4505817155	-4.8807889627	-0.4917026417	 0.275563
H	-2.5256354416	-2.3350133507	-0.0837858607	 0.110405
H	-1.6347634642	-2.0985914185	 1.4027561351	 0.097494
H	-2.0373741822	 0.0941431098	 0.5970851298	 0.112767
H	-1.7686886668	-0.3359378402	-1.0780193366	 0.102724
69.9437	150.4768	177.1901	268.3949	298.4013	304.1572	312.5373	319.3178	340.2068	425.3899	448.6769	463.46	524.5974	578.572	754.29	824.9289	852.7424	878.7813	894.8898	909.8599	1017.1084	1025.4732	1035.4967	1063.5692	1074.397	1083.2313	1114.4159	1133.7416	1195.0938	1210.3042	1230.6213	1237.9487	1269.2934	1288.4205	1311.549	1344.7024	1353.3755	1361.7315	1366.7067	1387.1639	1402.6727	1407.2616	1435.8993	1440.1774	1479.2284	1484.1151	1488.4317	1491.2607	1508.7016	2935.7741	2946.7778	2998.8545	3008.6585	3014.9529	3034.6554	3039.7853	3047.1543	3055.9704	3063.929	3074.9805	3089.8948	3812.2519	3814.2269
OC1CCCC(O)CC1	O[C@H]1CCC[C@@H](O)CC1	
InChI=1S/C7H14O2/c8-6-2-1-3-7(9)5-4-6/h6-9H,1-5H2	InChI=1S/C7H14O2/c8-6-2-1-3-7(9)5-4-6/h6-9H,1-5H2/t6-,7+
