17
gdb 112215	2.54212	1.32942	0.98409	3.3093	69.13	-0.2742	0.0018	0.276	1197.9375	0.135494	-458.970616	-458.962151	-458.961207	-459.004086	31.168	
O	 0.0485392719	 1.4459344276	-0.1634038303	-0.415105
C	 0.0018180687	 0.1201050534	 0.320084439	-0.068978
C	-1.353090564	-0.5103910032	 0.0656462862	 0.028892
O	-1.5937061216	-0.6015050363	-1.3918942405	-0.291416
C	-1.7023288616	-1.9785198723	-1.3365078098	 0.442237
O	-1.9021649364	-2.7330113094	-2.2333462246	-0.338367
C	-1.4897027398	-2.0258738648	 0.1457742984	 0.102471
C	-0.7235364	-3.0694067386	 0.9170549789	-0.317168
C	-2.2022097108	-2.9216161441	 1.1221326862	-0.316809
H	-0.1592255677	 1.4068526922	-1.1045144554	 0.297582
H	 0.7838817524	-0.5116929018	-0.1289604464	 0.098528
H	 0.1886546086	 0.1693234366	 1.3988077736	 0.115139
H	-2.1568458372	 0.070883622	 0.5256278094	 0.108651
H	-0.3609429422	-3.9222135649	 0.3539160312	 0.145436
H	-0.0591142223	-2.7234192419	 1.7014167493	 0.131994
H	-2.55121489	-2.4702257235	 2.0446547962	 0.131612
H	-2.8608733379	-3.6732915411	 0.7012913388	 0.1453
87.1484	126.6736	141.1091	197.9285	207.3522	288.9959	369.073	424.0104	475.8555	581.9581	619.5697	731.127	761.1599	786.7951	847.5861	878.5549	936.4029	960.8655	1002.4412	1034.0878	1063.8967	1084.1425	1093.1976	1103.3802	1116.7948	1196.5315	1217.493	1248.3376	1262.1848	1341.7643	1393.2805	1404.6404	1433.9216	1459.422	1494.0127	1498.7265	1936.2314	2989.0409	3067.8178	3086.5035	3136.4468	3138.5229	3219.6683	3233.6192	3796.5182
OCC1OC(=O)C11CC1	OC[C@H]1OC(=O)C21CC2	
InChI=1S/C6H8O3/c7-3-4-6(1-2-6)5(8)9-4/h4,7H,1-3H2	InChI=1S/C6H8O3/c7-3-4-6(1-2-6)5(8)9-4/h4,7H,1-3H2/t4-/m1/s1
