21
gdb 53287	2.52614	0.92232	0.74047	0.172	93.46	-0.2235	0.057	0.2805	1621.4144	0.181214	-349.907407	-349.897413	-349.896469	-349.944452	35.901	
C	 0.1411351432	 1.5297859582	 0.0386848151	-0.49814
C	 0.0758034337	 0.0751899462	 0.0345897826	 0.052888
C	 0.026945317	-1.1294595929	 0.0323579106	 0.093522
C	-0.0163021024	-2.5633659977	 0.0180155487	-0.202446
C	-0.494540491	-3.3321250085	 1.2436089411	-0.305625
C	-1.3463853414	-3.3165662273	 0.0060278221	-0.003765
C	-2.6485632635	-2.5861845949	-0.0298379802	 0.024767
C	-3.51890793	-2.6456846171	-1.2606270538	-0.26774
C	-3.9484743222	-3.3532055533	 0.0013252172	-0.274924
H	 1.1351021312	 1.8816461204	-0.2600761578	 0.146596
H	-0.58524171	 1.9687272156	-0.6548526301	 0.144269
H	-0.0647462902	 1.9373856739	 1.0350192331	 0.144264
H	 0.7852722603	-3.033780682	-0.5450995142	 0.103916
H	 0.0364050415	-4.2399558647	 1.5083169522	 0.111976
H	-0.8261093357	-2.7387268702	 2.0884805386	 0.121609
H	-1.334270943	-4.2284282031	-0.5868479797	 0.081864
H	-2.6377219302	-1.6370141923	 0.4969143992	 0.090065
H	-4.0507933844	-1.7492744607	-1.559374787	 0.110732
H	-3.1782624192	-3.2551594001	-2.0915147593	 0.108663
H	-3.8965899029	-4.4370916534	 0.0171834737	 0.108299
H	-4.7756952309	-2.9422430962	 0.5696603979	 0.109209
19.9961	50.5366	74.3633	126.4318	185.5713	231.4015	287.7652	305.3664	372.8854	431.0877	515.6596	584.4118	699.0863	736.8525	798.1925	822.2469	833.9023	903.2063	904.1467	953.8458	980.0764	1002.6523	1051.4663	1053.5669	1059.5682	1065.664	1074.2401	1079.9444	1119.5909	1134.6195	1179.6511	1196.8145	1215.1664	1224.2592	1256.2112	1315.8451	1388.8408	1415.4413	1450.7877	1469.4737	1477.8893	1480.3197	1486.181	1509.2393	2365.1955	3022.5148	3080.319	3082.8783	3125.3548	3127.9063	3132.9895	3133.628	3139.9994	3157.4777	3205.6275	3221.3586	3224.0846
CC#CC1CC1C1CC1	CC#C[C@H]1C[C@H]1C1CC1	
InChI=1S/C9H12/c1-2-3-8-6-9(8)7-4-5-7/h7-9H,4-6H2,1H3	InChI=1S/C9H12/c1-2-3-8-6-9(8)7-4-5-7/h7-9H,4-6H2,1H3/t8-,9-/m0/s1
