17
gdb 98800	2.92305	1.14215	0.91865	1.818	70.68	-0.251	-0.0515	0.1995	1291.9135	0.132507	-458.973982	-458.96464	-458.963696	-459.009477	32.316	
C	-0.1777576985	 1.5351823647	 0.1060940503	-0.379975
C	 0.0631603468	 0.0281630469	 0.0634189435	-0.296003
C	 0.7687297718	-0.5042400121	 1.2977907075	 0.34694
O	 1.1880357696	 0.1843216012	 2.1928516358	-0.281483
C	 0.8655831752	-2.0330067635	 1.3579156264	-0.086387
O	 1.587694615	-2.5504244564	 2.4796954162	-0.266099
C	 0.4304939274	-3.1650711303	 3.0834971744	-0.179626
C	-0.4189164356	-2.7083628026	 1.8946911311	 0.331477
O	-1.5495724163	-2.8023635801	 1.5337871732	-0.263397
H	 0.7652241738	 2.0765413577	 0.2136121961	 0.136308
H	-0.6708604315	 1.8716404203	-0.8096278144	 0.115835
H	-0.808132788	 1.8056941853	 0.9570690671	 0.134034
H	-0.8762200902	-0.532530579	-0.047625454	 0.145982
H	 0.6676096706	-0.2523614773	-0.8109300923	 0.127481
H	 1.2153194851	-2.4353701244	 0.3973780552	 0.125069
H	 0.5314567477	-4.2505573328	 3.202313899	 0.140482
H	 0.1586153572	-2.7100157175	 4.0441794549	 0.149361
54.7274	58.1476	92.4784	123.1569	196.2136	207.8226	299.4683	367.3547	423.5665	461.677	578.035	649.1963	707.1998	780.9065	800.7964	886.9941	952.1103	980.3155	1014.7457	1019.2133	1052.4593	1084.8587	1097.0862	1131.3127	1139.254	1172.6502	1272.8574	1291.6918	1322.5577	1375.7238	1414.2585	1453.2893	1475.8921	1493.305	1498.0767	1823.192	1920.6808	3012.5581	3021.1821	3029.0968	3042.3815	3053.8281	3075.3975	3125.9152	3130.2503
CCC(=O)C1OCC1=O	CCC(=O)[C@H]1OCC1=O	
InChI=1S/C6H8O3/c1-2-4(7)6-5(8)3-9-6/h6H,2-3H2,1H3	InChI=1S/C6H8O3/c1-2-4(7)6-5(8)3-9-6/h6H,2-3H2,1H3/t6-/m1/s1
