20
gdb 114266	4.36432	1.11689	1.07354	0.5597	80.98	-0.2241	0.0312	0.2552	1216.1971	0.170597	-402.973064	-402.965025	-402.964081	-403.005558	31.886	
C	-0.0621292575	 1.6325005679	-0.0467952978	-0.379419
C	 0.1151931586	 0.1197494094	 0.1350920665	-0.204971
C	-1.2217026588	-0.5963472635	 0.1679089465	 0.077768
O	-1.973725844	-0.5099941543	-1.1327529696	-0.369766
C	-1.8393772759	-1.9404901024	-1.2063753479	 0.364734
C	-2.4076660928	-3.4007391822	-1.2374511172	-0.242354
N	-1.0323277609	-3.5183959073	-0.5009169785	-0.171185
C	-0.500600706	-2.5999735264	-1.5993663787	-0.212547
C	-1.5138224596	-2.1592511808	 0.2153632746	-0.086558
H	 0.9069722877	 2.1388202795	-0.0775966249	 0.11449
H	-0.5909756037	 1.8438906549	-0.9801953063	 0.14102
H	-0.642139961	 2.0661632107	 0.7751449559	 0.115481
H	 0.7469597844	-0.2689527588	-0.6665555006	 0.110665
H	 0.6291287623	-0.0936569282	 1.0809754772	 0.109134
H	-1.8495181506	-0.1491920498	 0.9475689458	 0.100638
H	-3.2687200369	-3.6218809372	-0.6047295705	 0.117623
H	-2.4176948526	-3.9652595264	-2.1739625164	 0.113011
H	-0.4298633053	-3.0829279426	-2.5767949226	 0.101841
H	 0.4342264547	-2.1126291621	-1.3297526488	 0.111024
H	-2.301649252	-2.3907452503	 0.9312466132	 0.08937
84.2236	154.5334	175.8287	250.0106	291.3927	383.8017	436.8344	463.1337	567.6909	574.3498	671.7539	727.2265	746.2539	813.4392	847.1907	856.9897	870.1272	910.6677	964.2164	984.904	1000.4982	1032.6566	1055.8619	1066.1781	1090.2418	1121.7208	1141.8133	1157.752	1176.9722	1180.4913	1233.7735	1248.3539	1283.3304	1298.1087	1333.9659	1356.9197	1402.6909	1412.8082	1472.0141	1497.0181	1500.9118	1508.9038	1542.7039	3035.1205	3037.422	3039.4602	3059.6762	3075.147	3094.3653	3108.2661	3112.8322	3123.3961	3144.2601	3163.0059
CCC1OC23CN(C2)C13	CC[C@H]1O[C@@]23CN(C2)[C@@H]13	
InChI=1S/C7H11NO/c1-2-5-6-7(9-5)3-8(6)4-7/h5-6H,2-4H2,1H3	InChI=1S/C7H11NO/c1-2-5-6-7(9-5)3-8(6)4-7/h5-6H,2-4H2,1H3/t5-,6+/m1/s1
