16
gdb 108019	3.90548	1.52805	1.38246	1.4357	65.73	-0.2522	0.0528	0.305	936.1567	0.12511	-437.778842	-437.77214	-437.771196	-437.809982	26.878	
O	 0.0215088133	 1.394588408	 0.0960870879	-0.415542
C	-0.0146668806	-0.0115197306	-0.0397855366	-0.196124
C	-1.4173379702	-0.5295682077	 0.0594150419	 0.418593
O	-2.331928116	 0.1021587027	-0.8861555737	-0.340731
C	-3.3845771818	-0.3435317974	 0.0009672141	 0.057135
C	-3.2882014998	-1.887992278	 0.0928421453	-0.059314
C	-1.8075448233	-2.0274272495	 0.1354009192	-0.122466
N	-2.5807407041	-1.9005138705	 1.4180346615	-0.18176
C	-2.4366357001	-0.3830177301	 1.2239733906	-0.091706
H	-0.6681733509	 1.7370963749	-0.4854077971	 0.292629
H	 0.4199551	-0.342619966	-0.9983232627	 0.101595
H	 0.5949210827	-0.4359496739	 0.7647064739	 0.124952
H	-4.33245906	 0.1760573138	-0.1156871591	 0.096192
H	-3.9824798518	-2.6635513568	-0.2030656887	 0.107564
H	-1.2513720873	-2.9187953234	-0.1255140625	 0.104844
H	-2.3869770203	 0.3021824045	 2.065850686	 0.10414
110.5519	160.6978	267.9509	371.6295	433.5295	558.5289	580.2881	668.1308	757.8779	771.6507	792.2811	819.7148	847.9319	873.8517	879.162	896.3194	934.2685	964.3024	1005.7875	1021.7609	1048.531	1064.3986	1099.0492	1127.6501	1139.4215	1202.4793	1209.0503	1227.0581	1236.215	1290.8843	1311.9605	1367.5199	1377.6905	1448.8486	1492.1859	2966.9012	3078.6325	3152.6548	3164.8417	3195.9077	3208.5174	3790.2176
OCC12OC3C4C1N4C23	OC[C@@]12O[C@H]3[C@H]4[C@@H]1N4[C@@H]23	
InChI=1S/C6H7NO2/c8-1-6-4-2-3(9-6)5(6)7(2)4/h2-5,8H,1H2	InChI=1S/C6H7NO2/c8-1-6-4-2-3(9-6)5(6)7(2)4/h2-5,8H,1H2/t2-,3-,4-,5+,6+,7?/m0/s1
