23
gdb 120993	3.84185	0.8218	0.77073	1.3797	85.5	-0.2606	0.0789	0.3396	1573.6995	0.206408	-388.257994	-388.248698	-388.247753	-388.292925	35.017	
O	-0.0788381781	 1.4512080943	 0.0993822384	-0.421679
C	 0.0000110187	 0.033332127	 0.0670105889	-0.071549
C	-1.4166927497	-0.5165532012	-0.0470358127	-0.199634
C	-1.4575773218	-2.0393657145	-0.0599548035	 0.040036
C	-1.1480660275	-2.8365157384	 1.2486209743	-0.256322
C	-2.3775565882	-3.754625755	 0.9838634338	-0.006044
C	-3.6474457693	-3.3812224419	 1.7818724238	-0.218425
C	-3.9849969439	-2.2890990088	 0.7213018491	-0.23148
C	-2.8120163619	-2.7881561592	-0.1776145472	-0.048207
H	 0.8132006404	 1.7997265743	 0.1849692128	 0.283666
H	 0.602120008	-0.3122200719	-0.7899273702	 0.081179
H	 0.4800840602	-0.358588429	 0.9787119698	 0.087098
H	-2.0026224729	-0.1195221467	 0.79022324	 0.103527
H	-1.8710963692	-0.1194713831	-0.963808262	 0.101358
H	-0.8008209843	-2.4036520909	-0.8602970527	 0.065556
H	-0.1775737824	-3.3380325182	 1.2736911811	 0.095584
H	-1.2433024211	-2.2425580316	 2.1646637223	 0.09237
H	-2.1594814936	-4.8126345779	 0.8307358676	 0.058281
H	-4.3878165413	-4.1860033997	 1.7984931764	 0.096394
H	-3.489260849	-3.0432518398	 2.8110402761	 0.091358
H	-4.9720012304	-2.3949486653	 0.2652730461	 0.099863
H	-3.8921689038	-1.2577928569	 1.0706933263	 0.101193
H	-3.0994475089	-3.1332695157	-1.1726188785	 0.055877
55.1139	82.9333	101.7849	129.2119	258.9045	267.8453	334.9612	343.4698	390.9974	501.7978	634.6606	729.3704	746.4147	786.382	795.4611	846.3764	883.0239	898.3141	915.5755	957.529	988.6586	1009.5586	1025.0756	1053.2373	1064.5948	1093.8849	1112.8042	1141.1527	1150.9811	1193.5036	1210.481	1223.764	1238.519	1243.1563	1255.1388	1263.9959	1279.5248	1295.2344	1304.7755	1312.8386	1320.7136	1340.1071	1388.1706	1460.3166	1475.8236	1480.8005	1490.3425	1497.8858	1527.188	2956.6443	2981.9926	3014.7011	3027.2161	3037.7533	3043.249	3063.3788	3072.4941	3077.6589	3087.6537	3090.0129	3102.2056	3115.7086	3829.4427
OCCC1CC2CCC12	OCC[C@H]1C[C@H]2CC[C@@H]12	
InChI=1S/C8H14O/c9-4-3-7-5-6-1-2-8(6)7/h6-9H,1-5H2	InChI=1S/C8H14O/c9-4-3-7-5-6-1-2-8(6)7/h6-9H,1-5H2/t6-,7+,8-/m1/s1
