14
gdb 22699	2.84393	1.29908	1.02464	1.6455	74.13	-0.251	-0.0085	0.2425	1139.0712	0.098057	-436.514957	-436.506901	-436.505957	-436.547589	30.461	
O	-0.093420166	 1.3818213687	 0.0456132523	-0.392248
N	 0.0613745685	-0.018643657	-0.0182606141	-0.309702
C	-1.0488645763	-0.6030658205	-0.0531894389	 0.483076
C	-2.5645761939	-0.4813514991	 0.0048112602	-0.056696
C	-2.6447179241	-1.5565896307	-1.1094297717	-0.255136
C	-1.5760286487	-2.0362303982	-0.0730224544	 0.258841
O	-2.5285556585	-1.5858202499	 1.0062192591	-0.33716
C	-0.9028141451	-3.2882659333	 0.040328162	 0.059147
C	-0.3279583574	-4.3405881496	 0.1123561905	-0.332051
H	 0.8218539	 1.6802145071	 0.0837166945	 0.311449
H	-3.2042962387	 0.3711171055	 0.2091257192	 0.126693
H	-3.5614427496	-2.147342739	-1.0883806656	 0.126294
H	-2.3010810794	-1.3018555796	-2.1142135765	 0.121463
H	 0.1834417991	-5.2692008845	 0.1830282033	 0.19603
105.2943	138.1656	170.389	220.5862	320.5367	384.7152	400.5522	490.0243	506.6219	550.803	642.244	671.0677	696.6255	701.9547	762.9106	766.3359	856.3685	925.4768	951.4924	964.5002	1021.0125	1057.9581	1103.9906	1188.2238	1202.9107	1213.6645	1324.6197	1415.4971	1474.5522	1832.0141	2248.2335	3071.3526	3159.0634	3186.8645	3498.3954	3816.8308
ON=C1C2CC1(O2)C#C	ON=C1[C@H]2C[C@@]1(O2)C#C	
InChI=1S/C6H5NO2/c1-2-6-3-4(9-6)5(6)7-8/h1,4,8H,3H2	InChI=1S/C6H5NO2/c1-2-6-3-4(9-6)5(6)7-8/h1,4,8H,3H2/t4-,6+/m1/s1
