18
gdb 17483	3.41548	2.41794	1.91772	1.6756	69.94	-0.2247	0.0893	0.314	774.5805	0.155395	-347.777753	-347.771222	-347.770277	-347.807887	26.843	
C	-0.0011112992	 1.5054130928	 0.0275008072	-0.497423
C	-0.0220399062	-0.0080980752	 0.0287457136	 0.293466
C	 0.262606996	-0.7504256724	-1.3247845212	-0.269628
C	-0.9103683297	-1.6812886042	-1.0260948681	-0.101802
C	-0.8342914734	-2.1161113302	 0.4237575833	 0.117634
O	 0.4121143084	-2.0658878323	 1.0868829622	-0.271145
C	 0.7918558936	-0.6864519602	 1.1362258025	-0.107812
C	-1.3832767902	-0.7706461657	 0.1163753279	-0.167773
H	 1.0121959482	 1.8849284184	-0.1477427249	 0.11905
H	-0.647009837	 1.9083588141	-0.7589324518	 0.120564
H	-0.3472592512	 1.9090481598	 0.9860488717	 0.117609
H	 0.0566934659	-0.1018825013	-2.1805862523	 0.098185
H	 1.2529495689	-1.204098446	-1.4437230265	 0.096605
H	-1.5057307655	-2.2216545949	-1.7536968629	 0.081357
H	-1.4661080959	-2.9311108891	 0.755847878	 0.09973
H	 1.8735927294	-0.6206773354	 0.9744762736	 0.103092
H	 0.5547546553	-0.2590545392	 2.124047521	 0.084553
H	-2.3553287675	-0.3735735489	 0.3793461069	 0.08374
216.7253	227.6516	265.3862	324.1492	394.7071	476.8003	588.0623	645.1267	722.422	758.1488	789.9913	843.1305	857.4444	933.6992	940.7379	951.9252	981.9121	1009.1164	1027.3661	1039.1398	1043.1181	1067.5669	1122.1345	1146.4238	1175.2566	1194.1609	1230.6331	1245.5657	1261.14	1288.6601	1313.7073	1383.3905	1406.8132	1413.947	1490.5921	1494.5807	1495.6619	1513.2058	2971.8078	3024.3079	3036.0064	3064.0079	3087.4271	3094.2141	3099.8208	3168.0924	3186.2604	3198.5754
CC12CC3C(OC1)C23	C[C@@]12C[C@H]3[C@@H](OC1)[C@@H]23	
InChI=1S/C7H10O/c1-7-2-4-5(7)6(4)8-3-7/h4-6H,2-3H2,1H3	InChI=1S/C7H10O/c1-7-2-4-5(7)6(4)8-3-7/h4-6H,2-3H2,1H3/t4-,5+,6-,7-/m1/s1
