17
gdb 68733	2.41555	1.65833	1.33743	1.5599	80.1	-0.2193	0.0399	0.2592	1018.7576	0.134793	-384.609187	-384.601165	-384.600221	-384.641316	32.098	
O	 0.00742948	 1.3657502288	 0.1345274578	-0.445676
C	 0.0268472683	-0.0018556781	 0.0003174679	 0.36343
C	-0.2752738789	-0.8453382045	 1.189407336	-0.371381
C	-1.1801590925	-1.0195707466	-0.0293386458	 0.078051
C	-2.5724598405	-0.738721541	-0.0100994826	 0.221845
C	-3.7513829103	-0.490822969	-0.0175744812	-0.425912
C	-0.4440812945	-1.7899800793	-1.1058392667	-0.11826
C	-0.1899311499	-0.9265826042	-2.3071647345	-0.300737
C	 0.7062205652	-0.7745152582	-1.0973734942	-0.142985
H	-0.2043096208	 1.7517568473	-0.7233740026	 0.290795
H	 0.3833883155	-1.6578289394	 1.4858402842	 0.111252
H	-0.733812469	-0.303894137	 2.0105705394	 0.134436
H	-4.7919143406	-0.2814650726	-0.0152794122	 0.183928
H	-0.3412321184	-2.8684728888	-1.1327047863	 0.096714
H	 0.2650465321	-1.4221665105	-3.1594169336	 0.116831
H	-0.9025448548	-0.1500180297	-2.5720237458	 0.112359
H	 1.7683526891	-0.9882069973	-1.1432432897	 0.095308
110.4144	132.2612	235.4043	275.9628	354.916	379.6109	443.7906	505.1036	541.0551	546.7039	581.1063	602.5626	644.3498	690.3706	751.033	789.7933	827.9094	869.9919	930.1782	977.6096	984.9472	1016.9287	1058.88	1072.724	1086.7347	1095.9297	1118.559	1171.3385	1203.2459	1248.3908	1312.1229	1336.6455	1364.1823	1406.8309	1487.5635	1493.4213	2225.2128	3112.4737	3116.0021	3170.7915	3182.3081	3204.2929	3212.0914	3504.1628	3791.4379
OC12CC1(C#C)C1CC21	O[C@@]12C[C@]1(C#C)[C@H]1C[C@@H]21	
InChI=1S/C8H8O/c1-2-7-4-8(7,9)6-3-5(6)7/h1,5-6,9H,3-4H2	InChI=1S/C8H8O/c1-2-7-4-8(7,9)6-3-5(6)7/h1,5-6,9H,3-4H2/t5-,6+,7+,8+/m0/s1
