16
gdb 8165	2.83132	2.67361	1.75545	2.6614	64.13	-0.2295	-0.0164	0.2131	783.1557	0.13036	-383.742999	-383.736056	-383.735112	-383.773909	26.901	
C	-0.1024383138	 1.5333340371	-0.0027796031	-0.504469
C	 0.0156535121	 0.0422549986	-0.040100644	 0.295893
C	 0.7466398486	-0.7955286579	-1.1259367474	-0.280815
C	-0.2862635911	-1.8241626671	-0.6205835534	 0.075408
C	 0.1796952552	-2.1756451333	 0.803382788	-0.340815
C	 0.4273520217	-0.7147766515	 1.2415393179	 0.42124
O	 0.81787559	-0.2727362845	 2.2855266455	-0.327554
O	-1.2104019237	-0.7166012473	-0.3565549361	-0.329114
H	 0.8625880218	 1.9728161587	 0.2669198249	 0.138458
H	-0.4174024084	 1.9306481245	-0.9708750098	 0.127059
H	-0.8294555528	 1.8346719401	 0.7570854837	 0.143712
H	 0.5128725673	-0.4286326121	-2.1265785652	 0.119426
H	 1.8137412442	-1.0073479396	-1.0135928322	 0.107203
H	-0.7031509864	-2.6082824719	-1.2504404256	 0.091269
H	-0.6093259767	-2.6453478036	 1.3954880729	 0.137997
H	 1.0867128819	-2.7834537004	 0.8682800639	 0.125102
124.9148	164.9364	236.4551	309.5089	393.2429	451.0609	518.387	610.823	644.9281	659.4552	752.7114	810.6267	844.9668	865.9381	910.5791	963.7568	981.9745	1005.1178	1039.5293	1077.3595	1113.3701	1129.6569	1196.7265	1209.5372	1261.1505	1282.5089	1301.582	1350.3954	1417.982	1449.4984	1473.9898	1486.3206	1488.9029	1878.4718	3046.9836	3061.132	3068.2644	3119.5448	3121.2221	3126.7804	3132.837	3138.1732
CC12CC(CC1=O)O2	C[C@@]12C[C@@H](CC1=O)O2	
InChI=1S/C6H8O2/c1-6-3-4(8-6)2-5(6)7/h4H,2-3H2,1H3	InChI=1S/C6H8O2/c1-6-3-4(8-6)2-5(6)7/h4H,2-3H2,1H3/t4-,6-/m1/s1
