21
gdb 63412	3.49672	0.95018	0.91787	3.0527	85.67	-0.2417	-0.0249	0.2167	1384.2042	0.181078	-387.120406	-387.11099	-387.110046	-387.155023	35.373	
C	 0.0758535356	 1.5431079657	-0.1264669222	-0.428791
C	-0.0152090854	 0.013448257	 0.0002572587	 0.268848
C	-1.4934738094	-0.4080393238	 0.1358949965	-0.419206
C	 0.6760344608	-0.7122915497	-1.1966786868	-0.291139
C	 1.4765753187	-1.9070726878	-0.6056110352	-0.105116
C	 2.8500140502	-2.0339320592	-1.2375750643	 0.156458
O	 3.3080389636	-3.0391778267	-1.7137704974	-0.250162
C	 1.5664227242	-1.5421794758	 0.8656977115	-0.110688
C	 0.7822561018	-0.5136716101	 1.1767758022	-0.086738
H	 1.1177671373	 1.873024931	-0.1885568422	 0.114454
H	-0.4447429687	 1.8915967975	-1.0253861066	 0.115299
H	-0.3838576598	 2.0391999128	 0.7354974859	 0.112669
H	-2.0793424085	-0.0459687104	-0.7164379195	 0.113687
H	-1.5916652254	-1.4971557175	 0.1798755403	 0.118171
H	-1.9400889886	 0.0048293156	 1.0469862592	 0.113051
H	-0.03639551	-1.0359355705	-1.9595261886	 0.10849
H	 1.3723486736	-0.0182197873	-1.6831402231	 0.100238
H	 0.9724478924	-2.8706633014	-0.745507792	 0.096894
H	 3.4352838922	-1.0828990222	-1.2199984762	 0.070011
H	 2.182861924	-2.1017054665	 1.5606927932	 0.106871
H	 0.6590538617	-0.1061645904	 2.1757855067	 0.096699
47.4265	66.9185	175.9519	232.0663	263.6244	280.191	306.2079	331.4573	374.6484	391.3525	448.5548	529.7744	614.5385	727.8604	788.6657	814.784	868.9971	902.6096	932.9176	946.66	971.7188	981.1871	982.9549	1025.6113	1072.9033	1079.6777	1127.8823	1161.5323	1217.3917	1240.1822	1258.208	1270.299	1290.3506	1329.3645	1376.203	1396.8433	1420.9051	1422.6527	1480.5688	1485.1924	1490.9506	1502.2498	1508.508	1682.2798	1833.2465	2843.3776	3023.5909	3026.5422	3032.3	3040.0689	3090.4829	3095.4622	3097.5659	3101.7035	3104.1846	3172.8736	3201.867
CC1(C)CC(C=O)C=C1	CC1(C)C[C@@H](C=O)C=C1	
InChI=1S/C8H12O/c1-8(2)4-3-7(5-8)6-9/h3-4,6-7H,5H2,1-2H3	InChI=1S/C8H12O/c1-8(2)4-3-7(5-8)6-9/h3-4,6-7H,5H2,1-2H3/t7-/m0/s1
