18
gdb 106982	2.97587	1.2532	0.98319	3.6298	72.85	-0.2332	-0.0175	0.2157	1218.6285	0.146523	-439.051743	-439.042695	-439.041751	-439.08562	33.18	
C	 0.024731668	 1.6518793037	-0.167295045	-0.412662
C	 0.0288312735	 0.1546484394	 0.1072730044	-0.102621
C	 0.4838764008	-0.8223266914	-0.9958520004	-0.135274
N	 1.8772438612	-0.4761726484	-1.3033460297	-0.361655
C	 1.5908967684	-1.3910512838	-0.146389273	 0.193156
C	 2.2065108208	-2.7616701339	-0.0919974979	-0.216059
O	 2.1750449083	-3.4021490983	-1.3620985387	-0.409208
C	 1.1648411302	-0.4684718105	 0.9785864257	 0.379061
O	 1.4564905123	-0.3834666197	 2.1363935735	-0.31483
H	 0.9438973293	 1.9468571232	-0.6782616271	 0.145607
H	-0.8284247327	 1.9367778909	-0.7916882517	 0.114769
H	-0.044881121	 2.20834056	 0.7723561657	 0.131634
H	-0.9217581025	-0.171023036	 0.5490462526	 0.09962
H	-0.1423213659	-1.3469284005	-1.7070975368	 0.097804
H	 2.1895666867	-1.1136545383	-2.0398928549	 0.245639
H	 3.2643243969	-2.6834363848	 0.1812092161	 0.13857
H	 1.7147470185	-3.3652952968	 0.6833820228	 0.114799
H	 1.2733906271	-3.699864275	-1.5203596856	 0.291649
92.1179	100.4846	150.4695	197.1297	207.4847	262.4406	297.9438	340.2419	350.6835	530.6587	561.1587	624.4522	668.2754	748.4029	810.8332	829.5869	882.5599	917.7312	971.817	1001.4661	1037.0735	1051.9644	1065.9129	1094.429	1138.0161	1150.782	1206.3772	1224.8837	1273.1008	1316.02	1364.8533	1382.2073	1398.6113	1404.1236	1427.4937	1492.1832	1500.5023	1503.7602	1884.7954	3012.1191	3036.132	3041.291	3073.8451	3104.6224	3132.943	3191.5762	3441.2492	3819.4466
CC1C2NC2(CO)C1=O	C[C@H]1[C@H]2N[C@@]2(CO)C1=O	
InChI=1S/C6H9NO2/c1-3-4-6(2-8,7-4)5(3)9/h3-4,7-8H,2H2,1H3	InChI=1S/C6H9NO2/c1-3-4-6(2-8,7-4)5(3)9/h3-4,7-8H,2H2,1H3/t3-,4+,6+/m0/s1
