19
gdb 62710	2.85692	1.71501	1.51382	1.3594	73.46	-0.2314	0.0766	0.308	952.6032	0.159658	-422.993018	-422.985444	-422.9845	-423.024369	31.234	
C	-0.1478566879	 1.5875410366	-0.0106760303	-0.47638
C	 0.0407340922	 0.0765405115	-0.0147427107	 0.434032
O	-1.2048738856	-0.5890984612	 0.1638826977	-0.484906
C	 0.7167558833	-0.5800260971	-1.2142861585	-0.13212
C	 2.2272728888	-0.470024725	-1.0924225009	 0.097314
O	 2.7983235661	 0.5544165992	-0.3020850938	-0.272217
C	 2.3764539601	 0.3068233904	 1.04849537	-0.09564
C	 1.1459927052	-0.5830496908	 0.9024131854	-0.142259
C	 1.5250082053	-1.5030553256	-0.2926385294	-0.120062
H	 0.7888287746	 2.1032869406	-0.23170961	 0.14397
H	-0.8868379121	 1.8645879287	-0.7691119681	 0.122734
H	-0.5163245482	 1.9388447742	 0.9624260605	 0.099374
H	-1.6244927936	-0.2147467144	 0.946423202	 0.271064
H	 0.2208899738	-0.8092974581	-2.1512923762	 0.086122
H	 2.8251659522	-0.7207256463	-1.9602284325	 0.106262
H	 3.1761718402	-0.2005484167	 1.6085885994	 0.096144
H	 2.1716082663	 1.2703328765	 1.5255396129	 0.106433
H	 0.7719674647	-1.0322730808	 1.8218031823	 0.069685
H	 1.6821387146	-2.5726665317	-0.3008862301	 0.090451
175.105	228.976	255.0217	288.6354	306.019	374.9258	387.3668	440.5692	569.8439	614.9272	681.5909	749.4615	766.3738	797.8531	855.116	891.8516	926.2088	935.3307	957.5786	975.7459	998.6286	1011.8268	1042.7957	1067.5505	1073.4316	1108.1016	1130.7977	1169.449	1185.8854	1203.8726	1232.8187	1239.8183	1259.3487	1295.1345	1360.1151	1395.2114	1404.237	1411.466	1486.6602	1500.3695	1518.4041	2992.8686	3018.383	3077.0979	3090.5471	3123.834	3132.8288	3171.3657	3192.8542	3209.8556	3797.7049
CC1(O)C2C3OCC1C23	C[C@@]1(O)[C@H]2[C@H]3OC[C@@H]1[C@@H]23	
InChI=1S/C7H10O2/c1-7(8)3-2-9-6-4(3)5(6)7/h3-6,8H,2H2,1H3	InChI=1S/C7H10O2/c1-7(8)3-2-9-6-4(3)5(6)7/h3-6,8H,2H2,1H3/t3-,4+,5-,6+,7+/m1/s1
