16
gdb 14083	3.76815	1.69071	1.41791	3.4547	67.67	-0.2456	0.0148	0.2603	915.4962	0.130289	-379.879379	-379.871879	-379.870934	-379.911091	27.827	
C	-0.1388028501	 1.4172652145	-0.0915788425	-0.320258
N	 0.0762671642	-0.0219520535	-0.0150063554	-0.110704
C	 1.4455353474	-0.4991906295	-0.1608941895	-0.303459
C	 0.758376328	-0.5264269731	 1.1563601101	 0.207402
C	 1.127735621	 0.1656800983	 2.4723883973	-0.155578
O	 0.7017794223	-1.0344490961	 3.1888632289	-0.266353
C	 0.3317767684	-1.6786302583	 2.0153407846	 0.393221
N	-0.1533928627	-2.8152736793	 1.8202157369	-0.549579
H	 0.6930916516	 2.0135986217	 0.3189379194	 0.101444
H	-0.2733591242	 1.6959001193	-1.1405705128	 0.135749
H	-1.0532255358	 1.6767888377	 0.4502585184	 0.133865
H	 1.5704737431	-1.4210048338	-0.721387598	 0.141703
H	 2.2402386703	 0.2377339246	-0.2811305746	 0.11236
H	 2.1865814908	 0.3722010378	 2.6467537765	 0.124844
H	 0.517243438	 1.0283576169	 2.7535145026	 0.124452
H	-0.2957179224	-3.3198112573	 2.6962631981	 0.230893
124.1006	146.2415	201.1861	220.2516	272.2569	358.9594	422.0494	525.9327	602.1185	656.7442	767.7741	813.295	857.4825	883.7823	918.4018	972.7172	992.0881	1047.7428	1068.7856	1114.9853	1124.4353	1149.6857	1160.5486	1191.9575	1211.2889	1249.2141	1327.4586	1436.2311	1449.4133	1491.2743	1495.2776	1508.2819	1512.6912	1833.7149	2965.1653	3056.1623	3076.0775	3084.2435	3112.4792	3114.7222	3187.9124	3485.279
CN1CC11COC1=N	CN1C[C@]21CO[C]2[NH]	
InChI=1S/C5H8N2O/c1-7-2-5(7)3-8-4(5)6/h6H,2-3H2,1H3	InChI=1S/C5H8N2O/c1-7-2-5(7)3-8-4(5)6/h6H,2-3H2,1H3/t5-,7?/m0/s1
