19
gdb 93865	2.08609	1.79118	1.18359	1.5942	70.49	-0.244	0.0531	0.2972	1091.3269	0.158157	-460.137887	-460.12898	-460.128035	-460.17227	33.296	
C	 0.1520761513	 1.4616511063	-0.3042299866	-0.403198
C	-0.0881547043	 0.0203092382	 0.1397808652	 0.04948
O	 0.1206128754	-0.8870321319	-0.9549139476	-0.266325
C	 1.3982225666	-1.4860632167	-0.8081543825	-0.124554
C	 1.5560178649	-1.7101013801	 0.7023914748	 0.008643
O	 2.8941034585	-1.7727997455	 1.156108082	-0.426038
C	 0.8332868714	-0.4856104373	 1.2584709504	 0.389654
C	 1.406008067	 0.3368589851	 2.3276877541	-0.239485
O	 0.3183407326	-0.5633877789	 2.5843202974	-0.285519
H	 1.1988066429	 1.6246582689	-0.579652068	 0.119165
H	-0.4732645158	 1.6859192168	-1.1726017175	 0.12735
H	-0.1065481221	 2.165094631	 0.4935053907	 0.120217
H	-1.1302670235	-0.0982135399	 0.4569628369	 0.098889
H	 1.4085054515	-2.4054527986	-1.4000486219	 0.105045
H	 2.2126488732	-0.8324712149	-1.1600387885	 0.097277
H	 0.9909239539	-2.6006437159	 1.011150421	 0.091631
H	 3.2033066917	-2.6781765018	 1.0625231115	 0.292625
H	 2.3616881459	 0.0454747313	 2.7554162748	 0.133429
H	 1.1587732189	 1.3950192938	 2.3914341238	 0.111713
20.4693	165.0021	203.6809	220.4025	253.1362	268.3144	292.6749	345.1216	445.1396	463.7842	544.59	546.1838	617.6701	737.2417	849.7097	876.3569	888.5667	947.7308	1011.9924	1017.755	1077.9761	1090.1368	1096.0361	1127.0167	1134.4539	1137.8575	1170.56	1219.1851	1225.6574	1241.0417	1312.898	1329.0024	1356.0926	1379.8875	1397.95	1418.2948	1447.3814	1488.6265	1491.8272	1516.0273	1527.6737	2978.3749	3011.1799	3038.076	3046.3403	3089.7105	3097.1608	3110.4765	3119.7908	3192.8606	3837.9153
CC1OCC(O)C11CO1	C[C@H]1OC[C@@H](O)[C@]21CO2	
InChI=1S/C6H10O3/c1-4-6(3-9-6)5(7)2-8-4/h4-5,7H,2-3H2,1H3	InChI=1S/C6H10O3/c1-4-6(3-9-6)5(7)2-8-4/h4-5,7H,2-3H2,1H3/t4-,5-,6-/m1/s1
