18
gdb 97752	3.80651	0.81686	0.77	1.3578	81.67	-0.2299	0.0176	0.2476	1522.7245	0.147498	-401.859979	-401.851084	-401.85014	-401.895181	32.139	
O	 0.2989620765	 0.8140914571	-0.8734747831	-0.400814
C	-0.0681421416	 0.1921117253	 0.3506769738	-0.196892
C	-1.3702531114	-0.4712660872	 0.3047766368	 0.060775
C	-2.4648502018	-0.9753105918	 0.2391078882	 0.095329
C	-3.7633607872	-1.5807738713	 0.1829481581	-0.210917
C	-4.3846759364	-2.0736621546	-1.0774857094	-0.022636
C	-3.3468179808	-2.5962419258	-2.0656829254	-0.255883
C	-2.8893306113	-3.5388782229	-0.9220545648	-0.151487
N	-3.9795066776	-3.0497701464	 0.0016478088	-0.148977
H	-0.4272173869	 1.3915415959	-1.1312913463	 0.287132
H	 0.7201972626	-0.5397943429	 0.559069827	 0.142797
H	-0.0593684687	 0.9111297631	 1.1855415214	 0.121091
H	-4.4718003421	-1.1970747372	 0.9133839181	 0.117295
H	-5.4269522832	-1.8619739394	-1.2982215566	 0.098074
H	-3.7918049951	-3.1317229925	-2.905767041	 0.112748
H	-2.6265018538	-1.866345304	-2.4431700149	 0.117758
H	-3.0511310168	-4.5976083011	-1.1301428122	 0.113947
H	-1.8812382645	-3.3929530942	-0.5273134384	 0.12066
26.9436	73.6521	104.0631	180.6617	248.1391	301.4715	329.8155	403.2058	453.8255	535.0464	610.3597	752.674	755.1947	777.4137	797.5964	817.2824	945.1198	956.6011	982.9631	1005.5766	1024.1024	1048.624	1065.2338	1101.0325	1148.6313	1175.3632	1213.373	1221.8779	1241.6783	1269.2491	1291.6988	1351.5477	1358.3455	1401.3102	1417.6076	1480.3502	1488.7483	1500.8248	2345.719	2977.2339	3062.5984	3067.9801	3074.1748	3118.3196	3135.0774	3136.2169	3154.4582	3815.1017
OCC#CC1C2CCN12	OCC#C[C@H]1[C@H]2CCN12	
InChI=1S/C7H9NO/c9-5-1-2-6-7-3-4-8(6)7/h6-7,9H,3-5H2	InChI=1S/C7H9NO/c9-5-1-2-6-7-3-4-8(6)7/h6-7,9H,3-5H2/t6-,7+,8?/m0/s1
