20
gdb 72611	2.11598	1.90363	1.60751	1.6148	78.05	-0.2333	0.0757	0.309	990.2635	0.170424	-403.093707	-403.085335	-403.084391	-403.125951	33.077	
C	-0.1699297219	 1.572719344	-0.1100341413	-0.498241
C	-0.0364242831	 0.0730236816	 0.0030923157	 0.240137
C	 0.9793555148	-0.6700778495	-0.8876906856	-0.13245
O	 1.5477197308	-1.3880254016	 0.2259637552	-0.338105
C	 0.6800217447	-0.730067573	 1.1772453513	 0.438126
C	 1.4090678574	-0.16451394	 2.3635902111	-0.480183
C	-0.6095676071	-1.5302531263	 1.3613147235	-0.119033
N	-1.6605104512	-0.5304001845	 1.6735564921	-0.352961
C	-1.2772822896	-0.7804530718	 0.2617824059	-0.115032
H	 0.8038182448	 2.0681300943	-0.0302120377	 0.116628
H	-0.6038688769	 1.8549451456	-1.0775214101	 0.11395
H	-0.8198660052	 1.9591617449	 0.6796198473	 0.139038
H	 0.5660842671	-1.3405716985	-1.6520823053	 0.094665
H	 1.7231273517	-0.0129657449	-1.3574823855	 0.097444
H	 2.1574425695	 0.5710069246	 2.0531691864	 0.118509
H	 0.7007630516	 0.3122435158	 3.0462054762	 0.137806
H	 1.9295629577	-0.966275595	 2.8999154433	 0.12438
H	-0.7034121668	-2.5695652836	 1.6527706439	 0.095422
H	-2.5222029962	-1.0454226441	 1.850709565	 0.23058
H	-2.0093883117	-1.122341198	-0.4615155613	 0.089322
159.8759	180.7955	206.8657	214.9133	250.3289	277.0374	352.2175	371.9934	462.2884	548.0611	615.3453	669.3621	685.5881	826.3437	843.6116	860.3281	877.0699	914.0883	936.3817	956.4197	980.7501	1016.9788	1032.975	1073.8924	1086.7255	1147.1928	1155.5365	1164.0569	1165.9078	1222.7908	1243.2693	1247.7038	1308.9769	1341.9087	1353.4505	1392.1923	1404.217	1408.8068	1482.9323	1484.8666	1490.9739	1499.8512	1520.3703	3003.0691	3023.766	3034.2157	3045.4573	3083.2013	3099.2467	3116.1565	3125.5452	3170.8562	3191.2345	3479.4051
CC12COC1(C)C1NC21	C[C@@]12CO[C@]1(C)[C@H]1N[C@@H]21	
InChI=1S/C7H11NO/c1-6-3-9-7(6,2)5-4(6)8-5/h4-5,8H,3H2,1-2H3	InChI=1S/C7H11NO/c1-6-3-9-7(6,2)5-4(6)8-5/h4-5,8H,3H2,1-2H3/t4-,5+,6+,7-/m1/s1
