15
gdb 110769	2.60503	1.28975	1.08532	2.9462	61.51	-0.26	-0.0153	0.2448	1123.4029	0.11084	-494.874208	-494.865772	-494.864828	-494.907672	30.844	
O	 0.0905513797	 1.2986671425	-0.2974255249	-0.40924
C	 0.0551100144	-0.0186085843	 0.2230216978	-0.107335
C	-1.3388432667	-0.6094339499	 0.1438599654	-0.100347
C	-1.9159442282	-1.2497510647	-1.0796180336	-0.020228
O	-0.8660296504	-1.9602977963	-1.7949145759	-0.263564
C	-0.7034207535	-2.844421048	-0.7270505078	 0.379154
O	-0.0671430397	-3.8448710167	-0.7039325306	-0.320432
C	-1.6745224688	-2.09744768	 0.1662567223	 0.174418
O	-2.4554777896	-2.6184230039	 1.1592198736	-0.434798
H	-0.0480408318	 1.2391588233	-1.2485539611	 0.290315
H	 0.7781110129	-0.6735511989	-0.2798271022	 0.117027
H	 0.3551333007	 0.0607369158	 1.2722353764	 0.126656
H	-2.0891954571	-0.0587378134	 0.7100617459	 0.125587
H	-2.8091343889	-0.9957699801	-1.6316486738	 0.137916
H	-2.842115533	-3.4471895055	 0.8517360386	 0.304871
67.2546	108.669	177.9154	244.0127	281.6345	302.4298	336.4911	350.67	450.9841	533.2459	598.8107	676.2845	747.8899	773.4631	820.1671	882.0647	923.0314	949.5342	979.5907	1045.1127	1047.7674	1073.9236	1098.2814	1187.593	1223.1582	1271.8262	1331.2512	1342.8303	1400.986	1417.4647	1482.9696	1497.305	1941.8489	3025.655	3089.0109	3137.3181	3231.8771	3788.9019	3813.8343
OCC1C2OC(=O)C12O	OC[C@H]1[C@H]2OC(=O)[C@@]12O	
InChI=1S/C5H6O4/c6-1-2-3-5(2,8)4(7)9-3/h2-3,6,8H,1H2	InChI=1S/C5H6O4/c6-1-2-3-5(2,8)4(7)9-3/h2-3,6,8H,1H2/t2-,3+,5+/m0/s1
