20
gdb 83777	2.98798	1.74466	1.51743	2.1882	77.98	-0.2046	0.0776	0.2822	966.9045	0.17334	-403.091481	-403.084457	-403.083512	-403.122421	29.387	
C	 0.0624683059	 1.3894236293	-0.2474546672	-0.325664
N	 0.0229558914	-0.0366766482	 0.0447833617	-0.084539
C	-1.2519840364	-0.4882434114	 0.7072490062	-0.031604
C	-1.3859289785	-1.9654091802	 0.3561818747	-0.080153
O	-0.1284643317	-2.6065833727	 0.5795610662	-0.257871
C	 0.6077637126	-1.9494271996	 1.5909303108	 0.092539
C	-0.2785209262	-1.6529811645	 2.833650709	-0.270023
C	-0.6278833077	-0.317343216	 2.1525327236	-0.05844
C	 0.6826307587	-0.3809461745	 1.3224284144	 0.000452
H	 1.0766277795	 1.6664107541	-0.5544098653	 0.119845
H	-0.6101658684	 1.605355182	-1.0842002709	 0.11758
H	-0.2252449295	 2.0418175363	 0.5976341423	 0.089374
H	-2.1454128945	 0.0899743303	 0.4585396972	 0.071069
H	-2.1792256265	-2.4411889142	 0.9528647718	 0.088215
H	-1.6234176833	-2.0928450706	-0.7041656038	 0.112227
H	 1.5398398775	-2.5017426381	 1.7161212005	 0.08035
H	-1.0645141629	-2.3763661307	 3.0675078682	 0.102182
H	 0.3264905966	-1.4800080934	 3.7290539875	 0.101594
H	-0.9655018642	 0.5438685489	 2.7295581225	 0.068878
H	 1.6204506676	 0.1222841431	 1.5675621107	 0.063987
175.978	233.6827	283.3802	302.3974	373.7646	396.0096	466.0818	574.3189	659.9921	704.7989	761.7525	803.0863	824.5284	831.5032	877.0037	929.2884	953.6121	969.3308	986.6331	1023.2088	1038.1873	1052.2666	1088.5759	1120.8283	1142.5983	1159.0809	1167.8817	1193.8064	1197.6014	1219.5893	1234.5097	1255.6637	1272.2288	1298.2049	1309.3541	1340.3214	1350.2874	1400.8881	1452.7702	1480.5079	1490.278	1502.1417	1504.9438	2933.7318	2986.0765	3050.0371	3055.3525	3076.3102	3083.436	3086.4133	3096.8436	3102.1179	3104.1481	3110.0355
CN1C2COC3CC2C13	CN1[C@H]2CO[C@@H]3C[C@H]2[C@H]13	
InChI=1S/C7H11NO/c1-8-5-3-9-6-2-4(5)7(6)8/h4-7H,2-3H2,1H3	InChI=1S/C7H11NO/c1-8-5-3-9-6-2-4(5)7(6)8/h4-7H,2-3H2,1H3/t4-,5+,6-,7+/m1/s1
