17
gdb 123462	5.12501	0.93583	0.82771	1.2258	74.48	-0.2416	0.0249	0.2665	1352.5431	0.137911	-418.005267	-417.997418	-417.996474	-418.038837	28.952	
C	 0.15267905	 1.3105159799	 0.6389671233	-0.337487
C	-0.0193074939	-0.0656481334	 0.0322038577	 0.101964
C	-1.330210796	-0.574904985	-0.3854601329	-0.182916
O	-0.3847997487	-0.1090889328	-1.3514746571	-0.235171
C	 1.4470877467	 1.9568452245	 0.2408716588	 0.336468
N	 2.3111749921	 2.3739352112	 1.1657737851	-0.292525
N	 3.3364125022	 2.8910714925	 0.4607247948	-0.182372
C	 3.1529399557	 2.8130141215	-0.8797085355	-0.016915
C	 1.9302501394	 2.2083599296	-1.0671405523	-0.272978
H	-0.6949402698	 1.9320972369	 0.325689009	 0.111708
H	 0.1224933266	 1.2368530136	 1.731209583	 0.120622
H	 0.7483255014	-0.7914980009	 0.3045183031	 0.097905
H	-1.5201883671	-1.647227804	-0.3960636717	 0.113696
H	-2.2131177763	 0.0502224537	-0.255682649	 0.112339
H	 4.1214365133	 3.2775497706	 0.9558541637	 0.27347
H	 3.8891317177	 3.1841056172	-1.5753233579	 0.130934
H	 1.4480717467	 1.968580625	-2.0001767619	 0.121258
46.6749	76.4489	125.7363	300.04	310.2363	358.8033	456.2394	499.9287	657.6648	690.6576	755.3424	780.4547	793.9962	854.3631	867.2696	936.038	945.9408	957.7644	995.5762	1069.2109	1092.2556	1099.5982	1111.0176	1156.4516	1167.8623	1199.3928	1243.0842	1291.5253	1296.3503	1324.1558	1409.388	1442.1783	1461.3994	1473.9789	1491.8523	1528.6177	1576.5374	3032.6247	3080.9513	3084.3249	3105.8539	3167.3089	3258.1516	3282.9583	3679.8735
C(C1CO1)C1=NNC=C1	C([C@H]1CO1)c1n[nH]cc1	
InChI=1S/C6H8N2O/c1-2-7-8-5(1)3-6-4-9-6/h1-2,6H,3-4H2,(H,7,8)	InChI=1S/C6H8N2O/c1-2-7-8-5(1)3-6-4-9-6/h1-2,6H,3-4H2,(H,7,8)/t6-/m0/s1
