23
gdb 91808	2.51908	1.45309	1.16394	1.8129	84.47	-0.2498	0.0767	0.3265	1196.1356	0.205291	-388.300951	-388.291558	-388.290614	-388.334743	36.631	
C	 0.1579306407	 1.618810659	-0.1562690608	-0.409878
C	 0.0713683917	 0.0951408526	-0.0765652897	 0.03454
C	 0.7265231076	-0.6359642804	-1.2829956292	-0.252962
C	 1.1888115708	-1.9684295424	-0.7237804707	-0.029489
O	 2.3954171154	-1.8569039819	 0.0457874473	-0.296827
C	 1.1405513635	-1.9485509911	 0.7482438726	 0.415021
C	 0.9669274695	-3.1620159988	 1.6209980573	-0.488235
C	 0.6487406073	-0.571413923	 1.2209343616	-0.074229
C	 1.7593052526	 0.2059868773	 1.9400119852	-0.394294
H	 1.1967481055	 1.9640455974	-0.1623136683	 0.121675
H	-0.3154421986	 1.9817444677	-1.0750293867	 0.110709
H	-0.3508087643	 2.0979541921	 0.6871649074	 0.111652
H	-0.9922647602	-0.1753943571	-0.0982612457	 0.072448
H	 0.0173089575	-0.7605579917	-2.1075760182	 0.095889
H	 1.5894072643	-0.084961396	-1.6749274052	 0.10955
H	 1.0977573074	-2.8851492492	-1.3036169458	 0.085565
H	 1.3754079859	-4.0494904788	 1.1308990793	 0.127393
H	 1.4880974576	-3.032907775	 2.5764028833	 0.126529
H	-0.0920802847	-3.3363383623	 1.8399580066	 0.118843
H	-0.1729101326	-0.7195563548	 1.9321986868	 0.065427
H	 2.6213088601	 0.3545247288	 1.2856753581	 0.133353
H	 1.4058517085	 1.1819744013	 2.2841145938	 0.108651
H	 2.1051304145	-0.3478451841	 2.819528341	 0.10867
48.8215	188.3349	213.3237	232.7257	258.9253	264.3966	271.4751	287.5679	360.3185	425.7262	483.579	510.3973	590.6824	661.2224	704.2505	758.4765	833.0687	870.8587	898.5538	912.7276	976.9266	1008.5463	1019.1843	1032.019	1044.1791	1070.5997	1107.3975	1123.45	1152.7226	1184.4516	1201.3513	1236.1048	1295.2935	1307.0136	1319.6979	1346.3864	1366.2489	1370.8235	1405.6178	1408.4428	1412.7807	1454.8813	1481.5719	1485.472	1489.4475	1496.0384	1497.3719	1507.3278	1508.7006	3004.6111	3028.7915	3030.0618	3033.3019	3037.9411	3041.4331	3081.7624	3092.3543	3092.9063	3101.0255	3104.8055	3120.1678	3127.6977	3129.9736
CC1CC2OC2(C)C1C	C[C@H]1C[C@H]2O[C@@]2(C)[C@H]1C	
InChI=1S/C8H14O/c1-5-4-7-8(3,9-7)6(5)2/h5-7H,4H2,1-3H3	InChI=1S/C8H14O/c1-5-4-7-8(3,9-7)6(5)2/h5-7H,4H2,1-3H3/t5-,6-,7+,8-/m0/s1
