13
gdb 25187	2.72534	1.78263	1.08495	1.977	72.04	-0.2619	-0.088	0.1739	1009.2293	0.090608	-452.774391	-452.767153	-452.766209	-452.807538	26.089	
N	-0.093224221	 1.2517476438	-0.3950569799	-0.446184
C	-0.0071953827	 0.0302659809	-0.025441192	 0.113765
C	-1.219868017	-0.7638764877	 0.0725693809	-0.088193
C	-1.4008234605	-1.9996278948	 0.5743911065	-0.017276
N	-0.5047935068	-2.8476255058	 1.2013727612	-0.272382
C	 0.7484795606	-2.7121750157	 1.2570484552	 0.147942
O	 1.6077369267	-1.7878862127	 0.7316473553	-0.213015
C	 1.3917421028	-0.5348134913	 0.2010513597	 0.389757
O	 2.3650312982	 0.0986003037	-0.0819700521	-0.283257
H	 0.8483333244	 1.6508349755	-0.4599037936	 0.251557
H	-2.0901927244	-0.2487237131	-0.3207012049	 0.131848
H	-2.4043225685	-2.413855359	 0.5383746677	 0.129832
H	 1.3500089883	-3.4455949138	 1.787268446	 0.155606
26.6051	87.7426	281.0194	320.7412	389.1792	428.3081	445.343	542.0753	598.6732	645.4338	770.7345	790.5714	867.29	873.8354	947.9791	969.6369	984.4363	1018.2321	1052.3956	1118.849	1178.7009	1290.1177	1394.0307	1440.3808	1457.2939	1638.5926	1668.9309	1718.432	1841.3743	3168.8893	3183.6111	3195.9662	3437.0533
N=C1C=CN=COC1=O	[NH]C1=C[CH]N=COC1=O	
InChI=1S/C5H4N2O2/c6-4-1-2-7-3-9-5(4)8/h1-3,6H	InChI=1S/C5H4N2O2/c6-4-1-2-7-3-9-5(4)8/h1-3,6H
