17
gdb 43930	3.40344	1.59252	1.3765	3.5902	72.36	-0.2331	-0.0248	0.2083	952.5072	0.13704	-421.773298	-421.766655	-421.765711	-421.804176	27.481	
O	 0.0240931566	-0.0319138567	-0.2098426559	-0.278755
C	-0.0238590111	 1.1464221766	-0.0512167272	 0.323225
C	-1.2036010988	 2.1782988632	 0.1811342323	-0.470101
C	-0.1529839274	 2.9733258833	 0.9761037522	 0.268598
C	 0.5146015651	 4.3321799386	 1.3224346714	-0.338877
C	 1.5077280701	 3.3358325138	 2.0416138415	 0.103645
C	 0.2686256505	 2.4975768979	 2.4043459706	-0.263895
O	 2.1206302265	 2.5288663835	 0.9943668489	-0.293197
C	 0.9771193689	 2.3284896054	 0.173287609	 0.041437
H	-1.5105861333	 2.6396923225	-0.7621686106	 0.134388
H	-2.0811900325	 1.8022239119	 0.7080910649	 0.134316
H	 0.8977391934	 4.9343380373	 0.4955468224	 0.108776
H	-0.0206370763	 4.9503913871	 2.0452889621	 0.110611
H	 2.268098671	 3.6555249913	 2.7513135709	 0.093393
H	-0.3601372758	 2.9339561946	 3.1830159737	 0.10595
H	 0.4346090068	 1.4317858523	 2.5801079779	 0.121392
H	 1.1279287561	 2.7971624474	-0.8112338339	 0.099094
117.5185	241.721	313.5425	408.1023	457.1485	488.8088	555.0305	585.8749	664.3321	703.6653	742.5595	794.9126	841.0769	873.0414	890.7087	902.8736	952.5947	978.9508	998.0991	1023.2759	1063.4293	1077.9301	1096.7394	1114.6616	1158.9538	1162.3441	1197.1984	1212.6073	1239.8911	1248.9673	1282.7429	1301.4719	1361.6859	1454.4548	1475.8417	1511.0825	1904.244	2990.1497	3064.8849	3069.1113	3072.4667	3131.8617	3137.3821	3139.3683	3150.1378
O=C1CC23CC(C2)OC13	O=C1C[C@@]23C[C@@H](C2)O[C@@H]13	
InChI=1S/C7H8O2/c8-5-3-7-1-4(2-7)9-6(5)7/h4,6H,1-3H2	InChI=1S/C7H8O2/c8-5-3-7-1-4(2-7)9-6(5)7/h4,6H,1-3H2/t4-,6-,7+/m0/s1
