19
gdb 94740	2.6819	1.48768	1.25912	3.6076	70.36	-0.2453	0.0523	0.2976	1061.7094	0.15929	-460.146799	-460.138373	-460.137429	-460.179461	32.646	
O	-0.0157185212	 1.4090724421	-0.1267817247	-0.437274
C	 0.0259996604	 0.0173920966	 0.0967253849	 0.138333
C	 0.4998635176	-0.4247708849	 1.4963848484	-0.269956
C	-0.0030260687	-1.8784674661	 1.5914296679	-0.298678
C	-1.3621275556	-1.8753895452	 0.8606332432	 0.344676
O	-1.6672896334	-3.0678784	 0.1834386419	-0.484006
C	-2.5147123864	-1.1820530334	 1.6254631036	-0.118102
O	-2.3242832618	 0.0369951608	 0.8784275854	-0.289458
C	-1.3702592171	-0.5908409916	-0.00791882	 0.087489
H	 0.8801182728	 1.751523394	-0.0512260479	 0.284001
H	 0.6469174354	-0.4877779149	-0.6651181346	 0.066222
H	 1.5820878812	-0.3387597398	 1.6316853288	 0.090672
H	 0.011784452	 0.212738983	 2.2402511337	 0.125717
H	 0.6698904376	-2.5490021915	 1.0444057817	 0.106675
H	-0.0759148681	-2.2443033638	 2.6210760229	 0.096792
H	-1.5392019024	-3.8042210875	 0.791021095	 0.279978
H	-3.491832423	-1.6403920329	 1.4267810356	 0.100837
H	-2.3864572754	-1.0298739241	 2.704884838	 0.093061
H	-1.7538666939	-0.6761270107	-1.0287591337	 0.083021
103.3334	186.3541	218.3766	228.3502	244.8478	281.6794	348.3087	388.2749	431.9324	536.6246	567.2136	610.5396	662.6598	825.5281	857.2439	885.0983	926.8984	947.0211	975.7011	992.9982	1019.5675	1065.0252	1089.4469	1098.5245	1150.0485	1154.7021	1182.371	1204.9069	1222.7786	1247.9	1263.3054	1308.9274	1312.2623	1334.3987	1347.1084	1376.8725	1404.5319	1437.3138	1486.5094	1498.4673	1515.0033	2940.9129	3005.4942	3035.4105	3054.962	3057.1206	3072.7923	3080.2951	3105.1355	3805.8842	3823.3309
OC1CCC2(O)COC12	O[C@H]1CC[C@@]2(O)CO[C@@H]12	
InChI=1S/C6H10O3/c7-4-1-2-6(8)3-9-5(4)6/h4-5,7-8H,1-3H2	InChI=1S/C6H10O3/c7-4-1-2-6(8)3-9-5(4)6/h4-5,7-8H,1-3H2/t4-,5-,6+/m0/s1
