15
gdb 46339	4.2467	0.74971	0.66729	2.8695	91.24	-0.2351	-0.0342	0.2009	1621.3447	0.110124	-383.443217	-383.434452	-383.433508	-383.477543	31.795	
O	-0.0783550013	-0.0152499315	 0.0119370568	-0.270957
C	-0.0805952107	 1.1739394472	 0.0599315579	 0.403129
C	-1.1599661963	 2.2496048329	 0.2386637341	-0.341068
C	-0.0340431866	 3.2656299131	 0.5850093449	-0.237197
C	 1.0587050405	 2.2539977904	 0.0812822173	-0.341468
C	 2.2381479364	 2.0134566096	 0.8682476649	 0.396748
C	 3.2123161246	 1.7944709723	 1.553932376	-0.211497
C	 4.3070350543	 1.5538974964	 2.3234566933	 0.294996
C	 5.2797641411	 1.3420889111	 3.0073484012	-0.55939
H	-1.6725819137	 2.4625090114	-0.7052145177	 0.140322
H	-1.9127104233	 2.0372884679	 1.0009746825	 0.141484
H	-0.0587896526	 4.2202898034	 0.0604313664	 0.121324
H	 0.0535088014	 3.4439170947	 1.657203969	 0.132989
H	 1.324801177	 2.4717501126	-0.9620895286	 0.138314
H	 6.1345767693	 1.1523654185	 3.6076519322	 0.192271
65.1342	68.0297	115.9511	189.422	241.5067	367.7496	406.7146	438.192	521.501	533.6116	569.7285	587.9165	604.8248	611.675	680.7805	765.5462	857.1445	910.9838	954.6199	1012.1504	1025.8233	1062.2675	1190.7124	1197.4329	1207.1706	1230.3494	1257.8375	1327.4547	1440.5511	1492.9698	1907.8468	2181.154	2355.3284	3021.1291	3061.4818	3094.8737	3120.5688	3155.1474	3505.3876
O=C1CCC1C#CC#C	O=C1CC[C@H]1C#CC#C	
InChI=1S/C8H6O/c1-2-3-4-7-5-6-8(7)9/h1,7H,5-6H2	InChI=1S/C8H6O/c1-2-3-4-7-5-6-8(7)9/h1,7H,5-6H2/t7-/m1/s1
