16
gdb 31414	3.02304	1.36388	0.94542	5.8393	78.77	-0.2132	-0.0317	0.1816	1195.1688	0.125221	-434.105497	-434.096907	-434.095963	-434.139936	30.712	
C	-0.0294631746	 1.4575057358	 0.0215599921	-0.315339
N	 0.0405460235	 0.0087051425	-0.0342318721	-0.353123
C	 0.6173281471	-0.6549882159	-1.0612349174	 0.432173
N	 1.1628296854	 0.0389321336	-2.0247817977	-0.374006
C	 1.7669388584	-0.5905970236	-3.0711817569	 0.419918
N	 2.3271510345	 0.0060973431	-4.0372582156	-0.538904
O	 1.7709374182	-2.0318680964	-3.0907033897	-0.237419
C	 1.200682487	-2.7031669449	-2.0889156184	 0.104037
C	 0.6091130196	-2.1048905385	-1.0439923633	-0.278934
H	 0.9684635787	 1.8908270814	-0.0827363837	 0.159334
H	-0.6510995191	 1.859711512	-0.7855063253	 0.146738
H	-0.4539810967	 1.7489722786	 0.983976988	 0.121338
H	-0.4235292717	-0.5283744013	 0.676479901	 0.253517
H	 2.7049308043	-0.6722083813	-4.6962442151	 0.217933
H	 1.2729850065	-3.7780503374	-2.2202562752	 0.138424
H	 0.1580352389	-2.6796874178	-0.2468647607	 0.104312
31.3127	87.1326	134.5441	195.2691	211.8627	322.9392	413.7958	418.683	498.115	575.6676	603.7587	709.6845	715.3488	751.2205	773.4515	823.1645	824.0648	963.0787	964.8371	1061.1598	1091.3133	1129.6706	1157.3291	1202.4939	1251.6516	1309.6088	1325.6748	1446.3736	1457.2671	1472.3247	1513.3787	1579.6903	1592.7641	1705.2815	1759.0596	3041.1531	3104.0082	3139.9434	3189.2283	3224.5259	3515.879	3677.8987	31.292	87.1317	134.5428	195.2686	211.862	322.935	413.7957	418.6821	498.1148	575.6676	603.7587	709.6855	715.3483	751.2204	773.4505	823.1648	824.0651	963.0769	964.8366	1061.1597	1091.3137	1129.6706	1157.3306	1202.4943	1251.6521	1309.6087	1325.6742	1446.3738	1457.268	1472.3264	1513.3805	1579.6909	1592.7644	1705.2814	1759.0588	3041.1528	3104.008	3139.9433	3189.2281	3224.5259	3515.8787	3677.8979
CNC1=NC(=N)OC=C1	CNC1=CCOC(=N1)[NH]	
InChI=1S/C5H7N3O/c1-7-4-2-3-9-5(6)8-4/h2-3H,1H3,(H2,6,7,8)	InChI=1S/C5H8N3O/c1-7-4-2-3-9-5(6)8-4/h2,6H,3H2,1H3,(H,7,8)
