18
gdb 79950	2.64592	1.62804	1.31546	1.5472	81.96	-0.2208	0.0042	0.2249	1026.919	0.147167	-364.750428	-364.742286	-364.741341	-364.782675	32.064	
C	-0.4790381895	 1.4671707448	-0.1822953103	-0.418771
C	-0.0970813246	 0.006308891	-0.1340878951	 0.025753
C	 0.6356108161	-0.7234632453	-1.218035127	-0.100452
C	 1.4222416343	 0.095432659	-2.179526798	-0.08397
C	 2.4078236698	 0.7358608609	-1.5547239003	-0.091033
C	 2.4275784852	 0.3552546929	-0.0774965317	-0.190616
C	 2.491121624	 1.484424148	 0.8485481205	 0.346586
C	 2.5987870712	 2.4080324652	 1.6099161552	-0.468999
N	 1.2505403436	-0.5400410404	 0.1253517754	-0.126383
H	 0.1925909648	 2.0656678851	-0.798398834	 0.129502
H	-1.4918177622	 1.5560541507	-0.5916398022	 0.113834
H	-0.4844161635	 1.8945173467	 0.824065671	 0.133864
H	-0.8331680608	-0.5962301876	 0.3976350779	 0.094127
H	 0.3375149062	-1.7314279452	-1.4978269767	 0.093649
H	 1.1954126264	 0.1517354052	-3.2372744649	 0.107459
H	 3.1121898081	 1.4369426513	-1.9849858414	 0.113049
H	 3.3154725612	-0.2653539441	 0.120591808	 0.123957
H	 2.6806278395	 3.2232685117	 2.2855781236	 0.198444
123.6385	136.7324	216.3424	234.7162	250.8576	352.2632	428.8124	488.7504	558.648	563.7644	619.8329	655.5419	709.1256	722.1181	762.513	770.9975	846.693	911.1181	918.8034	950.029	976.3755	1021.8644	1039.2399	1075.7458	1100.6412	1126.8842	1142.7128	1160.6106	1269.4434	1284.7857	1327.3256	1333.7989	1372.4527	1405.0954	1421.9696	1492.1582	1494.2439	1671.0987	2235.6246	2972.4677	3040.7324	3102.2662	3105.254	3130.6427	3146.8602	3199.7545	3224.5164	3502.8527
CC1C2C=CC(C#C)N12	C[C@H]1[C@H]2C=C[C@@H](C#C)N12	
InChI=1S/C8H9N/c1-3-7-4-5-8-6(2)9(7)8/h1,4-8H,2H3	InChI=1S/C8H9N/c1-3-7-4-5-8-6(2)9(7)8/h1,4-8H,2H3/t6-,7+,8+,9?/m0/s1
