20
gdb 99038	4.77158	0.75726	0.66267	2.0525	84.07	-0.2295	0.0117	0.2412	1723.2488	0.16872	-436.514298	-436.50287	-436.501926	-436.552838	38.172	
C	-0.585119236	 1.1657904703	 0.3437443118	-0.325296
N	 0.5039507682	 0.3731377797	-0.1922263211	-0.359804
C	 0.2663462863	-0.6141045066	-1.1210724493	 0.512994
O	-0.8267657272	-0.8027163097	-1.6252414285	-0.405886
N	 1.4084974939	-1.3431016075	-1.4277830299	-0.411889
C	 1.5762617531	-2.4052203792	-2.3284310809	 0.385616
C	 0.3412268105	-2.9852530428	-2.965632023	-0.462698
N	 2.7869786469	-2.7697974153	-2.4878533323	-0.297424
C	 3.1125823552	-3.8701964369	-3.376440476	-0.319332
H	-0.2773400012	 2.2100028889	 0.4543858389	 0.123594
H	-1.413304417	 1.1070206192	-0.3625572993	 0.171214
H	-0.9331236572	 0.7960023085	 1.3170263327	 0.122381
H	 1.3653771922	 0.3511112794	 0.32812555	 0.240389
H	 2.2983261508	-1.0356304877	-1.060525905	 0.24034
H	 0.5989389211	-3.8604763148	-3.5611893242	 0.118776
H	-0.3922339444	-3.2609826106	-2.2052541816	 0.153399
H	-0.1507587846	-2.2420819786	-3.5967340343	 0.160987
H	 4.1990991287	-3.9916920098	-3.3982976527	 0.119623
H	 2.6842071302	-4.8260651645	-3.0429606228	 0.116503
H	 2.7805032704	-3.701030372	-4.4102091824	 0.116514
36.9226	44.8278	61.209	86.9115	124.6255	140.9286	150.3227	259.1317	291.9327	338.0456	354.216	386.3651	404.2862	534.8877	624.7801	645.2142	754.4684	763.1569	821.5644	966.1806	1003.3326	1054.4868	1096.03	1111.8151	1137.0314	1154.2308	1163.8261	1176.2999	1229.5527	1342.5451	1412.6831	1439.2372	1441.4211	1456.6397	1472.2041	1488.6542	1494.6908	1498.4838	1512.4031	1512.5844	1563.7174	1734.578	1787.0598	2989.5359	3017.9173	3040.9511	3072.0179	3082.2768	3092.6535	3134.7078	3158.4138	3162.5467	3595.0165	3640.1685
CNC(=O)NC(C)=NC	CNC(=O)NC(=NC)C	
InChI=1S/C5H11N3O/c1-4(6-2)8-5(9)7-3/h1-3H3,(H2,6,7,8,9)	InChI=1S/C5H11N3O/c1-4(6-2)8-5(9)7-3/h1-3H3,(H2,6,7,8,9)
