20
gdb 55766	3.72688	0.97207	0.94432	3.5958	79.22	-0.2323	0.0372	0.2695	1326.6913	0.170947	-403.158963	-403.149813	-403.148869	-403.193789	34.204	
N	 0.5420107933	-0.0014416003	-0.8519675926	-0.51673
C	-0.1012642156	 0.2606465662	 0.3216571381	 0.400094
O	 0.1545512991	 1.2296669417	 1.0085453784	-0.365145
C	-1.198862653	-0.7406092333	 0.7083273292	-0.42848
C	-1.0441904509	-2.1425711282	 0.1871613482	 0.366852
C	-1.5479340642	-2.5893615036	-1.168028902	-0.327807
C	-2.0818931034	-3.2638895795	 0.065957136	-0.119401
C	-1.0703655069	-4.2940870685	 0.5786393593	-0.218855
C	-0.0029530608	-3.1570424528	 0.6956226279	-0.282989
H	 1.2338354658	 0.6549661782	-1.173366793	 0.257529
H	 0.3002194067	-0.7901225792	-1.4252680572	 0.266153
H	-1.2391333002	-0.7281718497	 1.8020597034	 0.128453
H	-2.1495238432	-0.3148157676	 0.3610594239	 0.124232
H	-2.2368295239	-1.9066094112	-1.6567854363	 0.114391
H	-0.9044687615	-3.1396218817	-1.8535846093	 0.102398
H	-3.1381170765	-3.2362085716	 0.3076074503	 0.089504
H	-1.335785003	-4.7129501902	 1.5514375499	 0.107639
H	-0.8424866198	-5.1189397337	-0.1044891051	 0.097358
H	 0.9058792827	-3.2595503772	 0.0936214788	 0.093428
H	 0.2902594652	-2.970709928	 1.731651402	 0.111374
35.293	71.4454	125.7587	188.6622	222.7807	312.3741	351.7033	371.3128	436.4328	511.3343	558.6245	664.4177	698.2758	743.7853	782.2457	821.1895	876.2771	896.5879	915.0784	936.9321	958.6036	969.8377	1025.235	1031.1201	1079.4914	1084.3717	1112.9513	1144.5266	1175.1035	1219.7331	1240.6902	1260.5106	1268.4534	1312.3761	1323.4716	1352.5246	1398.3375	1457.3666	1481.7388	1484.3506	1510.6015	1604.6723	1801.167	3030.1715	3042.3333	3050.6996	3084.5721	3089.2685	3095.8176	3114.7326	3175.4821	3189.4505	3603.9246	3743.0581
NC(=O)CC12CC1CC2	NC(=O)C[C@]12C[C@H]1CC2	
InChI=1S/C7H11NO/c8-6(9)4-7-2-1-5(7)3-7/h5H,1-4H2,(H2,8,9)	InChI=1S/C7H11NO/c8-6(9)4-7-2-1-5(7)3-7/h5H,1-4H2,(H2,8,9)/t5-,7+/m1/s1
