20
gdb 76347	2.36618	1.37542	0.99336	4.8656	77.4	-0.2391	0.0211	0.2602	1235.3915	0.169201	-440.301362	-440.291411	-440.290467	-440.336571	35.806	
C	-0.4344550927	 1.1195932591	 1.1346961872	-0.398428
C	 0.1038156435	-0.1650554351	 0.5247730803	 0.041033
C	 0.5126966076	-0.159580153	-0.9800978019	 0.052224
O	 0.399674074	 1.1217047463	-1.5474040195	-0.41021
C	 1.9582013325	-0.6024141878	-0.5420203521	 0.009299
C	 3.1127467258	 0.3070038716	-0.9338088171	-0.404831
N	 1.5001390843	-0.4954509991	 0.8535471478	-0.058042
C	 1.9801545193	-1.0390898121	 1.9953637102	 0.122577
O	 1.3567784725	-1.1247605256	 3.0354158129	-0.334933
H	 0.1961354512	 1.9731015297	 0.8789192558	 0.127801
H	-1.4462356351	 1.3174274166	 0.7682294145	 0.119369
H	-0.4687050494	 1.0114718825	 2.2213840882	 0.145724
H	-0.5631058953	-1.0002881712	 0.770677433	 0.093309
H	-0.008596264	-0.9093915738	-1.5854936377	 0.077678
H	 0.6331398475	 1.0672301941	-2.4790440727	 0.291765
H	 2.1769749829	-1.6404002813	-0.8258449104	 0.08293
H	 2.8711697099	 1.3515356301	-0.7273715743	 0.139489
H	 4.0192149758	 0.0395053106	-0.3823811245	 0.125889
H	 3.3338947781	 0.2042423864	-2.0022715422	 0.111251
H	 3.0268891614	-1.3921023981	 1.8839684022	 0.066105
42.272	89.1152	158.6838	213.3366	217.2163	237.3047	254.7015	259.3337	276.7232	350.1046	425.0859	494.8341	541.0418	610.8274	759.2925	783.0168	844.9281	849.3718	974.4159	1018.2341	1020.1233	1037.7269	1098.5946	1115.3855	1144.4409	1170.4333	1187.1089	1227.5244	1271.7265	1285.3089	1324.3323	1356.5297	1381.1215	1389.6289	1401.2536	1407.3806	1432.758	1445.1326	1486.1049	1490.3841	1494.0459	1498.5122	1783.2158	2912.5455	3009.8351	3027.3345	3037.9961	3044.3376	3052.3805	3102.3441	3125.7156	3137.5831	3143.3452	3828.445
CC1C(O)C(C)N1C=O	C[C@H]1[C@@H](O)[C@@H](C)N1C=O	
InChI=1S/C6H11NO2/c1-4-6(9)5(2)7(4)3-8/h3-6,9H,1-2H3	InChI=1S/C6H11NO2/c1-4-6(9)5(2)7(4)3-8/h3-6,9H,1-2H3/t4-,5+,6+
