19
gdb 62847	2.73461	1.55227	1.36096	3.073	74.72	-0.2309	-0.0179	0.213	1032.6665	0.158532	-423.024479	-423.016302	-423.015357	-423.056699	32.332	
C	-0.1332275598	 1.598668102	 0.0441279048	-0.480964
C	-0.0078004658	 0.0779856456	 0.0086915834	 0.314271
C	-1.3799145211	-0.586681154	 0.1284757974	-0.453718
C	 0.8905079756	-0.6235393023	-1.0658653331	 0.038063
C	 2.2492760798	 0.0932911416	-1.0244598917	-0.352954
C	 2.3598486738	 0.1202473368	 0.5200649679	 0.444728
O	 3.2068191585	 0.5941616446	 1.2232460213	-0.328219
C	 1.0714269072	-0.6331902072	 0.8916771483	-0.077257
O	 1.1343644715	-1.7052205582	-0.1030174634	-0.304365
H	 0.8275780626	 2.118559362	 0.0283720103	 0.131575
H	-0.7226059843	 1.952764853	-0.8088786011	 0.123138
H	-0.6570803368	 1.9114933923	 0.9535725865	 0.128376
H	-2.023324325	-0.2795074929	-0.7039776346	 0.115255
H	-1.2947223129	-1.6744140684	 0.1167600791	 0.141017
H	-1.8766289755	-0.2844797589	 1.0565894407	 0.117161
H	 0.4961615343	-0.9636018746	-2.0239870354	 0.085816
H	 3.036859232	-0.518896831	-1.4705244632	 0.138642
H	 2.2868932949	 1.0942732785	-1.4604651907	 0.126175
H	 0.9207750211	-0.9529230689	 1.9214674435	 0.09326
122.2699	179.8613	202.1479	243.6227	286.9534	351.4977	371.0458	436.271	457.0234	552.5233	606.4857	636.4378	665.7459	788.1247	821.8419	851.2269	914.8426	926.9365	955.8832	957.6813	965.8625	1001.411	1021.909	1085.8166	1127.3695	1155.6156	1193.3567	1204.473	1237.0028	1239.3317	1265.7519	1300.537	1327.449	1401.0061	1424.2153	1454.033	1485.1546	1490.0476	1505.6371	1513.535	1880.7717	3031.9782	3038.2569	3074.7025	3090.6376	3098.1086	3115.3907	3119.7142	3126.7697	3138.4195	3144.9811
CC1(C)C2CC(=O)C1O2	CC1(C)[C@H]2CC(=O)[C@@H]1O2	
InChI=1S/C7H10O2/c1-7(2)5-3-4(8)6(7)9-5/h5-6H,3H2,1-2H3	InChI=1S/C7H10O2/c1-7(2)5-3-4(8)6(7)9-5/h5-6H,3H2,1-2H3/t5-,6+/m1/s1
