16
gdb 15982	3.84509	1.63639	1.27218	1.0029	69.1	-0.2471	0.0158	0.2629	972.8501	0.130761	-379.88314	-379.875326	-379.874382	-379.915681	27.793	
C	-0.0447619069	 1.3737779259	 0.1443654406	-0.339968
N	-0.0746455916	-0.0771228	 0.2634395215	-0.34883
C	-1.1082400459	-0.7033053557	-0.0544459524	 0.422627
O	-2.3424202873	-0.2751470657	-0.5310754551	-0.282766
C	-2.8802860645	-1.6394851741	-0.5071818771	-0.140052
C	-1.518831448	-2.1383168008	-0.0317077846	 0.17799
C	-0.6936416406	-3.3251378117	-0.3431262497	-0.29307
N	-1.2438210932	-3.1174424931	 1.0061179734	-0.355899
H	 0.7051826838	 1.659143923	-0.6020312179	 0.129567
H	-1.0063667328	 1.8169553659	-0.1387520065	 0.129254
H	 0.275615949	 1.8041623909	 1.0991327705	 0.127924
H	-3.6932047056	-1.7317137698	 0.2169490781	 0.131485
H	-3.2047150139	-1.9495924745	-1.5033786544	 0.124096
H	-1.1312076618	-4.1554368284	-0.890518354	 0.128204
H	 0.3661661163	-3.1571353157	-0.514001381	 0.137692
H	-0.5270861269	-2.7463527463	 1.6275152887	 0.251747
81.7653	139.7141	146.8756	165.9362	277.1497	293.2064	378.5984	516.8365	622.6601	704.7469	758.2226	830.9145	891.6185	946.959	960.9646	988.8052	1038.2759	1064.3665	1085.7582	1097.9447	1131.5575	1136.3987	1144.4503	1179.6344	1270.2421	1293.5095	1317.39	1438.6534	1443.7681	1493.2821	1497.6663	1510.8145	1513.8504	1851.0713	3018.3052	3063.9348	3082.474	3090.36	3110.7188	3125.8183	3202.3397	3490.0191
CN=C1OCC11CN1	CN=C1OC[C@]21CN2	
InChI=1S/C5H8N2O/c1-6-4-5(2-7-5)3-8-4/h7H,2-3H2,1H3	InChI=1S/C5H8N2O/c1-6-4-5(2-7-5)3-8-4/h7H,2-3H2,1H3/t5-/m0/s1
