23
gdb 119474	4.79948	0.82688	0.78353	1.132	87.51	-0.2398	0.0874	0.3273	1585.0415	0.204728	-388.25505	-388.245226	-388.244282	-388.289999	36.45	
C	-0.0944004387	 1.4296951739	 1.0199394236	-0.219032
O	-0.0842394883	 0.0271695178	 1.1209480826	-0.234356
C	 0.8230415664	-0.5837850141	 0.2278935723	-0.186748
C	 0.7485759893	-2.0734166558	 0.3860666924	 0.365048
C	-0.5223877671	-2.8096930138	 0.6892026108	-0.326527
C	 0.6315363132	-2.9166774873	 1.6561031326	-0.103125
C	 1.7083469583	-3.8863053709	 1.1404781443	 0.044123
C	 1.3944798696	-5.3755296429	 1.0642448601	-0.403337
C	 1.7872950566	-3.0491791356	-0.1864377321	-0.331865
H	-0.3881831815	 1.7654727203	 0.012514463	 0.103401
H	-0.8220860996	 1.8054428372	 1.7434942583	 0.126057
H	 0.8916771857	 1.8641660153	 1.2499605416	 0.102828
H	 0.5875063921	-0.2936614916	-0.8131236877	 0.08393
H	 1.8512738592	-0.2316641031	 0.4293232143	 0.081007
H	-1.3343643445	-2.1789492599	 1.0327020987	 0.124217
H	-0.8311524053	-3.6582476148	 0.082560536	 0.095311
H	 0.5308614229	-2.5785195718	 2.6808099058	 0.084309
H	 2.6341346939	-3.7429091239	 1.7070733878	 0.071228
H	 0.4728215243	-5.5676636912	 0.5052658035	 0.113945
H	 2.2033441799	-5.9229226177	 0.5670895567	 0.110036
H	 1.2700864466	-5.8020201244	 2.0659385102	 0.112867
H	 1.4923829558	-3.5656471242	-1.10691527	 0.09014
H	 2.7727928911	-2.6014819418	-0.3418814548	 0.096542
66.3865	80.941	125.1366	156.022	221.1771	229.4918	268.0393	298.6201	366.6363	398.0603	435.4382	517.0575	650.1041	708.33	808.4586	838.9449	863.7212	901.8236	965.189	979.2436	989.437	1000.9477	1015.3193	1059.3775	1076.1565	1098.0722	1114.8301	1138.3233	1158.8594	1186.1804	1191.3025	1203.4042	1237.0793	1241.5379	1269.6654	1278.8009	1297.4685	1371.1196	1394.0044	1411.7588	1433.752	1478.4651	1481.0266	1484.4548	1493.6426	1496.6984	1502.2151	1506.0572	1527.0288	2925.2462	2946.9611	2968.6713	3010.8428	3025.6418	3035.0783	3044.537	3089.7404	3091.1695	3098.6878	3107.6445	3112.2979	3178.6915	3214.0052
COCC12CC1C(C)C2	COC[C@]12C[C@H]1[C@@H](C)C2	
InChI=1S/C8H14O/c1-6-3-8(5-9-2)4-7(6)8/h6-7H,3-5H2,1-2H3	InChI=1S/C8H14O/c1-6-3-8(5-9-2)4-7(6)8/h6-7H,3-5H2,1-2H3/t6-,7-,8-/m0/s1
