18
gdb 29578	2.88265	1.37059	0.98062	3.1711	78.92	-0.1802	0.0458	0.226	1188.3845	0.150254	-398.12555	-398.117023	-398.116079	-398.159165	32.352	
N	 0.0840856138	 1.4067509558	-0.0152326655	-0.610568
C	 0.0223747524	 0.0008064976	 0.006814536	 0.156376
C	-1.1001431891	-0.7977624569	-0.0115197558	-0.158371
N	-0.6740449041	-2.1113587938	-0.0633164693	-0.243505
C	 0.6886362665	-2.156949785	-0.0768667594	-0.176108
C	 1.1655359787	-0.8613821606	-0.027899593	 0.212684
C	 2.5826227568	-0.4273951444	-0.0475435122	-0.138672
C	 3.2329443996	 0.1155008296	 1.1821206789	-0.238684
N	 3.6169662098	-1.2070971119	 0.6584208581	-0.319231
H	 0.91221644	 1.7503502433	 0.4560736531	 0.241735
H	-0.7325089403	 1.8412404348	 0.3953302502	 0.236464
H	-2.1483253994	-0.5480283563	 0.0077879143	 0.106528
H	-1.2801805556	-2.9108370283	-0.0852200909	 0.260145
H	 1.2200368949	-3.093797732	-0.1306980624	 0.120623
H	 2.943529376	-0.0309189083	-0.9961616025	 0.101955
H	 4.0018596402	 0.8789232798	 1.1012208723	 0.114135
H	 2.6379411521	 0.1560485747	 2.0908361187	 0.108069
H	 3.1534778777	-1.9204021182	 1.2173053191	 0.226424
41.0012	145.59	154.2146	216.4374	280.8849	316.2023	368.0946	430.7697	509.9058	593.2935	621.9933	633.172	710.0356	715.7233	751.6881	789.582	846.2058	876.7416	909.8088	967.5744	1001.4513	1071.8475	1083.7394	1100.6799	1145.0571	1151.7917	1179.7552	1217.1483	1257.5078	1278.2638	1303.0018	1346.9357	1413.3873	1425.6819	1483.4373	1503.5064	1569.4153	1632.2571	1655.2799	3101.8921	3105.4237	3192.3897	3258.2004	3264.2758	3490.3984	3525.2021	3616.4797	3700.4841
NC1=CNC=C1C1CN1	Nc1c[nH]cc1[C@H]1CN1	
InChI=1S/C6H9N3/c7-5-2-8-1-4(5)6-3-9-6/h1-2,6,8-9H,3,7H2	InChI=1S/C6H9N3/c7-5-2-8-1-4(5)6-3-9-6/h1-2,6,8-9H,3,7H2/t6-/m1/s1
