20
gdb 57810	5.9353	0.48499	0.46172	4.3475	90.59	-0.2594	0.0262	0.2857	2345.5579	0.168899	-366.015624	-366.004777	-366.003833	-366.054221	37.318	
C	 0.040100693	 1.5301816072	 0.0814222767	-0.373751
C	-0.0462820259	-0.0054130781	-0.0281829823	-0.124796
C	-1.5093668653	-0.4896219972	 0.0110933061	-0.374294
C	 0.6361866392	-0.4838433416	-1.2316596812	 0.167802
C	 1.1862161358	-0.8533994886	-2.2380472458	-0.031476
C	 1.8564549573	-1.3400804647	-3.4368557392	-0.34982
C	 2.0536815103	-2.8784242783	-3.3973032547	-0.323365
C	 2.7253044018	-3.3785185082	-4.5943549608	 0.254821
N	 3.2575650938	-3.753715571	-5.548928484	-0.302248
H	 1.0797893389	 1.8674703732	 0.0818531851	 0.124701
H	-0.4705280164	 2.0055586161	-0.7616786496	 0.125298
H	-0.4352088597	 1.8701423939	 1.006933306	 0.114542
H	 0.4713937383	-0.4322688506	 0.8423228381	 0.105788
H	-2.0731343075	-0.0808303059	-0.8331081316	 0.125047
H	-1.5656072185	-1.5801627798	-0.0400003025	 0.121855
H	-1.9918236255	-0.1615154836	 0.937222722	 0.114708
H	 1.2797581198	-1.0790667173	-4.3317076112	 0.149625
H	 2.8349403482	-0.8594393196	-3.551008794	 0.149857
H	 2.6419193515	-3.1537383001	-2.5162899744	 0.162988
H	 1.0825511608	-3.3737016158	-3.2992037229	 0.162718
10.257	53.4177	62.8784	134.4615	164.8931	187.1286	229.0518	262.6533	305.5784	355.5869	403.3574	452.9185	493.9002	541.5239	553.0505	717.6395	766.2172	884.9626	931.7833	950.5432	964.6106	1005.3125	1034.8967	1070.0982	1120.1324	1151.575	1198.0502	1209.4421	1284.2642	1306.7438	1324.6732	1350.5849	1369.2316	1395.5868	1417.7073	1468.1152	1481.9853	1486.1056	1489.0601	1498.5516	1510.0731	2362.3452	2364.8691	3005.3603	3035.9702	3036.8262	3040.4782	3060.9453	3067.144	3103.7909	3108.3123	3113.6606	3118.6533	3121.3396
CC(C)C#CCCC#N	CC(C)C#CCCC#N	
InChI=1S/C8H11N/c1-8(2)6-4-3-5-7-9/h8H,3,5H2,1-2H3	InChI=1S/C8H11N/c1-8(2)6-4-3-5-7-9/h8H,3,5H2,1-2H3
