16
gdb 109492	2.19285	1.68615	0.99165	2.5296	65.85	-0.24	-0.0537	0.1863	1146.2223	0.123564	-475.060607	-475.052111	-475.051167	-475.094317	30.393	
C	-0.0633710739	 1.5677963857	-0.0213176093	-0.327637
N	 0.0402528658	 0.1122778457	-0.073633493	-0.29509
C	-1.2093024721	-0.5811848507	 0.0808038713	-0.231164
C	-1.165381947	-2.019029124	-0.4056766969	 0.365172
O	-0.5322431894	-2.4471782263	-1.3313829189	-0.295922
C	-2.0515486918	-2.8179333075	 0.5458407681	-0.187446
O	-2.2693088724	-1.9718117598	 1.6790382777	-0.22209
C	-1.7041208743	-0.7344552003	 1.5213962012	 0.459959
O	-1.6702678539	 0.0626223139	 2.4081053892	-0.317851
H	 0.9270405606	 2.0008859552	-0.1824523483	 0.125966
H	-0.7547751407	 1.9885663579	-0.7730682884	 0.096061
H	-0.4125054523	 1.8676372063	 0.9690489319	 0.159722
H	 0.4631795423	-0.1968365699	-0.9433132773	 0.238199
H	-2.0624987143	-0.1130561075	-0.4638438588	 0.119611
H	-3.0103029524	-3.0690426566	 0.0771554569	 0.152651
H	-1.5607114442	-3.742982022	 0.8615616246	 0.159858
63.8328	115.7053	169.0865	180.7374	211.4557	293.0418	321.7234	424.7629	499.4147	566.9781	602.8327	653.7807	700.2655	763.3871	808.3432	924.0348	976.8115	1027.1902	1074.7317	1099.5684	1145.5809	1153.0445	1164.5472	1214.0603	1225.4598	1263.6865	1341.7444	1366.4953	1459.2873	1481.6949	1482.9368	1499.8316	1521.5643	1859.2302	1905.8225	2835.2736	2949.1167	3044.52	3088.2295	3101.0095	3136.2354	3521.0521
CNC1C(=O)COC1=O	CN[C@H]1C(=O)COC1=O	
InChI=1S/C5H7NO3/c1-6-4-3(7)2-9-5(4)8/h4,6H,2H2,1H3	InChI=1S/C5H7NO3/c1-6-4-3(7)2-9-5(4)8/h4,6H,2H2,1H3/t4-/m0/s1
