17
gdb 131521	3.04744	1.55385	1.13567	1.6804	73.95	-0.241	0.0109	0.2519	1055.1893	0.139633	-418.031425	-418.024046	-418.023101	-418.063325	28.805	
O	-0.3159335964	 1.5109173754	-0.2128177402	-0.429142
C	 0.0549364511	 0.150245214	 0.0154456443	-0.020394
C	-1.1722499354	-0.8086080863	 0.2000863238	-0.233562
C	-1.411026529	-1.558777159	-1.1488878011	-0.351333
C	-0.0722203601	-1.4108753287	-1.8116501445	 0.334757
N	 0.4998163631	-1.9485897606	-2.8789249883	-0.333868
N	 1.7152368906	-1.3439637013	-2.9040496664	-0.179753
C	 1.9148569167	-0.4549265273	-1.8927753828	-0.226286
C	 0.7527031582	-0.4790669049	-1.1527954793	 0.207903
H	-0.6430803018	 1.5715945938	-1.116968884	 0.2748
H	 0.6542086114	 0.1866618105	 0.9296974651	 0.089173
H	-0.9302930971	-1.5402376668	 0.9777071611	 0.108407
H	-2.0413739461	-0.2412103869	 0.5407936265	 0.107939
H	-1.7071008866	-2.6000304976	-0.995200612	 0.121018
H	-2.2041036414	-1.090651252	-1.7442935948	 0.115991
H	 2.3651570209	-1.598922446	-3.6286445971	 0.273941
H	 2.8416509718	 0.0889318236	-1.7990512305	 0.14041
95.3162	150.5097	248.6611	290.7349	341.8267	435.3739	476.3918	511.8819	626.1354	663.9702	695.4093	708.0298	781.6953	790.2038	819.8375	908.0016	965.2517	979.6865	1012.7759	1055.7401	1060.855	1108.1875	1158.965	1190.811	1204.9032	1263.6112	1267.6734	1305.2736	1317.2076	1334.6812	1423.6022	1446.7148	1468.2779	1473.8953	1495.0573	1506.518	1613.7172	3036.3654	3051.5234	3071.5795	3087.9874	3113.2451	3259.4451	3670.7446	3803.6043
OC1CCC2=NNC=C12	O[C@H]1CCc2n[nH]cc12	
InChI=1S/C6H8N2O/c9-6-2-1-5-4(6)3-7-8-5/h3,6,9H,1-2H2,(H,7,8)	InChI=1S/C6H8N2O/c9-6-2-1-5-4(6)3-7-8-5/h3,6,9H,1-2H2,(H,7,8)/t6-/m0/s1
