19
gdb 54688	3.39381	1.14282	0.88192	4.3886	81.7	-0.1936	0.0056	0.1992	1300.0435	0.162207	-419.265199	-419.256554	-419.25561	-419.298464	33.137	
N	 0.0447112029	 1.3717102722	 0.0159053151	-0.552748
C	 0.08526154	-0.0115727459	-0.0251461449	 0.334632
O	 1.1579843579	-0.5979261375	-0.0971405154	-0.391628
C	-1.2246624149	-0.6902487377	-0.009383965	 0.096616
C	-1.2059819201	-2.0436351306	-0.0092706663	 0.005466
N	-2.3179773324	-2.8313947458	-0.0126762757	-0.307297
C	-3.623167132	-2.2335558915	 0.2226670641	-0.155143
C	-3.6886257008	-0.874561172	-0.4817875626	-0.2078
C	-2.5459512943	 0.0506704917	-0.0239776081	-0.337282
H	 0.9363124277	 1.8091685792	 0.1904044093	 0.248775
H	-0.7600398511	 1.8398104254	 0.3987013642	 0.245696
H	-0.2485397445	-2.5527928197	-0.0352718111	 0.13567
H	-2.2023124293	-3.8080223334	 0.1970360348	 0.248091
H	-4.3950949158	-2.9065057334	-0.1638336164	 0.108731
H	-3.8091539913	-2.1025615684	 1.3008925649	 0.103153
H	-3.6096270345	-1.0394408608	-1.561944877	 0.117057
H	-4.6616279233	-0.4115133165	-0.2919214585	 0.099815
H	-2.7837109557	 0.4645839412	 0.968363253	 0.098243
H	-2.4957748884	 0.9085498835	-0.7056783546	 0.109955
82.7806	102.969	209.1626	248.2292	278.6182	344.9606	365.417	385.1797	466.8355	485.8276	529.5391	557.2844	574.7614	688.0461	764.2938	786.6905	872.8641	895.4586	958.93	983.7788	1010.9605	1066.661	1084.8095	1096.2126	1139.6388	1200.9706	1213.5487	1242.6942	1296.9738	1332.0276	1366.1277	1381.506	1385.9411	1388.788	1482.6622	1493.1111	1507.6902	1529.4876	1613.96	1673.3479	1761.051	2970.5488	2978.708	3036.3597	3049.4868	3071.9938	3092.5425	3202.263	3584.3584	3655.0673	3709.5319
NC(=O)C1=CNCCC1	NC(=O)C1=CNCCC1	
InChI=1S/C6H10N2O/c7-6(9)5-2-1-3-8-4-5/h4,8H,1-3H2,(H2,7,9)	InChI=1S/C6H10N2O/c7-6(9)5-2-1-3-8-4-5/h4,8H,1-3H2,(H2,7,9)
