18
gdb 84524	2.2434	1.77547	1.44886	1.2104	82.7	-0.2175	0.005	0.2225	1004.3639	0.147083	-364.754338	-364.746175	-364.745231	-364.786584	32.122	
C	-0.5876346268	 1.4257460683	 0.0443108527	-0.407927
C	-0.0858956133	-0.0188128665	 0.0097964608	 0.012142
C	 0.6038025392	-0.4816636029	-1.2594444167	-0.084715
C	 1.730178861	-1.1336158853	-0.9745806475	-0.085589
C	 1.9680863114	-1.1085574364	 0.4968593012	-0.08531
C	 2.2198958599	 0.2513275463	 1.0964323977	-0.208587
C	 2.6511177877	 1.3662583767	 0.2997869396	 0.366273
C	 3.087781413	 2.3159414032	-0.2968596402	-0.468149
N	 0.8607177845	-0.3543213882	 1.1090161915	-0.136225
H	 0.2150886905	 2.1395079212	-0.1437975631	 0.142883
H	-1.3633182906	 1.5672798536	-0.7150585709	 0.112745
H	-1.0274716116	 1.6428736179	 1.0217180543	 0.126699
H	-0.959684369	-0.6658664932	 0.1845173526	 0.096532
H	 0.2032400144	-0.2976666772	-2.2496444094	 0.101398
H	 2.4090151451	-1.5974402789	-1.6786331235	 0.104981
H	 2.3384599191	-1.9903789368	 1.0144692157	 0.09834
H	 2.6282000502	 0.2677849806	 2.1053264567	 0.118022
H	 3.4580064754	 3.1513903077	-0.8376957815	 0.196485
123.6884	144.0997	206.4476	232.3155	253.612	343.8146	398.5473	487.9773	584.3442	598.6549	616.0455	650.7827	706.7428	729.7623	755.8215	791.2631	818.4535	887.8091	890.9625	949.0811	985.4556	1007.6844	1062.1702	1077.689	1105.2485	1109.454	1144.6524	1148.6283	1264.8605	1305.3272	1335.811	1348.6863	1367.5683	1370.2545	1406.269	1491.2616	1506.0749	1666.5902	2226.3035	2972.7062	3048.2956	3112.4329	3118.4983	3134.6757	3151.586	3196.311	3224.7191	3502.5092
CC1C=CC2C(C#C)N12	C[C@H]1C=C[C@H]2[C@@H](C#C)N12	
InChI=1S/C8H9N/c1-3-7-8-5-4-6(2)9(7)8/h1,4-8H,2H3	InChI=1S/C8H9N/c1-3-7-8-5-4-6(2)9(7)8/h1,4-8H,2H3/t6-,7+,8-,9?/m0/s1
