16
gdb 112224	2.08269	1.44651	0.94976	4.5189	69.84	-0.297	-0.019	0.278	1226.6989	0.123522	-437.928268	-437.919538	-437.918594	-437.962391	30.831	
C	-0.1202568644	 1.5365730439	-0.2161085433	-0.394716
C	-0.0195966671	 0.0143057496	-0.0788706212	-0.200718
C	-1.3512060973	-0.6197946542	 0.2575199275	 0.137654
O	-2.3395756658	-0.451080364	-0.8260290278	-0.242458
C	-2.4665561907	-1.791165738	-1.0270480268	 0.470435
O	-3.1252371479	-2.369113324	-1.822192658	-0.299313
C	-1.5060096147	-2.1630930397	 0.1360942321	-0.388876
C	-0.3406630123	-2.961528202	-0.1857303167	 0.304479
N	 0.5975058296	-3.5856054518	-0.4422593476	-0.317859
H	 0.852822263	 1.9646025056	-0.4699743556	 0.129476
H	-0.8285758575	 1.8093152051	-1.0032025859	 0.144764
H	-0.4574282572	 1.9991425562	 0.7176719015	 0.121633
H	 0.3641655536	-0.4290668208	-1.0044117302	 0.130636
H	 0.6891628334	-0.2550968652	 0.713836438	 0.125154
H	-1.7747035874	-0.2192985371	 1.1823024248	 0.113922
H	-2.0546246873	-2.6149018235	 0.966651999	 0.165787
85.7054	96.1644	114.8889	149.522	214.1053	254.5234	369.8344	403.9726	456.3214	496.6283	578.7345	702.4842	743.6086	802.0201	820.9521	891.5765	913.5873	975.4664	1047.9968	1088.1917	1099.0267	1131.572	1147.3776	1183.8187	1282.4442	1291.7328	1326.0231	1351.8555	1409.9112	1416.3632	1472.8632	1498.9414	1507.6371	1955.6581	2363.0823	3038.3943	3042.8754	3071.8907	3086.6766	3094.9333	3113.8454	3126.7034
CCC1OC(=O)C1C#N	CC[C@H]1OC(=O)[C@H]1C#N	
InChI=1S/C6H7NO2/c1-2-5-4(3-7)6(8)9-5/h4-5H,2H2,1H3	InChI=1S/C6H7NO2/c1-2-5-4(3-7)6(8)9-5/h4-5H,2H2,1H3/t4-,5+/m0/s1
