20
gdb 115749	3.62927	0.85876	0.73776	5.7435	79.86	-0.2617	0.0328	0.2944	1549.4452	0.170291	-403.148912	-403.139227	-403.138283	-403.184863	34.082	
C	-0.0682503515	 1.6647659638	-0.1306363568	-0.394123
C	-0.0137237521	 0.1738754925	 0.2214072181	-0.192064
C	-1.3728995231	-0.5036342549	 0.0705466154	-0.052934
C	-1.862946177	-0.7877548789	-1.3688151016	-0.078054
O	-1.8940268521	-2.2114140512	-1.1287797093	-0.282232
C	-1.4939261609	-2.0448466336	 0.2416213396	 0.125134
C	-0.2318709413	-2.8515031435	 0.5771463406	-0.362851
C	-0.4841025255	-4.2907820607	 0.5688791201	 0.267943
N	-0.6904075315	-5.427483397	 0.5747469106	-0.300876
H	 0.915319991	 2.1314843904	-0.0258713226	 0.121341
H	-0.3996386115	 1.8179528818	-1.1634676572	 0.123756
H	-0.7650981164	 2.1994059878	 0.5238493414	 0.121059
H	 0.7252310502	-0.3217833422	-0.4204422147	 0.102893
H	 0.3422789541	 0.056700446	 1.2530449687	 0.102025
H	-2.1113457107	 0.0294046163	 0.6762705504	 0.085202
H	-2.8539282656	-0.3962667138	-1.6256858162	 0.108893
H	-1.1583449102	-0.5259903843	-2.1687869912	 0.104223
H	-2.2971851941	-2.3485926733	 0.9256191272	 0.094985
H	 0.5608661439	-2.6286661314	-0.1431281895	 0.154425
H	 0.1328014543	-2.5678293839	 1.571537887	 0.151256
43.5481	58.9377	102.9923	111.0214	181.6457	225.3538	273.4906	370.1645	392.2697	399.8876	484.8285	538.6568	754.1941	808.9009	822.7659	880.1613	909.2426	954.3189	967.2082	983.772	1019.7825	1043.5131	1057.059	1122.46	1139.4914	1157.9252	1188.5467	1226.8339	1255.6207	1277.3901	1301.511	1312.7581	1342.6199	1370.5722	1397.9713	1400.3954	1414.6425	1450.1291	1486.7255	1499.6443	1506.0663	1528.9318	2364.9493	3011.784	3016.7657	3019.8991	3033.6564	3047.5382	3048.5979	3056.86	3074.0144	3098.9982	3101.7186	3110.5259
CCC1COC1CC#N	CC[C@H]1CO[C@H]1CC#N	
InChI=1S/C7H11NO/c1-2-6-5-9-7(6)3-4-8/h6-7H,2-3,5H2,1H3	InChI=1S/C7H11NO/c1-2-6-5-9-7(6)3-4-8/h6-7H,2-3,5H2,1H3/t6-,7-/m0/s1
