25
gdb 57395	2.80538	1.1134	0.9887	0.1954	94.87	-0.2244	0.0356	0.26	1387.3254	0.228639	-352.386135	-352.376069	-352.375125	-352.420688	39.103	
C	-0.1360526188	 1.5409769061	 0.0195287574	-0.411525
C	-0.0063388794	 0.0084190145	-0.0075526756	 0.156357
C	 0.6945309795	-0.4567811755	 1.2890856054	-0.406569
C	-1.4251185697	-0.605734704	-0.0595868969	-0.403578
C	 0.7904292951	-0.4595623814	-1.2117360108	 0.365039
C	 1.2877525919	 0.2842059072	-2.2050218647	-0.204173
C	 2.0570614345	-0.523794928	-3.2222104216	-0.248836
C	 1.6539895464	-1.9778537564	-2.8785749284	-0.20768
C	 1.1749799537	-1.9213229604	-1.4095326396	-0.305164
H	 0.8449387573	 2.0237954037	 0.0700656588	 0.111807
H	-0.6524229953	 1.9142691916	-0.8704801866	 0.112801
H	-0.7119408594	 1.856783237	 0.8958035319	 0.103541
H	 0.1288031742	-0.1282840702	 2.1677804348	 0.107018
H	 0.7758398294	-1.5469554987	 1.3354295368	 0.113511
H	 1.7043386147	-0.039622719	 1.3616411858	 0.112675
H	-1.9528006871	-0.2939629682	-0.9665058896	 0.113273
H	-1.3952346253	-1.6992193677	-0.0454716176	 0.111636
H	-2.0138600915	-0.2799832458	 0.8051095013	 0.107038
H	 1.19962449	 1.3615686222	-2.2806585856	 0.081709
H	 1.8164792632	-0.253550664	-4.2569522538	 0.096988
H	 3.1394618806	-0.3618889795	-3.1092817335	 0.100029
H	 0.8192995096	-2.2811880551	-3.519110553	 0.101676
H	 2.4617609182	-2.6972934591	-3.0366299204	 0.092099
H	 1.9810608364	-2.1977251412	-0.714845748	 0.102642
H	 0.3541013315	-2.6194747881	-1.2131979266	 0.097686
52.3771	122.2298	175.0146	223.3429	226.338	265.5193	296.6625	309.2849	326.526	338.9212	382.6627	457.3657	538.9999	568.4996	646.1106	797.4865	820.7303	851.1519	882.5865	908.4191	923.5622	928.1242	936.5486	956.0492	965.1069	1031.4075	1041.123	1042.561	1071.611	1093.1898	1152.5908	1218.6799	1223.6196	1226.8661	1237.7585	1288.234	1293.8278	1327.2026	1329.2347	1358.3362	1392.8717	1394.3693	1426.2369	1476.622	1483.1546	1485.6061	1488.8957	1490.038	1501.9772	1502.4302	1507.0022	1520.8562	1700.8458	2996.322	3004.5349	3027.3464	3027.9612	3035.2277	3040.4367	3052.2177	3062.5428	3094.7297	3095.2485	3097.5161	3102.1513	3102.9946	3106.2148	3110.2631	3198.335
CC(C)(C)C1=CCCC1	CC(C)(C)C1=CCCC1	
InChI=1S/C9H16/c1-9(2,3)8-6-4-5-7-8/h6H,4-5,7H2,1-3H3	InChI=1S/C9H16/c1-9(2,3)8-6-4-5-7-8/h6H,4-5,7H2,1-3H3
