21
gdb 37042	2.76634	1.6768	1.40556	0.9773	81.24	-0.2345	0.0803	0.3148	1022.3012	0.185533	-387.064646	-387.057271	-387.056327	-387.096044	30.667	
C	 0.0269439623	 1.438315774	 0.1385687952	-0.377842
C	 1.3525589614	 0.7560743768	-0.0483824345	 0.318651
C	 1.7878980746	 0.108819738	 1.2766716196	-0.291002
C	 0.47044026	-0.7391718304	 1.2768524162	-0.287319
C	 0.0528597	-0.0600326629	-0.0362009019	 0.273083
C	-0.411021378	-0.7193173158	-1.3134485522	-0.187318
O	 0.6554650578	-0.8487915956	-2.2575297058	-0.243006
C	 1.3097297749	 0.381409398	-2.5141232761	-0.079493
C	 2.1636946821	 0.8533382681	-1.3152916223	-0.316432
H	-0.2282925516	 1.869903182	 1.1042306433	 0.102067
H	-0.3527335527	 2.0006493644	-0.7092186754	 0.109114
H	 2.680094368	-0.5135793032	 1.1716217643	 0.10256
H	 1.9397233097	 0.792384363	 2.1189013988	 0.093351
H	 0.6718587689	-1.8063883696	 1.1545814889	 0.105522
H	-0.2091842524	-0.6087471674	 2.1260813495	 0.092865
H	-0.7622814336	-1.7384427543	-1.1263130366	 0.108405
H	-1.2376634086	-0.1577339168	-1.778811793	 0.087608
H	 1.9472795839	 0.2128291287	-3.3866105621	 0.107956
H	 0.571005186	 1.1543454858	-2.7886236995	 0.084269
H	 2.5487354955	 1.8625788945	-1.5101559451	 0.094175
H	 3.0309743317	 0.1877275627	-1.2321796013	 0.102785
130.1941	183.5108	294.7723	332.9932	361.7622	399.0422	464.2285	500.439	535.4279	660.1431	720.394	741.7167	777.565	849.5859	855.4112	921.3346	934.157	939.2296	961.3239	972.2985	983.9915	1033.359	1043.5621	1078.9223	1098.3045	1122.5945	1190.6837	1208.6312	1219.1978	1233.9608	1246.1422	1259.5757	1290.9135	1308.802	1334.5856	1371.0559	1378.3405	1395.3543	1419.1492	1476.8789	1483.1178	1484.6558	1489.0268	1501.3571	1513.687	2956.5829	2965.4466	3018.142	3035.8221	3044.35	3059.904	3079.7798	3085.7432	3089.6833	3101.5217	3108.3122	3192.9203
C1C23CCC12COCC3	C1[C@@]23CC[C@@]12COCC3	
InChI=1S/C8H12O/c1-2-8-5-7(1,8)3-4-9-6-8/h1-6H2	InChI=1S/C8H12O/c1-2-8-5-7(1,8)3-4-9-6-8/h1-6H2/t7-,8-/m0/s1
