17
gdb 29633	2.33021	1.91433	1.06497	4.6086	79.77	-0.2195	-0.0531	0.1664	1091.6297	0.136977	-418.072425	-418.06415	-418.063206	-418.105426	30.659	
C	-0.0213748265	 1.4626934188	 0.0077105813	-0.362913
N	-0.0002011485	 0.0002810654	 0.0281669285	-0.186051
C	-0.0203776818	-0.6544294877	-1.227334541	 0.374098
O	-0.0520859506	-0.0327061795	-2.2781947121	-0.402304
C	 0.0037735149	-2.1079809436	-1.1166528578	-0.088227
N	 0.0390922287	-2.7738890711	-0.0031725591	-0.233255
C	 0.0559151442	-2.0690895507	 1.162977468	-0.115195
C	 0.037439919	-0.7028810148	 1.2083934029	 0.362967
C	 0.0568443832	 0.0517726827	 2.5041809134	-0.491773
H	 0.8754451812	 1.8710383038	 0.481359398	 0.140018
H	-0.0515045663	 1.7591939913	-1.0391296747	 0.186763
H	-0.9047330335	 1.8458161789	 0.5256029653	 0.139965
H	-0.0098840621	-2.6495802648	-2.0590058134	 0.130845
H	 0.0855513259	-2.641058536	 2.0824529897	 0.109595
H	 0.0871089246	-0.6510507508	 3.3381085142	 0.145168
H	 0.9308394552	 0.7081801592	 2.5789788591	 0.145137
H	-0.8319166174	 0.6817498389	 2.6207574376	 0.145164
78.095	116.7443	184.4944	226.9309	253.7682	329.637	385.0706	469.7104	490.177	521.4006	603.6594	605.2457	681.2081	769.0469	807.8088	845.7484	937.179	952.4989	1026.8016	1058.8467	1121.0948	1149.0341	1177.8156	1196.0495	1251.6258	1304.4856	1378.1653	1412.355	1422.5162	1464.8563	1473.9098	1484.5192	1506.4656	1511.5266	1556.9521	1640.5624	1758.4763	3035.3582	3050.7777	3088.04	3114.2592	3139.1806	3168.1047	3175.6728	3200.1043
CN1C(=O)C=NC=C1C	Cn1c(=O)cncc1C	
InChI=1S/C6H8N2O/c1-5-3-7-4-6(9)8(5)2/h3-4H,1-2H3	InChI=1S/C6H8N2O/c1-5-3-7-4-6(9)8(5)2/h3-4H,1-2H3
