18
gdb 12706	2.65526	2.22489	1.54753	1.4123	63.08	-0.2474	0.0647	0.3121	877.7793	0.154374	-422.078917	-422.071079	-422.070135	-422.111087	30.101	
C	 0.4180110942	 1.551589795	-0.0704307746	-0.3884
C	 0.1815786443	 0.0562118876	-0.0038615895	 0.096406
O	 0.8540229226	-0.5831526943	-1.107376627	-0.278378
C	 1.0643042264	-1.9297285127	-0.7035994168	-0.130868
C	 1.6287280954	-1.7751591479	 0.7020821289	 0.096064
O	 2.9771643215	-1.3092691937	 0.6567107223	-0.447453
C	 0.7157229427	-0.6571358478	 1.2892552049	 0.084303
O	 1.411862941	 0.173752445	 2.1840527601	-0.432653
H	 1.4801851274	 1.7839396727	 0.0382399486	 0.112324
H	 0.0655516535	 1.9464203816	-1.0271376304	 0.12037
H	-0.1166542593	 2.0543651964	 0.7392793706	 0.129862
H	-0.8948539132	-0.157118735	-0.0999278693	 0.0693
H	 0.1214387344	-2.5014080486	-0.6936531104	 0.096655
H	 1.7613992387	-2.4011325492	-1.4006836882	 0.118326
H	 1.6329358579	-2.6892689902	 1.298464305	 0.092851
H	 3.0287125417	-0.708366339	-0.0992757429	 0.293667
H	-0.1251086948	-1.1011070961	 1.8337368175	 0.081196
H	 2.3509081055	 0.0213189262	 1.9976813112	 0.286426
58.5854	191.3249	213.5553	262.2498	311.6473	377.6932	418.6027	438.4942	510.3073	547.5886	631.3346	722.97	760.7346	812.4355	851.624	887.9829	916.0871	999.5562	1027.8872	1067.979	1090.3752	1116.3365	1154.6422	1169.9711	1222.9996	1251.5794	1257.8121	1306.3961	1342.1322	1347.1722	1379.1891	1383.7861	1412.8817	1429.0963	1451.6889	1480.7005	1488.5996	1500.591	2968.9151	2974.1314	3043.7672	3052.1146	3102.8686	3106.9291	3127.4191	3131.3387	3700.8817	3759.2571
CC1OCC(O)C1O	C[C@H]1OC[C@@H](O)[C@H]1O	
InChI=1S/C5H10O3/c1-3-5(7)4(6)2-8-3/h3-7H,2H2,1H3	InChI=1S/C5H10O3/c1-3-5(7)4(6)2-8-3/h3-7H,2H2,1H3/t3-,4-,5+/m1/s1
