18
gdb 89926	3.1817	1.29653	1.08295	3.207	76.76	-0.2671	0.0091	0.2763	1145.694	0.14798	-401.933435	-401.925175	-401.924231	-401.966439	31.003	
C	 0.3191685219	 1.6649027186	 0.0512105024	-0.411358
C	 0.0486555598	 0.1696422965	 0.0264409145	 0.022807
C	 0.8479396662	-0.7253024846	-0.9751570235	-0.312449
C	 1.2492897564	-1.6890720188	 0.1906076437	 0.149328
C	 2.5606015235	-1.2850677193	 0.8993765318	-0.116111
O	 1.8842429494	-0.2685838135	 1.6671791365	-0.282588
C	 0.5873524164	-0.6819664371	 1.1994430696	 0.061143
C	 0.919320795	-3.0852130947	 0.0726427396	 0.18629
N	 0.6486758055	-4.206050792	-0.0233399697	-0.341301
H	 1.3747980457	 1.8611138153	 0.2574472113	 0.133147
H	 0.0615683147	 2.1222004749	-0.9096161511	 0.119533
H	-0.2721570808	 2.1615170059	 0.8276826508	 0.12291
H	-1.023860887	-0.0253486614	-0.084150321	 0.088703
H	 0.2447354515	-1.1934447024	-1.7535398222	 0.130444
H	 1.711933194	-0.2441661197	-1.4412115589	 0.114113
H	 2.9750748766	-2.0677147145	 1.5451280853	 0.125045
H	 3.3488990263	-0.8775481555	 0.2566017157	 0.116128
H	-0.081254935	-0.9646474479	 2.0161938753	 0.094217
72.136	146.5982	174.7778	218.3599	233.2132	324.9883	364.4436	440.9494	544.9547	561.885	598.7546	637.2653	793.7136	864.5266	884.9884	900.1697	922.6736	965.1372	994.3433	1017.4453	1052.3704	1089.8264	1121.682	1148.8249	1171.658	1188.5472	1199.6796	1253.2715	1273.9845	1291.4832	1326.0132	1360.0509	1366.4573	1410.5327	1481.8372	1491.6764	1502.0676	1521.0769	2348.2068	3024.3067	3037.0114	3045.9525	3067.6027	3078.0143	3085.6748	3101.6868	3120.6428	3134.4557
CC1CC2(COC12)C#N	C[C@H]1C[C@]2(CO[C@@H]12)C#N	
InChI=1S/C7H9NO/c1-5-2-7(3-8)4-9-6(5)7/h5-6H,2,4H2,1H3	InChI=1S/C7H9NO/c1-5-2-7(3-8)4-9-6(5)7/h5-6H,2,4H2,1H3/t5-,6-,7+/m0/s1
