24
gdb 121624	3.82421	0.66737	0.64988	3.2927	87.94	-0.2379	0.0385	0.2765	1921.5429	0.215571	-405.601491	-405.589866	-405.588921	-405.640356	40.847	
C	-0.0297770145	 1.4652658837	-0.1236443386	-0.377533
C	-0.1729753311	-0.0585691668	-0.1121386959	-0.167024
C	-1.4847159264	-0.5143476734	 0.5391374943	-0.147349
N	-1.6401225122	-1.9593490026	 0.5705297591	-0.3265
C	-2.4203046522	-2.6379746489	-0.3209546269	 0.423777
O	-3.085234673	-2.0775208858	-1.1772921807	-0.396248
C	-2.4239423996	-4.1625599377	-0.1709959023	-0.080541
C	-3.8473175372	-4.6300264883	 0.1718043587	-0.377706
C	-1.9269471704	-4.7989719087	-1.4781718642	-0.377149
H	 0.9083034237	 1.7720021439	-0.5953699169	 0.116264
H	-0.8504158853	 1.9341972061	-0.6772225742	 0.124006
H	-0.0400526103	 1.8747089712	 0.8928799357	 0.113467
H	-0.1399615272	-0.449328352	-1.1355344004	 0.115394
H	 0.6741723695	-0.5086841845	 0.4223304022	 0.087104
H	-1.5515707216	-0.1257498879	 1.563301447	 0.098905
H	-2.3378254166	-0.1267668362	-0.0231859114	 0.14595
H	-1.0781011512	-2.4886347745	 1.2165952994	 0.240544
H	-1.7493273467	-4.4530933759	 0.6452133746	 0.059153
H	-4.5439463288	-4.2902249772	-0.5992082323	 0.142221
H	-3.891507491	-5.7221313257	 0.2283618893	 0.108816
H	-4.1817861516	-4.2253542133	 1.1324343389	 0.112496
H	-0.8929765608	-4.5126590477	-1.6965006091	 0.110836
H	-1.9718418159	-5.8907060221	-1.4168814709	 0.108672
H	-2.5521927196	-4.4678320357	-2.3115664954	 0.142445
22.7686	32.0257	66.7495	88.1429	214.083	216.1894	234.9068	239.1638	267.0783	270.1665	306.938	337.9082	412.9503	471.8775	542.9118	649.232	745.8875	770.5637	828.4682	883.1536	901.6408	930.8753	940.8433	974.7227	1033.4889	1072.8241	1105.922	1117.0357	1126.6348	1181.4536	1200.6384	1221.9149	1280.7329	1331.9944	1334.714	1339.6786	1378.7199	1390.6914	1406.708	1412.4338	1416.5241	1475.2354	1484.5613	1490.9774	1492.5268	1499.3051	1500.7202	1508.8531	1513.8428	1539.7217	1768.2762	3012.3623	3020.0038	3025.2062	3032.223	3035.5489	3038.949	3064.876	3097.8944	3102.2728	3104.9624	3107.4843	3115.8828	3121.9051	3126.6917	3642.9316
CCCNC(=O)C(C)C	CCCNC(=O)C(C)C	
InChI=1S/C7H15NO/c1-4-5-8-7(9)6(2)3/h6H,4-5H2,1-3H3,(H,8,9)	InChI=1S/C7H15NO/c1-4-5-8-7(9)6(2)3/h6H,4-5H2,1-3H3,(H,8,9)
