14
gdb 8648	2.56463	1.82316	1.39048	4.5327	63.69	-0.2747	-0.0018	0.2729	926.6748	0.105481	-378.678922	-378.670341	-378.669397	-378.711715	31.122	
N	-0.1888065646	 1.4043771053	 0.1542965066	-0.529596
C	 0.0859228618	-0.0117519008	-0.0642897943	-0.195558
C	 0.8367548861	-0.5515732743	 1.1961642852	 0.0351
O	 0.1412922148	-0.1527305598	 2.3519544677	-0.42982
C	 0.9379569535	-2.0102645713	 1.1423337024	 0.332687
C	 1.0070155041	-3.2045149903	 1.0501622872	-0.409096
C	 2.2085347748	 0.0421023735	 1.1951943549	 0.263839
N	 3.2405255205	 0.5613481038	 1.1675340211	-0.342582
H	 0.6046465942	 1.9800046103	-0.1076745355	 0.257526
H	-0.9903663383	 1.7130263227	-0.3811947755	 0.250774
H	-0.8613781953	-0.553866952	-0.1132369551	 0.13578
H	 0.6679286563	-0.2436599658	-0.964780942	 0.124597
H	-0.2003527241	 0.7310035774	 2.1188313918	 0.296097
H	 1.0757573163	-4.2631223488	 0.9886618757	 0.210253
107.474	127.8311	151.5913	189.7618	260.9071	279.7726	328.6243	445.8938	494.6852	505.9961	572.9463	603.1282	642.2384	657.1128	686.8232	709.1618	841.692	929.4411	996.3318	1045.6054	1088.7692	1132.4052	1226.3539	1324.7809	1393.4391	1435.289	1487.1366	1653.9729	2251.8302	2349.6803	3029.2766	3111.5922	3499.4661	3521.887	3607.8464	3610.147
NCC(O)(C#C)C#N	NC[C@@](O)(C#C)C#N	
InChI=1S/C5H6N2O/c1-2-5(8,3-6)4-7/h1,8H,3,6H2	InChI=1S/C5H6N2O/c1-2-5(8,3-6)4-7/h1,8H,3,6H2/t5-/m0/s1
