16
gdb 33363	4.99528	0.71087	0.68475	5.569	83.51	-0.2741	-0.0468	0.2273	1615.4813	0.125569	-400.739624	-400.731305	-400.73036	-400.774046	29.559	
N	 0.0731658716	-3.7182532844	-0.4601760191	-0.335809
C	 0.0409577739	-2.5639638832	-0.3322511047	 0.210219
C	 0.0000840527	-1.2081724396	-0.1785343276	-0.034131
C	-0.0381441263	-0.0083564878	-0.0377661108	 0.191533
C	-0.0771022835	 1.4458515022	 0.1281913847	-0.081199
C	-0.6589437296	 1.8729513099	 1.5148527857	-0.25582
C	 0.4048021237	 2.8486333846	 2.0515572259	-0.211113
C	 1.6685280081	 2.3543330768	 1.3483681295	-0.080483
O	 1.2338707475	 2.003375328	 0.0356102438	-0.24133
H	-0.6627423149	 1.8688656321	-0.6967464655	 0.125905
H	-1.6463662449	 2.3245855229	 1.4083248867	 0.124875
H	-0.7569865418	 1.002301937	 2.1670221128	 0.12909
H	 0.1830395111	 3.8738417949	 1.7408285064	 0.117839
H	 0.4822423502	 2.8281277255	 3.1409615129	 0.114273
H	 2.4492402866	 3.1106500285	 1.2400421542	 0.121447
H	 2.0956066256	 1.4807469326	 1.8642458053	 0.104705
35.8671	84.0351	113.757	218.3158	248.0643	283.8169	425.1976	515.8064	574.1212	590.3539	598.3871	693.7733	733.6489	870.2031	896.0114	920.7326	932.3354	941.4534	1030.24	1081.9573	1106.6892	1164.1116	1206.7869	1210.0548	1253.1419	1297.1948	1321.28	1334.4394	1359.1249	1386.8935	1487.0493	1501.5949	1520.9558	2261.1739	2398.0081	2991.9006	3035.3722	3062.1595	3078.8218	3105.4911	3115.0498	3132.8659
N#CC#CC1CCCO1	N#CC#C[C@H]1CCCO1	
InChI=1S/C7H7NO/c8-5-1-3-7-4-2-6-9-7/h7H,2,4,6H2	InChI=1S/C7H7NO/c8-5-1-3-7-4-2-6-9-7/h7H,2,4,6H2/t7-/m0/s1
