18
gdb 108391	2.41768	1.42574	1.13304	3.4961	76.87	-0.2592	0.0311	0.2903	1139.3172	0.14715	-401.924494	-401.915793	-401.914849	-401.958086	32.007	
C	-0.0022978277	 1.3529649131	-0.1920958612	-0.264682
O	-0.0042406577	-0.0235349113	 0.1685360264	-0.27608
C	-1.2500289166	-0.5895968248	 0.1614852275	 0.44138
C	-2.3375090088	-0.3816762002	 1.2256137824	-0.31486
C	-2.7022004299	-1.8995712366	 1.0806794507	-0.234707
C	-1.5925130779	-2.0530773681	 0.0333128483	-0.152812
C	-1.8513641032	-1.1113458344	-1.1444663896	-0.258558
C	-3.1719192539	-0.781066218	-1.6013022972	 0.298195
N	-4.2429527923	-0.4997415475	-1.9395577589	-0.355719
H	 1.0349877877	 1.6888862061	-0.1464256113	 0.136315
H	-0.3883419616	 1.4970078711	-1.2100236121	 0.122152
H	-0.6056371863	 1.9515364792	 0.5027801205	 0.124062
H	-1.9008081753	-0.1558869732	 2.2003798818	 0.119008
H	-3.1218235035	 0.3439089991	 0.9975903841	 0.123665
H	-2.4992775872	-2.4648634569	 1.9913934702	 0.116528
H	-3.7141960475	-2.1229936018	 0.7352002493	 0.129993
H	-0.9428769283	-2.9082709392	-0.1052653395	 0.110314
H	-1.10706216	-1.1974875167	-1.9299188812	 0.135806
82.7213	120.6907	139.1349	176.5323	196.9895	295.555	370.3798	392.2914	439.3882	546.5328	568.9066	658.0929	749.3759	792.7012	826.1277	900.5968	918.9254	953.3851	974.7165	1022.3046	1038.0806	1091.1419	1093.9308	1138.6234	1179.4675	1193.1268	1214.5331	1222.6969	1229.3468	1254.2324	1301.5033	1321.675	1417.0337	1474.5082	1485.8704	1488.2093	1503.2598	1508.5591	2341.8417	3003.782	3062.1626	3068.7995	3075.8574	3120.4432	3135.0611	3136.8536	3169.6115	3195.9119
COC12CCC1C2C#N	CO[C@]12CC[C@H]1[C@H]2C#N	
InChI=1S/C7H9NO/c1-9-7-3-2-5(7)6(7)4-8/h5-6H,2-3H2,1H3	InChI=1S/C7H9NO/c1-9-7-3-2-5(7)6(7)4-8/h5-6H,2-3H2,1H3/t5-,6+,7+/m0/s1
