19
gdb 106129	2.7782	1.63516	1.45107	0.6888	79.43	-0.2184	0.0195	0.2379	1001.6827	0.160212	-385.848504	-385.84092	-385.839976	-385.880432	30.279	
C	-0.2246292031	 1.3423199702	 0.0404795216	-0.259244
O	 0.1422020977	-0.0269835521	-0.0590695229	-0.284407
C	 0.7383471681	-0.5122620985	 1.0712803422	 0.440096
C	 0.8420416711	-1.9226172666	 1.5457120931	-0.153102
C	 2.3475640723	-1.803438407	 1.705777964	-0.218966
C	 2.2041959336	-0.2278986568	 1.6079097774	-0.179346
C	 2.0094822892	 0.2973352841	 3.0049372248	-0.096901
C	 0.8211441984	-0.116242174	 3.4696119656	-0.077633
C	 0.0855111261	-0.8285323063	 2.3950105108	-0.167115
H	 0.6513671166	 1.9805121684	 0.2184526514	 0.117576
H	-0.6819659831	 1.6188107386	-0.9117501449	 0.126999
H	-0.9453773389	 1.5026659076	 0.8530811153	 0.117173
H	 0.286913788	-2.7966185589	 1.2282749635	 0.093454
H	 2.8180460793	-2.1915013613	 2.6143391727	 0.092812
H	 2.8544582141	-2.1995599239	 0.8223041132	 0.107542
H	 2.9222396346	 0.280969465	 0.9664847871	 0.071018
H	 2.7811767238	 0.803999077	 3.5714426111	 0.091995
H	 0.4397909047	 0.0183893438	 4.4743467231	 0.093063
H	-0.9877016626	-0.9774875096	 2.426433881	 0.084985
100.7152	149.3457	176.1364	326.3939	362.213	380.9391	447.6873	557.8496	574.1458	684.0502	725.589	760.4461	786.987	829.977	870.279	897.803	928.6745	940.0499	979.4712	995.5175	1027.2603	1037.5046	1053.959	1071.7605	1114.0069	1131.5682	1137.5128	1160.5192	1179.5028	1208.4745	1231.6091	1262.4408	1275.74	1308.2737	1365.1757	1424.1088	1483.4034	1486.2909	1500.5292	1504.8699	1630.3887	3001.0686	3047.9284	3057.8442	3107.2787	3124.5809	3126.157	3181.6565	3193.0177	3196.5832	3219.7707
COC12C3CC1C=CC23	CO[C@@]12[C@H]3C[C@@H]1C=C[C@@H]23	
InChI=1S/C8H10O/c1-9-8-5-2-3-6(8)7(8)4-5/h2-3,5-7H,4H2,1H3	InChI=1S/C8H10O/c1-9-8-5-2-3-6(8)7(8)4-5/h2-3,5-7H,4H2,1H3/t5-,6+,7-,8-/m0/s1
