17
gdb 24123	4.84472	0.9074	0.86316	1.4428	75.32	-0.2162	0.0185	0.2347	1358.1556	0.136452	-421.830032	-421.822133	-421.821189	-421.864018	28.973	
C	-0.0224747182	 1.5284079119	 0.1225130813	-0.353926
C	-0.0681832014	 0.0260209473	 0.338041097	 0.105887
C	-1.2363195557	-0.7744515647	-0.0441528806	-0.181324
O	-0.0450091334	-0.7871548078	-0.8342111621	-0.22905
C	 1.3585635979	 2.0458811547	-0.0962141429	 0.370816
C	 2.0254763513	 2.5251267865	-1.1803509509	-0.266872
C	 3.3533527947	 2.8392112447	-0.738626097	-0.167337
C	 3.3929591763	 2.5247427774	 0.5803733579	-0.020828
O	 2.1878756482	 2.041417427	 0.9902355681	-0.182732
H	-0.6360677579	 1.7788460563	-0.7475092013	 0.122303
H	-0.4676307294	 2.0213117349	 0.9970896797	 0.120693
H	 0.5648557951	-0.3410722075	 1.1466828643	 0.104134
H	-1.4600028228	-1.6994887508	 0.4853218388	 0.115833
H	-2.0952173851	-0.2848548776	-0.5026524704	 0.111802
H	 1.6226784584	 2.6367276417	-2.1748169213	 0.109818
H	 4.1616800171	 3.2439022663	-1.3270869006	 0.110203
H	 4.155376095	 2.5827655598	 1.3393832	 0.130583
38.4562	62.5064	115.1714	264.3686	323.6307	358.8587	443.4687	614.2871	650.3527	735.5815	750.3587	790.2147	809.5135	849.1478	858.2525	902.4035	926.178	946.3417	971.4826	1032.9976	1079.2279	1096.939	1118.2426	1157.9059	1167.7802	1182.969	1210.8655	1238.2499	1279.3039	1292.4669	1327.1089	1417.3388	1438.7527	1453.1781	1531.1164	1541.8986	1640.894	3023.5731	3080.1008	3094.3748	3112.6547	3166.2427	3251.4526	3263.1091	3286.2012
C(C1CO1)C1=CC=CO1	C([C@H]1CO1)c1ccco1	
InChI=1S/C7H8O2/c1-2-6(8-3-1)4-7-5-9-7/h1-3,7H,4-5H2	InChI=1S/C7H8O2/c1-2-6(8-3-1)4-7-5-9-7/h1-3,7H,4-5H2/t7-/m0/s1
