17
gdb 51558	3.21538	1.03798	0.89516	3.0134	70.06	-0.2403	-0.0023	0.2379	1299.3385	0.133938	-458.938422	-458.929719	-458.928774	-458.973302	30.67	
O	 0.1849110655	 0.083039214	-0.1780330401	-0.270998
C	 0.2513843019	 1.268979865	-0.2946741946	 0.171546
O	 1.0137408016	 2.03615398	 0.5155922699	-0.182627
C	 1.0075666067	 3.426328998	 0.2499115709	 0.008991
C	 2.1626822294	 4.210724277	 0.8195887938	-0.386602
C	 2.0526701787	 3.9988048634	-0.6589463778	 0.424219
C	 2.9874814669	 3.2808332611	-1.6221346745	-0.354653
C	 2.6187753022	 4.4396168623	-2.5764599347	-0.073513
O	 1.7649019099	 5.0496161891	-1.5734120125	-0.302945
H	-0.2951764902	 1.8593355961	-1.0549530145	 0.085275
H	 0.0230346217	 3.8867047935	 0.2597153273	 0.122116
H	 1.9416662692	 5.1946558745	 1.2187859558	 0.136377
H	 2.9271126423	 3.651122233	 1.3488810083	 0.139666
H	 4.0332300561	 3.2418807371	-1.3138280998	 0.125522
H	 2.6671418767	 2.2859067972	-1.9362580217	 0.127544
H	 3.4403158625	 5.1048987972	-2.8605035048	 0.115897
H	 2.0523293488	 4.1581210115	-3.4704323111	 0.114186
39.8055	76.2162	116.9355	134.0681	197.9955	303.1418	359.4705	415.0764	481.5226	593.9626	645.0122	788.5537	850.8135	868.1406	875.4471	892.5598	964.9011	1009.3732	1024.9653	1049.2783	1056.0446	1095.5901	1117.1007	1151.5736	1164.4546	1179.5184	1200.4959	1212.6656	1250.7063	1321.843	1363.5367	1397.097	1426.6589	1474.8568	1492.3928	1530.7468	1868.5036	2957.2516	3037.4182	3081.6223	3083.6543	3133.0479	3135.2999	3145.11	3227.5564
O=COC1CC11CCO1	O=CO[C@H]1C[C@]21CCO2	
InChI=1S/C6H8O3/c7-4-8-5-3-6(5)1-2-9-6/h4-5H,1-3H2	InChI=1S/C6H8O3/c7-4-8-5-3-6(5)1-2-9-6/h4-5H,1-3H2/t5-,6-/m0/s1
