19
gdb 13789	3.87597	1.22583	1.11494	3.316	73.11	-0.2437	0.0293	0.273	1152.9753	0.165071	-365.096042	-365.086954	-365.08601	-365.129966	33.068	
C	 0.0169456539	 1.5536850574	-0.0314700431	-0.373894
C	-0.3174238814	 0.075429727	-0.2639893527	-0.207577
C	 0.5970851393	-0.5557316846	-1.2942459174	 0.018777
C	 1.9408661045	-1.1027544898	-0.9275877417	-0.282152
C	 0.8555346768	-2.0617707859	-1.3739145738	-0.150029
C	 0.2757573816	-2.9866699197	-0.3494216484	 0.418211
N	-0.2980183775	-4.1178891728	-0.8645093169	-0.533496
O	 0.3194968665	-2.7808146891	 0.8522871136	-0.376337
H	 1.0407992494	 1.6716205681	 0.3385173057	 0.118516
H	-0.069494489	 2.1353468833	-0.9565499199	 0.106736
H	-0.659586541	 1.9983768955	 0.7049303539	 0.11102
H	-0.2435079421	-0.4821609321	 0.6726624241	 0.13955
H	-1.3585847909	-0.0143126583	-0.6015615405	 0.088548
H	 0.5404517981	-0.088519744	-2.2758526968	 0.083643
H	 2.7845726413	-0.9474511204	-1.5904059419	 0.10913
H	 2.1788270493	-1.1548738263	 0.1296981793	 0.140073
H	 0.9380190243	-2.4709690927	-2.3762653936	 0.075266
H	-0.4770011299	-4.2204387027	-1.8479411993	 0.255641
H	-0.7883174233	-4.7213638928	-0.2244610503	 0.258374
60.4022	90.9512	146.7479	201.8571	219.5999	243.858	267.7921	382.1891	399.9837	467.7097	578.6977	626.9157	753.4825	765.3804	801.2239	803.099	860.8515	931.4275	958.2418	985.9125	1046.9539	1071.9982	1080.329	1104.8614	1127.1373	1146.5745	1203.4125	1238.3312	1280.8206	1300.3353	1348.3744	1408.2526	1422.2459	1436.3757	1479.5827	1495.3978	1498.0814	1510.0977	1617.7017	1775.7017	3020.7515	3029.007	3086.4623	3104.8024	3107.7229	3124.3657	3133.893	3148.6717	3227.0108	3600.5304	3735.9009
CCC1CC1C(N)=O	CC[C@H]1C[C@H]1C(=O)N	
InChI=1S/C6H11NO/c1-2-4-3-5(4)6(7)8/h4-5H,2-3H2,1H3,(H2,7,8)	InChI=1S/C6H11NO/c1-2-4-3-5(4)6(7)8/h4-5H,2-3H2,1H3,(H2,7,8)/t4-,5+/m0/s1
