19
gdb 94377	3.07613	1.43087	1.24215	2.413	74.56	-0.242	0.0731	0.3151	1075.9853	0.158292	-422.96437	-422.956233	-422.955289	-422.997346	31.228	
C	 0.1671402396	 1.5501012709	-0.1557058543	-0.396367
C	-0.0499655414	 0.0665915897	 0.0659174323	 0.087955
O	 0.7336561598	-0.7543479349	-0.840360269	-0.298123
C	 1.4512033993	-1.3735530354	 0.2444313951	-0.136077
C	 0.6434812836	-0.5842765823	 1.2849482443	 0.364402
O	 1.3996321971	 0.2609949215	 2.1878310464	-0.320076
C	 0.8312358403	-0.4165180677	 3.3156507625	 0.100735
C	-0.6466529592	-0.2089274417	 3.3657960869	-0.305185
C	-0.0608559255	-1.2672033076	 2.4468047447	-0.211986
H	 1.2122581708	 1.8215240446	 0.0108222558	 0.133131
H	-0.1083594687	 1.812887126	-1.1816722397	 0.123372
H	-0.4529987776	 2.1366926455	 0.5297715777	 0.117116
H	-1.1161332171	-0.1889284778	-0.010565231	 0.075202
H	 1.3215460959	-2.463300372	 0.2627965957	 0.099656
H	 2.5205219712	-1.1304470661	 0.2393128869	 0.112023
H	 1.4800913766	-0.6398953401	 4.1534549775	 0.109648
H	-1.148660458	-0.607065605	 4.2424428748	 0.11847
H	-1.0742615172	 0.7054146539	 2.964330909	 0.120545
H	-0.3199236594	-2.3157970914	 2.5007373243	 0.105559
57.1329	135.6635	187.9452	215.8185	265.1458	346.5695	446.1011	452.2886	505.3176	538.5411	759.2334	788.6797	808.9432	861.8431	877.2328	909.6907	959.0152	968.6607	996.1988	1005.6175	1019.3476	1046.0598	1053.1942	1079.3937	1087.3046	1106.8668	1137.3159	1152.32	1165.3351	1181.8071	1237.9661	1275.1097	1307.1275	1349.2202	1364.7923	1386.7545	1404.9477	1474.0592	1483.3175	1487.7115	1510.5066	3003.4675	3013.3979	3041.9725	3062.3863	3111.2601	3117.427	3130.4529	3189.791	3203.2044	3212.8108
CC1OCC11OC2CC12	C[C@H]1OC[C@]21O[C@H]1C[C@@H]21	
InChI=1S/C7H10O2/c1-4-7(3-8-4)5-2-6(5)9-7/h4-6H,2-3H2,1H3	InChI=1S/C7H10O2/c1-4-7(3-8-4)5-2-6(5)9-7/h4-6H,2-3H2,1H3/t4-,5-,6+,7-/m1/s1
