14
gdb 8761	4.78988	1.27705	1.0281	2.6624	62.33	-0.265	-0.0975	0.1674	1059.4219	0.105889	-415.884226	-415.875944	-415.875	-415.917591	28.207	
C	-0.156896123	 1.4484987163	-0.0205552019	-0.368084
N	 0.0001999927	-0.0063609369	-0.0142554104	-0.130845
C	 0.1312595957	-0.6412819972	 1.2200770695	 0.169368
O	 0.1111539298	-0.0538644109	 2.2750668833	-0.316543
C	-0.0332773907	-0.7659004609	-1.1873210416	 0.280943
N	-0.2576452071	-2.0190211163	-1.1744627048	-0.473002
C	 0.2672587486	-0.0436393969	-2.4946972801	 0.099889
O	 0.1794959066	-0.6171269754	-3.5489054559	-0.230235
H	 0.7616580541	 1.9620055882	-0.322569441	 0.142524
H	-0.9754522818	 1.7487451889	-0.6791643312	 0.141554
H	-0.3917621753	 1.7400501333	 1.0030628648	 0.182109
H	 0.2638717663	-1.7252464911	 1.1106321484	 0.143074
H	-0.187359833	-2.365485542	-2.1346853881	 0.251234
H	 0.590886497	 1.0118849511	-2.437744051	 0.108015
54.6104	106.5081	155.4543	200.4692	240.1817	309.3949	345.1655	363.3292	431.9834	528.71	567.0617	775.5174	860.4447	895.8292	957.3894	1036.9505	1047.9333	1081.1861	1152.0117	1246.5768	1290.2157	1375.4275	1421.8719	1449.3943	1458.7876	1499.9632	1518.6245	1686.1352	1801.9263	1821.6949	2967.2042	3041.6318	3068.8264	3109.3585	3158.6757	3453.4985
CN(C=O)C(=N)C=O	CN(C=O)C(=N)C=O	
InChI=1S/C4H6N2O2/c1-6(3-8)4(5)2-7/h2-3,5H,1H3	InChI=1S/C4H6N2O2/c1-6(3-8)4(5)2-7/h2-3,5H,1H3
