18
gdb 118331	2.29824	1.13822	0.8386	3.33	70.26	-0.2409	-0.0316	0.2093	1389.7113	0.144287	-476.257504	-476.247136	-476.246191	-476.293984	35.763	
C	 0.3515952402	 1.0613333728	 0.594292435	-0.391213
C	-0.1529971692	-0.2350326709	-0.0118329572	-0.047568
O	 0.8492136378	-0.7258901281	-0.9033420706	-0.261299
C	 0.5479336647	-1.9380188264	-1.5332021916	-0.064159
C	-0.4241402203	-1.7902082507	-2.7108505269	 0.14463
O	-1.0141913748	-0.7724228672	-2.9579095712	-0.242518
C	 1.8237732707	-2.6337166173	-2.0483653845	 0.360305
N	 2.9642888987	-1.9536055453	-1.802121559	-0.511232
O	 1.7453601571	-3.6979738644	-2.6315945066	-0.370894
H	 1.2879271238	 0.8994979347	 1.1366529335	 0.121266
H	 0.5267391182	 1.8054287496	-0.1874762519	 0.136073
H	-0.3877080345	 1.4620982893	 1.2937961893	 0.123246
H	-0.3395800368	-0.9869507187	 0.7718053709	 0.09122
H	-1.0862909416	-0.0711782607	-0.5604992045	 0.127457
H	 0.0859281602	-2.6612876956	-0.8372304685	 0.119257
H	-0.5318196375	-2.7140172728	-3.3133481916	 0.120379
H	 2.9237705109	-1.0760542321	-1.3119031385	 0.2782
H	 3.8398656124	-2.3337594562	-2.1196425162	 0.266849
48.2803	57.191	98.712	132.5645	154.6616	222.2275	248.9752	284.9007	313.3344	344.7186	370.2053	507.1758	527.578	612.8561	681.775	736.3452	814.0213	823.9511	909.2064	953.6061	1032.8891	1066.0612	1097.543	1146.171	1182.5552	1184.7294	1239.248	1299.8427	1322.2546	1367.4377	1386.1816	1403.5533	1440.0884	1484.0932	1501.003	1522.7304	1591.879	1800.0803	1835.2119	2943.197	2959.2688	2978.1976	3045.4897	3072.1979	3120.1042	3125.3113	3601.8187	3743.3839
CCOC(C=O)C(N)=O	CCO[C@@H](C=O)C(=O)N	
InChI=1S/C5H9NO3/c1-2-9-4(3-7)5(6)8/h3-4H,2H2,1H3,(H2,6,8)	InChI=1S/C5H9NO3/c1-2-9-4(3-7)5(6)8/h3-4H,2H2,1H3,(H2,6,8)/t4-/m0/s1
