23
gdb 96493	2.35999	1.35133	0.97456	1.1456	87.01	-0.2368	0.0193	0.2561	1286.5783	0.20802	-388.300862	-388.292015	-388.291071	-388.333816	35.441	
O	-0.0547734475	 1.5088426594	 0.0803488598	-0.438536
C	 0.0690600414	 0.0872035353	 0.0727334055	 0.134226
C	-1.3665424365	-0.4312529089	 0.2483134085	-0.181028
C	-1.5258831439	-1.9339102371	 0.5695183379	-0.195262
C	-1.9221689654	-2.8411249422	-0.6084212412	-0.184652
C	-1.0245616967	-2.7273294613	-1.8632898543	-0.24657
C	 0.43866554	-2.8441155321	-1.5448003881	-0.032806
C	 1.2273487702	-1.8124159077	-1.2393279972	-0.064928
C	 0.8004336311	-0.3647757998	-1.2126967841	-0.270285
H	 0.8221122	 1.8851626637	-0.0444097613	 0.277096
H	 0.6609103754	-0.2436382718	 0.9434187882	 0.062176
H	-1.7827880077	 0.1603449866	 1.0698719928	 0.107359
H	-1.9504189442	-0.1562069151	-0.639401271	 0.0962
H	-0.6000344445	-2.3082895479	 1.0200008729	 0.098806
H	-2.2978768143	-2.0487304525	 1.3386868893	 0.092605
H	-1.9237579277	-3.8804277503	-0.2563143816	 0.093112
H	-2.9538524995	-2.6182385463	-0.9092459642	 0.094908
H	-1.3229403573	-3.5022912777	-2.5784905776	 0.094693
H	-1.2222993812	-1.7658376547	-2.3499786038	 0.103801
H	 0.8547694144	-3.8492588196	-1.5078240264	 0.082303
H	 2.2614722778	-2.0114177381	-0.9660495822	 0.083159
H	 0.1565804633	-0.1217871382	-2.0664861794	 0.113067
H	 1.6946746528	 0.2641004062	-1.3157801624	 0.080556
120.9953	154.1038	219.5771	240.4457	280.5449	287.8749	320.2231	377.4087	413.9707	458.8574	500.4262	543.1626	607.6683	718.8406	765.5564	824.8496	850.5125	882.9027	910.1005	975.4863	1001.1716	1005.2558	1011.9858	1020.0479	1067.7873	1085.2062	1103.7731	1132.5651	1147.6111	1196.8094	1233.2595	1256.2194	1277.3269	1292.7313	1306.5876	1312.4668	1335.8135	1355.0686	1377.6112	1390.5711	1395.1619	1421.1537	1437.9615	1476.8957	1485.7959	1489.8719	1494.9747	1506.1685	1720.767	2950.5673	3012.2438	3016.0361	3029.5543	3032.0622	3038.1513	3050.5628	3058.5311	3069.5959	3076.3202	3078.9598	3132.2559	3156.6697	3816.5163
OC1CCCCC=CC1	O[C@H]1CCCCC=CC1	
InChI=1S/C8H14O/c9-8-6-4-2-1-3-5-7-8/h2,4,8-9H,1,3,5-7H2/b4-2-	InChI=1S/C8H14O/c9-8-6-4-2-1-3-5-7-8/h2,4,8-9H,1,3,5-7H2/b4-2-/t8-/m1/s1
