16
gdb 35170	3.78369	1.20875	1.07415	2.4504	76.32	-0.2385	0.0272	0.2657	1124.2811	0.122988	-400.597752	-400.590155	-400.589211	-400.629887	29.811	
C	-0.1387065211	-1.2373451528	 0.0308623761	-0.436797
C	-0.0760507278	-0.0368340999	 0.0469256608	 0.380527
C	-0.0032743471	 1.3969769934	 0.0215763283	-0.39049
N	 0.5914881861	 2.0835122825	 1.2218202506	-0.394353
C	 1.2812110699	 2.1358635817	-0.0275171893	 0.487736
C	 2.7502536791	 1.8180797011	-0.3346116162	-0.047978
C	 2.4959821292	 2.2300082975	-1.8057182733	-0.21679
C	 1.8425675882	 3.2863954927	-0.8790308114	-0.065576
O	 3.0594094163	 3.2437142193	-0.0316835425	-0.31053
H	-0.1922802681	-2.2978647587	 0.0311455851	 0.200318
H	-0.8527576692	 1.8892652805	-0.4491410996	 0.116577
H	 0.0886537534	 2.9466457424	 1.4167134575	 0.242274
H	 3.4033165646	 1.0546460517	 0.0831856306	 0.111731
H	 3.3826616515	 2.5867345309	-2.3294045724	 0.114026
H	 1.8480412816	 1.5981082924	-2.4175701044	 0.10925
H	 1.4200884734	 4.2635088652	-1.1147669	 0.100078
95.6846	124.7187	220.0351	282.3154	343.2001	419.7171	506.9921	545.9103	600.1287	638.0329	661.4773	690.5079	750.3133	805.8153	856.4115	861.7095	892.0081	910.435	920.309	1005.163	1025.8914	1036.3987	1080.5047	1116.8461	1133.7682	1169.1841	1173.9271	1194.4105	1230.709	1237.1254	1261.0671	1355.2245	1473.1209	1506.6429	2240.7166	3071.4311	3118.6957	3119.9182	3149.6591	3160.2016	3495.8636	3503.5033
C#CC1NC11C2CC1O2	C#C[C@H]1N[C@]21[C@H]1C[C@@H]2O1	
InChI=1S/C7H7NO/c1-2-4-7(8-4)5-3-6(7)9-5/h1,4-6,8H,3H2	InChI=1S/C7H7NO/c1-2-4-7(8-4)5-3-6(7)9-5/h1,4-6,8H,3H2/t4-,5-,6+,7-/m1/s1
