16
gdb 126463	5.28045	0.86388	0.78133	4.9398	76.1	-0.2718	-0.0808	0.191	1441.2981	0.123466	-437.897008	-437.888536	-437.887592	-437.931094	29.866	
C	-0.4635108929	 1.4218814506	 0.2227526839	-0.378994
C	 0.2859623725	 0.1148885006	-0.0829287985	-0.294961
C	 0.8849627506	-0.5122388004	 1.1391314918	 0.398067
N	 2.1926875085	-0.5843881725	 1.2771775791	-0.178119
O	 2.4339812975	-1.1928451555	 2.4941086849	-0.19232
C	 1.2556767593	-1.4810203889	 3.0760353053	 0.3484
C	 1.2403173072	-2.1404233681	 4.3886225786	 0.079352
O	 2.2211363031	-2.4557005433	 5.0154014278	-0.249437
C	 0.2313573298	-1.0758653642	 2.2712816018	-0.396885
H	 0.2106100933	 2.1651279391	 0.6580061614	 0.136078
H	-0.8884962285	 1.8410139644	-0.6935090574	 0.125664
H	-1.2838900913	 1.2577139479	 0.9286378552	 0.120724
H	-0.3995177695	-0.6016082559	-0.5509042334	 0.119999
H	 1.093173586	 0.2999113095	-0.7969661985	 0.135863
H	 0.2112475717	-2.3273739742	 4.7628395112	 0.091577
H	-0.8266230873	-1.1690901194	 2.4564621267	 0.134993
51.0048	83.6081	155.2377	179.3276	225.9282	269.411	345.4668	419.7838	481.6642	653.4268	659.4763	721.1332	770.5257	795.1838	844.0543	965.9474	968.2631	1010.5265	1020.5302	1036.7525	1073.9286	1099.3805	1151.2678	1277.0491	1315.1731	1353.0149	1404.2492	1413.3296	1451.7099	1480.1307	1492.2892	1498.7688	1511.2605	1621.0421	1804.9587	2906.3334	3040.2793	3042.4441	3093.2147	3116.0409	3121.9216	3270.4902
CCC1=NOC(C=O)=C1	CCc1noc(C=O)c1	
InChI=1S/C6H7NO2/c1-2-5-3-6(4-8)9-7-5/h3-4H,2H2,1H3	InChI=1S/C6H7NO2/c1-2-5-3-6(4-8)9-7-5/h3-4H,2H2,1H3
