17
gdb 27274	3.13016	1.54052	1.05702	0.3846	75.31	-0.1706	0.055	0.2256	1093.6452	0.139223	-418.02657	-418.018842	-418.017898	-418.058435	30.274	
O	 0.0637892998	 1.3479281986	 0.182857528	-0.441846
C	 0.0563639288	 0.0002167157	-0.0065710105	 0.253744
C	 0.031884468	-0.8097557922	-1.1096224659	 0.114166
N	 0.0658177188	-0.6675309083	-2.5284100781	-0.431503
C	 0.4188536254	-2.0433014762	-2.9888419392	-0.162093
C	 0.0142004106	-3.0587609603	-1.866304856	-0.363743
C	 0.0378022688	-2.1592451151	-0.6617097539	 0.276298
C	 0.0427031403	-2.1552750012	 0.7063808804	-0.270805
N	 0.0403755694	-0.8193614403	 1.0970849104	-0.298868
H	 0.368877388	 1.7518216815	-0.636645046	 0.30872
H	-0.855650977	-0.4241681979	-2.8845017368	 0.221808
H	-0.0490153337	-2.252216902	-3.9542690475	 0.096834
H	 1.5052877018	-2.0825732066	-3.1273211297	 0.112716
H	-0.9864703748	-3.4758365723	-2.0452469859	 0.102194
H	 0.7118781448	-3.9003634416	-1.8237028978	 0.10688
H	 0.0439762278	-2.940328331	 1.4440241059	 0.114463
H	 0.1140737734	-0.4791960806	 2.0396761727	 0.261035
146.6577	183.3492	250.5653	264.7598	270.4773	314.7511	408.1694	531.0508	595.3341	602.6087	625.6089	646.4427	671.8716	739.9182	797.6083	823.1547	911.4493	927.2134	989.6621	1046.9114	1072.6126	1080.3445	1154.3126	1184.2369	1221.6728	1231.7071	1283.8748	1309.8686	1352.2546	1369.0491	1409.2495	1420.6091	1486.6474	1499.9321	1536.2822	1597.9701	1690.2882	3007.5633	3037.2209	3078.0222	3101.1149	3267.1304	3461.9389	3686.9968	3823.3256
OC1=C2NCCC2=CN1	Oc1c2NCCc2c[nH]1	
InChI=1S/C6H8N2O/c9-6-5-4(3-8-6)1-2-7-5/h3,7-9H,1-2H2	InChI=1S/C6H8N2O/c9-6-5-4(3-8-6)1-2-7-5/h3,7-9H,1-2H2
