13
gdb 125149	3.33787	1.30661	0.94452	4.1749	68.88	-0.2765	-0.0649	0.2117	1133.974	0.088989	-452.758318	-452.750296	-452.749352	-452.791208	28.593	
C	-0.0151208134	 1.5656964294	 0.0519938773	-0.515384
C	 0.0264362283	 0.0764315836	 0.0090429783	-0.040385
C	-0.0231801193	-0.7782874797	-1.0532745168	 0.300549
O	 0.0437319773	-2.0700998376	-0.6542131213	-0.222442
N	 0.1423852159	-2.0918327598	 0.7295351558	-0.23591
C	 0.1311739398	-0.8347739411	 1.1026185786	 0.426102
O	 0.2108124724	-0.4603960043	 2.3849908516	-0.413939
C	-0.1291756629	-0.5201102515	-2.4410252636	 0.250359
N	-0.2164072934	-0.2737621717	-3.5686945343	-0.329847
H	 0.8891040428	 1.968193586	 0.5200299048	 0.154079
H	-0.09834326	 1.9832526977	-0.9536218823	 0.153225
H	-0.8673308808	 1.9156462096	 0.6435670417	 0.154079
H	 0.272946383	-1.2566427406	 2.9302413102	 0.319514
104.0139	120.5547	137.8917	238.036	254.435	349.7545	426.7883	459.17	496.3364	517.7656	606.4606	673.4483	686.8239	747.2966	776.6928	956.3423	1007.4119	1065.6634	1135.2329	1207.8949	1222.3452	1323.2943	1423.7235	1478.3243	1479.0561	1516.4646	1571.6441	1673.2526	2351.4421	3042.9758	3098.8647	3133.4376	3778.7046
CC1=C(ON=C1O)C#N	Cc1c(onc1O)C#N	
InChI=1S/C5H4N2O2/c1-3-4(2-6)9-7-5(3)8/h1H3,(H,7,8)	InChI=1S/C5H4N2O2/c1-3-4(2-6)9-7-5(3)8/h1H3,(H,7,8)
