20
gdb 62668	3.22787	1.31319	1.1632	2.6097	79.14	-0.214	0.0629	0.2768	1144.8301	0.168935	-403.047974	-403.039162	-403.038218	-403.080665	35.133	
C	 0.2947918384	 1.3098682756	 0.4229971538	-0.438981
C	-0.0239016896	-0.1090609275	-0.034958897	 0.340219
C	-1.3908043038	-0.5740531708	 0.4708265938	-0.49575
C	 0.6637344044	-0.4602357098	-1.3068795482	-0.173475
N	 1.2387807646	-0.9032842372	 0.0227265119	-0.179125
C	 1.1223350697	-2.3307558296	-0.4685703774	-0.074509
C	-0.1993952169	-2.8583604992	-1.0152110596	-0.37646
C	 0.6367673006	-1.9163217818	-1.8261694291	 0.376813
O	 1.1714695076	-2.2269005959	-3.0624313343	-0.452806
H	 1.2908374038	 1.6152099902	 0.0948914425	 0.128422
H	-0.443214839	 2.0144314841	 0.0239142531	 0.112596
H	 0.2655067347	 1.3662660195	 1.516125434	 0.121946
H	-2.0886888133	-0.8012010473	-0.3388896256	 0.130562
H	-1.307708246	-1.4516393727	 1.1154797635	 0.141604
H	-1.8410475004	 0.2226360964	 1.069549128	 0.117389
H	 1.1889206607	 0.2889733336	-1.8957367478	 0.093689
H	 1.9130019279	-3.0050468235	-0.1666129524	 0.111309
H	-0.0742462422	-3.8842915938	-1.3544488424	 0.117942
H	-1.1820118522	-2.6464425944	-0.6233573081	 0.112238
H	 0.4524079411	-2.2524435859	-3.7039513688	 0.286377
96.8702	218.1772	223.4962	254.0036	269.4474	276.9125	331.5607	395.3067	404.8243	417.9085	499.3194	568.225	630.645	657.0586	699.8176	822.0448	830.0272	867.9458	889.1886	973.7006	977.517	996.7824	1007.3664	1025.9931	1031.1851	1061.1342	1084.8207	1091.0208	1135.3476	1184.1492	1223.6738	1229.8078	1298.3877	1307.0953	1376.4225	1404.7671	1413.9445	1426.1079	1487.1656	1495.5898	1497.1553	1508.2357	1518.9896	3032.488	3048.3333	3098.7208	3108.383	3126.3668	3127.7013	3130.6575	3135.2035	3199.5035	3252.9989	3784.5636
CC1(C)C2N1C1CC21O	CC1(C)[C@H]2N1[C@H]1C[C@@]21O	
InChI=1S/C7H11NO/c1-6(2)5-7(9)3-4(7)8(5)6/h4-5,9H,3H2,1-2H3	InChI=1S/C7H11NO/c1-6(2)5-7(9)3-4(7)8(5)6/h4-5,9H,3H2,1-2H3/t4-,5+,7-,8?/m0/s1
