21
gdb 32418	2.81672	1.20048	0.91203	1.1019	86.65	-0.1868	0.0574	0.2442	1346.0098	0.182792	-383.316202	-383.305969	-383.305024	-383.351564	37.277	
C	-0.0051982795	 1.5491737273	 0.118523458	-0.363175
C	-0.0466680206	 0.0187920458	-0.0411667083	-0.297258
C	 0.6850369318	-0.4826572072	-1.2534560214	 0.197199
C	 0.1126195258	-0.8656628568	-2.4469964849	-0.189604
N	 1.1158202508	-1.2387933511	-3.3022327753	-0.256743
C	 2.3325419836	-1.1106715446	-2.6769071954	 0.16398
N	 3.5036739418	-1.4490571629	-3.3988063882	-0.613855
C	 2.103424878	-0.6417289425	-1.3971215914	 0.161999
C	 3.1534159587	-0.3775663478	-0.3610210154	-0.516467
H	 1.0242487923	 1.9117361166	 0.202501072	 0.116384
H	-0.4574680917	 2.0408141979	-0.7485663176	 0.114278
H	-0.5479221263	 1.8683472635	 1.0149170657	 0.102917
H	 0.3705922433	-0.4434143472	 0.8633718648	 0.094297
H	-1.0927592659	-0.306599853	-0.0907497618	 0.094041
H	-0.9233910095	-0.9065059872	-2.7449187832	 0.109314
H	 1.016706788	-1.5475040512	-4.2535413397	 0.255417
H	 3.9222864906	-2.3130122269	-3.067024263	 0.240641
H	 4.2101908485	-0.7259111108	-3.3224278031	 0.242183
H	 3.2833697602	 0.6922220156	-0.1531069536	 0.122006
H	 2.9123784869	-0.8573977186	 0.5951888727	 0.122284
H	 4.1252874233	-0.7650497689	-0.6844912209	 0.10016
64.8129	81.4852	115.1772	138.9069	193.7607	222.3513	260.6584	282.8462	298.8072	393.6607	484.988	503.2388	569.1314	649.3603	688.6684	696.5441	727.0103	756.2039	793.9272	806.7797	939.3885	968.5427	1055.1865	1059.3835	1085.4003	1091.6377	1133.3807	1196.1749	1221.1674	1243.8576	1300.1289	1334.0242	1365.8788	1406.505	1414.3276	1427.4317	1480.0366	1486.6733	1491.0872	1497.0692	1498.8066	1506.0493	1551.2387	1627.3951	1662.8245	3013.578	3014.6952	3031.5491	3050.9378	3059.4292	3089.2809	3099.844	3107.9558	3253.0995	3493.2546	3567.0783	3683.6086
CCC1=CNC(N)=C1C	CCc1c[nH]c(N)c1C	
InChI=1S/C7H12N2/c1-3-6-4-9-7(8)5(6)2/h4,9H,3,8H2,1-2H3	InChI=1S/C7H12N2/c1-3-6-4-9-7(8)5(6)2/h4,9H,3,8H2,1-2H3
