20
gdb 97622	3.00301	0.69882	0.58972	4.0226	89.5	-0.2637	0.0219	0.2855	1944.2863	0.168854	-366.011237	-366.000333	-365.999389	-366.049552	37.442	
C	-0.0624336975	 1.5630478482	 0.0658254813	-0.366287
C	 0.0087953448	 0.0260716839	 0.0046349199	-0.318635
C	 0.6806162583	-0.4660368837	-1.1935747748	 0.148049
C	 1.2367026384	-0.8402422768	-2.1931664149	 0.027316
C	 1.9127641217	-1.3355041384	-3.3933466413	-0.319392
C	 1.9825082665	-2.8900081939	-3.4276316111	-0.169366
C	 2.7851851833	-3.4309935626	-4.610540645	-0.401441
C	 1.2636060803	-0.8157947885	-4.6106126454	 0.296539
N	 0.7637890209	-0.4287079242	-5.5776500519	-0.332223
H	 0.9399897444	 1.9992480591	 0.0637091035	 0.129809
H	-0.6057545675	 1.9609640802	-0.7951302941	 0.135857
H	-0.576284777	 1.8823379407	 0.9771043824	 0.118059
H	 0.5292552149	-0.3550358635	 0.8924824892	 0.132393
H	-1.0049472025	-0.3918461358	 0.0464101045	 0.13551
H	 2.9447746748	-0.9553501259	-3.4057136301	 0.148762
H	 2.42979695	-3.2052062045	-2.4799136776	 0.118066
H	 0.9596880617	-3.2785765532	-3.4421465093	 0.12708
H	 2.3433279761	-3.1278987932	-5.5643992	 0.147109
H	 3.8193764852	-3.0701159031	-4.5879127385	 0.119657
H	 2.8131758433	-4.5238818349	-4.5847269266	 0.123139
11.8189	66.2815	86.3253	118.2603	159.3517	178.9861	212.1999	254.5974	298.1133	317.5785	396.6983	456.7472	484.7908	555.2688	581.3661	751.5051	785.4555	795.5775	861.4379	941.1541	973.2621	1043.6653	1078.6881	1101.6998	1105.1825	1111.0187	1177.6061	1261.6279	1285.9153	1292.8597	1337.9353	1349.3095	1364.2118	1410.0381	1417.1434	1474.0218	1487.8008	1495.2213	1498.1996	1505.6083	1506.6494	2359.2398	2373.5168	3003.473	3023.7462	3038.0169	3047.1079	3052.1412	3056.2818	3092.0587	3111.9485	3120.6149	3121.2682	3127.5735
CCC#CC(CC)C#N	CCC#C[C@@H](CC)C#N	
InChI=1S/C8H11N/c1-3-5-6-8(4-2)7-9/h8H,3-4H2,1-2H3	InChI=1S/C8H11N/c1-3-5-6-8(4-2)7-9/h8H,3-4H2,1-2H3/t8-/m1/s1
