21
gdb 120349	3.9378	0.89239	0.79998	1.2367	83.8	-0.2264	0.0195	0.2459	1472.7289	0.18345	-387.078684	-387.069915	-387.068971	-387.112603	33.495	
O	-0.014621003	 1.4978811683	-0.2022866463	-0.42119
C	 0.0683648356	 0.0908603686	-0.0249651793	-0.07815
C	-1.3529160711	-0.4590576109	-0.0142589967	-0.171923
C	-1.4255382973	-1.994229482	 0.0733031013	-0.050048
C	-0.9293986721	-2.6029129447	 1.3768710434	-0.088688
C	-1.801215335	-3.4678023943	 1.9005657169	-0.081459
C	-3.0559596167	-3.5441907178	 1.097150122	-0.081337
C	-3.8507042774	-2.2527429775	 1.043921185	-0.27806
C	-2.8475395855	-2.5592426223	-0.0398655737	-0.054521
H	 0.8777518205	 1.8555667218	-0.1867756456	 0.284106
H	 0.6422945955	-0.3795955663	-0.8411629614	 0.081438
H	 0.5817478747	-0.1570844388	 0.9175557908	 0.084934
H	-1.9008450767	-0.0054499515	 0.8186590839	 0.104923
H	-1.8473390571	-0.1268123945	-0.9347542145	 0.104764
H	-0.8232412083	-2.395262212	-0.757850176	 0.075934
H	 0.0259652318	-2.3405186719	 1.8173950427	 0.090356
H	-1.6545860866	-4.0296050261	 2.8166139116	 0.092284
H	-3.5714249672	-4.4894250018	 0.9677678866	 0.083693
H	-4.8978139246	-2.3183601737	 0.7661548617	 0.107425
H	-3.6265776884	-1.4937923368	 1.7858342013	 0.113061
H	-3.234717281	-2.7679284457	-1.0304011334	 0.082456
76.8254	86.5154	126.1028	197.3617	264.0358	293.109	338.7538	402.4954	448.2434	595.1909	683.0235	746.7308	771.7297	781.6096	798.429	830.8431	891.8343	918.5344	943.9586	979.834	1001.4825	1034.3312	1040.8311	1068.458	1071.3979	1079.6633	1095.0022	1103.1485	1121.8141	1152.7427	1198.3526	1222.3966	1235.4074	1295.1168	1303.5847	1312.7586	1330.591	1359.0288	1375.0436	1392.4293	1461.108	1476.885	1491.328	1527.0084	1666.9652	2955.5895	2969.3219	2987.8727	3038.687	3084.8284	3125.6344	3165.0678	3174.6808	3181.5753	3206.1958	3214.2477	3829.2853
OCCC1C=CC2CC12	OCC[C@H]1C=C[C@H]2C[C@@H]12	
InChI=1S/C8H12O/c9-4-3-6-1-2-7-5-8(6)7/h1-2,6-9H,3-5H2	InChI=1S/C8H12O/c9-4-3-6-1-2-7-5-8(6)7/h1-2,6-9H,3-5H2/t6-,7+,8+/m1/s1
