12
gdb 133337	2.47534	1.50481	0.9364	1.9997	80.11	-0.1842	-0.1062	0.078	1105.5542	0.072933	-510.057419	-510.048378	-510.047434	-510.091336	31.915	
N	 0.0351011497	 1.3602457554	 0.0111590271	-0.561118
C	-0.0610185396	-0.0063702996	 0.0228599165	 0.039833
C	-1.3354600137	-0.6707640236	 0.0709787249	 0.374539
F	-2.3486978727	 0.236391283	 0.0295989668	-0.096334
O	-1.5827791537	-1.8449438605	 0.1286409202	-0.35524
N	 1.1709504005	-3.2074237546	 0.0708552593	-0.12619
N	 1.014328129	-2.0984647331	 0.0587148424	 0.170296
C	 1.163580373	-0.6977454543	 0.0051956199	 0.371463
N	 2.34834048	-0.1549661041	-0.0541702373	-0.596992
H	 0.94293571	 1.7198708968	-0.2509219489	 0.282392
H	-0.7784618862	 1.8809358617	-0.2708764939	 0.270164
H	 3.1179292438	-0.812905367	-0.090275547	 0.227187
69.3441	115.066	163.8132	205.3413	236.994	289.2057	332.6836	408.7486	413.2407	426.6583	440.5779	492.5085	565.6785	609.7695	624.8889	718.8459	729.0566	921.7848	1049.5136	1124.6548	1166.582	1365.2171	1441.7962	1606.4731	1637.2203	1805.5812	2208.0799	3560.7878	3576.6607	3707.245
NC1=C(F)ON=NC1=N	N[C](C(=O)F)C(=N)[N][N]	
InChI=1S/C3H3FN4O/c4-2-1(5)3(6)7-8-9-2/h6H,5H2	InChI=1S/C3H3FN4O/c4-2(9)1(5)3(6)8-7/h6H,5H2
