18
gdb 22802	2.612	1.41083	1.02438	2.9447	76.53	-0.2347	-0.0461	0.1886	1175.2905	0.148076	-439.075507	-439.067111	-439.066167	-439.108784	31.778	
O	-0.0340819176	 1.3490937998	-0.0717741792	-0.37278
N	 0.0348943458	-0.0387867132	-0.0381955689	-0.178215
C	-1.1060992782	-0.6110409863	 0.0405570368	 0.275372
C	-1.1342319501	-2.1209673257	 0.0431321848	-0.281539
C	-2.1154360082	-2.657499548	-1.0145897664	-0.198521
C	-3.5123226131	-2.0549223775	-0.8211264925	-0.206701
C	-3.476718473	-0.5151379935	-0.877233558	-0.304174
C	-2.4548151132	 0.0812721206	 0.0824439487	 0.334909
O	-2.7005996006	 1.0035313859	 0.8213825276	-0.291023
H	 0.8932637037	 1.5955006508	-0.1595563793	 0.310696
H	-0.1187977736	-2.4938762986	-0.1133103243	 0.121289
H	-1.4609421977	-2.46874003	 1.0339814812	 0.1168
H	-1.7411381781	-2.409783396	-2.016137758	 0.106905
H	-2.1608279263	-3.7498451347	-0.9534058569	 0.10353
H	-4.2028452193	-2.4314509691	-1.5828493538	 0.106272
H	-3.915190088	-2.3719147931	 0.1496184463	 0.109446
H	-3.1825588127	-0.2019703025	-1.8900480703	 0.125803
H	-4.4500050397	-0.0674360687	-0.6611075778	 0.121929
57.5843	121.3821	206.4204	256.192	273.318	343.5972	394.1504	417.2243	451.3381	486.5906	548.2903	659.4835	664.8563	704.0583	834.6692	855.8461	910.6992	948.9924	953.5589	1012.7813	1069.7899	1079.4458	1112.6269	1135.9139	1164.8554	1255.8034	1274.2921	1279.1405	1336.3572	1351.9898	1363.2896	1377.01	1411.4544	1462.2515	1477.2811	1490.5709	1501.1666	1706.1559	1809.6395	3006.0219	3009.277	3025.1977	3030.2149	3073.8439	3079.2173	3098.4792	3103.204	3812.2257
ON=C1CCCCC1=O	ON=C1CCCCC1=O	
InChI=1S/C6H9NO2/c8-6-4-2-1-3-5(6)7-9/h9H,1-4H2	InChI=1S/C6H9NO2/c8-6-4-2-1-3-5(6)7-9/h9H,1-4H2
