21
gdb 104389	2.40449	1.33631	1.13892	1.1283	73.21	-0.2486	0.0575	0.3061	1176.0508	0.18229	-461.355365	-461.345888	-461.344944	-461.389393	35.991	
C	-0.2910243221	 1.5971639288	 0.1157970543	-0.452604
C	 0.0022891369	 0.0945268015	 0.0574668339	 0.216189
C	-1.3165438692	-0.695424165	-0.0704168689	-0.112924
O	-1.9740535556	-0.5019707618	-1.3131278627	-0.421556
C	 0.9794289784	-0.2772862594	-1.1010801382	-0.124564
O	 2.137889113	-0.8701883832	-0.5044458994	-0.26384
C	 1.684938896	-1.4902460496	 0.6917299477	-0.127886
C	 0.7825042168	-0.4222075675	 1.3117272261	 0.107334
O	 1.5595963581	 0.5782586668	 1.9487396348	-0.439797
H	 0.6262218787	 2.1797899749	 0.2194721326	 0.120863
H	-0.7901677939	 1.9308472866	-0.801294098	 0.101964
H	-0.9328598989	 1.8452796345	 0.9677531821	 0.119419
H	-1.1189091082	-1.7714948613	-0.0141079547	 0.107803
H	-1.9778867765	-0.4409455496	 0.7724932305	 0.093111
H	-2.3195495156	 0.3955540881	-1.3319797146	 0.28725
H	 0.5034418413	-0.9800086984	-1.7977755881	 0.111716
H	 1.3158967754	 0.5919323398	-1.6728958202	 0.104331
H	 1.1356410493	-2.4221512665	 0.4795772411	 0.092449
H	 2.5518393812	-1.7225016245	 1.3147616124	 0.114966
H	 0.1076360278	-0.8136151188	 2.0789712273	 0.080285
H	 2.294715817	 0.7747005346	 1.3547745318	 0.285489
71.4427	118.229	181.8861	200.0642	227.2935	287.861	329.3631	351.8184	369.3031	374.1099	437.4908	458.5725	532.3531	641.0527	741.0864	818.4738	885.5273	897.3267	926.9234	944.2108	966.116	995.3238	1022.3388	1061.4818	1080.6812	1121.5806	1141.1753	1167.1857	1210.3893	1220.2388	1244.2104	1279.7461	1302.078	1312.64	1352.4518	1383.6837	1392.4402	1415.9145	1426.5787	1436.4745	1489.1238	1498.3496	1503.0887	1505.903	1526.9693	2972.6781	2983.27	3018.9811	3031.2953	3069.3361	3072.8471	3085.0243	3093.3233	3105.3836	3126.2837	3779.1392	3828.0405
CC1(CO)COCC1O	C[C@@]1(CO)COC[C@H]1O	
InChI=1S/C6H12O3/c1-6(3-7)4-9-2-5(6)8/h5,7-8H,2-4H2,1H3	InChI=1S/C6H12O3/c1-6(3-7)4-9-2-5(6)8/h5,7-8H,2-4H2,1H3/t5-,6-/m1/s1
