19
gdb 11023	4.07409	1.65898	1.39246	1.5528	77.43	-0.2202	0.0255	0.2457	971.8522	0.165788	-327.923867	-327.916034	-327.91509	-327.955429	30.511	
C	 0.0199395941	 1.5083327419	 0.0876979017	-0.501225
C	-0.0209255053	 0.016181497	 0.0004420215	 0.382253
C	-0.0114483783	-0.7464215345	-1.0983465883	-0.180636
C	-0.0549420369	-2.2274416312	-0.789249131	-0.301321
C	-0.0446660711	-2.2728801695	 0.7429119759	 0.340991
C	-0.746153363	-3.3965575774	 1.4600982658	-0.49024
N	 1.2029407924	-1.7073229869	 1.3079624408	-0.368633
C	-0.0279696732	-0.8611933582	 1.214285217	-0.204785
H	 0.9235171205	 1.8485794415	 0.609223398	 0.131944
H	 0.0049525703	 1.9695897832	-0.9035696035	 0.122289
H	-0.8346755173	 1.8986579972	 0.655390876	 0.12026
H	 0.0534835693	-0.3670401374	-2.1129033239	 0.084445
H	-0.9585887435	-2.7033437112	-1.1954097685	 0.097402
H	 0.8040318341	-2.7644439329	-1.2096844696	 0.114766
H	-0.2430544655	-4.3546213614	 1.2820912969	 0.123916
H	-0.7656891105	-3.225310749	 2.5418851459	 0.111011
H	-1.7818391954	-3.4989953829	 1.1180153865	 0.122721
H	 1.2873749456	-2.0406562975	 2.2687076161	 0.217513
H	-0.5079028762	-0.5438609009	 2.1359195827	 0.077328
145.2238	181.8365	206.9054	246.9747	259.4581	351.3496	387.1544	410.1345	546.6727	590.0658	639.3133	751.9305	813.7254	842.5247	873.2048	906.5014	948.7152	959.8313	986.1266	1021.1563	1034.8212	1061.5851	1070.3423	1110.928	1154.7773	1192.1945	1199.7401	1267.2428	1276.3215	1345.5961	1364.6544	1411.7922	1413.8036	1433.9095	1470.141	1479.2082	1484.6711	1489.988	1500.2154	1709.6735	3008.7043	3015.8565	3021.5978	3052.7981	3062.026	3083.0163	3094.4768	3108.9511	3147.4488	3184.8476	3452.579
CC1=CCC2(C)NC12	CC1=CC[C@@]2(C)N[C@@H]12	
InChI=1S/C7H11N/c1-5-3-4-7(2)6(5)8-7/h3,6,8H,4H2,1-2H3	InChI=1S/C7H11N/c1-5-3-4-7(2)6(5)8-7/h3,6,8H,4H2,1-2H3/t6-,7+/m0/s1
