16
gdb 127958	2.60967	1.61969	1.00594	2.9076	80.67	-0.2054	-0.0401	0.1653	1128.6361	0.125482	-430.232911	-430.224507	-430.223563	-430.265716	31.291	
C	 0.1140671435	 1.3600782414	 0.1535033189	-0.346031
N	 0.1901606419	-0.0867922172	 0.1264546914	-0.346822
C	 0.5255179651	-0.6561638581	-0.9749236116	 0.436322
N	 0.8343124335	-0.0504835603	-2.1766591954	-0.342018
N	 1.1771536621	-0.6463798396	-3.366548379	-0.082523
N	 1.223323787	-1.9122692544	-3.3905132066	-0.200142
C	 0.9462511525	-2.6569572848	-2.270119444	-0.070778
C	 0.6094805743	-2.1129935817	-1.0597212917	 0.266186
N	 0.3566301835	-2.7726592216	 0.0902448725	-0.583967
H	 1.0822010478	 1.8400922026	-0.0675529339	 0.111831
H	-0.6219624452	 1.7611451985	-0.5637569346	 0.110507
H	-0.1908311957	 1.6898291238	 1.149457321	 0.128463
H	 0.8151819763	 0.9546026605	-2.2490285878	 0.271334
H	 1.0192984135	-3.7294064122	-2.4118362195	 0.106924
H	 0.2207800141	-3.7675975197	 0.1022375206	 0.263835
H	 0.0087814059	-2.2044572973	 0.8496550997	 0.276878
111.1288	167.3297	203.5415	207.8837	237.3618	244.0706	327.8582	497.0462	523.4718	526.706	567.0916	584.8341	614.5866	679.689	762.1799	777.9253	876.8955	929.2492	1026.7757	1058.8933	1078.5498	1110.3154	1163.4415	1194.4346	1275.8606	1354.634	1392.285	1439.76	1472.8957	1501.1803	1504.8813	1538.9138	1595.6865	1652.711	1706.2408	2950.5484	2991.4007	3101.9854	3188.7611	3569.6319	3645.2487	3726.4292
CN=C1NN=NC=C1N	CN=c1[nH]nncc1N	
InChI=1S/C4H7N5/c1-6-4-3(5)2-7-9-8-4/h2H,1H3,(H2,5,9)(H,6,7,8)	InChI=1S/C4H7N5/c1-6-4-3(5)2-7-9-8-4/h2H,1H3,(H2,5,9)(H,6,7,8)
