16
gdb 80597	3.82179	1.1512	1.05674	15.8169	68.39	-0.1694	-0.0243	0.1452	1135.2319	0.123801	-474.919168	-474.911284	-474.91034	-474.952344	29.484	
N	-0.216074311	 0.658307167	 0.0859766016	-0.414221
H	-0.642131611	-0.2224432301	 0.519280827	 0.341318
H	 0.75133159	 0.4758116566	-0.1846148468	 0.324767
H	-0.7515274111	 0.9584871138	-0.7278070138	 0.316838
C	-0.3572416063	 1.5773521238	 1.2472408581	-0.143558
C	-1.215091595	 0.9506909159	 2.3214756601	 0.092248
O	-1.1116213791	-0.452454085	 2.1618359396	-0.313946
C	 0.3382945351	-0.3824350479	 2.6484893143	-0.073051
C	 0.2658926618	 1.131174611	 2.5555792937	-0.077765
C	 0.621291045	-0.8352442552	 4.138288929	 0.356181
O	 1.7954587237	-0.5050470583	 4.3847482083	-0.47665
O	-0.2952217302	-1.3675526142	 4.7546665428	-0.444459
H	-0.4240502371	 2.6262543127	 0.9925320591	 0.142706
H	-2.1130957391	 1.3794066747	 2.7461129543	 0.138481
H	 0.9904371214	-0.9274792266	 1.9568438153	 0.077861
H	 0.8243640629	 1.8059675817	 3.1874155673	 0.153248
50.3156	108.4361	161.4714	243.4521	314.6406	400.9499	441.5191	466.659	639.8993	665.864	723.8089	741.7121	758.5162	787.5643	844.7411	872.4377	909.4635	954.9846	978.0565	1018.7081	1062.7107	1069.9978	1078.5502	1161.1553	1168.636	1187.858	1244.6212	1255.2892	1275.0414	1327.5493	1385.6452	1429.4374	1618.7982	1669.424	1837.9289	2776.6586	3048.4346	3210.512	3219.2875	3241.2063	3457.3241	3532.9435
[NH3+]C1C2OC(C12)C([O-])=O	[NH3][C@H]1[C@H]2O[C@@H]([C@@H]12)C(=O)[O]	
InChI=1S/C5H7NO3/c6-2-1-3(2)9-4(1)5(7)8/h1-4H,6H2,(H,7,8)	InChI=1S/C5H7NO3/c6-2-1-3(2)9-4(1)5(7)8/h1-4H,6H3/t1-,2+,3-,4-/m0/s1
