20
gdb 99721	1.90545	1.56684	0.96265	5.833	77.37	-0.234	-0.0168	0.2172	1281.2495	0.168024	-440.339821	-440.329455	-440.328511	-440.375495	37.179	
C	 0.0438590746	 1.4713925306	-0.0428611308	-0.380365
C	-0.0849763724	-0.0549319475	-0.0264843713	-0.16984
N	-1.4754127413	-0.5348883467	-0.0323820491	-0.167292
C	-2.2003162364	-0.5559553078	-1.2569822603	 0.400406
C	-1.3701789144	-0.5904645638	-2.5350903244	-0.506177
O	-3.4031715358	-0.554926256	-1.2997669226	-0.289199
C	-2.1065423256	-0.9381482984	 1.1723993891	 0.406097
C	-1.3756890156	-0.6141018664	 2.4711902009	-0.509906
O	-3.1524329785	-1.535475843	 1.1895721616	-0.299625
H	 1.0995145369	 1.760910458	-0.0400167593	 0.124763
H	-0.42306316	 1.9027119963	-0.9333195217	 0.132048
H	-0.4356755241	 1.9216923256	 0.8309156536	 0.132878
H	 0.4360074166	-0.4815289073	-0.8858390876	 0.123297
H	 0.4176798825	-0.4626704556	 0.8499305662	 0.124285
H	-0.7853993517	 0.3225296284	-2.6792325836	 0.142063
H	-0.676368761	-1.4371791748	-2.542842978	 0.144103
H	-2.0719044193	-0.6901234592	-3.362361304	 0.153233
H	-0.9998165552	 0.4108943476	 2.5127876986	 0.136614
H	-2.0894280428	-0.7756660688	 3.2784594025	 0.15457
H	-0.5288984965	-1.2913329013	 2.6266439105	 0.148046
58.0933	65.9887	133.6575	159.0849	204.0632	215.6149	221.0585	244.1538	378.1942	392.9135	416.8416	453.8012	530.3953	561.7983	608.0569	628.2895	679.0608	777.9594	874.0114	950.4317	997.6541	1009.746	1048.1739	1051.3594	1097.6639	1138.92	1195.4822	1236.1233	1263.446	1362.2904	1386.2549	1393.7	1396.8872	1415.6382	1465.4586	1472.0349	1486.1994	1487.135	1493.915	1501.9802	1520.872	1779.7521	1848.5908	3042.3936	3047.6084	3048.0356	3090.2418	3109.6055	3114.0598	3116.219	3118.9263	3138.9652	3162.2567	3162.9258
CCN(C(C)=O)C(C)=O	CCN(C(=O)C)C(=O)C	
InChI=1S/C6H11NO2/c1-4-7(5(2)8)6(3)9/h4H2,1-3H3	InChI=1S/C6H11NO2/c1-4-7(5(2)8)6(3)9/h4H2,1-3H3
