19
gdb 108843	2.25053	1.29919	0.86934	2.2049	79.73	-0.2358	-0.0372	0.1986	1341.8704	0.158345	-423.066192	-423.056822	-423.055878	-423.101019	33.916	
C	-0.1246547615	 1.5793080199	-0.0065053893	-0.395266
C	 0.0143389686	 0.0490408996	-0.017959129	-0.029944
C	 0.820790647	-0.5067470402	-1.213579176	-0.350444
C	 1.9417280508	-1.3537920349	-0.5978789563	 0.325135
O	 2.7733533577	-1.9979944889	-1.1986747561	-0.337838
C	 1.8204803683	-1.238711307	 0.875002011	 0.180956
C	 2.7813999914	-1.922094504	 1.788872453	-0.177306
O	 2.421113719	-1.656487127	 3.1328216407	-0.422718
C	 0.7652028152	-0.4756142356	 1.1855147672	-0.14579
H	 0.8595874187	 2.0597313679	-0.0166977144	 0.121568
H	-0.6814457784	 1.9261058863	-0.8826434638	 0.120279
H	-0.6561816624	 1.9210686322	 0.8877060657	 0.118112
H	-0.9985383191	-0.3772453629	-0.0138978224	 0.091212
H	 0.2258311997	-1.1202793768	-1.8961985848	 0.129844
H	 1.2684842256	 0.2904398256	-1.81672166	 0.129874
H	 2.77552679	-3.00162042	 1.565820523	 0.113541
H	 3.801186212	-1.5716831118	 1.5595604873	 0.11257
H	 3.0507837515	-2.104598456	 3.7043501457	 0.292222
H	 0.4613121861	-0.2397398564	 2.1994075685	 0.123993
60.8881	70.1844	136.7342	168.0927	237.3591	248.4281	301.767	335.9391	355.1562	428.9197	557.1614	594.6433	608.8356	681.002	806.9256	855.2117	894.5983	912.71	958.5461	1002.4563	1041.7259	1043.7029	1082.5927	1108.4917	1131.1556	1198.8787	1207.2299	1235.6346	1242.4796	1270.1042	1316.9716	1330.0127	1351.1132	1408.1274	1453.68	1466.8767	1497.0017	1499.3277	1502.3406	1702.4475	1801.7629	2969.1146	2986.0413	3005.2454	3031.1283	3057.0341	3098.5807	3103.1665	3105.7738	3203.0853	3838.909
CC1CC(=O)C(CO)=C1	C[C@H]1CC(=O)C(=C1)CO	
InChI=1S/C7H10O2/c1-5-2-6(4-8)7(9)3-5/h2,5,8H,3-4H2,1H3	InChI=1S/C7H10O2/c1-5-2-6(4-8)7(9)3-5/h2,5,8H,3-4H2,1H3/t5-/m1/s1
