15
gdb 73942	3.1525	1.30352	0.9329	4.4359	79.55	-0.2582	-0.0655	0.1927	1181.5373	0.111278	-420.657271	-420.648766	-420.647822	-420.690659	30.729	
C	 0.050458219	 1.5557748696	 0.0374345699	-0.510397
C	-0.0309137993	 0.0704064617	 0.0382123158	 0.015269
C	-1.0965660933	-0.7491759525	-0.0232294279	 0.072219
C	-0.609565483	-2.1807385141	 0.0117636942	-0.187136
O	 0.806542587	-2.0916131384	 0.097278948	-0.231706
C	 1.1895368255	-0.7731402821	 0.1154381315	 0.430418
O	 2.3361693843	-0.4303858929	 0.183656992	-0.349071
C	-2.4640205833	-0.4198689869	-0.1073748304	 0.212916
C	-3.6410267702	-0.171436947	-0.1796975277	-0.387631
H	 0.6573177472	 1.9042369225	-0.8053513973	 0.153045
H	-0.9407393469	 2.0090052997	-0.024648442	 0.137434
H	 0.5507717228	 1.9109075498	 0.9449311273	 0.153042
H	-0.9939112179	-2.7277201982	 0.8806615372	 0.142809
H	-0.8863754424	-2.7345058232	-0.8930081494	 0.142811
H	-4.6765811095	 0.0573164621	-0.2433626013	 0.205978
94.1728	108.5105	131.5561	204.3887	253.8642	258.3856	371.2348	446.8211	495.8188	585.7085	613.718	628.4838	644.5826	656.0151	763.522	763.7713	897.246	1020.0994	1058.499	1070.1475	1084.1546	1102.0983	1173.1882	1201.0691	1334.1418	1366.6599	1415.3385	1472.8108	1476.6424	1497.4189	1696.9944	1863.1888	2223.2658	3034.2481	3039.2708	3071.8311	3092.3962	3135.8121	3498.365
CC1=C(COC1=O)C#C	CC1=C(COC1=O)C#C	
InChI=1S/C7H6O2/c1-3-6-4-9-7(8)5(6)2/h1H,4H2,2H3	InChI=1S/C7H6O2/c1-3-6-4-9-7(8)5(6)2/h1H,4H2,2H3
