19
gdb 50376	2.72434	1.52044	1.22169	1.9949	74.41	-0.2474	-0.0244	0.223	1062.2953	0.160298	-423.0294	-423.021511	-423.020566	-423.062774	29.815	
O	-0.1145669137	 0.0633687777	 0.6121543541	-0.247877
C	 0.3850646294	 0.7101634203	-0.2747397821	 0.14794
C	 1.2250874353	 1.9479053519	-0.126211665	-0.094817
C	 0.7244671143	 3.2009216081	-0.9202118027	-0.288594
C	 0.8782401961	 4.0555380835	 0.3747610089	 0.128377
O	-0.3130932671	 4.580246955	 0.9156501093	-0.253491
C	-0.9828922923	 3.5239567375	 1.6050182003	-0.09922
C	 0.1284257228	 2.6586245459	 2.2170182349	-0.236782
C	 1.2699445079	 2.7815048512	 1.1930331209	-0.071599
H	 0.2415387213	 0.4110700448	-1.3412496708	 0.077402
H	 2.2328917722	 1.6648060903	-0.455768234	 0.10396
H	 1.345667108	 3.5036245344	-1.7651781777	 0.109213
H	-0.3144439991	 3.1376152767	-1.2559968463	 0.116703
H	 1.6036232286	 4.868544779	 0.303444966	 0.082147
H	-1.6470505153	 3.9805795366	 2.342916358	 0.112011
H	-1.6018573181	 2.9343238897	 0.9106857062	 0.0946
H	 0.4580142102	 3.0983083253	 3.1633506228	 0.103119
H	-0.184380367	 1.6308401821	 2.3936546365	 0.139781
H	 2.2499988164	 2.7854398902	 1.6709130908	 0.077128
42.41	79.4226	194.3331	242.8394	307.4307	355.0159	423.7379	559.6429	644.6024	696.9124	720.0182	750.4516	846.8799	879.1075	890.4462	914.2088	934.9824	971.4457	977.4743	1010.8371	1053.8077	1073.7929	1107.0428	1129.2794	1140.7793	1200.2691	1208.1846	1227.7712	1245.5867	1254.8519	1276.2666	1298.6558	1332.7047	1339.6706	1358.0276	1394.7106	1426.9155	1478.2129	1483.8584	1527.0223	1819.9082	2841.3363	2982.7238	3030.6844	3059.5487	3063.6678	3085.2088	3096.8465	3104.5589	3123.17	3155.2265
O=CC1CC2OCCC12	O=C[C@H]1C[C@H]2OCC[C@@H]12	
InChI=1S/C7H10O2/c8-4-5-3-7-6(5)1-2-9-7/h4-7H,1-3H2	InChI=1S/C7H10O2/c8-4-5-3-7-6(5)1-2-9-7/h4-7H,1-3H2/t5-,6+,7-/m1/s1
