14
gdb 25068	6.03135	0.9058	0.79133	4.3123	69.06	-0.2171	0.022	0.2391	1337.836	0.1002	-436.706504	-436.69835	-436.697406	-436.739762	29.793	
O	-0.4590094543	 0.2270857113	-1.0538760614	-0.397004
C	-0.2405450458	 1.2361932172	-0.4438616792	 0.479154
N	-1.0358691383	 1.9403332895	 0.429986705	-0.370403
C	-0.3587354273	 3.0653456625	 0.9058302459	-0.187156
C	 0.8469224661	 3.0515746387	 0.3256810791	 0.360682
C	 2.0382295544	 3.9477704292	 0.3957225912	-0.473515
C	 1.833748775	 5.0787950695	 1.2929858997	 0.309193
C	 1.6599786305	 6.0083638048	 2.0330532854	-0.440534
O	 0.9494095564	 1.9499475386	-0.5018513948	-0.246039
H	-1.9669913146	 1.6454708287	 0.6631118748	 0.278672
H	-0.7877522497	 3.7632279423	 1.6023186026	 0.163436
H	 2.9131751044	 3.3661318159	 0.7189214669	 0.159111
H	 2.2822561491	 4.3090192539	-0.6133609144	 0.159112
H	 1.5190536642	 6.835134418	 2.6846765093	 0.205291
52.644	111.6323	176.5597	245.9533	276.4563	333.5852	423.7769	429.1812	544.9287	602.4276	627.3359	663.0604	711.1966	739.3764	774.6933	775.3309	923.5144	961.2672	970.5051	986.665	1076.8723	1132.0845	1215.8411	1229.1895	1326.5916	1379.9947	1403.5255	1467.8113	1725.4785	1903.2288	2248.7964	3007.1169	3028.5629	3301.8753	3503.7563	3702.0129
O=C1NC=C(CC#C)O1	O=c1[nH]cc(CC#C)o1	
InChI=1S/C6H5NO2/c1-2-3-5-4-7-6(8)9-5/h1,4H,3H2,(H,7,8)	InChI=1S/C6H5NO2/c1-2-3-5-4-7-6(8)9-5/h1,4H,3H2,(H,7,8)
