18
gdb 17710	6.10074	1.53605	1.49699	1.1796	72.45	-0.2098	0.0739	0.2837	915.2058	0.153284	-343.852077	-343.844981	-343.844037	-343.882847	28.073	
C	-0.0501919831	 1.5434734246	-0.262816501	-0.322908
N	-0.015156057	 0.0932465221	-0.1013744329	-0.118992
C	-1.0887392659	-0.485117196	 0.7566526707	-0.02499
C	-0.1901415278	-1.6730258168	 1.1857888434	-0.024986
C	 0.7276514303	-0.4031553091	 1.0932411202	-0.041808
C	-0.438714526	-0.1049543933	 2.1337598072	-0.041814
N	-0.5589442565	-1.5096567998	 2.6212599906	-0.118993
C	 0.4541537002	-1.9305963781	 3.5840127585	-0.322908
H	 0.9075829217	 1.8833839833	-0.6705208776	 0.119525
H	-0.830714331	 1.8069219081	-0.9842471779	 0.120621
H	-0.2430834263	 2.1022976599	 0.6691522773	 0.095251
H	-2.1455891646	-0.5037875358	 0.4899085794	 0.088845
H	-0.0653387674	-2.6352850944	 0.6888828959	 0.088843
H	 1.8096094544	-0.3021369372	 1.1892209667	 0.084458
H	-0.6088825341	 0.7536439139	 2.7848358699	 0.084459
H	 0.2025849543	-1.5274539412	 4.5705631329	 0.119525
H	 0.4472962918	-3.0229760799	 3.6598046457	 0.120621
H	 1.4810067472	-1.6113909803	 3.3355399009	 0.095251
190.4966	200.2841	220.6149	242.3084	309.8751	361.3407	532.2067	586.6999	716.7247	743.0299	781.2549	800.6703	832.0456	835.0798	903.4584	907.7308	980.9438	1040.4866	1086.048	1100.7962	1101.9388	1141.303	1151.5763	1155.1153	1158.4089	1173.9261	1181.5164	1203.3639	1210.9297	1224.8854	1303.3755	1334.9496	1449.1413	1451.2196	1492.5812	1492.8551	1497.1106	1498.1815	2959.0601	2959.4742	3061.5005	3062.16	3098.1404	3098.1954	3098.7004	3107.453	3115.118	3129.483
CN1C2C3C1C2N3C	CN1[C@H]2[C@H]3[C@@H]1[C@@H]2N3C	
InChI=1S/C6H10N2/c1-7-3-5-4(7)6(3)8(5)2/h3-6H,1-2H3	InChI=1S/C6H10N2/c1-7-3-5-4(7)6(3)8(5)2/h3-6H,1-2H3/t3-,4+,5-,6+
