16
gdb 57831	3.12444	1.05064	0.88101	4.1223	71.19	-0.2776	-0.1313	0.1463	1321.8961	0.120728	-437.917798	-437.907795	-437.906851	-437.95378	34.005	
C	 0.2641699676	 1.5966336284	-0.1502601292	-0.404666
C	-0.0108510736	 0.0740664238	-0.1064338636	-0.07818
C	-1.508288614	-0.2402378888	-0.085609087	-0.39675
C	 0.6641561322	-0.5736136716	-1.2953556754	 0.299644
O	 0.1152820733	-0.9584295159	-2.2982499879	-0.270179
C	 2.1982607929	-0.7502170143	-1.2063773228	 0.204737
O	 2.8484572786	-0.5010829921	-0.2247360416	-0.247596
C	 2.8223300333	-1.2844583982	-2.4312885128	 0.269135
N	 3.3657219328	-1.6887358786	-3.3681694552	-0.291343
H	 1.3343913083	 1.8172951769	-0.1401708306	 0.14014
H	-0.1788943947	 2.0448770248	-1.0451646223	 0.135719
H	-0.1854111829	 2.0715936907	 0.7259274016	 0.135356
H	 0.4787157249	-0.3192203699	 0.7924158442	 0.116429
H	-1.99527071	 0.1305210167	-0.991310145	 0.138919
H	-1.6892952945	-1.3171189878	-0.0291973456	 0.128318
H	-1.9784931142	 0.2333708161	 0.7805570232	 0.120316
37.8723	53.4142	126.6095	186.9569	198.8829	212.3815	246.1652	273.5291	299.7092	346.6883	424.0835	491.6521	509.8971	652.8423	723.1711	813.7316	856.074	931.0358	947.6261	974.0925	1103.4677	1122.4421	1181.2225	1213.0344	1309.9791	1372.9596	1400.6121	1422.4317	1485.9792	1487.8381	1502.2779	1510.7086	1788.5176	1810.0339	2341.4546	3042.9204	3047.7442	3049.2441	3117.6663	3120.9392	3127.5519	3127.9373
CC(C)C(=O)C(=O)C#N	CC(C)C(=O)C(=O)C#N	
InChI=1S/C6H7NO2/c1-4(2)6(9)5(8)3-7/h4H,1-2H3	InChI=1S/C6H7NO2/c1-4(2)6(9)5(8)3-7/h4H,1-2H3
