18
gdb 84210	3.76116	1.74225	1.59021	0.9181	81.09	-0.2004	-0.0412	0.1592	898.696	0.148015	-364.66335	-364.656563	-364.655619	-364.694031	28.573	
C	-0.1261381497	 1.5705894266	-0.062307924	-0.410054
C	-0.0342588307	 0.0497135719	-0.0322586061	 0.03585
C	 0.8000952072	-0.4906636417	-1.2127357558	-0.14617
C	 1.5922815229	-1.4377450842	-0.6770262074	 0.045349
C	 2.8955209348	-1.1710158612	 0.0214796863	-0.137528
C	 2.4766383521	-1.7980690771	 1.31631154	-0.112033
C	 2.1934705769	-0.3302789295	 1.2528664502	-0.022795
N	 0.7157315281	-0.488358344	 1.180121256	-0.125285
C	 1.0457801569	-1.8705393326	 0.7223431938	-0.059292
H	 0.8633367607	 2.0231015216	-0.1900498437	 0.120527
H	-0.7606062664	 1.9061128581	-0.8877652961	 0.123167
H	-0.5512221217	 1.9372998816	 0.8762797751	 0.130181
H	-1.0415848632	-0.3750901316	 0.0667510513	 0.090942
H	 1.1165945013	 0.179919437	-2.0072844595	 0.094684
H	 3.8762903633	-0.8721917447	-0.3260890588	 0.096501
H	 2.9918095708	-2.405015338	 2.0471727351	 0.097217
H	 2.6942775257	 0.5142404595	 1.7082820809	 0.098836
H	 0.310657991	-2.6642359617	 0.8488704027	 0.079903
137.7768	218.947	274.5542	388.1778	483.8889	499.8253	526.3438	613.8434	662.2802	758.2047	769.1258	794.0483	824.6965	845.0846	850.2778	874.1738	901.4736	928.4467	965.5512	990.7132	994.229	1013.812	1061.2863	1071.227	1103.9963	1122.9635	1141.5786	1146.7759	1184.8483	1204.5373	1232.7309	1260.8465	1283.4177	1343.0065	1357.066	1400.3784	1487.958	1496.7263	1581.1897	3016.5546	3036.4719	3105.6459	3119.7484	3125.203	3156.0697	3197.1908	3200.0559	3218.1901
CC1C=C2C3C4C3N1C24	C[C@H]1[CH][C]2[C@@H]3[C@H]4[C@@H]3N1[C@@H]24	
InChI=1S/C8H9N/c1-3-2-4-5-6-7(4)9(3)8(5)6/h2-3,5-8H,1H3	InChI=1S/C8H9N/c1-3-2-4-5-6-7(4)9(3)8(5)6/h2-3,5-8H,1H3/t3-,5+,6+,7-,8+/m0/s1
