19
gdb 93571	3.6796	1.02574	0.81901	4.2154	84.77	-0.1901	-0.0039	0.1862	1395.0064	0.160253	-419.253267	-419.244028	-419.243083	-419.287406	33.846	
C	-0.0383391018	 1.4014179502	 0.0775876096	-0.330033
N	-0.0072785737	-0.0026641792	-0.2614796202	-0.046903
C	-1.1767121877	-0.8379296444	 0.0547729352	-0.162181
C	-0.6512757773	-2.2899755533	-0.0833680638	-0.364017
C	 0.8552229259	-2.0960127117	 0.0161317181	 0.129254
C	 1.1146121138	-0.7763852924	-0.1005285812	-0.042482
C	 1.9042831611	-3.1105110838	 0.1180965907	 0.295105
N	 1.4592195607	-4.4199798653	 0.1709667237	-0.54807
O	 3.0961749292	-2.8442587354	 0.1974213203	-0.388873
H	 0.9090782037	 1.8678552704	-0.2035857652	 0.137998
H	-0.8411715395	 1.9034615563	-0.4722973419	 0.129169
H	-0.2045200443	 1.5728302945	 1.1544189318	 0.115333
H	-1.5034929013	-0.6348641129	 1.0877241504	 0.101369
H	-2.0136572419	-0.6090086971	-0.6115739498	 0.112008
H	-1.066880111	-2.943546665	 0.6901105363	 0.114879
H	-0.94054229	-2.71575975	-1.0554416173	 0.106748
H	 2.0964581426	-0.3213852816	-0.1116365845	 0.143096
H	 0.550873404	-4.6568944979	-0.1929372308	 0.247024
H	 2.1788916476	-5.1180728915	 0.0646122287	 0.250576
77.4458	118.6972	152.4926	162.0978	193.6815	246.4308	331.3151	365.7308	390.0965	476.2664	498.0737	533.6453	613.6832	644.9401	761.6354	815.6877	893.5946	941.7015	960.5677	972.8136	1063.4686	1072.5947	1091.0801	1103.4704	1147.0733	1202.5205	1221.1267	1250.0374	1289.8903	1307.0937	1322.3299	1378.1664	1447.7576	1466.6197	1482.7059	1496.7675	1511.7834	1532.1321	1616.7669	1659.3245	1754.4167	2964.4738	2969.381	2990.7489	3064.0948	3065.8004	3075.598	3120.0018	3231.5026	3583.5959	3710.1547
CN1CCC(=C1)C(N)=O	CN1CCC(=C1)C(=O)N	
InChI=1S/C6H10N2O/c1-8-3-2-5(4-8)6(7)9/h4H,2-3H2,1H3,(H2,7,9)	InChI=1S/C6H10N2O/c1-8-3-2-5(4-8)6(7)9/h4H,2-3H2,1H3,(H2,7,9)
