21
gdb 40039	3.55733	1.3515	1.16018	0.218	87.82	-0.2334	0.0274	0.2608	1135.6449	0.184611	-349.943217	-349.935635	-349.934691	-349.975233	31.075	
C	 0.7109775733	 1.5531612744	-0.1249052964	-0.326323
C	 1.5770367863	 0.3319575515	 0.0951299422	-0.329231
C	 0.088505778	 0.1932289248	-0.0355203902	 0.401429
C	-0.8569789563	-0.3600483537	 1.0406523661	-0.320982
C	-1.4306892023	-1.3668167705	-0.0056691203	 0.004853
C	-2.9306904863	-1.2492334756	-0.3398190473	-0.275417
C	-2.9550978661	-0.2103274006	-1.4395441459	-0.061443
C	-1.7367316243	 0.1225503895	-1.8673891173	-0.068688
C	-0.6429142222	-0.6066583634	-1.131645961	-0.156155
H	 0.568125398	 2.2357649665	 0.7072807586	 0.107994
H	 0.7509507847	 2.0402926927	-1.0942461115	 0.107601
H	 2.1990575338	-0.0079153057	-0.7277533018	 0.107342
H	 2.0212979733	 0.1891220319	 1.0757544067	 0.107423
H	-0.3765372812	-0.8034173298	 1.9175119532	 0.095894
H	-1.6035200061	 0.3641965598	 1.3833319053	 0.097824
H	-1.1076700649	-2.3930059562	 0.1740957218	 0.066428
H	-3.3599648153	-2.2003982191	-0.6842782519	 0.100317
H	-3.5234372207	-0.9469773826	 0.5339541632	 0.100832
H	-3.8821545755	 0.1960681102	-1.8311964061	 0.088055
H	-1.5311696438	 0.8416514623	-2.6536527826	 0.087195
H	 0.0074086475	-1.1845037064	-1.798597845	 0.065051
72.9034	170.7258	241.0275	286.6262	339.3558	402.9197	477.19	511.1595	705.1458	728.806	762.3297	775.2494	790.8676	843.7434	868.2812	887.834	905.5628	929.1962	942.7336	958.6189	977.6	995.4633	1030.2397	1047.7587	1051.0746	1072.207	1077.3998	1122.6471	1141.6351	1186.7572	1193.0489	1199.1824	1236.931	1250.2271	1259.1526	1283.3183	1308.7615	1324.9199	1374.0168	1381.7097	1464.2866	1479.9444	1487.5807	1502.194	1677.5956	3006.0415	3032.7472	3033.1336	3041.1255	3085.9332	3102.9613	3115.5145	3121.537	3171.5896	3192.593	3197.3099	3208.306
C1CC11CC2CC=CC12	C1CC21C[C@H]1CC=C[C@@H]21	
InChI=1S/C9H12/c1-2-7-6-9(4-5-9)8(7)3-1/h1,3,7-8H,2,4-6H2	InChI=1S/C9H12/c1-2-7-6-9(4-5-9)8(7)3-1/h1,3,7-8H,2,4-6H2/t7-,8-/m1/s1
