21
gdb 118039	3.5639	0.74027	0.64894	2.3282	76.62	-0.2607	-0.0363	0.2244	1750.7815	0.179036	-461.374064	-461.363274	-461.362329	-461.410584	38.425	
C	-0.0880370273	 1.5861079478	 0.0575611266	-0.382402
C	-0.0454792763	 0.0564465285	 0.0189813718	-0.170199
C	 0.7178827211	-0.4869823666	-1.1938150799	-0.193994
C	 0.7181362091	-2.0126110753	-1.2753465984	 0.083963
O	-0.591318782	-2.5586515323	-1.4087636065	-0.432808
C	 1.6128868622	-2.524462932	-2.4350145771	 0.025753
O	 2.9089906546	-2.0031177392	-2.3560531262	-0.432627
C	 1.6602933414	-4.0405462819	-2.4351103764	 0.13588
O	 2.7156339823	-4.6299212794	-2.4010033763	-0.267617
H	 0.9213090195	 2.0107363009	 0.0921365719	 0.117465
H	-0.5851221601	 1.9924267974	-0.8306070737	 0.111898
H	-0.6318586263	 1.9463523434	 0.9362070476	 0.114068
H	 0.4261054087	-0.3216796965	 0.9353714662	 0.099677
H	-1.0645480147	-0.3468667483	 0.0153402371	 0.10295
H	 0.2786625093	-0.0885898699	-2.123126461	 0.079459
H	 1.7580515697	-0.1459165581	-1.1781557626	 0.130582
H	 1.1091732802	-2.424786621	-0.3365713932	 0.100043
H	-1.0500704569	-2.05808577	-2.093184595	 0.28296
H	 1.1229780054	-2.2198607502	-3.3808181653	 0.08012
H	 3.4964942404	-2.7771984722	-2.3454407155	 0.295998
H	 0.6895083696	-4.5658111451	-2.456083394	 0.118831
55.3186	78.8687	99.0254	116.0434	154.3499	230.9753	249.7265	292.828	308.2497	338.3579	351.9934	417.5886	452.5512	495.6461	549.0745	747.2971	769.554	840.0669	860.6674	896.7875	946.819	998.1601	1042.2538	1063.6622	1095.3879	1118.6824	1132.6642	1172.0487	1227.6975	1241.5606	1284.5557	1297.402	1323.2256	1349.5131	1365.8908	1380.7784	1395.0073	1406.7396	1414.9405	1441.3779	1481.42	1494.4056	1500.1602	1511.5785	1804.1596	2916.8662	2981.2017	2992.2899	3024.5944	3030.0122	3041.1851	3058.8023	3085.9666	3098.1385	3104.046	3664.3778	3795.0741
CCCC(O)C(O)C=O	CCC[C@@H](O)[C@@H](O)C=O	
InChI=1S/C6H12O3/c1-2-3-5(8)6(9)4-7/h4-6,8-9H,2-3H2,1H3	InChI=1S/C6H12O3/c1-2-3-5(8)6(9)4-7/h4-6,8-9H,2-3H2,1H3/t5-,6+/m1/s1
