22
gdb 6420	3.25821	1.22274	0.95047	2.9969	75.59	-0.2442	0.0736	0.3179	1299.6129	0.197725	-387.342146	-387.331912	-387.330968	-387.377341	36.946	
C	 0.0042085866	 1.4290832252	-0.1386488495	-0.242866
O	 0.0004528976	 0.0393751485	 0.11397635	-0.254148
C	-1.2860930561	-0.5914153839	 0.0410961155	 0.130189
C	-1.7530535902	-0.7397710056	-1.4083496222	-0.404672
C	-1.1751162628	-1.9435659357	 0.7502262323	-0.215549
C	-0.7618587869	-1.8574817466	 2.2284845318	 0.148196
C	-0.9168319673	-3.1960352224	 2.9428922501	-0.382609
O	 0.5929847381	-1.4631197732	 2.3722049965	-0.448409
H	 1.0154764881	 1.7893782198	 0.0645372879	 0.133458
H	-0.2451089369	 1.6635472379	-1.1820118986	 0.116003
H	-0.7018846021	 1.9607004878	 0.5167788176	 0.111134
H	-2.0066045976	 0.0381811789	 0.5912303085	 0.068633
H	-2.7306598051	-1.230290283	-1.4426024514	 0.119628
H	-1.8535799715	 0.2284566952	-1.9064911371	 0.116278
H	-1.040673524	-1.3469640687	-1.9755266239	 0.127279
H	-2.1512537246	-2.4374641973	 0.6753601816	 0.094463
H	-0.4493171792	-2.5725417246	 0.2189513421	 0.107203
H	-1.4252603136	-1.1224330019	 2.7231517224	 0.048641
H	-0.3252630749	-3.9679923943	 2.4398421167	 0.116575
H	-0.5560591593	-3.1111265136	 3.9715781167	 0.121754
H	-1.9639415594	-3.5140570979	 2.9654043226	 0.102251
H	 0.7411146309	-0.7705056045	 1.7138687503	 0.286569
53.1454	81.5958	138.1363	163.7479	199.9397	232.4299	253.1266	276.6335	325.687	336.9194	428.181	463.8115	503.8073	549.5873	554.3637	801.1365	853.5385	892.4959	926.5197	968.8206	1010.9701	1050.4231	1080.3699	1109.9428	1143.1189	1159.3356	1182.3205	1189.7814	1212.1611	1271.302	1301.8139	1333.6301	1378.0095	1383.6291	1388.4743	1404.4861	1405.4877	1455.7988	1464.2599	1479.8168	1483.257	1488.207	1493.1118	1500.9122	1506.1369	1513.0069	2912.7998	2956.024	2989.684	3026.2652	3037.5142	3041.3005	3048.8293	3073.5976	3109.2082	3113.9379	3116.5586	3118.2513	3118.666	3735.0832
COC(C)CC(C)O	CO[C@@H](C)C[C@@H](C)O	
InChI=1S/C6H14O2/c1-5(7)4-6(2)8-3/h5-7H,4H2,1-3H3	InChI=1S/C6H14O2/c1-5(7)4-6(2)8-3/h5-7H,4H2,1-3H3/t5-,6+/m1/s1
