17
gdb 97320	4.68093	0.8039	0.68907	2.7009	79.16	-0.2381	-0.0401	0.198	1603.9239	0.135311	-451.366827	-451.356961	-451.356017	-451.402246	34.544	
C	 0.0352073497	 1.6017343221	 0.2483576998	-0.310011
N	-0.11599963	 0.1885522794	-0.0186673187	-0.167626
C	 0.5010629018	-0.6102291722	 0.73858511	 0.099078
N	 0.4696393246	-1.9954418357	 0.6259862519	-0.363662
C	-0.2022160713	-2.7786373158	-0.2728056972	 0.428786
O	-0.923914865	-2.4166211774	-1.177466162	-0.353683
C	 0.0514437268	-4.2692723754	-0.0145882376	 0.284765
N	-0.574545103	-5.0353710576	-0.9381789136	-0.531318
N	 0.792412607	-4.5995697446	 0.978076953	-0.550978
H	 0.6906633528	 1.8291434344	 1.1061585793	 0.093062
H	 0.4408121079	 2.099863453	-0.6397568692	 0.130997
H	-0.9492995389	 2.0450667018	 0.4370773023	 0.130909
H	 1.1384482468	-0.2933344658	 1.5778421663	 0.086336
H	 1.0009034511	-2.5477299019	 1.2921653902	 0.275145
H	-1.1765398813	-4.5541600039	-1.5894904306	 0.279722
H	-0.6172152638	-6.035031104	-0.8547289308	 0.257878
H	 0.9042660447	-5.6090425864	 1.071673397	 0.210599
61.9457	81.406	113.4218	121.9758	203.0607	214.3942	265.2468	336.7724	345.2256	373.8177	486.423	530.314	566.027	592.4513	719.8847	746.639	821.3832	851.598	884.328	978.5156	1066.2692	1076.5323	1119.6501	1139.7648	1140.0276	1168.0676	1246.8367	1414.6043	1429.3466	1445.2409	1478.1632	1502.4886	1561.4824	1595.063	1726.9749	1758.1356	1815.0248	2959.806	2999.6454	3058.3196	3078.1374	3473.8607	3526.0982	3585.982	3734.1688
CN=CNC(=O)C(N)=N	CN=CNC(=O)C(=N)N	
InChI=1S/C4H8N4O/c1-7-2-8-4(9)3(5)6/h2H,1H3,(H3,5,6)(H,7,8,9)	InChI=1S/C4H8N4O/c1-7-2-8-4(9)3(5)6/h2H,1H3,(H3,5,6)(H,7,8,9)
