16
gdb 79304	4.01775	1.22564	1.13336	3.7781	74.72	-0.2594	0.004	0.2634	1095.3412	0.124598	-400.698504	-400.69104	-400.690096	-400.730455	28.653	
C	 0.0584204851	 1.6037513278	 0.0071752562	-0.426087
C	 0.0728131608	 0.0842732921	-0.0015726687	 0.02036
C	 0.7701931192	-0.6767472975	-1.1389985109	-0.18311
C	 2.2229010678	-0.806987912	-0.6866438933	 0.034956
O	 2.3739958983	-0.1243625888	 0.5498997333	-0.276569
C	 1.0761138014	-0.6613441107	 0.9266973483	-0.013001
C	 1.2064175129	-1.7929956344	-0.1726382872	 0.245559
C	 1.0814637897	-3.1983318041	-0.1977933429	 0.117969
N	 0.9727697105	-4.3517554398	-0.208508627	-0.361635
H	 1.0741835053	 1.9982210473	-0.0685788038	 0.138698
H	-0.5289948043	 1.9915121071	-0.8314076597	 0.121615
H	-0.39078351	 1.9840101551	 0.93091927	 0.121733
H	-0.9263408007	-0.33660806	 0.1477285473	 0.095322
H	 0.4642138159	-0.8004819266	-2.1697225445	 0.117536
H	 3.0809470707	-0.9434406027	-1.3301883307	 0.137165
H	 0.9463965175	-0.7802152928	 1.9993040637	 0.109487
114.4554	146.1464	198.6217	251.3849	286.5353	460.2364	493.8947	530.6981	607.8754	628.0937	716.927	753.3901	808.7726	870.6427	900.0453	911.33	936.1608	1002.6459	1017.455	1031.4623	1042.1701	1084.9595	1106.7587	1128.5598	1157.9521	1209.2235	1227.371	1262.9381	1320.671	1376.3054	1406.6212	1425.6791	1490.3674	1501.2349	2340.9048	3038.9299	3068.6714	3101.0362	3131.9731	3164.8346	3209.8749	3228.2218
CC1C2C3OC1C23C#N	C[C@H]1[C@H]2[C@H]3O[C@@H]1[C@@]23C#N	
InChI=1S/C7H7NO/c1-3-4-6-7(4,2-8)5(3)9-6/h3-6H,1H3	InChI=1S/C7H7NO/c1-3-4-6-7(4,2-8)5(3)9-6/h3-6H,1H3/t3-,4-,5-,6+,7+/m0/s1
