19
gdb 95192	2.62671	1.69189	1.1267	3.2531	76.59	-0.23	0.019	0.249	1093.9534	0.161278	-419.214236	-419.205995	-419.20505	-419.247227	30.992	
C	-0.0579901878	 1.4458925177	-0.0392490266	-0.34813
N	 0.0067285447	-0.0041999753	-0.0963748846	-0.103876
C	-1.228406603	-0.7588287873	 0.1046654249	-0.160208
C	-1.1893633084	-2.0706295425	-0.6674854566	-0.161518
N	-0.0400161052	-2.8923515461	-0.2556506621	-0.102743
C	 1.0766356897	-2.9545695194	-1.1964814495	-0.239293
C	 1.1803825071	-2.1316283037	 0.0396206749	-0.124553
C	 1.2269168672	-0.6255988473	-0.0378039452	 0.404944
O	 2.2912731859	-0.0312803086	-0.0209365909	-0.393548
H	 0.9476706079	 1.8352224775	-0.1921133134	 0.170501
H	-0.7269410848	 1.8291651527	-0.8179187059	 0.120933
H	-0.4287108679	 1.7907313615	 0.9353003945	 0.123132
H	-1.4032380043	-0.9490941871	 1.1743621237	 0.118047
H	-2.0629698161	-0.1482395646	-0.2541578995	 0.115378
H	-2.1062751449	-2.6392336374	-0.4777159877	 0.113862
H	-1.1570352136	-1.845378048	-1.7423317768	 0.103906
H	 1.5966947703	-3.9064045485	-1.2554710276	 0.123381
H	 0.975984306	-2.4281246101	-2.1439262484	 0.119779
H	 1.7748821171	-2.5140902436	 0.8654402667	 0.120006
77.2006	127.8087	149.3753	242.2632	263.7714	345.3912	394.0129	428.2696	477.6531	518.7284	659.7442	700.0611	743.1314	768.6631	888.1476	914.1128	958.5771	985.1122	1044.2412	1053.7589	1091.6722	1110.9694	1115.8771	1151.5978	1160.1174	1179.4213	1247.2634	1263.3081	1292.8557	1303.8453	1351.8694	1378.9347	1391.6884	1428.1245	1460.1562	1493.5737	1499.5083	1500.5359	1517.0402	1531.9985	1767.4661	2992.6138	3008.5793	3013.2729	3063.6537	3067.8049	3075.6732	3098.4021	3141.7573	3165.2655	3188.1823
CN1CCN2CC2C1=O	CN1CCN2C[C@H]2C1=O	
InChI=1S/C6H10N2O/c1-7-2-3-8-4-5(8)6(7)9/h5H,2-4H2,1H3	InChI=1S/C6H10N2O/c1-7-2-3-8-4-5(8)6(7)9/h5H,2-4H2,1H3/t5-,8?/m0/s1
