17
gdb 106614	2.58346	1.58325	1.30279	3.5654	67.84	-0.2486	-0.0186	0.23	1023.1318	0.135929	-458.948525	-458.94056	-458.939616	-458.981046	30.286	
O	 0.0909689219	 1.3959455033	 0.13709126	-0.411868
C	 0.0593450661	-0.0063627081	-0.0143474885	-0.168399
C	-1.346851262	-0.5315309678	-0.0853098978	 0.253211
C	-1.6609236312	-2.040470036	-0.1197440997	-0.278438
C	-3.2117213504	-1.9642455612	 0.1085716575	-0.232756
C	-3.3495955546	-0.4330618492	 0.2044703681	-0.041593
O	-2.1975703586	-0.0684443848	 1.0337073677	-0.34088
C	-2.4794227271	 0.0510704919	-0.9770982641	 0.416949
O	-2.5934945502	 0.6937080059	-1.9703230423	-0.30427
H	-0.5375331012	 1.6115210069	 0.8361112094	 0.293917
H	 0.5809018429	-0.2458815959	-0.9473577437	 0.127329
H	 0.5924129077	-0.5200916433	 0.8036861141	 0.099205
H	-1.3858874209	-2.5030668747	-1.0712409072	 0.11998
H	-1.1456994183	-2.5663835515	 0.6873696203	 0.119228
H	-3.7937929283	-2.3881186342	-0.713845834	 0.120513
H	-3.5179154945	-2.4443005662	 1.0399334368	 0.121694
H	-4.2897373712	 0.0212027849	 0.5096713736	 0.106178
101.3193	150.8136	165.3437	227.2978	258.3921	383.4061	418.7847	471.989	486.6617	645.6705	664.3282	733.1471	756.7316	819.7624	847.4617	890.6231	906.9277	952.0413	985.3839	1014.9238	1044.9557	1074.0211	1096.2432	1150.8811	1179.884	1214.0146	1247.2876	1253.9326	1278.1003	1309.7002	1355.0058	1376.4905	1440.3253	1477.1835	1489.7121	1497.7522	1928.3033	2964.9405	3064.3843	3073.7428	3075.1771	3110.6277	3128.1742	3156.1385	3797.8007
OCC12CCC(O1)C2=O	OC[C@@]12CC[C@@H](O1)C2=O	
InChI=1S/C6H8O3/c7-3-6-2-1-4(9-6)5(6)8/h4,7H,1-3H2	InChI=1S/C6H8O3/c7-3-6-2-1-4(9-6)5(6)8/h4,7H,1-3H2/t4-,6-/m1/s1
