16
gdb 93458	2.9191	1.4245	0.99321	1.9189	67.05	-0.2651	-0.034	0.2312	1138.3113	0.124694	-475.095958	-475.087829	-475.086885	-475.129005	29.994	
C	-0.0352081558	 1.5423755713	-0.0625192302	-0.40029
C	 0.0492674478	 0.0264928516	-0.0000606496	-0.001742
O	 0.7224192765	-0.4374768623	-1.1595059378	-0.2468
C	 0.8320494899	-1.8399432636	-1.2149593075	-0.200866
C	 1.5442214466	-2.4292159121	-0.003958399	 0.397663
O	 2.1015379631	-3.4995815223	-0.0035191788	-0.329162
N	 1.477170258	-1.6283464869	 1.1306262785	-0.370182
C	 0.7586634974	-0.4453579901	 1.2751613452	 0.419516
O	 0.6935366526	 0.1272423844	 2.3365075015	-0.336134
H	 0.9660362489	 1.9710807422	-0.1551979997	 0.137692
H	-0.6287862682	 1.8458687157	-0.9273574835	 0.128426
H	-0.4945341932	 1.9235763556	 0.8504871357	 0.149091
H	-0.9687816623	-0.4043431297	 0.0358413055	 0.103483
H	-0.1571520271	-2.3237374938	-1.294763514	 0.12653
H	 1.4067634106	-2.0969740131	-2.1062707851	 0.154703
H	 1.9394865752	-1.9788974768	 1.9623331788	 0.268071
66.9647	128.6126	199.5086	226.7175	278.4841	369.0025	381.6872	435.1124	489.3319	536.8551	577.5228	654.1211	723.1913	743.617	819.8093	886.4062	903.785	1027.4964	1049.4375	1108.6885	1147.8895	1160.5541	1244.2622	1283.6302	1333.3393	1347.4033	1370.7481	1380.4419	1404.5238	1407.48	1468.009	1482.8469	1497.1018	1816.2425	1833.018	2936.4026	2965.1618	3061.2741	3126.3363	3136.4025	3156.021	3568.8481
CC1OCC(=O)NC1=O	C[C@H]1OCC(=O)NC1=O	
InChI=1S/C5H7NO3/c1-3-5(8)6-4(7)2-9-3/h3H,2H2,1H3,(H,6,7,8)	InChI=1S/C5H7NO3/c1-3-5(8)6-4(7)2-9-3/h3H,2H2,1H3,(H,6,7,8)/t3-/m1/s1
