19
gdb 79392	2.16818	1.72212	1.5313	1.6585	75.31	-0.2418	0.0554	0.2972	1005.5088	0.157549	-422.953116	-422.944323	-422.943379	-422.986005	33.88	
C	-0.0151650481	 1.4936048091	-0.0524128837	-0.532707
C	 0.0279792534	-0.0132010186	-0.0435506802	 0.26277
C	 0.5905081084	-0.9200022546	-1.1615908643	-0.315791
C	 0.0877518044	-1.9156218227	-0.1025965613	-0.082626
C	 0.5384855057	-0.9937377704	 1.0850317384	-0.155575
C	-0.8437635145	-1.1238219367	 1.7568345746	 0.058048
O	-1.3290953638	-0.1424475096	 2.6440377513	-0.451189
C	-1.1538188659	-1.0454837101	 0.2487559111	 0.33349
O	-2.3655065019	-1.1386563944	-0.4046594352	-0.477654
H	 0.9927119241	 1.9190671071	-0.1167369675	 0.127118
H	-0.5802043776	 1.852483401	-0.9204316345	 0.130622
H	-0.4949307531	 1.9170103985	 0.8375320945	 0.102349
H	 0.0542801756	-0.9083643052	-2.1152439852	 0.10236
H	 1.6724863122	-0.8799690428	-1.3265443738	 0.087382
H	 0.1192948401	-3.0050843819	-0.0970289161	 0.076028
H	 1.528362795	-0.9876676773	 1.5383130924	 0.076884
H	-1.055740743	-2.092150693	 2.2231438975	 0.084251
H	-0.9191316706	 0.6992055628	 2.4250335574	 0.283689
H	-2.9882136003	-0.5556207413	 0.0442123646	 0.290551
112.4612	169.5922	184.3061	191.5015	248.1534	276.2338	308.6976	332.6452	432.1325	517.7868	540.1884	645.9334	661.2779	731.298	798.9485	854.5177	865.5648	919.8047	942.5809	953.7995	971.1539	1015.7626	1055.0898	1074.1132	1089.2375	1136.7369	1150.5211	1155.8017	1189.5231	1219.3815	1228.1047	1264.6486	1272.5064	1317.6466	1324.6933	1384.4039	1411.4716	1449.3087	1477.2996	1496.5832	1510.1269	3021.2047	3038.383	3058.4071	3081.8475	3088.0474	3097.2977	3116.0842	3135.25	3801.1101	3836.8001
CC12CC3C1C(O)C23O	C[C@@]12C[C@H]3[C@@H]1[C@@H](O)[C@@]23O	
InChI=1S/C7H10O2/c1-6-2-3-4(6)5(8)7(3,6)9/h3-5,8-9H,2H2,1H3	InChI=1S/C7H10O2/c1-6-2-3-4(6)5(8)7(3,6)9/h3-5,8-9H,2H2,1H3/t3-,4+,5+,6+,7+/m0/s1
