17
gdb 20256	3.57726	3.04313	2.39031	1.5607	69.37	-0.2191	0.0856	0.3047	665.1909	0.146413	-326.672284	-326.667101	-326.666157	-326.701129	22.737	
C	-0.034230004	 1.5746926962	 0.0195997403	-0.244686
C	 1.5126900624	 1.5039834274	 0.0127682821	-0.003308
C	 2.0607290696	 1.4799995041	 1.4472832952	-0.239583
C	 1.769343487	 0.0508088203	 1.8686956861	-0.048051
C	 0.5095181477	-0.6395480624	 1.3482598808	-0.114689
C	 1.858574007	-0.8337272229	 0.6703129555	-0.029142
N	 1.4400272048	 0.0397498181	-0.4683095667	-0.150856
C	 0.0194961124	 0.0399367528	 0.0639653113	 0.022107
H	-0.5081634676	 2.1054337201	 0.848732051	 0.095765
H	-0.4446193109	 1.9324817037	-0.9276651911	 0.105923
H	 2.0537753824	 2.167154375	-0.6637205663	 0.073768
H	 3.1418504124	 1.6608140703	 1.4768875737	 0.099
H	 1.578659174	 2.2385071507	 2.0728373546	 0.100796
H	 2.1390583884	-0.3245775237	 2.8170656255	 0.086279
H	-0.0534219026	-1.3215951429	 1.9748235478	 0.08469
H	 2.4998777245	-1.6955859542	 0.5328023256	 0.090013
H	-0.7114181374	-0.5446863927	-0.5018984456	 0.071974
277.5545	399.553	471.2251	640.8797	678.8392	700.9847	740.8867	771.0372	821.3882	846.1663	876.0003	905.4648	941.3491	952.457	962.1169	985.0798	1000.834	1026.6036	1043.6362	1059.4525	1068.3405	1088.8324	1099.0265	1138.3444	1169.4571	1205.648	1227.7069	1251.2319	1265.841	1290.8402	1310.5865	1340.1022	1352.3287	1402.7712	1480.0744	1499.0731	3031.3041	3056.7857	3066.3186	3076.1523	3094.9118	3118.2523	3169.2577	3173.4654	3189.5074
C1C2CC3C4C3N2C14	C1[C@H]2C[C@H]3[C@@H]4[C@H]3N2[C@H]14	
InChI=1S/C7H9N/c1-3-2-5-6-4(1)7(6)8(3)5/h3-7H,1-2H2	InChI=1S/C7H9N/c1-3-2-5-6-4(1)7(6)8(3)5/h3-7H,1-2H2/t3-,4+,5-,6+,7+/m1/s1
