18
gdb 65870	2.59126	1.3166	1.18427	3.6159	73.42	-0.2612	-0.0373	0.2239	1131.5354	0.146836	-439.119412	-439.110645	-439.1097	-439.153334	32.165	
C	-0.1603714281	 1.6874510031	 0.2363381718	-0.462937
C	 0.0948087555	 0.1765129648	 0.1261533875	 0.154038
C	 0.8930277018	-0.2253501662	-1.1244886491	-0.114464
O	 1.6310463702	-1.4027385357	-0.7666181322	-0.235775
C	 1.7238751154	-1.5294923831	 0.5900264325	 0.41493
N	 2.3361525562	-2.4541209517	 1.1905907304	-0.540504
C	 0.9783829642	-0.3914673433	 1.2558339497	-0.353931
C	-1.26683703	-0.5204558013	 0.1516912857	 0.144822
O	-1.7719826871	-1.0995470452	-0.7720305749	-0.242547
H	 0.7880598808	 2.2274872581	 0.3150433128	 0.13215
H	-0.6989655655	 2.0626716821	-0.6397836747	 0.137574
H	-0.7565969876	 1.9253774544	 1.1234775354	 0.13185
H	 0.2418158725	-0.4760907646	-1.9635355652	 0.143054
H	 1.5944636071	 0.563339966	-1.4218972068	 0.105561
H	 2.7709016568	-3.0909773294	 0.5205692063	 0.225167
H	 1.6946333585	 0.3614568211	 1.6033020526	 0.133794
H	 0.4264975084	-0.7423722148	 2.1310768746	 0.139142
H	-1.7924766491	-0.4273911044	 1.1306357837	 0.088076
56.8188	95.3604	137.0362	214.8987	275.6578	294.269	319.1233	363.497	455.6593	513.2357	550.7252	621.0235	689.8581	836.6601	855.7207	887.2151	894.8202	926.5288	956.1044	1003.5949	1008.8258	1024.5535	1110.9751	1131.6157	1167.5908	1205.6093	1237.243	1276.6047	1304.2343	1317.9282	1398.4763	1404.7894	1425.7727	1472.3404	1492.5106	1497.9394	1510.7737	1781.1527	1836.1691	2864.6653	3031.3654	3035.5224	3050.6386	3104.3616	3107.1811	3109.9847	3122.928	3473.8426
CC1(COC(=N)C1)C=O	C[C@]1(CO[C]([NH])C1)C=O	
InChI=1S/C6H9NO2/c1-6(3-8)2-5(7)9-4-6/h3,7H,2,4H2,1H3	InChI=1S/C6H9NO2/c1-6(3-8)2-5(7)9-4-6/h3,7H,2,4H2,1H3/t6-/m1/s1
