15
gdb 77494	2.03281	1.92647	1.2178	1.4994	61.37	-0.2368	-0.0088	0.228	1004.9643	0.109465	-494.847991	-494.838915	-494.837971	-494.881764	32.829	
O	 0.0416755676	 1.4645893316	 0.2128393459	-0.432382
C	 0.0009722428	 0.068744049	 0.1389877306	 0.041415
C	-0.0633666391	-0.661579509	 1.5284758854	 0.263422
O	 0.8849882244	-0.6880528937	 2.5137263003	-0.463496
C	-1.5436830945	-0.1419537237	 1.643836868	-0.362449
C	-1.4084243663	-0.6251526752	 0.1379713869	 0.223935
O	-2.2981891522	-0.5143935702	-0.8979744879	-0.46671
C	-0.6776455915	-1.8253907213	 0.7439549513	 0.296384
O	-0.6255818173	-3.0195643711	 0.7051848826	-0.339976
H	-0.2804943134	 1.8155247143	-0.6244765807	 0.297621
H	 0.7243278101	-0.3266383395	-0.5844751773	 0.086966
H	 1.2061207251	-1.5937981414	 2.5973282966	 0.303785
H	-2.2179048935	-0.6992029639	 2.2953199781	 0.109246
H	-1.6266256837	 0.9361297314	 1.7519686728	 0.140144
H	-2.9809444984	-1.1874447773	-0.7997961026	 0.302094
75.0631	121.604	164.2408	199.7629	222.4843	267.1694	293.3686	312.5984	376.9694	460.813	558.8608	602.426	626.1825	677.3881	736.1201	775.9496	842.4362	867.9265	979.5512	1033.0209	1070.0655	1080.4347	1115.9186	1126.4603	1164.9108	1261.1712	1314.8537	1330.8871	1376.7515	1408.8757	1458.024	1521.8972	1908.9978	3033.0725	3092.0516	3189.2656	3789.2463	3805.3589	3807.5817	75.0606	121.6055	164.2405	199.7629	222.4836	267.1698	293.3687	312.5949	376.9692	460.813	558.8609	602.4261	626.1824	677.3883	736.1201	775.9494	842.4362	867.9263	979.551	1033.0207	1070.0652	1080.4342	1115.9183	1126.4603	1164.91	1261.1713	1314.8535	1330.8872	1376.7513	1408.8758	1458.0235	1521.8967	1908.9973	3033.0724	3092.0516	3189.2657	3789.246	3805.3593	3807.5807
OC1C2(O)CC1(O)C2=O	O[C@H]1[C@@]2(O)C[C@]1(O)C2=O	
InChI=1S/C5H6O4/c6-2-4(8)1-5(2,9)3(4)7/h2,6,8-9H,1H2	InChI=1S/C5H6O4/c6-2-4(8)1-5(2,9)3(4)7/h2,6,8-9H,1H2/t2-,4-,5+
