19
gdb 104598	2.27582	1.23389	1.0285	3.1328	71.89	-0.2425	0.0509	0.2934	1252.3175	0.158616	-456.363454	-456.353473	-456.352529	-456.398818	36.453	
N	-2.124184926	 0.8639618465	-1.679526029	-0.567114
C	-2.1352689483	-0.5041990222	-1.4190453777	 0.427221
O	-2.5755228223	-1.320198139	-2.2059384287	-0.385888
N	-1.574275262	-0.8373412512	-0.20007942	-0.399469
C	-1.317107407	-2.2127368654	 0.1439066457	 0.360824
C	-0.2175833971	-2.8842739119	-0.6593360554	-0.145874
O	 1.0185015953	-2.1838182899	-0.5652390008	-0.426739
C	-1.4811763339	-2.5537418857	 1.6034416575	-0.321016
C	-2.4909483506	-3.038447818	 0.5926538166	-0.275521
H	-2.7221834784	 1.1064040239	-2.4554779725	 0.26055
H	-2.214207917	 1.486224719	-0.8896278477	 0.247872
H	-0.9509364165	-0.1619087841	 0.2169416581	 0.241752
H	-0.0398599576	-3.890061061	-0.2638095306	 0.101465
H	-0.5430342235	-2.9806498593	-1.7022191557	 0.123891
H	 0.9960575238	-1.4729283082	-1.211955631	 0.285846
H	-0.786097671	-3.2672694516	 2.0317288863	 0.120194
H	-1.7830030642	-1.757187317	 2.2742863058	 0.110238
H	-3.4635824075	-2.5633893092	 0.5728804196	 0.123666
H	-2.4965218161	-4.0895440057	 0.3256652396	 0.118102
60.0629	65.5047	115.8521	158.7742	189.8154	222.3093	309.6768	347.733	392.6377	410.8172	437.1429	498.0788	541.284	583.6069	660.4351	771.4192	784.0735	794.1997	891.3286	922.6545	940.2314	1002.9097	1028.5675	1044.8264	1060.4494	1069.7687	1083.6133	1116.3619	1186.2216	1203.2197	1311.9146	1323.3598	1353.8051	1392.5229	1409.0499	1460.5247	1492.7081	1501.4683	1515.956	1625.5106	1802.91	3030.1063	3082.128	3136.6808	3145.2881	3220.3374	3237.4362	3568.4424	3603.5214	3681.8167	3835.4651
NC(=O)NC1(CO)CC1	NC(=O)NC1(CO)CC1	
InChI=1S/C5H10N2O2/c6-4(9)7-5(3-8)1-2-5/h8H,1-3H2,(H3,6,7,9)	InChI=1S/C5H10N2O2/c6-4(9)7-5(3-8)1-2-5/h8H,1-3H2,(H3,6,7,9)
