19
gdb 62697	3.17011	1.62953	1.38053	1.5568	81.79	-0.215	-0.035	0.18	992.2592	0.158643	-385.79306	-385.785395	-385.784451	-385.824457	31.841	
C	 0.230877326	 1.4893352691	 0.2941836671	-0.432287
C	-0.0039560394	 0.0012987184	 0.1268724625	 0.385001
O	-1.3997730659	-0.1694829717	 0.0790096767	-0.465864
C	 0.6712287362	-0.791092429	-1.0817280488	-0.111926
C	 2.0743466913	-1.4854197697	-0.9045220331	-0.056245
C	 3.0715472897	-1.114735011	 0.2085957559	-0.266449
C	 2.083028034	-0.6394275865	 1.2663366169	-0.096725
C	 0.8312066409	-1.0294957334	 0.9437598075	-0.044694
C	 0.8579728621	-2.0204412953	-0.2381114325	-0.139775
H	 1.2811127174	 1.7465458093	 0.149379544	 0.116683
H	-0.3719926612	 2.0279487864	-0.4426389224	 0.127103
H	-0.0833574796	 1.8209690151	 1.2884911764	 0.128204
H	-1.5807932635	-1.1157031337	 0.050836747	 0.28028
H	 0.2420159713	-0.7500275412	-2.0813291833	 0.090018
H	 2.4403805333	-1.9373466365	-1.8254937034	 0.079994
H	 3.6989651417	-1.9825795097	 0.4565636338	 0.110416
H	 3.7520509186	-0.290314376	-0.0385475645	 0.108883
H	 2.2851762231	 0.268561424	 1.8262134182	 0.100529
H	 0.4119871539	-3.0040371587	-0.3074083579	 0.086855
159.8201	211.1106	227.1451	332.9401	353.2922	382.9061	403.5542	444.5494	507.1917	614.1105	683.7556	719.8786	750.9716	785.5298	809.2792	842.0526	862.9926	897.8818	939.5695	946.322	966.5113	988.5251	993.7631	1059.8074	1062.1585	1084.135	1109.0321	1130.5492	1169.7298	1191.1801	1217.6217	1253.5701	1272.1952	1296.0217	1368.2223	1373.928	1422.6089	1475.4307	1482.2128	1493.2363	1574.9563	3003.6147	3047.5235	3049.0539	3114.5088	3121.9817	3130.5223	3142.199	3172.3777	3192.5411	3801.6646
CC1(O)C2C3CC=C1C23	C[C@@]1(O)[C@H]2[C@H]3C[CH][C]1[C@@H]23	
InChI=1S/C8H10O/c1-8(9)5-3-2-4-6(5)7(4)8/h3-4,6-7,9H,2H2,1H3	InChI=1S/C8H10O/c1-8(9)5-3-2-4-6(5)7(4)8/h3-4,6-7,9H,2H2,1H3/t4-,6-,7-,8-/m0/s1
