22
gdb 6938	4.5736	0.97436	0.91632	1.038	80.31	-0.2479	0.0858	0.3337	1387.0003	0.197918	-350.187989	-350.178066	-350.177122	-350.222749	35.838	
C	 0.0467407704	 1.3511297138	 0.2371615579	-0.223328
O	-0.0325833192	-0.0509459397	 0.2931703917	-0.229057
C	-1.2564034656	-0.5500331897	-0.2132603036	-0.083896
C	-1.2168206999	-2.053387772	-0.1522955875	-0.039083
C	-1.5839003231	-2.7923926884	 1.1145179519	-0.319112
C	-2.4553112433	-2.9278666807	-0.1128871743	 0.334857
C	-3.8442742051	-2.3137397707	-0.0959651436	-0.454846
C	-2.3860030092	-4.2354249039	-0.8818742528	-0.446081
H	 1.0207969972	 1.6418701747	 0.6387315772	 0.124759
H	-0.0378281942	 1.7277559425	-0.795477083	 0.099802
H	-0.7418269215	 1.8328131742	 0.8385351598	 0.099214
H	-2.0981089318	-0.1465192868	 0.3726940989	 0.079972
H	-1.3978512195	-0.2069170686	-1.2537855646	 0.081636
H	-0.3807480332	-2.4648589245	-0.7125391548	 0.084644
H	-0.9712347857	-3.6348942066	 1.4180524562	 0.105804
H	-1.9620367285	-2.1997095668	 1.9421081234	 0.105811
H	-3.8932288504	-1.4028720456	 0.5056754206	 0.114678
H	-4.1839492176	-2.0661558637	-1.1090125042	 0.112698
H	-4.5662428036	-3.0227801853	 0.3262817157	 0.114278
H	-3.0693179563	-4.9786391542	-0.4535745148	 0.112211
H	-2.6683991792	-4.0933633549	-1.932053582	 0.112155
H	-1.3773646008	-4.6593826831	-0.8619553281	 0.112884
61.1213	91.6802	121.0033	196.4605	209.2773	233.1028	238.9926	294.9209	320.2271	362.1946	401.4731	475.5655	498.0286	696.0414	848.6604	882.7912	911.892	919.543	969.8046	982.6164	1010.7339	1037.0394	1058.1374	1089.9493	1138.9788	1146.0516	1160.873	1179.7281	1195.3002	1227.2371	1263.7695	1294.2521	1331.4585	1390.441	1412.2014	1425.0588	1445.3134	1480.4542	1481.2314	1485.1162	1491.2881	1494.1242	1500.7445	1503.7873	1516.7477	1526.8987	2941.6289	2962.8152	2982.0721	3002.159	3018.0043	3024.2072	3075.1909	3078.6424	3099.4718	3110.0626	3112.0168	3123.5873	3137.0172	3206.6711
COCC1CC1(C)C	COC[C@H]1CC1(C)C	
InChI=1S/C7H14O/c1-7(2)4-6(7)5-8-3/h6H,4-5H2,1-3H3	InChI=1S/C7H14O/c1-7(2)4-6(7)5-8-3/h6H,4-5H2,1-3H3/t6-/m1/s1
