18
gdb 92280	2.70832	1.65889	1.55763	1.1019	70.07	-0.2594	0.0162	0.2756	954.6575	0.150248	-439.120517	-439.113169	-439.112224	-439.152518	28.49	
C	 0.6839999693	 1.2939985218	 0.2558032873	-0.397155
C	-0.0116823141	-0.0165367508	-0.1040284328	 0.113773
C	 0.5794403103	-0.7509981836	-1.3227476156	-0.245251
C	 1.5581049175	-1.7682479308	-0.7107110567	-0.053847
N	 2.9420300433	-1.2760268599	-0.5992241937	-0.269991
C	 3.1985726769	-1.2508933504	 0.6435195399	 0.11083
O	 2.2590044148	-1.6298431919	 1.5389033712	-0.227606
C	 1.0636779806	-1.9105858706	 0.7552768333	 0.192361
O	 0.0657777501	-0.9753907206	 0.9768549469	-0.257057
H	 1.7690630248	 1.1749978725	 0.3051378242	 0.133209
H	 0.4627149273	 2.0527118003	-0.5024707445	 0.115518
H	 0.3247095359	 1.6584264305	 1.2219940471	 0.127228
H	-1.0811691152	 0.1735429126	-0.2379001964	 0.087545
H	-0.2098275571	-1.2766165978	-1.8672720594	 0.108667
H	 1.0889386825	-0.0810226093	-2.0171347829	 0.125521
H	 1.5608632835	-2.7112394052	-1.2625846525	 0.094905
H	 4.1417981092	-0.9414909811	 1.0814597672	 0.141394
H	 0.7106822605	-2.8882840259	 1.0875374973	 0.099955
89.964	114.6481	236.1532	305.5286	349.3561	405.5007	465.3373	563.1945	595.1686	745.0525	782.4906	838.2029	851.2067	869.8057	882.2668	925.7364	947.6643	964.6731	987.212	1051.66	1056.2457	1079.0213	1114.1085	1132.7378	1175.4098	1225.741	1259.2201	1294.7637	1308.5632	1333.107	1341.8826	1366.0185	1390.9487	1397.3421	1410.3072	1484.4118	1491.5219	1497.3891	1693.5211	3042.373	3052.4273	3067.0896	3080.2755	3103.8824	3112.328	3128.2409	3133.3292	3208.3064
CC1CC2N=COC2O1	C[C@H]1C[C@H]2N=CO[C@H]2O1	
InChI=1S/C6H9NO2/c1-4-2-5-6(9-4)8-3-7-5/h3-6H,2H2,1H3	InChI=1S/C6H9NO2/c1-4-2-5-6(9-4)8-3-7-5/h3-6H,2H2,1H3/t4-,5+,6-/m0/s1
