17
gdb 71377	2.6936	1.79978	1.28888	5.3898	72.78	-0.2345	0.0092	0.2436	993.2312	0.135383	-417.954145	-417.945892	-417.944948	-417.986579	31.726	
C	 0.0046528871	 1.4677974939	 0.0174885073	-0.519109
C	-0.0195265622	-0.0315541266	-0.0232081681	 0.281498
C	-1.2161330565	-0.9606603372	-0.226627882	-0.237831
N	-0.3675992971	-2.0974079485	 0.3221292657	-0.219721
C	 0.5529568154	-1.039230679	 0.9116353812	-0.137102
C	 1.2063362948	-0.8676840291	-0.5020282816	 0.149003
N	 2.3978247078	-0.298623273	-0.9781861956	-0.628514
C	 0.640374652	-2.2189801719	-0.7884359889	 0.393077
O	 0.917621084	-3.1623130781	-1.457754915	-0.315008
H	 0.9597049919	 1.8494419969	 0.3935203038	 0.122637
H	-0.1673586182	 1.8971531718	-0.975668361	 0.136649
H	-0.7787569818	 1.8410527988	 0.6853098119	 0.136671
H	-2.0398087708	-0.7434994769	 0.459567805	 0.114633
H	-1.5995523131	-1.1310874223	-1.2391127953	 0.116007
H	 1.0120004484	-1.0586655275	 1.8886005405	 0.115887
H	 2.4248626906	 0.7106569169	-0.9438218583	 0.241547
H	 3.2347525176	-0.6867214183	-0.5631497396	 0.249676
102.1767	170.0083	189.7666	243.7222	269.2354	292.7173	336.8267	461.8256	519.4993	554.0249	629.3037	677.1351	700.5324	724.2097	806.6269	818.7232	872.9501	897.7994	935.8306	939.3959	974.4642	1003.9249	1043.8042	1124.6712	1137.3426	1174.8944	1230.0996	1233.9909	1280.1213	1388.694	1424.7079	1427.2045	1491.5399	1495.2588	1508.0489	1651.6468	1915.3641	3029.4587	3036.9199	3097.0325	3098.5523	3099.565	3236.1399	3544.7488	3635.6082
CC12CN3C1C2(N)C3=O	C[C@]12CN3[C@H]1[C@@]2(N)C3=O	
InChI=1S/C6H8N2O/c1-5-2-8-3(5)6(5,7)4(8)9/h3H,2,7H2,1H3	InChI=1S/C6H8N2O/c1-5-2-8-3(5)6(5,7)4(8)9/h3H,2,7H2,1H3/t3-,5+,6-/m1/s1
