14
gdb 24922	5.18288	1.35101	1.07409	4.0871	71.29	-0.1791	0.0314	0.2105	1035.0448	0.104125	-432.892267	-432.88544	-432.884496	-432.923276	27.107	
N	-0.0819927043	 1.273237344	-0.0128951666	-0.586042
C	-0.0164890487	 0.0121774788	-0.0427532487	 0.432852
N	-1.1308042849	-0.8461017862	-0.1091811331	-0.445429
C	-0.6339936204	-2.133631684	 0.0960883965	 0.301422
C	 0.7249282476	-2.0791964919	 0.0927113	 0.300483
O	 1.1376828305	-0.7604841274	-0.0062401733	-0.257483
C	 1.2485626048	-3.3864160451	-0.0167814273	-0.309608
C	 0.1359030046	-4.2085511344	-0.0685079067	-0.070954
N	-1.020265273	-3.4340070081	-0.0510893848	-0.373037
H	 0.8471985258	 1.6810145823	 0.0484790251	 0.230233
H	-1.996792336	-0.487931375	 0.2616671763	 0.270567
H	 2.2770122882	-3.7064957999	-0.0373887126	 0.113235
H	 0.0662173017	-5.2832867501	-0.0435870532	 0.125064
H	-1.9526315858	-3.800260193	 0.0245283186	 0.268697
119.1836	244.1036	311.5064	344.2508	395.9566	447.0555	557.3979	595.9007	609.1108	642.7555	699.208	714.0027	759.4054	764.7621	799.9768	850.0978	914.5048	946.0229	1035.042	1060.521	1095.6589	1159.1734	1261.6124	1298.6113	1329.4947	1387.5195	1467.1973	1482.682	1577.6919	1633.8338	1785.8761	3265.3765	3282.4018	3541.9431	3639.6735	3686.0663
N=C1NC2=C(O1)C=CN2	[NH][C@@H]1Nc2c(O1)cc[nH]2	
InChI=1S/C5H5N3O/c6-5-8-4-3(9-5)1-2-7-4/h1-2,7H,(H2,6,8)	InChI=1S/C5H6N3O/c6-5-8-4-3(9-5)1-2-7-4/h1-2,5-8H/t5-/m1/s1
