16
gdb 69575	2.8892	1.50097	1.18312	3.777	70.81	-0.2287	-0.0195	0.2092	1046.7845	0.123252	-437.832131	-437.823981	-437.823037	-437.864769	30.725	
O	-0.0366964096	 1.4222994923	-0.029168176	-0.446553
C	 0.0098968577	 0.0518036018	 0.0575116256	 0.285832
C	-0.3083053613	-0.8542035976	-1.1259926314	-0.35438
C	-1.1933184638	-0.9243460427	 0.0844869466	-0.238638
C	-0.4980031508	-1.7589426205	 1.1451539154	 0.261236
C	-1.0798503875	-2.455774931	 2.3141775801	-0.310391
N	-0.3803925662	-3.2126309243	 1.2596268419	-0.360912
C	 0.6570814092	-0.7536516321	 1.165844872	 0.302914
O	 1.5838844871	-0.5647519006	 1.8998879574	-0.321686
H	 0.7527490086	 1.7283830348	-0.4896721403	 0.300921
H	-0.7137204902	-0.299216084	-1.9666238215	 0.129414
H	 0.3331767551	-1.6891761923	-1.3917134641	 0.132569
H	-2.2398374584	-0.6499575545	 0.072882996	 0.119206
H	-0.5592878322	-2.4130556039	 3.266424981	 0.143318
H	-2.1634587422	-2.5163610863	 2.3781783098	 0.121053
H	-1.0583373656	-3.6568560391	 0.6429253175	 0.236097
93.9531	167.8438	183.1982	224.7029	236.8697	297.3363	376.7038	446.6341	527.6913	535.3003	655.2895	744.4079	769.1332	833.4981	852.6187	920.1767	931.6424	936.3055	961.8785	980.3544	990.7642	1024.7522	1080.5153	1095.7834	1128.8045	1199.4167	1236.1981	1267.3995	1269.3678	1293.0179	1406.4201	1422.1163	1487.6249	1507.0137	1886.7031	3108.8605	3118.7427	3200.363	3205.6242	3213.0976	3483.8181	3799.2655
OC12CC1C1(CN1)C2=O	O[C@]12C[C@H]1[C@]1(CN1)C2=O	
InChI=1S/C6H7NO2/c8-4-5(2-7-5)3-1-6(3,4)9/h3,7,9H,1-2H2	InChI=1S/C6H7NO2/c8-4-5(2-7-5)3-1-6(3,4)9/h3,7,9H,1-2H2/t3-,5+,6+/m0/s1
