16
gdb 27565	3.42948	1.19919	0.89342	2.2338	89.72	-0.2406	-0.04	0.2005	1260.3583	0.124761	-363.64864	-363.640422	-363.639477	-363.68215	30.435	
C	 0.0005586906	 1.5266722542	 0.0198516258	-0.499662
C	-0.0048764527	 0.019847609	 0.0006704769	 0.27724
C	 0.0379741272	-0.6967718534	-1.1931078993	-0.251176
C	 0.0312764184	-2.0957670993	-1.1694074231	 0.106417
C	-0.0195899191	-2.7228326218	 0.0881986809	-0.066949
N	-0.0609296525	-2.0582144732	 1.237595976	-0.266615
C	-0.0532955168	-0.723340983	 1.1827654945	-0.055384
C	 0.0740141359	-2.8647073367	-2.365894413	 0.230117
C	 0.110005626	-3.5214640257	-3.3745973422	-0.410003
H	 0.902330336	 1.928016427	-0.4552384705	 0.138215
H	-0.859083452	 1.9352088973	-0.522461355	 0.138221
H	-0.036964935	 1.908261971	 1.0434596049	 0.130934
H	 0.0767159798	-0.1792535556	-2.1464839746	 0.108496
H	-0.0262703821	-3.8078946211	 0.1450353405	 0.117419
H	-0.0878873508	-0.2069662677	 2.1403537579	 0.105705
H	 0.1417392472	-4.1008798411	-4.2639307497	 0.197024
38.2478	137.5671	139.6804	215.2987	327.7259	364.0608	461.9781	481.0842	538.0166	545.0755	575.5865	608.9934	650.9082	712.7486	738.0538	912.4312	945.8082	954.9374	979.2353	1017.0261	1044.6387	1069.0505	1180.6492	1192.0609	1279.1937	1293.1806	1347.8726	1416.1866	1452.7097	1457.904	1484.6882	1502.4629	1598.5542	1631.4292	2227.6397	3034.7944	3090.1916	3117.8422	3145.1001	3168.7675	3182.1103	3502.2354
CC1=CC(=CN=C1)C#C	Cc1cc(cnc1)C#C	
InChI=1S/C8H7N/c1-3-8-4-7(2)5-9-6-8/h1,4-6H,2H3	InChI=1S/C8H7N/c1-3-8-4-7(2)5-9-6-8/h1,4-6H,2H3
