19
gdb 45687	3.47242	1.309	1.01063	2.9733	82.42	-0.236	-0.0129	0.2231	1175.5666	0.160705	-385.912634	-385.904961	-385.904016	-385.94499	30.252	
O	-0.0120899201	-0.1597480035	-0.1883080413	-0.308033
C	-0.00949905	 1.0478218906	-0.1612204841	 0.37736
C	-1.3289267256	 1.8383242078	-0.1586378438	-0.342802
C	-1.2163528235	 3.2755287697	-0.6102811861	-0.249162
C	-0.0844327478	 3.7099718617	-1.1458601261	 0.352096
C	 0.5930454628	 5.027381153	-1.4622652785	-0.320374
C	 1.9362002522	 4.3320728212	-1.0510589787	-0.246511
C	 1.2211868212	 2.9465853965	-1.1880609035	-0.055778
C	 1.2834285619	 1.8628074273	-0.1107062088	-0.327483
H	-2.0484000358	 1.2636745911	-0.7546267337	 0.136889
H	-1.7156844776	 1.7977768721	 0.8712118225	 0.133487
H	-2.0721032306	 3.928149663	-0.4553024963	 0.089476
H	 0.5740174747	 5.2718268833	-2.5302276048	 0.114352
H	 0.2788528508	 5.910069418	-0.8997201741	 0.112034
H	 2.8060781439	 4.5082319096	-1.6868724675	 0.104286
H	 2.2001098853	 4.5471483965	-0.0123421325	 0.108268
H	 1.4182779921	 2.5151980217	-2.1775967237	 0.090449
H	 1.3329370779	 2.3474327368	 0.8745690243	 0.11394
H	 2.1312207382	 1.1803465835	-0.2044196734	 0.117506
71.475	133.5468	235.0057	298.3705	339.2299	387.7626	463.2191	517.2733	543.5821	638.9811	701.1599	740.7021	753.7632	811.9604	853.8677	883.1484	920.1793	945.7135	970.238	996.6475	1056.4135	1080.0516	1092.6068	1116.4707	1145.3871	1195.7896	1207.5903	1221.7083	1244.2867	1254.4679	1264.5781	1290.2162	1311.1498	1339.9166	1362.3675	1444.7748	1464.3476	1473.5448	1489.812	1775.6069	1816.1802	3002.7308	3014.9387	3026.6677	3042.5701	3051.2985	3064.7209	3098.0663	3108.5558	3125.1185	3153.545
O=C1CC=C2CCC2C1	O=C1CC=C2CC[C@H]2C1	
InChI=1S/C8H10O/c9-8-4-3-6-1-2-7(6)5-8/h3,7H,1-2,4-5H2	InChI=1S/C8H10O/c9-8-4-3-6-1-2-7(6)5-8/h3,7H,1-2,4-5H2/t7-/m0/s1
