21
gdb 111226	2.65946	1.39045	1.32949	1.7944	81.63	-0.232	0.0052	0.2372	1117.2978	0.18407	-387.080028	-387.071963	-387.071019	-387.112623	32.065	
C	-0.0211027347	 1.6557477968	 0.0101925633	-0.378558
C	 0.1153609802	 0.1332812838	 0.1329169297	-0.218269
C	 0.6568776538	-0.5054299043	-1.1352508875	 0.035139
C	 0.7489709357	-2.0391831049	-1.3483235077	 0.048843
C	-0.4962971317	-2.797536565	-0.8587103882	-0.267239
C	-1.7367151177	-2.1174954457	-1.4008030704	-0.060258
C	-1.5873956593	-1.0413557542	-2.1739466232	-0.056709
C	-0.1620403208	-0.6190158118	-2.4587498637	 0.024627
O	 0.6110296843	-1.818172283	-2.780733644	-0.299222
H	 0.9397567296	 2.1237415709	-0.2309796842	 0.115104
H	-0.7279511679	 1.9253718585	-0.7824117176	 0.116693
H	-0.3841668932	 2.0991374596	 0.942259283	 0.113084
H	 0.7941526375	-0.1076135107	 0.9620590266	 0.094152
H	-0.8566509159	-0.2991645129	 0.3908863482	 0.10304
H	 1.6338025463	-0.0786975211	-1.3850864817	 0.082427
H	 1.6821069999	-2.5504796562	-1.0940468935	 0.070776
H	-0.4498173305	-3.8398128195	-1.2003351893	 0.115843
H	-0.5192136288	-2.8341313715	 0.2393784719	 0.105962
H	-2.7113645779	-2.526597328	-1.1504737748	 0.093197
H	-2.4229924979	-0.4872958664	-2.5883266708	 0.089483
H	-0.064055771	 0.1530308657	-3.2245638159	 0.071884
72.1527	152.485	199.0469	258.89	275.3339	361.9711	429.3097	487.3829	536.1163	589.9973	669.9946	706.2979	784.0139	818.9472	847.6375	880.7697	908.1419	918.6497	964.6858	966.2483	979.5325	987.2119	1016.9427	1063.3215	1093.5456	1100.2436	1139.7547	1165.8031	1184.7899	1213.4574	1238.727	1287.7283	1314.6512	1320.3328	1335.3934	1344.9861	1368.5991	1399.363	1409.0016	1416.0491	1461.1369	1485.6776	1500.3647	1505.1469	1694.713	3012.088	3020.8944	3030.0252	3043.0348	3050.4553	3066.9316	3073.654	3091.1405	3098.2154	3104.7266	3161.7899	3189.9374
CCC1C2CC=CC1O2	CC[C@H]1[C@H]2CC=C[C@@H]1O2	
InChI=1S/C8H12O/c1-2-6-7-4-3-5-8(6)9-7/h3-4,6-8H,2,5H2,1H3	InChI=1S/C8H12O/c1-2-6-7-4-3-5-8(6)9-7/h3-4,6-8H,2,5H2,1H3/t6-,7+,8-/m1/s1
