17
gdb 64805	3.71819	0.94795	0.85705	3.3164	76.25	-0.2492	-0.0692	0.18	1360.5649	0.132709	-421.789297	-421.780115	-421.779171	-421.823757	34.148	
O	 0.0971356989	 1.3191103015	 0.2246952449	-0.479245
C	-0.027591527	-0.0562745632	 0.0092343827	 0.450648
C	 1.0145291784	-0.6301154704	-0.9305828501	-0.382399
C	 0.967227117	-0.0020802029	-2.3150455961	 0.233761
O	 0.329265153	 1.0017554107	-2.5700446142	-0.307703
C	 1.7568102762	-0.6679293656	-3.3347199834	 0.247233
C	 2.4180541289	-1.2415696774	-4.160944898	-0.373162
C	-0.4657652913	-0.8456635458	 1.2025120856	-0.328359
C	-1.4143663197	-0.6556928608	 0.0338513773	-0.313928
H	-0.0468141988	 1.7291293963	-0.6400094663	 0.292923
H	 2.0256454396	-0.4520020405	-0.5353916008	 0.146199
H	 0.9158870356	-1.7165210016	-1.0335384894	 0.129207
H	 2.9972894205	-1.7345433711	-4.9040590564	 0.218512
H	-0.0345187003	-1.8270051534	 1.3695526594	 0.109164
H	-0.6621027205	-0.2747697807	 2.1025533767	 0.127979
H	-2.2358385825	 0.0380453336	 0.1680566033	 0.122014
H	-1.6348918079	-1.5087830487	-0.5995274351	 0.107154
44.6823	94.1616	124.5772	211.8836	240.5848	311.742	328.1849	366.9782	444.2675	493.388	569.9763	578.9821	618.9255	649.7328	713.5376	748.4056	775.8969	827.8977	895.2673	926.9601	935.4382	975.2474	1008.9779	1049.6767	1077.4684	1103.9177	1182.3889	1189.6741	1285.0508	1315.3176	1349.1216	1413.0198	1438.8005	1453.6329	1505.041	1750.215	2212.3852	3014.4934	3073.6643	3131.9562	3136.294	3218.9415	3232.5867	3492.7743	3740.4391
OC1(CC(=O)C#C)CC1	OC1(CC(=O)C#C)CC1	
InChI=1S/C7H8O2/c1-2-6(8)5-7(9)3-4-7/h1,9H,3-5H2	InChI=1S/C7H8O2/c1-2-6(8)5-7(9)3-4-7/h1,9H,3-5H2
