23
gdb 122158	4.35626	0.64512	0.61777	2.6387	83.26	-0.255	0.0794	0.3344	1895.3268	0.202431	-425.414449	-425.403205	-425.402261	-425.451616	39.861	
C	 0.1504370405	 1.3078197169	-0.4680864422	-0.426228
C	 0.1013641627	-0.088057981	 0.0994598012	 0.028365
O	 1.3445418778	-0.7832805034	 0.2631639777	-0.301694
C	 0.5631638331	-0.5016806651	 1.4408855282	 0.393767
C	 1.1799958226	 0.4833342185	 2.4115081008	-0.467594
C	-0.0658024338	-1.7397429619	 2.0651975817	-0.266776
C	 0.950016356	-2.6623509146	 2.7517013668	-0.166315
C	 0.3188589257	-3.958919625	 3.2411188563	-0.075056
O	 1.327247097	-4.7197144787	 3.8887956389	-0.421527
H	 0.9359641116	 1.9135094199	-0.0132585561	 0.126776
H	 0.3424488288	 1.2648099662	-1.5455499124	 0.129917
H	-0.8108170426	 1.812696937	-0.3212146347	 0.119867
H	-0.6822811864	-0.708532562	-0.3439020207	 0.077498
H	 1.6258628673	 1.3343439132	 1.8957120858	 0.126215
H	 0.4249792357	 0.8566687244	 3.1121958936	 0.117521
H	 1.9693270909	 0.002513391	 2.9972567244	 0.132985
H	-0.8356431996	-1.4264920265	 2.7837358342	 0.094272
H	-0.5803615106	-2.2988818259	 1.274963136	 0.098889
H	 1.755721393	-2.9026257734	 2.0495306298	 0.123726
H	 1.4123029395	-2.1655999725	 3.611854127	 0.106198
H	-0.5125146637	-3.732190041	 3.930073129	 0.079932
H	-0.1098367146	-4.5089361247	 2.3870602404	 0.084728
H	 0.938299889	-5.5499374213	 4.1784418243	 0.284533
45.0825	74.4178	101.4993	121.7304	148.889	157.2704	225.5084	261.0695	273.6965	282.818	355.9367	380.8328	464.246	499.2837	554.2148	719.3075	756.9987	786.9151	866.1008	892.8858	956.3699	987.2998	1014.1158	1027.5065	1046.2113	1079.1447	1109.9063	1122.2305	1137.8799	1180.9238	1210.2258	1234.5719	1258.394	1298.7428	1311.432	1318.9664	1360.7718	1392.9126	1410.2551	1419.0017	1461.1377	1464.4581	1470.2868	1480.1746	1486.8985	1499.5647	1501.5446	1521.2397	1528.2985	2953.0899	2979.3783	3014.2621	3037.7192	3041.5832	3044.5113	3056.5412	3067.0036	3092.8061	3097.0088	3104.0548	3133.5709	3145.9073	3830.3968
CC1OC1(C)CCCO	C[C@H]1O[C@]1(C)CCCO	
InChI=1S/C7H14O2/c1-6-7(2,9-6)4-3-5-8/h6,8H,3-5H2,1-2H3	InChI=1S/C7H14O2/c1-6-7(2,9-6)4-3-5-8/h6,8H,3-5H2,1-2H3/t6-,7-/m1/s1
