17
gdb 35498	3.059	1.47719	1.24169	1.7089	78.74	-0.2449	0.0117	0.2566	1042.1441	0.136339	-384.645334	-384.637803	-384.636859	-384.677496	29.438	
C	-0.6147848156	-1.0998309943	-0.8916014271	-0.446086
C	-0.3621589062	-0.0216592388	-0.4240778417	 0.338835
C	-0.0652595584	 1.2939010013	 0.1122683017	-0.053907
O	 0.0030869458	 1.3449557294	 1.5597027099	-0.303212
C	 1.2496671508	 2.0835202949	 1.5324266311	 0.125576
C	 2.4001377388	 1.3399499159	 2.2259925218	-0.271922
C	 3.0276154565	 0.5569019299	 1.0949362141	-0.058926
C	 2.490983645	 0.8369383903	-0.0934179778	-0.069178
C	 1.3899582031	 1.8540228832	 0.0054264965	-0.147626
H	-0.8378632801	-2.0560769375	-1.2963509146	 0.200175
H	-0.8073009738	 2.0161418873	-0.2572022382	 0.099126
H	 1.1048300661	 3.1101753789	 1.8843351547	 0.074988
H	 3.1157735715	 2.0268616286	 2.6969619314	 0.103688
H	 2.0029785893	 0.6966051837	 3.0201849203	 0.12594
H	 3.8313663549	-0.15289213	 1.2580789952	 0.097144
H	 2.7838174971	 0.3871621924	-1.0347137536	 0.101238
H	 1.5006824249	 2.7104291647	-0.6634112136	 0.084147
77.754	129.3413	215.4929	269.4741	370.2392	421.3011	516.7462	549.1557	619.1104	671.3114	677.2348	747.6686	764.8798	809.726	865.4257	872.4303	930.1061	948.7726	973.1444	989.9137	1016.6843	1031.0126	1045.253	1089.726	1132.3009	1179.662	1205.8029	1244.3147	1261.5501	1301.8705	1323.9622	1339.6927	1356.9114	1401.0703	1465.6681	1677.7371	2235.061	2996.5015	3018.7777	3051.3595	3063.4383	3084.8495	3186.9159	3213.1359	3503.2686
C#CC1OC2CC=CC12	C#C[C@H]1O[C@H]2CC=C[C@@H]12	
InChI=1S/C8H8O/c1-2-7-6-4-3-5-8(6)9-7/h1,3-4,6-8H,5H2	InChI=1S/C8H8O/c1-2-7-6-4-3-5-8(6)9-7/h1,3-4,6-8H,5H2/t6-,7+,8-/m0/s1
