14
gdb 29356	2.04327	1.88797	0.98128	1.6603	73.88	-0.1843	0.0234	0.2077	1108.1871	0.099787	-436.687048	-436.678339	-436.677395	-436.719932	32.829	
O	 0.0259576543	 1.3372986609	-0.0002844299	-0.447667
C	 0.0369286067	-0.0189458993	-0.0198420493	 0.224893
C	 0.0123346641	-0.8053619125	-1.1355541561	-0.18658
N	 0.0361603247	-2.1358797146	-0.6941500802	-0.306565
C	 0.0741649748	-2.1719623541	 0.6529744936	 0.311577
O	 0.1020982669	-3.3585062754	 1.289412047	-0.429424
C	 0.0767900734	-0.8721821458	 1.1435043913	-0.035391
C	 0.1112265716	-0.478371677	 2.4923088618	 0.108231
C	 0.1405406269	-0.1187018458	 3.6457329117	-0.438607
H	 0.0493294976	 1.6179862974	 0.9218957712	 0.29948
H	-0.0190373142	-0.5574769804	-2.1810021083	 0.127791
H	 0.0265253087	-2.9517821399	-1.2800515966	 0.272537
H	 0.1271600804	-3.1813004274	 2.2377821549	 0.314262
H	 0.1664402242	 0.1928547739	 4.6600100889	 0.185463
103.3995	137.4314	220.4698	282.4369	297.6335	319.1757	342.5585	393.5809	405.8456	443.4539	503.7835	541.5346	588.2151	598.34	657.4696	694.1676	695.6063	716.691	782.6265	1052.8787	1075.8012	1186.7247	1201.9873	1260.9113	1332.141	1370.5492	1438.6119	1577.9995	1612.1894	1669.467	2207.359	3296.4164	3501.175	3693.2297	3798.6243	3800.9366
OC1=CNC(O)=C1C#C	Oc1c[nH]c(O)c1C#C	
InChI=1S/C6H5NO2/c1-2-4-5(8)3-7-6(4)9/h1,3,7-9H	InChI=1S/C6H5NO2/c1-2-4-5(8)3-7-6(4)9/h1,3,7-9H
