21
gdb 38370	2.13399	2.02329	1.30993	2.1424	77.47	-0.2536	0.0696	0.3231	1038.9466	0.18555	-424.204866	-424.197262	-424.196318	-424.236647	30.76	
C	-0.0440026273	 1.548710549	 0.1497509919	-0.249607
C	 1.4995976612	 1.6266599799	-0.0127269327	-0.002221
C	 1.5694853293	 0.0776698256	 0.1728252637	-0.244916
C	 0.0199607109	 0.0038347114	-0.00667967	-0.002223
C	-0.4789463544	-0.5606012508	-1.3424303708	-0.094443
O	 0.3958415396	-0.4466440607	-2.4555031865	-0.232853
C	 0.7356003316	 0.8262837161	-2.9361458393	 0.019913
O	 1.9736230005	 1.2836831	-2.4618924277	-0.232852
C	 2.0106346137	 2.1699215954	-1.3526773034	-0.094448
H	-0.3711499797	 1.8506977371	 1.1482049407	 0.097139
H	-0.6495792406	 2.0981729865	-0.5794046456	 0.089028
H	 1.9942451518	 2.2064781724	 0.7726416984	 0.069759
H	 2.1578858444	-0.4615882711	-0.5702198939	 0.126815
H	 1.8922515097	-0.2128854193	 1.1747677578	 0.094284
H	-0.5088842849	-0.5388835553	 0.7829100609	 0.069764
H	-0.637270229	-1.6398049771	-1.2467008374	 0.109851
H	-1.4556820943	-0.1069348264	-1.5811156429	 0.088708
H	 0.8645098376	 0.7047309224	-4.0163029969	 0.110301
H	-0.0651576	 1.5571972023	-2.7378916009	 0.079444
H	 1.4679520651	 3.0996697903	-1.5932201921	 0.088708
H	 3.0709940948	 2.4274607826	-1.2620025631	 0.109848
133.8641	166.4236	264.2872	288.6821	332.8738	338.1909	394.5102	491.5601	572.4601	590.5179	709.3021	776.1775	785.4287	862.338	906.1356	907.4143	914.9066	939.3423	992.1733	1053.2198	1062.2575	1064.696	1082.789	1110.3697	1128.2545	1163.5814	1175.8241	1214.3304	1220.5881	1260.484	1261.423	1286.5231	1296.2455	1338.0531	1344.6186	1356.6735	1358.5055	1414.8508	1416.8065	1448.38	1467.7821	1487.4021	1491.9195	1496.71	1509.4665	2963.0061	2965.1925	2974.6439	3038.8798	3048.9637	3049.1839	3069.6447	3071.386	3074.9075	3078.3201	3094.8824	3139.568
C1C2CC1COCOC2	C1[C@H]2C[C@@H]1COCOC2	
InChI=1S/C7H12O2/c1-6-2-7(1)4-9-5-8-3-6/h6-7H,1-5H2	InChI=1S/C7H12O2/c1-6-2-7(1)4-9-5-8-3-6/h6-7H,1-5H2/t6-,7+
