18
gdb 26670	2.24844	1.6157	0.95381	0.3812	77.88	-0.1746	0.0427	0.2172	1217.7232	0.148196	-435.288733	-435.278963	-435.278018	-435.322795	36.044	
C	 0.1351852719	 1.4506011391	 0.0167137703	-0.498773
C	-0.0529055524	-0.0232537765	-0.0066408597	 0.295419
C	-1.158766443	-0.8222901707	-0.0305234442	 0.07453
N	-2.5278098456	-0.4915618427	-0.0001777062	-0.623751
C	-0.6845077317	-2.1801171948	-0.0082638309	 0.187156
N	-1.5104457576	-3.3128306876	-0.0931455006	-0.625849
C	 0.6736123905	-2.1169926166	 0.0280634454	 0.186803
N	 1.6166606222	-3.148068899	 0.0430717045	-0.604658
O	 1.0785367159	-0.7983959801	 0.0265130156	-0.22344
H	 0.8934261271	 1.7637169547	-0.7098782793	 0.133297
H	-0.800149031	 1.9582699781	-0.239383391	 0.116412
H	 0.4519308715	 1.8223788867	 1.0001345331	 0.130739
H	-2.6918092156	 0.4972049136	-0.1446852657	 0.235896
H	-3.0429759198	-1.0118080989	-0.7035581312	 0.246096
H	-2.2546389363	-3.2816453397	 0.5964685561	 0.242886
H	-0.9661881381	-4.1577150784	 0.0430723636	 0.245697
H	 2.1867495295	-3.1721076619	-0.7981074379	 0.240837
H	 2.2467705925	-3.0826227354	 0.8371525981	 0.240705
109.5592	141.8963	151.2476	181.3764	226.0968	245.4496	262.9846	288.7944	337.5692	365.952	378.3408	542.1921	597.2268	607.4617	614.2562	695.6482	746.9656	802.7849	805.0271	855.0931	897.3759	983.4886	1053.0559	1057.1413	1153.9045	1211.6744	1241.2069	1249.1585	1288.9481	1343.6841	1417.9567	1468.6076	1494.5439	1503.5405	1629.4989	1639.9818	1649.2792	1678.0994	1748.1955	3012.458	3064.4224	3100.0628	3476.8796	3498.2796	3502.1337	3537.9537	3592.1623	3600.7174
CC1=C(N)C(N)=C(N)O1	Cc1c(N)c(N)c(N)o1	
InChI=1S/C5H9N3O/c1-2-3(6)4(7)5(8)9-2/h6-8H2,1H3	InChI=1S/C5H9N3O/c1-2-3(6)4(7)5(8)9-2/h6-8H2,1H3
