21
gdb 91345	1.90966	1.6803	1.56439	3.1209	77.71	-0.2394	0.0578	0.2972	1057.4979	0.182053	-424.20114	-424.192145	-424.1912	-424.234303	35.34	
C	-0.2296140208	 1.5118838955	 0.0303557451	-0.508758
C	 0.0534178393	 0.0248811845	 0.0126746523	 0.30091
C	-1.1843094131	-0.8989237973	 0.2627971064	 0.051294
O	-1.4349114525	-1.8054977088	-0.8071079338	-0.439088
C	-0.4984952522	-1.502987074	 1.5240776098	-0.263599
C	 0.8084223041	-0.7736035581	 1.1525868296	-0.065075
C	 1.6478716736	-1.5024733916	 0.0636774173	-0.285894
C	 1.1004429399	-0.509720362	-1.0077626912	 0.123852
O	 0.7144568285	-0.9539663741	-2.2760400833	-0.444545
H	 0.6999786349	 2.0899218866	 0.0691517229	 0.115555
H	-0.7707176847	 1.8116298815	-0.8754735827	 0.128191
H	-0.8390570378	 1.8042643625	 0.8935747751	 0.108824
H	-2.0972137831	-0.3300385424	 0.4838451157	 0.072058
H	-2.0510508317	-2.4780887097	-0.5012805822	 0.289891
H	-0.9525035819	-1.1372162218	 2.4497398698	 0.100518
H	-0.4539467883	-2.5965551584	 1.5631592922	 0.091032
H	 1.3640684055	-0.2728158227	 1.9458359835	 0.062626
H	 2.7316862982	-1.4975344729	 0.1998375402	 0.096439
H	 1.3249420506	-2.5334390357	-0.1072358178	 0.095322
H	 1.8384161905	 0.2835007272	-1.1768118764	 0.079818
H	-0.048098819	-1.5307787683	-2.1381625225	 0.290629
74.9154	181.0102	195.0663	230.9885	244.907	283.8928	335.8587	384.1357	392.4699	439.8334	533.3751	560.256	584.856	665.3032	746.4314	802.5391	827.3632	871.2642	905.105	943.4097	979.221	1004.7479	1058.542	1064.665	1093.2533	1122.7998	1141.065	1156.5149	1179.2248	1184.4894	1201.5173	1246.1311	1264.7532	1271.2254	1296.7782	1312.8172	1340.3641	1345.9473	1406.538	1418.8871	1465.1556	1472.4552	1484.4756	1489.6687	1493.6858	3002.5088	3017.6923	3033.8807	3039.4419	3056.7956	3080.6061	3090.4273	3092.2923	3100.7574	3115.619	3761.0518	3822.8687
CC12C(O)CC1CC2O	C[C@]12[C@@H](O)C[C@H]1C[C@H]2O	
InChI=1S/C7H12O2/c1-7-4(2-5(7)8)3-6(7)9/h4-6,8-9H,2-3H2,1H3	InChI=1S/C7H12O2/c1-7-4(2-5(7)8)3-6(7)9/h4-6,8-9H,2-3H2,1H3/t4-,5-,6+,7+
