18
gdb 13197	4.9188	1.30991	1.07268	3.6967	70.46	-0.2304	0.0617	0.2922	1118.7262	0.154601	-381.142593	-381.133843	-381.132898	-381.176596	30.2	
C	 0.0707094586	 1.4132789351	 0.080625543	-0.322697
N	 0.0669670082	-0.0348059385	-0.0043680563	-0.35237
C	 0.6653170107	-0.6690939017	-1.0734190604	 0.451536
O	 1.0614631572	-0.09109474	-2.0728107209	-0.412476
N	 0.7724903651	-2.036633252	-0.9274341383	-0.123351
C	-0.1336596336	-2.9568776427	-0.2171302377	-0.180639
C	 0.2078417747	-4.0443792195	-1.2718104437	-0.238842
C	 0.9719791507	-2.9460457441	-2.064089658	-0.152436
H	 0.9092368959	 1.8003669904	 0.6750618187	 0.117577
H	 0.164096409	 1.8008587205	-0.9341531172	 0.168
H	-0.8649602815	 1.7714703978	 0.5209848664	 0.117683
H	 0.0077414586	-0.5474259807	 0.8607155045	 0.240689
H	 0.1587285632	-3.1774493975	 0.8162930031	 0.105475
H	-1.1806876805	-2.6278982982	-0.2249480722	 0.11281
H	 0.8479388599	-4.8397957273	-0.8881846459	 0.116248
H	-0.6468173266	-4.4887115278	-1.7819482164	 0.115905
H	 0.473798704	-2.5998540833	-2.9757205161	 0.121443
H	 2.0212859466	-3.1506956307	-2.2950435126	 0.115444
73.9726	84.7084	117.8131	137.9053	168.5054	212.2631	310.9223	425.2761	478.1441	548.9808	747.4641	774.1538	804.3485	850.2189	894.7202	941.0514	967.9976	1036.0117	1138.7405	1141.6185	1149.0247	1157.8564	1183.2277	1195.0695	1205.5062	1233.6282	1268.3626	1295.1838	1343.3173	1354.7959	1441.3345	1490.1616	1492.4225	1502.6594	1515.1533	1536.112	1559.1138	1771.5548	3011.8851	3012.5597	3045.8684	3052.0219	3078.3418	3087.0448	3092.1937	3145.8264	3154.9098	3632.2153
CNC(=O)N1CCC1	CNC(=O)N1CCC1	
InChI=1S/C5H10N2O/c1-6-5(8)7-3-2-4-7/h2-4H2,1H3,(H,6,8)	InChI=1S/C5H10N2O/c1-6-5(8)7-3-2-4-7/h2-4H2,1H3,(H,6,8)
