21
gdb 110869	2.19942	1.47007	1.22991	1.4609	79.42	-0.2229	0.0768	0.2997	1176.0256	0.180019	-424.176604	-424.166846	-424.165902	-424.21099	35.876	
C	 0.1429766911	 1.0410905414	-0.5502615841	-0.237657
O	-0.1534227873	 0.1748203388	 0.5317258051	-0.236493
C	-1.3334051988	-0.5343851937	 0.3456593176	 0.055782
C	-1.5006185204	-1.5988846575	-0.6970623418	-0.006492
O	-0.2697479149	-2.2695493183	-0.9460616094	-0.309313
C	-0.2529238365	-2.7841536441	 0.42043803	 0.124844
C	 1.0701764745	-2.6178949245	 1.1384943184	-0.42019
C	-1.4974510041	-1.9622917747	 0.7947565545	 0.164843
C	-2.5617038659	-2.4298697257	 1.7453522918	-0.498737
H	 1.0714729951	 1.5588074032	-0.298855917	 0.125566
H	 0.2807206855	 0.47768028	-1.4816261237	 0.128344
H	-0.6509781964	 1.7882977261	-0.6986196044	 0.102482
H	-2.2409838764	 0.0582101742	 0.4981620609	 0.082803
H	-2.2647182344	-1.6309504374	-1.4673291376	 0.097443
H	-0.5315012187	-3.8473542838	 0.3810710501	 0.07581
H	 1.3513240773	-1.5671454408	 1.1993431153	 0.149301
H	 0.9947787005	-3.0279298288	 2.1520217484	 0.112022
H	 1.8534377347	-3.1735921946	 0.6120779159	 0.119975
H	-2.2207171356	-2.3606163136	 2.7855215874	 0.127325
H	-3.4685261502	-1.8233823078	 1.6577993709	 0.12182
H	-2.8373857488	-3.4727417784	 1.5523797517	 0.120523
69.5967	153.0088	170.9219	178.7136	191.9419	215.0834	233.1017	274.6065	297.9632	375.0078	427.6284	567.5176	627.083	665.987	762.5924	790.1288	861.1105	908.1082	946.9069	971.6465	1005.2371	1041.3235	1068.1341	1081.1945	1102.5028	1139.9315	1145.9116	1167.3647	1182.5396	1235.3837	1251.9429	1264.3771	1296.6806	1345.2131	1383.5423	1404.4872	1417.3769	1454.5396	1482.9044	1487.4347	1488.4334	1491.3508	1498.7331	1502.8314	1508.5028	2989.5586	2993.5932	3022.2901	3038.9635	3055.2261	3058.0028	3081.3878	3097.6461	3099.9323	3121.0483	3161.2671	3163.8482
COC1C2OC(C)C12C	CO[C@H]1[C@H]2O[C@@H](C)[C@@]12C	
InChI=1S/C7H12O2/c1-4-7(2)5(8-3)6(7)9-4/h4-6H,1-3H3	InChI=1S/C7H12O2/c1-4-7(2)5(8-3)6(7)9-4/h4-6H,1-3H3/t4-,5-,6+,7-/m0/s1
