18
gdb 53938	2.16012	1.42573	1.26025	4.3329	68.24	-0.2416	-0.0239	0.2177	1111.7713	0.143467	-476.274887	-476.26426	-476.263316	-476.310507	38.055	
C	 0.3323168018	 0.7041606882	-1.0519001678	-0.495258
C	-0.1081113212	 0.1494096736	 0.2905097343	 0.389685
O	 0.4253169442	 0.4723582846	 1.3211086761	-0.294312
C	-1.316564974	-0.8333964076	 0.2876118884	 0.143333
C	-1.4686258578	-1.5130594485	 1.6439287625	-0.396758
O	-2.5157855995	-0.0779204792	 0.0637863605	-0.468518
C	-1.1024898114	-1.9112722664	-0.7927331467	 0.354637
N	-2.2094535294	-2.2076576336	-1.5205327188	-0.531763
O	-0.014392234	-2.4362467049	-0.9467773959	-0.376793
H	 0.8890303837	 1.6297487367	-0.9029233579	 0.146712
H	 0.9813142073	-0.0419210881	-1.5217989423	 0.184714
H	-0.5010287554	 0.8748278161	-1.7424848697	 0.112561
H	-1.5009677837	-0.7572739752	 2.4294572837	 0.144321
H	-2.3906183096	-2.1002173666	 1.662433873	 0.116228
H	-0.6179460587	-2.1724630233	 1.8239058061	 0.149034
H	-2.3853155153	 0.4934375336	-0.7017786494	 0.287324
H	-3.0939681513	-1.8037877168	-1.260220646	 0.269127
H	-2.1748370558	-2.9847347025	-2.1598420902	 0.265728
55.5233	73.1655	121.7342	170.8693	204.4272	240.5247	242.8694	275.8838	318.3786	350.046	392.0168	408.2807	443.321	512.9975	582.6926	623.6731	652.7256	663.3938	774.9698	866.619	920.5756	974.4407	1028.6716	1078.4376	1090.8313	1153.3693	1160.6142	1213.6935	1336.8176	1367.4204	1383.4417	1405.5333	1462.5804	1475.4543	1481.1774	1485.4902	1587.3946	1787.4368	1827.9352	3038.9971	3060.6643	3104.9419	3140.4079	3155.1867	3158.3466	3591.1452	3730.0296	3799.4391
CC(=O)C(C)(O)C(N)=O	CC(=O)[C@@](C)(O)C(=O)N	
InChI=1S/C5H9NO3/c1-3(7)5(2,9)4(6)8/h9H,1-2H3,(H2,6,8)	InChI=1S/C5H9NO3/c1-3(7)5(2,9)4(6)8/h9H,1-2H3,(H2,6,8)/t5-/m1/s1
