19
gdb 64459	2.20965	1.70459	1.30209	3.8267	70.73	-0.2626	0.0047	0.2673	1055.7243	0.159454	-460.210581	-460.201968	-460.201024	-460.243677	33.137	
C	 0.7245620125	 1.3278999659	-0.083084268	-0.426355
C	-0.0753611409	 0.0051174947	-0.0337865274	 0.265751
O	-1.4531729781	 0.2963937193	 0.0747119237	-0.478411
C	 0.1595674651	-0.8474760812	-1.3104788586	-0.248146
C	 1.0174209439	-2.0916945005	-1.0420004322	-0.234768
C	 2.0858898196	-1.7836596862	-0.0049230462	-0.071997
O	 1.4773241456	-1.443903377	 1.2575872649	-0.223021
C	 0.3487384849	-0.7171592652	 1.2588512359	 0.384251
O	-0.2859741839	-0.5843338906	 2.2763652458	-0.359439
H	 1.8014866799	 1.1640259897	-0.1908790551	 0.115697
H	 0.3733191771	 1.911505745	-0.938483762	 0.132437
H	 0.5502820072	 1.9053047627	 0.8290369657	 0.132914
H	-1.6406827778	 0.2983348153	 1.0264117337	 0.290722
H	-0.8219232242	-1.1289448067	-1.6962745949	 0.131033
H	 0.6401331664	-0.223970918	-2.0714917539	 0.104921
H	 0.3995091492	-2.9109582274	-0.6561158274	 0.124878
H	 1.4891748447	-2.4504189806	-1.9621916023	 0.111991
H	 2.7142199778	-2.6496587449	 0.2134693107	 0.129985
H	 2.738394001	-0.9623885642	-0.3268830724	 0.117558
69.3335	126.405	221.9398	259.2476	287.6736	331.8283	356.5365	400.1118	449.3208	471.2812	483.8284	564.6147	616.3119	687.2477	755.4466	846.9491	893.1292	902.0391	953.5461	971.2235	1026.3954	1043.3274	1086.0693	1142.7972	1148.9478	1185.2387	1197.2695	1234.7075	1281.0635	1300.2707	1367.156	1376.1313	1400.1536	1412.0938	1427.7103	1481.5311	1484.4249	1491.5133	1499.5958	1518.5393	1817.5076	3030.6237	3038.0287	3042.4538	3051.1945	3089.7359	3109.293	3113.9402	3118.1085	3125.3653	3703.1463
CC1(O)CCCOC1=O	C[C@@]1(O)CCCOC1=O	
InChI=1S/C6H10O3/c1-6(8)3-2-4-9-5(6)7/h8H,2-4H2,1H3	InChI=1S/C6H10O3/c1-6(8)3-2-4-9-5(6)7/h8H,2-4H2,1H3/t6-/m1/s1
