21
gdb 78239	2.05958	1.57903	1.18565	2.6014	78.01	-0.2465	0.0775	0.3241	1154.3554	0.182435	-424.215324	-424.206065	-424.205121	-424.249231	35.361	
C	-0.0660957791	 1.6845805515	 0.002525006	-0.424309
C	 0.0795336158	 0.1759532149	 0.0418056516	-0.035253
C	 1.3030266904	-0.6267290601	-0.3339300341	-0.051635
C	 0.7934148659	-0.6387190096	 1.094942489	-0.051636
C	 1.8319478483	 0.0102661455	 1.9928405224	 0.12379
O	 2.4051191853	-1.0478318929	 2.7558379844	-0.437161
C	 2.8538290291	 0.6804881983	 1.0354975533	-0.297591
C	 2.6719054029	 0.0300206786	-0.3622629988	 0.123798
O	 3.6041349902	-1.0196388112	-0.6060329779	-0.437163
H	 0.8267777139	 2.2222226089	 0.3256070404	 0.116572
H	-0.297744455	 2.0192709381	-1.0148620604	 0.118953
H	-0.8911644709	 2.005286701	 0.6484072797	 0.118953
H	-0.8343663018	-0.3145477669	-0.2882586028	 0.088538
H	 1.1848283418	-1.477560186	-0.9948660109	 0.091413
H	 0.2881906082	-1.4986555739	 1.51918078	 0.091413
H	 1.3867222716	 0.7556212766	 2.6703702135	 0.059422
H	 3.0563499358	-0.6627898766	 3.3504011329	 0.27746
H	 2.7031681335	 1.7630323298	 0.9908404998	 0.100556
H	 3.8736532398	 0.5139828762	 1.3978307581	 0.086998
H	 2.7519280511	 0.7877280595	-1.1574382647	 0.059421
H	 4.4825966531	-0.6292828418	-0.6483632915	 0.277459
73.5046	112.8541	141.3832	228.614	233.5072	284.7942	294.5893	354.1603	390.9392	417.612	495.6558	576.6584	703.7381	713.3403	750.8564	806.1093	824.9836	927.1372	943.4942	947.8037	987.7039	990.8512	1020.8222	1053.4193	1083.303	1103.7561	1106.0359	1141.4231	1146.3438	1208.5077	1221.4518	1226.3689	1242.0169	1282.2176	1317.9214	1353.2469	1353.8057	1375.3902	1416.4919	1428.244	1438.5219	1444.2053	1468.8816	1494.6542	1505.7601	2969.3893	2970.4456	3033.9815	3048.8215	3085.6042	3091.7181	3114.1147	3136.1201	3174.6054	3184.0114	3818.7682	3819.1752
CC1C2C1C(O)CC2O	C[C@H]1[C@@H]2[C@H]1[C@@H](O)C[C@H]2O	
InChI=1S/C7H12O2/c1-3-6-4(8)2-5(9)7(3)6/h3-9H,2H2,1H3	InChI=1S/C7H12O2/c1-3-6-4(8)2-5(9)7(3)6/h3-9H,2H2,1H3/t3-,4+,5-,6-,7+
