14
gdb 17880	3.42606	2.13735	2.01093	0.7849	57.23	-0.2595	-0.0306	0.2289	729.849	0.107912	-419.654669	-419.648286	-419.647342	-419.685536	23.614	
O	 0.0030118771	 0.0090268181	 0.0917133634	-0.299754
C	-0.013370125	 1.199781783	 0.0513131377	 0.433046
C	-1.0553247569	 2.3228039074	-0.0137237815	-0.069801
C	-1.231862077	 2.8931669942	 1.4062330667	-0.08417
O	-0.0157556896	 3.4541816657	 1.8747302127	-0.251363
C	 1.2001194797	 2.9253826915	 1.369590933	-0.084169
C	 0.9960566966	 2.3499724241	-0.0446239656	-0.0698
O	-0.0501210478	 3.1268792847	-0.6940908988	-0.277033
H	-1.9886007829	 2.2046261783	-0.5677314471	 0.11335
H	-1.9620974157	 3.7088727506	 1.4039652419	 0.126286
H	-1.6003818925	 2.1007179058	 2.0768032183	 0.111886
H	 1.9080939954	 3.760142326	 1.3456503133	 0.126287
H	 1.6095296197	 2.1432437834	 2.0284450251	 0.111886
H	 1.915021739	 2.2563177872	-0.6265404893	 0.11335
91.4753	146.6195	230.6655	429.2879	447.5878	542.1775	561.6216	724.2474	787.3085	843.4945	876.1571	885.7718	912.0734	981.388	1000.7438	1023.3648	1081.0864	1096.7814	1136.2156	1193.6958	1220.9761	1253.192	1267.0186	1273.2466	1315.3052	1369.4851	1411.6519	1502.9009	1511.9113	1923.9679	2981.5693	2987.4494	3070.1997	3072.7304	3106.2894	3108.0384
O=C1C2COCC1O2	O=C1[C@H]2COC[C@@H]1O2	
InChI=1S/C5H6O3/c6-5-3-1-7-2-4(5)8-3/h3-4H,1-2H2	InChI=1S/C5H6O3/c6-5-3-1-7-2-4(5)8-3/h3-4H,1-2H2/t3-,4+
