17
gdb 95033	2.48274	2.072	1.50447	2.2741	65.45	-0.2448	0.0602	0.305	900.407	0.137479	-458.912271	-458.905324	-458.90438	-458.943568	27.88	
O	 0.0165561785	 1.4465988793	 0.1478009878	-0.439104
C	 0.0035413722	 0.0429106562	 0.0066482063	 0.104849
C	 0.7383216569	-0.6920392726	 1.1704081449	-0.107748
O	 0.004448771	-1.8705836833	 1.5016713142	-0.260555
C	-1.3218751816	-1.7282826905	 1.0720261141	 0.085467
C	-2.3379071308	-0.9328180337	 1.9325312186	-0.007767
O	-1.8340012635	 0.4008977852	 2.1159732534	-0.258653
C	-2.4712395952	 0.0824355388	 0.8688986258	 0.008337
C	-1.4030506303	-0.6030741908	-0.0037118303	-0.129172
H	-0.3884536742	 1.6371680913	 1.0031471181	 0.296507
H	 0.5076765024	-0.1567027419	-0.9426407192	 0.095614
H	 1.7522917801	-1.0037551826	 0.9012636288	 0.105738
H	 0.7998953985	-0.013187773	 2.0299003241	 0.105018
H	-1.716500232	-2.7060843153	 0.7822659064	 0.090879
H	-3.045746418	-1.2858780961	 2.6734777616	 0.110722
H	-3.3187906041	 0.6889114244	 0.5757621741	 0.115286
H	-1.7487005798	-0.9139122355	-0.9891702286	 0.084583
120.9077	172.4207	227.4175	344.0041	433.9243	491.6283	521.2317	592.5299	644.5391	716.3546	760.3649	798.9856	849.4136	881.1006	902.2668	918.4625	942.374	985.6516	1001.3881	1017.6921	1054.7528	1068.5973	1115.5486	1144.1921	1171.4209	1218.2931	1228.0279	1234.7664	1248.605	1266.8152	1307.4593	1334.8308	1344.4569	1377.6625	1392.313	1446.6287	1516.1936	3026.3085	3066.8558	3076.9611	3086.5954	3120.1075	3185.8305	3206.6577	3783.873
OC1COC2C3OC3C12	O[C@H]1CO[C@H]2[C@H]3O[C@H]3[C@@H]12	
InChI=1S/C6H8O3/c7-2-1-8-4-3(2)5-6(4)9-5/h2-7H,1H2	InChI=1S/C6H8O3/c7-2-1-8-4-3(2)5-6(4)9-5/h2-7H,1H2/t2-,3-,4+,5-,6+/m0/s1
