16
gdb 43832	3.28203	1.47613	1.17849	3.4487	68.54	-0.2524	-0.0152	0.2372	1027.1975	0.124272	-437.865301	-437.857956	-437.857012	-437.897797	28.171	
O	-0.0274940718	 0.0234128474	 0.3945883165	-0.301223
C	-0.0456635711	 1.1847958083	 0.1049524043	 0.377122
C	-1.2832047823	 2.0491975662	-0.1669443064	-0.419967
C	-0.7788147617	 3.4826237927	-0.0790009069	 0.419157
C	-1.5283065017	 4.657813606	-0.5259583201	-0.251778
O	-1.3857729119	 4.3652457883	 0.8682119299	-0.267088
C	 0.7326139778	 3.3981927623	-0.1028335504	-0.122978
C	 1.4011872983	 2.8601397117	 1.1074370535	-0.242715
N	 1.1398283375	 1.9836248451	-0.0569609446	-0.129156
H	-1.6514279051	 1.8156660963	-1.1725616804	 0.149523
H	-2.082665078	 1.8273073984	 0.5421334931	 0.155586
H	-0.9946548517	 5.541516477	-0.8749206932	 0.120364
H	-2.5316339844	 4.5325133082	-0.9317864146	 0.121036
H	 1.2839511834	 4.0321291325	-0.7903634496	 0.110275
H	 2.4505565753	 3.0674757067	 1.2904251204	 0.137991
H	 0.7982202974	 2.7146919829	 1.9999567785	 0.143854
37.7912	171.7164	256.1524	284.3713	352.1496	455.2606	483.368	523.2904	577.9163	654.8641	732.4555	791.3521	816.5322	868.0597	894.0329	925.6225	959.863	996.8196	1029.4034	1080.6255	1100.3047	1122.1898	1125.9631	1150.5607	1165.9082	1184.3423	1242.127	1249.3179	1280.3433	1339.4119	1430.4801	1448.4729	1510.3418	1533.1319	1867.6497	3053.4532	3077.7201	3117.6468	3126.1931	3157.7585	3164.7356	3209.4167
O=C1CC2(CO2)C2CN12	O=C1C[C@]2(CO2)[C@H]2CN12	
InChI=1S/C6H7NO2/c8-5-1-6(3-9-6)4-2-7(4)5/h4H,1-3H2	InChI=1S/C6H7NO2/c8-5-1-6(3-9-6)4-2-7(4)5/h4H,1-3H2/t4-,6+,7?/m1/s1
