14
gdb 28268	4.82751	1.28304	1.02696	2.1046	63.06	-0.189	0.0372	0.2263	1078.8313	0.102402	-473.832294	-473.824935	-473.823991	-473.86485	26.722	
O	 0.0847618621	 1.2675675591	-0.1427766859	-0.401067
C	-0.0575474753	-0.0551868063	-0.0615394354	 0.432813
N	-1.1493812647	-0.7330550336	-0.1100624707	-0.406487
C	-0.6913775291	-2.0548507602	 0.0079785526	 0.136544
C	 0.633927673	-2.0488435541	 0.1225720979	 0.413301
O	 1.3157754373	-3.1895866187	 0.282826801	-0.29024
C	 0.232585829	-4.1987710932	 0.1901957334	-0.092364
C	-1.1682236979	-3.4711423781	 0.1083922059	-0.368789
O	 1.121431166	-0.7812573114	 0.0847126009	-0.256479
H	 1.0217987896	 1.4818142124	-0.0640481038	 0.318787
H	 0.4356335369	-4.7863189089	-0.7075800967	 0.132989
H	 0.3294555609	-4.8365340401	 1.0695945542	 0.133478
H	-1.7754722949	-3.668975061	 0.9996943877	 0.123135
H	-1.736733993	-3.8247386559	-0.7583529711	 0.12438
48.372	134.1291	220.349	285.1191	315.9139	321.8522	524.4285	576.978	674.6365	709.5109	720.4549	741.6853	831.479	839.0878	914.8273	919.5401	944.3867	1075.7092	1146.2279	1188.5772	1194.6245	1239.0639	1266.1096	1307.2994	1363.2184	1384.8678	1466.0045	1501.0045	1520.7616	1694.84	1757.1797	3026.2701	3057.9051	3078.6712	3135.8826	3822.4851
OC1=NC2=C(OCC2)O1	Oc1nc2c(OCC2)o1	
InChI=1S/C5H5NO3/c7-5-6-3-1-2-8-4(3)9-5/h1-2H2,(H,6,7)	InChI=1S/C5H5NO3/c7-5-6-3-1-2-8-4(3)9-5/h1-2H2,(H,6,7)
