18
gdb 29976	3.18913	1.59046	1.12395	1.5015	86.41	-0.1759	0.0018	0.1777	1080.7084	0.150541	-364.857601	-364.85018	-364.849235	-364.889154	29.936	
C	-0.1008686326	 1.5854644355	-0.0206474577	-0.384851
C	 0.0100175529	 0.0507539361	 0.0161587364	-0.195909
C	 0.8374628012	-0.5187738549	-1.1345074278	-0.083687
C	 1.8645411131	-1.2707980394	-0.6841222574	-0.216966
C	 1.8023963733	-1.2627659081	 0.7658640592	 0.291123
C	 0.7393301052	-0.5036240682	 1.2140225296	 0.303281
C	 0.752007915	-0.5424322461	 2.6299291194	-0.338902
C	 1.8306440631	-1.3298234431	 2.9926511676	-0.076281
N	 2.4677241033	-1.7688066016	 1.8467703104	-0.385775
H	 0.8910921839	 2.0440363137	 0.024389625	 0.123034
H	-0.5946010029	 1.9220821343	-0.9382521233	 0.108786
H	-0.683977292	 1.9511496678	 0.8302922542	 0.115608
H	-1.0071391312	-0.3655318427	-0.0454213037	 0.095333
H	 0.6046740728	-0.3181801143	-2.1727176712	 0.091287
H	 2.5975763218	-1.7863888804	-1.2915444664	 0.092627
H	 0.0729594949	-0.0661144405	 3.3210793928	 0.089695
H	 2.1964167533	-1.6140674305	 3.966421759	 0.113817
H	 3.2800220649	-2.3596155676	 1.8302979338	 0.257779
130.8367	162.0968	257.2868	288.1509	355.7762	450.7022	463.7842	545.4603	619.6038	646.6147	669.6045	695.7782	700.86	771.4337	800.2618	818.5618	905.395	923.1173	926.2681	1007.4908	1044.6882	1073.2977	1084.4051	1094.4869	1120.3469	1172.8217	1216.4085	1275.0632	1283.1479	1331.6006	1377.8773	1404.2582	1437.4242	1468.9318	1496.8667	1499.0496	1528.8128	1565.2124	1606.2819	2996.1576	3033.5129	3101.1653	3114.4963	3201.1337	3224.1042	3239.6326	3266.1284	3683.5515
CC1C=CC2=C1C=CN2	C[C@H]1C=Cc2c1cc[nH]2	
InChI=1S/C8H9N/c1-6-2-3-8-7(6)4-5-9-8/h2-6,9H,1H3	InChI=1S/C8H9N/c1-6-2-3-8-7(6)4-5-9-8/h2-6,9H,1H3/t6-/m0/s1
