22
gdb 16240	2.65788	2.13574	1.39066	0.2365	81.24	-0.2573	0.0863	0.3436	989.3796	0.201922	-313.079085	-313.07108	-313.070136	-313.111684	31.859	
C	-0.3111029788	 1.4825684943	-0.0048197997	-0.414224
C	 0.0451760922	-0.0030083543	-0.0115410259	-0.023251
C	 0.9677895142	-0.4170668903	-1.1761608873	-0.207413
C	 1.5522444285	-1.7613704487	-0.7214739425	-0.210755
C	 1.8596587877	-1.5235767961	 0.7689366605	-0.280581
C	 0.7755547077	-0.5397537188	 1.2430611505	 0.385281
C	 1.033368217	 0.3083312	 2.4645333275	-0.314492
C	 0.0107208013	-0.7993520478	 2.5157595534	-0.311918
H	 0.5854428897	 2.1048490242	 0.089408315	 0.114726
H	-0.8158766466	 1.7609397083	-0.9361601161	 0.108918
H	-0.9857401023	 1.738792769	 0.819521095	 0.111157
H	-0.8891685322	-0.5734416226	-0.1157962948	 0.069252
H	 0.4389703175	-0.4703219432	-2.132868919	 0.088776
H	 1.7737629615	 0.3209743779	-1.2895498057	 0.092075
H	 0.7967761711	-2.5489501189	-0.8323074371	 0.096362
H	 2.431339066	-2.0706823052	-1.2939568616	 0.09055
H	 1.8738584988	-2.4492205232	 1.3528594123	 0.092105
H	 2.8519366798	-1.0665074794	 0.8708318189	 0.096243
H	 1.9738918683	 0.1605859504	 2.9870496058	 0.10275
H	 0.6768360877	 1.3323247619	 2.4830162514	 0.107476
H	-1.0379954866	-0.5166811315	 2.5461058701	 0.103107
H	 0.2441140777	-1.694056786	 3.0847733192	 0.103856
31.8929	216.438	246.4525	267.2676	285.0342	348.019	371.1651	477.7362	505.9472	557.2547	667.4461	777.8971	826.8173	847.4107	869.962	906.9665	919.3197	931.6044	961.9309	972.8641	991.7789	1023.5175	1051.1251	1066.2735	1079.9536	1118.7085	1142.3159	1183.6137	1191.5335	1211.8875	1242.5597	1265.7263	1307.9066	1319.4421	1334.1243	1343.3865	1364.4192	1377.3086	1411.5657	1465.8558	1487.9557	1490.351	1495.676	1499.4819	1507.6782	1509.0815	2989.77	3017.	3022.8662	3026.8809	3032.1271	3072.4742	3079.6251	3090.3734	3091.356	3098.1522	3112.782	3124.3528	3192.0111	3210.99
CC1CCCC11CC1	C[C@H]1CCCC21CC2	
InChI=1S/C8H14/c1-7-3-2-4-8(7)5-6-8/h7H,2-6H2,1H3	InChI=1S/C8H14/c1-7-3-2-4-8(7)5-6-8/h7H,2-6H2,1H3/t7-/m0/s1
