17
gdb 33008	5.15001	0.98806	0.83766	1.7805	78.74	-0.2477	-0.0356	0.2121	1364.5667	0.137764	-418.071348	-418.063359	-418.062414	-418.104521	29.197	
C	-0.1154553932	 1.5042626625	 0.0122634929	-0.391356
C	 0.0162158147	-0.0071922693	 0.0037225209	-0.031012
O	-1.3144514468	-0.5477480725	 0.010972562	-0.24965
C	-1.4522769001	-1.8758154905	 0.0056404498	 0.471575
N	-0.3580836175	-2.6401490039	-0.0060497562	-0.338063
C	-0.5708530025	-3.9585773371	-0.0104200875	 0.013293
C	-1.8416600568	-4.5126544661	-0.0033290947	-0.148433
C	-2.8998938937	-3.6050655292	 0.0088643113	 0.013232
N	-2.7257218165	-2.2883398456	 0.0135210752	-0.300275
H	 0.8779097841	 1.9626568661	 0.0070545579	 0.119313
H	-0.6626426695	 1.8522917513	-0.8681880151	 0.131562
H	-0.6492724016	 1.8434483246	 0.9042974093	 0.131561
H	 0.5484826246	-0.365578655	-0.8835946946	 0.117427
H	 0.561688331	-0.3744038147	 0.8793303364	 0.117438
H	 0.3180754055	-4.5858542594	-0.0200221032	 0.117526
H	-2.0027601439	-5.5827937228	-0.0069997835	 0.106914
H	-3.9318176977	-3.9506730286	 0.0151138488	 0.118948
62.4427	112.8826	167.4643	200.3021	261.3341	346.7054	424.0864	481.4684	544.2779	640.2416	657.5606	810.371	819.095	835.3207	848.0293	957.3539	1000.7394	1002.95	1012.6137	1069.4245	1102.9722	1113.071	1138.556	1182.2521	1267.3129	1290.6646	1310.7537	1368.1218	1397.1747	1416.7228	1469.8232	1477.2599	1485.1459	1497.2812	1524.3836	1596.5731	1633.2134	3043.9837	3047.2511	3082.1844	3121.9727	3127.3721	3150.3893	3152.6476	3219.6154
CCOC1=NC=CC=N1	CCOc1ncccn1	
InChI=1S/C6H8N2O/c1-2-9-6-7-4-3-5-8-6/h3-5H,2H2,1H3	InChI=1S/C6H8N2O/c1-2-9-6-7-4-3-5-8-6/h3-5H,2H2,1H3
