17
gdb 44062	3.20341	1.69018	1.50196	2.5715	74.5	-0.2373	0.0206	0.2578	923.8699	0.138364	-417.903197	-417.896638	-417.895694	-417.933815	27.6	
N	 0.0239928655	 1.2165882008	 0.0576708568	-0.575873
C	-0.0570956403	-0.040389303	 0.0504070558	 0.449923
O	 0.9705154241	-0.948739307	 0.111012333	-0.29699
C	 0.2661430916	-2.2566747456	 0.0675895075	 0.358217
C	 1.0855476752	-3.0743493929	-0.9585593726	-0.258697
N	 0.3223536589	-2.3389492959	-2.0715512655	-0.369521
C	-0.742333364	-2.0587982385	-1.0145948884	 0.025941
C	-1.2610565031	-0.9232260029	-0.0307184346	-0.185464
C	-0.853160655	-2.0048440794	 1.1135789091	-0.330896
H	 1.0000935674	 1.5130105103	 0.1197541149	 0.222826
H	 2.1678993916	-2.9322698753	-0.9548454664	 0.127795
H	 0.8352324647	-4.1365168017	-0.9865836858	 0.126761
H	 0.8408618047	-1.4887205964	-2.2820931074	 0.239091
H	-1.4912761327	-2.8487389022	-1.0833294235	 0.10661
H	-2.2399167911	-0.4544288641	-0.084727821	 0.106588
H	-1.5802257265	-2.8129748289	 1.1940340313	 0.12543
H	-0.5845146111	-1.6062177473	 2.0939204566	 0.128258
148.6221	283.2081	336.442	353.6567	449.279	478.2646	576.13	605.0413	713.7648	746.5688	782.4704	810.1918	817.2222	834.0418	879.6144	892.7652	894.98	941.9539	982.2277	991.8172	1012.7059	1033.6775	1073.6508	1111.867	1140.7162	1176.7293	1181.8348	1205.8579	1227.972	1266.5368	1272.824	1316.8014	1338.4479	1392.1257	1482.3735	1487.0631	1807.3229	3073.6888	3079.9244	3102.8124	3139.843	3157.4056	3165.7408	3466.0518	3502.6091
N=C1OC23CNC2C1C3	[NH][C]1O[C@]23CN[C@@H]2[C@H]1C3	
InChI=1S/C6H8N2O/c7-5-3-1-6(9-5)2-8-4(3)6/h3-4,7-8H,1-2H2	InChI=1S/C6H8N2O/c7-5-3-1-6(9-5)2-8-4(3)6/h3-4,7-8H,1-2H2/t3-,4-,6-/m1/s1
