17
gdb 68743	2.55049	1.74229	1.2552	3.9527	74.24	-0.238	-0.0544	0.1837	1013.393	0.13482	-421.842843	-421.834439	-421.833494	-421.87542	32.127	
C	-0.0077703134	 1.532026106	 0.0166532469	-0.475719
C	-0.0242594111	 0.027683569	 0.0929592567	 0.152986
C	 1.2363351612	-0.7824601359	-0.2237264324	-0.377157
C	 0.6376669217	-0.7847046018	 1.1703409034	 0.321722
O	 1.2938535942	-0.1643650243	 2.2288875364	-0.465855
C	-0.2825744723	-1.9402056336	 1.4402008158	-0.133173
C	-1.3539648394	-1.9240951323	 0.6369049678	-0.194701
C	-1.3186356676	-0.708000537	-0.2270573553	 0.34196
O	-2.1581970255	-0.3474415782	-1.0186236177	-0.333077
H	 0.955575384	 1.9291179122	 0.345544897	 0.123103
H	-0.1974987815	 1.862194084	-1.0086468226	 0.136829
H	-0.7857986625	 1.9627143639	 0.6543907775	 0.130682
H	 1.1692472347	-1.6798518023	-0.829698765	 0.12304
H	 2.1370014845	-0.1910331309	-0.3638579714	 0.121697
H	 2.117252855	-0.6352529489	 2.3959039146	 0.289787
H	-0.0471361028	-2.6959703275	 2.1821548544	 0.116613
H	-2.146623109	-2.6580738924	 0.5784767836	 0.121261
117.9615	139.8577	201.533	252.1848	261.6647	273.2791	344.0119	419.2918	457.687	508.477	584.0473	684.5399	695.0454	737.7959	753.0468	831.8519	873.0421	901.9083	962.1727	977.1287	979.3937	1038.4867	1065.9653	1104.0856	1122.1509	1140.7416	1211.4344	1287.1601	1325.7527	1358.8719	1408.7265	1412.595	1481.738	1483.7744	1499.0669	1632.4592	1812.9536	3044.6044	3110.0713	3117.5567	3126.3723	3189.9982	3213.1909	3232.039	3803.3872
CC12CC1(O)C=CC2=O	C[C@@]12C[C@]1(O)C=CC2=O	
InChI=1S/C7H8O2/c1-6-4-7(6,9)3-2-5(6)8/h2-3,9H,4H2,1H3	InChI=1S/C7H8O2/c1-6-4-7(6,9)3-2-5(6)8/h2-3,9H,4H2,1H3/t6-,7+/m0/s1
