16
gdb 30951	2.40247	1.39941	0.93499	3.6371	69.66	-0.2072	0.0354	0.2426	1232.5883	0.122956	-475.046007	-475.037192	-475.036248	-475.0799	31.884	
C	-0.280096484	 1.563819404	-0.1221079347	-0.375058
C	 0.0903557595	 0.0759106811	 0.0078576102	-0.304917
C	 0.8602474444	-0.443784716	-1.1471674683	 0.220284
C	 2.0935818463	-0.9153783386	-1.3084650364	 0.251862
O	 3.1248050836	-1.036540637	-0.464942084	-0.415094
O	 2.3041463011	-1.2560119565	-2.6364062791	-0.247567
C	 1.1277661054	-0.9663730028	-3.2997258891	 0.498954
N	 0.8690497258	-1.1332278979	-4.5174181299	-0.577299
O	 0.2460169032	-0.4511240927	-2.4077676935	-0.235741
H	 0.6177656515	 2.1862487115	-0.1774702473	 0.125067
H	-0.8699263431	 1.7386731045	-1.0258300989	 0.14089
H	-0.8707953942	 1.8873177527	 0.739657753	 0.118149
H	 0.694404602	-0.0908226326	 0.9054158496	 0.126216
H	-0.8255470647	-0.5179882622	 0.1251785938	 0.12414
H	 3.5605865713	-1.8860952477	-0.6122689674	 0.315678
H	 1.6699601318	-1.5241664099	-5.0056117879	 0.234437
68.9274	116.2402	174.0896	194.4906	201.9881	274.7935	288.0312	361.5732	429.4317	563.8458	622.4681	649.9394	662.4327	730.2541	768.5265	784.4823	817.6077	943.165	970.9273	1015.5088	1030.7712	1082.9291	1109.7936	1231.1464	1250.5293	1284.5342	1334.4564	1356.788	1393.6067	1410.688	1470.9941	1495.7471	1507.3686	1790.1005	1863.6143	3024.1266	3045.0263	3083.7598	3117.855	3126.0064	3550.6928	3772.0227
CCC1=C(O)OC(=N)O1	CCC1=C(O)O[C@@H]([NH])O1	
InChI=1S/C5H7NO3/c1-2-3-4(7)9-5(6)8-3/h6-7H,2H2,1H3	InChI=1S/C5H8NO3/c1-2-3-4(7)9-5(6)8-3/h5-7H,2H2,1H3/t5-/m0/s1
