16
gdb 28329	4.86057	1.27621	1.02902	3.978	71.89	-0.1729	0.0493	0.2221	1114.391	0.127841	-434.095964	-434.088504	-434.08756	-434.127837	28.372	
N	 0.0187245882	 1.3633028439	-0.0447876236	-0.593539
C	-0.0570438401	-0.0291906072	-0.0291546251	 0.301148
C	-1.1582266763	-0.8394818874	 0.1191972757	-0.258737
N	-0.6288951037	-2.1407805005	 0.0696073747	-0.046019
C	-1.0569594973	-3.4892865087	-0.2285258272	-0.202913
C	 0.3298268799	-4.1927565972	-0.195387165	-0.100135
O	 1.3114282222	-3.1622556556	-0.4479246102	-0.268522
C	 0.6880395006	-1.9930422866	-0.1877761102	 0.487626
N	 1.109280158	-0.7630562994	-0.2346847538	-0.436891
H	 0.9596398152	 1.6753588037	 0.1559963493	 0.250913
H	-0.6462327884	 1.8158517189	 0.5670630876	 0.240847
H	-2.1882997801	-0.6372705623	 0.3526927859	 0.111194
H	-1.7373248888	-3.8998926954	 0.5226698552	 0.127476
H	-1.5395282592	-3.5543416073	-1.2130039063	 0.126179
H	 0.5233857052	-4.6233204856	 0.7930992372	 0.127718
H	 0.4439986646	-4.9648479332	-0.9569227943	 0.133654
114.1226	163.0488	213.6851	267.0093	309.3676	316.8488	519.8643	566.2659	584.7806	649.3639	713.8256	719.6986	759.0092	760.7367	864.8446	891.2703	945.0436	996.4134	1037.4743	1098.1379	1134.6977	1153.939	1206.6954	1216.6747	1254.37	1302.215	1358.3748	1384.028	1406.1664	1493.7458	1517.4782	1543.2799	1606.2832	1637.1388	1648.7384	3012.6574	3048.1419	3083.7835	3132.1076	3287.7747	3549.2262	3647.2623
NC1=CN2CCOC2=N1	Nc1cn2CCOc2n1	
InChI=1S/C5H7N3O/c6-4-3-8-1-2-9-5(8)7-4/h3H,1-2,6H2	InChI=1S/C5H7N3O/c6-4-3-8-1-2-9-5(8)7-4/h3H,1-2,6H2
