19
gdb 86018	2.95103	1.13023	1.08378	1.1504	83.69	-0.2477	0.0067	0.2545	1238.8416	0.157248	-385.866127	-385.856821	-385.855877	-385.899984	35.585	
C	 0.0666161349	 1.6464637184	-0.0087843307	-0.398694
C	 0.0492446269	 0.1141573122	 0.0293424923	-0.019164
C	 0.7606873052	-0.5524973528	-1.1732728828	-0.268641
C	 1.4801046751	-1.8143457588	-0.6213951059	 0.214506
O	 2.7707142309	-1.8853990282	-1.2376680704	-0.462847
C	 1.5448995972	-1.5199427967	 0.8714595457	-0.137601
C	 0.7792459956	-0.4872887425	 1.2097301023	-0.059541
C	 0.7402570194	-3.0592861683	-0.8682182513	 0.303832
C	 0.1662421944	-4.1003213492	-1.0528633349	-0.510732
H	 1.094452847	 2.0248229295	-0.0248373484	 0.120293
H	-0.4456498164	 2.022774204	-0.9003702533	 0.116462
H	-0.4355919623	 2.0702670826	 0.8674246491	 0.112504
H	-1.0010691485	-0.2112114753	 0.0625788306	 0.087956
H	 0.0926519026	-0.7844935689	-2.0042568806	 0.108418
H	 1.5529418077	 0.1041164679	-1.5458169559	 0.119701
H	 3.1135893261	-2.7753104922	-1.1020576348	 0.281297
H	 2.1340884827	-2.1378132737	 1.5393988517	 0.096487
H	 0.6524825149	-0.1086701122	 2.2192333795	 0.096316
H	-0.3513580436	-5.0124335757	-1.2208443722	 0.199448
57.3885	135.5036	170.3897	226.1174	240.384	266.2397	292.5371	374.8885	402.0454	469.54	517.9565	567.6103	621.561	640.2363	657.5409	676.3738	786.3088	800.0934	851.1282	895.2009	935.8455	972.3537	1007.9539	1037.0235	1053.5172	1116.1501	1125.505	1145.1434	1160.5334	1245.1321	1291.7981	1312.186	1332.4602	1356.7808	1385.9347	1408.9819	1481.4596	1497.0444	1498.9239	1685.4826	2223.5828	2992.0312	3028.5282	3062.8463	3098.4039	3100.9261	3123.9215	3175.8544	3206.9837	3500.1088	3811.6705
CC1CC(O)(C=C1)C#C	C[C@H]1C[C@@](O)(C=C1)C#C	
InChI=1S/C8H10O/c1-3-8(9)5-4-7(2)6-8/h1,4-5,7,9H,6H2,2H3	InChI=1S/C8H10O/c1-3-8(9)5-4-7(2)6-8/h1,4-5,7,9H,6H2,2H3/t7-,8+/m1/s1
