21
gdb 59105	2.08345	1.60041	1.01185	2.5063	81.	-0.2219	0.0238	0.2457	1236.3365	0.181403	-420.394035	-420.384316	-420.383372	-420.428466	35.954	
C	-0.7245960098	 1.3115192192	 0.1816126474	-0.4034
C	-0.1721823841	-0.0950081485	 0.1187974122	 0.113127
O	 0.8786928066	-0.1951768373	-0.9092335189	-0.263022
C	 1.8384842453	-0.4968948756	 0.022350155	 0.430455
N	 3.0747870077	-0.6681419093	-0.1126607913	-0.551657
C	 0.8653231872	-0.560047776	 1.1908577975	-0.103526
N	 1.1063767377	 0.2982312463	 2.3304729473	-0.071819
C	 0.0403354366	 0.1660706403	 3.3152835479	-0.322192
C	 2.4111854152	 0.062383924	 2.9473203291	-0.328956
H	 0.0388670244	 2.0119723068	 0.5259087777	 0.141989
H	-1.0673611321	 1.6109288247	-0.8133332227	 0.130446
H	-1.5796733827	 1.3651845687	 0.8620545095	 0.122591
H	-0.9512288428	-0.8313895818	-0.0981858542	 0.091509
H	 3.3589700193	-0.5408460737	-1.0859498886	 0.227254
H	 0.6903261191	-1.6130941836	 1.4838200376	 0.081717
H	-0.0082004474	-0.8480089969	 3.7567049386	 0.095573
H	 0.2031646504	 0.8809945819	 4.1271651875	 0.123721
H	-0.9306742993	 0.3847563619	 2.8631862084	 0.117318
H	 3.1998533742	 0.1440260788	 2.1995447983	 0.164396
H	 2.5743163956	 0.8130997485	 3.7267451116	 0.113385
H	 2.4831257388	-0.9370475884	 3.4157738799	 0.091089
83.1587	84.8789	177.7374	199.5443	221.4237	235.6187	258.0108	325.6016	333.0487	380.2114	419.4388	469.2017	549.8798	637.1925	737.2345	821.3806	870.1989	880.2472	903.2779	954.6268	1032.9145	1041.0948	1068.4886	1073.7656	1119.3213	1124.7381	1149.3091	1189.5392	1210.8852	1241.1197	1270.5503	1316.0981	1338.2319	1370.9073	1381.4876	1413.2784	1445.1152	1475.1092	1482.7051	1485.6315	1490.8716	1497.8078	1501.0803	1514.7313	1816.0828	2912.3673	2925.6115	2938.4214	3047.3292	3070.1641	3071.188	3073.4999	3112.8316	3118.7143	3141.8104	3152.6955	3469.2029
CC1OC(=N)C1N(C)C	C[C@H]1O[C]([NH])[C@H]1N(C)C	
InChI=1S/C6H12N2O/c1-4-5(8(2)3)6(7)9-4/h4-5,7H,1-3H3	InChI=1S/C6H12N2O/c1-4-5(8(2)3)6(7)9-4/h4-5,7H,1-3H3/t4-,5+/m1/s1
