18
gdb 52226	3.73893	0.70443	0.63512	5.031	76.61	-0.2536	-0.0264	0.2272	1705.7138	0.146515	-439.105088	-439.095638	-439.094694	-439.141336	32.939	
O	-0.2930480396	 0.7496372884	-0.8875620831	-0.315838
C	-0.057047011	 1.3832756097	 0.1180262612	 0.155152
N	 1.1630526057	 1.4874710592	 0.7149042689	-0.272758
C	 2.3636035178	 0.8634421104	 0.1805496718	-0.1958
C	 3.3958822879	 1.901457508	-0.2158413718	-0.006173
C	 4.3968833433	 2.4282347239	 0.7599459748	-0.309896
C	 4.8759948527	 1.5672842576	-0.4039670633	-0.109837
C	 5.4199868942	 0.2199146532	-0.1146795553	 0.166114
O	 6.2855599344	-0.3135098943	-0.7630657146	-0.264103
H	-0.8305075207	 1.9530111719	 0.6700867059	 0.077836
H	 1.2438512553	 2.0676948006	 1.5350310918	 0.248712
H	 2.7739165703	 0.1635150258	 0.9171797323	 0.111676
H	 2.0401029716	 0.2830739043	-0.6866215571	 0.162623
H	 3.0210049219	 2.61261198	-0.9466533673	 0.115253
H	 4.6649800465	 3.4781075826	 0.7454895554	 0.133496
H	 4.4340573547	 1.9685397118	 1.7441407984	 0.122422
H	 5.3783488887	 2.0638647275	-1.2267966641	 0.114928
H	 4.9861385162	-0.2828874006	 0.780503206	 0.066193
29.5085	49.6478	95.7906	152.1343	206.989	246.857	294.7161	336.4584	409.2229	432.2152	533.8089	544.7889	742.3994	827.2852	846.5833	877.4467	909.0131	939.5386	1002.5439	1032.4048	1046.5838	1056.7753	1079.1813	1138.8036	1161.1563	1190.9631	1210.0626	1227.3007	1285.3981	1340.0144	1363.3249	1420.5046	1430.5435	1452.4172	1482.8431	1492.957	1531.3652	1808.0909	1820.2752	2858.9303	2938.989	3040.6091	3117.0215	3125.4328	3152.6966	3180.0757	3218.8668	3631.9287
O=CNCC1CC1C=O	O=CNC[C@H]1C[C@H]1C=O	
InChI=1S/C6H9NO2/c8-3-6-1-5(6)2-7-4-9/h3-6H,1-2H2,(H,7,9)	InChI=1S/C6H9NO2/c8-3-6-1-5(6)2-7-4-9/h3-6H,1-2H2,(H,7,9)/t5-,6+/m1/s1
