22
gdb 120973	3.64465	0.85781	0.8314	1.5191	81.26	-0.2241	0.0756	0.2998	1484.0032	0.195694	-404.321843	-404.312821	-404.311877	-404.356117	34.07	
O	-0.4104064463	 1.443386429	-0.4155378805	-0.421011
C	-0.1332485085	 0.0813995625	-0.1259152795	-0.078398
C	-1.4501628143	-0.683625251	-0.1895459376	-0.188468
C	-1.3012554837	-2.1808404184	 0.1275913606	-0.006632
C	-2.6570540602	-2.9244569803	 0.3098109721	-0.257034
C	-2.787118683	-3.8451741924	-0.8925680281	-0.00566
C	-2.6570540736	-3.2512870771	-2.2466250672	-0.25123
N	-1.5104662932	-3.9313267171	-1.6254752386	-0.090693
C	-0.5609539381	-3.0186171621	-0.9632459896	-0.176392
H	 0.4182372628	 1.9305863803	-0.3935025705	 0.285702
H	 0.589170964	-0.3364929872	-0.845300111	 0.088294
H	 0.30906871	-0.0317668594	 0.878317109	 0.083512
H	-2.1374007787	-0.2232073766	 0.5304386376	 0.106327
H	-1.8906988105	-0.5256788211	-1.1808043815	 0.109576
H	-0.7360541089	-2.2504255451	 1.064261691	 0.074428
H	-2.6479887901	-3.524277197	 1.225536825	 0.102779
H	-3.4967848652	-2.2268752949	 0.3939572966	 0.105995
H	-3.3333928431	-4.7762170373	-0.766477328	 0.086488
H	-3.0720294289	-3.7653907182	-3.1093610965	 0.112979
H	-2.642276346	-2.1682509838	-2.3367785783	 0.112015
H	-0.0702975872	-2.3897316921	-1.7140894566	 0.10373
H	 0.2155936826	-3.6403582507	-0.5056170983	 0.103692
73.7422	88.6592	116.88	175.2953	270.8608	274.4188	314.1361	378.9348	405.5414	460.6902	659.1499	718.7909	745.6123	797.1127	833.2279	843.427	889.1248	929.0086	947.0596	994.0683	1009.1778	1027.7214	1051.615	1077.7452	1089.3626	1106.0317	1123.3246	1146.2934	1175.3188	1208.0195	1228.5188	1235.6863	1256.5432	1270.0874	1291.4276	1312.8327	1323.3198	1340.196	1350.4151	1385.2313	1397.8031	1464.2719	1487.9759	1495.3534	1499.2644	1515.6986	1527.5863	2957.2225	2985.2052	3021.0207	3033.1032	3038.9035	3047.2435	3073.1569	3079.1758	3082.3905	3108.1585	3140.4474	3190.4443	3830.721
OCCC1CC2CN2C1	OCC[C@H]1C[C@H]2CN2C1	
InChI=1S/C7H13NO/c9-2-1-6-3-7-5-8(7)4-6/h6-7,9H,1-5H2	InChI=1S/C7H13NO/c9-2-1-6-3-7-5-8(7)4-6/h6-7,9H,1-5H2/t6-,7-,8?/m0/s1
