12
gdb 131072	7.02164	0.86379	0.77754	0.761	58.51	-0.2395	-0.0345	0.205	1320.083	0.077826	-505.99714	-505.989342	-505.988398	-506.030283	27.091	
O	 0.015768371	-0.0122334147	 0.0515371794	-0.232401
C	 0.0072239394	 1.1607087931	-0.1156151824	 0.173872
O	 1.0797867933	 1.9388108632	 0.2982630444	-0.22846
C	 0.9548730884	 3.2778507874	 0.2076337378	 0.519522
N	-0.1350416095	 3.9588645146	 0.3301474542	-0.302984
N	 0.291354501	 5.2650680114	 0.1451159888	-0.30358
C	 1.650546083	 5.3990190553	-0.0412583368	 0.476586
O	 2.3269821333	 6.3870735753	-0.1922395775	-0.403566
N	 2.0584351978	 4.047724322	-0.0173588583	-0.426109
H	-0.7765332342	 1.7657334501	-0.5916676158	 0.143854
H	-0.3586204724	 6.0224771748	 0.2599265688	 0.289491
H	 3.008167719	 3.7359728576	-0.1273424826	 0.293775
61.199	119.9887	152.8573	186.7678	310.1748	366.945	450.3874	484.5325	486.6749	567.5634	697.6854	741.577	762.676	843.5201	980.9624	1026.6503	1035.8666	1066.2347	1121.5069	1247.6631	1271.6046	1387.0759	1399.0193	1511.2704	1664.0547	1872.7507	1895.6183	3063.3587	3686.3737	3699.017
O=COC1=NNC(=O)N1	O=COc1n[nH]c(=O)[nH]1	
InChI=1S/C3H3N3O3/c7-1-9-3-4-2(8)5-6-3/h1H,(H2,4,5,6,8)	InChI=1S/C3H3N3O3/c7-1-9-3-4-2(8)5-6-3/h1H,(H2,4,5,6,8)
