19
gdb 59613	3.03447	1.14527	1.0294	2.8862	71.87	-0.2726	0.004	0.2765	1245.8812	0.158202	-460.214515	-460.205422	-460.204478	-460.248751	33.044	
C	 0.0106275567	 1.5123476449	-0.0197487196	-0.401066
C	 0.0170071332	-0.017143272	 0.1026093941	-0.003387
C	 0.7993739691	-0.4985749603	 1.3300000175	-0.40024
C	-1.4088635318	-0.5537460321	 0.0913612808	 0.237499
O	-1.4207358244	-1.9666188782	 0.0818744276	-0.261592
C	-2.5609661122	-2.3783423712	 0.8070116647	-0.232149
C	-2.8858501818	-1.1932715161	 1.7089035555	 0.402114
O	-3.6443816218	-1.1281830699	 2.6282400045	-0.323142
O	-2.1297742545	-0.1541533239	 1.2688398948	-0.23034
H	 1.0335811608	 1.8944067115	-0.0799969251	 0.120174
H	-0.5237158092	 1.843699071	-0.9165598117	 0.114791
H	-0.4717268539	 1.9702014501	 0.8492177171	 0.138414
H	 0.4796440668	-0.4403489672	-0.7991434922	 0.094074
H	 0.3692371537	-0.0925320655	 2.2504513991	 0.131874
H	 0.7913577482	-1.5890415241	 1.3977885332	 0.126706
H	 1.8397279246	-0.166822643	 1.2689455688	 0.114879
H	-1.9673964802	-0.1618410815	-0.7748277101	 0.085473
H	-3.4212604741	-2.591504121	 0.1540560263	 0.133968
H	-2.3326158994	-3.2719678014	 1.3919340548	 0.151952
71.7348	88.556	143.6167	200.346	214.1408	236.5168	278.0514	339.6348	434.6904	498.1189	560.4756	584.881	680.3194	748.8106	822.9392	883.6352	930.2291	950.5872	960.735	981.6685	1036.2666	1051.2741	1095.7694	1138.978	1161.6978	1202.2583	1216.5058	1228.3561	1325.5026	1339.4433	1355.979	1392.1959	1399.0801	1407.3257	1432.0528	1488.734	1493.3091	1494.3882	1503.0896	1517.3839	1902.7134	2968.3644	2998.5386	3025.5844	3037.0849	3047.0409	3104.669	3109.3923	3114.0979	3118.7715	3126.9951
CC(C)C1OCC(=O)O1	CC(C)[C@H]1OCC(=O)O1	
InChI=1S/C6H10O3/c1-4(2)6-8-3-5(7)9-6/h4,6H,3H2,1-2H3	InChI=1S/C6H10O3/c1-4(2)6-8-3-5(7)9-6/h4,6H,3H2,1-2H3/t6-/m0/s1
