19
gdb 59151	3.12603	1.3007	1.17438	1.1843	73.95	-0.2324	0.0546	0.2871	1119.5413	0.157642	-422.932864	-422.924441	-422.923497	-422.965881	32.875	
C	 0.2642517858	 1.0831107103	-0.5417340222	-0.393247
C	 0.1695342179	-0.1580336457	 0.3460243133	 0.083564
O	 0.2601481859	 0.1980986868	 1.733328809	-0.452841
C	-1.1861109245	-0.8517786411	 0.2322647675	 0.032414
C	-2.0204072556	-1.1960734852	-0.9785987399	-0.144335
C	-1.2305560342	-1.8721414402	-2.1377117031	 0.018821
O	 0.1626290341	-1.9262901084	-1.8005200646	-0.241413
C	-0.7298268301	-2.9064489113	-1.2427050891	 0.017898
C	-1.5075737405	-2.295443134	-0.0344391262	-0.140915
H	 1.213023802	 1.6056837004	-0.3712654162	 0.096908
H	 0.2187209052	 0.8069900487	-1.5980736677	 0.127712
H	-0.551744236	 1.7781899584	-0.3192865937	 0.114182
H	 0.9740401201	-0.8514098208	 0.0890152001	 0.087537
H	 1.1189755191	 0.6101336613	 1.8696357566	 0.276803
H	-1.8363557056	-0.4654619696	 1.0168875932	 0.108673
H	-3.0383907481	-0.8468501469	-1.0971116246	 0.092896
H	-1.4957254568	-1.8870652977	-3.187835961	 0.109332
H	-0.4898030275	-3.9502128264	-1.4037177609	 0.11018
H	-2.0833327115	-2.9081353786	 0.6474412196	 0.095829
61.9239	152.9884	192.2613	243.2935	267.6598	320.756	364.2056	401.6898	469.5655	572.2223	663.4547	725.4452	727.6349	770.343	821.821	853.693	879.5463	897.3776	928.6059	951.637	966.5863	1002.5191	1032.3043	1042.11	1049.604	1081.8698	1111.7744	1121.0579	1176.9219	1234.1861	1235.8176	1270.368	1279.3654	1317.0778	1356.3407	1369.3826	1400.732	1407.3924	1449.6492	1493.4912	1500.0395	3029.3108	3068.8402	3097.3482	3119.3442	3126.7698	3181.2741	3191.2431	3193.8179	3204.158	3820.1982
CC(O)C1C2C3OC3C12	C[C@@H](O)[C@H]1[C@H]2[C@H]3O[C@H]3[C@@H]12	
InChI=1S/C7H10O2/c1-2(8)3-4-5(3)7-6(4)9-7/h2-8H,1H3	InChI=1S/C7H10O2/c1-2(8)3-4-5(3)7-6(4)9-7/h2-8H,1H3/t2-,3-,4+,5-,6+,7-/m1/s1
