18
gdb 94406	2.60686	1.39979	1.2355	3.0248	72.95	-0.257	0.0061	0.2631	1103.0697	0.147372	-439.063003	-439.054556	-439.053612	-439.096698	31.099	
C	-0.3394094722	 1.4092438138	-0.056627557	-0.415704
C	 0.0780522809	-0.0520897565	-0.1129393108	-0.110043
C	 1.4197260214	-0.3773984792	-0.8064132402	-0.08769
O	 1.9767151833	-0.8869120898	 0.4287208101	-0.305646
C	 0.7624822698	-0.6620631436	 1.1366035394	 0.293674
C	 0.8383868281	-0.0085043044	 2.5322233354	-0.141715
O	 0.150889324	-1.1630941363	 3.1117556396	-0.262117
C	 0.1238026284	-1.8191125208	 1.8970832208	 0.388562
N	-0.3053751415	-2.9508101821	 1.5766004156	-0.548235
H	 0.476396926	 2.0466070927	 0.3016058487	 0.122297
H	-0.6255630323	 1.7636671681	-1.0524002646	 0.127045
H	-1.2000547745	 1.5550132941	 0.6044668215	 0.127585
H	-0.7457328101	-0.6787646098	-0.4612669142	 0.10874
H	 1.3829437993	-1.1493302072	-1.5819490679	 0.118267
H	 1.985003345	 0.4863507125	-1.1767632216	 0.102983
H	 1.8561594445	 0.0840396013	 2.9185733855	 0.131531
H	 0.2704968469	 0.910518414	 2.6937635912	 0.119605
H	-0.6790163071	-3.4578887668	 2.3808624585	 0.230861
47.8076	109.9398	154.7685	221.3446	252.1083	273.9439	357.3439	399.3647	503.7015	578.9129	660.5559	759.1378	784.4202	865.1272	890.6971	895.7402	919.2604	954.4111	978.157	1008.2899	1023.2804	1076.3205	1126.1487	1142.4984	1153.7689	1171.923	1194.2099	1229.7119	1240.5618	1279.0963	1340.0897	1361.6885	1379.0022	1413.9053	1495.431	1497.1815	1504.8658	1524.7067	1824.4956	3024.5312	3031.2002	3065.2853	3074.1524	3086.8352	3101.1229	3106.5905	3129.8634	3475.3083
CC1COC11COC1=N	C[C@H]1CO[C@]21CO[C]2[NH]	
InChI=1S/C6H9NO2/c1-4-2-9-6(4)3-8-5(6)7/h4,7H,2-3H2,1H3	InChI=1S/C6H9NO2/c1-4-2-9-6(4)3-8-5(6)7/h4,7H,2-3H2,1H3/t4-,6-/m0/s1
