16
gdb 16527	3.61305	2.41489	1.84283	1.9544	62.91	-0.2383	0.0626	0.3009	743.7568	0.131892	-383.69951	-383.693239	-383.692295	-383.729447	25.64	
O	-0.0721569291	 1.3128715725	-0.0006124918	-0.472917
C	 0.0129647312	-0.0754709339	-0.0114717675	 0.374465
C	 1.0101427119	-0.745403664	-0.9588037261	-0.153492
O	 0.4233582733	-2.0051750506	-1.2953690318	-0.261639
C	-0.6280723635	-2.232980009	-0.364160345	 0.081002
C	-0.0947075951	-2.3155733975	 1.1064858689	-0.25661
C	-0.4177829808	-0.8274710334	 1.24232986	-0.142234
C	-1.2584663618	-0.8597320849	-0.036241359	-0.129903
H	 0.6158033219	 1.6523752693	 0.5815880182	 0.287914
H	 1.1283618781	-0.142624554	-1.8665652528	 0.111407
H	 2.0018718375	-0.8945739868	-0.5077237882	 0.090061
H	-1.243535372	-3.0520042837	-0.7321221992	 0.086986
H	-0.7496564448	-2.9240116901	 1.7366241894	 0.104918
H	 0.9406672472	-2.6519392781	 1.2262476272	 0.096581
H	-0.6210718406	-0.2790507401	 2.1552439612	 0.085368
H	-2.2338706034	-0.4572216058	-0.2705408334	 0.098094
214.0438	266.1504	316.3863	369.5557	411.7401	447.5314	582.325	660.8327	697.0633	793.6408	843.1732	860.3064	871.9339	925.1682	960.3616	974.9308	997.6677	1000.2107	1049.2819	1078.6052	1104.6656	1117.5946	1171.7045	1202.379	1204.455	1235.5796	1269.8563	1273.4523	1319.2917	1332.8083	1363.4597	1442.2673	1491.0645	1523.8634	2995.0103	3041.1459	3056.6325	3096.9457	3134.8948	3176.2221	3217.8852	3801.9789
OC12COC3CC1C23	O[C@@]12CO[C@H]3C[C@@H]1[C@@H]23	
InChI=1S/C6H8O2/c7-6-2-8-4-1-3(6)5(4)6/h3-5,7H,1-2H2	InChI=1S/C6H8O2/c7-6-2-8-4-1-3(6)5(4)6/h3-5,7H,1-2H2/t3-,4+,5-,6+/m1/s1
