18
gdb 37829	3.04993	1.86938	1.70531	1.3403	75.15	-0.2278	0.0661	0.2939	876.777	0.149372	-401.820257	-401.813558	-401.812614	-401.851402	27.314	
C	-0.0731859688	 1.6162582914	 0.0996763708	-0.308588
C	 1.4096140204	 1.2518793785	 0.0102253242	-0.062982
N	 1.2081328827	-0.0217907732	 0.8899160767	-0.199035
C	 1.9355975536	-0.8535418135	-0.1662187253	-0.226688
C	 1.1848393959	 0.1263840248	-1.0630070612	 0.220107
C	 0.5489313485	-0.0907543172	-2.4107674563	-0.194463
O	-0.5806374833	-0.9506536493	-2.1083961408	-0.284757
C	-0.9747030019	-0.8850272357	-0.7130916794	-0.196408
C	-0.013974447	 0.0993531689	-0.0964064679	 0.294095
H	-0.4238677593	 1.9680680784	 1.0731468918	 0.112174
H	-0.4889158062	 2.2075684969	-0.719817904	 0.108062
H	 2.2995101455	 1.8668389997	 0.1559865657	 0.087277
H	 3.0253569015	-0.7681287937	-0.1078760663	 0.099933
H	 1.6365442703	-1.9063621897	-0.173191192	 0.110996
H	 0.2021987308	 0.8493856624	-2.8633818938	 0.099091
H	 1.1702826291	-0.6213305136	-3.1377501739	 0.11317
H	-2.0168369656	-0.5522740535	-0.6508234207	 0.111283
H	-0.9015872263	-1.8889511417	-0.2788862974	 0.116731
70.0683	251.0546	281.4145	389.1388	421.8331	483.8351	546.2419	698.4811	732.5455	748.7011	816.4475	849.4332	861.2772	890.692	903.0447	921.4505	929.9569	952.5662	993.4157	1021.0974	1076.5255	1081.1115	1114.2148	1137.6126	1149.2625	1162.1639	1180.4813	1215.6443	1225.0152	1247.1094	1268.2098	1299.2781	1311.4116	1339.3603	1370.2971	1488.3853	1500.4525	1507.1538	1523.5272	2999.4107	3027.7564	3042.2207	3059.6282	3067.3396	3084.225	3099.7993	3101.5284	3124.7786
C1C2N3CC22COCC132	C1[C@H]2N3C[C@@]42COC[C@@]134	
InChI=1S/C7H9NO/c1-5-6-2-8(5)7(1,6)4-9-3-6/h5H,1-4H2	InChI=1S/C7H9NO/c1-5-6-2-8(5)7(1,6)4-9-3-6/h5H,1-4H2/t5-,6+,7-/m1/s1
