15
gdb 23426	2.76625	1.28987	1.07357	4.2015	74.01	-0.2499	-0.0087	0.2412	1123.6816	0.112409	-416.74526	-416.737363	-416.736418	-416.778002	29.607	
O	-0.1442072175	 1.3052491688	-0.04449756	-0.385586
N	 0.0173073089	-0.0855063652	 0.0295542359	-0.251827
C	-1.0989836974	-0.6758266218	-0.0534573245	 0.45214
C	-2.5694449952	-0.263985473	-0.0832144999	-0.345329
C	-2.9092255337	-1.7597132936	 0.0748504003	-0.069468
C	-2.3356775752	-2.5636190114	-1.0644766667	-0.186117
C	-2.2257375235	-2.0492795327	-2.4054873891	 0.30265
N	-2.1492571691	-1.633103458	-3.4818256782	-0.338299
C	-1.4141900082	-2.1252785728	 0.0746047711	-0.15974
H	 0.76369627	 1.6208012442	 0.020113731	 0.311975
H	-2.8297251276	 0.3335930315	 0.7941583628	 0.140295
H	-2.9373143862	 0.2346391554	-0.9830075858	 0.148549
H	-3.6979259655	-2.1674481726	 0.6927835336	 0.116664
H	-2.5756263306	-3.6222254658	-1.0257034198	 0.143582
H	-0.8636988192	-2.8641728529	 0.6420189592	 0.12051
70.6181	149.9472	190.348	216.6537	321.3137	379.82	402.4516	483.6796	526.8905	582.6901	625.3653	712.9748	757.6689	805.0465	859.136	921.2805	933.6136	968.208	987.7857	1016.8087	1042.5722	1067.2703	1133.3352	1159.0144	1170.7471	1232.53	1291.4773	1310.3439	1396.7558	1418.4958	1469.1984	1792.3016	2355.0404	3071.3325	3123.4478	3160.9435	3203.6346	3213.1742	3818.0253
ON=C1CC2C(C#N)C12	ON=C1C[C@H]2[C@@H](C#N)[C@@H]12	
InChI=1S/C6H6N2O/c7-2-4-3-1-5(8-9)6(3)4/h3-4,6,9H,1H2	InChI=1S/C6H6N2O/c7-2-4-3-1-5(8-9)6(3)4/h3-4,6,9H,1H2/t3-,4+,6-/m0/s1
