16
gdb 23116	2.86377	1.29184	0.89555	3.1987	83.67	-0.1993	-0.0551	0.1442	1250.4186	0.123772	-434.038497	-434.029678	-434.028734	-434.072132	31.952	
C	-0.0278583891	 1.3786533973	-0.0035401159	-0.340559
N	-0.0392279255	-0.0723189974	-0.0175402544	-0.292543
C	 0.5652939804	-0.6747504298	 0.9233022521	 0.358212
N	 1.2623831117	-0.1222317102	 2.0112789776	-0.367906
C	 1.705623304	-1.1333492161	 2.8565105413	-0.02139
C	 1.4177743926	-2.3573667433	 2.3670147872	-0.243603
C	 0.6966750119	-2.1552419611	 1.1192785947	 0.316337
N	 0.2231080513	-2.9892433484	 0.2626914356	-0.224402
O	 0.475397718	-4.3011109521	 0.6569316642	-0.374459
H	 0.990905041	 1.7932507438	 0.0585285717	 0.110677
H	-0.4872916655	 1.7552320361	-0.9202728849	 0.13199
H	-0.6034549295	 1.7862761712	 0.8431486745	 0.111641
H	 1.1814426146	 0.8404302056	 2.2847683586	 0.262143
H	 2.2293571944	-0.8729627767	 3.7658941355	 0.134842
H	 1.6799648749	-3.3090890051	 2.7946166589	 0.12619
H	 0.0780216549	-4.8097023736	-0.0584787567	 0.312829
96.4667	125.2929	144.4475	173.5502	248.9108	259.7713	298.2591	386.2003	396.802	470.8053	580.4412	662.5423	684.8378	730.4348	794.3093	801.1741	867.958	905.0365	985.1127	1031.9944	1088.9065	1097.1944	1124.1708	1134.4359	1163.8515	1289.9443	1350.3155	1406.0889	1423.2356	1432.4133	1493.4345	1504.8936	1621.492	1685.1232	1755.2275	2963.707	3009.7248	3105.5393	3234.1558	3295.2841	3692.659	3813.6728
CN=C1NC=CC1=NO	CN=C1NC=CC1=NO	
InChI=1S/C5H7N3O/c1-6-5-4(8-9)2-3-7-5/h2-3,9H,1H3,(H,6,7,8)	InChI=1S/C5H7N3O/c1-6-5-4(8-9)2-3-7-5/h2-3,9H,1H3,(H,6,7,8)
