18
gdb 133720	2.3616	1.48168	1.16284	2.1136	64.27	-0.3066	0.073	0.3797	1093.0743	0.144212	-533.460681	-533.452068	-533.451124	-533.494102	32.356	
C	-0.6397923589	 1.3446785819	-0.127931392	-0.418769
C	 0.0670200702	-0.0031948032	-0.0822535212	 0.039071
C	 1.4825980112	-0.1494827637	-0.7104586119	-0.226262
C	 1.8827062319	-1.081712482	 0.4638801971	-0.235327
C	 0.6400170153	-0.5828333389	 1.2569675986	-0.167056
C	 0.9808223616	 0.4275306453	 2.3259652679	 0.286612
F	 1.7711374739	 1.4214646638	 1.8705538402	-0.09043
F	-0.1217642538	 1.0036313437	 2.8361832722	-0.086261
F	 1.6355328311	-0.1509906697	 3.3479164349	-0.080384
H	-0.0104330274	 2.1430655213	 0.2728872716	 0.129036
H	-0.8895218261	 1.6001408591	-1.1634236926	 0.111878
H	-1.5705660195	 1.3295279861	 0.4476593445	 0.121699
H	-0.593931135	-0.7687213215	-0.5028421587	 0.081697
H	 1.5395119645	-0.5594140782	-1.7211928088	 0.097725
H	 2.0328023166	 0.7941462349	-0.6815795077	 0.113728
H	 1.7920723552	-2.1408715167	 0.2138629847	 0.108581
H	 2.8561966798	-0.9163382125	 0.9288283401	 0.117708
H	 0.0305302396	-1.3467458594	 1.7454916208	 0.096754
81.0376	127.4982	164.8134	225.0002	241.3922	285.3011	355.0037	376.2035	464.3789	528.6252	576.7171	624.0772	686.5869	752.654	794.7357	894.5109	911.4231	939.5817	953.9882	994.3175	1060.9694	1064.5303	1131.3398	1147.3462	1180.5876	1198.9099	1215.1575	1251.6303	1268.2609	1271.0366	1280.2056	1302.9086	1365.9668	1406.0504	1416.0082	1481.1515	1493.9678	1500.5794	1507.1312	3036.9909	3042.5376	3066.8531	3073.4294	3087.6544	3100.5916	3114.5862	3124.9484	3132.5993
CC1CCC1C(F)(F)F	C[C@H]1CC[C@H]1C(F)(F)F	
InChI=1S/C6H9F3/c1-4-2-3-5(4)6(7,8)9/h4-5H,2-3H2,1H3	InChI=1S/C6H9F3/c1-4-2-3-5(4)6(7,8)9/h4-5H,2-3H2,1H3/t4-,5+/m0/s1
