19
gdb 117735	2.07566	1.18835	0.95871	1.4969	79.58	-0.2456	-0.0404	0.2052	1344.9499	0.153495	-422.989203	-422.978344	-422.9774	-423.025648	38.13	
C	 0.1291162521	 1.7155188909	 0.2305819656	-0.383952
C	-0.1007471551	 0.2170391525	 0.1330212518	-0.05472
O	 0.5935646712	-0.392838234	 1.2196620458	-0.288662
C	 0.7111766205	-1.815363699	 1.174064068	 0.103575
C	-0.624412344	-2.5564088613	 1.0394981413	-0.430455
C	 1.6753988649	-2.165274093	 0.0102278129	 0.129714
O	 1.4692091275	-3.0014454227	-0.8254069648	-0.237815
C	 1.4135123946	-2.2099489952	 2.3974408603	 0.294959
C	 2.0309061386	-2.5782215871	 3.3602402422	-0.433123
H	 1.1936296182	 1.9495676764	 0.1440626035	 0.128468
H	-0.4098231211	 2.2335588872	-0.5682518971	 0.118691
H	-0.2276516754	 2.0934754716	 1.1927204728	 0.132647
H	-1.1743788626	-0.0095306678	 0.1881335246	 0.10313
H	 0.2649825687	-0.1669129075	-0.8316698792	 0.103318
H	-1.0842525036	-2.3576457487	 0.069492981	 0.131999
H	-0.4561338047	-3.6321372796	 1.1125626606	 0.144913
H	-1.3003224849	-2.2449320196	 1.8388928942	 0.131864
H	 2.5916641645	-1.5363747054	 0.0222494892	 0.100316
H	 2.5608553404	-2.8934613877	 4.2254081174	 0.205133
58.2365	67.5481	96.9112	121.5637	166.6421	229.4701	236.7522	249.6197	259.7086	346.6707	366.5588	446.7337	477.1967	533.2797	614.5253	638.9547	668.8554	749.33	823.029	865.5068	928.2403	966.6597	1001.2035	1075.9181	1130.1672	1141.7608	1169.5513	1187.804	1225.7729	1299.8762	1386.1713	1399.7492	1405.6609	1425.3879	1481.6003	1482.6154	1485.9827	1499.8479	1529.2382	1837.1036	2235.243	2907.3091	2984.9679	3024.6987	3046.5274	3062.3739	3121.4906	3125.347	3143.54	3147.4445	3500.2036
CCOC(C)(C=O)C#C	CCO[C@@](C)(C=O)C#C	
InChI=1S/C7H10O2/c1-4-7(3,6-8)9-5-2/h1,6H,5H2,2-3H3	InChI=1S/C7H10O2/c1-4-7(3,6-8)9-5-2/h1,6H,5H2,2-3H3/t7-/m1/s1
