19
gdb 39244	2.57097	2.25644	1.56276	1.2821	80.02	-0.2271	0.0084	0.2355	901.9465	0.162832	-385.872172	-385.865657	-385.864713	-385.902799	27.385	
C	-0.1194343825	 1.4258603594	 0.0964678781	-0.315237
C	 1.4577105181	 1.39128725	-0.00837428	-0.050702
C	 2.180275392	 0.7505695366	 1.1996826819	-0.081004
O	 2.7760843932	-0.4785254159	 0.7775215163	-0.27603
C	 2.1551135723	-1.000028566	-0.4003096074	 0.094195
C	 1.0691124178	-2.0748249397	-0.0763926364	-0.260514
C	-0.163258259	-1.223588699	 0.2148770542	-0.178729
C	-0.021239868	-0.0214604122	-0.343298787	 0.206149
C	 1.3440551013	 0.1695889983	-0.9669451934	-0.077249
H	-0.5709068522	 1.633278893	 1.0703851987	 0.10657
H	-0.5403398007	 2.1038672416	-0.652555586	 0.109312
H	 1.9425685628	 2.3012078142	-0.3684307031	 0.076064
H	 2.9863215641	 1.3874557379	 1.5782432438	 0.103732
H	 1.4782671548	 0.5680135916	 2.0259005187	 0.094109
H	 2.9536702594	-1.3911490159	-1.0395006201	 0.070094
H	 0.9422145038	-2.7719214003	-0.9166208719	 0.100868
H	 1.3668218529	-2.670896	 0.7925214478	 0.113837
H	-0.9238696606	-1.512998801	 0.9315794218	 0.091341
H	 1.4113958105	 0.3686807173	-2.0373987061	 0.073194
136.6222	233.6272	341.4138	371.9223	385.3094	557.0677	632.3376	684.622	754.5956	787.6435	818.1368	828.6923	858.2997	883.7801	905.3377	919.3284	928.1823	957.1491	959.2035	1004.8039	1031.2989	1045.5179	1087.2959	1098.0733	1122.5637	1145.4681	1183.449	1216.11	1240.5718	1242.4699	1251.6245	1261.1557	1304.1178	1312.2205	1333.4529	1353.8568	1391.8576	1466.3693	1484.3731	1521.0988	1702.382	2998.2839	3009.6798	3047.8049	3053.2912	3062.3714	3078.2532	3084.768	3102.12	3104.1056	3191.017
C1C2COC3CC=C1C23	C1[C@H]2CO[C@H]3C[CH][C]1[C@@H]23	
InChI=1S/C8H10O/c1-2-7-8-5(1)3-6(8)4-9-7/h1,6-8H,2-4H2	InChI=1S/C8H10O/c1-2-7-8-5(1)3-6(8)4-9-7/h1,6-8H,2-4H2/t6-,7-,8-/m0/s1
