17
gdb 78582	5.1255	1.04334	0.99702	0.9902	78.71	-0.2567	0.0371	0.2938	1195.2995	0.135238	-384.572717	-384.565077	-384.564133	-384.604673	30.39	
O	 0.308895284	 1.4552190662	-0.125369673	-0.446814
C	 0.1455098278	 0.0640742484	-0.0446288733	 0.147398
C	 0.0512159145	-0.6331394428	 1.3287323072	-0.117362
C	-1.4711200001	-0.2726862054	 1.4839646363	-0.070459
C	-1.8528097196	-1.7453385963	 1.78901599	-0.208252
C	-3.1889696493	-2.2017175553	 1.461419885	 0.299388
C	-4.2989125177	-2.5775756931	 1.1893969404	-0.44138
C	-0.7444274138	-1.8295788146	 0.7052862691	-0.043884
C	-1.2654776232	-0.559170331	-0.0497930617	-0.100517
H	-0.3200609593	 1.8726921678	 0.4733106703	 0.282376
H	 0.8624699757	-0.3660746996	-0.750650724	 0.086446
H	 0.7825507867	-0.6986327379	 2.1357678923	 0.075665
H	-1.899656214	 0.6220088379	 1.9383141595	 0.077529
H	-1.5477993059	-2.0990142092	 2.780700385	 0.095866
H	-5.2782872411	-2.9106975854	 0.9501287974	 0.193724
H	-0.318088892	-2.7216732302	 0.2463444079	 0.083091
H	-2.0384599828	-0.5387660495	-0.817248728	 0.087183
111.1294	139.7077	224.2537	273.9386	321.5455	418.3235	482.36	511.8401	599.8914	620.721	637.4021	737.046	795.2641	842.2827	849.2847	875.136	884.3168	924.3341	934.6591	981.2868	999.9094	1034.2977	1085.1768	1104.7878	1126.2546	1141.2575	1143.0824	1159.3041	1168.1318	1211.4505	1234.1596	1276.2672	1295.8628	1306.2714	1366.5843	1448.174	2231.2995	3039.7501	3071.2261	3095.2445	3105.8664	3115.3271	3129.375	3504.0097	3804.7078
OC1C2C3C(C#C)C2C13	O[C@H]1[C@H]2[C@@H]3[C@@H](C#C)[C@H]2[C@H]13	
InChI=1S/C8H8O/c1-2-3-4-6-5(3)7(4)8(6)9/h1,3-9H	InChI=1S/C8H8O/c1-2-3-4-6-5(3)7(4)8(6)9/h1,3-9H/t3-,4-,5+,6-,7+,8-/m1/s1
