21
gdb 94462	2.9187	1.27039	1.16507	2.4923	77.66	-0.2429	0.079	0.3218	1176.2777	0.183022	-424.216759	-424.208044	-424.207099	-424.250651	32.697	
C	-0.4071866386	 1.3701151235	-0.193773319	-0.4182
C	 0.1197982908	-0.0550755049	-0.1412942952	-0.106058
C	 1.5659535256	-0.3363982072	-0.596365093	-0.087469
O	 1.8460081528	-1.0763015195	 0.607355749	-0.325308
C	 0.5841755099	-0.6657419724	 1.2081139636	 0.399372
C	 0.8089252395	 0.2301144981	 2.4331982464	-0.27373
C	 0.9041475065	-0.8122004785	 3.5482557466	-0.083129
O	-0.0951672149	-1.7737870708	 3.2232268232	-0.259067
C	-0.1847518632	-1.8586953435	 1.8046905784	-0.118527
H	 0.2841617581	 2.072967271	 0.2818620531	 0.121562
H	-0.5470775031	 1.6905698922	-1.2317489911	 0.120034
H	-1.375935243	 1.4573902522	 0.3097303464	 0.123004
H	-0.584235594	-0.7308103805	-0.6381090965	 0.082189
H	 1.7008816528	-0.9468658296	-1.4961949512	 0.103103
H	 2.1923357584	 0.56342696	-0.6796616457	 0.093745
H	 1.6996842581	 0.8524326008	 2.3279512689	 0.108435
H	-0.0620826329	 0.8736698524	 2.5985006459	 0.105622
H	 1.9047400837	-1.2720250565	 3.5613958734	 0.102568
H	 0.6851030668	-0.4239882996	 4.5464380854	 0.105706
H	-1.245400833	-1.8420542203	 1.5240326983	 0.098344
H	 0.2634024996	-2.789583487	 1.4322713532	 0.107802
58.0687	81.4636	181.2908	200.0896	224.5712	255.9483	380.3601	401.3542	457.4442	511.8806	633.7649	711.8997	773.3312	869.2887	879.3405	901.5539	925.0291	935.6434	964.5107	1004.3604	1020.644	1024.3338	1072.0002	1122.485	1143.295	1149.5589	1165.1763	1187.8316	1203.4223	1227.6989	1240.8079	1258.835	1293.2551	1312.7872	1341.9875	1358.8555	1392.5028	1399.9783	1413.7	1465.3613	1496.1764	1497.2687	1502.5447	1521.6914	1528.2992	2984.5472	2998.0285	3009.4572	3031.4472	3043.3474	3048.9967	3052.1758	3063.1452	3092.142	3096.4027	3105.3565	3120.7322
CC1COC11CCOC1	C[C@H]1CO[C@]21CCOC2	
InChI=1S/C7H12O2/c1-6-4-9-7(6)2-3-8-5-7/h6H,2-5H2,1H3	InChI=1S/C7H12O2/c1-6-4-9-7(6)2-3-8-5-7/h6H,2-5H2,1H3/t6-,7+/m0/s1
