18
gdb 63765	3.06749	1.39318	1.16046	4.823	76.36	-0.2565	0.0261	0.2826	1098.5633	0.146117	-401.928321	-401.919695	-401.918751	-401.961192	32.862	
C	-0.1664749358	 1.5762572662	-0.0083501504	-0.455426
C	 0.0051739852	 0.0708543581	 0.0802186047	 0.382712
C	-1.2895455574	-0.6711670162	-0.2331525854	-0.414183
O	 1.0676533266	-0.4380584341	-0.816874948	-0.313812
C	 1.6402126318	-1.1666424624	 0.2488296692	 0.086236
C	 2.2201786125	-0.2638771527	 1.3153072655	-0.219792
C	 2.8402085319	 1.0032137947	 1.0387720082	 0.312711
N	 3.3751374145	 2.0090649742	 0.8376800028	-0.352345
C	 0.7232914345	-0.5724027445	 1.2809462423	-0.18616
H	 0.7632546063	 2.1100042337	 0.1850443032	 0.163084
H	-0.5162275751	 1.8475564996	-1.0096246191	 0.12951
H	-0.9199939827	 1.907747873	 0.7135826366	 0.120887
H	-1.6320574042	-0.4117661578	-1.2388700425	 0.132522
H	-1.1438139081	-1.7535998523	-0.1848211534	 0.12232
H	-2.0728459476	-0.393206781	 0.4802476927	 0.119577
H	 2.0049226754	-2.1698781713	 0.0604583502	 0.120146
H	 2.7192294476	-0.8147736106	 2.1092160321	 0.139741
H	 0.2332651946	-1.0137977066	 2.1388457512	 0.112272
113.254	137.6246	175.4572	224.7572	244.6115	296.4747	353.4797	380.1661	408.9006	465.7859	626.1116	645.9052	653.3872	752.0361	793.6417	837.2293	897.1795	929.2062	941.2979	969.2864	1004.3167	1013.4083	1036.9742	1050.8734	1073.1998	1163.3665	1169.161	1221.2453	1256.0456	1307.5936	1336.3266	1402.4875	1410.9615	1419.81	1474.1206	1480.5754	1496.6268	1506.4004	2351.9989	3037.8002	3046.9111	3105.9723	3112.9339	3123.2924	3145.1731	3161.8964	3180.3964	3202.1269
CC1(C)OC2C(C#N)C12	CC1(C)O[C@H]2[C@@H](C#N)[C@@H]12	
InChI=1S/C7H9NO/c1-7(2)5-4(3-8)6(5)9-7/h4-6H,1-2H3	InChI=1S/C7H9NO/c1-7(2)5-4(3-8)6(5)9-7/h4-6H,1-2H3/t4-,5+,6-/m0/s1
