22
gdb 107683	3.10108	1.21524	1.02286	2.542	80.99	-0.2387	0.0708	0.3096	1247.1212	0.197229	-404.342309	-404.333801	-404.332857	-404.375373	33.668	
O	 0.1261305266	 1.2341097987	-0.6231742884	-0.423907
C	 0.0474592976	 0.0843808882	 0.2032907034	-0.110305
C	-1.3598505183	-0.482373616	 0.2111908649	 0.287692
C	-2.3959950716	 0.3650311126	 0.9324875057	-0.260822
C	-3.7727880455	-0.3041789787	 1.0432529369	-0.229639
C	-3.6343344818	-1.7268334902	 1.5963839982	-0.184425
C	-2.8032325224	-2.6318612076	 0.669730124	-0.235502
C	-1.5675779155	-1.9533306438	 0.0860924748	-0.050658
N	-1.6985001378	-1.0757873111	-1.1010916116	-0.382558
H	-0.1901625874	 0.9461140647	-1.488667099	 0.288896
H	 0.7523307765	-0.6926221666	-0.1288817459	 0.085497
H	 0.3450050264	 0.4038768111	 1.2081753021	 0.100703
H	-2.0209954604	 0.565115827	 1.9455376877	 0.100676
H	-2.4646135359	 1.3395784099	 0.4358508228	 0.111095
H	-4.4155806336	 0.2979920494	 1.693785621	 0.100665
H	-4.2754014816	-0.327719999	 0.0659181039	 0.093034
H	-3.1453634209	-1.6696359637	 2.5777977965	 0.099014
H	-4.6186934299	-2.1766003872	 1.7645811224	 0.094843
H	-2.4907251276	-3.5268813731	 1.2181418624	 0.104443
H	-3.4282180182	-2.9944459643	-0.1578823607	 0.104651
H	-0.6825058701	-2.584610597	 0.0329216481	 0.085794
H	-2.6858785586	-0.9358244131	-1.3045124689	 0.220813
77.5234	125.4734	176.735	265.6402	319.8194	326.7514	387.1108	397.5503	471.0531	494.0581	544.3211	642.6798	698.0171	789.8388	825.5361	866.0812	883.6066	906.0412	928.042	964.1076	990.7026	1011.184	1056.2229	1067.6054	1093.3216	1107.2695	1120.5543	1166.9549	1188.5457	1205.5076	1227.8376	1279.345	1297.0339	1305.7815	1336.5952	1366.2474	1366.9834	1380.4297	1387.6393	1404.0238	1428.9929	1447.1337	1487.18	1489.7792	1494.7825	1497.9228	1504.7227	2988.7503	3007.5166	3013.0479	3016.7231	3022.6817	3062.7665	3064.2974	3068.7483	3070.5806	3073.2303	3118.0963	3488.0583	3778.5419
OCC12CCCCC1N2	OC[C@]12CCCC[C@H]1N2	
InChI=1S/C7H13NO/c9-5-7-4-2-1-3-6(7)8-7/h6,8-9H,1-5H2	InChI=1S/C7H13NO/c9-5-7-4-2-1-3-6(7)8-7/h6,8-9H,1-5H2/t6-,7-/m1/s1
