23
gdb 102715	2.60644	0.91485	0.71792	0.7464	92.26	-0.2553	0.0576	0.3129	1642.8818	0.203798	-351.115338	-351.104832	-351.103888	-351.151358	38.915	
C	 1.0270524649	-0.2809682467	-1.2454476199	-0.387469
C	 0.1356862909	-0.1147057126	-0.0130651057	-0.168861
C	 0.786963845	-0.6177858819	 1.296589361	-0.164984
C	-0.0786080356	-0.3315192119	 2.5525736819	-0.21324
C	-0.2637047789	 1.1400526078	 2.8605164152	 0.027798
C	-1.4622831778	 1.9111558644	 2.3601265644	-0.248947
C	-1.3378550803	 1.5764490445	 3.8250071006	-0.289392
C	 1.0948247386	-2.0460394509	 1.2210457351	 0.327113
C	 1.3166432502	-3.2272363373	 1.1711143146	-0.466461
H	 1.2858899188	-1.3314166063	-1.4067627427	 0.131203
H	 0.5230331001	 0.0870635667	-2.1443625592	 0.110213
H	 1.9621599122	 0.2801390567	-1.1358206897	 0.110889
H	-0.1194449112	 0.9410061051	 0.1199114854	 0.108703
H	-0.8087734183	-0.6529426024	-0.160246862	 0.099354
H	 1.7377198984	-0.0773767352	 1.4228712605	 0.098361
H	-1.0572440453	-0.8120156053	 2.4273484055	 0.100431
H	 0.3967456462	-0.8243223514	 3.4088756411	 0.108387
H	 0.6665418294	 1.7020723876	 2.9146250674	 0.080245
H	-1.3251094994	 2.9421884815	 2.0524973911	 0.110535
H	-2.2045377188	 1.3721670122	 1.7804799188	 0.112407
H	-1.9948538178	 0.8113360833	 4.2261695817	 0.112071
H	-1.113614891	 2.3769246836	 4.5212512113	 0.110877
H	 1.5273833396	-4.2668768512	 1.1259793836	 0.190769
52.2498	86.8572	104.2004	125.6891	166.7401	234.5542	245.6533	272.2674	325.8988	357.9765	456.3231	525.9071	561.0207	623.2721	633.874	761.3895	776.8018	797.6974	833.3013	836.436	903.0016	931.3116	961.6029	993.4797	1027.9913	1052.2043	1066.0957	1078.0925	1102.1787	1130.1604	1141.5995	1173.3692	1199.1094	1227.1687	1253.1753	1278.0417	1318.8095	1329.1267	1365.8629	1372.1912	1411.9165	1416.481	1468.3583	1484.1836	1488.3433	1497.7633	1507.0221	1508.5297	2229.4637	2987.5071	3025.0808	3032.955	3035.8856	3063.7054	3082.7455	3099.9115	3116.5263	3124.6479	3128.0997	3133.6148	3205.6633	3221.0097	3504.7237
CCC(CC1CC1)C#C	CC[C@@H](CC1CC1)C#C	
InChI=1S/C9H14/c1-3-8(4-2)7-9-5-6-9/h1,8-9H,4-7H2,2H3	InChI=1S/C9H14/c1-3-8(4-2)7-9-5-6-9/h1,8-9H,4-7H2,2H3/t8-/m0/s1
