21
gdb 38343	3.60735	1.34766	1.1406	1.935	81.68	-0.2312	0.0812	0.3124	1133.4778	0.184395	-387.033838	-387.026324	-387.02538	-387.066155	30.638	
C	-0.1532907447	 1.5507946483	 0.0907951459	-0.237343
C	 1.3597358322	 1.2278853812	 0.1174490768	-0.012466
O	 1.06325417	 0.1059314691	 1.0438033826	-0.31945
C	 0.0509258001	 0.0234699262	-0.0362473993	-0.009784
C	 1.1891965252	 0.249127934	-1.0798904515	 0.414116
C	 0.8582134782	 0.7593099631	-2.5076629613	-0.308891
C	 1.849456351	 0.0381647899	-3.4436204706	-0.207273
C	 2.1269625858	-1.2907382414	-2.7253657474	-0.207373
C	 2.2365178195	-0.8717673222	-1.2507955948	-0.280251
H	-0.5636217207	 1.8745210716	 1.0477480993	 0.105584
H	-0.5626546555	 2.1020263596	-0.7578240437	 0.099494
H	 2.2055489251	 1.8716494554	 0.3679923643	 0.085747
H	-0.682214173	-0.7836628246	 0.0238154796	 0.08694
H	-0.1702635912	 0.4847213082	-2.7707149201	 0.103201
H	 0.9236060182	 1.8475583379	-2.5941689634	 0.10059
H	 1.4615596521	-0.0836596094	-4.4589069322	 0.093475
H	 2.7798622326	 0.6143659329	-3.5191551807	 0.097737
H	 1.2782150812	-1.9731486106	-2.8629797072	 0.094542
H	 3.0195307022	-1.8047751141	-3.0930342423	 0.093737
H	 3.2383696921	-0.4657750679	-1.0607608732	 0.096962
H	 2.0901008297	-1.6892493272	-0.543678501	 0.110703
46.3514	193.7691	242.1431	276.8625	359.8297	407.312	522.5535	557.7945	635.4841	697.7262	733.1536	781.1536	842.8526	854.6393	873.8166	882.0941	915.7816	917.1343	951.243	971.327	1012.0272	1026.4064	1031.3409	1054.7328	1085.0935	1125.6215	1146.0811	1168.3231	1177.0158	1192.678	1211.6342	1218.3078	1250.7784	1260.3711	1272.3939	1301.3189	1318.3826	1341.708	1344.0728	1360.7858	1482.7138	1485.8196	1490.9491	1492.5549	1510.8226	3022.0946	3028.421	3032.5811	3034.8624	3071.4006	3081.7662	3087.369	3091.9825	3094.2778	3101.2997	3117.9266	3151.2126
C1C2OC1C21CCCC1	C1[C@H]2O[C@@H]1C12CCCC1	
InChI=1S/C8H12O/c1-2-4-8(3-1)6-5-7(8)9-6/h6-7H,1-5H2	InChI=1S/C8H12O/c1-2-4-8(3-1)6-5-7(8)9-6/h6-7H,1-5H2/t6-,7+
