20
gdb 93136	2.19774	1.89859	1.33263	2.494	78.29	-0.2339	0.0298	0.2637	1035.5164	0.173274	-403.138718	-403.130758	-403.129814	-403.170854	31.595	
C	-0.2988265172	 1.4872519093	-0.2475009668	-0.420627
C	 0.0011290291	 0.0119375161	 0.0179251113	 0.114796
O	 0.5753817533	-0.6044525914	-1.1640012754	-0.245929
C	 1.8625771056	-0.4090290405	-1.5562997488	 0.142133
N	 2.879962383	 0.1402372281	-1.0493211106	-0.266282
C	 2.9223706486	 0.7679695425	 0.2644342363	-0.196233
C	 2.2503336413	-0.011361715	 1.3814667085	-0.014045
C	 1.2512710782	 0.6467967718	 2.2975118291	-0.31415
C	 0.7859712534	-0.3538492019	 1.2635009148	-0.0321
H	 0.6009518123	 2.0941290849	-0.3664516928	 0.133953
H	-0.8838044661	 1.5707315834	-1.167446497	 0.129555
H	-0.889708957	 1.9029625554	 0.5737216885	 0.125949
H	-0.9660744584	-0.4967610937	 0.083503343	 0.095482
H	 1.9631755346	-0.8697893412	-2.540688298	 0.115509
H	 3.9790934911	 0.9066385515	 0.5189070257	 0.109286
H	 2.5098584928	 1.7833683506	 0.1983829619	 0.10628
H	 2.872025976	-0.7877457395	 1.8172159465	 0.093046
H	 1.2169633558	 0.3501399007	 3.3399764604	 0.114497
H	 1.0354935802	 1.6965947029	 2.130109215	 0.115735
H	 0.5156128435	-1.331656584	 1.6507521183	 0.093143
105.9211	183.9389	225.9661	243.3139	309.0928	360.2169	391.6769	440.9378	469.7388	531.0889	681.8953	715.7119	803.7733	821.3748	836.1698	869.4043	925.6278	938.3422	971.9107	998.5505	1017.4225	1043.2124	1070.3425	1075.9356	1108.2982	1139.2281	1146.3024	1171.9918	1183.3307	1265.0505	1268.0046	1360.4946	1381.8607	1387.368	1392.9214	1408.4954	1430.0653	1442.1858	1483.2372	1494.995	1497.2462	1515.3194	1745.9057	3016.7217	3049.2408	3050.406	3053.6664	3121.6595	3121.8301	3134.5832	3141.1572	3142.762	3153.985	3218.5203
CC1OC=NCC2CC12	C[C@H]1OC=NC[C@H]2C[C@@H]12	
InChI=1S/C7H11NO/c1-5-7-2-6(7)3-8-4-9-5/h4-7H,2-3H2,1H3	InChI=1S/C7H11NO/c1-5-7-2-6(7)3-8-4-9-5/h4-7H,2-3H2,1H3/t5-,6-,7+/m1/s1
