20
gdb 114215	2.81345	1.16621	1.00252	3.7862	74.81	-0.244	0.0616	0.3056	1250.4235	0.170855	-440.234942	-440.225866	-440.224921	-440.268919	34.474	
O	 0.3800917525	 1.0691277073	-0.6792951931	-0.424638
C	 0.0379369978	-0.2774618688	-0.3827021861	-0.063275
C	-1.3398016124	-0.404544775	 0.2561542471	-0.060884
C	-2.5364632217	-0.26551613	-0.7449808424	-0.349197
C	-2.693355967	-1.7868929501	-0.7012107171	 0.307504
C	-3.7303872894	-2.7023531487	-1.2081713279	-0.313401
N	-2.3756349619	-2.694414588	-1.8084847472	-0.367786
C	-1.7852387803	-1.8869199606	 0.5325270815	 0.084056
O	-0.8280939166	-2.9065735355	 0.5027299955	-0.434931
H	-0.2713258447	 1.4098527464	-1.3004840916	 0.278535
H	 0.1037478575	-0.9118617229	-1.2809297763	 0.080179
H	 0.7992844387	-0.6372146025	 0.314499578	 0.126409
H	-1.3891983019	 0.2599010432	 1.1223953628	 0.077419
H	-3.3946749907	 0.2686462052	-0.3283580926	 0.114421
H	-2.3103677627	 0.1638309837	-1.7286905505	 0.088291
H	-3.9776895061	-3.6061377058	-0.6576677663	 0.128753
H	-4.5494527097	-2.2842463121	-1.788297316	 0.117878
H	-2.3821459509	-2.2011744717	-2.6976569741	 0.234854
H	-2.3499874687	-1.9592049114	 1.469663461	 0.082564
H	-0.8586396915	-3.2595799426	-0.4009745346	 0.293248
59.8964	107.2924	169.2903	222.0384	247.7075	277.9001	323.4859	340.0593	408.2435	487.62	502.6682	577.3288	646.652	785.0135	810.1618	827.0524	867.8613	907.6305	923.5015	958.4276	979.1886	1022.8186	1042.5432	1073.0797	1095.278	1129.9207	1149.4902	1151.8915	1195.6828	1211.4052	1251.7555	1255.5675	1262.5635	1294.2913	1323.9334	1354.1916	1385.1578	1407.0045	1422.1558	1444.1546	1479.6758	1503.4363	1512.4323	2978.7316	3027.8719	3033.7787	3076.1255	3093.2371	3098.6742	3105.6713	3191.2096	3500.1332	3680.62	3813.3053
OCC1CC2(CN2)C1O	OC[C@H]1C[C@]2(CN2)[C@H]1O	
InChI=1S/C6H11NO2/c8-2-4-1-6(3-7-6)5(4)9/h4-5,7-9H,1-3H2	InChI=1S/C6H11NO2/c8-2-4-1-6(3-7-6)5(4)9/h4-5,7-9H,1-3H2/t4-,5+,6+/m1/s1
