19
gdb 14831	2.83531	1.6328	1.10487	1.9476	74.67	-0.2469	0.032	0.2788	1120.5859	0.164763	-365.06483	-365.055845	-365.0549	-365.098933	31.432	
C	-0.0423760249	 1.5870712082	 0.1068544797	-0.383609
C	-0.0046238174	 0.065138371	-0.0630475088	-0.194564
C	-1.3959352966	-0.5652029131	-0.000834851	-0.141122
C	-1.5061715365	-2.1066163688	 0.0426572328	-0.106421
O	-2.1592123101	-2.0401933902	 1.3457484738	-0.267923
C	-2.0555171946	-0.6554694979	 1.3637627288	 0.470466
N	-2.3880613543	 0.1711640848	 2.2416423742	-0.327624
C	-2.9919534241	-0.3067333021	 3.4783260904	-0.339889
H	 0.9676817636	 2.0074328072	 0.0956128441	 0.110298
H	-0.610066353	 2.0585539189	-0.7030998207	 0.112276
H	-0.5225207075	 1.8559668826	 1.0514459131	 0.153256
H	 0.4570025924	-0.1967953687	-1.0237310159	 0.098137
H	 0.624784318	-0.3816009676	 0.7168852688	 0.102676
H	-2.0541527449	-0.1097378741	-0.7477027426	 0.101854
H	-2.1568966128	-2.576606048	-0.6989324779	 0.117405
H	-0.5569525355	-2.6465227803	 0.1099392718	 0.116379
H	-4.0034683148	 0.1054706832	 3.5668845312	 0.126695
H	-3.050961541	-1.3985777993	 3.5556873408	 0.126245
H	-2.4166116961	 0.0761355542	 4.3282436474	 0.125465
82.0567	92.5244	111.5669	141.3201	199.8225	233.2068	254.4182	353.4358	388.3911	528.4699	679.7005	721.8373	778.8656	823.6232	913.5799	969.9108	973.8617	1011.4755	1043.7103	1089.468	1106.6317	1116.971	1134.0902	1155.332	1175.4446	1194.4138	1240.9318	1287.4081	1322.9186	1361.9816	1384.4139	1412.9923	1439.5053	1487.9847	1494.5206	1496.8765	1498.2226	1511.4743	1518.1224	1841.2571	3017.0149	3019.3952	3035.9955	3048.9158	3053.2497	3066.9639	3081.2445	3087.7077	3102.1158	3111.6064	3125.4357
CCC1COC1=NC	CC[C@H]1COC1=NC	
InChI=1S/C6H11NO/c1-3-5-4-8-6(5)7-2/h5H,3-4H2,1-2H3	InChI=1S/C6H11NO/c1-3-5-4-8-6(5)7-2/h5H,3-4H2,1-2H3/t5-/m0/s1
