18
gdb 119220	2.05736	1.26162	0.88492	5.0945	74.55	-0.2735	0.0072	0.2808	1361.1865	0.144423	-439.062385	-439.052334	-439.051389	-439.098038	34.668	
C	 0.170894994	 1.3457957664	-0.2113186654	-0.227277
O	 0.2966270648	-0.0563476146	-0.1257659287	-0.227317
C	 0.4645699271	-0.5141231468	 1.190647106	-0.133101
C	 0.4873733287	-2.0269197719	 1.1547901451	 0.210023
O	 1.732941407	-2.6617237268	 0.8482822166	-0.263943
C	 1.1986715176	-2.8600910323	 2.1570339142	 0.03774
C	 1.968895448	-2.3229352548	 3.3355842561	-0.433754
C	-0.6721001418	-2.6209154542	 0.5024675595	 0.267371
N	-1.6082482764	-3.0998617009	 0.0238917703	-0.333731
H	 1.0715000496	 1.8583259697	 0.1605846101	 0.109124
H	 0.0321877165	 1.5919715129	-1.2657538488	 0.140588
H	-0.6970106161	 1.7104232968	 0.3594480533	 0.11146
H	 1.4038997474	-0.1437436874	 1.6242536159	 0.104114
H	-0.3659248415	-0.1788010323	 1.8358513081	 0.104563
H	 0.7831873897	-3.8579731397	 2.3053703486	 0.115687
H	 2.3940487742	-1.3378024743	 3.1393309857	 0.136681
H	 1.3205836764	-2.262848008	 4.2157111378	 0.137347
H	 2.7912047449	-3.0054292415	 3.5727123755	 0.144424
66.7025	79.6455	123.1081	146.3498	169.896	176.0146	224.4965	273.7139	338.5919	388.2999	410.5906	495.4775	565.4537	595.6635	735.5864	799.1757	917.757	960.2415	1004.1922	1014.4498	1053.8477	1127.2236	1162.7683	1165.3373	1186.2018	1226.5993	1237.1956	1282.5528	1335.5543	1408.7454	1422.4461	1453.5527	1477.0169	1485.2672	1486.4265	1494.6113	1503.0961	1517.3515	2361.1227	2959.1648	2977.8934	3022.6555	3026.4988	3047.5229	3102.3736	3109.2677	3128.9747	3147.8601
COCC1(OC1C)C#N	COC[C@]1(O[C@H]1C)C#N	
InChI=1S/C6H9NO2/c1-5-6(3-7,9-5)4-8-2/h5H,4H2,1-2H3	InChI=1S/C6H9NO2/c1-5-6(3-7,9-5)4-8-2/h5H,4H2,1-2H3/t5-,6+/m0/s1
