18
gdb 16022	3.86691	1.83834	1.49257	1.7949	67.53	-0.259	0.0849	0.3439	885.3751	0.155974	-384.924997	-384.918127	-384.917183	-384.955839	27.158	
C	 0.0193238386	 1.5222522957	 0.0100362075	-0.327197
C	 1.3225103308	 0.7558548016	-0.0065392161	-0.291723
C	 0.0103306473	 0.0194793535	 0.0020553797	 0.354967
C	-0.4047675426	-0.7428863852	 1.2449819804	-0.163156
O	 0.0266107353	-2.0973850784	 1.1607963056	-0.234379
C	-0.4563647896	-2.7046311718	-0.0081029963	 0.022295
O	 0.0042330671	-2.0848245829	-1.1794390137	-0.234379
C	-0.4285365652	-0.7295443211	-1.2408175064	-0.163156
H	-0.2666005322	 2.0308231952	 0.9255367883	 0.112998
H	-0.2840033147	 2.040591776	-0.8943172978	 0.112998
H	 1.9033168338	 0.7539338839	-0.9228658577	 0.11687
H	 1.9207328604	 0.7441551091	 0.8984399368	 0.11687
H	 0.0442552336	-0.3231404157	 2.1494973394	 0.107267
H	-1.5029049014	-0.7112235446	 1.3585414732	 0.087392
H	-0.0785970543	-3.7288080531	-0.017212107	 0.117348
H	-1.564950379	-2.7041250221	 0.002500231	 0.070326
H	-1.5286412706	-0.6967764468	-1.3330116465	 0.087391
H	 0.0031515128	-0.3000679633	-2.1491961905	 0.107267
130.6161	214.2602	264.4461	324.4609	372.8203	439.1041	478.4459	487.5523	641.3465	779.5636	787.7433	892.9046	934.8946	942.4174	958.7513	970.2821	991.8935	1013.2326	1055.7365	1058.4985	1076.2296	1088.7392	1137.645	1184.9023	1196.5404	1240.0855	1284.6303	1329.2681	1338.0563	1364.2755	1374.5121	1426.3302	1444.1484	1469.2676	1490.2124	1491.5799	1506.2225	1515.8748	2902.9553	2947.5115	2957.1538	3084.4984	3086.6909	3114.453	3122.8723	3132.071	3200.7947	3218.1879
C1CC11COCOC1	C1CC21COCOC2	
InChI=1S/C6H10O2/c1-2-6(1)3-7-5-8-4-6/h1-5H2	InChI=1S/C6H10O2/c1-2-6(1)3-7-5-8-4-6/h1-5H2
