18
gdb 72292	3.10651	1.65304	1.35383	1.3866	70.52	-0.1997	0.073	0.2727	973.8381	0.149415	-439.018748	-439.011469	-439.010525	-439.050102	29.403	
O	-0.1374503368	 1.4649204057	-0.0203841786	-0.452937
C	 0.0179293396	 0.0919852779	-0.0539722144	 0.298193
C	 0.6409340871	-0.6722510504	-1.2155743263	-0.259607
N	-0.3642384831	-1.7772195852	-1.0266793138	-0.110817
C	 0.1617693923	-3.0076591437	-0.4233075935	-0.17892
C	 1.094986082	-2.7562251838	 0.7699586307	-0.075647
O	 0.5900858815	-1.79482266	 1.6945330558	-0.266312
C	-0.2199492521	-0.7836651584	 1.166576056	 0.045876
C	-1.0945700405	-0.9668901465	-0.0251996574	-0.13674
H	 0.5749958934	 1.8393162311	 0.5092919325	 0.290852
H	 0.4617873066	-0.1702802359	-2.1718338298	 0.116257
H	 1.6972469138	-0.9521459819	-1.1521932243	 0.09968
H	-0.7034985701	-3.6022276383	-0.1087418604	 0.113772
H	 0.7013309928	-3.5889580893	-1.1800481311	 0.105037
H	 1.2415083643	-3.6802797204	 1.338394646	 0.107308
H	 2.0851261644	-2.4331534373	 0.4166528803	 0.096627
H	-0.6636158456	-0.2185793872	 1.9816505173	 0.110424
H	-2.1766313693	-0.8925463463	-0.052244039	 0.09695
136.5416	211.8044	285.456	305.3631	322.2454	416.3835	422.3107	539.5197	554.0684	613.5272	700.003	723.661	814.191	862.2066	866.7475	931.6	951.2777	974.3315	994.8085	1025.2547	1063.1689	1086.9128	1117.3405	1148.6685	1152.1987	1193.5992	1223.9969	1252.8351	1271.6412	1289.8369	1298.844	1321.3954	1345.6604	1375.1558	1403.6343	1458.1193	1478.9263	1505.4773	1528.4195	2993.3981	3030.6431	3040.044	3068.0386	3079.2171	3087.6073	3156.1859	3165.8113	3797.4795
OC12CN3CCOC1C23	O[C@@]12CN3CCO[C@@H]1[C@@H]23	
InChI=1S/C6H9NO2/c8-6-3-7-1-2-9-5(6)4(6)7/h4-5,8H,1-3H2	InChI=1S/C6H9NO2/c8-6-3-7-1-2-9-5(6)4(6)7/h4-5,8H,1-3H2/t4-,5+,6+/m0/s1
