19
gdb 83826	2.74416	1.55717	1.22828	2.1276	76.19	-0.2319	0.0206	0.2525	1063.6539	0.16078	-423.00032	-422.992507	-422.991563	-423.032484	31.066	
O	-0.1615747277	 1.4447303942	 0.0939081084	-0.423461
C	-0.0070720348	 0.0636317851	 0.0011845785	 0.073488
C	-1.2380674302	-0.8362002334	-0.0236020434	-0.104916
C	-2.6201013042	-0.2122660253	 0.0882623641	-0.283187
C	-3.5557783867	-0.5042777509	-1.0641058389	-0.065116
C	-3.2651871865	-0.5210343092	-2.3645502628	-0.041964
C	-1.9517336047	-0.2429259208	-3.0434248601	-0.128666
O	-0.9237196002	 0.2935620288	-2.2205662047	-0.262159
C	-0.420679551	-0.604538496	-1.2772508073	 0.032125
H	-0.4222931147	 1.7481494577	-0.7862489916	 0.299443
H	 0.8809014615	-0.2897840401	 0.5170095473	 0.099546
H	-1.1232293931	-1.81577703	 0.431942784	 0.086974
H	-3.0836130789	-0.5592478983	 1.0174404026	 0.104303
H	-2.5057749275	 0.8725319631	 0.2089334353	 0.128893
H	-4.5890774452	-0.7032295491	-0.7868987685	 0.088144
H	-4.0619567066	-0.7546163892	-3.0701392537	 0.08676
H	-1.5858638563	-1.1586809904	-3.5396764483	 0.10406
H	-2.1039266523	 0.497766478	-3.8384139002	 0.119232
H	 0.1733083391	-1.4159303642	-1.6984980006	 0.0865
89.2962	168.4447	232.2323	298.8723	329.0559	359.8235	402.9345	432.7507	574.9123	616.1177	645.9895	699.8208	764.6004	771.5152	832.8254	850.5088	916.3433	943.7497	972.5889	1001.8772	1037.6976	1045.6889	1081.8879	1101.4557	1122.0906	1130.1944	1172.9162	1224.5886	1248.973	1257.1879	1296.0053	1335.7078	1345.4959	1372.858	1381.8169	1416.3893	1421.204	1454.2343	1483.2166	1487.5467	1737.9473	2956.2234	3028.7317	3043.8707	3066.9261	3094.3663	3125.3745	3141.1737	3151.4449	3153.7265	3752.9792
OC1C2CC=CCOC12	O[C@H]1[C@H]2CC=CCO[C@@H]12	
InChI=1S/C7H10O2/c8-6-5-3-1-2-4-9-7(5)6/h1-2,5-8H,3-4H2	InChI=1S/C7H10O2/c8-6-5-3-1-2-4-9-7(5)6/h1-2,5-8H,3-4H2/t5-,6+,7-/m1/s1
