17
gdb 72058	2.46696	1.6552	1.29147	1.9916	81.46	-0.2203	0.0385	0.2588	1031.1227	0.135189	-384.604222	-384.59634	-384.595396	-384.636222	31.454	
O	-0.2940472113	 1.2925596203	-0.10981974	-0.457396
C	-0.0505467445	-0.058577456	-0.0502011153	 0.335976
C	 0.9263191891	-0.8628999066	-0.903325074	-0.295642
C	 0.1154347691	-2.1094380826	-0.4490553923	-0.124416
C	 0.3837371975	-2.2096792364	 1.0777140653	-0.236599
C	-0.3772825199	-0.8932986972	 1.1937907599	-0.195964
C	-1.1123436948	-1.1440469878	-0.1315397217	 0.295126
C	-2.4742508553	-1.1390886629	-0.4839944019	 0.002882
C	-3.6364816134	-1.1514087517	-0.8015342243	-0.375756
H	 0.2496024053	 1.7344902844	 0.5518491752	 0.289472
H	 0.7814076393	-0.6460072623	-1.9646342446	 0.113761
H	 1.9940444667	-0.8395609054	-0.6546987143	 0.086892
H	 0.06057481	-2.9947174737	-1.0767701136	 0.087155
H	-0.168443366	-3.0335148304	 1.5376192425	 0.109972
H	 1.4312126956	-2.2407551692	 1.399388482	 0.090345
H	-0.8049836707	-0.4210300248	 2.0694582841	 0.099964
H	-4.6605303268	-1.1531725377	-1.0801421569	 0.174226
115.761	147.3128	220.0576	300.6545	349.7398	399.3815	418.0746	488.8659	542.1334	550.7301	611.174	643.3304	649.4309	704.3242	768.9479	835.703	899.7885	921.8972	935.5029	984.9316	987.2285	997.4276	1055.5161	1108.9303	1120.3087	1151.0431	1179.5187	1213.6894	1232.0038	1258.215	1283.6792	1301.7658	1356.3926	1451.2866	1493.9854	1511.7833	2228.3876	3028.7918	3035.6718	3098.9665	3107.4418	3154.8237	3198.7794	3504.2495	3793.3501
OC12CC3CC1C23C#C	O[C@@]12C[C@H]3C[C@@H]1[C@@]23C#C	
InChI=1S/C8H8O/c1-2-7-5-3-6(7)8(7,9)4-5/h1,5-6,9H,3-4H2	InChI=1S/C8H8O/c1-2-7-5-3-6(7)8(7,9)4-5/h1,5-6,9H,3-4H2/t5-,6-,7+,8+/m1/s1
