21
gdb 109444	2.32747	1.359	0.95808	2.5902	83.46	-0.2365	-0.019	0.2174	1295.5778	0.180871	-387.090952	-387.081625	-387.080681	-387.125478	35.089	
C	 0.0254915749	 1.6185008438	-0.1403709543	-0.388463
C	-0.2211774991	 0.1149425635	-0.3064556665	-0.19414
C	 0.7712145251	-0.5400311667	-1.2676016914	-0.17239
C	 2.225129777	-0.7087476363	-0.7784769403	 0.40353
O	 2.997277717	 0.0180087866	-0.2207035723	-0.299605
C	 2.264641455	-2.1945053129	-1.181142743	-0.431688
C	 0.7594242843	-2.0740050362	-1.481766631	 0.341133
C	-0.3008483779	-3.0241217328	-1.0057436467	-0.31645
C	-0.0348507346	-2.8506046096	-2.4853541644	-0.324492
H	 1.040872322	 1.8051873307	 0.2188045056	 0.148537
H	-0.0945070797	 2.1446866759	-1.0940212404	 0.11152
H	-0.680016411	 2.0551688459	 0.5730233825	 0.110283
H	-0.158056018	-0.3831110981	 0.6687238049	 0.101803
H	-1.2407338053	-0.0593842508	-0.674901721	 0.097049
H	 0.7680440084	-0.0033590135	-2.2274756104	 0.096576
H	 2.8961197308	-2.3727358121	-2.0590980829	 0.129394
H	 2.5707009559	-2.8822924612	-0.38682118	 0.129017
H	 0.0174416927	-3.9479932372	-0.5331468337	 0.114248
H	-1.2200394523	-2.6120301503	-0.6021317292	 0.11676
H	-0.7748803417	-2.3183467484	-3.0752917288	 0.113366
H	 0.4584271964	-3.6590038503	-3.0158589468	 0.114012
46.0522	99.9994	143.6666	182.3789	237.3517	256.3262	304.7749	350.541	413.1285	473.3547	506.0312	565.8337	724.0345	774.1618	780.1399	792.5074	848.7334	888.5459	932.0021	948.6904	962.0625	995.1176	1038.2034	1053.6008	1073.6573	1079.8707	1087.5278	1140.9932	1156.1747	1187.7945	1192.8295	1226.0019	1248.7659	1274.5342	1331.0615	1361.4699	1376.3446	1411.8302	1440.3022	1465.7242	1488.4677	1497.519	1505.1513	1512.4599	1883.0167	3005.8613	3016.1605	3035.4607	3041.9282	3054.7481	3095.0331	3100.903	3120.6372	3125.1869	3125.8933	3198.6545	3213.8634
CCC1C(=O)CC11CC1	CC[C@H]1C(=O)CC21CC2	
InChI=1S/C8H12O/c1-2-6-7(9)5-8(6)3-4-8/h6H,2-5H2,1H3	InChI=1S/C8H12O/c1-2-6-7(9)5-8(6)3-4-8/h6H,2-5H2,1H3/t6-/m0/s1
