20
gdb 60805	1.96074	1.47228	0.99822	2.4308	75.67	-0.2419	-0.0356	0.2063	1254.2735	0.168891	-440.339683	-440.329383	-440.328439	-440.375407	37.21	
C	 0.4278572257	 1.341784652	-0.3218981915	-0.429715
C	 0.1142898103	-0.1502046207	-0.0773096325	-0.064036
C	 0.7492560741	-0.5270355902	 1.2486139274	 0.157597
O	 0.166500845	-0.9392479344	 2.2225446382	-0.259821
C	-1.387846325	-0.5147401947	-0.1327970141	-0.07241
C	-2.1194504651	 0.1022087461	-1.3327820029	-0.411371
C	-1.5228807575	-2.0460425304	-0.2215666429	 0.385146
N	-1.8992477552	-2.6696445584	 0.9342119813	-0.517679
O	-1.3361615242	-2.6404671717	-1.2676635982	-0.375516
H	 1.4922911946	 1.5452209428	-0.1633147749	 0.122667
H	 0.1872265206	 1.6294118658	-1.3466825068	 0.140697
H	-0.1416010284	 1.9821829668	 0.3597792299	 0.131597
H	 0.6449139631	-0.7284723569	-0.8484511299	 0.119843
H	 1.849422535	-0.3591354697	 1.285891415	 0.087773
H	-1.8511405726	-0.1634610744	 0.7952081708	 0.084634
H	-1.6736114353	-0.2421771583	-2.269145297	 0.140145
H	-3.168371943	-0.2082045105	-1.3341321893	 0.124503
H	-2.0952888113	 1.1940373385	-1.301094974	 0.110652
H	-1.6936011776	-2.2068466166	 1.8071720788	 0.271968
H	-1.8494901334	-3.6779061851	 0.9263405826	 0.253327
37.4252	81.0685	130.7181	174.7269	215.1293	232.0097	246.9276	287.4447	319.6619	338.3299	403.7964	482.8865	530.4309	584.2047	622.5254	674.4709	741.4639	808.9837	834.4341	919.2303	927.6213	972.4608	1038.2121	1079.4834	1112.9325	1134.2065	1146.4058	1174.7553	1261.5786	1303.5814	1306.6827	1367.4917	1396.5481	1402.7182	1409.2338	1431.0366	1488.1958	1497.0106	1501.1099	1512.8859	1626.7533	1791.8242	1815.5723	2879.1487	3009.243	3038.1546	3049.416	3056.3355	3101.3083	3115.7543	3132.0079	3136.1436	3563.2426	3689.859
CC(C=O)C(C)C(N)=O	C[C@@H](C=O)[C@@H](C)C(=O)N	
InChI=1S/C6H11NO2/c1-4(3-8)5(2)6(7)9/h3-5H,1-2H3,(H2,7,9)	InChI=1S/C6H11NO2/c1-4(3-8)5(2)6(7)9/h3-5H,1-2H3,(H2,7,9)/t4-,5+/m0/s1
