17
gdb 69865	2.68317	1.70723	1.20777	4.5529	77.26	-0.2432	-0.0035	0.2397	1031.5187	0.135504	-380.799792	-380.791858	-380.790914	-380.831946	30.868	
C	-0.0896119358	 1.5182663722	-0.0128205574	-0.506238
C	-0.0523726986	 0.0191405432	-0.0058603239	 0.294367
C	-0.8723955249	-0.8694095925	 0.8888129758	-0.359456
C	 0.6304883172	-0.9670084664	 0.911726497	-0.04453
N	 1.3082502775	-1.7075079468	-0.2284166034	-0.154905
C	 0.3165282209	-2.2616543747	-1.1516245612	-0.278542
C	 0.5620309307	-0.793523052	-1.1854271715	 0.10491
C	 1.2206670938	-0.1508744319	-2.2820359657	 0.239833
N	 1.7168444273	 0.3960527704	-3.1733719643	-0.347631
H	 0.8581476456	 1.9397933605	-0.362708415	 0.145024
H	-0.8828918849	 1.8919586897	-0.6704534925	 0.134253
H	-0.2817022451	 1.9008010404	 0.9938350632	 0.125073
H	-1.2633690605	-0.3467404337	 1.7573702275	 0.127538
H	-1.5354723943	-1.649881193	 0.5335140103	 0.120727
H	 1.2272722158	-0.8141634888	 1.8013016154	 0.11609
H	 0.7792268469	-2.8375733218	-1.9476730756	 0.14923
H	-0.6259052914	-2.663052565	-0.7997015686	 0.134256
122.329	137.0213	200.804	245.4312	304.5093	374.3358	461.5536	477.8989	532.4318	537.334	589.5996	635.4203	735.2692	769.5594	833.222	874.6462	923.2484	929.1491	977.8007	985.1278	1032.4992	1069.0787	1078.7786	1114.8391	1124.1647	1140.3583	1164.8232	1255.4499	1276.3991	1312.7463	1389.3275	1425.574	1475.9602	1483.2005	1498.5513	1518.1947	2343.0347	3031.5255	3094.0576	3112.3228	3125.1723	3139.3761	3198.1606	3204.2442	3225.0429
CC12CC1N1CC21C#N	C[C@]12C[C@H]1N1C[C@@]21C#N	
InChI=1S/C7H8N2/c1-6-2-5(6)9-4-7(6,9)3-8/h5H,2,4H2,1H3	InChI=1S/C7H8N2/c1-6-2-5(6)9-4-7(6,9)3-8/h5H,2,4H2,1H3/t5-,6+,7+,9?/m1/s1
