14
gdb 48340	2.1603	1.46223	1.02808	1.5933	67.82	-0.2749	-0.066	0.2089	1124.8928	0.09805	-436.708915	-436.700388	-436.699444	-436.743424	29.948	
O	-0.3388301753	 0.0821334202	-0.0903749181	-0.233351
C	-0.0675098835	 1.1703283452	 0.3366710069	 0.116616
C	 1.2460782628	 1.888655263	 0.0117053967	 0.044135
C	 2.3450433446	 0.9733431936	-0.6281423074	-0.396806
C	 2.3018918046	 1.8499515764	-1.883434663	 0.431544
O	 2.9423899106	 1.8908228473	-2.887706242	-0.265103
C	 1.1390925999	 2.7072205963	-1.3484960167	-0.397529
C	 1.6779897121	 2.6962573011	 1.1400097045	 0.234871
N	 1.9999826297	 3.3321777847	 2.0503516566	-0.320723
H	-0.7706264191	 1.7516198622	 0.966791912	 0.120617
H	 3.3038749473	 0.9253633951	-0.1094781307	 0.161338
H	 1.9622170512	-0.0374044526	-0.7994555794	 0.175944
H	 0.1968393932	 2.5514045514	-1.8815045277	 0.161087
H	 1.3392614418	 3.7775401362	-1.2713628417	 0.167359
32.0923	71.347	161.6094	184.5506	254.3208	281.9142	412.9249	457.7341	474.8466	539.017	569.7435	648.166	674.1883	744.429	854.1603	885.7505	904.762	1035.2014	1057.955	1089.9583	1122.1506	1146.0744	1216.8138	1235.5458	1262.6827	1413.1275	1416.4774	1433.2908	1833.1136	1914.3394	2353.9289	2934.3751	3069.5525	3072.9037	3138.4779	3141.4956
O=CC1(CC(=O)C1)C#N	O=CC1(CC(=O)C1)C#N	
InChI=1S/C6H5NO2/c7-3-6(4-8)1-5(9)2-6/h4H,1-2H2	InChI=1S/C6H5NO2/c7-3-6(4-8)1-5(9)2-6/h4H,1-2H2
