20
gdb 96963	2.69728	1.53734	1.16856	2.3155	82.24	-0.2415	0.0371	0.2786	1133.2806	0.171174	-403.147326	-403.1387	-403.137756	-403.180802	32.725	
C	-0.0821477681	 1.3736454267	-0.0827871437	-0.337112
N	-0.0470474859	-0.0816120264	-0.0846357854	-0.37604
C	-1.1218593779	-0.7246054434	-0.0001790835	 0.473101
O	-2.4078127631	-0.2156683134	 0.1000681264	-0.277691
C	-3.1914520585	-1.4424962896	 0.162097644	 0.094967
C	-2.5642233911	-2.2958280949	-0.9597539915	-0.269492
C	-1.3277040548	-2.224791121	 0.0168421141	 0.179676
C	-0.1131069041	-3.1089336454	-0.0775987766	-0.491203
C	-2.397382503	-2.2945137682	 1.1738589428	-0.269492
H	 0.5236436635	 1.7447099119	 0.7517634523	 0.123035
H	 0.3866400927	 1.7436237034	-1.0017512336	 0.123035
H	-1.0883736398	 1.8007660658	-0.0044256059	 0.124572
H	-4.2465345781	-1.1924022161	 0.2444476504	 0.090587
H	-2.9821278139	-3.3022655088	-1.0269882963	 0.106511
H	-2.4713681975	-1.8383444114	-1.9473193578	 0.111476
H	 0.4344800268	-2.911777151	-1.004048445	 0.133513
H	 0.5718656824	-2.9106418744	 0.7521744937	 0.133514
H	-0.3910101401	-4.167126218	-0.0551762704	 0.109057
H	-2.152191628	-1.8358326231	 2.1344276957	 0.111476
H	-2.7996634016	-3.3008266227	 1.3064685903	 0.10651
57.9058	120.017	178.1834	188.0652	245.2434	287.5251	341.8407	453.6514	485.1607	551.5553	591.2263	686.807	731.3079	789.3495	828.1461	865.6395	886.6618	932.0521	965.2167	986.3369	1021.6787	1042.8384	1053.6385	1070.4924	1098.9222	1123.5108	1134.7307	1173.6162	1194.5546	1229.8447	1245.0329	1248.2044	1318.0457	1364.1963	1418.3628	1438.6809	1475.2512	1484.5407	1488.2355	1494.712	1496.1735	1510.9741	1829.4854	3016.5714	3040.301	3066.0416	3072.1756	3077.1115	3087.6691	3111.3248	3113.2257	3133.697	3138.8747	3152.1904
CN=C1OC2CC1(C)C2	CN=C1O[C@H]2C[C@]1(C)C2	
InChI=1S/C7H11NO/c1-7-3-5(4-7)9-6(7)8-2/h5H,3-4H2,1-2H3	InChI=1S/C7H11NO/c1-7-3-5(4-7)9-6(7)8-2/h5H,3-4H2,1-2H3/t5-,7+
