17
gdb 44880	2.96152	1.53149	1.355	3.116	72.31	-0.2301	-0.0174	0.2127	997.9417	0.13633	-421.795323	-421.78816	-421.787216	-421.826879	28.615	
O	 0.0320698122	 0.0535028876	 0.0217225484	-0.324843
C	 0.0060562417	 1.2510162143	 0.0133366957	 0.454997
C	-1.20277065	 2.221193923	 0.0193360023	-0.342529
C	-0.3653090939	 3.514042409	 0.0456017468	-0.020327
O	 0.6403229345	 3.2176320222	-0.9855485431	-0.297923
C	 1.1644228634	 2.2681611537	 0.0015044745	-0.140123
C	 0.7099540198	 3.2357641415	 1.1008919771	 0.424299
C	 1.53300616	 4.2007708358	 1.8808795609	-0.357346
C	 0.6869085442	 3.1544553514	 2.5909778224	-0.351762
H	-1.7989817273	 2.1296525558	-0.8917466705	 0.13664
H	-1.8442635404	 2.0601860924	 0.8899075954	 0.126878
H	-0.8577006871	 4.4788470791	-0.0722797489	 0.092856
H	 2.1840814851	 1.9248246116	-0.1599094545	 0.099956
H	 2.6104399168	 4.0746320971	 1.8853057693	 0.125578
H	 1.2042636926	 5.2342338021	 1.9233847298	 0.123328
H	-0.2054252527	 3.4886120977	 3.110828549	 0.121399
H	 1.196815201	 2.3252003857	 3.0704010253	 0.128922
104.877	187.2625	229.4215	284.3683	406.7205	443.0183	530.0724	573.9064	641.4878	653.3417	767.7508	783.3578	829.3984	854.5748	910.0535	925.4043	934.4742	956.3237	966.569	990.2476	1009.3351	1055.0946	1082.0674	1114.8465	1146.6525	1172.0336	1182.9041	1201.3433	1218.4981	1243.8034	1262.5201	1293.6914	1416.9618	1450.6314	1463.485	1512.8985	1884.201	3070.3098	3123.4485	3126.7395	3127.2764	3130.4636	3154.5353	3205.9513	3219.7161
O=C1CC2OC1C21CC1	O=C1C[C@@H]2O[C@H]1C12CC1	
InChI=1S/C7H8O2/c8-4-3-5-7(1-2-7)6(4)9-5/h5-6H,1-3H2	InChI=1S/C7H8O2/c8-4-3-5-7(1-2-7)6(4)9-5/h5-6H,1-3H2/t5-,6+/m0/s1
