17
gdb 73588	2.2281	2.1182	1.56884	2.0543	66.03	-0.2325	0.0564	0.2889	907.3785	0.136241	-458.913441	-458.906154	-458.90521	-458.944876	29.048	
O	 0.0759049581	 1.4686399235	-0.1627907856	-0.482665
C	 0.0252680501	 0.0710607842	-0.025014092	 0.367972
C	-1.3639586111	-0.4587069536	-0.3796265275	-0.280046
C	-1.6500330405	-1.5449237679	 0.6839297047	-0.075704
O	-0.8145528165	-1.2610103643	 1.8198042942	-0.261451
C	 0.3078053469	-0.5500988545	 1.3891820481	 0.020351
C	 1.5138846043	-1.3101447813	 0.774724656	-0.013638
O	 1.0265767102	-2.0854672823	-0.328780651	-0.234365
C	 1.2699991303	-0.6946110733	-0.547106205	-0.075428
H	 0.9409230225	 1.7771871961	 0.1291541724	 0.280842
H	-2.0641193576	 0.3762908262	-0.2922804451	 0.122131
H	-1.4258231622	-0.8591540361	-1.3936919217	 0.114489
H	-2.686131022	-1.530693025	 1.0353903263	 0.103236
H	-1.4218249084	-2.5415407363	 0.2946366649	 0.117767
H	 0.6122906541	 0.1740801225	 2.1524124571	 0.08162
H	 2.4324072428	-1.6475617601	 1.2419521884	 0.108139
H	 1.952176309	-0.4152907677	-1.3432170842	 0.106751
130.5365	208.4842	256.0882	280.7699	325.8177	354.9357	471.9311	546.0096	624.253	666.6383	709.1054	789.187	822.8793	856.0845	882.1902	902.3653	933.7764	976.8568	994.2512	1008.5173	1044.8023	1086.1759	1107.9324	1122.9703	1158.4002	1192.2842	1218.3096	1242.1879	1252.4254	1274.1829	1320.7034	1347.3302	1364.3101	1374.1255	1410.0408	1477.76	1520.8667	3047.7206	3059.3822	3069.8513	3089.6629	3124.4988	3170.8642	3186.2869	3799.1504
OC12CCOC1C1OC21	O[C@]12CCO[C@H]1[C@H]1O[C@@H]21	
InChI=1S/C6H8O3/c7-6-1-2-8-4(6)3-5(6)9-3/h3-5,7H,1-2H2	InChI=1S/C6H8O3/c7-6-1-2-8-4(6)3-5(6)9-3/h3-5,7H,1-2H2/t3-,4+,5-,6-/m1/s1
