19
gdb 36801	8.45889	0.492	0.48209	4.1265	78.13	-0.2447	0.0346	0.2792	2180.8543	0.158915	-419.184949	-419.17525	-419.174305	-419.221198	33.498	
N	-0.1522160527	-1.0896089479	-0.1954150076	-0.303581
C	-0.0832870048	 0.0635646411	-0.1713635903	 0.256294
C	 0.0286914899	 1.5188179726	-0.1362256407	-0.346155
C	 1.4888693473	 1.9918582261	-0.0172322438	-0.122321
N	 1.5261546475	 3.4437687764	 0.0464808795	-0.305565
C	 2.8642039586	 3.9879018126	 0.2569195497	-0.161089
C	 2.7994991227	 5.493186488	 0.2617748206	 0.080749
C	 3.8533657275	 6.318803793	-0.3359925078	-0.177239
O	 2.6201458365	 6.1019623935	-1.0243140141	-0.239348
H	-0.4254122136	 1.9253190039	-1.0481146009	 0.150691
H	-0.5489090991	 1.9093953887	 0.7077377252	 0.16343
H	 1.918054512	 1.5933003221	 0.9090665426	 0.126358
H	 2.0797928319	 1.5662736285	-0.8473052711	 0.105076
H	 1.1614980098	 3.835552756	-0.8181043296	 0.230379
H	 3.2347180027	 3.6354533177	 1.2286761782	 0.111746
H	 3.5918300573	 3.661302295	-0.5076289161	 0.089432
H	 2.1771624911	 5.9267773961	 1.0448542617	 0.103612
H	 4.0144216908	 7.3324757166	 0.0271523308	 0.120443
H	 4.7258445643	 5.8404023299	-0.7789431963	 0.117088
42.7285	61.2182	87.5336	118.0121	153.5631	183.6394	303.5618	323.6058	401.1338	444.2005	490.0209	566.6438	787.2839	790.5936	816.8725	869.5641	938.9742	958.9623	968.4528	1030.3963	1057.2197	1087.732	1128.0304	1142.8417	1153.8768	1165.9928	1171.3531	1217.4263	1274.5322	1293.2153	1302.9091	1320.0617	1351.7314	1407.6411	1457.8825	1469.2725	1495.2433	1501.7706	1519.1927	1532.3593	2364.5782	2944.0585	2951.7084	3038.7387	3041.498	3060.738	3086.6713	3092.9226	3115.8153	3173.6857	3498.1629
N#CCCNCC1CO1	N#CCCNC[C@H]1CO1	
InChI=1S/C6H10N2O/c7-2-1-3-8-4-6-5-9-6/h6,8H,1,3-5H2	InChI=1S/C6H10N2O/c7-2-1-3-8-4-6-5-9-6/h6,8H,1,3-5H2/t6-/m0/s1
