24
gdb 7396	3.56615	1.04641	0.85582	1.003	82.78	-0.25	0.0841	0.334	1442.1147	0.221019	-351.405563	-351.394802	-351.393858	-351.441485	38.52	
C	-0.0894554097	 1.3973829434	 0.0146512013	-0.226786
O	-0.0616177947	-0.0075071203	 0.000105625	-0.231457
C	 0.6445514744	-0.5331348145	-1.1064229541	-0.062958
C	 0.6077082266	-2.064418652	-1.0425249308	 0.028325
C	-0.8535820011	-2.5416321217	-1.0396671267	-0.406931
C	 1.4453057187	-2.7057689932	-2.1788415805	 0.043871
C	 2.921116442	-2.2725035783	-2.1499855296	-0.396568
C	 1.3689519267	-4.2409831238	-2.148811604	-0.396703
H	 0.9240456336	 1.8275824916	 0.0653203775	 0.100838
H	-0.5879293693	 1.8076775682	-0.8785503334	 0.10139
H	-0.6473315888	 1.7066057438	 0.902266079	 0.12463
H	 0.1869956441	-0.184158479	-2.0507561001	 0.077653
H	 1.6784273372	-0.1575230084	-1.089042988	 0.083613
H	 1.0654278091	-2.3511449833	-0.0842911745	 0.075537
H	-1.3144440257	-2.3910239054	-2.0241387647	 0.103606
H	-0.9376453437	-3.6015078384	-0.7888371691	 0.111302
H	-1.4302387471	-1.9730003715	-0.3077553398	 0.132534
H	 1.0134040781	-2.3711278759	-3.1345385004	 0.068014
H	 3.4904951445	-2.8024982983	-2.9205886291	 0.108535
H	 3.0531048291	-1.2024904016	-2.3291785344	 0.114007
H	 3.3789433204	-2.5088008262	-1.1817220263	 0.11278
H	 0.3515615405	-4.6103257941	-2.2967218118	 0.116269
H	 1.993642606	-4.6709869642	-2.9384968018	 0.107582
H	 1.7325827491	-4.6323699071	-1.1907293037	 0.110919
47.4377	87.9459	95.5033	154.3076	210.4331	213.1648	234.2859	245.6541	304.7871	338.9483	365.8338	381.2239	430.7631	465.966	534.2993	798.8385	883.6792	925.327	930.7149	953.6564	967.5919	991.9275	995.9539	1078.9479	1147.2572	1155.8489	1175.0793	1184.2308	1193.2624	1200.3098	1231.5996	1274.5258	1302.5496	1344.941	1360.6	1377.8074	1399.5986	1404.5113	1422.8398	1427.3727	1480.0707	1485.4409	1487.6307	1491.9678	1499.916	1503.5956	1506.2391	1510.3818	1521.7408	1529.4787	2935.1736	2965.0151	2984.4045	2997.7914	3006.2038	3011.1643	3027.3884	3031.6141	3032.98	3087.9824	3095.2029	3106.2652	3109.4086	3112.6413	3119.9605	3136.7613
COCC(C)C(C)C	COC[C@@H](C)C(C)C	
InChI=1S/C7H16O/c1-6(2)7(3)5-8-4/h6-7H,5H2,1-4H3	InChI=1S/C7H16O/c1-6(2)7(3)5-8-4/h6-7H,5H2,1-4H3/t7-/m1/s1
