23
gdb 103944	3.48028	0.97605	0.9199	1.8891	85.93	-0.256	0.0761	0.3321	1409.0478	0.204024	-388.269629	-388.25998	-388.259036	-388.303932	37.208	
C	 0.1523834456	 1.4393260234	 0.2999726661	-0.389914
C	 0.0186084253	-0.0473053778	-0.0487904702	-0.23941
C	 0.660753149	-0.4608647801	-1.3773268752	 0.362261
C	 0.0210694877	 0.2328444681	-2.5830698666	-0.449121
C	 2.229699973	-0.3895186922	-1.4233586331	-0.362733
C	 2.2258412434	-1.8102968332	-1.9841473306	 0.479066
C	 2.9619030796	-2.3513582756	-3.128221015	-0.26821
O	 3.2547161206	-2.7617320224	-1.7845944414	-0.274496
C	 0.7615994372	-2.0118122119	-1.5987312167	-0.37321
H	 1.2019939508	 1.7535267311	 0.3058923726	 0.118827
H	-0.381774377	 2.0768325959	-0.410890491	 0.118138
H	-0.2583094899	 1.6422752472	 1.2938027362	 0.113994
H	 0.4728751152	-0.6426530203	 0.7535994247	 0.09234
H	-1.0444016931	-0.3250710491	-0.0675743258	 0.092926
H	 0.1531605066	 1.3186732731	-2.5433671669	 0.116729
H	 0.4668734117	-0.1174229483	-3.5200954194	 0.113122
H	-1.0543635015	 0.0250059046	-2.6287173961	 0.112064
H	 2.6812524278	 0.3957313645	-2.035585594	 0.099173
H	 2.6733235482	-0.3590958382	-0.4230512665	 0.107972
H	 2.5035438883	-3.1130530045	-3.7586498668	 0.112345
H	 3.7333302756	-1.7517282103	-3.6110067883	 0.112246
H	 0.6685387737	-2.5737929869	-0.6639571363	 0.107234
H	 0.0966816922	-2.4538827673	-2.3459074799	 0.098658
59.0135	98.2754	180.556	230.5843	253.6252	285.723	313.8	323.7432	344.4642	362.3305	425.2315	463.4369	549.4603	685.1542	789.6395	815.8767	857.5465	867.2428	878.3133	907.3505	922.3383	939.4868	979.8467	1014.7151	1045.2941	1051.4412	1093.7214	1126.6234	1148.9136	1157.7586	1167.3802	1207.5616	1215.8414	1232.0185	1262.0208	1299.8231	1338.0519	1368.8098	1409.7291	1414.9623	1433.6797	1464.7807	1478.8128	1489.5482	1497.4216	1498.1854	1505.6568	1510.9914	1536.6617	3009.2495	3025.9313	3035.413	3043.7048	3046.3748	3051.9957	3074.3598	3091.003	3097.9987	3100.9504	3102.7035	3103.2819	3109.4513	3160.1575
CCC1(C)CC2(CO2)C1	CC[C@@]1(C)C[C@]2(CO2)C1	
InChI=1S/C8H14O/c1-3-7(2)4-8(5-7)6-9-8/h3-6H2,1-2H3	InChI=1S/C8H14O/c1-3-7(2)4-8(5-7)6-9-8/h3-6H2,1-2H3/t7-,8+
