19
gdb 117600	2.04973	1.1951	0.98819	1.2315	84.39	-0.2622	0.0148	0.2769	1342.2741	0.153608	-385.806465	-385.795665	-385.79472	-385.842313	39.193	
C	-0.0270738003	 1.5488263107	-0.1385432288	-0.38296
C	 0.045258675	 0.0418835312	 0.0446738179	-0.047165
O	 0.7290211303	-0.4882201369	-1.0860973098	-0.272484
C	 0.7448594409	-1.910626084	-1.2246313365	-0.004511
C	 1.5178085107	-2.5934242971	-0.0699192394	-0.417773
C	-0.6253228707	-2.4605132564	-1.3032216867	 0.353318
C	-1.7390012447	-2.909913879	-1.3404688222	-0.496058
C	 1.4415194069	-2.1748789526	-2.4939791539	 0.333105
C	 2.033377002	-2.4200144828	-3.5088415417	-0.436228
H	 0.97666143	 1.9752383862	-0.2209556891	 0.127693
H	-0.5810061137	 1.7982522411	-1.0475579222	 0.130162
H	-0.5311602239	 2.0094087997	 0.716540415	 0.113928
H	 0.5814920829	-0.2030704497	 0.9730527823	 0.091174
H	-0.9621232464	-0.3900353283	 0.1161657575	 0.104583
H	 0.9856065245	-2.4710403133	 0.875685559	 0.12832
H	 1.6207449146	-3.6612421788	-0.2725785587	 0.139031
H	 2.5105895578	-2.1436832709	 0.0058927495	 0.134506
H	-2.7227999164	-3.3074642956	-1.3922077694	 0.202675
H	 2.5460953704	-2.6271442034	-4.415662253	 0.198685
51.9298	99.5112	122.7104	133.098	181.4342	216.1431	243.5493	255.1416	302.0349	347.7763	419.7712	471.7876	503.1281	557.3231	601.6011	634.2701	637.1038	667.2081	671.652	706.1645	826.0109	873.7053	937.0411	963.0611	1059.5975	1101.5907	1131.9586	1156.5252	1186.7628	1227.8195	1300.6763	1392.8492	1400.2808	1424.1428	1481.7578	1482.6677	1489.1737	1500.8302	1528.2553	2230.9241	2247.3941	2993.3523	3035.3543	3045.2159	3056.3105	3118.8105	3124.9735	3140.7495	3143.1928	3499.2376	3502.4976
CCOC(C)(C#C)C#C	CCOC(C)(C#C)C#C	
InChI=1S/C8H10O/c1-5-8(4,6-2)9-7-3/h1-2H,7H2,3-4H3	InChI=1S/C8H10O/c1-5-8(4,6-2)9-7-3/h1-2H,7H2,3-4H3
