18
gdb 82698	2.68888	1.65204	1.23801	3.2651	76.72	-0.2488	-0.0287	0.2201	1038.3891	0.147414	-401.893383	-401.885494	-401.88455	-401.925774	30.169	
C	 0.2386585821	 1.7180752457	 0.1020130483	-0.437141
C	 0.1765208364	 0.1978643179	 0.1429336512	-0.036886
C	 1.015106006	-0.6929048628	-0.8257868909	-0.109607
C	 2.4732502132	-0.346996762	-0.4677548716	-0.153942
N	 2.2793280766	-0.9735809385	 0.8842420978	-0.184289
C	 1.1479733432	-1.7421129451	 0.3417357634	-0.095667
C	 0.8503754964	-0.5961001378	 1.2638674188	 0.254671
C	 0.5120687403	-0.6392131898	 2.6940568178	 0.051562
O	-0.4135141293	-0.0285747962	 3.1761198784	-0.26895
H	 1.2606777873	 2.0996797196	 0.1740633371	 0.119503
H	-0.2013962849	 2.1003472232	-0.8254761139	 0.116558
H	-0.3280565309	 2.132172984	 0.9409823709	 0.145302
H	-0.8666251184	-0.1320581605	 0.0980838398	 0.09497
H	 0.6867355877	-0.8725835845	-1.8476446507	 0.080329
H	 3.2006492549	-0.953976423	-1.0119850794	 0.118272
H	 2.7914017836	 0.6995408539	-0.4638251294	 0.108506
H	 1.0044050337	-2.8089861941	 0.4549097994	 0.111001
H	 1.1764670721	-1.28576084	 3.3061084229	 0.085809
101.9637	148.511	179.3238	236.1352	257.661	310.2612	441.8718	494.5429	566.8728	646.4627	717.0833	749.6148	789.9471	830.5493	877.283	929.1999	943.0446	963.7134	1002.1775	1024.6446	1040.0235	1077.3237	1089.3821	1130.5722	1147.6875	1156.3995	1179.7151	1210.6277	1243.9814	1280.8546	1310.0467	1342.2325	1401.2962	1408.8581	1428.6836	1489.7743	1497.5895	1517.0185	1800.1794	2908.3627	3038.936	3056.9775	3059.2307	3107.0187	3114.0647	3120.9531	3136.5273	3201.899
CC1C2CN3C2C13C=O	C[C@H]1[C@H]2CN3[C@H]2[C@]13C=O	
InChI=1S/C7H9NO/c1-4-5-2-8-6(5)7(4,8)3-9/h3-6H,2H2,1H3	InChI=1S/C7H9NO/c1-4-5-2-8-6(5)7(4,8)3-9/h3-6H,2H2,1H3/t4-,5+,6+,7-,8?/m0/s1
