17
gdb 111035	2.73272	1.22179	0.98515	3.1062	76.03	-0.2404	0.0129	0.2534	1216.2583	0.133823	-421.706458	-421.697849	-421.696904	-421.740091	32.45	
O	-0.1022573744	 1.5060987026	-0.2403231242	-0.417531
C	 0.0807525243	 0.1324981927	 0.0781537281	-0.139027
C	-1.2877560109	-0.5139656285	 0.0221699613	 0.012771
C	-2.0192751395	-0.8599343033	-1.3019166256	 0.019178
C	-1.0592507359	-2.0404145207	-1.5656328428	-0.272131
C	-1.4914798415	-2.0627450288	-0.0687074459	 0.320958
O	-2.8839992755	-1.7866832319	-0.5278816293	-0.339907
C	-1.25786508	-3.0623846104	 0.9292541673	 0.072757
C	-1.0261498244	-3.8911117786	 1.7688103265	-0.353552
H	 0.7396369994	 1.9563537726	-0.1246291432	 0.289986
H	 0.7877752112	-0.3436211988	-0.6158684822	 0.089731
H	 0.488051092	 0.0055701195	 1.0937925932	 0.099033
H	-1.9638998112	-0.062171223	 0.7510216914	 0.100835
H	-2.5097376318	-0.1945276745	-2.0090467174	 0.106179
H	-1.4838060199	-2.8493978966	-2.1597825151	 0.118429
H	-0.0139536312	-1.8415692684	-1.806231873	 0.102915
H	-0.8313121708	-4.626364454	 2.5103157408	 0.189376
58.4617	109.6782	167.5433	210.2789	244.1627	323.2744	361.0453	484.24	506.8611	561.7892	583.3622	626.7845	641.4072	685.7284	725.2122	804.4988	881.7535	920.0355	947.7979	969.2038	1013.6365	1065.2397	1086.8486	1095.5485	1126.1422	1154.1625	1201.7644	1216.9933	1239.2625	1256.9512	1265.992	1291.393	1381.4373	1468.0164	1490.881	1524.3999	2238.7835	2977.4274	3011.8848	3081.8108	3102.8296	3149.4724	3159.8084	3499.5485	3828.2405
OCC1C2CC1(O2)C#C	OC[C@H]1[C@H]2C[C@@]1(O2)C#C	
InChI=1S/C7H8O2/c1-2-7-3-6(9-7)5(7)4-8/h1,5-6,8H,3-4H2	InChI=1S/C7H8O2/c1-2-7-3-6(9-7)5(7)4-8/h1,5-6,8H,3-4H2/t5-,6+,7-/m0/s1
