17
gdb 94248	1.98109	1.61888	1.22861	2.0596	75.22	-0.247	-0.0396	0.2075	1102.8844	0.131951	-421.774793	-421.765223	-421.764279	-421.810101	33.831	
C	-0.064501815	 1.5251977483	 0.027410576	-0.410315
C	 0.177424499	 0.0285649207	-0.0848532226	-0.085771
C	 1.4072120968	-0.4496375774	-0.8861260798	-0.08288
O	 1.9587549332	-1.1431996651	 0.2575931182	-0.310062
C	 0.8574092995	-0.738363591	 1.1068122181	 0.135984
C	 1.4044809795	 0.1029313796	 2.2697588435	 0.10024
O	 0.7645857078	 0.9042613472	 2.8936532658	-0.240112
C	 0.1136065882	-1.8604100631	 1.6572408131	 0.315533
C	-0.4970649221	-2.7804373381	 2.1328949858	-0.449315
H	 0.8513220508	 2.069983244	 0.2747167327	 0.124227
H	-0.4371837693	 1.9098560687	-0.9279355274	 0.118596
H	-0.8021018242	 1.7507407624	 0.801152674	 0.147271
H	-0.7400892481	-0.4816967602	-0.3826103375	 0.101651
H	 1.2030953938	-1.1369265032	-1.713986288	 0.114435
H	 2.0764290455	 0.3468716617	-1.2340547119	 0.107602
H	 2.4782036033	-0.10715378	 2.4685180711	 0.104883
H	-1.0380139887	-3.5954711345	 2.547406869	 0.208032
36.3066	65.4946	128.9974	167.1217	184.2071	234.8135	293.4185	325.6566	400.8428	460.5773	501.3285	550.8564	626.0686	671.6801	712.1059	753.331	893.293	921.8529	937.7202	1006.4953	1020.7564	1028.0646	1099.7291	1144.4594	1159.3991	1163.4806	1202.1062	1276.7454	1337.9359	1370.7107	1389.8503	1418.0213	1488.5545	1494.9452	1526.2039	1833.2357	2227.1622	2901.5376	3023.0738	3041.0003	3070.5456	3091.7961	3110.8527	3129.0281	3498.5434
CC1COC1(C=O)C#C	C[C@H]1CO[C@]1(C=O)C#C	
InChI=1S/C7H8O2/c1-3-7(5-8)6(2)4-9-7/h1,5-6H,4H2,2H3	InChI=1S/C7H8O2/c1-3-7(5-8)6(2)4-9-7/h1,5-6H,4H2,2H3/t6-,7-/m0/s1
