17
gdb 61439	3.21806	0.94491	0.77325	4.1093	65.21	-0.2472	0.0067	0.2539	1409.0436	0.136335	-492.353202	-492.343728	-492.342783	-492.38865	33.881	
N	 0.0371358512	 1.1904278376	-0.6419600076	-0.509197
C	 0.0245551128	 0.134649175	 0.2110928405	 0.404699
O	 0.9510070475	-0.0967228179	 0.9747223775	-0.369072
C	-1.2221237202	-0.7406790727	 0.1617035163	-0.310568
C	-0.8853894134	-2.2335361959	-0.0316064659	-0.113726
N	-0.1482651791	-2.7643141665	 1.1222116939	-0.546509
H	-1.7619121941	-3.6282174869	 1.4780561614	 0.306972
H	 0.4681315187	-3.5164104119	 0.8310957193	 0.244294
H	 0.4388659422	-2.0255563693	 1.5074214192	 0.267145
C	-2.2220096346	-2.9918423562	-0.1915825299	 0.42103
O	-2.9259607739	-2.8743021875	-1.1602359673	-0.35303
O	-2.5251572482	-3.7520783897	 0.8631289602	-0.362762
H	 0.8339985337	 1.8067149479	-0.6321037201	 0.267655
H	-0.7180679721	 1.3811774752	-1.2760859723	 0.270211
H	-1.7436411881	-0.6186776212	 1.118884103	 0.144687
H	-1.9084665939	-0.4416896456	-0.6334789092	 0.132202
H	-0.3470679286	-2.3465909947	-0.9817816889	 0.105969
36.5287	78.6291	100.5367	164.6964	240.5164	245.8778	334.1377	360.3842	388.8316	443.8811	524.117	545.1084	601.2866	653.4276	718.7847	750.1982	853.6285	879.006	913.9799	923.2787	982.4735	1018.781	1081.6779	1123.3553	1179.2842	1226.4641	1265.6592	1304.6439	1341.984	1373.4513	1403.6171	1447.1972	1471.4133	1621.1707	1672.5963	1772.4811	1865.9098	3018.9334	3046.5626	3115.461	3387.854	3463.0669	3559.3354	3602.5764	3741.252
NC(=O)CC([NH3+])C([O-])=O	NC(=O)C[C@@H](N)C(=O)O	
InChI=1S/C4H8N2O3/c5-2(4(8)9)1-3(6)7/h2H,1,5H2,(H2,6,7)(H,8,9)	InChI=1S/C4H8N2O3/c5-2(4(8)9)1-3(6)7/h2H,1,5H2,(H2,6,7)(H,8,9)/t2-/m1/s1
