20
gdb 57495	3.54265	0.74883	0.71679	4.1945	80.41	-0.2627	-0.0239	0.2388	1657.0553	0.166827	-440.317288	-440.306753	-440.305809	-440.353318	37.578	
C	-0.1813929549	 1.4939730028	 0.1442740105	-0.424314
C	 0.2099714285	 0.0102452197	 0.0406374464	 0.276381
C	 0.7965959697	-0.4701225966	 1.3810176522	-0.382797
C	-1.0277432636	-0.8332856107	-0.316950501	-0.381423
N	 1.2206623182	-0.2982868909	-0.9830246195	-0.252107
C	 1.7368423042	 0.5908172747	-1.6986937647	 0.127299
O	 2.6835040683	 0.3271720653	-2.6622153715	-0.199987
C	 3.3758185608	-0.8575120961	-2.615881584	 0.17967
O	 4.1093191808	-1.1696019258	-3.5005972779	-0.255113
H	 0.674046604	 2.1235154315	 0.411371272	 0.117319
H	-0.6083652498	 1.8681368346	-0.79219836	 0.119253
H	-0.9380648503	 1.6215351836	 0.9235500326	 0.120589
H	 0.0597111996	-0.360946753	 2.1827743007	 0.114407
H	 1.0876630729	-1.5217051036	 1.3148989054	 0.124791
H	 1.683331864	 0.1131456743	 1.6484857842	 0.113825
H	-1.4547147475	-0.5103592633	-1.2714485924	 0.116327
H	-0.7565666658	-1.8883263594	-0.4061949784	 0.125774
H	-1.7966500828	-0.7324720273	 0.4553085509	 0.112901
H	 1.5260387136	 1.6608372951	-1.7039166164	 0.121065
H	 3.1786426199	-1.4234599748	-1.6967603689	 0.126141
48.68	90.2006	97.3818	147.9741	220.3065	244.9419	271.8429	281.9286	317.9063	323.1645	350.0272	386.7684	489.4808	507.2168	524.0174	698.1253	801.585	921.4348	924.583	942.8613	959.6715	984.7876	1040.7544	1047.7085	1049.5951	1064.8908	1167.7963	1245.6936	1249.1703	1257.9235	1388.9049	1394.4021	1395.4601	1406.2484	1426.2703	1473.7181	1485.442	1486.8981	1497.556	1503.4766	1519.1277	1746.9411	1871.3486	3030.3864	3035.5523	3041.3913	3074.3854	3098.9695	3106.1298	3107.8518	3113.4127	3119.1422	3122.5828	3124.757
CC(C)(C)N=COC=O	CC(C)(C)N=COC=O	
InChI=1S/C6H11NO2/c1-6(2,3)7-4-9-5-8/h4-5H,1-3H3	InChI=1S/C6H11NO2/c1-6(2,3)7-4-9-5-8/h4-5H,1-3H3
