16
gdb 50285	2.54204	1.31997	1.00924	3.2435	72.	-0.2429	-0.0415	0.2014	1161.8829	0.122626	-437.848978	-437.840609	-437.839665	-437.882783	30.171	
O	-0.5182561409	 0.7967141103	 0.9210974542	-0.242946
C	 0.2640927086	 0.729205554	 0.0085278781	 0.164842
C	 1.4263580323	 1.6869369212	-0.1641562128	-0.137825
N	 2.598266755	 1.1465053782	-0.914786702	-0.332157
C	 2.5909208089	 2.3050665778	-1.8140855809	-0.029379
C	 1.3627949818	 2.3017655918	-2.6296809729	-0.31795
C	 1.244972244	 2.8174531779	-1.2018054183	 0.188226
C	 0.8732081844	 4.2057878028	-0.9063318407	 0.059756
O	 0.8484536658	 5.0942814155	-1.7283677517	-0.277
H	 0.173090985	-0.0346354107	-0.7941652613	 0.088022
H	 1.685680435	 2.1102232199	 0.812775936	 0.10449
H	 3.4267671601	 1.1004634156	-0.3337824788	 0.239409
H	 3.4769365587	 2.8870397586	-2.0374096563	 0.126297
H	 1.2699330413	 3.1099139493	-3.3474442601	 0.155779
H	 0.9062500412	 1.3574081085	-2.9066897483	 0.130626
H	 0.6336936886	 4.4001206093	 0.1629931358	 0.079808
50.966	107.7072	146.8303	209.4009	228.234	283.866	409.8525	442.1445	469.2985	543.8258	691.558	725.3812	751.0651	825.8873	920.4266	943.7191	952.7728	1014.3078	1031.1991	1047.9993	1055.0243	1087.7703	1105.992	1124.763	1190.7988	1217.7955	1260.9748	1330.9808	1362.9144	1404.9206	1412.1724	1431.6635	1476.0965	1788.766	1829.5134	2883.0799	2900.1561	3052.1616	3133.3451	3194.3216	3231.8363	3555.2671
O=CC1NC2CC12C=O	O=C[C@H]1N[C@H]2C[C@@]12C=O	
InChI=1S/C6H7NO2/c8-2-5-6(3-9)1-4(6)7-5/h2-5,7H,1H2	InChI=1S/C6H7NO2/c8-2-5-6(3-9)1-4(6)7-5/h2-5,7H,1H2/t4-,5+,6-/m0/s1
