18
gdb 55068	3.75342	0.81539	0.75356	5.1028	75.37	-0.2416	-0.032	0.2096	1526.4818	0.144706	-439.084222	-439.074504	-439.07356	-439.120243	33.692	
C	 0.3379917193	 1.3678261977	-0.7181510205	-0.487148
C	 0.0425098504	 0.2986110538	 0.3161539126	 0.414194
O	 0.8595678474	-0.0494903513	 1.1386422057	-0.303644
C	-1.3470158935	-0.2771461815	 0.266301167	-0.151225
N	-1.5455056428	-1.632440559	 0.8103556276	-0.306383
C	-2.1601663358	-0.5145170369	 1.5152031234	-0.033349
C	-1.6484792522	-0.2232144128	 2.9114043579	-0.29389
C	-2.1645285458	-1.2463662547	 3.9019203662	 0.157518
O	-2.7210726895	-0.9811298982	 4.9363843297	-0.241957
H	 1.3402835229	 1.7673039938	-0.5626437041	 0.14782
H	 0.2612770556	 0.9473829558	-1.7279560329	 0.143518
H	-0.3992548515	 2.1767668261	-0.6551157481	 0.142151
H	-1.9235649071	 0.0025836488	-0.6129649544	 0.091403
H	-2.22687375	-2.1314972185	 0.2448814706	 0.242723
H	-3.2317305224	-0.365992679	 1.3834628588	 0.104384
H	-0.5545079227	-0.2917879084	 2.8975173614	 0.167887
H	-1.9446425818	 0.7753867783	 3.2449655502	 0.116217
H	-1.9811784405	-2.3009064239	 3.5971506989	 0.089783
49.4562	62.9339	81.689	136.4201	149.607	201.991	265.0127	345.2492	388.2088	455.4424	503.9321	607.1712	628.1191	759.4709	828.7477	835.2074	869.0153	940.4823	961.0213	1004.1481	1020.0361	1055.3872	1076.1273	1121.8671	1184.4568	1188.253	1200.2557	1245.3725	1274.0431	1296.1357	1378.4624	1417.6163	1422.1517	1456.3658	1457.0211	1465.7513	1474.2155	1805.2862	1832.5931	2888.4224	3032.2626	3045.8101	3091.1083	3102.2169	3116.7905	3130.7554	3156.7795	3509.6888
CC(=O)C1NC1CC=O	CC(=O)[C@H]1N[C@H]1CC=O	
InChI=1S/C6H9NO2/c1-4(9)6-5(7-6)2-3-8/h3,5-7H,2H2,1H3	InChI=1S/C6H9NO2/c1-4(9)6-5(7-6)2-3-8/h3,5-7H,2H2,1H3/t5-,6+/m0/s1
