25
gdb 119006	2.44116	1.11332	0.97879	0.966	88.78	-0.2513	0.0739	0.3253	1407.0184	0.228964	-389.50306	-389.492735	-389.491791	-389.538676	38.232	
C	-0.3104128141	 1.2873010691	 0.4235256912	-0.225796
O	-0.1054134778	-0.0842076969	 0.1939481526	-0.235993
C	-1.310176243	-0.8070614166	 0.0449036441	-0.07232
C	-0.9960476043	-2.2884831292	-0.2163138472	 0.273271
C	-0.23025442	-2.422048881	-1.5374324291	-0.445749
C	-0.2343236053	-2.9043759393	 0.9801892306	-0.218167
C	-1.3051138174	-3.1657684464	 2.0578734936	-0.213415
C	-2.6319442236	-3.4052438266	 1.2801679409	-0.205047
C	-2.3187965097	-3.0935408131	-0.2063376554	-0.240104
H	 0.671973565	 1.7539677091	 0.5315913955	 0.1251
H	-0.8416574733	 1.7681436887	-0.4136686316	 0.102202
H	-0.8918756637	 1.4668200381	 1.3423541661	 0.101452
H	-1.9316263589	-0.6888583141	 0.9486124301	 0.081147
H	-1.8936250496	-0.4013794328	-0.8004246125	 0.079633
H	 0.6934288606	-1.838057198	-1.512620271	 0.128259
H	 0.0268177906	-3.4682702065	-1.7342833187	 0.103706
H	-0.8306415957	-2.0608016003	-2.3808017022	 0.102993
H	 0.2148142578	-3.8520581032	 0.6589518594	 0.085308
H	 0.5761469888	-2.2588755098	 1.3265999509	 0.107659
H	-1.0414522923	-4.0113434004	 2.6991479861	 0.093126
H	-1.4011601323	-2.2979941159	 2.7181822082	 0.099171
H	-2.9887905157	-4.4325117084	 1.3958585527	 0.096455
H	-3.42890797	-2.7601980824	 1.6617581158	 0.096334
H	-3.1346732767	-2.5619981959	-0.7087350836	 0.087762
H	-2.1633670693	-4.0242738182	-0.7632203565	 0.093012
65.4827	73.9328	101.4679	169.5122	179.3024	219.1098	238.718	287.4091	323.7399	355.8318	406.5522	483.7918	575.392	655.2655	740.3876	796.9044	830.9443	890.4243	908.6236	920.3532	962.6719	969.3059	991.8086	1001.5135	1049.1123	1067.603	1079.8862	1153.7654	1163.8543	1181.0987	1194.8138	1221.6717	1226.9445	1249.9461	1262.4759	1280.1389	1299.2363	1313.9538	1334.5691	1344.9906	1367.4071	1401.0949	1422.7073	1478.6007	1484.4818	1484.4899	1487.7858	1492.6398	1496.7372	1503.1057	1505.9179	1521.6611	1526.8115	2943.5652	2966.8325	2975.5208	3007.7043	3025.7992	3030.3344	3035.9191	3045.66	3057.9251	3065.5176	3080.6556	3088.0396	3098.826	3107.7837	3110.4748	3117.2823
COCC1(C)CCCC1	COCC1(C)CCCC1	
InChI=1S/C8H16O/c1-8(7-9-2)5-3-4-6-8/h3-7H2,1-2H3	InChI=1S/C8H16O/c1-8(7-9-2)5-3-4-6-8/h3-7H2,1-2H3
