13
gdb 52510	4.136	0.79759	0.67145	4.2058	71.41	-0.2476	-0.1273	0.1202	1577.1253	0.084264	-456.551084	-456.54107	-456.540126	-456.589877	31.508	
C	 0.0165580352	 1.4707357206	 0.0095903976	-0.507312
C	 0.0013541094	 0.0207622959	 0.0020692466	 0.173528
C	-0.0166177389	-1.1866826656	-0.004123408	 0.0275
C	-0.018408132	-2.6198640725	-0.0116118034	 0.085379
O	-1.0187227981	-3.3116509381	-0.0057576567	-0.272939
C	 1.3680310631	-3.2953997301	-0.0287409137	 0.210648
O	 2.3914470561	-2.6656043254	-0.036182363	-0.238904
C	 1.3704661705	-4.8463071357	-0.0359852399	 0.084734
O	 2.4090527072	-5.448784666	-0.0511570831	-0.211103
H	 1.0401965219	 1.85754647	 0.0009894068	 0.171177
H	-0.5092167395	 1.8649871491	-0.8667893963	 0.171459
H	-0.4907752261	 1.8555810072	 0.9008975653	 0.171461
H	 0.3829089512	-5.3379645793	-0.0263047322	 0.134371
18.2497	21.0653	52.0587	68.7811	136.8015	211.552	286.6427	335.8119	355.8247	403.387	432.4324	469.2855	639.5532	732.3041	828.7614	850.4476	1010.7566	1041.3253	1051.4723	1076.6411	1271.1951	1393.0285	1407.0787	1464.7295	1469.3605	1737.6112	1810.6104	1833.1681	2337.6184	2997.6381	3034.9938	3099.1586	3108.1851
CC#CC(=O)C(=O)C=O	CC#CC(=O)C(=O)C=O	
InChI=1S/C6H4O3/c1-2-3-5(8)6(9)4-7/h4H,1H3	InChI=1S/C6H4O3/c1-2-3-5(8)6(9)4-7/h4H,1H3
