23
gdb 58305	3.43765	0.81255	0.69342	0.1233	82.24	-0.2444	0.0659	0.3103	1684.4839	0.203293	-425.411029	-425.400204	-425.39926	-425.447384	39.836	
C	-0.0066960547	 1.5317398748	-0.1168763812	-0.405308
C	-0.0045381701	 0.0193121301	 0.0875505288	 0.110465
O	 0.6289658605	-0.344440674	 1.3125954273	-0.42582
C	-1.4237221512	-0.5852372538	-0.0022720998	 0.107306
O	-2.06090558	-0.1957552226	-1.2160487854	-0.425187
C	-1.4178869204	-2.105267412	 0.1956378568	-0.234018
C	-2.7997063686	-2.7182233504	 0.2684329209	 0.045111
C	-3.516799985	-3.1774614787	-0.9742644552	-0.24564
C	-3.0000107784	-4.1918411375	 0.0165860511	-0.283216
H	 1.0144879675	 1.9215200543	-0.0942437053	 0.118319
H	-0.4751609779	 1.7919899712	-1.0680263551	 0.133619
H	-0.5803881316	 2.0246237305	 0.6794173425	 0.102633
H	 0.6123456444	-0.4508125242	-0.6918411205	 0.076431
H	 0.227612205	 0.1816993609	 2.0132888164	 0.278281
H	-2.033852155	-0.1250517059	 0.7899416429	 0.071721
H	-1.6897365797	-0.7318480821	-1.9251848736	 0.278319
H	-0.8537349194	-2.5666348176	-0.6304244148	 0.076515
H	-0.8503116887	-2.3225955289	 1.1065521794	 0.11795
H	-3.4334817513	-2.2848679276	 1.0390768951	 0.078698
H	-4.58692363	-3.0185852073	-1.0455733943	 0.111261
H	-2.9970222379	-3.090332838	-1.9229572153	 0.095583
H	-2.1318069501	-4.7796381441	-0.264508785	 0.107766
H	-3.7163229673	-4.728958797	 0.6284808042	 0.10921
47.9231	73.2555	96.2486	137.2304	222.7075	232.0529	247.8453	284.647	297.3425	330.8732	384.4054	394.2349	464.9328	486.7235	556.907	770.4812	802.4127	832.9042	853.9708	895.3477	920.1544	942.694	970.4543	1035.9778	1050.8162	1059.4839	1073.9727	1093.8963	1108.6152	1135.3427	1137.2367	1164.8212	1196.7647	1222.4191	1234.5164	1250.1163	1312.5695	1319.901	1352.7325	1392.4936	1397.7406	1412.4282	1414.7567	1422.1534	1468.732	1483.2175	1489.5931	1496.3497	1507.6518	2985.9359	2996.2745	3013.9092	3025.6908	3077.3326	3100.2902	3126.8533	3128.5246	3133.2327	3140.3686	3204.2743	3219.6181	3797.8993	3805.2164
CC(O)C(O)CC1CC1	C[C@@H](O)[C@@H](O)CC1CC1	
InChI=1S/C7H14O2/c1-5(8)7(9)4-6-2-3-6/h5-9H,2-4H2,1H3	InChI=1S/C7H14O2/c1-5(8)7(9)4-6-2-3-6/h5-9H,2-4H2,1H3/t5-,7+/m1/s1
