19
gdb 107674	3.24283	1.32987	1.11716	1.7768	71.13	-0.2463	0.0855	0.3318	1133.3561	0.15931	-460.126497	-460.11816	-460.117215	-460.159414	31.6	
C	-0.352262753	 1.2732694555	-0.0487362757	-0.251383
O	 0.3215770195	 0.0322640878	 0.0799873096	-0.282349
C	 0.7881284664	-0.4934555552	-1.1265822664	 0.348454
C	-0.2157894694	-1.1332230462	-2.0608517298	-0.35912
C	 0.7181178327	-1.9907576955	-1.2332634213	 0.034068
O	 1.7377948164	-2.6892143352	-1.8956936352	-0.247123
C	 2.9328991734	-1.9554544838	-1.985206501	 0.012495
O	 2.738480037	-0.693347223	-2.5665159353	-0.232967
C	 2.0405438985	 0.1717829422	-1.6806036037	-0.157457
H	 0.3213251825	 2.0803866249	-0.3687131267	 0.112809
H	-1.1841518502	 1.2093524528	-0.7635096322	 0.113016
H	-0.7474107856	 1.5207426848	 0.9389568712	 0.131274
H	-1.2605045217	-1.1028298498	-1.7727548849	 0.117048
H	-0.0132503744	-1.0934636292	-3.1255711056	 0.13064
H	 0.3029087395	-2.5304976679	-0.3871184178	 0.110258
H	 3.3888354721	-1.8390633179	-0.9855288593	 0.084329
H	 3.5948886069	-2.5198835809	-2.6443241198	 0.119839
H	 1.8168863076	 1.0774655071	-2.2518345121	 0.113061
H	 2.6789993916	 0.4453734895	-0.8249722638	 0.103109
95.991	138.8293	173.3078	185.0993	283.4362	370.7016	388.2322	402.0912	425.7971	500.0169	566.8479	652.9202	748.6897	829.3961	898.975	941.0076	969.1865	998.2349	1013.2312	1042.8338	1061.0958	1077.2669	1109.2139	1113.1673	1180.1521	1180.8711	1202.6997	1219.4377	1247.7539	1276.8917	1317.2698	1325.7191	1368.4706	1410.3873	1445.1811	1462.627	1479.865	1492.9139	1501.8328	1507.608	1514.5695	2943.0653	2980.4058	2994.69	3047.5524	3080.6744	3118.3975	3122.0047	3135.5612	3153.7829	3232.849
COC12CC1OCOC2	CO[C@]12C[C@H]1OCOC2	
InChI=1S/C6H10O3/c1-7-6-2-5(6)9-4-8-3-6/h5H,2-4H2,1H3	InChI=1S/C6H10O3/c1-7-6-2-5(6)9-4-8-3-6/h5H,2-4H2,1H3/t5-,6+/m1/s1
