19
gdb 47565	2.50506	1.62864	1.10933	3.1501	76.	-0.2185	-0.024	0.1945	1102.5305	0.161625	-419.17957	-419.17172	-419.170776	-419.21202	30.669	
O	-0.0329798828	-0.117979724	 0.0696412526	-0.29248
C	 0.0206986884	 1.0881699469	 0.027686658	 0.386776
C	-1.2524220018	 1.9512471569	 0.0140959795	-0.261191
N	-1.434645646	 2.8629612317	-1.1161843693	-0.275873
C	-0.3591936706	 3.8286136579	-1.340253177	-0.197701
C	 0.8797299194	 3.2525135085	-2.0114987232	 0.003028
C	 2.2599630983	 3.5732495103	-1.5528691381	-0.258876
N	 1.7062614119	 2.2345789964	-1.3567291801	-0.08257
C	 1.3625140216	 1.8322700564	 0.0113427913	-0.249283
H	-2.1053261968	 1.2692567108	 0.0587049368	 0.126063
H	-1.2570497709	 2.5526934542	 0.9351859667	 0.116595
H	-1.6090462314	 2.3317404062	-1.9637014126	 0.225627
H	-0.7464248286	 4.6356791139	-1.9741875878	 0.11186
H	-0.1114683132	 4.2843698201	-0.3753910203	 0.106884
H	 0.7344048959	 3.0431362969	-3.0721416229	 0.093128
H	 3.0820880261	 3.6497222031	-2.2595460041	 0.121165
H	 2.3542479851	 4.2150422578	-0.6769734219	 0.109931
H	 1.3064482626	 2.6843309473	 0.7092620705	 0.089751
H	 2.1353418229	 1.1468141286	 0.3690448618	 0.127165
75.7036	146.5337	241.6398	296.919	318.9653	344.6112	423.4369	451.718	501.4757	577.9747	630.0888	720.0305	778.1055	803.2527	865.0922	880.8886	942.3008	962.668	985.5388	1046.4294	1051.831	1103.6931	1114.6653	1123.1791	1154.2893	1170.5505	1202.9851	1234.0087	1264.6475	1323.2489	1333.146	1340.1445	1360.7729	1362.9936	1419.924	1459.6571	1475.0497	1494.5884	1500.7874	1513.8988	1813.8958	2960.4993	3004.1256	3029.6543	3071.1512	3085.4802	3090.2095	3097.438	3103.677	3175.0792	3516.4465
O=C1CNCC2CN2C1	O=C1CNC[C@H]2CN2C1	
InChI=1S/C6H10N2O/c9-6-2-7-1-5-3-8(5)4-6/h5,7H,1-4H2	InChI=1S/C6H10N2O/c9-6-2-7-1-5-3-8(5)4-6/h5,7H,1-4H2/t5-,8?/m0/s1
