13
gdb 19491	3.70865	2.08774	1.89228	3.7365	61.83	-0.2661	-0.0275	0.2387	732.431	0.097593	-357.629807	-357.623593	-357.622648	-357.660236	23.123	
N	 0.0007397088	-1.1540991584	-0.101827011	-0.329913
C	 0.0187789775	-0.0000717873	-0.0283018876	 0.319088
C	-0.006837245	 1.4378303133	 0.050156112	-0.175517
C	 0.513736987	 2.1519104833	 1.2580509084	-0.048882
C	 1.4228610597	 1.3996127803	 2.2305164004	-0.196896
N	 2.5985931478	 1.0121368789	 1.4319039462	-0.172898
C	 2.4262682108	 1.4607746265	 0.2589580594	 0.038035
N	 1.251031845	 2.2478479449	-0.0162179354	-0.132643
H	-0.8277769117	 1.8878875257	-0.5000307053	 0.149985
H	-0.0151382015	 3.0419231397	 1.5815610461	 0.122023
H	 1.7343678868	 2.0489002692	 3.0552040688	 0.134491
H	 0.9675324961	 0.5053634722	 2.6685607815	 0.147345
H	 3.1321679988	 1.3172174518	-0.5520757536	 0.145782
130.1818	148.3094	292.7225	353.1951	471.5885	577.2556	617.4884	735.955	753.7031	802.7161	865.7954	915.0114	952.0885	956.7361	980.4202	1009.5431	1049.9993	1083.792	1125.6436	1210.0413	1249.842	1306.5752	1318.0055	1349.6326	1378.4579	1480.6533	1686.9157	2353.983	3052.2651	3088.3391	3158.4273	3174.8145	3208.1227
N#CC1C2CN=CN12	N#C[C@H]1[C@H]2CN=CN12	
InChI=1S/C5H5N3/c6-1-4-5-2-7-3-8(4)5/h3-5H,2H2	InChI=1S/C5H5N3/c6-1-4-5-2-7-3-8(4)5/h3-5H,2H2/t4-,5+,8?/m0/s1
