17
gdb 77546	3.01699	1.302	1.07562	5.2347	74.58	-0.2449	0.0291	0.274	1123.5823	0.136383	-417.965559	-417.957054	-417.95611	-417.998381	32.588	
N	 0.0512208819	 1.463340086	-0.2413279954	-0.537
C	-0.0032414458	 0.042682762	-0.0482616838	-0.000792
C	-0.0346078486	-0.6574489402	 1.3503119931	 0.347168
O	 1.007740338	-0.5881492312	 2.2441916252	-0.465509
C	-1.505882483	-0.150114691	 1.5273526091	-0.347177
C	-1.3989993404	-0.6786185898	 0.0609686651	 0.21514
C	-0.6267028154	-1.908807714	 0.6292393419	-0.32217
C	-2.4444890779	-0.701828164	-0.921238488	 0.169135
N	-3.2843547705	-0.718736814	-1.7164003878	-0.357368
H	-0.3400595797	 1.9835362668	 0.5355494437	 0.235636
H	 1.0126377091	 1.7646281425	-0.3504345287	 0.243615
H	 0.6662697356	-0.4352504014	-0.7687076892	 0.090828
H	 0.7764722686	-1.0765450032	 3.0419571098	 0.290045
H	-2.1488212918	-0.7333033551	 2.1912910497	 0.108042
H	-1.6771149789	 0.9188970578	 1.661582308	 0.109551
H	 0.0244189627	-2.4377622132	-0.070032455	 0.113254
H	-1.2233329637	-2.591630458	 1.2373945223	 0.107602
122.7663	137.2948	155.0316	226.9745	267.5081	312.9604	395.0689	410.7322	520.2379	532.6329	551.4923	564.9298	632.854	656.7705	741.2132	798.1015	841.0613	888.1252	978.9134	1004.7078	1024.1082	1087.8889	1095.4253	1118.5781	1131.1101	1143.1885	1161.2936	1200.4396	1239.8689	1273.2609	1316.2708	1383.9288	1460.0558	1498.6523	1552.7146	1664.9725	2352.1191	3066.1948	3070.28	3079.8818	3135.3777	3140.255	3522.8894	3601.9284	3805.0495
NC1C2(O)CC1(C2)C#N	N[C@H]1[C@@]2(O)C[C@@]1(C2)C#N	
InChI=1S/C6H8N2O/c7-3-5-1-6(9,2-5)4(5)8/h4,9H,1-2,8H2	InChI=1S/C6H8N2O/c7-3-5-1-6(9,2-5)4(5)8/h4,9H,1-2,8H2/t4-,5-,6-/m1/s1
