20
gdb 117761	2.55312	0.97405	0.84334	3.6695	75.46	-0.2723	0.0193	0.2916	1456.2031	0.167696	-440.292116	-440.281112	-440.280168	-440.328269	38.863	
C	-0.1620355361	 1.5324207079	-0.0322687958	-0.398437
C	 0.0515686231	 0.0187019851	-0.0028769326	-0.208004
C	 0.7709842925	-0.4936021489	 1.2686609793	 0.175819
O	 0.0811366236	-0.0808242014	 2.4495619387	-0.446434
C	 0.9276966647	-2.0282234162	 1.2245680194	-0.209908
C	 1.6308041772	-2.6233413465	 2.4399779545	-0.093261
O	 1.5867427156	-4.0343241474	 2.2868654589	-0.422856
C	 2.1072496925	 0.1369889411	 1.3560840343	 0.318664
N	 3.1612195136	 0.6090589731	 1.376413769	-0.350367
H	 0.7930129713	 2.0652406965	-0.0581036419	 0.144556
H	-0.7331837981	 1.8195895616	-0.9193524584	 0.117979
H	-0.7082246857	 1.8658785796	 0.8535874025	 0.130081
H	-0.9134433184	-0.5036139353	-0.048241651	 0.097552
H	 0.6211581742	-0.3073109039	-0.8800577519	 0.120064
H	-0.7941934363	-0.4844760184	 2.4188295795	 0.289073
H	-0.0764171677	-2.4649427722	 1.1498001542	 0.106051
H	 1.4665350773	-2.3170716418	 0.316327864	 0.125843
H	 2.6661336482	-2.255317903	 2.488306465	 0.113201
H	 1.1207172989	-2.2975324185	 3.3573069909	 0.1004
H	 2.0588413496	-4.4296163115	 3.0253837213	 0.289986
75.028	99.2939	109.5071	133.5146	167.384	208.1772	229.5572	241.8272	263.6237	291.9314	337.0569	390.1897	411.5386	469.6033	590.5448	649.5743	730.2959	792.99	806.4757	934.7607	960.756	1003.2673	1055.4454	1062.4373	1079.8657	1113.8005	1141.2361	1170.7048	1223.0553	1254.4483	1281.9772	1310.5329	1339.0027	1363.1086	1404.1049	1415.3724	1466.0024	1474.2022	1488.3372	1495.5277	1509.3652	1533.8574	2361.9233	2993.5224	3020.3889	3026.7787	3035.9195	3049.355	3071.4071	3090.8168	3119.0106	3128.8363	3799.8947	3832.9695
CCC(O)(CCO)C#N	CC[C@@](O)(CCO)C#N	
InChI=1S/C6H11NO2/c1-2-6(9,5-7)3-4-8/h8-9H,2-4H2,1H3	InChI=1S/C6H11NO2/c1-2-6(9,5-7)3-4-8/h8-9H,2-4H2,1H3/t6-/m1/s1
