21
gdb 83817	2.11466	1.72675	1.376	1.2136	84.34	-0.2286	0.014	0.2426	1088.2662	0.182432	-387.084232	-387.075365	-387.074421	-387.117265	34.228	
C	-0.0665381193	 1.5343279051	-0.0957957832	-0.406229
C	 0.0322837183	 0.0313180019	 0.0182107879	-0.077255
C	 1.3561711564	-0.6825788248	-0.1498258357	 0.037692
O	 2.492308882	 0.1136785061	-0.3384305835	-0.257607
C	 3.3862895468	 0.1648255962	 0.7660134038	-0.121886
C	 2.686439851	 0.4485655172	 2.0713258527	-0.082685
C	 1.4164505032	 0.0894356662	 2.2478543998	-0.130855
C	 0.6901988121	-0.6829833301	 1.2030160902	 0.241647
C	 0.0405436165	-1.9621367028	 1.7011017063	-0.462842
H	 0.8190308323	 2.0239599173	 0.3119422117	 0.127912
H	-0.159837694	 1.8345051091	-1.145066318	 0.117239
H	-0.9446057297	 1.9114494577	 0.4396280206	 0.109304
H	-0.8226452794	-0.5045964934	-0.3891883783	 0.077826
H	 1.3838449219	-1.611839029	-0.7188790433	 0.079957
H	 3.9661906384	-0.7720576857	 0.8402298352	 0.101065
H	 4.0986446024	 0.9616752103	 0.5281537845	 0.11495
H	 3.2512357624	 0.957633416	 2.8468434314	 0.09428
H	 0.8924579966	 0.3059892848	 3.1761570999	 0.087225
H	-0.7412920392	-1.7433701651	 2.4383623426	 0.116608
H	-0.4257808287	-2.5152868377	 0.8797293496	 0.115037
H	 0.7742987996	-2.6213393893	 2.1784269058	 0.118616
125.9049	143.3883	164.0603	198.8426	224.885	278.0371	288.4802	379.8818	473.7625	519.2791	520.5683	582.2878	670.7329	730.8901	790.4064	816.4299	889.1026	920.0268	941.8046	980.5945	989.4034	1020.2408	1039.6898	1059.0095	1087.5961	1116.631	1123.2775	1153.3267	1179.0084	1198.4443	1236.3744	1267.5725	1323.712	1352.9709	1391.6071	1412.3393	1415.4392	1418.348	1442.5071	1490.1411	1490.5063	1493.3395	1498.5487	1502.5188	1710.0728	2949.6243	3021.2414	3035.7728	3067.3572	3082.7783	3090.4867	3093.5683	3099.0501	3123.0267	3141.2645	3144.9765	3177.2089
CC1C2OCC=CC12C	C[C@H]1[C@H]2OCC=C[C@@]12C	
InChI=1S/C8H12O/c1-6-7-8(6,2)4-3-5-9-7/h3-4,6-7H,5H2,1-2H3	InChI=1S/C8H12O/c1-6-7-8(6,2)4-3-5-9-7/h3-4,6-7H,5H2,1-2H3/t6-,7+,8-/m0/s1
