18
gdb 9521	2.75338	1.81731	1.53861	3.916	67.07	-0.2661	0.0137	0.2797	935.6563	0.152965	-384.977126	-384.968642	-384.967698	-385.009941	30.8	
C	-0.1083637443	 1.5959407452	-0.0044212686	-0.394965
C	 0.0961930486	 0.0772345147	 0.034872087	-0.237423
C	 0.7702468268	-0.5036654851	-1.220332259	 0.113193
C	 2.1749576453	 0.0460662106	-1.4717801374	-0.454969
C	 0.6156139301	-2.0353810812	-1.3860471862	-0.126591
O	-0.2423384166	-1.8389331315	-2.5566373871	-0.245571
C	-0.1348466672	-0.4746658016	-2.4643186232	 0.449671
O	-0.6322571588	 0.342544068	-3.1725374573	-0.335739
H	 0.8433593234	 2.1352730521	 0.0048331441	 0.119812
H	-0.6555563091	 1.8921518691	-0.9036577377	 0.150426
H	-0.680003145	 1.9247863395	 0.8683049356	 0.117277
H	 0.70197568	-0.1993028812	 0.9079949154	 0.101493
H	-0.8761922313	-0.4132974115	 0.1670038034	 0.107863
H	 2.814218164	-0.1181115294	-0.5975028585	 0.121946
H	 2.6437763377	-0.4396703745	-2.3330495994	 0.127519
H	 2.1431965515	 1.1193738992	-1.674324117	 0.144227
H	 1.5184440047	-2.5861617172	-1.6593576397	 0.120706
H	 0.0717344804	-2.5553884352	-0.5942179641	 0.121126
103.9693	120.5251	161.3905	203.4161	230.9287	277.5836	301.226	372.539	401.51	542.166	683.1598	740.8937	773.064	801.7149	878.1475	912.4088	962.0728	973.3449	1015.8968	1056.0483	1074.4258	1112.7389	1157.9342	1189.0997	1234.9321	1246.0828	1312.2061	1361.4127	1369.4387	1413.1516	1419.4313	1481.601	1493.8653	1497.4627	1506.6525	1512.4468	1518.3794	1923.6327	3015.5112	3036.4559	3046.1553	3051.9572	3065.3634	3103.352	3111.5204	3123.4299	3125.7664	3127.2619
CCC1(C)COC1=O	CC[C@@]1(C)COC1=O	
InChI=1S/C6H10O2/c1-3-6(2)4-8-5(6)7/h3-4H2,1-2H3	InChI=1S/C6H10O2/c1-3-6(2)4-8-5(6)7/h3-4H2,1-2H3/t6-/m0/s1
