15
gdb 97838	4.01678	0.69656	0.63038	1.809	73.12	-0.2545	-0.0427	0.2119	1710.8824	0.10978	-457.708993	-457.699758	-457.698813	-457.745128	31.364	
O	 0.1416352565	 1.4411347178	 0.4563718156	-0.397674
C	 0.0984294943	 0.0667704532	 0.1071460881	-0.198302
C	-1.25635448	-0.4736683058	 0.0074252002	 0.097926
C	-2.3879596681	-0.8751523728	-0.1000540161	 0.064896
C	-3.7306221382	-1.395788417	-0.2056627055	-0.181328
O	-4.2212775903	-1.5691556941	-1.5653262564	-0.274795
C	-4.4383074123	-2.9869005794	-1.4304408898	-0.186461
C	-3.9223884925	-2.9312048411	 0.0084672107	 0.342117
O	-3.7415570357	-3.6951816561	 0.8989019825	-0.25059
H	-0.4038824871	 1.9195758526	-0.1768097064	 0.290436
H	 0.6309519688	-0.1293963785	-0.8372362801	 0.125855
H	 0.649407448	-0.4601716041	 0.8940706454	 0.149747
H	-4.4354523004	-0.8021855705	 0.3936033952	 0.136613
H	-5.4917241159	-3.2762581156	-1.5341388649	 0.138162
H	-3.8265831271	-3.5819040486	-2.1203554285	 0.143397
27.5313	73.4515	76.5251	134.4244	163.6335	279.9318	321.393	387.8765	416.5049	476.086	564.0426	575.003	705.7057	735.7	859.9971	945.3389	983.7991	1003.4057	1013.593	1053.7835	1057.9586	1135.6057	1165.9426	1211.0484	1216.1437	1295.1437	1321.3806	1360.6671	1416.0403	1479.8839	1483.7413	1938.2092	2349.1146	2979.9136	3009.3163	3021.519	3066.3255	3066.9006	3815.4545
OCC#CC1OCC1=O	OCC#C[C@H]1OCC1=O	
InChI=1S/C6H6O3/c7-3-1-2-6-5(8)4-9-6/h6-7H,3-4H2	InChI=1S/C6H6O3/c7-3-1-2-6-5(8)4-9-6/h6-7H,3-4H2/t6-/m1/s1
