19
gdb 38304	2.89551	1.9608	1.95446	1.5253	76.61	-0.2135	0.0105	0.224	846.1086	0.163975	-385.852359	-385.846489	-385.845544	-385.882079	26.634	
C	-0.0723970811	 1.5991030553	 0.0935747593	-0.223001
C	 1.4619390137	 1.4225644761	 0.0298365721	 0.081282
O	 1.2790094094	 0.1614737504	 0.7551501578	-0.292454
C	 0.0047167268	 0.0562718513	 0.0375105163	 0.081282
C	 0.3079752857	-0.4958706125	-1.426152642	-0.087205
C	 1.8552450464	-0.4660229773	-1.5435223143	-0.175733
C	 1.9852169817	 1.0767143782	-1.434988019	-0.087205
C	 0.950680534	 1.469768634	-2.4940718744	-0.078846
C	-0.0236491233	 0.5562337177	-2.4889409102	-0.078846
H	-0.3691217966	 1.9211895497	 1.0932959785	 0.102757
H	-0.603771144	 2.1615606562	-0.668796996	 0.101565
H	 2.1144586292	 2.113700852	 0.5671509471	 0.075423
H	-0.7239388597	-0.5475838977	 0.5820993109	 0.075424
H	-0.1556926293	-1.4710765644	-1.5862879936	 0.059279
H	 2.3734649681	-1.0143325464	-0.7611411503	 0.112391
H	 2.1769776281	-0.8146964502	-2.5272960029	 0.087126
H	 2.9873153586	 1.4758147977	-1.6028431641	 0.059279
H	 0.9903951093	 2.3757977604	-3.0863951981	 0.09374
H	-0.9336636171	 0.5717980097	-3.0762604969	 0.09374
267.2762	369.337	450.3732	501.5635	535.2041	543.9333	602.0459	712.2358	744.5737	757.9582	794.141	818.6805	878.5395	880.9012	902.3362	911.4669	925.7475	936.3753	948.3961	980.8981	986.9756	1008.7882	1051.9597	1099.4756	1100.9381	1127.1196	1154.6641	1181.2553	1191.8237	1255.5494	1259.4628	1279.8459	1289.2532	1293.9831	1311.8893	1317.6717	1350.2865	1363.2285	1485.9322	1490.6308	1644.0246	3076.5283	3081.3398	3081.4	3091.4166	3094.7994	3102.4184	3163.0553	3169.1007	3191.9666	3218.0528
C1C2OC1C1CC2C=C1	C1[C@H]2O[C@@H]1[C@@H]1C[C@H]2C=C1	
InChI=1S/C8H10O/c1-2-6-3-5(1)7-4-8(6)9-7/h1-2,5-8H,3-4H2	InChI=1S/C8H10O/c1-2-6-3-5(1)7-4-8(6)9-7/h1-2,5-8H,3-4H2/t5-,6+,7-,8+
