19
gdb 112161	3.24983	1.06509	0.83925	3.5506	80.53	-0.2384	-0.044	0.1945	1387.8299	0.157668	-423.059554	-423.050095	-423.049151	-423.094522	33.703	
C	-0.0168247892	 1.4580316331	-0.0811246968	-0.238774
O	 0.1416487323	 0.0656724364	 0.0711051017	-0.241633
C	 0.6815786271	-0.5867554031	-1.0690816773	 0.086203
C	 1.1313992086	-2.0042909214	-0.6879658579	-0.366186
C	 0.5085896852	-2.920120336	-1.7439751752	 0.326471
O	 0.7335371226	-4.0978747399	-1.9008165403	-0.324771
C	-0.4294675407	-2.0946616281	-2.5576535517	 0.212715
C	-1.2817597803	-2.7138103799	-3.6156767905	-0.492304
C	-0.333887367	-0.8149989686	-2.1737033101	-0.1854
H	 0.9366826086	 1.9493349959	-0.3313165379	 0.107016
H	-0.7515751791	 1.7189150681	-0.857137911	 0.106609
H	-0.3732904597	 1.8466677523	 0.8757240917	 0.132519
H	 1.5258720586	 0.0104457448	-1.4533558319	 0.077609
H	 2.2141682284	-2.1379844867	-0.6399184499	 0.128226
H	 0.7210148289	-2.2544822509	 0.2952113831	 0.150312
H	-0.6613985349	-3.2726012763	-4.3244747422	 0.146546
H	-1.9725958286	-3.4413734137	-3.1754053269	 0.144926
H	-1.8621832081	-1.9669180204	-4.1624048444	 0.121293
H	-0.9038449527	 0.0040060644	-2.6007227827	 0.10862
56.5422	95.7865	105.5737	143.1811	203.1161	245.4773	274.9979	330.5551	375.3931	446.2062	540.0652	597.2954	607.5852	719.5463	760.519	865.0835	883.0404	962.2649	998.194	1016.4378	1062.5833	1069.4278	1085.82	1144.0004	1170.321	1182.7759	1212.0774	1234.1453	1273.6603	1315.0322	1342.3168	1375.9815	1412.5479	1449.2696	1472.4826	1479.2193	1482.7672	1491.0122	1509.1772	1700.1114	1813.9622	2954.1499	2976.5931	3023.7776	3038.0267	3070.5962	3092.5646	3116.2722	3121.0617	3124.8248	3184.7108
COC1CC(=O)C(C)=C1	CO[C@H]1CC(=O)C(=C1)C	
InChI=1S/C7H10O2/c1-5-3-6(9-2)4-7(5)8/h3,6H,4H2,1-2H3	InChI=1S/C7H10O2/c1-5-3-6(9-2)4-7(5)8/h3,6H,4H2,1-2H3/t6-/m1/s1
