20
gdb 110611	4.47606	0.97059	0.90332	2.4612	79.41	-0.2182	0.0695	0.2877	1362.9504	0.169598	-403.057336	-403.048564	-403.04762	-403.090538	34.163	
C	-0.0184095808	 1.40343789	 0.2308582704	-0.376056
C	-0.0863141657	-0.0448958356	-0.264703634	-0.210442
C	-1.4910909048	-0.6051325955	-0.1982998159	 0.017262
C	-1.6945072555	-2.0524232155	 0.0310895002	-0.147686
N	-1.8786449995	-1.0655059709	 1.1558632873	-0.151636
C	-3.3382892806	-1.4778178037	 1.2102301316	-0.062402
C	-4.15135459	-1.3966503116	-0.0695193306	-0.375591
C	-3.1681149764	-2.5146774819	 0.1406471648	 0.382898
O	-3.5099199464	-3.8517608393	 0.1741777774	-0.452445
H	 1.0054860715	 1.7870480532	 0.1921022021	 0.111301
H	-0.6445816516	 2.0624274551	-0.3810203994	 0.109437
H	-0.3705563436	 1.467951793	 1.2643489664	 0.135859
H	 0.2698372633	-0.1098276702	-1.300865442	 0.095974
H	 0.5744345273	-0.675538179	 0.3402423056	 0.107826
H	-2.2136323918	-0.0452740792	-0.7849382165	 0.083077
H	-0.8798569666	-2.7706535025	 0.0652551626	 0.098832
H	-3.8021728797	-1.5169687332	 2.1871300988	 0.111443
H	-5.1747835347	-1.7192193275	 0.1012568288	 0.120308
H	-4.0580306837	-0.6202706322	-0.8210492011	 0.114742
H	-3.7332671908	-4.1294136934	-0.7216457465	 0.287297
82.6847	132.2856	192.0832	228.6279	274.2504	284.2831	325.2207	409.5092	432.8297	470.4761	527.4826	630.1392	716.8232	743.9506	808.3359	828.5504	864.8117	898.0381	918.6778	980.7783	989.1214	1007.3817	1029.3761	1044.3663	1050.3178	1072.8851	1097.2486	1132.3637	1163.1222	1189.6741	1212.8651	1243.2108	1284.1687	1303.0082	1308.9242	1352.7501	1403.8494	1407.3704	1450.526	1478.4326	1497.3947	1507.6963	1508.4082	3027.2084	3034.7718	3069.1079	3101.7177	3118.2075	3121.4852	3148.1226	3152.2196	3198.073	3205.5647	3784.016
CCC1C2N1C1CC21O	CC[C@H]1[C@H]2N1[C@H]1C[C@@]21O	
InChI=1S/C7H11NO/c1-2-4-6-7(9)3-5(7)8(4)6/h4-6,9H,2-3H2,1H3	InChI=1S/C7H11NO/c1-2-4-6-7(9)3-5(7)8(4)6/h4-6,9H,2-3H2,1H3/t4-,5-,6+,7-,8?/m0/s1
