15
gdb 21186	3.47076	1.8316	1.21399	1.7999	63.99	-0.1801	0.0382	0.2182	951.381	0.120137	-395.987117	-395.979096	-395.978152	-396.019507	28.969	
C	-0.1865627688	 1.4234995741	-0.0261972664	-0.322791
N	 0.1914747177	 0.03356045	 0.1484106264	-0.397853
C	 0.68982542	-0.6358265311	-0.9706288766	 0.174597
C	 1.2351577454	-0.1426290386	-2.1417654763	-0.107465
N	 1.6174641428	-1.2246140285	-2.879275711	-0.21377
N	 1.3483512126	-2.3999676994	-2.2665157091	-0.326486
C	 0.7927157439	-2.0414463928	-1.1228133502	 0.343482
O	 0.3526489647	-2.9344943804	-0.2035420441	-0.441953
H	 0.7061200431	 2.0267681471	-0.2289253758	 0.126858
H	-0.8985908776	 1.5900283135	-0.8524715929	 0.104768
H	-0.6316623821	 1.7956740975	 0.8995877981	 0.123042
H	-0.5124640169	-0.5140455769	 0.6240712537	 0.24104
H	 1.379122379	 0.8652424584	-2.4938876106	 0.123548
H	 2.0652053069	-1.2334741999	-3.7767028305	 0.270744
H	 0.5172286995	-3.815209563	-0.5617283949	 0.30224
80.0325	166.2701	182.0075	207.8906	285.4838	310.4887	341.01	420.4231	527.4794	590.2245	632.2655	676.4501	709.7168	745.2039	801.3146	938.2926	1068.4633	1079.1468	1132.8676	1159.2657	1170.3652	1249.5184	1267.6703	1341.8817	1451.1009	1463.7182	1481.6	1483.9666	1503.4851	1523.0583	1586.0356	1667.9799	2958.6147	3052.4779	3115.7143	3270.84	3579.2885	3709.2485	3802.9885
CNC1=CNN=C1O	CNc1c[nH]nc1O	
InChI=1S/C4H7N3O/c1-5-3-2-6-7-4(3)8/h2,5H,1H3,(H2,6,7,8)	InChI=1S/C4H7N3O/c1-5-3-2-6-7-4(3)8/h2,5H,1H3,(H2,6,7,8)
