13
gdb 9970	3.17642	1.44013	1.0311	3.5582	69.41	-0.2807	0.0064	0.2871	1065.078	0.092678	-324.264187	-324.25574	-324.254796	-324.297398	29.859	
C	-0.0158349528	-1.2504650798	 0.0154285147	-0.442627
C	-0.0356716201	-0.0507860843	-0.0056946547	 0.34732
C	-0.0309706102	 1.4135537758	-0.0237832804	-0.354074
C	 1.4270617015	 1.9785251721	 0.008345271	-0.337996
C	 2.1411974592	 1.6155046112	 1.2287187475	 0.267086
N	 2.6989534397	 1.3413636201	 2.2023947397	-0.298022
C	-0.7367764022	 1.9486572351	-1.1909643788	 0.316875
C	-1.2910694056	 2.4130483612	-2.1490847173	-0.419047
H	-0.0044993871	-2.3124689319	 0.0398637472	 0.211951
H	-0.5372796551	 1.7724780972	 0.8826428975	 0.160144
H	 1.9751402997	 1.6051051142	-0.8611036827	 0.17271
H	 1.3829454177	 3.0687889892	-0.0713147274	 0.166778
H	-1.7952566546	 2.81191871	-2.9948703563	 0.208902
70.0922	114.464	131.1398	193.0695	224.6186	334.2679	396.5177	446.5972	494.653	558.9573	575.6016	649.3237	652.1376	665.368	668.7611	820.6134	943.4745	967.6168	1028.4039	1061.2728	1205.3821	1276.5587	1327.673	1346.5308	1462.7558	2244.9042	2250.4179	2367.2746	3017.9913	3066.4628	3113.7454	3501.6733	3502.5968
C#CC(CC#N)C#C	C#CC(CC#N)C#C	
InChI=1S/C7H5N/c1-3-7(4-2)5-6-8/h1-2,7H,5H2	InChI=1S/C7H5N/c1-3-7(4-2)5-6-8/h1-2,7H,5H2
