18
gdb 33933	3.15107	1.45975	1.2645	2.0941	82.07	-0.2347	0.0453	0.28	1049.9781	0.148153	-364.736239	-364.728708	-364.727764	-364.767833	30.839	
C	 0.0606525304	-1.177515903	 0.0367832852	-0.380911
C	 0.027399131	 0.0246015179	 0.0343455386	 0.236571
C	 0.0012619503	 1.458994375	 0.0123371287	 0.133419
C	 0.4051854137	 2.1760779911	-1.2707681227	-0.326904
C	 1.2798332969	 2.294861167	-0.0561232636	-0.072086
C	 1.0846647315	 3.4808944946	 0.8884791251	-0.264737
C	-0.3080439649	 3.2951255021	 1.49670551	-0.013912
C	-1.5160711831	 3.3718250935	 0.6354234698	-0.255402
N	-0.9348988949	 2.0656509613	 0.9704674	-0.148782
H	 0.0837775286	-2.2387027298	 0.0472781162	 0.18593
H	 0.7545489107	 1.5338612327	-2.0713145136	 0.128239
H	-0.1645321131	 3.0310401715	-1.6134310886	 0.11867
H	 2.2469626081	 1.8061172285	-0.0744351623	 0.104323
H	 1.8373144408	 3.4460227223	 1.6814351287	 0.115909
H	 1.1970536609	 4.4462119816	 0.3822242482	 0.112675
H	-0.4103483292	 3.4622146119	 2.5660812467	 0.09496
H	-2.489470756	 3.5511836059	 1.084321255	 0.117794
H	-1.4191521317	 3.766695686	-0.3702684513	 0.114244
125.7233	155.6835	267.2571	275.8667	419.9603	451.8824	485.3108	509.985	570.0932	597.2056	658.8546	664.0372	694.0969	795.1354	825.6157	839.3051	861.644	883.3683	918.2224	955.0983	1015.4427	1044.647	1056.4449	1081.035	1094.7811	1110.8795	1121.3042	1160.3007	1189.9822	1222.5937	1259.1701	1284.609	1313.9122	1368.0832	1394.9939	1471.4123	1490.3537	1524.6988	2239.395	3044.2122	3087.3816	3115.2191	3135.4563	3142.6031	3179.0855	3197.835	3226.8372	3504.5574
C#CC12CC1CC1CN21	C#C[C@]12C[C@H]1C[C@H]1CN21	
InChI=1S/C8H9N/c1-2-8-4-6(8)3-7-5-9(7)8/h1,6-7H,3-5H2	InChI=1S/C8H9N/c1-2-8-4-6(8)3-7-5-9(7)8/h1,6-7H,3-5H2/t6-,7+,8+,9?/m1/s1
