21
gdb 121418	4.16898	0.80844	0.71201	1.539	75.52	-0.2351	0.0788	0.3139	1588.1146	0.183168	-461.35338	-461.344196	-461.343251	-461.387856	34.009	
O	 0.1123822622	 1.4146296966	 0.1234576606	-0.419234
C	 0.0713863788	-0.002735532	 0.0513264494	-0.066588
C	-1.3599601717	-0.546454598	 0.0350361599	-0.226016
C	-1.4219268189	-2.0679618585	 0.010513325	 0.109333
C	-2.8507947482	-2.6080125658	 0.0940968158	-0.091403
O	-2.8720381675	-4.0216231826	-0.0186594637	-0.25171
C	-2.2657857872	-4.4468177405	-1.228670528	-0.078134
C	-0.8363588674	-3.9253762116	-1.318028586	-0.078637
O	-0.8165741626	-2.5109688947	-1.2046748038	-0.268256
H	-0.2347982073	 1.7599525049	-0.7049927771	 0.280696
H	 0.6216472243	-0.3823376998	-0.8196892112	 0.108909
H	 0.5929788648	-0.3589321831	 0.9469549975	 0.108037
H	-1.8903623505	-0.1750218108	 0.9196203308	 0.107097
H	-1.8878493609	-0.1602675544	-0.8473021587	 0.094894
H	-0.8531782403	-2.4821636303	 0.8623600689	 0.070685
H	-3.3025727445	-2.3642520601	 1.0602994484	 0.109521
H	-3.4577441836	-2.1507105463	-0.7057835615	 0.088403
H	-2.2865994229	-5.5408936523	-1.2276005214	 0.10819
H	-2.8443173019	-4.0830723141	-2.0940776878	 0.092315
H	-0.228767074	-4.380234185	-0.5188273764	 0.094974
H	-0.3861468605	-4.1727137115	-2.2845044408	 0.106924
78.3717	83.8478	110.978	193.9516	261.0052	289.1603	319.344	347.7354	368.9539	458.7712	493.6889	530.9626	644.29	772.2833	844.2895	889.4917	912.0398	970.6498	982.121	1021.3228	1074.7123	1092.2247	1099.1846	1120.315	1134.7757	1140.4164	1149.9821	1196.5141	1248.807	1274.1391	1294.1631	1318.2307	1329.5961	1348.8736	1376.9853	1391.7237	1405.1485	1415.6111	1420.9016	1426.1348	1471.9616	1480.3314	1486.6211	1493.2364	1514.9523	2944.9422	2966.4672	2971.8244	2982.1315	3017.1028	3023.1615	3059.8409	3081.2677	3083.5629	3085.9453	3089.1563	3817.4534
OCCC1COCCO1	OCC[C@H]1COCCO1	
InChI=1S/C6H12O3/c7-2-1-6-5-8-3-4-9-6/h6-7H,1-5H2	InChI=1S/C6H12O3/c7-2-1-6-5-8-3-4-9-6/h6-7H,1-5H2/t6-/m0/s1
