17
gdb 127058	5.75907	0.7391	0.6632	4.1298	71.25	-0.2653	-0.0361	0.2292	1643.9476	0.13442	-455.113235	-455.104313	-455.103369	-455.148669	30.672	
C	-0.0616776964	 1.4964989217	 0.0105034495	-0.388639
C	-0.0229076034	-0.0213744865	 0.0023471305	-0.026826
O	-1.3551130382	-0.5046261015	 0.0118907857	-0.250036
C	-1.436658763	-1.9087373005	 0.0054656481	-0.164394
C	-2.881424146	-2.2801589601	 0.0160616288	 0.231734
C	-3.9939547271	-1.5033133551	 0.0283097982	-0.027826
O	-5.0680785903	-2.2920954501	 0.0345419885	-0.162379
N	-4.5812169239	-3.6312793407	 0.0251425551	-0.00649
N	-3.3232731327	-3.5840234903	 0.0144828032	-0.184258
H	 0.9542981672	 1.9016166514	 0.0034209229	 0.121316
H	-0.5911441131	 1.8717747992	-0.869680414	 0.12942
H	-0.5751442355	 1.8626456874	 0.9039104727	 0.129435
H	 0.5051061559	-0.3933222211	-0.8911171542	 0.094094
H	 0.5211122861	-0.4024327516	 0.8822664665	 0.094099
H	-0.9435825208	-2.3342029707	-0.885181086	 0.116044
H	-0.9283082923	-2.3432757495	 0.8830405373	 0.116068
H	-4.1484083565	-0.438491842	 0.0338167273	 0.178637
35.1626	68.9676	97.8915	113.9238	242.487	268.6646	278.5068	347.4021	492.8693	632.459	648.1282	701.807	747.3757	820.8555	851.7172	907.3244	990.3167	1045.0995	1050.9205	1053.1434	1137.6039	1149.4236	1170.5191	1188.4528	1243.1645	1248.4663	1297.3752	1317.6284	1387.4413	1406.0786	1438.6659	1474.3231	1483.5892	1499.0421	1509.8729	1533.9326	1633.7546	2954.7437	2966.8357	2976.625	2991.5562	3047.0707	3122.9942	3123.8775	3305.4923
CCOCC1=CON=N1	CCOCc1conn1	
InChI=1S/C5H8N2O2/c1-2-8-3-5-4-9-7-6-5/h4H,2-3H2,1H3	InChI=1S/C5H8N2O2/c1-2-8-3-5-4-9-7-6-5/h4H,2-3H2,1H3
