14
gdb 21935	5.31696	1.31014	1.08066	1.918	59.9	-0.2156	0.0366	0.2521	1028.2029	0.10799	-415.866527	-415.858806	-415.857862	-415.898908	27.828	
O	 0.058317427	 1.3048058814	-0.4982885604	-0.419222
C	-0.0250904759	 0.0085729714	 0.0837924674	-0.183828
C	-1.4473567924	-0.448778758	 0.0197104845	 0.377812
N	-1.7343201517	-1.711661825	-0.2702179874	-0.307221
N	-3.0911739474	-1.7687014034	-0.1947985341	-0.252401
C	-3.641080128	-0.5747330241	 0.1173921003	 0.456157
O	-4.9858657773	-0.4868743496	 0.209437388	-0.429387
C	-2.608224763	 0.3242717692	 0.2737098471	-0.429223
H	 0.9492535132	 1.6350965051	-0.3498304422	 0.287514
H	 0.6015656331	-0.7260349214	-0.4413163784	 0.108371
H	 0.3094595638	 0.0367322931	 1.1340918493	 0.095525
H	-3.5752290742	-2.6273664373	-0.3925301971	 0.27591
H	-5.2195811387	 0.4224355083	 0.4196240866	 0.313851
H	-2.6691299185	 1.3729125204	 0.5111612263	 0.106142
57.687	149.907	224.5278	263.6786	266.5931	344.1453	401.3431	460.0707	488.1613	619.1337	688.0516	703.1608	758.0075	780.1214	995.2389	1021.8288	1049.2962	1069.8672	1153.0609	1161.6456	1181.6743	1240.6361	1243.0701	1355.5232	1435.9207	1445.2663	1511.7901	1521.5365	1570.3831	1627.756	2961.724	3019.8063	3273.9415	3683.1856	3829.013	3845.5726
OCC1=NNC(O)=C1	OCc1n[nH]c(O)c1	
InChI=1S/C4H6N2O2/c7-2-3-1-4(8)6-5-3/h1,7H,2H2,(H2,5,6,8)	InChI=1S/C4H6N2O2/c7-2-3-1-4(8)6-5-3/h1,7H,2H2,(H2,5,6,8)
