15
gdb 65452	4.39153	0.84033	0.79913	2.3536	68.53	-0.264	-0.0209	0.2431	1388.4177	0.110621	-453.944209	-453.934926	-453.933982	-453.979241	31.971	
N	 0.0413272452	 1.4200732395	 0.0368393275	-0.556491
C	-0.0076926032	-0.0170403595	-0.0450271181	 0.136902
C	-0.7230763588	-0.7894873884	 1.0472635075	-0.345403
C	-1.3077207146	-0.7663811382	-0.3398614716	 0.053641
O	-2.3989092708	 0.08335223	-0.5964168872	-0.200155
C	-3.6243392366	-0.3646364103	-0.2137207264	 0.175304
O	-4.6138619366	 0.2711681771	-0.3983099072	-0.255259
C	 1.1938814026	-0.6081807367	-0.5897712359	 0.279412
N	 2.1366040446	-1.0978651726	-1.0455395603	-0.328507
H	 0.1649273762	 1.8111501093	-0.8936664823	 0.252331
H	-0.8483387989	 1.7708630715	 0.3775861168	 0.251062
H	-0.2796051906	-1.7099468707	 1.4067987333	 0.1557
H	-1.2086704455	-0.1839024648	 1.8055970208	 0.146183
H	-1.2770504525	-1.6603142415	-0.9551759925	 0.138766
H	-3.5838327304	-1.3570964947	 0.2706969156	 0.096515
47.7033	110.954	113.9477	139.1864	166.5883	203.3097	288.3497	352.4043	431.9527	454.4106	574.8178	598.3067	646.8988	715.3621	854.8736	868.3035	896.714	970.3303	1036.2966	1044.7517	1045.7311	1083.9176	1133.7269	1147.9225	1190.5713	1311.5883	1333.1611	1405.8791	1424.4371	1468.8142	1663.3083	1877.3722	2361.0485	2980.0419	3142.1484	3160.177	3238.93	3494.6451	3578.0648
NC1(CC1OC=O)C#N	N[C@]1(C[C@H]1OC=O)C#N	
InChI=1S/C5H6N2O2/c6-2-5(7)1-4(5)9-3-8/h3-4H,1,7H2	InChI=1S/C5H6N2O2/c6-2-5(7)1-4(5)9-3-8/h3-4H,1,7H2/t4-,5-/m1/s1
