15
gdb 19564	4.14261	2.14955	1.94882	0.954	64.81	-0.2238	-0.0003	0.2235	733.6905	0.120497	-362.578529	-362.572632	-362.571688	-362.608212	24.15	
C	 0.0534951972	 1.4867149524	 0.0096402871	-0.291769
O	 1.2204262875	 0.61939358	-0.0069880276	-0.279304
C	-0.0402442767	 0.0379320417	 0.0026879991	 0.547744
C	-0.6282826503	-0.9957541709	 1.0085968582	-0.165729
N	-1.7577966427	-1.0655276411	 0.0141800983	-0.304656
C	-0.648781109	-0.9847665757	-1.0022469315	-0.16573
C	 0.2276508773	-2.209488039	-0.6816118634	-0.083696
C	 0.2412050586	-2.2168655768	 0.6567971843	-0.083703
H	-0.0939097579	 2.0410639638	 0.9345851035	 0.123203
H	-0.1126683912	 2.0511132506	-0.9060006405	 0.123203
H	-0.863733862	-0.7690771193	 2.0474774658	 0.076207
H	-2.1749303369	-1.998084974	 0.0133406806	 0.206253
H	-0.9053413438	-0.7467840622	-2.033573429	 0.07621
H	 0.7454771671	-2.8399118421	-1.3895722191	 0.110884
H	 0.7732060927	-2.8549886274	 1.3471299843	 0.110883
187.4382	274.5561	323.5867	459.2136	566.0619	577.2918	609.6073	721.618	784.5351	825.6574	827.2656	869.8611	899.8262	904.7723	911.743	953.1728	1004.3949	1016.3265	1084.4089	1100.084	1110.8773	1141.8346	1144.537	1175.4443	1223.1056	1236.0063	1270.4819	1300.4379	1324.4872	1447.6999	1549.7601	1606.9625	3091.9851	3131.472	3133.9551	3180.2282	3229.0227	3255.4835	3436.8811
C1OC11C2NC1C=C2	C1O[C@]21[C@H]1N[C@@H]2C=C1	
InChI=1S/C6H7NO/c1-2-5-6(3-8-6)4(1)7-5/h1-2,4-5,7H,3H2	InChI=1S/C6H7NO/c1-2-5-6(3-8-6)4(1)7-5/h1-2,4-5,7H,3H2/t4-,5+,6+
