16
gdb 51505	3.24883	1.10128	0.87338	3.1584	72.44	-0.2229	-0.0394	0.1835	1277.0987	0.123172	-437.934709	-437.926297	-437.925353	-437.968994	29.949	
O	 0.1689709065	-0.1764275266	 0.2382033027	-0.22698
C	 0.0809413664	 0.9480877155	-0.1750352931	 0.152727
C	 1.1857243666	 1.9897678418	-0.0445313647	-0.266284
N	 1.2286130968	 2.9017815826	-1.1600326945	-0.092854
C	 1.6527327664	 2.6028297444	-2.4696290839	-0.015801
C	 1.6143697363	 3.6805784619	-3.2575329994	-0.150565
C	 1.1226420351	 4.8488300448	-2.4445431826	-0.395031
C	 0.8973393345	 4.2489302869	-1.0508987728	 0.411052
O	 0.5179864903	 4.7900951671	-0.036956646	-0.375895
H	-0.8356430333	 1.3241015525	-0.6842251576	 0.091679
H	 0.9652671624	 2.6039544802	 0.8390875053	 0.173134
H	 2.1425311083	 1.4816006039	 0.1149158356	 0.138098
H	 1.9540141879	 1.5909037343	-2.7027432605	 0.137857
H	 1.88534426	 3.7139793078	-4.3011021038	 0.115587
H	 1.8398628626	 5.674637718	-2.374538275	 0.151908
H	 0.1847210331	 5.281146345	-2.8121493296	 0.151368
52.3371	69.9453	109.2354	173.9849	271.4173	326.5851	420.6785	438.2461	529.9483	588.851	655.8116	696.3071	729.6279	779.4824	858.8801	911.3797	951.39	975.2	1010.3935	1047.4982	1080.773	1147.2319	1148.0188	1196.3052	1253.6938	1299.3756	1324.8067	1357.9785	1411.3913	1417.4535	1433.6049	1448.4143	1669.8482	1818.9786	1842.2921	2880.7177	3030.2291	3047.0402	3078.7109	3087.5692	3231.7908	3262.9844
O=CCN1C=CCC1=O	O=CCN1C=CCC1=O	
InChI=1S/C6H7NO2/c8-5-4-7-3-1-2-6(7)9/h1,3,5H,2,4H2	InChI=1S/C6H7NO2/c8-5-4-7-3-1-2-6(7)9/h1,3,5H,2,4H2
