17
gdb 42845	2.73598	1.8644	1.61071	3.7865	70.63	-0.2381	-0.0082	0.23	895.3458	0.138178	-421.803087	-421.796492	-421.795548	-421.834038	26.654	
O	-0.0641851787	-0.0213913635	 0.1680503433	-0.326427
C	-0.049619725	 1.163287359	 0.0256391278	 0.444502
C	-1.0945102874	 2.2973581955	 0.087441135	-0.162539
C	 0.0196176697	 3.0110920599	 0.9406942428	-0.257138
C	 1.0232855949	 2.2657201506	-0.016168791	-0.173456
C	 0.671868824	 2.9512949595	-1.3496546348	 0.133565
O	 0.618406107	 2.0864096218	-2.5028146863	-0.298572
C	-0.8294845631	 2.1545358608	-2.5537375576	-0.109421
C	-0.8840205872	 3.0031720592	-1.2661124779	-0.070065
H	-2.1067125825	 2.1335662304	 0.4508109479	 0.088427
H	 0.0288841784	 4.1030475368	 0.8961283411	 0.113323
H	 0.072600542	 2.6657465186	 1.9737965238	 0.126402
H	 2.0663061307	 2.0845704159	 0.2320398873	 0.091104
H	 1.2441297429	 3.863880856	-1.5416177336	 0.084616
H	-1.1708341982	 2.6750852141	-3.4561328812	 0.105954
H	-1.2900406396	 1.1610126108	-2.5109187555	 0.121464
H	-1.3874771879	 3.9678669045	-1.3316964514	 0.088261
137.1659	151.7181	313.4135	377.1711	452.6794	473.0632	598.5308	630.6978	792.6193	804.151	819.382	837.1677	860.628	869.2667	932.465	983.2272	986.8348	1000.0888	1013.1867	1030.8435	1052.4861	1076.8341	1091.3812	1110.8461	1157.7147	1176.8743	1202.1938	1210.9831	1245.7268	1250.6108	1283.1782	1330.7592	1337.9575	1358.7794	1495.9607	1521.7077	1906.2446	3023.7226	3060.4783	3070.346	3071.5776	3107.626	3141.2774	3148.0283	3155.5913
O=C1C2CC1C1OCC21	O=C1[C@H]2C[C@@H]1[C@H]1OC[C@@H]21	
InChI=1S/C7H8O2/c8-6-3-1-4(6)7-5(3)2-9-7/h3-5,7H,1-2H2	InChI=1S/C7H8O2/c8-6-3-1-4(6)7-5(3)2-9-7/h3-5,7H,1-2H2/t3-,4-,5-,7+/m0/s1
