15
gdb 27336	3.22479	1.39851	0.98065	8.4459	79.98	-0.1742	-0.0304	0.1438	1126.308	0.115171	-450.144451	-450.136465	-450.13552	-450.176945	30.381	
N	 0.1266048274	 1.4297225269	 0.011230898	-0.59491
C	 0.0593751825	 0.0303793779	 0.0056530353	 0.373331
N	-1.0997351577	-0.670229432	-0.034623879	-0.357085
H	-1.9768399982	-0.1681537223	-0.0626083938	 0.263194
C	-1.2049713984	-2.0738538345	-0.0415157676	 0.260009
N	-2.3616283582	-2.5973096863	-0.0813181522	-0.541128
C	 0.1039221914	-2.8394873517	 0.0003178582	 0.298246
O	 0.0443528329	-4.0736735878	-0.0045535159	-0.426489
C	 1.2653608996	-2.0471076526	 0.0409403416	-0.229828
N	 1.1776645644	-0.6654887357	 0.0412521088	-0.219807
H	-0.2701036457	 1.8483008812	-0.8251991684	 0.26292
H	-0.324219384	 1.8443478647	 0.821817374	 0.262927
H	-2.2150920498	-3.6116046881	-0.0788306121	 0.241996
H	 2.2599001739	-2.4633360743	 0.0731064299	 0.121796
H	 2.0223720798	-0.1118199956	 0.0706562732	 0.284829
101.6899	138.1037	165.5499	318.6181	332.3705	352.7803	423.6978	463.1687	515.7374	551.3179	603.645	638.0135	692.298	707.2459	759.4202	770.7535	787.2857	816.6634	925.4331	1003.8296	1097.4841	1175.0678	1205.9673	1244.41	1288.0104	1385.2873	1411.9436	1438.253	1549.7006	1633.7795	1693.984	1699.9738	1721.2162	3253.4097	3437.0057	3486.0712	3548.9261	3597.8297	3618.4754
NC1=[NH+]C(=N)C([O-])=CN1	N[C]1N[C]([NH])C(=O)[CH]N1	
InChI=1S/C4H6N4O/c5-3-2(9)1-7-4(6)8-3/h1,9H,(H4,5,6,7,8)	InChI=1S/C4H6N4O/c5-3-2(9)1-7-4(6)8-3/h1H,(H5,5,6,7,8)
