17
gdb 43135	2.47599	1.9852	1.6232	3.6325	71.33	-0.2214	-0.011	0.2104	900.5804	0.137649	-421.768188	-421.761415	-421.760471	-421.799114	27.497	
O	 0.0515029303	-0.0093138579	 0.1028358576	-0.324714
C	-0.0287670262	 1.1812324882	 0.099040965	 0.367067
C	-1.1106220787	 2.2444451298	-0.0070460375	-0.192845
C	-0.7506528446	 3.0153793181	 1.3324550177	-0.222124
C	 0.846624838	 3.0674171149	 1.3165820329	-0.32513
C	 0.9700952195	 2.3945790985	-0.0340378275	 0.371871
O	 1.9488183228	 2.2847108921	-1.0545762853	-0.348838
C	 0.8513952316	 2.4150964486	-2.0321938018	-0.151346
C	-0.1122468017	 2.9909533786	-0.9444343352	-0.090864
H	-2.1649535161	 2.051489267	-0.1947095767	 0.089572
H	-1.1756743412	 4.0215683346	 1.3206122764	 0.118531
H	-1.1395177606	 2.4866926649	 2.2049293719	 0.12447
H	 1.2219940067	 4.0933909449	 1.3263411281	 0.115883
H	 1.2920227892	 2.517454948	 2.1492284064	 0.121746
H	 1.1229335899	 3.1145727477	-2.8246993497	 0.121527
H	 0.5862639463	 1.4413657323	-2.4555295958	 0.132431
H	-0.213259285	 4.0762488296	-0.9799485364	 0.092762
142.1372	252.4101	266.2293	275.2242	401.753	485.5066	547.906	643.2206	677.4588	763.4403	777.7324	793.1089	839.4741	850.3564	882.4447	892.5662	924.7134	997.1878	1017.9924	1036.8985	1057.0448	1093.5982	1118.7083	1149.4265	1165.711	1194.3671	1224.2151	1233.7653	1254.3721	1269.5365	1305.5724	1334.7674	1340.2482	1488.5753	1502.8701	1513.4323	1908.9587	3054.3999	3061.7689	3073.1153	3103.8016	3108.5976	3126.1231	3129.0268	3141.0148
O=C1C2CCC11OCC21	O=C1[C@H]2CC[C@]31OC[C@@H]23	
InChI=1S/C7H8O2/c8-6-4-1-2-7(6)5(4)3-9-7/h4-5H,1-3H2	InChI=1S/C7H8O2/c8-6-4-1-2-7(6)5(4)3-9-7/h4-5H,1-3H2/t4-,5-,7-/m0/s1
