17
gdb 38035	3.81205	1.63701	1.2863	4.1723	72.34	-0.2102	0.0491	0.2593	971.4445	0.139812	-418.004244	-417.997673	-417.996729	-418.035135	26.388	
C	-0.0737480191	 1.3474416244	 0.065769151	-0.314824
C	 1.3136257398	 0.7432093958	 0.0702952237	 0.003718
N	 1.9384109212	 0.5528342634	 1.3689376386	-0.383003
C	 1.1801609474	-0.2944832031	 1.9453827224	 0.474757
O	 1.148437319	-0.6727877979	 3.234072459	-0.255685
C	 0.0427617912	-1.594359031	 3.3768085894	-0.094271
C	-0.8621028685	-1.3274821296	 2.1523932925	-0.199613
N	 0.1582946009	-0.894763441	 1.2176588987	-0.099714
C	 0.0716378347	-0.1587885985	-0.0121737226	-0.052372
H	-0.430262057	 1.8041593293	 0.9837998366	 0.115469
H	-0.3978216936	 1.8358490247	-0.8468909788	 0.115847
H	 1.9767521494	 0.9112819189	-0.7694630977	 0.098082
H	 0.4326720546	-2.617700968	 3.3647216471	 0.127984
H	-0.4380304222	-1.3974055858	 4.3358531668	 0.131148
H	-1.3827496721	-2.2309754387	 1.8236808061	 0.121883
H	-1.6086803641	-0.5442682061	 2.3574263496	 0.109993
H	-0.2336955516	-0.7077843567	-0.8947758923	 0.100602
145.5054	193.0148	237.1866	364.1269	456.611	506.2702	635.921	694.5146	716.1945	738.6327	772.0141	808.4239	842.1661	891.0987	928.9591	953.5036	975.3348	1020.1057	1044.0611	1052.941	1089.1049	1123.941	1138.6008	1158.0083	1180.4246	1213.4909	1255.8979	1265.103	1272.481	1319.8013	1360.3502	1386.9663	1442.1305	1461.0531	1514.9301	1527.6966	1729.4419	2981.7965	3051.8993	3085.6426	3125.3435	3129.8766	3175.1036	3185.9799	3218.7447
C1C2N=C3OCCN3C12	C1[C@H]2N=C3OCCN3[C@@H]12	
InChI=1S/C6H8N2O/c1-2-9-6-7-4-3-5(4)8(1)6/h4-5H,1-3H2	InChI=1S/C6H8N2O/c1-2-9-6-7-4-3-5(4)8(1)6/h4-5H,1-3H2/t4-,5+/m1/s1
