18
gdb 16070	3.18598	1.74753	1.49761	1.7682	67.47	-0.2322	0.0616	0.2938	934.8422	0.153114	-384.896609	-384.888588	-384.887644	-384.928923	30.183	
C	-0.095314338	 1.5149201545	-0.1640488021	-0.379795
C	-0.0402091708	 0.0187795397	 0.1768058047	-0.293075
C	-1.3693937216	-0.6479012896	 0.013384273	 0.410824
O	-2.4469294238	-0.1988358774	 0.867599307	-0.342622
C	-2.9017184993	-1.5745466976	 1.0449941031	-0.103812
C	-1.8836698206	-2.0889454043	 0.041509649	-0.246259
C	-1.9926725749	-1.2309586072	-1.2122246614	 0.085603
O	-3.2047116454	-0.7638436014	-1.7135906561	-0.43979
H	 0.8798636192	 1.985931316	-0.0109030411	 0.113614
H	-0.3886651688	 1.6703300405	-1.2071368995	 0.123242
H	-0.8239149471	 2.026700471	 0.471168116	 0.136437
H	 0.6829961655	-0.4926704332	-0.4694745624	 0.104941
H	 0.3046956933	-0.1160286808	 1.2095256152	 0.106788
H	-2.7227344101	-1.9004916208	 2.0743782381	 0.114243
H	-3.9608230063	-1.6941160003	 0.7911318163	 0.112461
H	-1.3572037714	-3.0335676154	 0.0847345661	 0.097906
H	-1.3045929056	-1.5150999469	-2.0039219096	 0.10448
H	-3.5122776144	-0.1012701568	-1.0795070764	 0.294813
83.6705	138.574	196.7951	229.7676	264.8212	318.7857	367.444	451.9511	527.4718	577.0213	718.1905	774.7863	792.292	821.6063	895.2341	960.6165	968.7718	976.7397	989.1365	1006.2366	1041.3228	1094.4186	1112.2263	1144.6633	1165.0339	1193.94	1243.6037	1287.4835	1313.5276	1332.7735	1355.9498	1391.756	1407.7233	1473.8979	1482.9292	1497.7907	1509.5869	1517.3274	3026.5883	3035.1378	3041.1763	3064.7704	3086.5647	3111.6455	3119.0633	3154.5018	3196.0721	3747.8749
CCC12OCC1C2O	CC[C@]12OC[C@H]1[C@H]2O	
InChI=1S/C6H10O2/c1-2-6-4(3-8-6)5(6)7/h4-5,7H,2-3H2,1H3	InChI=1S/C6H10O2/c1-2-6-4(3-8-6)5(6)7/h4-5,7H,2-3H2,1H3/t4-,5+,6-/m0/s1
