22
gdb 16595	3.17778	1.63927	1.36386	0.0848	82.02	-0.2437	0.0893	0.3329	1046.852	0.200054	-313.049373	-313.040691	-313.039747	-313.081848	33.685	
C	-0.1136110747	 1.4078203724	 0.18998957	-0.416298
C	 0.1124114121	-0.0523520746	 0.5244811754	-0.018799
C	 1.3271750765	-0.8639623356	 0.1591796668	-0.066836
C	 0.9907986858	-0.5794886852	 1.6282554925	-0.066811
C	 2.2898427779	 0.2298582006	 1.792088962	 0.008808
C	 3.2392590017	-0.3262329878	 2.8488227081	-0.408783
C	 2.6360093544	-0.0629537333	 0.2807118654	 0.00882
C	 3.8928247817	-0.8791506949	-0.0048760965	-0.408773
H	 0.7954557571	 2.0070500506	 0.2822461578	 0.11976
H	-0.4765890756	 1.5184469093	-0.8379206519	 0.113578
H	-0.8647386219	 1.8464676019	 0.8563107499	 0.113576
H	-0.7964918472	-0.6460643159	 0.4313617062	 0.080159
H	 1.2406871331	-1.7961822367	-0.390026121	 0.072535
H	 0.6060579298	-1.2594561072	 2.3817539268	 0.072533
H	 2.1280897265	 1.294565397	 2.0011599527	 0.061167
H	 3.3927615495	-1.4038926399	 2.7369080582	 0.115139
H	 4.218926429	 0.1611765427	 2.8092811062	 0.111204
H	 2.8262029118	-0.157915796	 3.8497494813	 0.110756
H	 2.6644399702	 0.8409584304	-0.3402552568	 0.06116
H	 3.8967978842	-1.8302631851	 0.5362369331	 0.115139
H	 3.9537841569	-1.1119611258	-1.0739346659	 0.110759
H	 4.8013020011	-0.3314905072	 0.2664530296	 0.111208
110.9235	178.73	199.1422	226.0489	234.8816	269.396	294.414	343.5115	386.1445	514.29	571.1356	711.4658	727.1028	774.5312	802.3051	881.2938	920.0965	920.2947	991.339	996.0437	998.8141	1040.3635	1052.8433	1064.8447	1115.4843	1118.5855	1126.3793	1157.9732	1166.6102	1209.1764	1253.701	1259.6881	1306.844	1324.2823	1367.7807	1372.7967	1406.1797	1413.438	1417.8322	1441.7856	1486.7691	1492.1935	1496.0373	1501.5266	1504.1081	1513.8164	3009.9658	3021.8929	3027.596	3032.2982	3034.5872	3087.1276	3089.5138	3094.018	3100.1387	3105.8547	3111.5443	3123.4562	3150.0872	3162.7339
CC1C2C1C(C)C2C	C[C@H]1[C@@H]2[C@H]1[C@@H](C)[C@H]2C	
InChI=1S/C8H14/c1-4-5(2)8-6(3)7(4)8/h4-8H,1-3H3	InChI=1S/C8H14/c1-4-5(2)8-6(3)7(4)8/h4-8H,1-3H3/t4-,5+,6+,7-,8+
