15
gdb 83330	2.3324	1.75497	1.48536	0.4933	60.47	-0.2327	-0.0445	0.1881	928.8995	0.111735	-494.866987	-494.859162	-494.858218	-494.89904	29.868	
O	 0.0547070423	 1.4067918518	-0.1236370617	-0.441645
C	-0.0480089389	 0.0207830623	-0.0659905112	 0.099892
C	 0.1185509556	-0.6546715932	 1.3274753767	-0.099735
O	-0.8335826222	 0.0942897826	 2.1126381533	-0.293914
C	-2.0264936347	 0.0907577552	 1.2736992223	-0.133424
C	-1.5063517288	-0.6503764802	 0.0333314411	 0.203488
O	-2.4112205399	-0.8087736412	-0.9891723573	-0.470667
C	-0.7338893198	-1.7874345014	 0.7165692084	 0.376127
O	-0.6841337792	-2.9753410274	 0.5938809167	-0.315638
H	-0.1089815912	 1.7368121453	 0.7699929741	 0.300848
H	 0.5582069409	-0.4247683907	-0.8580446671	 0.108699
H	 1.058288618	-0.7791093299	 1.8559268414	 0.112449
H	-2.8441647334	-0.4369297198	 1.77377124	 0.129305
H	-2.3323240587	 1.1176455063	 1.0494171805	 0.122881
H	-2.1832119401	-1.6082941397	-1.4780866673	 0.301333
135.5492	162.0346	233.4055	256.3512	291.661	305.757	376.9305	466.9684	527.5549	557.4117	640.1708	687.5192	750.5182	775.6381	806.6606	855.7644	903.8974	987.453	1022.4292	1076.546	1096.0448	1110.761	1162.7379	1178.5072	1193.6586	1260.8249	1292.2388	1304.6125	1360.7434	1417.4626	1438.3892	1526.472	1904.1231	3044.3571	3094.0946	3097.9702	3184.5973	3763.476	3794.8729
OC1C2OCC1(O)C2=O	O[C@H]1[C@H]2OC[C@]1(O)C2=O	
InChI=1S/C5H6O4/c6-3-2-4(7)5(3,8)1-9-2/h2-3,6,8H,1H2	InChI=1S/C5H6O4/c6-3-2-4(7)5(3,8)1-9-2/h2-3,6,8H,1H2/t2-,3+,5-/m1/s1
