20
gdb 116915	4.00533	0.59017	0.53669	2.3686	86.49	-0.2347	0.043	0.2777	2051.6873	0.169292	-403.091527	-403.080989	-403.080044	-403.129537	36.676	
C	-0.5042672998	 1.3745667877	 0.3867282248	-0.39613
C	 0.029945453	-0.0040131143	 0.0942263383	 0.020552
N	 1.4203977032	-0.0953229224	-0.3607819585	-0.322614
C	 1.056298534	-0.6721485035	 0.960674516	-0.258965
C	 1.6059477592	-0.0567048372	 2.1371418799	 0.15482
C	 2.0591874582	 0.4286551958	 3.1429724503	 0.057045
C	 2.5903789645	 1.033469969	 4.3569788602	-0.327228
C	 1.5409641438	 1.8490795019	 5.1206293121	-0.062727
O	 2.1815563758	 2.3725589231	 6.2715704686	-0.415181
H	 0.2547197617	 1.9800487489	 0.8864666815	 0.137707
H	-0.7931936713	 1.8794321929	-0.5410636523	 0.119057
H	-1.386526474	 1.3183170878	 1.0333109029	 0.114994
H	-0.6858351222	-0.6853524854	-0.3654032309	 0.084437
H	 1.5290653713	-0.8493236635	-1.034356687	 0.232384
H	 0.9864747894	-1.7572260339	 1.0147479943	 0.102342
H	 2.9832671291	 0.2607346463	 5.0292261367	 0.136641
H	 3.4341654511	 1.6923707285	 4.1179020682	 0.139549
H	 1.1548998288	 2.6474391214	 4.4694175935	 0.097909
H	 0.6942949205	 1.1981038834	 5.385348771	 0.096641
H	 1.5415352139	 2.8963071836	 6.7617362605	 0.288765
12.9316	58.8463	79.3566	135.079	153.4977	195.662	238.5982	285.9852	334.3764	380.137	389.8851	447.9516	551.35	600.3073	754.4002	782.4141	792.9192	864.6752	922.7676	981.2335	999.5842	1012.2751	1069.5311	1080.2076	1087.0444	1128.2029	1157.0931	1206.9055	1221.1694	1237.6414	1248.4169	1265.4562	1302.9661	1333.8645	1393.0725	1422.5716	1452.696	1454.6374	1476.1389	1487.7737	1495.8914	1527.3082	2364.9631	2982.6264	3013.3254	3029.5366	3037.7102	3066.9692	3099.5027	3102.274	3117.8267	3136.555	3500.7529	3835.6927
CC1NC1C#CCCO	C[C@H]1N[C@H]1C#CCCO	
InChI=1S/C7H11NO/c1-6-7(8-6)4-2-3-5-9/h6-9H,3,5H2,1H3	InChI=1S/C7H11NO/c1-6-7(8-6)4-2-3-5-9/h6-9H,3,5H2,1H3/t6-,7+/m1/s1
