21
gdb 96142	2.58546	1.70408	1.29533	1.9281	77.65	-0.2484	0.08	0.3284	1057.931	0.184676	-424.21728	-424.209559	-424.208615	-424.248985	31.608	
C	-0.0396677894	 1.5294039302	-0.0494150536	-0.398553
C	-0.0057789624	 0.0078192322	 0.024439501	 0.114071
O	 0.5980984798	-0.4289458825	-1.1985241268	-0.251788
C	 0.7119753744	-1.8148349046	-1.3672568926	 0.016289
O	 1.8323340293	-2.3932397131	-0.744345921	-0.260251
C	 1.9898696635	-2.1615355219	 0.6470543969	 0.13395
C	 0.6739001855	-2.0440440156	 1.4622761295	-0.284965
C	 0.7466748479	-0.502283655	 1.2669468606	-0.01518
C	 2.2728876296	-0.6721869111	 1.004458767	-0.236612
H	 0.9746942118	 1.9398884075	-0.027966211	 0.126363
H	-0.5170027425	 1.8506170439	-0.9787271856	 0.124471
H	-0.599653091	 1.9433699662	 0.7940415911	 0.113435
H	-1.0392986504	-0.3776819055	 0.06003382	 0.06806
H	-0.2181827579	-2.3083413981	-1.038700254	 0.079135
H	 0.8603426501	-1.9923961421	-2.4351826911	 0.114351
H	 2.7222925587	-2.9016538724	 0.9758274099	 0.078851
H	-0.211689582	-2.5842556658	 1.117349786	 0.100397
H	 0.8571025903	-2.3172030415	 2.5049448219	 0.103194
H	 0.4521133145	 0.1000537707	 2.1308088993	 0.065793
H	 2.8574090222	-0.5871401282	 1.9245634001	 0.094619
H	 2.7271926678	-0.0680637731	 0.2181838424	 0.114371
138.9938	211.8814	259.4523	303.6292	318.4683	354.7274	389.7706	432.6199	479.8879	563.8804	656.89	757.4795	779.0826	813.9479	875.4843	886.4684	918.9919	941.7136	973.5676	1022.3032	1025.8149	1058.3935	1073.1497	1096.4909	1108.8031	1141.1861	1149.4329	1175.6383	1210.006	1226.7761	1253.3111	1273.8596	1276.7904	1313.024	1333.456	1364.6573	1383.5299	1392.3421	1410.2794	1447.8483	1458.675	1484.5753	1489.2074	1499.7453	1516.2721	2952.481	2960.2945	3043.0161	3057.5292	3061.8017	3071.9876	3089.2284	3099.2919	3110.0625	3115.9995	3124.1813	3135.1014
CC1OCOC2CC1C2	C[C@H]1OCO[C@@H]2C[C@H]1C2	
InChI=1S/C7H12O2/c1-5-6-2-7(3-6)9-4-8-5/h5-7H,2-4H2,1H3	InChI=1S/C7H12O2/c1-5-6-2-7(3-6)9-4-8-5/h5-7H,2-4H2,1H3/t5-,6-,7+/m1/s1
