17
gdb 127224	3.06074	1.43113	0.98713	5.1848	84.2	-0.2139	-0.0468	0.1671	1179.6023	0.136259	-414.172984	-414.164388	-414.163444	-414.20643	31.355	
C	 0.0128255193	 1.4596530118	 0.0358923939	-0.328676
N	-0.0232537796	 0.007567102	 0.011928959	-0.025476
C	-1.2051024079	-0.6970039718	 0.0249131316	-0.037857
C	-1.206677309	-2.0442678897	 0.0019336235	 0.193377
C	-2.4486768987	-2.8742119405	 0.014100355	-0.476323
C	 0.0938815405	-2.7009428578	-0.0368480263	 0.310485
N	 0.2046949139	-3.9771481949	-0.0611009366	-0.52336
N	 1.25123314	-1.8661665517	-0.0469605034	-0.273915
N	 1.1822666555	-0.6058597002	-0.0239726816	-0.059868
H	 1.0606647335	 1.757083549	 0.0191235527	 0.169252
H	-0.4983305766	 1.875958838	-0.8383747162	 0.144351
H	-0.4611915391	 1.8455936433	 0.9443452578	 0.144347
H	-2.107873082	-0.0968738328	 0.0542894359	 0.131833
H	-2.4802047307	-3.5196895956	-0.8699840143	 0.152001
H	-2.4434303444	-3.5491456066	 0.8764744246	 0.151985
H	-3.3499731787	-2.2556449946	 0.0435317979	 0.109161
H	 1.197909404	-4.219538008	-0.0862547535	 0.218683
75.268	111.8378	159.6021	184.4551	268.1512	297.4595	335.3083	412.7952	467.6165	517.569	535.3643	567.2276	736.7396	779.0684	811.4184	879.6988	911.9573	932.4933	1013.8356	1061.6711	1064.9223	1071.9587	1152.4166	1172.0137	1265.1764	1325.0221	1364.4932	1414.2216	1429.2501	1449.5304	1461.0149	1484.3452	1484.9033	1508.1488	1527.9915	1675.2636	1710.4718	3034.8192	3036.107	3094.6782	3094.786	3118.9475	3166.1646	3191.0345	3453.7125
CN1C=C(C)C(=N)N=N1	Cn1cc(C)c([NH])nn1	
InChI=1S/C5H8N4/c1-4-3-9(2)8-7-5(4)6/h3,6H,1-2H3	InChI=1S/C5H13N4/c1-4-3-9(2)8-7-5(4)6/h4-8H,3H2,1-2H3
