15
gdb 45347	2.5369	1.79111	1.18583	5.5176	65.76	-0.2606	-0.0445	0.2161	996.3024	0.113237	-457.811893	-457.8047	-457.803756	-457.844238	26.897	
O	 0.0170319168	 0.0188802591	 0.1204296193	-0.270807
C	-0.035003715	 1.2036778665	 0.0106353338	 0.416373
C	-1.1613957409	 2.2145985708	-0.2558939587	-0.3654
C	-0.0674396762	 3.295036216	-0.5285929513	-0.047257
C	 0.0161541259	 4.4575653359	 0.4647749047	-0.099968
O	 0.7536040627	 3.9757003586	 1.5980289204	-0.217461
C	 1.4417809098	 2.8316187765	 1.3242214159	 0.43294
O	 2.2078822739	 2.3394337047	 2.0953734608	-0.321469
C	 1.0429292258	 2.3160207122	-0.0599314948	-0.303169
H	-1.8182522813	 1.9545387408	-1.0894957865	 0.142918
H	-1.7806994643	 2.4081696867	 0.6268528511	 0.144302
H	-0.0210592712	 3.6228749318	-1.5660096158	 0.101163
H	 0.5501661808	 5.3175541875	 0.0460838	 0.124927
H	-0.9617519325	 4.7924549936	 0.8216799782	 0.129698
H	 1.9258763258	 2.0980975794	-0.6609964471	 0.13321
62.3497	136.2269	157.5236	326.9514	423.6162	464.204	481.3769	585.135	662.5676	708.0163	745.2311	756.8926	826.2704	884.3378	936.2574	955.456	1003.6194	1034.9576	1053.9326	1084.3506	1132.0809	1147.7695	1182.2654	1183.6982	1226.4277	1240.9292	1268.9911	1326.5298	1398.3276	1436.8957	1521.851	1871.9923	1915.3544	3044.2354	3054.4818	3096.3585	3113.4862	3123.3607	3131.0455
O=C1CC2COC(=O)C12	O=C1C[C@H]2COC(=O)[C@@H]12	
InChI=1S/C6H6O3/c7-4-1-3-2-9-6(8)5(3)4/h3,5H,1-2H2	InChI=1S/C6H6O3/c7-4-1-3-2-9-6(8)5(3)4/h3,5H,1-2H2/t3-,5+/m0/s1
