18
gdb 78949	2.48025	2.10541	1.54531	0.4817	72.77	-0.2333	0.0661	0.2993	913.9435	0.148567	-401.864044	-401.856845	-401.855901	-401.895223	29.327	
C	-0.0079763691	 1.4942560885	 0.0209399109	-0.521516
C	-0.0351091142	-0.0099593588	 0.0720310026	 0.278847
C	 0.6672376786	-0.8385180521	-1.0315255555	-0.117489
C	 0.3031666016	-2.2360988177	-0.6443869555	-0.064094
C	-0.541140653	-1.9869878525	 0.6220936009	-0.129321
C	 0.1533087795	-0.8286036287	 1.3820741908	 0.107755
O	 1.4273559806	-0.9946029946	 1.9398416896	-0.440473
C	-1.2488582586	-0.9361322923	-0.2938402024	-0.041714
N	-0.5842035916	-1.4630912681	-1.5752257846	-0.171234
H	 0.99219725	 1.8714552252	 0.2641654059	 0.126561
H	-0.274123751	 1.8666780801	-0.9741133342	 0.127199
H	-0.7091343175	 1.9264653044	 0.742622908	 0.119793
H	 1.4921289348	-0.5631035441	-1.6787621826	 0.094114
H	 0.8246958523	-3.1286539281	-0.968518522	 0.098551
H	-1.0309391413	-2.8224156862	 1.116447085	 0.076865
H	-0.4922709695	-0.4372792332	 2.1762047266	 0.089939
H	 1.9967079282	-1.3603820675	 1.2527188163	 0.284511
H	-2.3013245801	-0.6633851043	-0.2849040299	 0.081707
177.9402	192.8145	226.8691	282.2451	313.8497	380.6488	564.248	587.4737	648.6667	756.2666	771.4519	792.471	824.3958	836.7523	846.0938	867.1053	904.4436	931.1089	953.3153	983.9183	1007.2073	1036.0832	1090.6567	1106.9235	1137.5637	1144.9632	1159.0476	1194.1303	1214.0149	1219.4883	1238.5343	1271.6165	1293.6245	1329.0722	1376.7644	1413.6246	1433.2117	1491.6948	1492.2418	3025.8105	3060.7053	3090.1681	3097.882	3142.033	3151.6247	3174.0213	3187.8876	3790.6231
CC12C3C4C(C1O)C2N34	C[C@@]12[C@H]3[C@H]4[C@@H]([C@H]1O)[C@@H]2N34	
InChI=1S/C7H9NO/c1-7-4-2(6(7)9)3-5(7)8(3)4/h2-6,9H,1H3	InChI=1S/C7H9NO/c1-7-4-2(6(7)9)3-5(7)8(3)4/h2-6,9H,1H3/t2-,3-,4+,5-,6-,7-,8?/m1/s1
