18
gdb 51358	3.60466	1.18131	1.05379	3.5483	77.28	-0.218	0.0201	0.2381	1177.7658	0.14754	-401.858913	-401.850947	-401.850002	-401.892525	30.253	
N	-0.0245563927	 1.2266030428	 0.0340563626	-0.447058
C	-0.2053918885	-0.0034933749	 0.2497490791	 0.137081
O	-1.0024097403	-0.7186768536	-0.5740845199	-0.193616
C	-1.1149761131	-2.0939049033	-0.2682775885	 0.098824
C	-1.923775564	-2.7221533315	 0.8262026344	-0.125022
C	-3.3605192004	-2.1767266074	 1.041553119	-0.060645
C	-3.7678122731	-1.0258243436	 0.1543783782	-0.308274
C	-3.6901858682	-2.4145062052	-0.4187755062	-0.049279
C	-2.2574053158	-2.954918551	-0.6720196418	-0.12533
H	 0.5963843463	 1.6134823715	 0.742016319	 0.228704
H	 0.2203455494	-0.5975361385	 1.0687056124	 0.091254
H	-0.1634134339	-2.6090594601	-0.4077531813	 0.109901
H	-1.4675891368	-3.4099421755	 1.5284986449	 0.091714
H	-3.9383649677	-2.4652864624	 1.9094498583	 0.092859
H	-4.7886102862	-0.6992296488	 0.335504225	 0.110585
H	-3.0924008079	-0.2381336442	-0.1432880097	 0.158785
H	-4.5510927756	-2.9222615207	-0.8326023898	 0.09305
H	-2.0886662014	-3.8425451735	-1.2695975757	 0.096467
38.0791	82.7353	136.9365	253.9179	295.0423	384.7965	534.557	554.2782	679.1304	691.8265	712.8452	720.4612	778.1126	825.2548	867.2353	908.1027	912.963	950.9132	976.7635	1005.2323	1035.4478	1046.6221	1047.5165	1056.6058	1080.0369	1083.2645	1096.9285	1145.7711	1183.9748	1237.0421	1269.1266	1285.6675	1298.4028	1335.1788	1364.3107	1413.0657	1445.9098	1488.2296	1745.4187	3036.5534	3094.3326	3136.1654	3173.7324	3183.8742	3194.3278	3204.6548	3256.364	3515.0677
N=COC1C2C3CC3C12	[NH][CH]O[C@H]1[C@H]2[C@H]3C[C@H]3[C@@H]12	
InChI=1S/C7H9NO/c8-2-9-7-5-3-1-4(3)6(5)7/h2-8H,1H2	InChI=1S/C7H9NO/c8-2-9-7-5-3-1-4(3)6(5)7/h2-8H,1H2/t3-,4+,5-,6+,7-
