19
gdb 104896	2.56168	1.31368	1.1741	2.1807	66.65	-0.2532	0.071	0.3242	1132.9469	0.159523	-497.285695	-497.276828	-497.275883	-497.319563	32.895	
O	 0.1898968303	 1.4459158703	-0.0414695122	-0.435976
C	 0.1133922645	 0.0447441335	 0.0603685275	-0.071433
C	-1.3083511416	-0.5235866166	-0.0035551869	 0.296091
C	-2.0609796554	-0.095402673	-1.2728485299	-0.112573
O	-2.3315570116	 1.3010416166	-1.2630625675	-0.423148
C	-1.3400752509	-2.0568689758	 0.1801967461	-0.170819
O	-2.4788833109	-2.2736058695	 1.000166632	-0.234059
C	-2.5000096031	-1.1696155021	 1.8654260784	 0.015625
O	-2.099121066	-0.0437421521	 1.1065620564	-0.305892
H	-0.5068711012	 1.7343750694	-0.6483580739	 0.291071
H	 0.704383469	-0.4557909102	-0.7300621835	 0.078953
H	 0.5605661619	-0.2363483607	 1.0216829708	 0.100879
H	-1.4584332844	-0.2932097537	-2.165495465	 0.117144
H	-2.9920732592	-0.6751697528	-1.3476774645	 0.108265
H	-2.7658441596	 1.4719114834	-0.4159233576	 0.300867
H	-1.4812266765	-2.605093339	-0.7542879364	 0.125208
H	-0.4226969107	-2.4159655986	 0.6712637297	 0.103543
H	-3.5187955942	-1.0246601873	 2.2361954006	 0.123447
H	-1.8048327303	-1.3172011417	 2.710831276	 0.092807
59.7498	119.0525	149.9383	209.4451	245.7825	304.5048	331.9017	372.8336	411.6469	446.0032	489.3687	645.056	710.1016	740.1101	788.308	902.7966	930.2618	974.2602	984.4464	1041.0692	1063.8604	1084.9752	1116.1442	1118.4008	1155.1713	1178.1842	1199.6862	1218.5724	1253.4019	1270.9608	1312.9016	1360.6515	1366.9756	1400.0668	1418.3865	1440.7845	1478.7715	1496.3452	1507.9585	1510.6321	1545.9044	2927.0149	2947.301	2991.2047	3004.4315	3046.4208	3082.4103	3087.2473	3102.8815	3714.3515	3764.073
OCC1(CO)COCO1	OCC1(CO)COCO1	
InChI=1S/C5H10O4/c6-1-5(2-7)3-8-4-9-5/h6-7H,1-4H2	InChI=1S/C5H10O4/c6-1-5(2-7)3-8-4-9-5/h6-7H,1-4H2
