15
gdb 125220	3.07015	1.43029	0.98161	3.2944	74.28	-0.2281	-0.0641	0.164	1135.9709	0.112342	-453.942702	-453.93473	-453.933786	-453.975234	30.078	
C	 0.0367148192	 1.4951311267	 0.1199585203	-0.486491
C	 0.0013553017	-0.0019743407	 0.0578897362	 0.227021
C	-1.1109046595	-0.7507368156	 0.1406461701	-0.22083
C	-1.0607055856	-2.1993179279	 0.0718946257	 0.410365
N	-2.1027417729	-2.9239852806	 0.1484132752	-0.533679
O	 0.1870270847	-2.7780879408	-0.0832541803	-0.293063
N	 1.36112939	-2.0237223343	-0.1721987386	-0.201411
C	 1.2426043002	-0.745735864	-0.1037913689	 0.389109
O	 2.3704926084	-0.0092209791	-0.1886187262	-0.403528
H	 0.6601339419	 1.835240987	 0.9533700162	 0.15184
H	 0.4794640711	 1.91182753	-0.7906580009	 0.151839
H	-0.9693727455	 1.9011879754	 0.2420343716	 0.135019
H	-2.0967929912	-0.3182481478	 0.2620935455	 0.135722
H	-1.8587591942	-3.9134985062	 0.0796354613	 0.227083
H	 3.1084245917	-0.6278460921	-0.292466077	 0.311003
87.3697	155.1199	194.6332	279.1393	331.2997	357.6863	362.5884	445.6497	522.6801	544.0845	568.0131	637.7927	713.7741	744.1616	791.588	854.8252	882.1594	934.7761	987.0814	1028.5981	1070.5522	1103.4433	1194.295	1243.043	1299.4051	1352.5192	1417.1168	1453.2068	1472.8831	1487.1855	1640.3007	1692.8498	1739.2868	3042.7172	3099.0979	3135.2022	3212.7608	3477.9991	3755.7537
CC1=CC(=N)ON=C1O	C[C]1C=C([NH])ON=C1O	
InChI=1S/C5H6N2O2/c1-3-2-4(6)9-7-5(3)8/h2,6H,1H3,(H,7,8)	InChI=1S/C5H6N2O2/c1-3-2-4(6)9-7-5(3)8/h2,6H,1H3,(H,7,8)
