22
gdb 86947	3.23481	0.9511	0.80867	2.9231	84.05	-0.226	-0.0224	0.2036	1476.1304	0.191827	-404.338963	-404.328889	-404.327944	-404.37453	36.556	
C	-0.0485304974	 1.6309308876	-0.1649040811	-0.396136
C	-0.0605797094	 0.108920331	-0.0826522027	-0.015847
C	 1.1031068332	-0.5830075584	-0.8406100682	-0.177949
N	 1.8279894367	-0.7035510182	 0.4388019811	-0.089994
C	 2.6467234515	-1.8672743934	 0.6806496405	-0.242319
C	 3.5390237306	-1.6786685589	 1.8974499499	 0.160941
O	 3.8162160153	-2.5452627767	 2.6849573389	-0.24109
C	 0.5674122899	-0.5243884293	 1.1991179832	 0.067155
C	 0.6640406082	 0.2482482849	 2.5036721383	-0.415232
H	 0.9514958791	 2.03112649	 0.0275645295	 0.127842
H	-0.3545429851	 1.9617970759	-1.1631933313	 0.114365
H	-0.7385028823	 2.0786672625	 0.5580082322	 0.116061
H	-1.0541246441	-0.2746559391	-0.324863836	 0.072925
H	 0.806032391	-1.5547094937	-1.2662838872	 0.085251
H	 1.6273632582	-0.0039145948	-1.6098991204	 0.098133
H	 2.081345226	-2.8097046155	 0.7932680798	 0.101991
H	 3.3253646802	-1.9932652363	-0.1770520945	 0.126688
H	 3.9343752631	-0.6424053522	 1.9947828274	 0.08211
H	 0.0862639015	-1.5002081357	 1.3931302646	 0.059415
H	 1.1499071965	 1.2169044452	 2.36201792	 0.122509
H	-0.3328071615	 0.4146215356	 2.9266163512	 0.117206
H	 1.2426675788	-0.3147665805	 3.2445835346	 0.125976
54.9756	65.4225	113.6949	170.8358	215.1968	235.7943	258.6352	301.8787	320.6575	347.5885	417.9568	485.6082	530.1484	698.7398	750.978	791.5853	828.491	876.226	922.4847	993.3095	1006.2625	1040.7383	1064.5011	1075.7006	1109.1097	1136.3685	1144.3598	1167.0473	1206.4251	1230.5418	1235.4641	1270.6638	1292.3891	1322.9462	1352.1569	1373.9412	1391.0697	1406.1783	1413.1359	1414.8048	1455.2727	1484.9409	1493.8748	1499.6526	1507.2451	1518.7219	1835.7542	2884.3195	2930.7465	2948.3878	2973.9878	3018.5676	3031.9676	3034.6146	3047.4819	3078.2415	3094.1107	3097.2129	3111.517	3121.7753
CC1CN(CC=O)C1C	C[C@H]1CN(CC=O)[C@H]1C	
InChI=1S/C7H13NO/c1-6-5-8(3-4-9)7(6)2/h4,6-7H,3,5H2,1-2H3	InChI=1S/C7H13NO/c1-6-5-8(3-4-9)7(6)2/h4,6-7H,3,5H2,1-2H3/t6-,7-/m0/s1
