15
gdb 126403	5.83615	0.89917	0.82842	3.6773	71.33	-0.2943	-0.0857	0.2086	1365.1549	0.112465	-450.130919	-450.12266	-450.121716	-450.16495	28.493	
C	 0.0674544841	 1.519310059	 0.1217383022	-0.381682
C	-0.093561505	 0.0095855295	-0.1262152823	-0.281204
C	 0.6600625087	-0.4533279169	-1.3266329816	 0.401689
N	 0.1153319006	-0.8893809386	-2.4440455325	-0.281869
N	 1.1958094827	-1.1584337955	-3.1946617471	 0.059364
C	 1.0732781566	-1.6709570096	-4.5161637475	 0.210766
O	 2.0030992824	-1.9235331014	-5.2165983176	-0.224716
N	 2.3584640149	-0.8997063141	-2.5675863066	-0.080685
N	 2.036680053	-0.457332831	-1.3987239403	-0.229069
H	 1.1214081648	 1.781124699	 0.2463136402	 0.146347
H	-0.3314583757	 2.0988866497	-0.7159280235	 0.129444
H	-0.4700459244	 1.8133751827	 1.0271777759	 0.125108
H	 0.2737001555	-0.5447307935	 0.7445108999	 0.135617
H	-1.1466692956	-0.2499657769	-0.2613910408	 0.13152
H	 0.0072100072	-1.7873377723	-4.7651295883	 0.13937
38.7567	91.0716	169.0482	192.665	237.299	244.3807	355.3546	398.3788	534.3866	685.983	695.5872	772.64	802.497	807.2152	974.9079	978.856	1031.8382	1066.9062	1084.2088	1109.3848	1190.0734	1252.3569	1292.0018	1346.0104	1355.4391	1407.2335	1410.5043	1434.6191	1477.0269	1497.3404	1506.165	1572.0258	1863.8814	3036.036	3046.7119	3052.5716	3102.3313	3121.6928	3131.015
CCC1=NN(C=O)N=N1	CCc1nn(C=O)nn1	
InChI=1S/C4H6N4O/c1-2-4-5-7-8(3-9)6-4/h3H,2H2,1H3	InChI=1S/C4H6N4O/c1-2-4-5-7-8(3-9)6-4/h3H,2H2,1H3
