18
gdb 55446	3.48432	1.10104	0.99015	3.2814	74.33	-0.2364	0.0072	0.2437	1231.8375	0.148557	-439.11992	-439.111179	-439.110234	-439.154257	32.062	
N	 0.0115981102	 1.3049400414	-0.3543764024	-0.522181
C	 0.0446180519	 0.040797103	 0.158972783	 0.399078
O	 1.0553530708	-0.4448024096	 0.6285702484	-0.361251
C	-1.302100087	-0.6946478375	 0.1345287502	-0.16081
C	-1.0828252217	-2.2040851482	-0.0528360934	-0.101357
O	-2.2768631097	-2.926767676	 0.1899373471	-0.251661
C	-2.6910877539	-2.8473041779	 1.5385779187	-0.117577
C	-2.6481606344	-1.4467056859	 2.0830087784	-0.080502
C	-2.0412319645	-0.4561571132	 1.43632584	-0.04985
H	 0.8661780668	 1.8378207152	-0.3650112152	 0.261417
H	-0.7990256887	 1.6789828538	-0.8146338697	 0.259407
H	-1.9037488587	-0.3056344148	-0.6995737506	 0.083893
H	-0.7887782121	-2.4348806729	-1.0800515288	 0.108949
H	-0.2745383787	-2.5239000261	 0.6179361089	 0.122793
H	-3.7156561076	-3.2371269275	 1.5669594082	 0.116316
H	-2.0792877125	-3.513365808	 2.1753072583	 0.102735
H	-3.1413028133	-1.2751434325	 3.0361141934	 0.09623
H	-2.0402590068	 0.5541070863	 1.8366270958	 0.094372
34.1289	90.1951	161.8042	184.2733	254.0335	298.6685	346.4726	410.079	494.5748	546.0584	580.7619	617.6922	689.9434	738.6788	788.9202	892.4221	915.1592	949.8451	989.6758	997.2513	1025.6851	1067.0462	1080.816	1113.3094	1146.2162	1217.1191	1239.3369	1245.5297	1298.9509	1331.028	1356.8166	1384.6528	1407.972	1419.3529	1485.107	1503.1201	1615.8402	1721.8563	1794.7692	2934.2115	2996.3306	3026.7375	3049.8667	3098.0107	3152.6348	3175.7647	3600.804	3739.4909
NC(=O)C1COCC=C1	NC(=O)[C@H]1COCC=C1	
InChI=1S/C6H9NO2/c7-6(8)5-2-1-3-9-4-5/h1-2,5H,3-4H2,(H2,7,8)	InChI=1S/C6H9NO2/c7-6(8)5-2-1-3-9-4-5/h1-2,5H,3-4H2,(H2,7,8)/t5-/m1/s1
