23
gdb 111224	3.12629	1.2045	1.11742	0.253	89.93	-0.2282	0.0244	0.2525	1246.8996	0.208159	-351.158875	-351.150625	-351.149681	-351.191435	33.495	
C	-0.0028781581	 1.5617909976	 0.0547653657	-0.382424
C	-0.0286930987	 0.0367822195	-0.0965125803	-0.211664
C	-1.4340318917	-0.551679346	 0.0147362226	 0.062534
C	-1.5087405957	-2.1121110049	 0.028739712	-0.032927
C	-1.3739286569	-2.0371083133	 1.5779456657	-0.226771
C	-2.0499190837	-0.6366489519	 1.456966613	-0.060818
C	-3.541443383	-0.8580266412	 1.3078906581	-0.066572
C	-3.9550217936	-1.7849253903	 0.4423079425	-0.059737
C	-2.9301230741	-2.5687210549	-0.3501052197	-0.264566
H	 1.0136227347	 1.9546667294	-0.046982037	 0.110079
H	-0.6249942783	 2.0440126076	-0.7074580018	 0.113968
H	-0.3821046767	 1.8730431062	 1.0339685685	 0.116602
H	 0.3847789707	-0.2375070767	-1.0768060773	 0.091432
H	 0.6388511222	-0.4146818016	 0.6473542774	 0.093836
H	-2.0860145536	-0.0638994215	-0.7193855722	 0.057964
H	-0.7453681921	-2.6613548222	-0.5305085996	 0.0525
H	-1.8956572933	-2.7893118565	 2.174879366	 0.090551
H	-0.3317827306	-1.9779929424	 1.8980728199	 0.095488
H	-1.7984489733	 0.1364467599	 2.1855036052	 0.053365
H	-4.2367072518	-0.2696869408	 1.8990451726	 0.082195
H	-5.0084926891	-1.9997290241	 0.287086914	 0.083118
H	-3.0978117168	-2.4318427323	-1.428275973	 0.101078
H	-3.0479456264	-3.6461497996	-0.1643200123	 0.10077
90.1894	154.4004	193.5415	271.3925	281.1562	351.3517	404.1675	456.6041	482.283	517.5289	688.9555	706.9178	763.3608	838.677	853.3408	865.4709	887.5504	909.6299	934.8715	955.2238	965.5893	975.9282	993.3269	1058.0201	1066.0014	1081.4696	1095.3236	1099.3329	1140.1121	1148.5608	1172.8841	1207.2331	1233.9989	1259.2822	1276.2839	1289.3618	1305.5926	1319.6679	1345.5151	1358.505	1391.454	1402.364	1412.5221	1473.9424	1482.41	1499.2052	1500.2309	1508.5655	1698.035	2996.9054	3012.5606	3020.5226	3027.2056	3031.46	3051.7245	3055.9106	3065.4885	3085.4516	3098.5633	3102.1022	3117.7595	3156.883	3181.3752
CCC1C2CC1C=CC2	CC[C@H]1[C@H]2C[C@@H]1C=CC2	
InChI=1S/C9H14/c1-2-9-7-4-3-5-8(9)6-7/h3-4,7-9H,2,5-6H2,1H3	InChI=1S/C9H14/c1-2-9-7-4-3-5-8(9)6-7/h3-4,7-9H,2,5-6H2,1H3/t7-,8+,9+/m0/s1
