15
gdb 49425	3.83919	1.362	1.34752	2.7777	63.54	-0.2519	-0.0293	0.2226	960.5224	0.113796	-457.74976	-457.743286	-457.742342	-457.781123	25.248	
O	-0.0185551483	-0.0566567075	-0.0839913894	-0.253432
C	 0.0045367776	 1.1457940383	-0.0022531083	 0.149179
C	 1.271472568	 1.9646741103	-0.0154772771	-0.10437
C	 1.2756848317	 3.0804817879	-1.0587180546	-0.191074
C	 0.6421161987	 4.2711087906	-0.3446144899	 0.038706
O	 0.3140034988	 3.864717276	 0.9722095481	-0.243947
C	 1.3957619362	 2.9669645074	 1.1782110467	 0.116643
O	 2.5562805787	 3.7084078352	 0.8454334321	-0.231298
C	 2.1428471751	 4.167416181	-0.4261290555	 0.03047
H	-0.9290071555	 1.7403542545	 0.0900481335	 0.093798
H	 2.1415316119	 1.3089048483	-0.0747082954	 0.109259
H	 1.2081258155	 2.9123578405	-2.1237231511	 0.115456
H	 0.0031828827	 5.0291383636	-0.7711467811	 0.125362
H	 1.4288110267	 2.6018428709	 2.2001486863	 0.118399
H	 2.8312010724	 4.827200603	-0.9318264743	 0.126848
77.7834	159.5295	266.9421	411.0534	501.4048	589.2784	610.4177	728.1739	757.7415	801.2269	802.4424	846.6881	894.5178	908.8725	965.4818	993.9499	1010.2516	1025.7662	1039.0112	1042.6344	1073.6895	1086.8184	1094.9889	1116.2314	1211.0437	1228.9065	1237.7133	1264.3397	1311.2577	1347.8048	1368.9251	1423.6497	1823.0255	2911.2279	3113.8181	3188.4482	3227.3414	3239.2305	3248.8273
O=CC1C2C3OC1OC23	O=C[C@H]1[C@H]2[C@H]3O[C@@H]1O[C@@H]23	
InChI=1S/C6H6O3/c7-1-2-3-4-5(3)9-6(2)8-4/h1-6H	InChI=1S/C6H6O3/c7-1-2-3-4-5(3)9-6(2)8-4/h1-6H/t2-,3-,4+,5-,6+/m0/s1
