19
gdb 69807	3.13008	1.60437	1.27314	1.9339	80.1	-0.2378	0.0019	0.2398	1033.7643	0.160548	-385.877261	-385.869769	-385.868825	-385.90871	30.638	
C	-0.0512149446	 1.5096180912	-0.0017661408	-0.474159
C	-0.0342214375	-0.0085607253	 0.001402603	 0.304975
C	-0.8152420588	-0.7173677517	 1.0965706099	-0.325291
C	 0.6880725112	-0.732445277	 1.1391421999	-0.101655
C	 1.428530209	-1.9990937168	 0.8265614384	 0.02675
O	 0.6599151477	-3.1532048106	 0.4956189564	-0.256785
C	 1.43752626	-2.5249967561	-0.55467167	-0.008595
C	 0.7111876293	-1.7746998021	-1.6003959886	-0.08569
C	 0.0524620814	-0.6398657194	-1.3354310711	-0.127125
H	 0.8511309906	 1.9186484944	-0.4694871014	 0.121164
H	-0.9168780293	 1.8905864354	-0.5565304912	 0.119437
H	-0.1102967889	 1.9059495779	 1.0163659719	 0.115586
H	-1.3389216911	-0.0935330342	 1.8131366858	 0.109173
H	-1.2986558372	-1.6539359116	 0.8477542276	 0.138131
H	 1.1743552407	-0.0977266613	 1.872721024	 0.082289
H	 2.291159526	-2.2028619038	 1.4600719506	 0.089549
H	 2.2746715384	-3.1377177161	-0.8851579795	 0.089617
H	 0.7425233111	-2.1639741694	-2.6135066015	 0.091933
H	-0.440926738	-0.1089548735	-2.1472667833	 0.090695
158.5904	192.343	215.2671	305.9626	347.5819	380.7163	467.8354	503.7651	552.377	648.5047	677.6116	718.9226	778.5927	817.1059	837.5682	891.1625	905.5867	929.902	955.5681	981.3968	985.5264	1021.971	1065.9201	1074.6296	1091.7089	1111.8238	1120.7484	1142.8287	1210.9034	1242.0827	1284.7941	1316.0149	1377.1895	1395.9499	1417.125	1431.3454	1447.8125	1480.2217	1490.6295	1502.5022	1694.3882	3024.4058	3085.7804	3102.8266	3109.5867	3123.6074	3136.0901	3141.7468	3162.4908	3176.7478	3236.6654
CC12CC1C1OC1C=C2	C[C@]12C[C@H]1[C@H]1O[C@H]1C=C2	
InChI=1S/C8H10O/c1-8-3-2-6-7(9-6)5(8)4-8/h2-3,5-7H,4H2,1H3	InChI=1S/C8H10O/c1-8-3-2-6-7(9-6)5(8)4-8/h2-3,5-7H,4H2,1H3/t5-,6-,7+,8-/m0/s1
