13
gdb 20493	5.05768	2.01818	1.47098	2.386	59.14	-0.2569	-0.0214	0.2355	780.5164	0.097747	-398.576763	-398.570825	-398.569881	-398.607333	21.848	
C	-0.04500184	 1.5257577857	 0.0962570077	-0.191366
O	 1.2232548381	 1.9332857746	-0.4515372065	-0.280399
C	 2.1289643536	 0.8344022613	-0.6260151729	-0.175634
C	 1.2729448201	-0.3726618939	-0.4017842043	 0.336601
N	 1.4126623787	-1.6652098383	-0.4914189662	-0.236756
O	 0.1596696327	-2.1641263014	-0.1055073272	-0.170335
C	-0.6658940842	-1.1364886244	 0.1964668847	-0.082664
C	-0.011696126	 0.0345649802	 0.0255803136	 0.127726
H	-0.1442731851	 1.8974196686	 1.1263806194	 0.120775
H	-0.8396412556	 1.9827857248	-0.5049005602	 0.128383
H	 2.5568820206	 0.883884049	-1.6334046007	 0.137582
H	 2.9523043882	 0.8936389486	 0.0998537637	 0.128476
H	-1.659808221	-1.4200994347	 0.5046644989	 0.157612
68.0451	239.2683	257.7256	448.7519	593.0041	611.558	663.8374	712.5614	828.8835	842.9887	883.2037	899.4372	969.6798	1017.7469	1057.0204	1069.2765	1114.1628	1157.0524	1182.5163	1215.2861	1282.8506	1335.4227	1368.5616	1434.8084	1509.5905	1522.2903	1560.4707	1679.7476	2996.6963	3006.2826	3047.6243	3060.6996	3268.7426
C1OCC2=NOC=C12	C1OCc2nocc12	
InChI=1S/C5H5NO2/c1-4-2-8-6-5(4)3-7-1/h2H,1,3H2	InChI=1S/C5H5NO2/c1-4-2-8-6-5(4)3-7-1/h2H,1,3H2
