19
gdb 85658	1.98916	1.58089	1.13103	1.8828	83.02	-0.2472	0.0084	0.2556	1168.5061	0.158004	-385.872731	-385.863464	-385.86252	-385.906797	35.032	
C	-0.3482909162	 1.495175877	 0.0317114198	-0.49522
C	-0.1702570964	 0.0125307278	-0.0171694725	 0.330738
C	-0.0916205007	-0.778055732	-1.089367717	-0.212108
C	 0.1967237398	-2.2182206266	-0.7358137355	 0.103772
O	 1.5429518394	-2.5820753464	-1.038877358	-0.434017
C	-0.1416384891	-2.2679484355	 0.7730631616	-0.258528
C	 0.0014443281	-0.8001282794	 1.2724132754	-0.261089
C	 1.293763616	-0.5161834777	 1.8965129401	 0.340377
C	 2.3716592287	-0.282002714	 2.3774735467	-0.494149
H	 0.4846619802	 1.9662823633	 0.5670986389	 0.141897
H	-0.4056847622	 1.9276533416	-0.9702518467	 0.127344
H	-1.2630327745	 1.7654350663	 0.5747003253	 0.127284
H	-0.1394146493	-0.4345819087	-2.1172673566	 0.09471
H	-0.4086652631	-2.9311713771	-1.3040431148	 0.084604
H	 2.1143655226	-1.9240474368	-0.625517822	 0.279138
H	-1.1811005012	-2.5823923241	 0.9059524059	 0.105022
H	 0.5009050987	-2.9703457849	 1.3062013249	 0.117718
H	-0.7894067482	-0.5574084257	 1.9938880717	 0.103284
H	 3.3166756374	-0.0786881471	 2.817173423	 0.199223
52.4675	134.2026	139.8792	187.8987	219.6226	299.5526	348.4469	393.9238	409.1379	459.2871	492.9021	592.3613	622.8327	627.8386	633.8381	766.0871	786.5496	857.9119	884.1188	915.8189	971.9627	986.5289	1033.5059	1056.198	1065.3993	1079.2874	1156.7213	1199.3214	1237.9946	1272.1732	1285.8112	1310.1553	1329.9118	1343.3885	1411.0877	1435.8728	1476.9744	1477.7572	1487.4869	1717.9357	2225.2406	3018.4337	3022.4189	3056.6486	3070.8122	3072.5484	3117.5729	3128.1295	3191.2182	3502.8278	3789.6653
CC1=CC(O)CC1C#C	CC1=C[C@@H](O)C[C@H]1C#C	
InChI=1S/C8H10O/c1-3-7-5-8(9)4-6(7)2/h1,4,7-9H,5H2,2H3	InChI=1S/C8H10O/c1-3-7-5-8(9)4-6(7)2/h1,4,7-9H,5H2,2H3/t7-,8-/m1/s1
