19
gdb 53258	3.6612	0.80538	0.75015	3.0582	89.14	-0.2367	-0.0294	0.2073	1586.1874	0.155694	-385.876062	-385.865567	-385.864623	-385.913219	36.226	
C	 0.2059992634	 1.3970099173	-0.0774687095	-0.500579
C	 0.073417179	-0.0500138486	 0.0075238045	 0.128876
C	-0.0258945989	-1.2493655872	 0.0806550064	 0.046283
C	-0.1281616541	-2.6753651694	 0.1518130452	-0.232685
C	-0.6826156412	-3.3672048086	 1.364906709	-0.312573
C	-1.523030736	-3.364012175	 0.1053476496	 0.225736
C	-2.7825032716	-2.5313270047	 0.0220873968	-0.483991
C	-1.5165281179	-4.6344277536	-0.6720715068	 0.094198
O	-0.6250526087	-5.4508679726	-0.6483048537	-0.272636
H	 1.2440977016	 1.6856132068	-0.2762604836	 0.152503
H	-0.4113789547	 1.8099526328	-0.8831283838	 0.148876
H	-0.0983392797	 1.882024188	 0.8566414109	 0.148717
H	 0.6344733351	-3.2350035186	-0.3821934721	 0.130766
H	-0.2291444271	-4.3133762064	 1.6378024725	 0.139945
H	-1.0276823733	-2.7458297318	 2.1831775536	 0.124871
H	-2.6382814666	-1.5577730564	 0.4946706213	 0.137211
H	-3.0690609462	-2.351940293	-1.0201752307	 0.125638
H	-3.6194604504	-3.0332075967	 0.5198799781	 0.123197
H	-2.4146002327	-4.7893822823	-1.3115270576	 0.07565
19.4224	75.4637	87.0728	124.3691	146.2789	220.2529	249.5233	253.679	331.2768	349.5082	373.3448	493.3402	516.9005	623.6054	715.1276	726.7302	802.0209	928.3875	942.117	975.1214	1027.2511	1049.4292	1053.3547	1056.8393	1084.4601	1112.6924	1131.8182	1206.2067	1270.0051	1304.8187	1394.6319	1415.0549	1419.8149	1430.8799	1464.8393	1476.6621	1478.521	1491.2871	1497.2115	1801.453	2363.8161	2877.7124	3025.5379	3032.84	3085.1714	3087.776	3091.0788	3129.3906	3138.7942	3151.3923	3237.5492
CC#CC1CC1(C)C=O	CC#C[C@H]1C[C@]1(C)C=O	
InChI=1S/C8H10O/c1-3-4-7-5-8(7,2)6-9/h6-7H,5H2,1-2H3	InChI=1S/C8H10O/c1-3-4-7-5-8(7,2)6-9/h6-7H,5H2,1-2H3/t7-,8+/m0/s1
