15
gdb 77651	2.22586	1.47722	1.30828	1.4228	69.9	-0.2298	0.0048	0.2346	1045.8173	0.109328	-457.666306	-457.657565	-457.656621	-457.699418	32.709	
O	-0.004584381	 1.3736258144	 0.066083717	-0.429535
C	-0.0722957644	-0.0127034045	 0.0545339533	-0.011738
C	-1.3618141055	-0.7959282944	 0.0617215009	 0.209763
O	-1.6788642252	-1.8149532248	 0.923487107	-0.440236
C	-2.3796121847	-0.0906309837	-0.8189730851	-0.151824
O	-1.4119972358	 0.0371600018	-1.9038409835	-0.336918
C	-0.4495210234	-0.7734036848	-1.1980379621	 0.175843
C	 0.3265037535	-1.7295005498	-1.8937897173	 0.210792
C	 0.9933700585	-2.5510810158	-2.467354582	-0.392277
H	-0.3525515253	 1.6657758457	-0.7884536021	 0.302843
H	 0.7239894529	-0.4776666267	 0.6312078657	 0.122363
H	-1.3889039448	-1.5756870598	 1.8102935192	 0.300169
H	-3.2056538724	-0.7423870864	-1.1191024964	 0.130816
H	-2.7560356921	 0.8810875816	-0.4821536223	 0.11531
H	 1.5784361297	-3.2754539829	-2.9779047722	 0.194628
100.2148	144.6071	165.8272	215.1199	250.6922	291.2154	350.4383	401.4201	444.0651	517.2331	531.0896	560.4301	599.7997	664.466	689.5495	734.3852	792.9363	838.0918	962.2174	1001.6207	1041.4413	1079.2105	1112.2138	1147.3865	1186.7236	1261.0212	1270.281	1317.4306	1355.6211	1396.9481	1475.7917	1513.9066	2229.8865	3041.3622	3100.5866	3153.5118	3501.0826	3743.3857	3806.3141
OC1C2(O)COC12C#C	O[C@H]1[C@@]2(O)CO[C@@]12C#C	
InChI=1S/C6H6O3/c1-2-6-4(7)5(6,8)3-9-6/h1,4,7-8H,3H2	InChI=1S/C6H6O3/c1-2-6-4(7)5(6,8)3-9-6/h1,4,7-8H,3H2/t4-,5-,6-/m0/s1
