21
gdb 76655	2.72213	1.08971	0.94264	3.6725	79.64	-0.2329	0.054	0.287	1350.5515	0.181641	-420.43911	-420.428537	-420.427593	-420.474943	38.278	
C	 0.080052635	 1.3690891137	 0.387707224	-0.409854
C	 0.1694812161	-0.0941875273	 0.0186659636	 0.001381
C	 0.6882249599	-0.5871247875	-1.3160426448	-0.061507
C	 1.1636724393	 0.3440430701	-2.411487557	-0.418287
C	 1.4940261631	-0.8252166986	-0.053641299	 0.01375
N	 2.7185388982	-0.1060231561	 0.1189573038	-0.340992
C	 3.1657247835	 0.260152671	 1.3688113289	 0.452417
N	 4.4493757998	 0.8016012587	 1.3773332543	-0.567792
O	 2.4849239782	 0.1792501933	 2.3734591407	-0.390561
H	 0.9205623303	 1.9460637084	-0.003462174	 0.119215
H	-0.8431143946	 1.8136619094	-0.0001347839	 0.105227
H	 0.0899348137	 1.4804820895	 1.4752161403	 0.142646
H	-0.6308824495	-0.6948952348	 0.4428300264	 0.084773
H	 0.1978269302	-1.4786830799	-1.6987834056	 0.084439
H	 1.6939814215	 1.213843365	-2.017633865	 0.123702
H	 1.8388981685	-0.1743641605	-3.103059	 0.110382
H	 0.3170231383	 0.7133095798	-3.0000646145	 0.12344
H	 1.5065954609	-1.8394743014	 0.3409154536	 0.091399
H	 3.365129916	-0.0863865859	-0.6532091927	 0.235737
H	 5.1149547977	 0.4706902525	 0.695120142	 0.241109
H	 4.8243836639	 0.8720530706	 2.310964099	 0.259376
61.8893	78.0789	108.1638	152.5351	162.967	212.8609	223.7365	274.7891	289.3084	417.364	436.7728	454.6536	534.8633	535.1561	587.379	692.0238	756.6812	771.0017	790.9675	883.366	945.6264	961.5168	997.9176	1050.8281	1069.2221	1086.7207	1116.693	1141.8781	1158.7799	1186.77	1204.06	1290.2671	1317.6511	1375.5564	1387.1885	1414.4783	1422.3766	1450.6976	1487.1221	1492.5058	1504.4884	1513.154	1525.3955	1628.5851	1801.9506	3028.2013	3040.3781	3083.4146	3106.409	3107.6839	3115.6983	3126.3789	3133.9975	3147.6436	3573.9743	3622.0645	3689.1389
CC1C(C)C1NC(N)=O	C[C@H]1[C@@H](C)[C@H]1NC(=O)N	
InChI=1S/C6H12N2O/c1-3-4(2)5(3)8-6(7)9/h3-5H,1-2H3,(H3,7,8,9)	InChI=1S/C6H12N2O/c1-3-4(2)5(3)8-6(7)9/h3-5H,1-2H3,(H3,7,8,9)/t3-,4+,5-
