19
gdb 96114	2.3188	1.77277	1.20455	1.7881	70.91	-0.2488	0.0603	0.3091	1066.7308	0.15884	-460.146535	-460.137947	-460.137003	-460.179323	32.89	
C	-0.1326460976	 1.5026739756	 0.0003898321	-0.477444
C	 0.0494002724	 0.0048289774	-0.0028923617	 0.403651
O	-0.7435760677	-0.7185006252	 0.9525116175	-0.288475
C	 0.6794302939	-0.7026249014	 1.1266240172	-0.039933
C	 1.3921919604	-2.0281669271	 0.9280601737	-0.103723
O	 1.5495123503	-2.4032402777	-0.4298340467	-0.250595
C	 0.3863635629	-2.1697801677	-1.2028205434	-0.130384
C	 0.1487365409	-0.6631250846	-1.3634321406	 0.045253
O	-1.0543716542	-0.3903111646	-2.0683404592	-0.433998
H	 0.7165957905	 1.9972397834	-0.4834266048	 0.118424
H	-1.0383987574	 1.7686263867	-0.5504694976	 0.147784
H	-0.2190590584	 1.8746560741	 1.0240528073	 0.124074
H	 1.0135437822	-0.1159987906	 1.9837215102	 0.091727
H	 2.4029553628	-1.9700118855	 1.3444662962	 0.112665
H	 0.8394101233	-2.8046460756	 1.4819494201	 0.10667
H	 0.5647329928	-2.6319589303	-2.1793804977	 0.095167
H	-0.5056592247	-2.6258155258	-0.7517940305	 0.116487
H	 1.0178652342	-0.2263829287	-1.8819526819	 0.074034
H	-0.9456620965	-0.6904882624	-2.97611339	 0.28862
103.773	180.0838	225.8072	237.6918	248.8466	262.9011	322.6807	364.2336	419.4308	477.6297	511.0357	572.616	689.2292	730.4278	794.4419	893.067	900.1597	967.0824	1007.7573	1021.747	1056.777	1083.0345	1104.1522	1112.4966	1129.2277	1167.1217	1230.307	1255.305	1260.5774	1312.278	1327.6069	1339.8572	1381.9733	1405.1751	1416.0562	1442.8657	1466.4008	1482.6034	1485.8067	1496.4853	1505.4504	2972.6208	2975.7886	3016.3953	3042.3191	3074.9124	3079.9813	3101.0191	3112.6548	3132.7059	3822.0904
CC12OC1COCC2O	C[C@]12O[C@H]1COC[C@H]2O	
InChI=1S/C6H10O3/c1-6-4(7)2-8-3-5(6)9-6/h4-5,7H,2-3H2,1H3	InChI=1S/C6H10O3/c1-6-4(7)2-8-3-5(6)9-6/h4-5,7H,2-3H2,1H3/t4-,5+,6-/m1/s1
