20
gdb 97256	3.33118	1.16185	0.92558	1.6219	78.88	-0.2436	0.0206	0.2641	1293.1346	0.171335	-440.279757	-440.270697	-440.269752	-440.314152	33.016	
C	-0.2235396728	 1.4768229278	 0.0280693959	-0.322454
N	-0.1496936001	 0.026077145	 0.0422943766	-0.272969
C	 0.6238545913	-0.5602102851	 0.8542176738	 0.375451
C	 0.6687557126	-2.0724981123	 0.8788555097	-0.303662
C	 2.0625775851	-2.7062569307	 0.7873539071	-0.079703
O	 2.7711436415	-2.7841948786	 2.013888769	-0.254184
C	 2.6317555392	-1.6896175298	 2.8975628491	-0.076719
C	 2.6248003158	-0.3123947277	 2.2426894501	-0.098416
O	 1.3497218126	 0.1418803906	 1.7817181451	-0.259934
H	 0.6662839585	 1.9743081902	 0.429857428	 0.114299
H	-0.3930862154	 1.8097850376	-1.0005807858	 0.118341
H	-1.0880601288	 1.8072528069	 0.618038737	 0.125093
H	 0.1699456242	-2.4447508913	 1.7827738653	 0.12607
H	 0.0722398307	-2.3976017533	 0.0248381533	 0.135167
H	 1.963643899	-3.7416463941	 0.4480409791	 0.116694
H	 2.6604029447	-2.1756576024	 0.0294544708	 0.097433
H	 1.7243805978	-1.7829190808	 3.5151276346	 0.102555
H	 3.4929238535	-1.748227989	 3.5721934604	 0.115286
H	 2.914358808	 0.4318269952	 2.989728121	 0.122613
H	 3.3604462625	-0.2743261283	 1.4283920798	 0.119039
54.6462	87.1008	128.7848	190.6088	237.3543	285.1042	312.5812	343.7083	389.8978	503.5487	526.3452	594.246	691.2895	740.7041	833.1526	881.7785	935.8295	1000.5132	1011.1176	1052.6744	1072.7262	1093.3711	1100.5609	1126.3938	1151.0891	1185.9188	1218.3904	1243.6753	1267.7355	1300.3214	1334.9589	1358.3498	1396.8337	1412.1257	1425.6031	1435.747	1461.0613	1489.2571	1491.7047	1496.8584	1499.1704	1518.5693	1756.0509	2976.7087	2985.4597	3014.892	3024.9465	3037.0841	3068.0263	3071.2428	3077.9272	3094.399	3096.1133	3123.1714
CN=C1CCOCCO1	CN=C1CCOCCO1	
InChI=1S/C6H11NO2/c1-7-6-2-3-8-4-5-9-6/h2-5H2,1H3	InChI=1S/C6H11NO2/c1-7-6-2-3-8-4-5-9-6/h2-5H2,1H3
