18
gdb 98238	2.6812	1.14035	0.91072	5.524	70.11	-0.2349	0.0023	0.2372	1308.2798	0.147616	-472.46122	-472.450966	-472.450022	-472.497058	36.254	
C	-0.2184193029	 1.3863588905	 0.0496008206	-0.332897
N	-0.1050078929	-0.0607812162	-0.0641079116	-0.316018
C	 0.6838247292	-0.6331616343	-1.0296923636	 0.389967
O	 1.424562047	 0.0111566265	-1.7464696146	-0.36649
C	 0.626486849	-2.1649985837	-1.0940922286	-0.158148
N	 0.7916175723	-2.5999708918	-2.4649816097	-0.524376
C	 1.6897858782	-2.8048262808	-0.1463164361	 0.385292
N	 1.7343839196	-2.3096330591	 1.1205027608	-0.518501
O	 2.3678946081	-3.7387115882	-0.5228707621	-0.355754
H	 0.7398005388	 1.8253035325	-0.2286509206	 0.170318
H	-0.9877816072	 1.792606488	-0.6178259832	 0.137974
H	-0.4615190671	 1.6588106039	 1.0794308349	 0.127869
H	-0.8685088696	-0.6159921202	 0.2910744979	 0.253484
H	-0.3470351193	-2.50134914	-0.7023334469	 0.095915
H	 1.3888677475	-1.9154654474	-2.9247332213	 0.244173
H	 1.3202750137	-3.4703595997	-2.4389202233	 0.244004
H	 1.3129789739	-1.4208840264	 1.3373683555	 0.259307
H	 2.4533355318	-2.6636137636	 1.7316061319	 0.263881
66.1325	72.9987	74.4914	123.7461	219.8126	226.0425	294.3383	321.279	342.715	373.9815	388.1422	477.7144	507.9313	548.4582	631.9202	676.0908	712.6831	770.0846	880.6731	907.5085	989.5374	1046.8887	1113.1601	1148.6048	1166.474	1185.3894	1209.3678	1254.677	1286.1735	1339.9664	1405.5805	1443.2243	1485.	1501.6883	1544.0161	1617.8822	1661.2693	1788.2231	1808.3726	2971.4598	3033.2658	3103.7583	3159.7264	3468.2485	3539.5923	3578.9523	3619.6067	3709.2727
CNC(=O)C(N)C(N)=O	CNC(=O)[C@@H](N)C(=O)N	
InChI=1S/C4H9N3O2/c1-7-4(9)2(5)3(6)8/h2H,5H2,1H3,(H2,6,8)(H,7,9)	InChI=1S/C4H9N3O2/c1-7-4(9)2(5)3(6)8/h2H,5H2,1H3,(H2,6,8)(H,7,9)/t2-/m0/s1
