18
gdb 83556	3.00597	1.36565	1.16264	3.3548	76.26	-0.2602	0.0265	0.2867	1097.8543	0.149205	-401.942983	-401.935267	-401.934323	-401.975073	29.999	
C	-0.0395948257	 1.6963536853	 0.0376440639	-0.444295
C	 0.0166376155	 0.1799354813	-0.0063585245	 0.010398
C	 0.8286607353	-0.5884740315	-1.1104884484	-0.088494
C	 2.2317728596	-0.0183436761	-0.8921834396	-0.10548
O	 2.2929546297	-0.0394419015	 0.5565943053	-0.272773
C	 1.0174571956	-0.5839799381	 0.9003847476	 0.089752
C	 0.8989952056	-1.7919206335	-0.0945555752	-0.165053
C	-0.2934607161	-2.6074185575	 0.0074082893	 0.271442
N	-1.2367502769	-3.2715408011	 0.0946047043	-0.338855
H	 0.9553705089	 2.13732251	 0.1352431824	 0.137067
H	-0.5115522763	 2.0994634847	-0.8647150725	 0.122716
H	-0.6331423102	 2.0291759848	 0.8952421211	 0.126609
H	-0.9824283254	-0.2535499719	 0.0761570835	 0.111009
H	 0.4716325436	-0.7170435301	-2.1306341059	 0.094307
H	 3.0301079564	-0.6427074164	-1.3074321776	 0.112572
H	 2.3496394429	 1.0045408733	-1.2632013297	 0.114305
H	 0.9292332485	-0.6897805764	 1.9797090048	 0.100913
H	 1.7872872991	-2.4257221751	-0.1507274588	 0.123862
137.4443	154.5028	179.6594	255.4826	290.6466	389.9433	406.9875	483.1009	536.4993	615.2394	686.6025	748.5982	806.8092	876.7293	907.0725	927.3784	944.5831	966.2837	1007.5495	1039.0597	1062.0345	1064.5097	1080.4671	1108.1416	1158.5732	1170.574	1200.3283	1213.0682	1244.7498	1272.8678	1280.1014	1340.9982	1372.4592	1402.9584	1417.5747	1490.9202	1502.9138	1533.9025	2349.9562	3038.9934	3041.7978	3083.3624	3089.0699	3092.2496	3100.7056	3125.8896	3142.0749	3151.9377
CC1C2COC1C2C#N	C[C@H]1[C@H]2CO[C@@H]1[C@H]2C#N	
InChI=1S/C7H9NO/c1-4-6-3-9-7(4)5(6)2-8/h4-7H,3H2,1H3	InChI=1S/C7H9NO/c1-4-6-3-9-7(4)5(6)2-8/h4-7H,3H2,1H3/t4-,5-,6+,7-/m0/s1
