18
gdb 14051	4.48139	1.60864	1.51021	2.348	66.97	-0.2436	0.0752	0.3187	903.1259	0.155049	-384.925807	-384.918486	-384.917542	-384.958245	27.086	
C	 0.0061728514	 1.3032297724	-0.337419832	-0.068199
C	 1.4446625478	 1.5273332852	 0.1636296139	-0.359864
C	 1.3097967401	 0.1169915299	 0.7773179965	 0.409924
C	 2.1524768854	-1.0345353036	 0.2176711193	-0.270162
C	 1.9780652301	-2.0937771214	 1.3057395155	-0.080097
O	 2.0239343323	-1.3594368913	 2.5260976074	-0.258857
C	 1.4499811211	-0.076171601	 2.2993765136	-0.115197
O	-0.0792896733	 0.0356227229	 0.34320856	-0.320149
H	-0.7492753983	 2.0116236342	 0.0215503241	 0.105348
H	-0.0995906475	 1.1937717693	-1.4240712772	 0.101782
H	 2.2140677288	 1.6340308373	-0.6032620335	 0.111735
H	 1.5548872351	 2.3303767383	 0.8954774111	 0.11273
H	 1.8087486659	-1.3432221996	-0.7716408179	 0.10926
H	 3.2033465457	-0.7293307078	 0.1555358397	 0.105283
H	 1.0118594768	-2.6098993388	 1.1915338552	 0.102568
H	 2.7724862215	-2.8441287395	 1.3355279139	 0.106661
H	 2.1058709327	 0.678697522	 2.7500865556	 0.099292
H	 0.4554958443	 0.0002993616	 2.758889155	 0.107942
49.0804	78.565	199.1056	260.3288	385.419	422.9393	454.8985	636.2308	756.7641	776.8113	861.6506	869.7006	881.8329	928.3155	951.843	977.6846	987.2425	1017.4962	1027.2665	1090.018	1147.974	1160.2743	1176.5071	1192.6601	1215.2199	1236.6175	1251.0672	1257.2615	1281.9099	1312.6145	1351.3917	1366.5861	1401.6229	1465.8593	1490.0294	1502.9368	1522.046	1532.1439	2984.2099	3010.98	3016.6706	3045.1708	3053.5726	3057.8362	3073.073	3092.2874	3119.8409	3127.2456
C1CC2(CCOC2)O1	C1C[C@]2(CCOC2)O1	
InChI=1S/C6H10O2/c1-3-7-5-6(1)2-4-8-6/h1-5H2	InChI=1S/C6H10O2/c1-3-7-5-6(1)2-4-8-6/h1-5H2/t6-/m0/s1
