12
gdb 5461	3.68526	1.96635	1.28346	3.2303	65.39	-0.2131	-0.0199	0.1932	857.4322	0.08694	-373.76022	-373.753419	-373.752475	-373.791141	25.19	
N	 0.0555712131	 1.3847445691	 0.1595133634	-0.595576
C	-0.0063036164	 0.018000674	 0.0548309503	 0.250366
C	-1.1345846905	-0.7986536012	 0.0234542147	 0.154048
N	-0.6217980549	-2.0988427217	-0.0179184896	-0.32394
C	 0.7208338499	-1.9940428888	-0.0135161832	 0.028933
N	 1.1299123432	-0.7394601984	 0.0282666271	-0.29869
C	-2.5002461985	-0.4891194735	 0.0222684616	 0.18479
N	-3.6280386034	-0.2089851446	 0.0166363794	-0.360286
H	 0.936655316	 1.7768551259	-0.1369809552	 0.264133
H	-0.7507762219	 1.8958593246	-0.1657328146	 0.266205
H	-1.169500061	-2.9424499112	-0.0482544142	 0.282395
H	 1.3677310544	-2.8580054942	-0.0430451998	 0.147621
135.2825	153.2292	298.8553	334.1816	384.5473	464.4879	520.701	538.6075	563.1981	604.2525	657.5514	748.8344	765.0489	842.3214	954.7452	1048.4147	1137.1544	1201.3366	1280.2533	1326.7611	1408.4839	1495.7929	1526.9006	1604.2263	1657.0608	2315.1525	3257.4022	3579.0053	3670.0596	3688.1958
NC1=C(NC=N1)C#N	Nc1c([nH]cn1)C#N	
InChI=1S/C4H4N4/c5-1-3-4(6)8-2-7-3/h2H,6H2,(H,7,8)	InChI=1S/C4H4N4/c5-1-3-4(6)8-2-7-3/h2H,6H2,(H,7,8)
