19
gdb 116940	4.66812	0.45123	0.42538	1.0775	90.67	-0.2429	0.0357	0.2786	2590.4242	0.155232	-385.819988	-385.808515	-385.80757	-385.8609	37.256	
C	 0.6002211358	 1.3380481447	 0.1529850093	-0.217886
O	 0.5908259537	-0.0689952366	 0.0985340345	-0.227505
C	 0.108729498	-0.5477423742	-1.142797208	-0.20124
C	 0.1185995792	-2.0039081181	-1.1600947722	 0.002324
C	 0.1198959808	-3.205535274	-1.2011012858	 0.164759
C	 0.1185149963	-4.6697752822	-1.233960637	-0.501309
C	 1.0822447044	-5.2430388851	-2.1765199673	 0.086008
C	 1.8705838247	-5.7193993634	-2.9498545252	 0.063934
C	 2.8276502526	-6.2918839629	-3.8855932655	-0.495884
H	 1.2509862864	 1.7746674507	-0.6217905809	 0.104216
H	-0.4099028582	 1.76073008	 0.0283785543	 0.103686
H	 0.9827065008	 1.6209535837	 1.1361404216	 0.130617
H	-0.9158980728	-0.1771839004	-1.3237576557	 0.112248
H	 0.7303149924	-0.1618900743	-1.9701346126	 0.114841
H	 0.3239489255	-5.0470252695	-0.2221657421	 0.160442
H	-0.892020121	-5.0268222769	-1.4779269871	 0.155462
H	 3.5358184011	-6.9545797613	-3.3760980252	 0.147924
H	 2.3246554794	-6.8782436331	-4.6624245069	 0.147185
H	 3.4081896108	-5.508746957	-4.3854810384	 0.150175
12.7561	15.4074	51.6283	85.7043	99.7829	191.1496	197.6253	230.714	263.831	306.5085	364.4538	375.404	390.6796	473.8061	554.9322	767.2193	818.3646	929.1241	977.9789	1028.6991	1053.1184	1054.6357	1129.2749	1154.1645	1182.5592	1183.5837	1220.3789	1230.9534	1255.0196	1338.7865	1411.1823	1415.3772	1451.9666	1477.8252	1478.4189	1478.9865	1484.2946	1495.8252	1516.6621	2378.5889	2384.8478	2941.4432	2958.5011	2966.6174	3003.0202	3008.4035	3025.7927	3027.1362	3087.6537	3088.6433	3119.4564
COCC#CCC#CC	COCC#CCC#CC	
InChI=1S/C8H10O/c1-3-4-5-6-7-8-9-2/h5,8H2,1-2H3	InChI=1S/C8H10O/c1-3-4-5-6-7-8-9-2/h5,8H2,1-2H3
