22
gdb 118866	3.55872	0.92907	0.86543	0.6225	82.1	-0.2265	0.0799	0.3064	1423.054	0.193676	-404.297021	-404.287545	-404.286601	-404.33117	36.225	
C	 0.0480985758	 1.6095873719	 0.1347997979	-0.458838
C	 0.0162759805	 0.0868968083	 0.0231150918	 0.340228
C	-1.3909844208	-0.4715920953	-0.2192381027	-0.233342
C	-2.0711136154	 0.0245308439	-1.490641791	-0.088221
O	-3.2829972784	-0.7042225886	-1.6359030082	-0.419938
C	 1.0920368245	-0.5673471118	-0.9409619826	-0.279721
C	 1.6743602453	-1.3076295215	 0.2643689281	-0.035277
N	 2.1161823182	-0.2611424089	 1.220272262	-0.34411
C	 0.6943216021	-0.676796972	 1.1848292667	-0.092495
H	 1.0409924529	 1.9391000591	 0.4491647931	 0.137841
H	-0.1822374605	 2.0888086613	-0.8227686491	 0.108977
H	-0.6840481333	 1.9657544507	 0.8696441463	 0.104773
H	-1.347949224	-1.5669646	-0.2678842924	 0.101747
H	-2.0344009226	-0.2246222161	 0.6355119417	 0.098247
H	-2.2679662645	 1.1046647831	-1.4213037314	 0.089524
H	-1.4093132926	-0.1305939144	-2.3585183171	 0.086295
H	-3.7477326957	-0.3621915509	-2.4050327942	 0.284314
H	 0.6385989042	-1.2304936375	-1.681219395	 0.100818
H	 1.7817828831	 0.1201163669	-1.4374644533	 0.101114
H	 2.1163816	-2.2961781808	 0.2879614501	 0.089175
H	 2.5449801032	-0.7396805521	 2.012187361	 0.226075
H	 0.208329578	-1.0704357155	 2.0709578483	 0.082813
80.4244	113.8395	140.5975	207.0619	245.8743	268.9698	288.5257	332.1065	343.8739	398.6163	438.3836	564.8115	664.4148	774.7598	800.7009	815.6109	840.9701	852.9027	926.3927	953.723	963.4478	981.8661	1012.1566	1019.253	1041.5711	1070.3746	1087.2488	1111.1882	1149.1934	1153.479	1196.3145	1224.183	1249.3535	1254.9097	1272.4054	1302.9185	1323.0302	1330.0829	1356.1002	1381.0754	1407.1647	1461.5629	1471.0885	1489.1878	1492.178	1510.9382	1529.1959	2966.658	3001.2539	3019.2138	3026.5879	3058.4757	3061.8421	3086.8821	3116.555	3124.0748	3168.8353	3189.471	3471.033	3828.9709
CC1(CCO)CC2NC12	C[C@@]1(CCO)C[C@H]2N[C@@H]12	
InChI=1S/C7H13NO/c1-7(2-3-9)4-5-6(7)8-5/h5-6,8-9H,2-4H2,1H3	InChI=1S/C7H13NO/c1-7(2-3-9)4-5-6(7)8-5/h5-6,8-9H,2-4H2,1H3/t5-,6-,7-/m1/s1
