19
gdb 105593	1.87238	1.60669	1.20751	2.1641	76.98	-0.2451	-0.0505	0.1946	1148.7966	0.156573	-423.049282	-423.039671	-423.038727	-423.084544	34.295	
C	-0.4729162628	 1.603557322	-0.0188324192	-0.401994
C	-0.0816136645	 0.1211389635	 0.0596495731	-0.254939
C	 0.7198773799	-0.4205666752	-1.1401461025	 0.094145
C	 0.8877869399	-1.9639371854	-1.2761977975	-0.284169
C	 0.3607129853	-1.9231473314	-2.7415340081	-0.327592
C	-0.0723891161	-0.4804180062	-2.4943270346	 0.360125
O	-0.8206806077	 0.2828404495	-3.0296534857	-0.289177
C	 2.0246134711	 0.3168211299	-1.3758737558	 0.115205
O	 3.0680286861	-0.2162452355	-1.6630575344	-0.251458
H	 0.3915965891	 2.2683605999	 0.0644701911	 0.120681
H	-0.9827820095	 1.8223510054	-0.9602458964	 0.154055
H	-1.1506338602	 1.8524178171	 0.8032376933	 0.11948
H	 0.4898808829	-0.0732193159	 0.976232878	 0.111142
H	-0.9939525904	-0.4817169058	 0.1390485696	 0.109095
H	 1.9131416306	-2.3113816582	-1.1585604148	 0.133808
H	 0.224566012	-2.508225226	-0.6015375303	 0.110166
H	 1.1669260327	-1.9705136494	-3.4810394404	 0.150886
H	-0.4316403396	-2.613721248	-3.0387702457	 0.133074
H	 1.954356961	 1.4205500697	-1.2985810395	 0.09747
46.8311	75.9138	92.2456	160.1536	215.4642	248.4372	264.0424	299.6487	374.9778	466.6891	488.9886	610.5629	650.0051	735.1234	747.8122	787.0065	851.047	900.7884	939.976	1001.0163	1008.6456	1046.9917	1057.5452	1094.9023	1138.5805	1174.7969	1200.1046	1213.9372	1244.3336	1271.2155	1308.0079	1365.3591	1408.0517	1422.2043	1434.4077	1477.064	1491.0116	1504.0462	1512.7835	1796.9989	1880.9915	2928.4062	3021.9707	3047.0894	3056.478	3059.7099	3086.6706	3109.9942	3119.9506	3131.8897	3156.6437
CCC1(CCC1=O)C=O	CC[C@]1(CCC1=O)C=O	
InChI=1S/C7H10O2/c1-2-7(5-8)4-3-6(7)9/h5H,2-4H2,1H3	InChI=1S/C7H10O2/c1-2-7(5-8)4-3-6(7)9/h5H,2-4H2,1H3/t7-/m0/s1
