17
gdb 50894	4.35509	0.62025	0.57317	2.1104	76.94	-0.2529	-0.0435	0.2094	1862.2135	0.131205	-421.820195	-421.810041	-421.809097	-421.857579	34.642	
O	 0.9081571905	-0.2752873441	-0.2762221419	-0.228848
C	 0.4341716915	 0.8161613383	-0.4415293381	 0.163317
C	 1.0863194754	 2.1051353589	 0.0438040135	-0.37698
C	 1.0338937578	 3.1811715848	-1.0417205501	 0.363893
O	-0.0180691787	 3.4786658414	-1.5602828458	-0.302996
C	 2.3532379856	 3.8174418182	-1.4334687148	-0.303156
C	 2.2029907132	 4.8822289686	-2.5311256758	-0.357919
C	 3.4788156948	 5.4867375216	-2.8909535576	 0.282268
C	 4.5440764521	 5.9690401512	-3.1684303285	-0.423987
H	-0.5287918895	 0.9731684501	-0.9694180833	 0.111102
H	 0.4773488149	 2.473624729	 0.8806057913	 0.160573
H	 2.0945314884	 1.8948172152	 0.4053956629	 0.131093
H	 2.8135396802	 4.245471321	-0.5331959516	 0.142262
H	 3.0385377345	 3.0202179113	-1.7513140418	 0.145941
H	 1.7362945144	 4.4276260609	-3.4119780272	 0.148901
H	 1.5005740978	 5.65193652	-2.1923815066	 0.147626
H	 5.476712977	 6.4055923537	-3.4271930145	 0.196909
22.2506	57.4983	87.278	102.4584	119.0617	204.4488	260.2968	338.9706	343.2671	461.3927	502.5476	521.3079	624.9927	637.2667	647.9845	758.7261	790.8875	878.4452	940.4983	968.0276	1011.5914	1060.1085	1066.7222	1097.7751	1162.8009	1206.8078	1267.69	1302.2683	1311.2841	1384.6697	1407.9622	1442.0562	1446.3016	1469.3634	1794.1382	1841.3766	2241.7028	2931.8304	3027.7636	3033.4686	3047.2512	3055.2478	3081.9002	3125.8562	3506.6616
O=CCC(=O)CCC#C	O=CCC(=O)CCC#C	
InChI=1S/C7H8O2/c1-2-3-4-7(9)5-6-8/h1,6H,3-5H2	InChI=1S/C7H8O2/c1-2-3-4-7(9)5-6-8/h1,6H,3-5H2
