19
gdb 126811	1.86849	1.73798	1.02443	1.359	78.63	-0.2384	0.0106	0.249	1204.6091	0.16067	-419.228886	-419.219884	-419.21894	-419.263221	32.798	
C	 0.1705853221	 1.2410306699	 0.028435525	-0.377965
C	-0.1221884726	-0.2223523982	-0.306928482	-0.156127
N	-1.5356469814	-0.553876259	-0.1782056665	-0.007294
N	-2.0364573516	-0.8408959124	 1.0392831843	-0.265222
C	-3.335023864	-1.0511619097	 0.837438157	-0.001854
C	-3.6780666538	-0.9037081176	-0.5189827228	-0.318459
C	-2.4910415568	-0.5754858739	-1.1513492911	 0.327091
C	-2.2095428303	-0.3040585023	-2.5957631663	-0.189624
O	-1.2621124433	-1.2027735459	-3.1717408767	-0.405833
H	 1.2450409165	 1.4349692171	-0.0452676513	 0.120502
H	-0.3457498426	 1.9179416158	-0.6592178648	 0.12183
H	-0.1557426356	 1.4697885635	 1.0462255703	 0.143243
H	 0.1772814405	-0.470513138	-1.3271942608	 0.144858
H	 0.4166476654	-0.8825435195	 0.3772321297	 0.13081
H	-3.9709770533	-1.3095459405	 1.67148482	 0.110329
H	-4.6450027857	-1.0175291288	-0.9832267348	 0.101763
H	-3.1633424236	-0.3233475191	-3.1408826663	 0.11083
H	-1.7768739039	 0.692058451	-2.7398859506	 0.124288
H	-1.5720416059	-2.0977926222	-2.9947381822	 0.286832
56.1536	96.0578	132.5475	167.7747	211.5019	267.7132	355.9064	374.9781	425.5037	440.8465	644.7531	677.7713	692.4663	751.4347	799.1492	804.7445	884.3903	939.8632	966.119	975.7769	1038.9576	1061.4298	1076.2927	1101.7229	1179.5927	1215.8925	1234.5819	1271.4495	1339.6087	1348.0981	1376.7311	1397.8253	1409.3328	1418.3566	1446.7604	1488.0415	1489.5895	1496.6342	1508.3358	1509.8495	1576.1675	3012.1407	3042.1766	3065.7337	3075.3428	3110.5139	3120.6982	3138.832	3241.316	3262.3708	3806.1062
CCN1N=CC=C1CO	CCn1nccc1CO	
InChI=1S/C6H10N2O/c1-2-8-6(5-9)3-4-7-8/h3-4,9H,2,5H2,1H3	InChI=1S/C6H10N2O/c1-2-8-6(5-9)3-4-7-8/h3-4,9H,2,5H2,1H3
