16
gdb 128592	5.05494	1.07814	0.89856	1.572	76.11	-0.2316	-0.0642	0.1674	1273.1702	0.124061	-434.08408	-434.07569	-434.074745	-434.117481	29.896	
C	-0.0481774953	 1.3996237743	 0.0119921636	-0.237124
O	 0.038347113	-0.030072866	 0.0154525774	-0.262342
C	 0.6521609023	-0.5976264905	 1.0604983052	 0.437701
C	 0.7498527641	-2.0052376987	 1.085853113	-0.072334
N	 1.3431591822	-2.6053226917	 2.0888454414	-0.260857
C	 1.835187665	-1.7965459091	 3.0598352757	 0.382509
C	 2.5203818791	-2.4509379094	 4.2228866137	-0.453201
N	 1.7552361188	-0.4716334172	 3.0591051029	-0.235887
N	 1.1489474904	 0.1412334508	 2.0338303686	-0.284905
H	 0.9479638395	 1.8499841081	 0.022793905	 0.145024
H	-0.5742442846	 1.6542078888	-0.9082528928	 0.135096
H	-0.6022020281	 1.7582272337	 0.8835977724	 0.14504
H	 0.3363862307	-2.6043907453	 0.2777817633	 0.135069
H	 3.3809934038	-3.0337663649	 3.8791534703	 0.141227
H	 2.8548805642	-1.6956270557	 4.9342429954	 0.143821
H	 1.8405749049	-3.1483177874	 4.7225010149	 0.141164
83.5305	103.4093	138.4369	187.306	212.8169	351.1939	356.1933	425.6672	447.8971	561.6693	580.5819	652.2968	771.0728	801.2068	863.581	963.9332	1002.3302	1042.3622	1065.4816	1069.0399	1151.8273	1176.9343	1201.8735	1300.3697	1323.3167	1371.666	1405.0703	1440.9632	1475.9377	1478.0679	1478.9085	1494.8341	1505.7297	1557.4039	1620.6874	3046.9258	3047.9186	3103.466	3121.8467	3156.4408	3157.1172	3159.2043
COC1=CN=C(C)N=N1	COc1cnc(C)nn1	
InChI=1S/C5H7N3O/c1-4-6-3-5(9-2)8-7-4/h3H,1-2H3	InChI=1S/C5H7N3O/c1-4-6-3-5(9-2)8-7-4/h3H,1-2H3
