19
gdb 126739	3.12802	1.1133	0.873	1.9682	79.8	-0.2077	0.0319	0.2396	1364.404	0.159883	-419.227054	-419.217941	-419.216997	-419.261636	32.83	
C	 0.1189822317	 1.5034835594	 0.0671415563	-0.370467
C	-0.0779666779	-0.0007789411	-0.1263793129	-0.140523
N	 0.6763196998	-0.526395105	-1.2479993611	 0.040172
C	 1.7633391907	-1.3318132743	-1.2279454663	-0.006347
C	 2.1624047811	-1.5275580855	-2.5328773625	-0.372019
C	 1.2281967007	-0.776601575	-3.2808107729	 0.473832
O	 1.2308546149	-0.682552364	-4.6221710554	-0.267224
C	 0.2018608908	 0.1215218807	-5.1871074993	-0.229275
N	 0.3305405926	-0.1689534312	-2.5133532084	-0.374452
H	 1.1667949529	 1.7364766314	 0.2787560425	 0.123461
H	-0.1779452679	 2.0399953189	-0.8368047607	 0.146791
H	-0.4915191566	 1.859687218	 0.9025877869	 0.11632
H	 0.2426952136	-0.5544948726	 0.7609234751	 0.115629
H	-1.1367035349	-0.225298992	-0.293485969	 0.126283
H	 2.1653481303	-1.7042916458	-0.2981654678	 0.129629
H	 2.984350759	-2.1181363557	-2.8995120428	 0.107776
H	 0.3529372965	 0.088196212	-6.2671899514	 0.123406
H	-0.7889781993	-0.2698711692	-4.9324250163	 0.129011
H	 0.2672660419	 1.1545277711	-4.8287243741	 0.127997
53.3335	103.7118	114.207	177.7874	187.0707	241.5256	324.4148	366.4262	410.8824	511.2449	614.8538	633.7271	716.4183	741.0057	756.0789	798.5476	821.3081	957.7826	1001.1582	1026.4757	1054.862	1088.1798	1101.8158	1126.0916	1181.5475	1218.6627	1248.3648	1277.2855	1351.275	1390.7154	1408.2765	1413.3687	1450.9964	1476.4729	1478.1696	1481.5865	1488.9032	1502.4942	1508.5556	1542.9404	1594.6473	3028.0626	3044.9654	3048.8849	3091.753	3094.9443	3117.0843	3137.3574	3139.4576	3251.1042	3283.8245
CCN1C=CC(OC)=N1	CCn1ccc(OC)n1	
InChI=1S/C6H10N2O/c1-3-8-5-4-6(7-8)9-2/h4-5H,3H2,1-2H3	InChI=1S/C6H10N2O/c1-3-8-5-4-6(7-8)9-2/h4-5H,3H2,1-2H3
