21
gdb 64585	3.44813	1.11438	1.09819	3.3915	83.49	-0.2434	-0.0116	0.2318	1219.9215	0.18303	-387.111269	-387.102284	-387.10134	-387.145626	33.416	
C	-0.0013994705	 1.5913938184	 0.1005952374	-0.47787
C	 0.0463494343	 0.0784438422	 0.0852118828	 0.216399
C	-1.2320747087	-0.5514992842	-0.3412290321	 0.129329
O	-2.2300352469	 0.0518623719	-0.6518545917	-0.277252
C	 1.2675223292	-0.7568166181	-0.3232749653	-0.085297
C	 2.6345830327	-0.0878394778	-0.3927085065	-0.232579
C	 2.9163698889	 0.4908049918	 1.0222689903	-0.220307
C	 1.8663270607	-0.1363077847	 1.9817011147	-0.232551
C	 0.8069305197	-0.7858473946	 1.1002429664	-0.0853
H	 0.93783366	 2.0460844364	 0.4120619636	 0.115667
H	-0.2513295075	 1.969602062	-0.895086958	 0.132941
H	-0.7894031482	 1.9357820563	 0.7768774602	 0.132873
H	-1.210818499	-1.6677150994	-0.3570502219	 0.060319
H	 1.0834366833	-1.5932752482	-0.9902877743	 0.088213
H	 3.3751431812	-0.8516121366	-0.6531563397	 0.10718
H	 2.6930290375	 0.6818626188	-1.1692128886	 0.108218
H	 3.9350405861	 0.2626796297	 1.3472074327	 0.102353
H	 2.8383296763	 1.5802772807	 1.0192797241	 0.114052
H	 2.3231899421	-0.9179934087	 2.5980265068	 0.107178
H	 1.4498159773	 0.6034243693	 2.6731694561	 0.108219
H	 0.2771034714	-1.6440917353	 1.5016890629	 0.088214
39.8844	100.9157	147.2372	165.9461	201.9319	300.0649	306.7424	374.5549	438.6952	561.443	657.8846	690.5559	753.8207	783.8721	787.628	876.9134	892.3868	893.3289	962.7318	964.4268	1005.1994	1020.5178	1061.4896	1072.7176	1100.4142	1114.441	1122.3106	1184.4973	1195.611	1231.3987	1253.4534	1299.6076	1320.4234	1321.7657	1337.3342	1356.5126	1408.1738	1423.0092	1443.01	1482.0068	1486.5702	1495.1227	1500.5274	1520.0266	1813.8144	2841.8479	3041.5297	3041.6097	3054.1279	3066.9547	3070.5211	3076.0464	3105.9249	3108.0794	3148.4402	3156.4474	3158.287
CC1(C=O)C2CCCC12	C[C@@]1(C=O)[C@H]2CCC[C@@H]12	
InChI=1S/C8H12O/c1-8(5-9)6-3-2-4-7(6)8/h5-7H,2-4H2,1H3	InChI=1S/C8H12O/c1-8(5-9)6-3-2-4-7(6)8/h5-7H,2-4H2,1H3/t6-,7+,8+
