15
gdb 26933	2.48794	1.63962	0.98999	6.1391	73.38	-0.1868	-0.0276	0.1592	1109.026	0.11369	-453.99669	-453.988444	-453.9875	-454.029188	31.146	
N	 0.0888402292	 1.3790383423	 0.1922950342	-0.599261
C	 0.0142766361	 0.0004959904	 0.0490996286	 0.274231
C	-1.0932134439	-0.857426188	 0.0033774687	 0.018971
C	-2.4857211541	-0.5623429171	-0.0452453693	 0.053655
O	-3.3615777414	-1.4261588097	-0.098692543	-0.355591
C	-0.5677518793	-2.2074049883	-0.0420625181	 0.281854
O	-1.3398633624	-3.3063120731	-0.1036294514	-0.440198
C	 0.7925957733	-2.1353322819	-0.033324895	-0.209867
N	 1.1246798339	-0.7654234459	 0.0190748017	-0.302397
H	 0.7696530884	 1.8258635308	-0.4094183638	 0.256236
H	-0.8079034359	 1.8353271313	 0.1027195239	 0.264183
H	-2.7804345993	 0.5103537909	-0.0378697189	 0.055796
H	-2.2614052732	-2.9776016561	-0.1108562207	 0.310055
H	 1.5554906493	-2.8916590123	-0.0782831508	 0.128386
H	 2.0571033493	-0.4144802934	 0.1542862938	 0.263945
132.2933	184.1501	201.3673	210.3118	295.9935	304.5165	330.7193	449.0788	464.4072	541.6282	598.7572	625.0971	652.8963	692.6056	702.8077	735.5306	760.0745	816.0102	1016.1428	1030.4246	1095.3853	1150.4081	1232.5369	1269.3518	1352.9587	1386.8623	1428.4934	1487.783	1550.6863	1596.2543	1653.2748	1668.0407	1728.6798	2871.1252	3292.6555	3533.7761	3541.4558	3643.6734	3675.7564
NC1=C(C=O)C(O)=CN1	Nc1c(C=O)c(O)c[nH]1	
InChI=1S/C5H6N2O2/c6-5-3(2-8)4(9)1-7-5/h1-2,7,9H,6H2	InChI=1S/C5H6N2O2/c6-5-3(2-8)4(9)1-7-5/h1-2,7,9H,6H2
