21
gdb 89534	4.09203	1.19092	1.10107	1.467	83.22	-0.2341	0.0965	0.3306	1199.8518	0.183235	-387.033844	-387.025932	-387.024988	-387.066439	31.762	
C	-0.7386960025	 1.3495129491	 0.1709001886	-0.396883
C	 0.0169636819	 0.0442681997	 0.0227616893	 0.143538
C	 0.8108674409	-0.1972122668	-1.2790413015	-0.411603
C	 2.0348385064	-0.2640988578	-0.3522309549	 0.551807
O	 1.2382972934	 0.0226698385	 0.8054645576	-0.353626
C	 3.0870472596	-1.4020364718	-0.3023301175	-0.125667
C	 3.7485337424	-0.7042832156	-1.526399167	-0.229089
C	 3.3921059439	 0.4535525976	-0.5484789361	-0.122472
C	 3.9325666572	-0.452400492	 0.6011511117	-0.232353
H	-0.112570989	 2.1965250055	-0.1269470183	 0.11793
H	-1.6390351072	 1.3438744063	-0.4535779657	 0.114132
H	-1.0448432221	 1.4988932036	 1.2110648227	 0.126474
H	-0.6254930071	-0.8005514281	 0.3052487965	 0.074264
H	 0.5720179997	-1.113391572	-1.8223951994	 0.10989
H	 0.8055954418	 0.6455064627	-1.9750097729	 0.10799
H	 2.9051531934	-2.4686732839	-0.1622891647	 0.068593
H	 4.8149426024	-0.8973189826	-1.6621754469	 0.094306
H	 3.2128890112	-0.7424527534	-2.4787877423	 0.092028
H	 3.56148997	 1.5218301086	-0.6920488427	 0.067715
H	 3.5475498851	-0.2567436701	 1.602128577	 0.116176
H	 5.0114274787	-0.6292034873	 0.6041856864	 0.086851
50.8238	180.9431	215.3866	254.4446	341.1212	354.5672	411.3438	481.1469	569.6293	585.5569	749.7043	779.4321	805.7923	865.5554	897.7118	901.88	911.8063	917.1688	932.7153	987.1002	1015.8928	1019.4779	1031.648	1082.0002	1083.969	1105.0226	1118.6267	1135.0957	1144.1069	1187.3444	1194.8412	1198.4493	1205.0345	1247.6328	1249.0894	1251.6284	1315.5174	1326.7605	1390.2107	1410.3851	1481.3195	1487.0946	1495.0589	1496.521	1533.7026	3008.5126	3031.9619	3056.0327	3062.8778	3065.9888	3099.2954	3104.3465	3105.9005	3110.9151	3120.5704	3121.2748	3142.9071
CC1CC2(O1)C1CC2C1	C[C@H]1C[C@@]2(O1)[C@H]1C[C@@H]2C1	
InChI=1S/C8H12O/c1-5-4-8(9-5)6-2-7(8)3-6/h5-7H,2-4H2,1H3	InChI=1S/C8H12O/c1-5-4-8(9-5)6-2-7(8)3-6/h5-7H,2-4H2,1H3/t5-,6-,7+,8-/m0/s1
