20
gdb 70910	2.70761	1.6923	1.3026	2.0119	78.13	-0.2317	0.0713	0.303	1043.8349	0.171428	-403.120515	-403.112467	-403.111523	-403.152378	32.623	
C	-0.0674588174	 1.5250894974	 0.0179614204	-0.493113
C	-0.0174698493	 0.0293659088	-0.0676800692	 0.350566
C	 0.7660934156	-0.7810819549	-1.1158998063	-0.361575
C	-0.1933354871	-1.9861863014	-0.8288254211	 0.413154
O	-0.8190285737	-2.6054831037	-1.9166039217	-0.497305
C	 0.42544659	-2.901180431	 0.2340792165	-0.278762
C	 0.6289009395	-1.9150857609	 1.4087557372	-0.168158
N	-0.2657409572	-0.7565491862	 1.1580248868	-0.1403
C	-1.0902025691	-1.0132054134	-0.015524678	-0.156849
H	 0.9012528153	 1.9316229133	 0.3325825299	 0.118165
H	-0.3142910047	 1.9644848954	-0.9546526465	 0.116192
H	-0.8175797981	 1.8407900067	 0.7475169993	 0.131752
H	 0.5803418572	-0.3874027039	-2.1188902434	 0.106648
H	 1.8435789756	-0.9257345536	-0.9704241195	 0.081121
H	-0.1641438538	-3.1352592975	-2.3831959894	 0.278934
H	-0.2790631403	-3.6997499771	 0.4905789266	 0.104708
H	 1.3617661008	-3.3619944977	-0.1004191746	 0.090157
H	 0.3535098646	-2.3585527792	 2.3694079512	 0.110126
H	 1.6640608026	-1.5695030015	 1.4931311399	 0.105073
H	-2.1727776105	-0.9663327597	 0.0154845818	 0.089468
178.7684	191.9775	223.1833	243.7566	289.2366	321.8602	395.7078	428.0385	453.0575	565.0281	591.6	703.2573	726.6936	741.7455	814.0047	866.3789	902.8434	927.9773	943.5586	977.1848	988.6392	1006.207	1024.9468	1066.8221	1107.9244	1129.2966	1152.26	1176.5313	1198.982	1217.8496	1228.0738	1252.3994	1261.5681	1313.0757	1342.2138	1383.7604	1398.438	1432.6919	1483.0755	1485.7226	1489.4541	1492.5828	1516.7162	3024.4932	3028.0347	3034.7397	3053.6472	3077.2452	3086.5266	3097.2672	3100.8429	3120.2995	3180.0934	3809.839
CC12CC3(O)CCN1C23	C[C@@]12C[C@@]3(O)CCN1[C@@H]23	
InChI=1S/C7H11NO/c1-6-4-7(9)2-3-8(6)5(6)7/h5,9H,2-4H2,1H3	InChI=1S/C7H11NO/c1-6-4-7(9)2-3-8(6)5(6)7/h5,9H,2-4H2,1H3/t5-,6-,7-,8?/m0/s1
