18
gdb 64172	2.26345	1.47865	1.34654	2.1517	72.22	-0.2654	0.002	0.2674	1069.7404	0.144336	-439.082286	-439.072553	-439.071609	-439.117054	35.522	
C	-0.2178355145	 1.5234926451	 0.1930585931	-0.414838
C	 0.003862683	 0.0286663538	 0.0141485093	 0.363212
C	-1.2438747105	-0.6917834477	-0.4699865176	-0.43007
O	 1.125247346	-0.2279714218	-0.8814626763	-0.313897
C	 1.9332483223	-0.7882069049	 0.158551058	-0.111045
C	 0.7921013226	-0.6466205288	 1.2023821954	 0.145916
O	 1.0159203341	 0.2359178978	 2.2753459548	-0.454884
C	 0.2533051757	-1.9196883296	 1.69249271	 0.239012
N	-0.1363091703	-2.9240234203	 2.1123110188	-0.342288
H	 0.6892051584	 2.0217605525	 0.5366899894	 0.133883
H	-0.5106967852	 1.9500334524	-0.7710413763	 0.126398
H	-1.013804334	 1.7173984376	 0.9175207821	 0.128195
H	-1.5600911114	-0.2630648965	-1.4255296463	 0.129917
H	-1.0557337566	-1.7575148841	-0.6179607615	 0.137331
H	-2.0618569078	-0.5783912667	 0.2482230925	 0.130623
H	 2.2640362022	-1.807462671	-0.0680327466	 0.120406
H	 2.7963256637	-0.1610744722	 0.4143367186	 0.11289
H	 1.4850746825	-0.2335924554	 2.9742641825	 0.299238
29.3788	142.4348	180.2865	186.9728	227.2497	257.7299	275.4212	308.2825	348.709	377.5426	410.8068	476.2827	540.0445	571.9569	651.8783	689.3044	859.644	902.3458	939.1801	960.8281	990.236	998.0414	1042.0025	1136.6101	1150.18	1173.0617	1188.7793	1245.7272	1267.6039	1328.9832	1367.4148	1401.7706	1416.4209	1470.4893	1475.1837	1493.6974	1500.7735	1509.9785	2348.4127	3019.4063	3043.5375	3051.142	3077.0483	3115.0399	3122.9582	3130.3824	3147.4107	3807.5197
CC1(C)OCC1(O)C#N	CC1(C)OC[C@]1(O)C#N	
InChI=1S/C6H9NO2/c1-5(2)6(8,3-7)4-9-5/h8H,4H2,1-2H3	InChI=1S/C6H9NO2/c1-5(2)6(8,3-7)4-9-5/h8H,4H2,1-2H3/t6-/m1/s1
