14
gdb 132172	3.20764	1.32957	0.94168	6.2286	71.17	-0.2013	-0.0138	0.1875	1127.4981	0.101572	-477.996217	-477.988595	-477.987651	-478.028161	29.381	
O	 0.0699391206	 1.34980872	 0.1663657426	-0.427072
C	 0.0140693469	-0.0042831611	 0.0583921389	 0.450063
C	-1.1524727624	-0.6821662978	 0.047197886	-0.273485
C	-1.1973870828	-2.1359009789	 0.0138962012	 0.218188
N	-2.308685613	-2.7876695219	 0.0133461901	-0.563926
C	 0.1355305505	-2.7416880614	-0.0452011095	 0.176355
F	 0.1885526907	-4.0769228179	-0.111018825	-0.081918
C	 1.2757185457	-2.0329375102	-0.040120496	-0.121779
N	 1.236028477	-0.6446164968	-0.0227682463	-0.412988
H	 0.7328670804	 1.6948313209	-0.4439893008	 0.302199
H	-2.085209826	-0.1350818844	 0.044903096	 0.123628
H	-2.1169801792	-3.7899540643	-0.0304172259	 0.210657
H	 2.2522751792	-2.4962413106	-0.0774306078	 0.140732
H	 2.0377724823	-0.1544739657	 0.3440655966	 0.259344
124.8909	194.9807	251.5369	317.5006	355.4382	380.9927	411.4322	436.2841	454.1613	519.2751	603.049	645.8952	724.129	749.3953	782.3314	847.0846	863.2003	889.9355	976.9209	1108.9993	1178.3351	1208.7495	1252.2602	1282.5832	1304.4649	1371.4938	1425.0763	1520.4295	1647.6079	1691.4587	1738.6532	3225.8424	3232.3363	3463.4976	3619.3081	3785.5563
OC1=CC(=N)C(F)=CN1	O[C@@H]1C=C([NH])C(=CN1)F	
InChI=1S/C5H5FN2O/c6-3-2-8-5(9)1-4(3)7/h1-2H,(H3,7,8,9)	InChI=1S/C5H6FN2O/c6-3-2-8-5(9)1-4(3)7/h1-2,5,7-9H/t5-/m1/s1
