17
gdb 46978	2.74117	1.85921	1.47019	4.5681	69.	-0.2347	0.0251	0.2598	926.852	0.139919	-455.15358	-455.146644	-455.1457	-455.18489	27.47	
N	-0.119475087	 1.2828111462	-0.19112068	-0.537973
C	 0.0280813402	 0.0323622426	 0.008796178	 0.394098
N	 1.2089703432	-0.6780531593	 0.1415923493	-0.35339
C	 1.2427459926	-1.9852569313	 0.7981835979	-0.174798
C	-0.117424174	-2.6607089112	 0.6309734446	 0.048094
C	-0.5291735767	-2.8291762786	-0.8503046904	-0.090489
O	-1.2882466341	-1.6516618892	-1.1254203938	-0.256357
C	-1.2153207858	-0.8530168764	 0.0430392206	 0.117083
O	-1.1199568828	-1.7649386077	 1.118891179	-0.247219
H	 0.7789433492	 1.7728035521	-0.211911922	 0.196797
H	 2.0409775073	-0.1139988764	 0.2417031861	 0.234834
H	 2.0277287573	-2.6042651925	 0.3471623214	 0.112182
H	 1.4596516229	-1.8927070993	 1.8724133263	 0.114449
H	-0.1654479742	-3.5858187297	 1.2071502339	 0.097505
H	 0.3365750562	-2.8945835363	-1.5185108158	 0.111969
H	-1.1668150425	-3.7066714657	-0.999339913	 0.114083
H	-2.1122829918	-0.2426096871	 0.134831548	 0.119134
118.5333	173.7778	253.467	345.5886	408.1436	451.1253	510.2739	527.0265	677.6231	710.2	776.8345	825.1019	835.6776	865.4192	902.757	921.6567	956.0507	1004.0993	1031.8732	1057.2633	1077.9752	1101.6747	1133.7674	1181.1525	1210.124	1233.4673	1287.7409	1307.592	1322.7123	1347.3981	1361.7145	1385.6146	1429.6132	1473.6351	1513.9499	1521.9723	1739.0832	2996.023	3035.8885	3049.6117	3079.1519	3111.7829	3147.8053	3426.3067	3588.9483
N=C1NCC2COC1O2	[NH][C]1NC[C@@H]2CO[C@H]1O2	
InChI=1S/C5H8N2O2/c6-4-5-8-2-3(9-5)1-7-4/h3,5H,1-2H2,(H2,6,7)	InChI=1S/C5H8N2O2/c6-4-5-8-2-3(9-5)1-7-4/h3,5H,1-2H2,(H2,6,7)/t3-,5+/m1/s1
