15
gdb 96825	2.83709	1.17105	0.98858	2.5298	69.51	-0.2759	-0.0158	0.2601	1213.7975	0.111078	-453.935327	-453.926256	-453.925312	-453.9699	31.274	
C	 0.038381192	 1.427516153	 0.2377211869	-0.344103
N	-0.0099655958	-0.0267024374	 0.304935022	-0.311289
C	-1.064560374	-0.6330035549	 0.0476285174	 0.406027
O	-2.3284362553	-0.1558233877	-0.3308890935	-0.260964
C	-2.808863859	-1.4920898612	-0.6317012573	-0.087422
C	-2.9777626557	-1.7091256007	-2.0638408802	 0.297262
N	-3.0700315804	-1.9028671388	-3.1992069252	-0.308803
C	-1.4755620034	-2.0982579212	-0.0378508048	-0.002257
O	-0.7232059028	-3.0055357116	-0.7576659824	-0.394952
H	 0.9138974162	 1.7230520752	-0.3480815445	 0.13888
H	-0.8577848881	 1.882947284	-0.1979241858	 0.134616
H	 0.1794772501	 1.8237622953	 1.2489972667	 0.141209
H	-3.731031452	-1.7153996494	-0.0911056241	 0.143124
H	-1.6606525336	-2.5390477523	 0.9447675401	 0.142755
H	-0.3994202982	-2.5870249525	-1.5644178851	 0.305917
62.0012	95.4326	126.7678	146.754	198.0747	238.7185	280.7893	346.4138	395.613	512.6431	540.5417	631.9926	684.2763	757.1137	801.4438	916.4679	950.3255	1018.9097	1056.4071	1095.2998	1131.4749	1162.218	1180.4181	1192.1779	1267.8626	1303.6382	1357.319	1434.6937	1443.7037	1490.4237	1498.5512	1864.2531	2360.1456	3025.4354	3092.1759	3094.3542	3102.6372	3103.1894	3796.9536
CN=C1OC(C#N)C1O	CN=C1O[C@@H](C#N)[C@H]1O	
InChI=1S/C5H6N2O2/c1-7-5-4(8)3(2-6)9-5/h3-4,8H,1H3	InChI=1S/C5H6N2O2/c1-7-5-4(8)3(2-6)9-5/h3-4,8H,1H3/t3-,4+/m0/s1
