16
gdb 51847	3.19978	1.09382	0.87849	4.1395	66.09	-0.2501	-0.0401	0.21	1269.3692	0.124106	-475.074589	-475.065961	-475.065016	-475.10972	29.224	
O	 0.212150131	-0.120283897	 0.2481463267	-0.224897
C	 0.1441038006	 1.0181608518	-0.1289829959	 0.149435
C	 1.2986102283	 2.0129478838	-0.0551695037	-0.256142
N	 1.3242478983	 2.9339531619	-1.1616005123	-0.142477
C	 1.6088891856	 2.5671874358	-2.5336640144	-0.199235
C	 1.5691858445	 3.9548209889	-3.2095071722	-0.090374
O	 0.9001690474	 4.8145438407	-2.2779537986	-0.243125
C	 0.8415256175	 4.2186828376	-1.0524430836	 0.49568
O	 0.4286321882	 4.7593977462	-0.0624550418	-0.400061
H	-0.7927672073	 1.4462363124	-0.555219083	 0.090785
H	 1.1544733712	 2.6172108769	 0.849774645	 0.174341
H	 2.2406138487	 1.4619392846	 0.0377525251	 0.131724
H	 2.5883385285	 2.0871317216	-2.6326605778	 0.127963
H	 0.8539167928	 1.8821577621	-2.9438199864	 0.121946
H	 2.5754378896	 4.3473068918	-3.3888364468	 0.129591
H	 1.0126860552	 3.9589804809	-4.1481463101	 0.134845
46.996	57.5389	98.5656	125.874	190.9097	281.1604	332.203	420.6173	558.2291	658.9186	709.8145	763.0969	765.8066	821.2019	881.9651	971.2043	1035.2973	1042.2584	1079.8637	1117.6375	1145.9928	1208.6184	1225.1115	1246.3755	1294.1234	1330.9251	1347.3161	1402.873	1411.8466	1437.7943	1453.8368	1523.5477	1540.0312	1843.0731	1870.8982	2871.3777	3003.9562	3034.8887	3049.4318	3064.2948	3090.8916	3119.8814
O=CCN1CCOC1=O	O=CCN1CCOC1=O	
InChI=1S/C5H7NO3/c7-3-1-6-2-4-9-5(6)8/h3H,1-2,4H2	InChI=1S/C5H7NO3/c7-3-1-6-2-4-9-5(6)8/h3H,1-2,4H2
