20
gdb 99155	3.70255	0.90528	0.83055	2.0488	76.6	-0.2439	0.0565	0.3004	1472.291	0.169638	-440.315477	-440.305248	-440.304303	-440.351746	35.798	
C	-0.3298720432	 1.0603283213	-0.0039508981	-0.232271
O	 0.5528820568	-0.0621156463	 0.0303956519	-0.269394
C	 0.5705335081	-0.8006968844	-1.110914546	 0.5206
O	-0.0796452085	-0.5504018681	-2.0997351725	-0.412327
N	 1.4143028375	-1.8637235816	-0.9565623117	-0.371478
C	 1.787256229	-2.6835193695	-2.0684723536	 0.039183
C	 2.1035750439	-4.1330765269	-1.7979318671	-0.332764
C	 0.8518789011	-3.7648633129	-2.557540983	 0.032019
C	-0.5153242247	-3.964293559	-1.9463749714	-0.407994
H	-0.050093282	 1.7535541972	-0.8016074813	 0.137547
H	-1.3624837565	 0.740138424	-0.1666310467	 0.137369
H	-0.2324649537	 1.5433528266	 0.9690241015	 0.12752
H	 2.000077536	-1.856954896	-0.1365955766	 0.251439
H	 2.3798335535	-2.1802219672	-2.8296250239	 0.098192
H	 2.9404421917	-4.580913704	-2.3217357611	 0.11525
H	 1.9741523194	-4.4807261319	-0.7775242383	 0.11263
H	 0.891625061	-3.9223457688	-3.631791647	 0.089385
H	-0.4922912045	-3.7956378986	-0.8663195676	 0.11572
H	-1.2376678181	-3.2653749154	-2.3780974742	 0.138615
H	-0.8733217869	-4.9847172586	-2.1196241531	 0.11076
50.0217	62.2076	91.9569	124.0896	155.9713	188.0541	242.7038	297.4603	320.9038	390.0173	445.0199	495.1247	602.3245	724.0095	780.9854	792.9167	815.9152	851.1677	920.5708	963.7212	1021.4212	1052.9197	1078.2738	1101.4018	1121.9189	1148.4416	1183.0408	1191.5191	1194.8579	1213.5082	1247.6349	1276.2713	1385.676	1416.1652	1420.6452	1463.674	1480.5859	1484.2401	1494.4588	1500.0459	1503.0494	1527.6488	1820.133	3038.3525	3048.0489	3103.1389	3115.011	3117.5705	3120.5042	3130.1271	3149.6536	3150.9804	3217.0718	3629.5301
COC(=O)NC1CC1C	COC(=O)N[C@H]1C[C@H]1C	
InChI=1S/C6H11NO2/c1-4-3-5(4)7-6(8)9-2/h4-5H,3H2,1-2H3,(H,7,8)	InChI=1S/C6H11NO2/c1-4-3-5(4)7-6(8)9-2/h4-5H,3H2,1-2H3,(H,7,8)/t4-,5+/m1/s1
