15
gdb 128398	6.50557	0.84144	0.74854	5.5759	77.6	-0.2308	-0.0364	0.1944	1450.0465	0.113614	-450.136015	-450.127501	-450.126557	-450.171316	28.74	
C	 0.0240730245	 1.4680060544	 0.0103540107	-0.316717
N	-0.0615504911	 0.0165335881	 0.0025343798	-0.278813
C	-1.2286854632	-0.6420991824	 0.0093092316	 0.123011
N	-2.3542539743	-0.0039458609	 0.0233797868	-0.389662
C	-3.5118058322	-0.714980901	 0.0305191802	 0.534143
N	-4.7243566197	-0.2195657182	 0.0412857573	-0.351785
C	-5.4916529281	-1.3490530464	 0.0440561083	 0.046167
N	-4.8478951599	-2.4852572057	 0.0370065317	-0.135176
O	-3.5039059453	-2.0715283917	 0.027034445	-0.225001
H	 1.0756567953	 1.7575986379	 0.0019023559	 0.130942
H	-0.4776890002	 1.888283102	-0.8660631841	 0.158127
H	-0.4605510954	 1.8777995615	 0.9012649503	 0.158077
H	 0.7859853414	-0.5230783137	-0.0088310666	 0.266288
H	-1.1397652646	-1.7311586069	 0.001988122	 0.143412
H	-6.572458177	-1.3288545171	 0.0527346611	 0.136986
24.2279	52.6352	114.8837	134.5923	239.7265	278.6122	357.8864	482.2062	500.771	589.6054	647.3312	786.7842	857.8349	920.1801	938.0672	970.17	984.1518	1011.2792	1013.8458	1158.3289	1174.655	1198.8374	1257.7587	1290.1404	1314.3818	1382.5351	1457.419	1473.5163	1506.0965	1524.7523	1553.1132	1636.52	1698.1202	3048.4313	3104.1054	3109.1819	3148.1176	3251.3346	3678.5147
CNC=NC1=NC=NO1	CNC=Nc1ncno1	
InChI=1S/C4H6N4O/c1-5-2-6-4-7-3-8-9-4/h2-3H,1H3,(H,5,6,7,8)	InChI=1S/C4H6N4O/c1-5-2-6-4-7-3-8-9-4/h2-3H,1H3,(H,5,6,7,8)
