18
gdb 49618	2.74318	1.6492	1.3398	1.5779	77.88	-0.2397	-0.0372	0.2024	1007.802	0.146818	-401.888078	-401.880112	-401.879168	-401.920531	30.622	
O	-0.8263214388	 0.8426579131	 0.6900853116	-0.263473
C	-0.1052437787	 1.3492404009	-0.1368033694	 0.139718
C	 1.2192964826	 1.9901160978	 0.0949074376	-0.093474
C	 1.5587980648	 2.8231581011	 1.2896148783	-0.045123
C	 0.9230130633	 2.3156268306	 2.5859687049	-0.342814
C	 1.6601347246	 1.0081424356	 2.28134632	 0.413382
C	 2.4888716241	 0.1858139475	 3.2183027204	-0.347323
C	 1.3054220346	-0.4219166183	 2.493582018	-0.300268
N	 2.2952815267	 1.5406183397	 1.041987643	-0.180528
H	-0.4168442508	 1.390297495	-1.2054077208	 0.083515
H	 1.6806432015	 2.3299214943	-0.8291857208	 0.102936
H	 2.0354563511	 3.7890394675	 1.1532166925	 0.105246
H	 1.305324754	 2.8344530515	 3.4679197	 0.113136
H	-0.1668117556	 2.282507618	 2.6133684934	 0.132682
H	 3.4841192925	-0.0865823428	 2.8841286103	 0.124201
H	 2.4014198204	 0.3840614409	 4.2816640915	 0.113497
H	 0.4016238948	-0.6391675429	 3.0515598997	 0.125547
H	 1.5085986089	-1.1117066794	 1.6815968898	 0.119143
93.9222	130.7863	185.887	239.9452	289.347	310.7664	390.4732	482.2279	550.1106	707.6524	744.0085	770.6038	808.1558	824.0753	850.5186	888.9374	911.9217	937.7222	968.8675	1002.0223	1025.356	1051.3146	1056.0814	1074.0892	1077.0137	1116.758	1173.4354	1185.7305	1205.4433	1243.6297	1262.1651	1331.2414	1378.0998	1406.4099	1439.236	1455.5335	1478.7718	1502.3032	1805.3287	2870.2372	3074.3335	3129.0219	3132.5595	3138.3014	3142.8988	3160.6541	3213.4356	3228.358
O=CC1C2CC3(CC3)N12	O=C[C@H]1[C@H]2CC3(CC3)N12	
InChI=1S/C7H9NO/c9-4-6-5-3-7(1-2-7)8(5)6/h4-6H,1-3H2	InChI=1S/C7H9NO/c9-4-6-5-3-7(1-2-7)8(5)6/h4-6H,1-3H2/t5-,6+,8?/m1/s1
