25
gdb 120844	2.84165	0.7031	0.60865	0.945	91.19	-0.2398	0.091	0.3308	1984.7819	0.226892	-389.479663	-389.46857	-389.467626	-389.516969	39.875	
C	 0.2094031973	 1.5486514672	-0.1159150509	-0.379349
C	 0.432499428	 0.0343874416	-0.0819091848	-0.156042
C	 0.3196074662	-0.5549484784	 1.3297958726	-0.182929
C	 0.5160578478	-2.0565448375	 1.3634833656	-0.043173
C	 1.9145831816	-2.6515518934	 1.3860606988	-0.324772
C	 1.0140312924	-2.7479316068	 2.596219572	 0.111832
O	 1.2791941607	-1.9553646914	 3.7091633094	-0.247195
C	 2.265833903	-2.5028306687	 4.5691429735	-0.029461
C	 2.4589582325	-1.5561824372	 5.7412053032	-0.385025
H	 0.9420488276	 2.0703719358	 0.5101248519	 0.112591
H	 0.2983349593	 1.944509439	-1.1325920695	 0.108489
H	-0.786904587	 1.8110471891	 0.257356044	 0.112559
H	-0.2951138313	-0.4582842455	-0.7407471208	 0.089972
H	 1.4216126272	-0.2036875698	-0.493579507	 0.095665
H	 1.050618132	-0.0805283237	 1.9931713299	 0.103656
H	-0.6671223902	-0.3106892425	 1.7471035924	 0.093164
H	-0.2209719703	-2.6162735163	 0.7915738836	 0.080992
H	 2.1272736073	-3.5444971859	 0.8081794345	 0.106328
H	 2.7389389842	-1.9486463104	 1.4562241689	 0.113401
H	 0.5970546905	-3.7270764892	 2.8400810141	 0.078932
H	 1.9455506374	-3.4968902239	 4.9227565212	 0.085403
H	 3.2091286314	-2.6450560536	 4.0191240672	 0.08977
H	 3.2126112794	-1.9503076446	 6.4295110084	 0.113766
H	 2.7884859648	-0.5736808957	 5.3910072659	 0.124778
H	 1.5212916381	-1.4264243281	 6.289067766	 0.126647
55.2922	72.7365	80.5845	111.3295	116.0285	181.0699	243.4328	247.1389	275.8048	302.8457	356.4486	445.8161	494.9989	582.1648	744.6574	778.2228	818.2292	827.326	866.1757	873.5225	910.9203	927.069	985.5333	1015.6527	1040.1134	1049.7565	1067.4793	1099.9971	1122.6465	1143.9731	1151.2496	1185.7906	1190.7639	1201.5103	1252.213	1267.159	1294.1253	1302.8224	1327.6925	1369.5431	1385.6838	1403.5888	1410.0823	1417.8844	1438.4623	1482.143	1483.5552	1489.516	1495.9066	1499.2911	1499.7572	1511.704	1529.3638	2966.1298	2998.2147	3012.5152	3017.7484	3028.2548	3044.3618	3045.1139	3075.2442	3076.4406	3095.3218	3099.3851	3118.6033	3120.6259	3125.708	3129.5644	3214.1451
CCCC1CC1OCC	CCC[C@H]1C[C@H]1OCC	
InChI=1S/C8H16O/c1-3-5-7-6-8(7)9-4-2/h7-8H,3-6H2,1-2H3	InChI=1S/C8H16O/c1-3-5-7-6-8(7)9-4-2/h7-8H,3-6H2,1-2H3/t7-,8+/m0/s1
