22
gdb 8672	2.22143	1.67287	1.34617	0.6017	83.61	-0.257	0.0604	0.3174	1101.401	0.197191	-313.049138	-313.038864	-313.03792	-313.083411	38.316	
C	-0.0822213796	 1.5444089169	 0.151368842	-0.399942
C	 0.0429171701	 0.0226171635	 0.0488122497	-0.182994
C	 0.7217242091	-0.5121179342	-1.2454436856	 0.064685
C	 0.7817774635	-2.0562662494	-1.169993531	-0.413765
C	-0.0191496573	-0.0538132577	-2.5385138861	-0.180271
C	-1.4945568731	-0.4541398863	-2.6428429416	-0.408168
C	 2.0967948276	-0.0020313356	-1.3162702449	 0.356617
C	 3.2248326556	 0.4107814214	-1.3823494288	-0.501837
H	 0.8941624491	 2.0255185927	 0.0414822859	 0.131109
H	-0.7473612341	 1.9552144766	-0.6147784306	 0.115951
H	-0.4912883133	 1.8288161184	 1.1257552167	 0.111134
H	 0.6216509456	-0.3493348636	 0.9020946685	 0.101279
H	-0.9482130246	-0.4390014815	 0.1280839353	 0.094945
H	-0.2213443723	-2.480343909	-1.0671271343	 0.113582
H	 1.2443225836	-2.4738901087	-2.0689345897	 0.118986
H	 1.3734333895	-2.3743826675	-0.3071598089	 0.121746
H	 0.0684380586	 1.0343287779	-2.6202736293	 0.107718
H	 0.5298024867	-0.4623995569	-3.3946545888	 0.102889
H	-1.6315453665	-1.5392449493	-2.6128246289	 0.119168
H	-2.0980376021	-0.0186019962	-1.8404098165	 0.120915
H	-1.9101575332	-0.1002155074	-3.5915359702	 0.115632
H	 4.2210358972	 0.7738495358	-1.4393719429	 0.190621
89.9243	113.7216	143.0838	169.3559	223.8353	232.0799	260.0858	271.6505	302.3578	357.2179	416.7554	438.024	538.0748	577.2372	623.7155	627.741	670.4034	767.8214	791.0311	885.9585	898.2427	984.3346	1013.992	1016.4191	1048.1589	1077.1354	1089.4661	1187.988	1209.2166	1225.2336	1312.3917	1316.0512	1364.8448	1372.2926	1407.9746	1408.6554	1414.855	1478.591	1481.8515	1494.644	1498.6047	1501.7166	1504.1666	1508.08	1513.6148	2226.0027	3031.5569	3037.5102	3038.5006	3041.1926	3043.811	3065.9771	3074.8468	3103.5451	3103.9709	3110.6484	3115.2431	3116.3951	3117.3136	3501.5602
CCC(C)(CC)C#C	CCC(C)(CC)C#C	
InChI=1S/C8H14/c1-5-8(4,6-2)7-3/h1H,6-7H2,2-4H3	InChI=1S/C8H14/c1-5-8(4,6-2)7-3/h1H,6-7H2,2-4H3
