18
gdb 30104	3.7022	1.06159	1.05566	4.9498	79.07	-0.2111	0.0289	0.24	1222.4599	0.150156	-398.143102	-398.134993	-398.134049	-398.176422	30.439	
C	-0.0932927772	 1.51771994	-0.2253041858	-0.399408
C	-0.0463252306	 0.0308711485	 0.0162202831	 0.016324
N	 1.2560620012	-0.6299859741	-0.132397394	-0.320064
C	 0.6394741829	-0.5901308308	 1.2017901548	-0.202538
C	 1.3625897332	 0.1817769752	 2.2293854501	 0.349374
C	 2.588209781	 0.8007547577	 2.2447223735	-0.161907
N	 2.8247265438	 1.3988908365	 3.4625093307	-0.25499
C	 1.7581308142	 1.1486173325	 4.1833504421	 0.009333
N	 0.8400462613	 0.414994801	 3.4882475258	-0.317459
H	 0.7726798751	 2.0084597779	 0.2242152519	 0.142007
H	-0.0913861264	 1.7329723557	-1.2989156335	 0.121415
H	-1.0024915448	 1.9517212716	 0.2050984681	 0.11143
H	-0.9161669948	-0.5197765466	-0.3424424368	 0.081883
H	 1.1574018786	-1.5547767663	-0.5403040547	 0.234873
H	 0.1821646537	-1.5112684067	 1.5661162579	 0.082488
H	 3.3062662578	 0.8340674832	 1.4410772831	 0.120017
H	 1.5896675924	 1.4626580461	 5.2028549313	 0.126243
H	-0.0591995716	 0.1102511685	 3.8217617925	 0.260977
52.926	107.2772	166.1437	204.7723	268.3633	384.3503	427.7775	499.7006	531.0874	645.3862	683.3783	730.8195	789.4062	803.175	851.7956	872.1408	920.5846	942.3492	993.5737	1017.3017	1028.7845	1073.4415	1110.7456	1134.677	1144.12	1189.9554	1218.534	1245.1557	1251.4794	1281.0498	1355.0336	1398.043	1426.4713	1436.728	1465.4805	1490.997	1496.108	1504.872	1619.0793	3036.4566	3083.5718	3097.521	3102.4539	3133.9442	3248.7885	3267.2523	3516.7458	3661.1132
CC1NC1C1=CN=CN1	C[C@H]1N[C@H]1c1cnc[nH]1	
InChI=1S/C6H9N3/c1-4-6(9-4)5-2-7-3-8-5/h2-4,6,9H,1H3,(H,7,8)	InChI=1S/C6H9N3/c1-4-6(9-4)5-2-7-3-8-5/h2-4,6,9H,1H3,(H,7,8)/t4-,6-/m1/s1
