21
gdb 74931	2.87836	1.72209	1.45888	0.2464	87.33	-0.218	0.0281	0.2461	1010.4763	0.185334	-349.9352	-349.928064	-349.92712	-349.966224	30.381	
C	 0.0112305096	 1.4834144522	 0.0411734134	-0.503613
C	 0.0191281921	-0.0135225707	-0.0126479741	 0.351783
C	-0.0752897184	-0.7642592834	-1.1153172454	-0.181858
C	 0.0564485814	-2.2486692693	-0.8999478581	-0.078967
C	 1.4656851751	-2.4662169965	-0.243296951	-0.226157
C	 0.7733634719	-2.2212143536	 1.0990555191	-0.018299
C	-0.5822525865	-2.7008473004	 0.4935954082	-0.015293
C	-1.3234241389	-1.6167689562	 1.2791391757	-0.227829
C	 0.0277736821	-0.8189190775	 1.2682845501	-0.134933
H	 0.9298349822	 1.8698144303	 0.501818343	 0.122473
H	-0.0762834644	 1.9205380455	-0.9577087834	 0.119343
H	-0.8212719621	 1.8586922886	 0.6510916142	 0.121923
H	-0.1491954989	-0.3501374584	-2.1161795837	 0.077718
H	-0.1967188474	-2.8466762886	-1.7759281728	 0.057853
H	 1.7819290111	-3.5131088972	-0.3050597332	 0.092022
H	 2.277279527	-1.8125937525	-0.5753735956	 0.088291
H	 1.1890463959	-2.6153304499	 2.0281769395	 0.058487
H	-0.9145777696	-3.7401931683	 0.5153890723	 0.058876
H	-2.1992503855	-1.1235184133	 0.8476677786	 0.08991
H	-1.5618545885	-1.9879806239	 2.2815097274	 0.092515
H	 0.2788850618	-0.2295221069	 2.1518804458	 0.055755
152.5979	198.6132	300.4614	343.6823	373.5372	443.1992	489.6084	571.6693	612.4723	713.9745	742.2502	778.7458	804.7022	821.0487	830.6241	883.9137	933.678	935.1386	972.7693	990.8391	1017.9192	1026.0415	1046.7575	1058.0862	1073.9134	1082.5994	1099.4578	1124.4253	1168.7754	1192.7376	1212.8507	1226.9748	1241.4011	1269.1524	1280.9147	1290.9429	1306.1891	1339.8767	1367.3803	1412.0892	1478.3632	1480.4238	1483.283	1490.1249	1711.5424	3010.1688	3037.6948	3038.5425	3054.6325	3082.1529	3088.241	3094.153	3095.211	3097.0503	3103.8954	3104.3071	3170.5466
CC1=CC2CC3C2CC13	CC1=C[C@H]2C[C@@H]3[C@H]2C[C@H]13	
InChI=1S/C9H12/c1-5-2-6-3-9-7(5)4-8(6)9/h2,6-9H,3-4H2,1H3	InChI=1S/C9H12/c1-5-2-6-3-9-7(5)4-8(6)9/h2,6-9H,3-4H2,1H3/t6-,7+,8-,9-/m0/s1
