16
gdb 123938	3.55069	1.61745	1.15028	4.0125	70.56	-0.1952	0.0298	0.225	1008.09	0.129141	-434.070861	-434.064069	-434.063125	-434.101938	27.019	
C	-0.0324927521	 1.4267686762	 0.0720218013	-0.188416
C	 1.4111637411	 1.9623591889	 0.0152497855	-0.087767
O	 2.1916227382	 1.5147331404	 1.1234175634	-0.2827
C	 2.000116374	 0.1807433924	 1.3465733274	 0.239283
C	 0.9613755732	-0.5526963718	 0.81170713	 0.304889
N	 1.1157007177	-1.8171632356	 1.2856905483	-0.296169
N	 2.2046804955	-1.9467228036	 2.0776569517	-0.229567
C	 2.7418576888	-0.7272260641	 2.1265653286	-0.127468
N	-0.0974373264	-0.04500422	 0.0456679649	-0.41197
H	-0.502767743	 1.7749838601	 0.9984037077	 0.132993
H	-0.6082768283	 1.8244609742	-0.7675565921	 0.113449
H	 1.8861978827	 1.6379140914	-0.9230604137	 0.09885
H	 1.4216100938	 3.0545207695	 0.0547552616	 0.11708
H	 0.5330879212	-2.6175547935	 1.1115473827	 0.268871
H	 3.6341600936	-0.548009152	 2.7065518796	 0.113189
H	-0.0975875399	-0.3990434925	-0.9057649267	 0.235454
121.177	235.3257	328.8226	365.1979	399.9396	429.2452	467.3374	532.0944	647.9121	688.3363	711.6289	716.6116	784.038	862.4941	873.6499	945.6704	954.1439	1043.1387	1074.5207	1110.1331	1121.817	1209.1894	1243.2345	1262.9771	1286.839	1318.1575	1374.3879	1391.6101	1414.0197	1446.1022	1451.7183	1478.7541	1490.8882	1566.2794	1654.7792	2992.9801	3048.748	3101.2927	3108.1441	3253.6901	3500.1386	3679.1562
C1COC2=C(NN=C2)N1	C1COc2c([nH]nc2)N1	
InChI=1S/C5H7N3O/c1-2-9-4-3-7-8-5(4)6-1/h3H,1-2H2,(H2,6,7,8)	InChI=1S/C5H7N3O/c1-2-9-4-3-7-8-5(4)6-1/h3H,1-2H2,(H2,6,7,8)
