17
gdb 77292	3.71344	0.86957	0.74049	2.0463	71.45	-0.2537	-0.0351	0.2186	1468.8782	0.132813	-458.994475	-458.985187	-458.984242	-459.030128	32.32	
C	-0.4425445632	 1.2499669058	-0.1729660937	-0.420786
C	 0.1653449509	-0.1226122985	 0.0705646298	-0.114085
C	 1.0347001297	-0.8227859264	-1.0157084645	 0.106082
C	 2.0799356262	-1.2371883854	 0.0540864436	-0.382272
C	 1.3817539481	-0.2507540695	 1.005485851	 0.388467
O	 1.7018314366	 0.2996154227	 2.0176206579	-0.288662
O	 0.3958044115	-1.9054715787	-1.6779435365	-0.187869
C	 0.3839651821	-1.9273197354	-3.0270522425	 0.164891
O	-0.1358927741	-2.7997284003	-3.6520789011	-0.268283
H	 0.3107124753	 1.9583728584	-0.5325418113	 0.124092
H	-1.2482523045	 1.2012114464	-0.9118130996	 0.130046
H	-0.8558719142	 1.6502864992	 0.7569519342	 0.145791
H	-0.5974743233	-0.8411621353	 0.3993945025	 0.128297
H	 1.437147934	-0.1143768767	-1.7482920704	 0.099598
H	 1.931246721	-2.2755614872	 0.368231296	 0.154545
H	 3.1385078232	-1.0712400012	-0.1549094667	 0.138166
H	 0.9031783508	-1.0566488081	-3.4734956986	 0.081982
28.1162	64.0417	139.1092	177.8553	189.8994	213.6407	313.5658	332.3407	365.5335	468.7827	575.05	589.0569	710.9004	756.7054	831.6051	891.2482	924.0572	1009.1372	1041.5914	1050.8594	1065.8878	1122.3879	1140.2042	1156.7608	1181.7546	1218.1642	1233.8652	1254.3862	1333.3174	1382.5734	1408.7386	1432.1948	1445.6364	1494.3849	1495.2422	1870.9072	1898.814	2946.1488	3032.8613	3039.2269	3049.3866	3064.6779	3108.5363	3118.7411	3130.3221
CC1C(CC1=O)OC=O	C[C@H]1[C@@H](CC1=O)OC=O	
InChI=1S/C6H8O3/c1-4-5(8)2-6(4)9-3-7/h3-4,6H,2H2,1H3	InChI=1S/C6H8O3/c1-4-5(8)2-6(4)9-3-7/h3-4,6H,2H2,1H3/t4-,6-/m1/s1
