14
gdb 29217	3.24145	1.43357	0.99515	5.4294	69.21	-0.2022	-0.0374	0.1648	1092.3825	0.10342	-470.080461	-470.072803	-470.071859	-470.112556	29.228	
N	 0.0734274148	 1.4591642199	 0.1965911622	-0.601443
C	 0.0077288828	 0.062309684	 0.0712263221	 0.14468
C	-1.1339222537	-0.6739934412	 0.0088125811	-0.021758
N	-1.0708311397	-2.0378844395	-0.0370618355	-0.35287
C	 0.1230450674	-2.7829083249	-0.0229239192	 0.431178
O	 0.0872186197	-3.9948647257	-0.0623240168	-0.396666
N	 1.2776254423	-2.0215639285	 0.0328202934	-0.430558
C	 1.2087388785	-0.7272495991	 0.0759753555	 0.424356
O	 2.3551977983	-0.0235871182	 0.1195869259	-0.411567
H	 0.9638043878	 1.8248682572	-0.1130352783	 0.262874
H	-0.6856143229	 1.9446537206	-0.2626963056	 0.246532
H	-2.1227560795	-0.2312289698	-0.0044589901	 0.129799
H	-1.9151262919	-2.5877328099	-0.0841281881	 0.266721
H	 3.0705606962	-0.6772988148	 0.1070971133	 0.308722
100.2599	179.6743	217.8733	304.6245	345.0101	384.7982	398.2883	494.7177	550.285	594.7399	605.4291	621.0385	701.9484	753.943	770.1112	788.2418	822.063	881.8094	950.5304	1098.9973	1172.4842	1199.4337	1246.1931	1310.8593	1385.2482	1448.7598	1511.0914	1606.9988	1646.0983	1722.4396	1810.6132	3203.4525	3546.367	3633.1333	3643.0556	3745.6538
NC1=CNC(=O)N=C1O	Nc1c[nH]c(=O)nc1O	
InChI=1S/C4H5N3O2/c5-2-1-6-4(9)7-3(2)8/h1H,5H2,(H2,6,7,8,9)	InChI=1S/C4H5N3O2/c5-2-1-6-4(9)7-3(2)8/h1H,5H2,(H2,6,7,8,9)
