20
gdb 89352	2.21208	1.62738	1.14246	2.9592	81.76	-0.2213	-0.0259	0.1955	1148.7905	0.168929	-403.121717	-403.112454	-403.11151	-403.1553	34.646	
C	-0.2284993747	 1.5041854248	-0.091218384	-0.336327
N	 0.0813217462	 0.0858564189	-0.0157181523	-0.13019
C	 1.172787112	-0.4491028832	-0.8774893239	-0.229844
C	 1.8631611742	-1.0759277357	 0.3422065745	 0.274401
C	 2.3812059079	-2.4797460591	 0.4327358534	-0.496847
C	 2.1826564679	-0.0040337367	 1.3312441919	-0.377705
C	 0.7301033256	-0.4213655695	 1.1884244033	 0.203735
C	-0.021065077	-1.0785993971	 2.2655189384	 0.090062
O	 0.4869261444	-1.583884072	 3.2429190685	-0.287151
H	 0.6421645855	 2.1672675657	 0.0541118749	 0.097632
H	-0.6641069552	 1.7282286452	-1.0702049266	 0.123525
H	-0.9737919353	 1.7514820532	 0.6713717925	 0.125956
H	 0.7992831744	-1.1739203771	-1.6087074525	 0.111795
H	 1.7630311025	 0.3150951336	-1.4014352461	 0.099109
H	 3.3894881398	-2.5529319031	 0.0080935177	 0.125902
H	 2.4306052472	-2.8038306685	 1.476474908	 0.149445
H	 1.736670754	-3.1786899257	-0.1104340287	 0.123767
H	 2.6408326739	-0.3423655117	 2.2546718889	 0.14318
H	 2.4782024113	 0.9885223098	 1.0021185229	 0.113026
H	-1.1188493048	-1.1142321016	 2.0886044494	 0.076528
102.7654	150.9302	185.2207	198.4525	204.1829	232.6106	248.5929	333.9063	374.3331	432.5918	468.6712	569.7863	612.587	698.4748	729.673	812.8748	871.8011	954.0503	964.9261	982.9072	1003.3373	1052.4507	1065.8033	1080.5326	1119.0996	1127.6953	1174.3419	1214.4794	1230.0642	1257.7805	1289.3851	1335.8184	1383.8476	1415.0099	1424.5589	1450.63	1476.4276	1486.2602	1489.4789	1495.4685	1502.3218	1512.1442	1787.362	2889.474	2953.2998	3007.2412	3027.6495	3063.6305	3064.7454	3088.563	3105.0015	3112.4276	3118.5402	3216.9214
CN1CC2(C)CC12C=O	CN1C[C@@]2(C)C[C@@]12C=O	
InChI=1S/C7H11NO/c1-6-3-7(6,5-9)8(2)4-6/h5H,3-4H2,1-2H3	InChI=1S/C7H11NO/c1-6-3-7(6,5-9)8(2)4-6/h5H,3-4H2,1-2H3/t6-,7+/m1/s1
