16
gdb 127545	3.24792	1.46238	1.01501	1.7097	83.25	-0.1928	-0.0305	0.1623	1126.9456	0.125978	-430.241492	-430.233099	-430.232155	-430.274634	31.092	
C	 0.0583184407	 1.4278421311	 0.0704742147	-0.29898
N	 0.0537235332	-0.0237245914	 0.0185379141	 0.131986
N	 0.00113773	-0.6013174908	-1.1594800748	-0.206672
C	-0.0043426064	-1.913535943	-1.1988677887	-0.069684
C	 0.045854007	-2.7503957414	-0.0335682828	 0.190628
N	 0.0304525069	-4.0395862783	 0.0718471132	-0.584532
C	 0.118175722	-1.9551302063	 1.2020831124	 0.437411
N	 0.2078476191	-2.652973706	 2.3532879907	-0.551065
N	 0.1106678987	-0.6459968951	 1.2188606416	-0.359037
H	 0.9749955645	 1.783650621	 0.5498841058	 0.144771
H	 0.0021973584	 1.79406711	-0.9527708354	 0.156982
H	-0.7999185759	 1.7843949977	 0.647453085	 0.144174
H	-0.0528512066	-2.3523496978	-2.1905698534	 0.112534
H	-0.0282639055	-4.4805336112	-0.847329675	 0.208785
H	 0.0721643136	-3.6492275841	 2.2671821104	 0.281707
H	 0.1040702003	-2.1864896344	 3.2368727823	 0.260991
67.2668	116.4349	177.4748	229.3914	314.5528	328.9536	349.4304	455.0433	474.8603	540.6562	563.9008	589.8429	597.405	740.4961	788.8535	816.9073	833.0168	888.5068	959.3262	1040.6342	1129.6222	1149.3852	1154.8189	1295.47	1313.2204	1362.8799	1393.072	1443.799	1475.1572	1493.4341	1511.4878	1544.2212	1577.3144	1638.2736	1661.3864	3046.3738	3106.9265	3177.7325	3178.9776	3456.7605	3581.0402	3733.6085
CN1N=CC(=N)C(N)=N1	Cn1ncc([NH])c(N)n1	
InChI=1S/C4H7N5/c1-9-7-2-3(5)4(6)8-9/h2,5H,1H3,(H2,6,8)	InChI=1S/C4H12N5/c1-9-7-2-3(5)4(6)8-9/h3-5,7-8H,2,6H2,1H3
