16
gdb 8347	5.80143	1.27663	1.24741	2.2071	67.71	-0.2579	0.0143	0.2721	998.7115	0.131342	-379.835512	-379.828386	-379.827442	-379.868161	26.138	
N	-0.1266993432	 1.2802695715	 0.0082759603	-0.440751
C	-0.0511648436	 0.0217257135	-0.0108694175	 0.109354
O	-1.1811957251	-0.7198915696	 0.0233530276	-0.229889
C	-1.0270979442	-2.1110500076	-0.0036437936	 0.374018
C	-0.3364824357	-3.0633479511	 1.001148631	-0.227014
N	-0.9529009304	-4.016090579	-0.0345879966	-0.134358
C	-2.1920184533	-3.0987681072	 0.0364249404	-0.219442
C	-0.4342407895	-3.0329715756	-1.0952995109	-0.226839
H	 0.8071101303	 1.6848286895	-0.0221613723	 0.231258
H	 0.866916003	-0.5776060611	-0.053823014	 0.088222
H	 0.7552560056	-3.0991000049	 1.0259462879	 0.107248
H	-0.7709068411	-3.160491238	 1.9984461031	 0.115704
H	-2.7533854375	-3.1956621299	 0.9678886277	 0.114766
H	-2.8376375512	-3.1695468015	-0.8412512531	 0.114808
H	-0.959643786	-3.1019417381	-2.050245819	 0.115719
H	 0.650424272	-3.0661907409	-1.2225275709	 0.107197
32.7182	87.37	165.5849	365.1859	405.4088	448.0686	589.4213	595.2723	730.4216	787.1053	795.8622	827.1852	899.0682	944.6712	969.8375	1009.0685	1020.1916	1033.6364	1045.1222	1075.0166	1158.3455	1167.2313	1177.9566	1187.6219	1191.7398	1199.1469	1240.4428	1286.2858	1300.4952	1422.8794	1508.3976	1511.0641	1565.5882	1747.1895	3039.6044	3059.6437	3063.9106	3072.892	3132.0093	3136.5752	3141.9788	3515.2241
N=COC12CN(C1)C2	[NH][CH]O[C@@]12CN(C1)C2	
InChI=1S/C5H8N2O/c6-4-8-5-1-7(2-5)3-5/h4,6H,1-3H2	InChI=1S/C5H8N2O/c6-4-8-5-1-7(2-5)3-5/h4,6H,1-3H2
