21
gdb 101924	2.1554	1.37569	0.95692	3.6376	80.41	-0.2171	0.0624	0.2795	1299.5328	0.182392	-420.425843	-420.41594	-420.414996	-420.460993	36.881	
C	-0.0807851096	 1.5778179183	 0.0144617439	-0.379735
C	 0.0608871148	 0.0511890465	 0.0530600973	-0.174231
N	 0.6696128923	-0.5252227058	-1.1394249993	-0.111339
C	 2.078133707	-0.8494172088	-1.1541549381	 0.076702
C	 3.0820834265	-0.2153610539	-0.2320458115	-0.303441
C	 2.732264783	-1.6851165076	-0.0868640239	-0.286124
C	-0.0026392075	-0.6611627102	-2.3392836605	 0.443699
N	-1.3460504129	-0.2936014206	-2.3298549189	-0.573011
O	 0.5345762866	-1.0350970586	-3.3697380902	-0.407785
H	 0.8967274725	 2.0523081637	-0.107949669	 0.131115
H	-0.7149449354	 1.8869733154	-0.8197950408	 0.140924
H	-0.5273878223	 1.9426703552	 0.9454971477	 0.112463
H	 0.670036109	-0.2419731877	 0.9121659146	 0.117052
H	-0.9146834082	-0.4164866363	 0.2368650576	 0.101077
H	 2.3909639266	-1.0273374603	-2.1731102721	 0.143796
H	 4.0459290148	 0.0586881319	-0.647066213	 0.118978
H	 2.737997428	 0.453769443	 0.5488508922	 0.113645
H	 2.1444168041	-1.9693628364	 0.7798777147	 0.111436
H	 3.454010878	-2.4339436354	-0.3940583274	 0.119195
H	-1.8826930546	-0.4117698409	-1.4852870282	 0.247061
H	-1.8136623728	-0.6203900415	-3.1619017951	 0.258522
59.5009	85.283	100.462	146.1238	217.2655	228.5558	343.488	355.514	383.9767	419.301	459.1885	514.411	559.744	606.2128	695.824	768.5193	776.9479	788.9256	811.974	893.4239	932.7506	950.5686	1024.7988	1058.7461	1072.4731	1085.3258	1102.053	1113.4353	1153.0322	1190.053	1197.3552	1232.8242	1291.5443	1334.0841	1362.1374	1405.708	1412.2461	1452.104	1465.6089	1490.8294	1500.1934	1509.4078	1525.7453	1620.7722	1773.1714	3019.9619	3042.3533	3084.716	3114.0284	3129.9518	3132.5526	3136.0667	3207.9939	3216.2088	3229.9461	3581.8008	3693.7016
CCN(C1CC1)C(N)=O	CCN(C1CC1)C(=O)N	
InChI=1S/C6H12N2O/c1-2-8(6(7)9)5-3-4-5/h5H,2-4H2,1H3,(H2,7,9)	InChI=1S/C6H12N2O/c1-2-8(6(7)9)5-3-4-5/h5H,2-4H2,1H3,(H2,7,9)
