20
gdb 14742	11.56265	0.56282	0.54583	1.0567	82.	-0.2428	0.0622	0.305	2065.1769	0.174018	-348.980945	-348.97031	-348.969366	-349.019427	35.039	
C	-0.1093805494	 1.5334787888	 0.0111305754	-0.38445
C	-0.0225015712	 0.0166490734	 0.0023215587	-0.028994
O	-1.333585634	-0.5099870906	 0.0122564052	-0.23978
C	-1.3714094832	-1.9179097937	 0.0049911827	-0.04242
C	-2.843074355	-2.3455001022	 0.0166394909	-0.350496
C	-3.000082698	-3.7947722549	 0.0104670033	 0.038189
C	-3.0992869545	-4.9947012232	 0.0049846499	 0.073265
C	-3.2352999756	-6.4445562913	-0.0016962302	-0.496422
H	 0.8925011514	 1.9731217389	 0.0038046468	 0.114121
H	-0.6527438838	 1.8916097267	-0.8678923308	 0.126434
H	-0.6356843842	 1.8822806123	 0.9041739116	 0.126437
H	 0.5215482299	-0.3348106812	-0.8910499803	 0.085506
H	 0.5387267732	-0.3441072206	 0.8812460125	 0.085506
H	-0.8693110849	-2.3217119011	-0.8892128319	 0.094127
H	-0.8524804489	-2.3313282558	 0.8850859273	 0.094129
H	-3.3227230482	-1.9093715659	 0.9014063206	 0.133226
H	-3.3393252127	-1.9000490281	-0.8542266464	 0.133221
H	-4.2891120643	-6.7446502783	 0.0080543817	 0.147262
H	-2.7753064937	-6.8854474222	-0.8931564877	 0.145571
H	-2.7561539729	-6.8953474412	 0.8745987808	 0.145567
9.7565	46.3735	68.1572	92.7545	133.0004	172.6434	223.5902	249.5816	281.8942	378.947	395.044	422.3396	534.2603	774.4925	796.0342	822.5488	903.0724	1043.0775	1052.195	1054.5438	1055.2619	1087.3821	1146.5761	1162.6273	1173.948	1186.5456	1232.3444	1296.7874	1300.6867	1310.6046	1388.0026	1406.6677	1415.6508	1448.5632	1478.9749	1479.2158	1479.8912	1483.6953	1499.831	1516.4918	1538.7522	2376.0031	2950.6682	2968.2638	2976.8579	2995.1774	3025.41	3028.9785	3044.8412	3064.7763	3084.9658	3085.6467	3119.3155	3121.4325
CCOCCC#CC	CCOCCC#CC	
InChI=1S/C7H12O/c1-3-5-6-7-8-4-2/h4,6-7H2,1-2H3	InChI=1S/C7H12O/c1-3-5-6-7-8-4-2/h4,6-7H2,1-2H3
