18
gdb 66517	4.24495	1.61364	1.47412	0.8832	82.44	-0.2062	-0.0448	0.1614	938.8296	0.147811	-364.677975	-364.671004	-364.67006	-364.708718	28.954	
C	 0.1569535152	 1.4912455062	-0.0235159254	-0.528847
C	-0.1056991182	 0.0259169175	-0.0914293755	 0.372923
C	 0.1794819422	-1.0154433179	-1.0939935963	-0.136929
N	 0.8767111675	-1.03516648	 0.3322085472	-0.227472
C	-0.1932074483	-1.6455249945	 1.2879341274	 0.045136
C	-0.6156717841	-3.1414960398	 1.1305254725	-0.266953
C	-0.9070937629	-3.1411025132	-0.3692006073	-0.099241
C	-1.0193607767	-1.8484031088	-0.7395984634	 0.048076
C	-1.2300705436	-0.8840912561	 0.4741654152	-0.178198
H	 1.1447171057	 1.7196817648	-0.4354257752	 0.134
H	-0.591565121	 2.0515751497	-0.5945446752	 0.124818
H	 0.1310381692	 1.8492369924	 1.0117554025	 0.125317
H	 0.8762180347	-1.040094126	-1.9224964473	 0.104337
H	 0.0676777514	-1.3244734999	 2.2998333714	 0.07483
H	 0.1732091101	-3.8740673927	 1.3358549515	 0.119999
H	-1.4401617472	-3.355894124	 1.8256635814	 0.114157
H	-0.4932710061	-3.9101372556	-1.014357567	 0.103655
H	-2.2289337278	-0.6040055921	 0.8077269636	 0.070391
200.1924	215.0933	230.7947	303.2152	368.5853	527.8825	538.0137	558.1122	633.3204	680.3037	768.4398	781.2597	802.9021	817.3997	870.4042	904.6887	915.8166	922.5776	944.3493	1001.4487	1007.4494	1041.2278	1048.3744	1100.6593	1115.7833	1147.5504	1170.0636	1197.6389	1235.8001	1240.4925	1255.2176	1279.7492	1323.3127	1402.1812	1453.6842	1458.0793	1483.3039	1489.6617	1581.1458	3004.2956	3028.8084	3068.6575	3081.7281	3092.0034	3107.8307	3114.423	3169.5901	3197.8433
CC12C3N1C1CC=C3C21	C[C@@]12[C@H]3N1[C@@H]1C[CH][C]3[C@H]21	
InChI=1S/C8H9N/c1-8-6-4-2-3-5(6)9(8)7(4)8/h2,5-7H,3H2,1H3	InChI=1S/C8H9N/c1-8-6-4-2-3-5(6)9(8)7(4)8/h2,5-7H,3H2,1H3/t5-,6+,7+,8-,9?/m1/s1
