19
gdb 96563	2.36903	1.52852	1.0966	1.3701	66.88	-0.2524	0.0565	0.309	1122.7365	0.160325	-497.283193	-497.274654	-497.27371	-497.316375	32.698	
O	 0.3782765897	 1.0367930135	-0.7482750566	-0.445021
C	 0.1031783646	-0.1720376858	-0.055982533	 0.102602
C	 0.7982727737	-0.0515007875	 1.3183677739	-0.102237
O	 0.050918154	-0.550356641	 2.4175055905	-0.233699
C	-0.926498782	 0.3206513655	 2.9226264013	 0.009602
O	-2.1660023012	 0.2267390342	 2.2775327224	-0.226885
C	-2.1510594744	 0.6150106107	 0.9158502903	-0.118671
C	-1.4157031639	-0.4020021537	 0.024725292	 0.086752
O	-1.8464522818	-0.2937759761	-1.3328400728	-0.452603
H	-0.1502804287	 1.0040325908	-1.5557500222	 0.293495
H	 0.5210499543	-1.0235946047	-0.6143119033	 0.075303
H	 1.7366540494	-0.6111507128	 1.315850076	 0.114949
H	 1.0367895576	 1.0107689764	 1.4670516851	 0.113804
H	-1.1125975699	 0.0223540829	 3.9569994879	 0.115572
H	-0.5519729111	 1.3595465979	 2.8827994789	 0.082574
H	-3.2024370804	 0.6650623312	 0.6113885069	 0.093787
H	-1.7113571146	 1.6148443797	 0.7830049625	 0.109983
H	-1.610011141	-1.4059717852	 0.4244197669	 0.089403
H	-2.7961565443	-0.4412934962	-1.3693154568	 0.291289
64.8413	148.1319	231.6955	258.6759	284.7805	323.6293	342.6885	416.9089	420.4798	459.368	479.6116	590.1866	608.6478	652.0555	813.4615	938.1264	962.1779	993.6592	1000.0371	1028.4321	1074.4448	1094.6316	1108.0991	1128.0777	1143.4474	1205.5541	1229.9348	1268.7735	1279.613	1312.9488	1335.1512	1344.1634	1357.6808	1396.4375	1421.4157	1430.9287	1438.2806	1448.0976	1489.7854	1493.5485	1506.5598	2942.5983	2979.5904	2999.7953	3014.6968	3027.863	3066.0325	3099.6989	3105.5203	3782.5246	3831.2232
OC1COCOCC1O	O[C@H]1COCOC[C@H]1O	
InChI=1S/C5H10O4/c6-4-1-8-3-9-2-5(4)7/h4-7H,1-3H2	InChI=1S/C5H10O4/c6-4-1-8-3-9-2-5(4)7/h4-7H,1-3H2/t4-,5+
