20
gdb 17661	3.70631	1.52854	1.45975	1.4217	74.75	-0.2474	0.0709	0.3184	982.7304	0.177004	-348.980966	-348.972867	-348.971922	-349.013233	31.662	
O	-0.300629109	 1.5863162472	-0.1810278953	-0.484943
C	 0.0527106127	 0.2230437684	-0.0819130341	 0.391805
C	 1.1424554065	-0.3136166073	-1.0643576257	-0.269757
C	 1.7707083001	-1.1018680952	 0.1167662997	-0.213511
C	 0.9812000477	-0.197871943	 1.1019470871	-0.269731
C	-1.2272608068	-0.5835548889	-0.1340711999	 0.014759
C	-2.4931500403	-0.0744880246	 0.503770542	-0.276975
C	-2.381534589	-0.1543848304	-1.0012330173	-0.276985
H	 0.5073119108	 2.1067844161	-0.1490364042	 0.275057
H	 0.7987452437	-0.8680855686	-1.9410628264	 0.101247
H	 1.7956287347	 0.4996079395	-1.399447619	 0.08583
H	 1.4331978444	-2.1409375898	 0.1471638403	 0.106912
H	 2.8593212858	-1.0940613134	 0.1973635256	 0.0981
H	 1.5840914637	 0.6514249013	 1.4417389008	 0.085835
H	 0.5074316741	-0.6590526625	 1.9720263026	 0.101247
H	-1.0541210194	-1.653898342	-0.0643417588	 0.077398
H	-3.1322366549	-0.7850797142	 1.0165384905	 0.101505
H	-2.4616233781	 0.9140733864	 0.9456078481	 0.125344
H	-2.2776808648	 0.782400373	-1.5351942635	 0.125361
H	-2.9437447821	-0.920000022	-1.5247357927	 0.101503
77.0282	139.7938	204.9343	258.3928	272.5843	343.0598	358.1982	464.2955	493.5816	657.935	693.8421	785.8758	794.4101	813.6103	826.4143	888.8602	928.711	933.2216	953.053	983.8019	1027.065	1057.5253	1066.9295	1069.4207	1085.8155	1107.7364	1138.6889	1193.7512	1203.886	1212.3157	1222.317	1231.8263	1242.8631	1269.0674	1285.3134	1354.8117	1445.2494	1459.3923	1470.043	1485.3461	1502.2926	1505.3937	3040.1037	3045.7424	3066.3385	3099.5894	3103.7876	3121.1132	3136.6652	3138.3065	3146.5317	3222.6766	3236.2434	3830.1136
OC1(CCC1)C1CC1	OC1(CCC1)C1CC1	
InChI=1S/C7H12O/c8-7(4-1-5-7)6-2-3-6/h6,8H,1-5H2	InChI=1S/C7H12O/c8-7(4-1-5-7)6-2-3-6/h6,8H,1-5H2
