14
gdb 49101	2.0145	1.60856	0.90452	1.8959	74.51	-0.2716	-0.1086	0.163	1184.3388	0.100351	-436.70996	-436.701673	-436.700729	-436.744051	28.2	
O	 0.0043089489	-0.04782002	-0.014273781	-0.246471
C	 0.0042738889	 1.1623509022	-0.0049889354	 0.057361
C	 1.2456749709	 1.9480563494	 0.0288964461	 0.101268
C	 1.362896815	 3.2874377572	 0.0407050629	 0.09206
C	 2.8268620799	 3.6661407221	 0.0760208062	-0.155189
O	 3.5233731592	 2.4325995473	 0.0844619574	-0.264004
C	 2.6166132181	 1.3321756141	 0.0553374003	-0.148601
C	 0.3161948343	 4.243002593	 0.0236992485	 0.223252
N	-0.5139231641	 5.0510328617	 0.010587761	-0.321417
H	-0.9350063153	 1.7505515294	-0.0218148232	 0.109504
H	 3.1081862369	 4.2674357848	-0.8013417917	 0.13733
H	 3.0684660948	 4.2567855109	 0.9722075268	 0.137403
H	 2.7584557085	 0.6945730835	 0.9387942051	 0.138782
H	 2.798403594	 0.7080429244	-0.8304522528	 0.138722
52.1102	119.4865	120.1903	150.8683	205.723	266.5401	420.71	445.1161	518.3764	595.6352	603.2328	707.3326	838.4134	943.9735	978.871	1022.9258	1034.1861	1067.3269	1101.8793	1167.4262	1187.6107	1219.6421	1283.6475	1378.3529	1389.4039	1416.9567	1507.6844	1519.0212	1680.8372	1780.0567	2336.8558	2938.1772	2990.8122	3009.505	3015.5639	3034.3817
O=CC1=C(COC1)C#N	O=CC1=C(COC1)C#N	
InChI=1S/C6H5NO2/c7-1-5-3-9-4-6(5)2-8/h2H,3-4H2	InChI=1S/C6H5NO2/c7-1-5-3-9-4-6(5)2-8/h2H,3-4H2
