17
gdb 73760	2.32537	1.58313	0.9585	5.5698	78.97	-0.227	-0.0848	0.1422	1196.9668	0.133882	-421.888078	-421.878873	-421.877929	-421.922746	32.586	
C	 0.0911339123	 1.4979049725	 0.070187269	-0.488314
C	-0.005909781	 0.0105616452	-0.0057643797	 0.183623
C	-1.1274902225	-0.7476974984	 0.0184074502	 0.11652
C	-2.5606174345	-0.335126399	 0.125154204	-0.497025
C	-0.7807722504	-2.176809091	-0.0804277627	 0.241048
O	-1.5279813416	-3.1271957598	-0.0887519656	-0.305663
C	 0.7653276761	-2.2468549969	-0.175034801	 0.314613
O	 1.4186022052	-3.2491483119	-0.2684960118	-0.275911
C	 1.2637026872	-0.8069388885	-0.1251181174	-0.422062
H	 0.703296972	 1.7963970489	 0.9309373185	 0.143573
H	 0.6006558477	 1.8924083045	-0.8183426668	 0.143575
H	-0.8818391205	 1.9844868931	 0.1539831402	 0.137766
H	-3.1243937452	-0.6998475778	-0.7404110605	 0.149095
H	-3.0220828556	-0.7961781457	 1.0052380038	 0.149101
H	-2.6887022394	 0.7466977496	 0.1923519847	 0.123452
H	 1.8404618087	-0.5615346029	-1.0262173403	 0.143303
H	 1.9430120615	-0.657754262	 0.7240851255	 0.143308
53.0533	78.8606	123.3173	148.6963	263.7115	269.9369	298.1889	318.6563	418.8515	497.3027	533.0038	543.4851	611.7934	690.9686	749.4004	842.977	913.2268	958.7456	1025.8442	1041.433	1061.8159	1062.6812	1140.2757	1158.5506	1212.7861	1279.0367	1354.7536	1412.2284	1418.9723	1444.1697	1472.7883	1476.6748	1476.9614	1483.4671	1685.5609	1807.8251	1861.4942	3021.6597	3028.0473	3041.1344	3057.4475	3067.4131	3091.7894	3130.2831	3137.9595
CC1=C(C)C(=O)C(=O)C1	CC1=C(C)C(=O)C(=O)C1	
InChI=1S/C7H8O2/c1-4-3-6(8)7(9)5(4)2/h3H2,1-2H3	InChI=1S/C7H8O2/c1-4-3-6(8)7(9)5(4)2/h3H2,1-2H3
