19
gdb 128093	3.12622	1.22148	0.89133	3.3062	80.6	-0.1815	0.0593	0.2408	1309.0468	0.160165	-415.405213	-415.39516	-415.394216	-415.440073	36.017	
C	-0.0325572821	 1.418257657	 0.2550640632	-0.339337
N	 0.0601840347	-0.0006937103	-0.0396783196	-0.386216
C	-1.0827610896	-0.7839878429	 0.047197123	 0.389964
C	-1.2123943453	-2.1655420076	 0.0312228648	 0.051844
C	-0.1292270674	-3.1925875601	-0.0721902541	-0.53984
C	-2.6169462442	-2.3674161121	 0.0759864166	 0.301072
N	-3.2692501562	-3.6040573537	 0.0033861304	-0.591045
N	-3.3070209798	-1.235479454	 0.1180371931	-0.337551
N	-2.3346309976	-0.267585502	 0.0983228556	-0.287043
H	 0.9634570926	 1.8607160906	 0.1884179609	 0.133411
H	-0.6586501668	 1.9160541858	-0.4945616267	 0.13336
H	-0.4469064301	 1.6407091382	 1.2517914843	 0.116657
H	 0.8609314347	-0.4478717509	 0.3812969193	 0.244658
H	 0.2361560231	-3.5469257659	 0.9024405285	 0.111779
H	-0.4863014279	-4.0715455164	-0.6198466413	 0.134306
H	 0.737714657	-2.804994122	-0.620065189	 0.1174
H	-2.8865575878	-4.288231627	 0.6437816203	 0.239535
H	-4.2615468232	-3.4937125108	 0.1745957735	 0.244698
H	-2.6102378142	 0.6965815641	 0.0967526972	 0.262347
67.689	111.8188	152.3978	175.3014	193.4565	230.9163	242.1992	246.9905	299.868	344.3173	417.6335	515.6578	552.6891	625.8818	672.9482	711.7365	749.3157	778.8075	814.9291	955.8738	1062.57	1065.564	1076.5603	1135.3788	1156.6592	1190.2646	1205.2413	1249.5581	1334.3939	1416.3603	1425.2279	1461.7249	1483.0289	1489.0227	1493.0403	1500.0632	1524.0618	1542.8224	1583.3496	1639.0018	1659.9938	2971.9108	2996.8593	3052.5452	3056.1998	3088.1454	3123.0448	3528.9827	3602.5355	3621.4457	3708.3375
CNC1=C(C)C(N)=NN1	CNc1c(C)c(N)n[nH]1	
InChI=1S/C5H10N4/c1-3-4(6)8-9-5(3)7-2/h1-2H3,(H4,6,7,8,9)	InChI=1S/C5H10N4/c1-3-4(6)8-9-5(3)7-2/h1-2H3,(H4,6,7,8,9)
