19
gdb 122613	3.76729	0.72658	0.63831	4.6667	71.97	-0.2687	0.0092	0.2779	1710.3306	0.158532	-460.182959	-460.173422	-460.172478	-460.218632	33.318	
O	-0.1286477635	 1.4985847643	 0.1024757547	-0.418682
C	 0.0091604244	 0.0886973354	 0.0392201047	-0.075995
C	-1.3892534928	-0.5150017943	 0.0360233108	-0.171135
C	-1.3716654212	-2.0422492497	-0.09387779	-0.223651
C	-2.7738989562	-2.6470764335	-0.0341735687	-0.186406
C	-2.9270898368	-4.1774474815	 0.0697304198	-0.107994
O	-3.5849826471	-4.0362891251	 1.3703824837	-0.238482
C	-3.451864418	-2.6696990578	 1.3424772753	 0.46076
O	-3.7754578447	-1.8914708833	 2.1812015501	-0.321393
H	 0.7499520579	 1.8867014586	 0.1457557878	 0.286775
H	 0.5509922038	-0.2192199808	-0.8713362454	 0.080647
H	 0.5780913583	-0.2978122646	 0.900854716	 0.087599
H	-1.9067180515	-0.2246922508	 0.956209249	 0.141239
H	-1.9535856898	-0.0750311384	-0.7954279576	 0.107294
H	-0.9019247663	-2.3342075891	-1.042201845	 0.105237
H	-0.7571504631	-2.4797136327	 0.7043082332	 0.107875
H	-3.4223905973	-2.1968201879	-0.7920731889	 0.115757
H	-3.5922699157	-4.6571841598	-0.6507369694	 0.126116
H	-1.9970305005	-4.7422632389	 0.1699324798	 0.124438
58.2032	80.1007	91.3483	134.6779	172.3852	219.4375	261.716	309.818	348.5375	462.182	522.1988	705.5181	761.8216	763.5762	820.6149	878.9578	927.1476	958.6033	998.0738	1041.5787	1068.4171	1094.4272	1096.5933	1119.77	1149.1447	1165.3358	1202.875	1231.3821	1251.4822	1290.3046	1309.1497	1322.8038	1335.9115	1370.306	1394.2404	1466.1864	1490.0695	1504.7831	1517.1219	1529.7206	1930.8864	2952.6316	2979.6917	3013.0719	3038.4601	3046.7733	3068.4096	3074.0635	3095.0958	3129.986	3832.0823
OCCCC1COC1=O	OCCC[C@H]1COC1=O	
InChI=1S/C6H10O3/c7-3-1-2-5-4-9-6(5)8/h5,7H,1-4H2	InChI=1S/C6H10O3/c7-3-1-2-5-4-9-6(5)8/h5,7H,1-4H2/t5-/m0/s1
