21
gdb 76172	2.05646	1.42097	1.18095	1.0841	86.71	-0.2323	0.0357	0.268	1210.3955	0.177822	-387.050623	-387.039703	-387.038759	-387.08553	40.703	
C	-0.0483976139	 1.5157713049	 0.1383796938	-0.427148
C	 0.0234681412	 0.014161061	-0.0279687725	-0.114359
C	 0.6809952866	-0.6731994037	-1.210124812	 0.252883
C	 0.0247941267	-1.9390348883	-1.7299858812	-0.455153
C	 1.3492908218	 0.1494016299	-2.2976193064	-0.448211
C	 1.3572677349	-0.7229731562	 0.1569328966	 0.141672
O	 2.5238781999	 0.0569634934	 0.2629934155	-0.459123
C	 1.3915384339	-1.9373901676	 0.9291383015	 0.316242
C	 1.4385716591	-2.9273613753	 1.6125515788	-0.4666
H	 0.9097196056	 1.9916275209	-0.0783834512	 0.13176
H	-0.8038677468	 1.9505716518	-0.5251544509	 0.119863
H	-0.3252997338	 1.7757572523	 1.1660577317	 0.11599
H	-0.8335223613	-0.5198622025	 0.3753955584	 0.088073
H	-0.767376227	-1.6874525472	-2.4447567904	 0.112533
H	 0.7526486826	-2.5744198404	-2.2470902784	 0.118872
H	-0.4181737442	-2.529138356	-0.9245726526	 0.125117
H	 1.8999156377	 1.0013372695	-1.9011817204	 0.136459
H	 2.0578912606	-0.4699710083	-2.8582275818	 0.119097
H	 0.5985229632	 0.5171677187	-3.0065670401	 0.111191
H	 2.6530978304	 0.2590202273	 1.1965589206	 0.287578
H	 1.4824884725	-3.8091951943	 2.2023809011	 0.193265
116.51	134.0831	145.6805	153.8468	189.4502	214.6057	216.0152	275.0562	293.122	308.9622	356.9888	411.2181	440.9332	512.3947	554.6757	571.3799	590.719	671.818	678.7484	722.6377	796.7198	965.8232	970.6172	977.684	1017.079	1042.3518	1081.4904	1123.9155	1150.2865	1159.4362	1198.2986	1279.8632	1289.4295	1360.2342	1402.8243	1411.0805	1421.7577	1440.7172	1479.5486	1487.1425	1491.4437	1500.8674	1506.6114	1516.8172	2223.7763	3027.5923	3032.7158	3035.8101	3085.5423	3087.623	3089.2582	3121.4378	3125.0701	3140.7617	3155.7515	3501.5608	3796.9365
CC1C(C)(C)C1(O)C#C	C[C@H]1C(C)(C)[C@]1(O)C#C	
InChI=1S/C8H12O/c1-5-8(9)6(2)7(8,3)4/h1,6,9H,2-4H3	InChI=1S/C8H12O/c1-5-8(9)6(2)7(8,3)4/h1,6,9H,2-4H3/t6-,8-/m0/s1
