14
gdb 49820	3.45867	1.15301	0.87776	2.3813	64.26	-0.2574	-0.1147	0.1427	1208.267	0.099622	-473.868377	-473.86018	-473.859235	-473.902971	28.341	
O	 0.0069984154	-0.0170161133	 0.1126243137	-0.323923
C	 0.0341752182	 1.1938541442	 0.0751519046	 0.151654
N	 1.1714431016	 1.925465222	-0.0810171673	-0.08538
C	 2.4733664664	 1.2667753248	-0.1642069194	-0.284804
C	 3.4853495627	 2.3889407183	-0.0270335946	 0.30282
O	 4.6794596181	 2.3027461315	 0.0172383384	-0.258764
C	 2.6925957799	 3.727983608	 0.0295573604	 0.308778
O	 3.1801645698	 4.8166477328	 0.1334704423	-0.256556
C	 1.2134372755	 3.3846790011	-0.0939544478	-0.296836
H	-0.8665512052	 1.8317853531	 0.1683064139	 0.08409
H	 2.589895314	 0.5214576807	 0.629504113	 0.174698
H	 2.613477637	 0.7404572059	-1.1178099668	 0.163832
H	 0.8225163717	 3.8161055309	-1.0263418817	 0.157677
H	 0.6535559149	 3.8268808299	 0.7374850714	 0.162714
20.484	86.0443	148.4179	197.8269	312.7601	326.6709	343.7142	434.5243	534.1938	580.4042	623.1975	706.8084	744.9292	874.6929	894.0238	1019.5106	1036.1678	1067.0662	1144.4774	1178.0808	1189.2657	1214.592	1291.8838	1320.1702	1393.27	1439.9428	1470.5431	1481.897	1796.5652	1855.0749	1876.072	2944.4358	3008.8696	3026.9808	3066.887	3078.634
O=CN1CC(=O)C(=O)C1	O=CN1CC(=O)C(=O)C1	
InChI=1S/C5H5NO3/c7-3-6-1-4(8)5(9)2-6/h3H,1-2H2	InChI=1S/C5H5NO3/c7-3-6-1-4(8)5(9)2-6/h3H,1-2H2
