13
gdb 44451	3.2774	1.91583	1.68651	4.2675	56.1	-0.2501	-0.0075	0.2426	797.9164	0.091269	-493.699866	-493.694115	-493.69317	-493.729998	23.103	
O	-0.0050400713	 0.0047678162	-0.2709456084	-0.338554
C	 0.0139893493	 1.1671726683	 0.004276655	 0.515216
O	-1.1266415798	 1.8546864651	 0.3061065058	-0.230257
C	-0.9476191742	 3.218688562	 0.6102484841	 0.031777
C	 0.1377024035	 3.9853409154	-0.1205260338	 0.00392
O	 1.0335824145	 3.1554897547	-0.8210734287	-0.233678
C	 1.243568792	 2.0712376069	 0.0718413154	-0.059601
O	 1.2986715759	 2.6307932098	 1.3760097427	-0.233676
C	 0.3140016416	 3.6363751585	 1.3406980339	 0.003922
H	-1.8919764433	 3.6968743023	 0.8383904075	 0.135602
H	 0.0113058161	 4.9650178051	-0.5591965732	 0.134307
H	 2.1655218463	 1.5441868355	-0.1652670971	 0.136714
H	 0.3425026993	 4.3094444201	 2.1858846369	 0.134308
154.0047	302.6053	404.4719	429.6627	560.5988	585.3383	723.3435	737.0935	754.8764	771.5166	799.3751	819.8604	894.3613	909.1704	971.595	1037.8996	1058.8121	1075.623	1098.5308	1104.0024	1126.2946	1172.1901	1222.3763	1250.9703	1303.2426	1343.1169	1347.203	1412.8718	1886.4162	3160.1217	3196.3577	3220.3089	3228.2889
O=C1OC2C3OC1OC23	O=C1O[C@@H]2[C@@H]3O[C@H]1O[C@H]23	
InChI=1S/C5H4O4/c6-4-5-8-2-1(7-4)3(2)9-5/h1-3,5H	InChI=1S/C5H4O4/c6-4-5-8-2-1(7-4)3(2)9-5/h1-3,5H/t1-,2+,3-,5+
