17
gdb 76395	2.78149	1.24619	1.15911	11.9633	65.99	-0.1915	0.0085	0.2	1120.0098	0.136001	-492.248184	-492.239639	-492.238694	-492.281401	32.113	
N	-0.2214443088	 1.508268086	-0.0763191815	-0.537875
C	 0.0386333563	 0.0858444211	-0.0650086011	-0.105041
C	-1.2319155867	-0.7576568114	 0.1065322926	-0.160636
N	-2.4179538588	 0.1207611142	 0.0102675215	-0.401107
H	-1.994338667	 1.0897403877	 0.1146460362	 0.304509
H	-2.7633829213	 0.0651897367	-0.962754508	 0.314773
H	-3.1460036302	-0.0750666256	 0.6915800131	 0.307747
C	-0.4926996381	-0.7191719581	-1.2109625126	 0.282407
O	-1.1519239813	-0.079641375	-2.2480591401	-0.509881
C	 0.2320044953	-2.000291832	-1.7040526475	 0.354312
O	 0.0212411892	-2.1505557471	-2.9351827601	-0.501002
O	 0.8495015174	-2.6488014931	-0.8583797542	-0.468632
H	 0.3204764981	 1.9999693901	 0.6236549479	 0.257209
H	-0.0190397412	 1.9009171019	-0.9912196387	 0.271674
H	 0.9369772885	-0.2947410613	 0.4090852775	 0.138618
H	-1.321944209	-1.6354593283	 0.730853967	 0.146362
H	-0.9009604224	-0.7606058459	-2.9618281521	 0.306564
91.4862	140.0803	157.2015	194.7366	263.9471	315.814	365.4704	381.904	476.0143	522.1998	580.0282	676.2078	680.4035	716.8256	774.8721	833.6478	880.2716	897.7064	950.9472	967.6933	1004.9198	1039.3793	1066.7741	1100.9463	1178.6763	1181.7263	1231.3579	1274.3493	1303.0341	1339.4459	1372.297	1438.0886	1481.1311	1546.9475	1630.2282	1690.8795	1807.8272	2855.951	2941.9157	3176.9626	3221.1213	3283.7697	3506.6226	3555.6661	3600.1621
NC1C([NH3+])C1(O)C([O-])=O	N[C@H]1[C@@H]([NH3])[C@]1(O)C(=O)[O]	
InChI=1S/C4H8N2O3/c5-1-2(6)4(1,9)3(7)8/h1-2,9H,5-6H2,(H,7,8)	InChI=1S/C4H8N2O3/c5-1-2(6)4(1,9)3(7)8/h1-2,9H,5H2,6H3/t1-,2+,4-/m0/s1
