18
gdb 64801	3.46537	1.01367	0.95092	0.7982	81.16	-0.2626	-0.0275	0.235	1312.8724	0.144843	-401.904547	-401.895186	-401.894241	-401.938721	35.037	
C	-0.028441484	 1.6626020462	-0.6324789375	-0.462685
C	-0.0412766567	 0.2305766711	-0.1581954707	 0.467087
C	 1.1627072171	-0.6504060548	-0.3126449636	-0.32171
C	 0.7058658016	-0.2099485097	 1.0643859026	-0.292835
O	-1.2556070501	-0.4651131893	-0.4420189712	-0.279784
C	-2.3438142791	-0.1865639087	 0.3041719924	 0.232864
N	-2.351403617	 0.6757027365	 1.2402084124	-0.526205
C	-3.4678330778	-0.9891459167	-0.1012533518	 0.283183
C	-4.4373091512	-1.634586876	-0.3993426988	-0.412931
H	 0.964867606	 2.0949301673	-0.4823096559	 0.116471
H	-0.2636572955	 1.7135502196	-1.7007715038	 0.121341
H	-0.7544181299	 2.2616141981	-0.0789467468	 0.149274
H	 0.9825521502	-1.6823120267	-0.5906660889	 0.124603
H	 2.0608439269	-0.2132913658	-0.7348119972	 0.113746
H	 1.283638735	 0.535367754	 1.5994672885	 0.118952
H	 0.2323282091	-0.9511191797	 1.696386724	 0.124826
H	-3.2731314494	 0.7172937023	 1.6693877469	 0.234189
H	-5.2915519955	-2.207530188	-0.6658876906	 0.209616
64.1632	106.3264	134.8345	210.6477	222.3085	280.7617	315.5167	327.7769	407.7374	443.2987	508.6269	591.0818	658.8132	661.8624	731.7724	740.9506	766.2753	849.4291	869.1884	873.836	938.1641	946.9701	981.4635	1039.8233	1069.0824	1077.5065	1107.6891	1141.633	1186.3134	1266.6619	1351.9545	1377.0159	1413.8929	1457.3929	1479.4232	1497.5668	1513.0552	1679.1541	2234.9126	3042.5757	3110.5078	3134.565	3138.7322	3145.2995	3223.6308	3237.8426	3499.3464	3521.3307
CC1(CC1)OC(=N)C#C	CC1(CC1)O[C]([NH])C#C	
InChI=1S/C7H9NO/c1-3-6(8)9-7(2)4-5-7/h1,8H,4-5H2,2H3	InChI=1S/C7H9NO/c1-3-6(8)9-7(2)4-5-7/h1,8H,4-5H2,2H3
