14
gdb 99446	3.35682	0.72598	0.61411	4.3334	82.67	-0.2808	-0.0498	0.2311	1687.1306	0.098804	-399.489432	-399.480029	-399.479084	-399.524438	32.867	
O	 0.0793518655	 1.3969133755	 0.0060441888	-0.403483
C	 0.0613310823	-0.0038452653	 0.0281019253	-0.060694
C	-1.4063919832	-0.5526173941	 0.0081462476	-0.390603
C	-2.0971026099	-0.0833448231	-1.1953843126	 0.310014
C	-2.6102751733	 0.3474651664	-2.1925292914	-0.436162
C	-1.4173256101	-2.0079400098	 0.1137129172	 0.12091
C	-1.3800361519	-3.2104969547	 0.2143297132	 0.056255
C	-1.3467738764	-4.5709948483	 0.3266225578	 0.209659
N	-1.3169395778	-5.728135573	 0.4228104607	-0.331473
H	-0.3132760812	 1.6834178086	-0.8275549152	 0.294294
H	 0.6108822351	-0.4513699766	-0.811162347	 0.117954
H	 0.5355494768	-0.318368304	 0.9609839701	 0.134423
H	-1.9089551928	-0.1324420857	 0.8905763	 0.16233
H	-3.0915356432	 0.7074684941	-3.0690366945	 0.216575
66.3485	79.5461	118.3983	169.399	204.7842	222.6998	347.3622	355.281	409.0452	441.4524	515.9109	546.1174	582.6154	591.8089	649.5855	679.686	792.4342	839.7892	1016.0943	1030.2527	1098.4988	1170.7752	1196.9476	1267.6061	1326.3265	1386.0437	1420.2139	1503.9496	2239.2873	2268.511	2404.1908	3011.1287	3023.6007	3108.5524	3498.4791	3787.2527
OCC(C#C)C#CC#N	OC[C@@H](C#C)C#CC#N	
InChI=1S/C7H5NO/c1-2-7(6-9)4-3-5-8/h1,7,9H,6H2	InChI=1S/C7H5NO/c1-2-7(6-9)4-3-5-8/h1,7,9H,6H2/t7-/m0/s1
