17
gdb 126927	5.25038	0.91382	0.786	5.6594	80.11	-0.2242	-0.0462	0.178	1426.8385	0.137644	-414.208761	-414.200334	-414.19939	-414.242977	30.1	
C	-0.0907763029	 1.56896551	 0.0121861048	-0.412201
C	 0.0254244961	 0.0479995747	 0.0033348068	-0.114202
N	-1.2930417569	-0.5603532888	 0.0108222619	-0.368008
C	-1.5497981237	-1.8866797395	 0.0066733843	 0.43222
C	-0.5362171064	-2.8787442673	-0.0047959468	-0.059944
N	-0.8266438577	-4.1649827421	-0.0083550576	-0.170496
N	-2.1083814985	-4.5530038069	-0.001129953	-0.220229
C	-3.0257128165	-3.5870643791	 0.0092165511	 0.10544
N	-2.831874651	-2.2700926798	 0.0137818801	-0.332769
H	 0.9025892668	 2.0235831666	 0.0066305063	 0.136357
H	-0.6322793477	 1.9259923236	-0.8696858542	 0.13379
H	-0.6181837286	 1.9167159186	 0.9062112665	 0.133842
H	 0.5844512877	-0.27652848	-0.8851973543	 0.121398
H	 0.5984142249	-0.2856800634	 0.8794632747	 0.121467
H	-2.1084051122	 0.0339253236	 0.0182307087	 0.253072
H	 0.5188439868	-2.6257012958	-0.0111529002	 0.113534
H	-4.0584955303	-3.9272956043	 0.0152684507	 0.126729
42.6092	65.7475	149.3665	189.4886	263.8839	327.3553	372.7515	453.6631	460.257	566.1606	617.0548	698.6989	815.4723	821.3113	869.8811	906.8679	959.7187	1001.8165	1023.4915	1060.9053	1078.4564	1167.0247	1174.7055	1198.5658	1289.5854	1304.0844	1334.9994	1373.9312	1413.624	1424.5974	1464.6514	1494.1639	1502.9852	1519.9354	1531.4539	1587.1981	1610.9101	3001.0184	3026.6851	3042.6725	3111.8043	3129.3321	3168.3715	3182.6202	3618.8536
CCNC1=CN=NC=N1	CCNc1cnncn1	
InChI=1S/C5H8N4/c1-2-6-5-3-8-9-4-7-5/h3-4H,2H2,1H3,(H,6,7,9)	InChI=1S/C5H8N4/c1-2-6-5-3-8-9-4-7-5/h3-4H,2H2,1H3,(H,6,7,9)
