18
gdb 63336	2.47578	1.48816	1.17345	1.906	73.61	-0.2565	-0.0402	0.2163	1111.0012	0.145507	-439.137888	-439.128795	-439.127851	-439.172232	33.589	
C	-0.1331628127	 1.6167537728	 0.1703208352	-0.409684
C	 0.0136604767	 0.1026699252	 0.0136620865	 0.223484
C	-1.3314435413	-0.5967365235	-0.1864557842	-0.409687
O	 0.8654656675	-0.1756187478	-1.120707526	-0.265875
C	 2.0110433308	-0.8491214643	-0.7883272882	 0.391728
N	 2.8975517874	-1.1956140038	-1.6152856914	-0.533009
C	 2.0502390953	-1.109550822	 0.696384957	-0.433139
C	 0.7626585858	-0.4967046549	 1.2168785176	 0.381764
O	 0.3656450451	-0.4647220289	 2.3509216433	-0.318447
H	 0.8450233266	 2.0962697328	 0.2674620813	 0.12706
H	-0.6381982664	 2.037572894	-0.7033534873	 0.131576
H	-0.719965918	 1.8386869996	 1.065164571	 0.143863
H	-1.8419433357	-0.1858585011	-1.0616844118	 0.131571
H	-1.1943643612	-1.67093521	-0.3398330455	 0.127063
H	-1.9580103541	-0.4484120886	 0.696578996	 0.143864
H	 2.6387802655	-0.9034103557	-2.5596460271	 0.223877
H	 2.0962784241	-2.1789590004	 0.9219029604	 0.171995
H	 2.9235870944	-0.6499609635	 1.1682514233	 0.171996
43.8418	68.5607	203.2238	207.2693	233.1107	290.5671	313.8467	385.5933	415.9247	478.5245	549.7065	587.849	595.9464	613.9064	717.0304	847.448	896.7078	916.7304	919.6804	949.4011	968.0994	1019.6451	1070.9807	1124.9173	1126.5276	1182.4759	1210.6666	1242.3346	1280.998	1335.6573	1391.6495	1410.7372	1419.3522	1475.4852	1480.5092	1495.6886	1505.4977	1779.7706	1860.6247	3044.9305	3047.8756	3071.7434	3109.3484	3120.1693	3122.1745	3131.5692	3136.7859	3469.2926
CC1(C)OC(=N)CC1=O	CC1(C)O[C]([NH])CC1=O	
InChI=1S/C6H9NO2/c1-6(2)4(8)3-5(7)9-6/h7H,3H2,1-2H3	InChI=1S/C6H9NO2/c1-6(2)4(8)3-5(7)9-6/h7H,3H2,1-2H3
