15
gdb 133691	2.57814	1.16328	0.96581	3.1873	57.13	-0.276	0.0136	0.2896	1205.0898	0.107166	-585.454046	-585.444848	-585.443903	-585.489	32.021	
C	-0.2251561772	 1.806557526	-0.0578951911	-0.413562
C	 0.0777969738	 0.3168082606	-0.011718887	-0.03333
O	 0.8841076019	 0.0580396444	 1.1262032025	-0.188406
C	 1.7524187652	-0.9822384972	 1.0634544288	 0.128489
N	 2.4118071177	-1.2994515237	 2.0872669458	-0.433569
C	-1.202993407	-0.5223579446	 0.082898155	 0.284687
F	-1.9482039013	-0.3515315301	-1.0206303453	-0.075745
F	-0.911607725	-1.8279740301	 0.1801312228	-0.077604
F	-1.9442896343	-0.1884951815	 1.139878414	-0.065123
H	 0.7061213365	 2.3659743833	-0.1649181895	 0.139027
H	-0.8785647085	 2.0354259188	-0.9026419413	 0.139925
H	-0.7170761532	 2.1164895605	 0.8665264158	 0.154344
H	 0.5879840974	-0.0057866734	-0.9292337253	 0.109398
H	 1.8036828131	-1.4508307659	 0.0726812127	 0.096764
H	 3.0350946509	-2.0755777972	 1.8753823722	 0.234705
57.3458	71.2645	123.7652	204.9145	224.5968	225.5048	269.6307	344.7186	377.9028	486.835	524.4007	573.0642	640.955	675.4347	810.2732	822.0423	920.8339	1019.8184	1036.0453	1073.0414	1141.2946	1158.3343	1187.5006	1210.7559	1282.3374	1302.1613	1357.0285	1394.0708	1411.3277	1428.0983	1487.2855	1499.6202	1751.5872	3026.0006	3042.4785	3063.1819	3145.0518	3146.9983	3522.9396
CC(OC=N)C(F)(F)F	C[C@@H](O[CH][NH])C(F)(F)F	
InChI=1S/C4H6F3NO/c1-3(9-2-8)4(5,6)7/h2-3,8H,1H3	InChI=1S/C4H6F3NO/c1-3(9-2-8)4(5,6)7/h2-3,8H,1H3/t3-/m1/s1
