17
gdb 71562	3.02951	1.6635	1.49167	3.5902	71.32	-0.228	-0.0177	0.2102	941.7845	0.136483	-421.797176	-421.790108	-421.789164	-421.82836	28.443	
C	-0.0530300644	 1.5496063956	 0.0587948941	-0.511555
C	-0.0515535699	 0.0446994526	 0.050918799	 0.303263
C	-1.3039675321	-0.8450708124	 0.2349862949	-0.303471
C	-0.2773218575	-1.9857817043	 0.5429524594	-0.219474
C	 0.7342198093	-0.8666144274	 1.0301705778	 0.080818
O	 1.9072997538	-0.9008848674	 0.1920884406	-0.300795
C	 0.9557908894	-0.7220017635	-0.9064891552	-0.102658
C	 0.3072850627	-2.1164259849	-0.8663253533	 0.489584
O	 0.2575263743	-2.9953843009	-1.6766721738	-0.334645
H	 0.9698772959	 1.9375478004	 0.1002649678	 0.136967
H	-0.5310436391	 1.9494168512	-0.842391919	 0.126992
H	-0.5999959267	 1.935864323	 0.9256346485	 0.122169
H	-1.8640062989	-0.5419367446	 1.1241962768	 0.111817
H	-1.9934367634	-0.9963896058	-0.6005809609	 0.115917
H	-0.5290976086	-2.8835707216	 1.0991865362	 0.094705
H	 0.915942807	-0.7026441664	 2.0914995004	 0.095124
H	 1.3826859683	-0.3248269036	-1.8248751833	 0.095243
141.9327	226.2314	243.2845	258.7355	391.392	440.9899	498.6762	540.964	660.3831	703.3231	767.3622	790.7103	811.8897	849.1544	865.0272	908.5574	920.5364	950.5841	968.4406	1002.4592	1069.7026	1093.8103	1111.81	1137.7819	1157.679	1195.3944	1203.2883	1211.4007	1235.848	1254.9798	1303.0177	1356.3522	1413.902	1490.8027	1491.8258	1500.846	1895.578	3029.4009	3051.7812	3094.4287	3104.6037	3107.6876	3130.5366	3153.9985	3172.0427
CC12CC3C1OC2C3=O	C[C@]12C[C@@H]3[C@H]1O[C@H]2C3=O	
InChI=1S/C7H8O2/c1-7-2-3-4(8)6(7)9-5(3)7/h3,5-6H,2H2,1H3	InChI=1S/C7H8O2/c1-7-2-3-4(8)6(7)9-5(3)7/h3,5-6H,2H2,1H3/t3-,5+,6-,7-/m0/s1
