21
gdb 90931	2.86912	1.39676	1.3712	1.3566	80.87	-0.2355	0.0744	0.31	1084.103	0.183874	-387.071901	-387.063874	-387.06293	-387.103802	32.876	
C	-0.14577964	 1.590602962	-0.0072872536	-0.411317
C	 0.0391092631	 0.0739310743	 0.0034395686	 0.047784
C	 0.8648460221	-0.4910567999	-1.1921560208	-0.251286
C	 1.5693151618	-1.7136075032	-0.6083943038	-0.125564
C	 2.5652485503	-1.5074874934	 0.5501131027	-0.115902
C	 2.3030085608	-0.1638659285	 1.2289663083	-0.235921
C	 0.7722901905	-0.5048734173	 1.2286214287	-0.116841
C	 1.1547601349	-1.96178725	 0.8140140101	 0.38075
O	 0.7218816224	-3.1466753756	 1.3732446003	-0.467347
H	 0.8168384015	 2.1114111452	 0.0367327954	 0.116314
H	-0.6567268719	 1.9194637985	-0.9187603232	 0.111781
H	-0.7445078917	 1.92465701	 0.8470044814	 0.110155
H	-0.9563898979	-0.3932013529	-0.023618366	 0.060455
H	 0.2224096578	-0.7582495366	-2.037373425	 0.09273
H	 1.578509823	 0.254329461	-1.5639863399	 0.096997
H	 1.7891061894	-2.5744751451	-1.2307043851	 0.081289
H	 3.4832020432	-2.0826396778	 0.5826837889	 0.084677
H	 2.7110346023	-0.1381012774	 2.2423886749	 0.102913
H	 2.6139703193	 0.744435241	 0.7020872921	 0.089389
H	 0.2553459424	-0.3701784456	 2.1794884079	 0.065573
H	-0.1013976231	-3.4041707187	 0.9439140184	 0.283371
143.1976	211.591	236.0972	253.9754	291.747	317.9436	376.8444	457.9112	500.1464	569.8371	600.7186	688.5042	716.2505	789.5827	833.715	895.2952	897.1906	922.7237	933.9265	966.4757	981.1404	1023.1324	1029.8371	1046.688	1091.5892	1108.1332	1123.0979	1139.2269	1163.3537	1183.9818	1206.6901	1232.3733	1276.1573	1286.6112	1289.4865	1308.4843	1321.7111	1346.542	1369.0137	1412.3398	1467.9473	1491.778	1497.0134	1498.7146	1511.9358	2989.208	3026.7125	3028.6873	3044.1345	3071.2974	3092.9051	3095.1389	3098.1939	3109.1537	3171.4321	3182.6304	3791.1361
CC1CC2C3CC1C23O	C[C@H]1C[C@H]2[C@H]3C[C@@H]1[C@@]23O	
InChI=1S/C8H12O/c1-4-2-6-7-3-5(4)8(6,7)9/h4-7,9H,2-3H2,1H3	InChI=1S/C8H12O/c1-4-2-6-7-3-5(4)8(6,7)9/h4-7,9H,2-3H2,1H3/t4-,5-,6-,7+,8+/m0/s1
