20
gdb 103137	2.28937	1.43127	1.1307	4.2783	75.51	-0.2502	0.0255	0.2757	1173.5076	0.169934	-440.31403	-440.304348	-440.303404	-440.348077	36.119	
C	-0.0571123568	 1.5832704502	-0.1468902827	-0.403959
C	 0.0618761799	 0.0758378586	 0.006829685	 0.011282
N	 1.1689460386	-0.5533839242	-0.7421155117	-0.34839
C	 1.7174544697	-1.1877486193	 0.3385124652	 0.435839
O	 2.5903514949	-2.0156348273	 0.4625912709	-0.394122
C	 0.7087248773	-0.5333409343	 1.3085625355	 0.095181
C	 1.2990139691	 0.4273211656	 2.3349591756	-0.45345
C	-0.1088477048	-1.6499667241	 1.9814309402	-0.100996
O	 0.7092053813	-2.4478489019	 2.8113941329	-0.424828
H	 0.8945597023	 2.083718844	 0.0474820261	 0.128153
H	-0.3741839619	 1.8408759991	-1.1630561984	 0.120176
H	-0.807863209	 1.980336134	 0.5439346604	 0.126899
H	-0.901555753	-0.3988261973	-0.2205699394	 0.085487
H	 1.2759396392	-0.7436482778	-1.729181483	 0.24714
H	 2.0226587105	 1.1168989697	 1.892808869	 0.120589
H	 0.508930932	 1.0179390553	 2.81234976	 0.116467
H	 1.8045174579	-0.1491793987	 3.1128872621	 0.148286
H	-0.8891551413	-1.2223881472	 2.6223382278	 0.104978
H	-0.6114742359	-2.2545717172	 1.2077809333	 0.085863
H	 1.46242643	-2.7325412172	 2.2736717912	 0.299404
94.1208	129.6351	162.6973	212.77	225.1865	232.7044	268.8725	284.3445	318.2605	418.3307	448.5554	518.7112	531.0804	563.6516	705.8731	741.6968	771.8987	828.6013	891.3132	956.6259	980.8927	1035.673	1070.3734	1074.5058	1104.6203	1152.2498	1180.5848	1200.0368	1229.5506	1272.5366	1312.6265	1379.4735	1382.4985	1390.2877	1410.733	1414.6838	1453.367	1482.0892	1491.3905	1498.3822	1507.0691	1511.377	1858.0458	2959.2506	3018.1946	3036.4505	3040.5327	3052.4303	3102.7255	3106.005	3126.5861	3133.4313	3587.8778	3730.878
CC1NC(=O)C1(C)CO	C[C@H]1NC(=O)[C@]1(C)CO	
InChI=1S/C6H11NO2/c1-4-6(2,3-8)5(9)7-4/h4,8H,3H2,1-2H3,(H,7,9)	InChI=1S/C6H11NO2/c1-4-6(2,3-8)5(9)7-4/h4,8H,3H2,1-2H3,(H,7,9)/t4-,6-/m1/s1
