15
gdb 87093	4.52216	0.68054	0.65594	3.3792	78.34	-0.258	-0.064	0.194	1661.8311	0.108867	-457.710228	-457.700752	-457.699808	-457.745299	33.369	
O	 0.0651419193	 1.3749085862	 0.0725819399	-0.423415
C	 0.0762985838	-0.0058231072	 0.1131493432	 0.134436
C	-0.4792596952	-0.761713126	 1.2835458506	-0.369605
C	-1.2632769452	-0.7318088946	-0.0369558477	 0.076508
O	-2.3257074528	 0.1823672361	-0.1194962795	-0.448637
C	-1.3710030221	-1.9146568912	-0.8258001745	 0.121831
C	-1.4830118867	-2.9227023348	-1.4876303501	 0.036681
C	-1.5762706768	-4.1273496087	-2.2637023112	 0.012313
O	-2.5411303384	-4.451394929	-2.9194078453	-0.234303
H	-0.8630165057	 1.6487980559	 0.0654631564	 0.302316
H	 0.9280398023	-0.4274089161	-0.409554772	 0.1272
H	-0.0195502391	-1.698834122	 1.5752010302	 0.134601
H	-0.9160777102	-0.1765692942	 2.0860216421	 0.129955
H	-3.0767441815	-0.165911859	 0.3738292198	 0.301516
H	-0.6679626518	-4.7627661354	-2.2152999218	 0.098602
57.8805	76.3027	113.886	193.5933	216.6824	259.6215	291.0845	320.708	388.6508	400.4347	489.9624	520.3173	566.7121	645.5367	728.3914	803.6826	832.9868	912.7649	1004.3077	1017.3234	1035.5952	1044.5319	1113.1887	1159.7011	1231.4368	1285.7055	1320.895	1368.5666	1420.5547	1428.7951	1462.8863	1761.483	2300.1321	2913.2955	3135.655	3177.9	3235.8549	3745.7829	3804.137
OC1CC1(O)C#CC=O	O[C@H]1C[C@]1(O)C#CC=O	
InChI=1S/C6H6O3/c7-3-1-2-6(9)4-5(6)8/h3,5,8-9H,4H2	InChI=1S/C6H6O3/c7-3-1-2-6(9)4-5(6)8/h3,5,8-9H,4H2/t5-,6+/m0/s1
