23
gdb 53224	4.31574	0.69766	0.67237	0.1666	96.69	-0.2356	0.0583	0.2939	1823.6008	0.203425	-351.136551	-351.125818	-351.124874	-351.173558	39.146	
C	 0.7892457901	 1.4776417172	-0.9840630486	-0.498604
C	 0.4241287103	 0.1468630481	-0.5192121952	 0.098223
C	 0.1257306955	-0.9572910974	-0.1388857041	 0.037538
C	-0.2525036811	-2.271333013	 0.3401883067	-0.160673
C	-0.134367291	-2.5778167012	 1.868353747	-0.262448
C	-1.5018853306	-3.329060932	 1.8081569678	 0.347694
C	-1.3199709917	-4.8416694312	 1.6524954837	-0.436497
C	-2.4887574281	-3.013436678	 2.9275980525	-0.45368
C	-1.7711876694	-2.627626071	 0.4393759482	-0.262453
H	 1.5728070703	 1.433758255	-1.7489852238	 0.144717
H	-0.0701269602	 1.9975136293	-1.4226524919	 0.144567
H	 1.165061259	 2.0988590409	-0.1630870128	 0.144408
H	 0.2737628239	-3.0398293361	-0.2358142747	 0.095119
H	 0.7405180045	-3.1487721059	 2.1907018093	 0.095694
H	-0.1959811542	-1.6602394368	 2.4588520907	 0.102345
H	-0.9388618527	-5.2877880725	 2.5784133968	 0.111016
H	-2.2727550658	-5.3283727068	 1.4139312102	 0.111016
H	-0.6136101272	-5.0863349789	 0.8518947832	 0.112546
H	-2.6236933258	-1.9330534851	 3.0445230881	 0.109815
H	-3.4723563211	-3.4537165022	 2.7243920928	 0.110805
H	-2.1401155376	-3.4131931447	 3.8874166778	 0.110804
H	-2.3793375496	-1.7266580731	 0.5527032504	 0.102361
H	-2.1882856073	-3.2378979445	-0.3661811841	 0.095686
21.5653	53.5872	90.0049	154.6889	224.2264	256.4557	283.5802	284.4671	299.1722	345.2233	387.5844	392.2262	472.1666	524.3386	553.094	689.0437	835.6856	842.634	877.8404	914.151	948.4647	961.7983	968.6294	1008.4831	1018.9689	1052.9203	1053.9081	1084.7875	1141.8472	1187.9046	1212.7436	1222.9619	1233.6703	1252.0018	1295.5907	1310.3663	1363.352	1403.6214	1415.2892	1421.0888	1471.2517	1479.2363	1479.6364	1484.3256	1485.0887	1497.3418	1503.4016	1507.7491	2365.4963	3016.8826	3022.1287	3023.126	3044.0376	3052.4638	3057.8704	3080.462	3081.8802	3082.4435	3087.3219	3091.1231	3094.1065	3111.2101	3114.7365
CC#CC1CC(C)(C)C1	CC#CC1CC(C)(C)C1	
InChI=1S/C9H14/c1-4-5-8-6-9(2,3)7-8/h8H,6-7H2,1-3H3	InChI=1S/C9H14/c1-4-5-8-6-9(2,3)7-8/h8H,6-7H2,1-3H3
