20
gdb 93249	2.86404	1.32986	0.95075	5.1417	76.46	-0.2388	0.0548	0.2937	1257.0416	0.171776	-440.340473	-440.33127	-440.330325	-440.374644	33.42	
C	-0.0001531342	 1.5582447907	 0.0099929032	-0.409073
C	 0.0193219904	 0.0291002195	 0.0053998002	-0.027029
C	 0.73759935	-0.539924058	-1.2082881656	-0.070672
O	 0.6713762095	-1.9652102527	-1.2183625554	-0.248725
C	 0.951120038	-2.6670617313	-0.0852782544	 0.469396
O	 1.1158497178	-3.8614776096	-0.1630279805	-0.39769
N	 1.0107944981	-1.9565438509	 1.0902392042	-0.155266
C	 1.4000402619	-2.6582211455	 2.3006691274	-0.338173
C	 0.7154413318	-0.5386513234	 1.2395813271	-0.144193
H	 1.0156976429	 1.9685162194	-0.0137062385	 0.122966
H	-0.5397433131	 1.9463801527	-0.8592483069	 0.125155
H	-0.4939613527	 1.9427991523	 0.9078285385	 0.124959
H	-1.0109739172	-0.3477166723	-0.0199327829	 0.098564
H	 0.2754026129	-0.2198309995	-2.1457734556	 0.120666
H	 1.7893440206	-0.2171300417	-1.2201305787	 0.106678
H	 1.6195740292	-3.6926277705	 2.0443323462	 0.173745
H	 2.2884362418	-2.1930536949	 2.7474858976	 0.117455
H	 0.5915726882	-2.6323125206	 3.0427534908	 0.119411
H	 1.6470267399	 0.0194000547	 1.4308955401	 0.102191
H	 0.0842540643	-0.4047317786	 2.1284570033	 0.109636
83.5934	97.588	130.0993	208.4692	216.1828	234.92	259.55	363.8811	412.6164	438.471	454.0544	593.9577	645.9399	758.7944	791.0205	878.6092	911.4913	956.6646	981.0531	1028.7355	1095.8449	1117.3051	1147.908	1159.0106	1182.5652	1189.7332	1235.6855	1268.7154	1306.159	1313.7304	1340.7171	1383.9642	1412.9698	1432.9033	1434.0148	1457.1354	1498.1683	1499.3252	1499.74	1505.3631	1515.6395	1543.091	1816.4505	2965.9025	2998.779	3009.0739	3018.8505	3033.2767	3038.6125	3054.3164	3093.6154	3101.9224	3109.2226	3175.4008
CC1COC(=O)N(C)C1	C[C@H]1COC(=O)N(C)C1	
InChI=1S/C6H11NO2/c1-5-3-7(2)6(8)9-4-5/h5H,3-4H2,1-2H3	InChI=1S/C6H11NO2/c1-5-3-7(2)6(8)9-4-5/h5H,3-4H2,1-2H3/t5-/m1/s1
