18
gdb 80139	2.43925	1.79928	1.43064	2.2439	79.5	-0.2125	-0.0092	0.2033	984.0324	0.150554	-398.12725	-398.119487	-398.118543	-398.159375	30.126	
C	-0.016922574	 1.5739374683	 0.1343792001	-0.396489
C	 0.0444259299	 0.0669196442	 0.0535788097	-0.043645
C	 1.3517141668	-0.6580767094	-0.2577792729	-0.036741
N	 2.5073629761	 0.0590126443	-0.6581233031	-0.232515
C	 3.3383950214	 0.5783449808	 0.1436607868	 0.078348
N	 3.3481232601	 0.6445697786	 1.535934734	-0.305979
C	 2.3287690672	 0.4132943356	 2.4580695286	 0.07836
N	 1.2041746189	-0.1540373027	 2.3292406566	-0.232517
C	 0.7460070092	-0.7571206295	 1.1307412689	-0.036736
H	 0.8914920148	 2.0045710695	 0.5605608187	 0.123153
H	-0.1521476652	 2.0064124244	-0.8621908638	 0.122582
H	-0.8580845793	 1.8907615724	 0.7593133284	 0.1226
H	-0.8499924328	-0.3850669413	-0.368832123	 0.089311
H	 1.2239692095	-1.5501983006	-0.8675388142	 0.098757
H	 4.2134635684	 1.0771631089	-0.2768670205	 0.111516
H	 4.1415586018	 1.1391190483	 1.9173265778	 0.249724
H	 2.5923198098	 0.8121639228	 3.4393197081	 0.111515
H	 0.2603615474	-1.7077735847	 1.3414871297	 0.098756
109.7614	136.101	182.4026	251.6956	360.0952	373.9406	447.6653	483.8596	556.304	578.2828	660.0482	735.1516	772.3606	830.2155	833.5253	903.1575	936.38	939.7632	964.3968	970.881	999.5018	1073.9726	1088.4625	1102.6602	1153.9692	1180.486	1235.6788	1257.117	1361.7384	1367.6056	1414.7648	1419.503	1432.0055	1469.3937	1489.3092	1498.7931	1527.0954	1746.2073	1771.746	3041.9839	3100.6498	3111.5913	3112.2375	3117.4843	3118.5082	3127.0549	3141.4165	3598.717
CC1C2N=CNC=NC12	C[C@H]1[C@H]2N=CNC=N[C@@H]12	
InChI=1S/C6H9N3/c1-4-5-6(4)9-3-7-2-8-5/h2-6H,1H3,(H,7,8,9)	InChI=1S/C6H9N3/c1-4-5-6(4)9-3-7-2-8-5/h2-6H,1H3,(H,7,8,9)/t4-,5+,6-
