16
gdb 125112	2.33964	1.84655	1.04033	5.4835	75.46	-0.2205	-0.0252	0.1953	1088.6455	0.125331	-434.099299	-434.091101	-434.090157	-434.131748	31.383	
C	-0.0168487975	 1.5465753327	-0.0338372363	-0.548217
C	 0.0181421719	 0.041544484	-0.0418671092	 0.090709
C	 0.082958781	-0.7216243558	-1.1964575958	 0.310516
O	 0.169573321	-0.2130659316	-2.448191765	-0.427453
C	 0.041019816	-2.1210329227	-1.0785295692	-0.052958
N	-0.0445648853	-2.7418178551	 0.0847278246	-0.207075
N	-0.0707031488	-2.0390656099	 1.2126485939	-0.292011
C	-0.0427746338	-0.7025146871	 1.1568681323	 0.340247
N	-0.140258278	-0.0616321621	 2.3829438692	-0.561685
H	 0.9694280284	 1.9902311216	 0.155337848	 0.141001
H	-0.3845051997	 1.9625733233	-0.9785514897	 0.120627
H	-0.6948870535	 1.9038849938	 0.7473263131	 0.156851
H	 0.2417706374	 0.7464187099	-2.407944956	 0.300053
H	 0.0775392037	-2.7402801449	-1.9685614315	 0.120324
H	-0.0296157712	-0.7119222419	 3.1498506024	 0.258798
H	 0.4085688884	 0.7773036361	 2.4959124794	 0.250272
112.4403	140.3266	230.6453	276.9913	314.4722	335.4223	384.2365	391.8107	486.2895	517.7284	547.0341	584.0775	620.1453	689.4937	706.0315	800.6354	866.14	908.2481	946.7048	1051.781	1068.7499	1117.3054	1181.6024	1204.2452	1248.0824	1291.18	1369.7061	1415.3074	1430.5244	1482.3204	1493.8297	1511.1485	1602.7397	1624.023	1645.5311	3016.4071	3070.8145	3099.6248	3189.3319	3557.4012	3666.191	3817.3874
CC1=C(O)C=NN=C1N	Cc1c(O)cnnc1N	
InChI=1S/C5H7N3O/c1-3-4(9)2-7-8-5(3)6/h2H,1H3,(H3,6,8,9)	InChI=1S/C5H7N3O/c1-3-4(9)2-7-8-5(3)6/h2H,1H3,(H3,6,8,9)
