18
gdb 56692	2.50331	1.31421	1.15505	5.1092	71.46	-0.2879	0.0219	0.3098	1141.2315	0.146428	-439.081632	-439.072486	-439.071542	-439.115365	34.223	
O	-0.3993746761	 1.2053603039	 0.0449706408	-0.420406
C	-0.0497799895	-0.1571047078	 0.0905140055	-0.029606
C	 0.5438044096	-0.6085925329	-1.1913881047	 0.276976
N	 0.992082942	-0.9647708086	-2.1947386908	-0.329115
C	 0.9083358649	-0.4432878191	 1.2609886188	 0.387523
O	 1.9976407362	 0.4238004441	 1.0258860785	-0.4924
C	 0.1806706808	-0.3744711301	 2.6324545986	-0.291701
C	 0.0743113876	-1.9247607879	 2.6072021421	-0.219155
C	 1.169608931	-1.9551055274	 1.5049677026	-0.28466
H	 0.4320329982	 1.6920116346	 0.1313324884	 0.300802
H	-0.9784383172	-0.7179061314	 0.2381969884	 0.135108
H	 2.5816436973	 0.4082912483	 1.7899807263	 0.288455
H	 0.8659805898	-0.0286666737	 3.413436004	 0.096802
H	-0.7324070779	 0.2220578925	 2.6817610693	 0.12393
H	 0.2948072728	-2.4497677533	 3.5374950915	 0.11078
H	-0.895369771	-2.2702335315	 2.2407540873	 0.115522
H	 1.0468494072	-2.632033711	 0.6562480945	 0.125853
H	 2.1694177442	-2.1045111989	 1.9235683489	 0.105292
78.669	135.0437	142.2076	229.8892	238.654	244.8977	319.9935	349.3902	398.3026	465.3822	495.5245	529.4666	604.2545	675.3075	787.0996	791.8495	834.8761	897.8586	927.6672	959.2068	984.0548	1034.5424	1072.4871	1098.4804	1120.124	1164.9925	1196.9859	1211.6116	1244.7773	1267.4987	1269.8712	1303.1418	1332.3745	1392.9743	1437.3864	1473.1223	1487.8343	1507.2107	2356.9631	3051.4173	3060.0198	3071.0729	3074.7269	3110.9421	3116.2967	3131.9563	3763.3151	3832.5266
OC(C#N)C1(O)CCC1	O[C@@H](C#N)C1(O)CCC1	
InChI=1S/C6H9NO2/c7-4-5(8)6(9)2-1-3-6/h5,8-9H,1-3H2	InChI=1S/C6H9NO2/c7-4-5(8)6(9)2-1-3-6/h5,8-9H,1-3H2/t5-/m0/s1
