18
gdb 133754	2.59846	1.01861	0.87389	2.6064	61.69	-0.2596	0.0769	0.3365	1356.7183	0.141481	-570.594877	-570.584822	-570.583878	-570.631539	35.013	
C	 0.0410874138	 1.412477237	-0.1251559654	-0.239783
O	 0.0232161315	 0.0099527496	 0.0108913517	-0.243998
C	-1.2711437789	-0.5719958559	 0.0095575709	 0.130992
C	-1.81183374	-0.7457585552	-1.4129147642	-0.407422
C	-1.1486030782	-1.9205815934	 0.7237978629	-0.343098
C	-0.9135613864	-1.8161917622	 2.2191299156	 0.279438
F	-1.864839694	-1.0706252483	 2.8148554496	-0.092325
F	-0.9562180953	-3.0362665946	 2.7852458218	-0.082786
F	 0.2675415996	-1.2749303748	 2.5314756823	-0.066247
H	 1.082875229	 1.7282913909	-0.0323259751	 0.132214
H	-0.338152634	 1.7497270246	-1.1011279513	 0.105697
H	-0.5491528943	 1.9033311409	 0.6636777084	 0.110789
H	-1.9603183213	 0.0670143986	 0.5836036494	 0.082328
H	-1.1586837438	-1.4071107731	-1.9908659976	 0.126778
H	-2.8190941461	-1.1738293454	-1.3984371695	 0.118461
H	-1.8672391224	 0.2158122642	-1.9300303978	 0.122943
H	-2.0665983748	-2.4995706263	 0.5903797474	 0.127335
H	-0.3210568244	-2.4906832866	 0.2919216309	 0.138684
23.8588	58.0973	108.7504	149.495	200.4555	227.9326	270.118	302.8988	334.5671	365.0611	457.5034	501.6807	536.2311	577.0063	665.1936	826.1818	844.6274	897.8	943.5737	1034.7569	1080.8914	1121.6978	1157.9393	1168.4672	1182.5887	1190.4232	1235.4122	1271.2715	1318.8477	1342.3655	1387.3356	1405.8206	1409.0497	1459.8162	1479.0099	1483.7865	1494.407	1500.7136	1511.4479	2978.477	2988.6169	3027.3942	3041.3081	3069.4731	3111.9134	3116.2924	3120.0767	3122.4528
COC(C)CC(F)(F)F	CO[C@@H](C)CC(F)(F)F	
InChI=1S/C5H9F3O/c1-4(9-2)3-5(6,7)8/h4H,3H2,1-2H3	InChI=1S/C5H9F3O/c1-4(9-2)3-5(6,7)8/h4H,3H2,1-2H3/t4-/m0/s1
