24
gdb 113815	3.87379	0.79762	0.7174	1.3321	91.58	-0.2156	0.0857	0.3013	1697.3393	0.216541	-368.369375	-368.359142	-368.358198	-368.40537	37.941	
C	-1.709291217	-0.1538211275	 3.364265011	-0.375922
C	-1.1780428739	-1.4086281046	 2.6607488266	-0.192686
C	-2.2835125471	-2.1981327626	 1.9868221026	 0.002434
C	-2.7213647632	-1.8865396593	 0.577580914	-0.305309
C	-2.0456992574	-3.2086919427	 0.8812281322	-0.03145
C	-0.6761768401	-3.5036978128	 0.3533995764	 0.011983
C	-0.0949173785	-4.8758234201	 0.4473382763	-0.263142
N	-0.4427521861	-4.3104890242	-0.8510776793	-0.090405
C	-1.5701759196	-4.892028635	-1.5636267835	-0.306672
H	-0.9008121099	 0.4022192735	 3.8490362437	 0.109971
H	-2.2018653687	 0.5166647241	 2.6523137898	 0.118632
H	-2.4434064161	-0.4143083413	 4.1348110975	 0.113053
H	-0.4218097687	-1.1138620818	 1.9247690845	 0.098912
H	-0.6619472004	-2.0464895971	 3.3902853841	 0.098139
H	-3.0853826116	-2.472230707	 2.6699536267	 0.079624
H	-3.7780573517	-1.8832197213	 0.3332129961	 0.107936
H	-2.1374468581	-1.1515342453	 0.0306222489	 0.111393
H	-2.7048535963	-4.0701996144	 0.9176984837	 0.08114
H	 0.0145125725	-2.665031485	 0.4154828377	 0.08375
H	 0.964092827	-5.0305076671	 0.6402430267	 0.109464
H	-0.7449608838	-5.6521594317	 0.8528050194	 0.099653
H	-2.3592606205	-5.3105888529	-0.9194613627	 0.09655
H	-2.0238281864	-4.1324089658	-2.2081803039	 0.123009
H	-1.1984792845	-5.7002254182	-2.2020249286	 0.119945
31.5314	85.0814	111.0962	155.973	204.8472	227.9543	237.3592	284.3028	341.0249	394.0199	428.1852	474.4855	583.6436	731.633	761.6053	796.9708	816.8737	862.01	890.6876	937.3336	952.3654	961.6905	1028.3587	1035.897	1047.361	1068.5954	1096.5096	1113.156	1129.5218	1132.7591	1147.4118	1162.208	1199.1401	1202.5042	1212.0898	1253.5274	1295.9593	1317.3444	1338.8863	1347.2265	1408.848	1420.1958	1450.1808	1456.2963	1484.5588	1489.4281	1495.8962	1498.4906	1502.5952	1508.1723	1514.1389	2978.0855	3021.4419	3031.2726	3059.2734	3064.4533	3077.1827	3098.6988	3100.2106	3104.989	3117.8872	3119.4283	3122.9788	3154.3245	3164.5557	3207.6792
CCC1CC1C1CN1C	CC[C@H]1C[C@H]1[C@H]1CN1C	
InChI=1S/C8H15N/c1-3-6-4-7(6)8-5-9(8)2/h6-8H,3-5H2,1-2H3	InChI=1S/C8H15N/c1-3-6-4-7(6)8-5-9(8)2/h6-8H,3-5H2,1-2H3/t6-,7+,8+,9?/m0/s1
