20
gdb 31605	2.81707	1.16332	0.88576	1.9281	83.85	-0.1773	0.0447	0.222	1352.9224	0.170325	-403.18378	-403.173868	-403.172923	-403.218836	35.96	
C	 0.0313818663	 1.5398079508	 0.1296192074	-0.366409
C	-0.0285215676	 0.009086237	-0.0375775584	-0.301198
C	-1.4178699296	-0.5515769984	-0.0454218703	 0.324679
C	-2.2266153341	-0.8633152241	-1.1240887082	-0.397188
C	-3.4637958515	-1.3313674678	-0.6079683408	 0.317513
O	-4.5655682588	-1.7445414365	-1.3040047982	-0.451345
C	-3.385894857	-1.297606336	 0.7631905892	-0.199414
N	-2.1343474784	-0.8082415208	 1.0983832021	-0.044387
C	-1.631337688	-0.7604797098	 2.4542262305	-0.342331
H	 1.0664317823	 1.8963178571	 0.1025417291	 0.109533
H	-0.5242974915	 2.0348165041	-0.672151032	 0.124442
H	-0.4096005418	 1.8599468746	 1.0791955632	 0.116756
H	 0.4466674214	-0.2627733086	-0.9859747823	 0.112209
H	 0.5751682323	-0.4668088785	 0.7456195958	 0.10094
H	-1.95762562	-0.7506860938	-2.1649561781	 0.081535
H	-4.3687035401	-1.6783561789	-2.242361413	 0.293338
H	-4.1015672558	-1.5775285964	 1.5175754409	 0.110072
H	-1.0565610516	-1.6587981459	 2.7130946839	 0.132884
H	-0.9921642194	 0.1132979358	 2.59933691	 0.138801
H	-2.4741495572	-0.680865444	 3.1442414394	 0.13957
64.8326	82.2458	132.6637	163.5057	202.8195	205.4106	285.5526	302.3514	303.6178	398.5512	495.0273	586.7756	617.0518	629.2891	676.7516	691.3925	749.727	767.9829	807.5433	963.9887	1015.1537	1055.5891	1077.6568	1079.0385	1145.8412	1168.2205	1178.2701	1193.3743	1265.4712	1300.8956	1350.795	1384.1488	1407.8625	1429.0378	1462.8667	1479.0236	1491.6389	1493.8384	1496.7004	1508.2915	1516.9276	1542.3994	1653.8403	3020.0616	3025.2673	3034.1281	3069.2151	3096.5148	3103.0766	3113.6498	3132.8343	3225.5784	3273.029	3846.8875
CCC1=CC(O)=CN1C	CCc1cc(O)cn1C	
InChI=1S/C7H11NO/c1-3-6-4-7(9)5-8(6)2/h4-5,9H,3H2,1-2H3	InChI=1S/C7H11NO/c1-3-6-4-7(9)5-8(6)2/h4-5,9H,3H2,1-2H3
