21
gdb 77515	2.35182	1.82887	1.32066	1.5643	82.61	-0.2287	0.0075	0.2362	1071.7405	0.180311	-387.065251	-387.056253	-387.055309	-387.09789	35.845	
C	-0.1706741796	 1.5210085282	-0.0257146322	-0.429722
C	-0.0690617636	 0.0050753306	-0.0100512309	-0.045446
C	 1.2017582719	-0.6220253925	-0.7005102855	 0.362008
C	 1.8003223247	-0.1496525262	-1.9954728392	-0.516503
O	 1.95637794	-0.2618103778	 0.5091707288	-0.351866
C	 0.7129101119	-0.6351759222	 1.1997486283	 0.36197
C	 0.6106968681	-0.1816385717	 2.6288027145	-0.516503
C	 0.6143791678	-2.1329397032	 0.8389667825	-0.128701
C	 0.9462257859	-2.1239921277	-0.4515735803	-0.12875
H	 0.788469739	 1.9807037887	 0.2241909755	 0.132088
H	-0.4807151181	 1.8805662911	-1.013325341	 0.113048
H	-0.9199739023	 1.8687629623	 0.6942843325	 0.113048
H	-1.0232000154	-0.4682636998	-0.2587883936	 0.062858
H	 1.8872341298	 0.9398553493	-2.0167349992	 0.128393
H	 2.8003659738	-0.5745168189	-2.1284940148	 0.132933
H	 1.1798839487	-0.4645312418	-2.8409800768	 0.120233
H	 0.6728344923	 0.9072112733	 2.7034871908	 0.128392
H	-0.3396331936	-0.5054643829	 3.0658199087	 0.120233
H	 1.4238740861	-0.6114543458	 3.222345183	 0.132933
H	 0.322087368	-2.9410634732	 1.4945632458	 0.104677
H	 1.0091433244	-2.9225405299	-1.1772924971	 0.104676
176.6134	178.5759	197.4749	217.8585	232.921	243.0954	311.2545	349.6234	388.4955	488.2453	549.9519	598.0174	639.7437	658.4053	698.674	737.3755	792.4881	801.5378	867.788	870.8166	873.5106	892.6134	1024.2951	1045.9941	1068.1891	1080.8547	1100.6498	1133.8522	1173.4583	1188.0265	1200.1928	1226.7918	1319.9092	1344.6825	1376.0108	1396.4545	1410.8716	1420.9682	1478.1746	1478.2388	1487.2031	1492.205	1500.0755	1504.8551	1623.8996	3031.035	3039.4706	3039.6704	3065.9072	3087.5781	3107.5642	3107.6961	3118.9108	3118.9347	3125.1919	3217.9767	3246.4695
CC1C2(C)OC1(C)C=C2	C[C@H]1[C@@]2(C)O[C@]1(C)C=C2	
InChI=1S/C8H12O/c1-6-7(2)4-5-8(6,3)9-7/h4-6H,1-3H3	InChI=1S/C8H12O/c1-6-7(2)4-5-8(6,3)9-7/h4-6H,1-3H3/t6-,7-,8+
