17
gdb 83219	2.77239	1.51284	1.29311	2.1902	73.31	-0.2396	0.0252	0.2648	1025.7718	0.135855	-421.768844	-421.760931	-421.759987	-421.801136	30.967	
O	 0.1584057979	 1.3766986145	-0.0598785445	-0.43235
C	 0.0247294884	-0.0049394496	 0.0386986726	 0.137897
C	-0.436374602	-0.7122745092	 1.2895833153	-0.136076
C	-1.2010786643	 0.1491865688	 2.2761407843	-0.107885
O	-2.1305259358	 0.9084726342	 1.4913128811	-0.282252
C	-2.5301479358	 0.0930221147	 0.3727164198	-0.093026
C	-3.0293034907	 0.9528872255	-0.6945238222	 0.319333
C	-3.462357712	 1.6290102874	-1.5875887554	-0.427012
C	-1.2947476869	-0.7348602347	 0.0283456622	-0.12473
H	-0.6155242316	 1.7804397327	 0.3556101149	 0.300392
H	 0.8267570865	-0.4890666283	-0.5091481559	 0.108758
H	 0.0786259143	-1.5918361037	 1.6591794483	 0.094451
H	-1.7298130014	-0.4749871025	 3.0115823868	 0.105635
H	-0.5814086425	 0.8736999217	 2.8135301138	 0.123706
H	-3.3382065207	-0.5883669184	 0.6852002026	 0.11
H	-3.8323885825	 2.2353357822	-2.3773833343	 0.202579
H	-1.437091691	-1.6235679355	-0.5750695394	 0.100581
94.5771	146.484	215.6847	236.4248	280.7495	442.7971	476.6177	513.1336	522.8071	548.6914	626.3194	678.9867	724.5249	750.2676	776.6607	805.1116	885.3929	929.9887	969.5584	1008.1666	1034.115	1056.7168	1062.0432	1079.9086	1112.9275	1120.5999	1193.3686	1234.5192	1291.457	1311.7223	1330.5937	1346.4459	1367.4197	1404.8138	1470.4078	1514.0973	2244.522	2967.5412	2997.6894	3080.4075	3164.9969	3173.2219	3185.7743	3502.485	3752.8361
OC1C2COC(C#C)C12	O[C@H]1[C@H]2CO[C@@H](C#C)[C@@H]12	
InChI=1S/C7H8O2/c1-2-5-6-4(3-9-5)7(6)8/h1,4-8H,3H2	InChI=1S/C7H8O2/c1-2-5-6-4(3-9-5)7(6)8/h1,4-8H,3H2/t4-,5-,6-,7-/m0/s1
