19
gdb 31511	3.19951	1.08073	0.85815	1.0301	81.28	-0.1795	0.0329	0.2124	1385.113	0.159948	-419.238609	-419.229153	-419.228209	-419.272886	35.303	
C	-0.3222058509	 1.5153809605	-0.185655493	-0.369504
C	 0.1384602213	 0.0596057275	 0.0028877536	-0.291582
C	 0.9340418513	-0.4635425137	-1.1439462411	 0.377088
C	 2.216194138	-0.9088047209	-1.2553879895	-0.355554
C	 2.4034079795	-1.288550643	-2.6281986813	 0.236471
N	 3.5899951085	-1.7364732547	-3.2245159715	-0.613363
C	 1.2194436521	-1.0463942707	-3.2582806445	 0.199136
N	 0.8607970417	-1.2280661637	-4.5945119912	-0.60722
O	 0.3091349723	-0.5249424095	-2.3499500036	-0.217094
H	 0.5364419953	 2.186466368	-0.2846576247	 0.120813
H	-0.9307752541	 1.6130163097	-1.0887638378	 0.129109
H	-0.9209686529	 1.8473454048	 0.6680731806	 0.109398
H	 0.7523761011	-0.0274755306	 0.9052573548	 0.109769
H	-0.7420974832	-0.5777639123	 0.1606163752	 0.111375
H	 2.9455992143	-0.9597911412	-0.4610908693	 0.095183
H	 4.0637417813	-2.4408629459	-2.6724929	 0.238457
H	 3.4068600036	-2.0991994046	-4.1533199498	 0.24501
H	 0.702094429	-0.3543848796	-5.0886502475	 0.241814
H	 0.0298687417	-1.8015724501	-4.7030242795	 0.240696
53.7784	117.0926	196.8932	213.8547	244.4017	262.2941	282.2814	302.5519	322.0751	399.3956	505.6398	583.8022	653.2182	663.7062	692.9541	778.6036	780.5059	790.3316	808.6012	826.1459	951.5209	1009.7538	1056.9469	1075.4534	1086.2176	1144.2584	1185.228	1213.1133	1267.6639	1310.0465	1332.2333	1355.845	1405.6277	1465.505	1476.0441	1496.1947	1507.3652	1611.3529	1639.194	1655.3676	1728.5605	3016.2985	3040.1127	3075.4591	3110.5847	3121.4434	3245.4136	3478.8999	3517.7	3541.5399	3609.8619
CCC1=CC(N)=C(N)O1	CCc1cc(N)c(N)o1	
InChI=1S/C6H10N2O/c1-2-4-3-5(7)6(8)9-4/h3H,2,7-8H2,1H3	InChI=1S/C6H10N2O/c1-2-4-3-5(7)6(8)9-4/h3H,2,7-8H2,1H3
