25
gdb 64406	2.24135	1.57248	1.24052	0.1775	91.3	-0.2603	0.078	0.3383	1185.3405	0.230852	-352.370178	-352.361177	-352.360233	-352.40299	36.975	
C	-0.005088337	 1.5416137453	-0.0092838212	-0.411029
C	-0.0099262003	 0.0024335393	 0.0005904987	 0.26733
C	-1.4720320626	-0.4822527395	 0.0939920847	-0.41545
C	 0.6371299272	-0.5212912828	-1.3061845348	-0.219925
C	 0.9148519377	-2.0286091405	-1.2789924476	-0.206882
C	 1.9372516999	-2.400473743	-0.1931016039	-0.215425
C	 1.6725696762	-1.7136174934	 1.1479796839	-0.036908
C	 2.2334983125	-0.3327940432	 1.3990584658	-0.312282
C	 0.7478352546	-0.5128416519	 1.2263622187	 0.003911
H	 1.0152216448	 1.9336277984	-0.0662340016	 0.108846
H	-0.5649763415	 1.9304853717	-0.8678335622	 0.103152
H	-0.4666960826	 1.9439141242	 0.8995142686	 0.104384
H	-2.0520371023	-0.1475187275	-0.7732532887	 0.10493
H	-1.5412006281	-1.5727207544	 0.1466649171	 0.113278
H	-1.9550578553	-0.0796917462	 0.9910228951	 0.107213
H	-0.0200691856	-0.270012114	-2.1474011292	 0.087712
H	 1.5786268517	 0.0146005969	-1.4891214532	 0.087061
H	-0.021769361	-2.5701438923	-1.1025515583	 0.096803
H	 1.2796736696	-2.360056085	-2.2577528765	 0.087872
H	 1.9368605277	-3.4863589184	-0.0510257561	 0.093577
H	 2.94485743	-2.144094675	-0.5448801164	 0.095997
H	 1.6569005901	-2.3783199991	 2.0063638386	 0.077679
H	 2.6112050186	-0.0886662833	 2.3863735515	 0.102763
H	 2.7964803745	 0.1233309949	 0.5897196514	 0.104904
H	 0.170964351	-0.4283695812	 2.1448544056	 0.070491
95.3634	192.2429	233.1201	257.7635	272.4008	315.3399	320.0457	376.4789	392.5143	448.3617	461.6657	496.367	630.5263	683.9165	763.6929	821.6936	841.5666	857.4357	879.5665	940.6222	941.9845	948.7712	957.5435	1004.4959	1028.3952	1057.3382	1060.1123	1066.6969	1093.4039	1122.9145	1138.6345	1173.747	1196.9154	1222.422	1232.2886	1247.3239	1295.0675	1305.2412	1355.7228	1369.923	1376.9496	1392.0535	1396.8727	1407.9808	1425.0646	1479.782	1483.1828	1486.1301	1493.3163	1497.8556	1503.5429	1506.4759	1514.6126	3009.9753	3017.9513	3021.4492	3028.4974	3032.076	3053.1928	3060.4476	3073.9341	3085.5733	3093.3534	3099.8756	3106.1978	3118.4924	3120.3259	3145.6776	3201.7431
CC1(C)CCCC2CC12	CC1(C)CCC[C@H]2C[C@@H]12	
InChI=1S/C9H16/c1-9(2)5-3-4-7-6-8(7)9/h7-8H,3-6H2,1-2H3	InChI=1S/C9H16/c1-9(2)5-3-4-7-6-8(7)9/h7-8H,3-6H2,1-2H3/t7-,8+/m0/s1
