23
gdb 58104	1.95291	1.35984	1.20325	1.9816	77.14	-0.242	0.0584	0.3004	1233.3469	0.202068	-462.566022	-462.554781	-462.553837	-462.601278	42.745	
C	 0.8250439717	-0.5830804729	 1.2617191158	-0.419072
C	 0.0881171934	-0.1813617522	-0.0127130452	 0.095244
O	 0.8086826382	-0.6087973241	-1.1813727486	-0.440122
C	-1.4048110766	-0.6232497086	-0.0531692184	 0.286007
C	-1.575642689	-2.1310141968	 0.1346853197	-0.414078
O	-2.0765171794	-0.0212105837	 1.0582052161	-0.462858
C	-2.106475731	-0.1890636515	-1.3786328851	 0.122704
C	-2.0719105069	 1.3193928872	-1.6607417548	-0.436474
O	-1.6215112424	-0.9154920923	-2.4968728807	-0.444719
H	 1.8087672466	-0.1070095965	 1.2929400929	 0.121846
H	 0.2519287602	-0.2823084884	 2.1413947119	 0.138972
H	 0.9723610054	-1.6679911607	 1.3117340705	 0.113534
H	 0.0998464981	 0.913205332	-0.0820497851	 0.083873
H	 1.0498062009	-1.5331414122	-1.0533373393	 0.288895
H	-1.1879079825	-2.4522758457	 1.103909604	 0.118166
H	-2.638491637	-2.3844212928	 0.0979613096	 0.128086
H	-1.0774068987	-2.6838692018	-0.664164586	 0.11603
H	-2.0371996415	 0.9351993622	 0.9518644715	 0.279117
H	-3.155545144	-0.4869695909	-1.261228836	 0.086923
H	-2.5085236475	 1.9114624714	-0.8476722172	 0.098815
H	-1.0535022292	 1.6765472162	-1.844276825	 0.125138
H	-2.6582860199	 1.5207240138	-2.5608230354	 0.131563
H	-0.6617303688	-0.7867080215	-2.493075845	 0.282408
70.9393	109.5872	176.3022	213.8673	243.8667	252.2274	267.6843	269.6354	289.4547	307.5249	320.3225	355.2247	383.5129	435.8958	448.2759	492.1822	545.2555	587.6224	621.9117	701.6919	859.2337	900.727	929.3465	941.4922	1011.7732	1024.0219	1066.8554	1090.4484	1106.2593	1118.8564	1147.5587	1162.4937	1230.2964	1279.2108	1314.9468	1331.6561	1368.6856	1385.9334	1399.6931	1406.3138	1415.787	1428.2727	1455.6888	1479.9342	1488.7968	1493.3621	1497.5082	1505.7763	1510.1942	3028.4628	3034.059	3036.0693	3040.1078	3057.0107	3097.7148	3106.808	3119.3422	3124.8662	3137.4578	3141.0042	3717.0174	3803.3333	3810.1709
CC(O)C(C)(O)C(C)O	C[C@@H](O)[C@@](C)(O)[C@@H](C)O	
InChI=1S/C6H14O3/c1-4(7)6(3,9)5(2)8/h4-5,7-9H,1-3H3	InChI=1S/C6H14O3/c1-4(7)6(3,9)5(2)8/h4-5,7-9H,1-3H3/t4-,5-/m1/s1
