20
gdb 78013	2.6108	1.30354	1.03428	3.6168	82.86	-0.2142	-0.0192	0.195	1227.9128	0.169327	-403.113523	-403.104225	-403.103281	-403.147402	34.298	
C	-0.0706185301	 1.7706668114	 0.8050281546	-0.427512
C	 0.0784646264	 0.271874073	 0.6525842893	-0.072256
C	 1.1941569409	-0.4759712089	-0.0040604185	-0.073046
N	 2.5454264031	 0.0009010708	 0.2214012059	-0.05927
C	 3.0896740666	 1.1258564895	-0.5128123014	-0.330502
C	 2.366290951	 0.0303634634	 1.6928251668	-0.259238
C	 0.9730420567	-0.5847664515	 1.5391692173	 0.209496
C	 0.4934913744	-1.7584784364	 2.270996082	 0.059047
O	 1.0707800066	-2.2708108221	 3.2023507372	-0.272573
H	-0.4270503664	 2.2186621396	-0.1283855182	 0.125331
H	-0.799311713	 2.0028698443	 1.5889502739	 0.125694
H	 0.8670843016	 2.2605111935	 1.0709616943	 0.13037
H	-0.8708222808	-0.2355551975	 0.4738404628	 0.095975
H	 1.0069082353	-1.2366835151	-0.7575120043	 0.104692
H	 2.5760660556	 2.0866561901	-0.3449824022	 0.099437
H	 4.1436127656	 1.2543576104	-0.2439524526	 0.126139
H	 3.0465110134	 0.9048402979	-1.5844942301	 0.125089
H	 3.0654159492	-0.6286834527	 2.2148877214	 0.132254
H	 2.3986864844	 1.0253359769	 2.1554948314	 0.098504
H	-0.4740281804	-2.1680625369	 1.8964449904	 0.062369
91.635	147.8048	168.7968	174.854	211.2522	225.744	265.2311	285.8166	360.965	422.5639	514.873	615.6547	628.8801	714.9437	756.2733	858.9162	897.9688	958.1679	981.8513	993.575	1034.7712	1048.4404	1087.1908	1096.2539	1121.7406	1141.4306	1166.1106	1226.8904	1239.6174	1246.606	1287.3025	1337.8309	1355.9072	1414.5008	1424.6023	1451.0536	1459.1858	1479.5148	1497.8183	1499.5402	1510.1439	1523.584	1796.4363	2852.2131	2967.8984	3017.5942	3040.0236	3058.891	3087.0175	3097.1047	3099.0398	3100.1699	3139.4742	3144.3992
CC1C2N(C)CC12C=O	C[C@H]1[C@H]2N(C)C[C@@]12C=O	
InChI=1S/C7H11NO/c1-5-6-7(5,4-9)3-8(6)2/h4-6H,3H2,1-2H3	InChI=1S/C7H11NO/c1-5-6-7(5,4-9)3-8(6)2/h4-6H,3H2,1-2H3/t5-,6+,7+/m0/s1
