22
gdb 118404	2.65292	0.92254	0.79332	2.2496	82.59	-0.2333	0.0218	0.2551	1575.387	0.191126	-441.459671	-441.448247	-441.447303	-441.49876	38.623	
C	-1.2791290826	 1.5915866513	-0.6284139614	-0.363109
C	-1.1885684247	 0.3415048868	 0.2553122907	-0.149273
N	-2.1774373851	-0.6404066437	-0.151016921	-0.291886
C	-2.0623360158	-1.634921997	-0.9216014727	 0.334446
C	-3.3248675923	-2.4075133456	-1.3021857107	-0.115313
O	-3.2040526841	-3.8077762122	-1.2207442671	-0.216386
C	-3.0597891209	-4.2788114672	 0.1003755343	-0.229885
O	-1.0106491352	-2.2038580245	-1.5734671244	-0.234192
C	 0.3371960065	-1.8096448843	-1.3648271169	-0.247036
H	-0.6299100814	 2.3839973168	-0.2427660552	 0.112025
H	-0.9762883095	 1.3687883247	-1.6571372845	 0.114637
H	-2.3070817856	 1.9637010604	-0.6556862521	 0.130165
H	-0.1543920937	-0.0172828172	 0.2754592196	 0.086138
H	-1.4354305544	 0.6259386965	 1.2853213065	 0.105781
H	-4.1372098565	-2.0265269991	-0.6703950321	 0.107646
H	-3.5597435839	-2.191105664	-2.3506164941	 0.117566
H	-2.1327826016	-3.9192866459	 0.5711446116	 0.105559
H	-3.9066099543	-3.9747505033	 0.7352269308	 0.105977
H	-3.027096351	-5.369855395	 0.050131733	 0.125002
H	 0.9374660283	-2.46638565	-1.9982588556	 0.135939
H	 0.5127488797	-0.7712469592	-1.6637357441	 0.133374
H	 0.6399758881	-1.9494755384	-0.3221475844	 0.132827
24.5215	33.371	51.6162	86.8404	139.5638	185.8315	211.1474	247.4637	275.1906	310.0827	323.2237	370.3967	405.8787	509.8011	604.9875	731.5738	768.6771	816.9172	900.1494	953.8527	1004.3233	1062.2185	1088.8085	1115.4263	1143.2118	1171.2198	1176.2092	1182.2789	1219.6266	1227.9836	1244.1004	1299.8877	1315.338	1368.5778	1386.7914	1403.2368	1468.5828	1479.7778	1484.6626	1487.4979	1489.0618	1495.2356	1499.2191	1504.0066	1505.3932	1532.3144	1769.6166	2977.3537	3022.1866	3024.3075	3026.6414	3030.0484	3034.7225	3063.087	3077.1099	3100.4033	3104.1729	3114.1834	3119.4598	3125.2607
CCN=C(COC)OC	CCN=C(COC)OC	
InChI=1S/C6H13NO2/c1-4-7-6(9-3)5-8-2/h4-5H2,1-3H3	InChI=1S/C6H13NO2/c1-4-7-6(9-3)5-8-2/h4-5H2,1-3H3
