17
gdb 17343	3.52941	2.13526	1.79186	2.2245	66.5	-0.2218	0.0772	0.2991	793.522	0.143572	-363.814756	-363.808123	-363.807179	-363.845005	27.233	
O	-0.0462648881	 1.3871736151	 0.0891294972	-0.467466
C	-0.0090225135	-0.0059098592	 0.0385347817	 0.402898
C	-0.3806650645	-0.7215708774	-1.2354726904	-0.366452
C	-1.2906306701	-0.7939585685	-0.0219535025	-0.08133
C	-1.1575179194	-1.9520480417	 0.9669943387	-0.18832
N	 0.1462480856	-1.8350697281	 1.6716392576	-0.092642
C	 1.3396716548	-2.0928234337	 0.8550945082	-0.254821
C	 0.8717551994	-0.699405064	 1.0657408991	-0.098958
H	 0.6898210204	 1.7248611789	-0.4324441116	 0.284775
H	-0.7314894171	-0.0839762168	-2.0410368581	 0.114587
H	 0.1689623178	-1.5949826377	-1.5670032117	 0.112777
H	-2.2402295446	-0.2744403314	-0.0864115207	 0.100056
H	-1.9472265337	-1.8783360683	 1.7214669119	 0.114818
H	-1.2454736218	-2.9389524713	 0.498446052	 0.105762
H	 2.1927702993	-2.4713478624	 1.4135618021	 0.11251
H	 1.2240631593	-2.5444951475	-0.1262264988	 0.108429
H	 1.3967147363	-0.0280164959	 1.7401463554	 0.093378
187.059	267.927	289.8985	358.2484	382.1009	435.3428	490.9996	596.3774	670.0834	695.7139	789.583	829.6442	840.3503	873.6816	916.6087	941.9972	983.7492	1015.5503	1033.8995	1054.7062	1086.5374	1099.4872	1114.0635	1118.5127	1158.8592	1216.1948	1234.4309	1260.0404	1272.4146	1329.1235	1338.2912	1359.388	1413.7968	1485.8024	1499.488	1520.0644	3037.8179	3075.5468	3102.7759	3128.8566	3144.6887	3174.0503	3182.86	3215.7533	3798.6126
OC12CC1CN1CC21	O[C@]12C[C@H]1CN1C[C@@H]21	
InChI=1S/C6H9NO/c8-6-1-4(6)2-7-3-5(6)7/h4-5,8H,1-3H2	InChI=1S/C6H9NO/c8-6-1-4(6)2-7-3-5(6)7/h4-5,8H,1-3H2/t4-,5-,6+,7?/m0/s1
