21
gdb 92493	2.51493	1.59707	1.4142	2.6624	76.84	-0.252	0.0716	0.3237	1046.1883	0.184047	-424.229616	-424.221522	-424.220578	-424.261687	32.803	
C	-0.0374985334	 1.5236464201	 0.09145571	-0.489138
C	 0.0546059173	 0.0127262948	-0.0425990959	 0.293356
C	-1.2425200859	-0.7895504193	 0.2022369985	-0.128372
O	-0.5764283252	-1.6760732132	 1.137551802	-0.316821
C	 0.6169282864	-0.8341293694	 1.1439640487	 0.094978
C	 1.8443762764	-1.5829109891	 0.6474836668	-0.269802
C	 1.5437331025	-1.8025034721	-0.850038834	 0.130768
O	 0.713323371	-2.9359456548	-1.0584617808	-0.450288
C	 0.8655554515	-0.4729613543	-1.2667805687	-0.286997
H	 0.95836793	 1.9780375132	 0.1384984577	 0.117815
H	-0.5576487563	 1.9633118682	-0.7674266001	 0.122304
H	-0.583563954	 1.8141363793	 0.9953137883	 0.116619
H	-2.0389870054	-0.2200713243	 0.6982540418	 0.100572
H	-1.660549752	-1.335569416	-0.6502537887	 0.111918
H	 0.7370318871	-0.3348727829	 2.1117204994	 0.069638
H	 2.7305361034	-0.9495381498	 0.778464836	 0.101292
H	 2.0164748922	-2.5238751093	 1.1779448406	 0.115398
H	 2.4498536557	-1.9818903498	-1.4363154182	 0.076929
H	 0.0925181411	-2.9591255405	-0.3170097061	 0.290694
H	 0.2506962069	-0.6098188513	-2.1609690723	 0.106896
H	 1.6377463807	 0.2687444603	-1.5060644951	 0.092242
127.5031	200.8092	217.0158	247.3262	306.4807	363.5037	391.0908	405.3169	436.8535	590.5113	612.813	625.358	775.6975	820.4621	834.07	862.6836	897.2218	908.7957	924.342	970.3089	990.6777	1001.5534	1016.0831	1039.2261	1071.7507	1117.5506	1162.1061	1179.6995	1188.538	1227.0241	1242.0956	1270.0136	1287.9264	1306.849	1333.0966	1353.763	1363.2274	1382.6329	1414.8719	1459.2323	1466.6846	1478.2402	1494.0362	1496.0239	1523.2241	3013.129	3023.4417	3030.1996	3033.9982	3050.0441	3069.5295	3072.4563	3089.0441	3093.0933	3096.1022	3099.4291	3732.5452
CC12COC1CC(O)C2	C[C@]12CO[C@H]1C[C@@H](O)C2	
InChI=1S/C7H12O2/c1-7-3-5(8)2-6(7)9-4-7/h5-6,8H,2-4H2,1H3	InChI=1S/C7H12O2/c1-7-3-5(8)2-6(7)9-4-7/h5-6,8H,2-4H2,1H3/t5-,6+,7+/m1/s1
