21
gdb 39259	2.37094	2.12516	1.50693	1.5396	80.97	-0.2381	0.0847	0.3228	962.7073	0.18675	-387.080225	-387.073361	-387.072417	-387.110921	29.71	
C	-0.0277752277	 1.4737907082	 0.0450454105	-0.427062
C	 1.3213143749	 0.7850947666	 0.0124576165	 0.001609
C	 2.2627392755	 0.4255060703	 1.1490410799	-0.256666
C	 2.3953452855	-1.1271815926	 1.1719286424	-0.202302
C	 1.0401779624	-1.8396844269	 0.8936433766	 0.131117
C	-0.106510232	-0.8929725377	 1.2522715129	-0.290931
C	 0.0379180364	-0.0214381203	 0.0082664205	 0.315588
C	-0.0154328055	-1.0666293201	-1.0766140062	-0.14171
O	 0.8348345041	-2.0959935695	-0.5215638076	-0.293323
H	-0.3833684074	 1.9219415353	 0.9686253107	 0.112166
H	-0.3160947993	 2.0234996619	-0.8454777286	 0.115487
H	 1.8088463947	 0.8337451785	-0.9585976195	 0.087157
H	 3.2447896628	 0.8907308512	 1.0208824112	 0.096363
H	 1.8812633004	 0.7864618511	 2.1096414939	 0.100085
H	 3.1037004559	-1.4562499761	 0.4046800263	 0.109927
H	 2.7929322314	-1.4573548935	 2.1390369507	 0.089309
H	 1.0105256982	-2.8143129811	 1.388116394	 0.070039
H	-1.072923369	-1.40707219	 1.2723104849	 0.098463
H	 0.0271194561	-0.371768186	 2.2006763895	 0.099738
H	-1.0209013022	-1.4758305405	-1.2542853813	 0.086736
H	 0.402296685	-0.7350469091	-2.0329572075	 0.09821
188.4188	250.741	354.1249	363.0977	381.9657	465.8407	485.688	541.112	565.0781	737.6201	767.5722	790.6758	816.3811	859.5809	880.834	905.1495	929.0513	938.2048	949.4361	994.4054	1003.3304	1011.1097	1057.9503	1078.3596	1084.8597	1112.2105	1126.0877	1164.4631	1186.8316	1203.4023	1232.7647	1266.2583	1277.4411	1303.9506	1324.1973	1344.6551	1353.4503	1363.0438	1381.1855	1437.1147	1472.5789	1486.0389	1491.6958	1514.9384	1530.6328	2990.4426	3032.4508	3047.0974	3053.7428	3064.3227	3071.7703	3075.8271	3090.1335	3118.0471	3125.4839	3129.8595	3201.0358
C1C2CCC3CC12CO3	C1[C@H]2CC[C@H]3C[C@@]12CO3	
InChI=1S/C8H12O/c1-2-7-4-8(5-9-7)3-6(1)8/h6-7H,1-5H2	InChI=1S/C8H12O/c1-2-7-4-8(5-9-7)3-6(1)8/h6-7H,1-5H2/t6-,7+,8-/m1/s1
