19
gdb 97818	4.96637	0.67966	0.65238	1.263	85.54	-0.2388	0.0342	0.273	1749.4203	0.158667	-385.818966	-385.809755	-385.808811	-385.855089	33.236	
O	 0.1083728542	 1.2807391448	 0.7256508113	-0.409113
C	 0.0323613598	 0.1352603625	-0.1167481937	-0.216033
C	-1.3261673149	-0.390364972	-0.1133124464	 0.0778
C	-2.4447788103	-0.8382758294	-0.1172405875	 0.100834
C	-3.791008689	-1.3817018369	-0.135768397	-0.181165
C	-4.5338873308	-1.5371944065	-1.5213462844	-0.244801
C	-4.7160381429	-3.0304872712	-1.2352267628	-0.038537
C	-3.3770812616	-3.6833452264	-1.0354194033	-0.274325
C	-3.9754181529	-2.8979480678	 0.0950514391	-0.04421
H	 1.017535221	 1.5960131509	 0.6967507309	 0.287793
H	 0.32046195	 0.3848522378	-1.151476619	 0.113066
H	 0.7246008888	-0.652988969	 0.2227315095	 0.114166
H	-4.4219273254	-0.8109701299	 0.5520914568	 0.105862
H	-5.467170609	-0.9712241984	-1.5414035804	 0.107075
H	-3.9458197238	-1.2856108498	-2.4084210207	 0.103134
H	-5.6063157943	-3.6046893527	-1.4596921396	 0.08616
H	-3.3978776661	-4.7606785371	-0.9061886226	 0.110489
H	-2.4975829676	-3.3123427036	-1.5565951264	 0.113257
H	-4.192813125	-3.3451816654	 1.0572078961	 0.088547
14.0193	74.7297	103.0372	145.3004	229.1893	276.2742	286.3932	398.6703	466.5848	514.4271	565.8624	665.5765	760.5319	784.6667	801.1042	905.3822	929.9644	961.0836	966.7758	1007.8955	1027.6267	1028.6291	1049.7265	1061.2981	1079.1895	1084.4475	1135.6463	1172.4571	1201.0319	1217.4394	1246.2202	1256.8073	1259.0855	1294.4718	1338.5521	1364.6018	1459.5048	1481.407	1497.4599	1503.6873	2362.1557	2958.4438	2975.1438	3057.6487	3059.9728	3110.3523	3117.7647	3180.0003	3187.8794	3203.979	3816.8174
OCC#CC1CC2CC12	OCC#C[C@H]1C[C@H]2C[C@@H]12	
InChI=1S/C8H10O/c9-3-1-2-6-4-7-5-8(6)7/h6-9H,3-5H2	InChI=1S/C8H10O/c9-3-1-2-6-4-7-5-8(6)7/h6-9H,3-5H2/t6-,7-,8-/m0/s1
