15
gdb 48408	2.3482	1.6923	1.2511	2.9791	66.2	-0.2504	-0.06	0.1904	1007.2289	0.109327	-457.72143	-457.713256	-457.712312	-457.754637	29.422	
O	-0.1184389614	 0.0142169467	-0.4667452228	-0.246601
C	 0.0289577046	 1.0712904768	 0.0841859109	 0.118742
C	 1.3072978345	 1.8961156763	 0.0075284369	 0.231349
O	 2.4611533653	 1.2091144542	-0.5061963144	-0.317898
C	 2.5860477192	 2.1605604367	-1.5728536884	 0.102852
C	 1.3946774631	 2.1171986289	-2.4677458375	-0.310587
C	 1.3298765604	 2.9017873438	-1.1707868865	-0.174611
C	 1.6089290882	 2.5681506836	 1.3369587481	 0.093237
O	 0.79972309	 3.2387716916	 1.9236388389	-0.249972
H	-0.7737349335	 1.5665098651	 0.669166065	 0.115827
H	 3.5829585128	 2.4925417581	-1.8341700444	 0.11833
H	 1.4517281335	 2.7449569419	-3.3517000566	 0.127984
H	 0.8461056505	 1.1878226626	-2.5829585245	 0.152755
H	 1.096837237	 3.9538335185	-1.0908618293	 0.126308
H	 2.6378942857	 2.3832026452	 1.7108826647	 0.112284
75.9252	110.1123	173.2775	197.401	208.3673	292.6999	393.4948	446.7212	493.0929	666.8343	699.3953	758.6253	824.3565	853.106	916.05	959.3772	974.302	982.0788	1023.0691	1049.5457	1056.5514	1095.2912	1106.8586	1145.1009	1162.6584	1223.772	1254.5341	1340.8143	1379.4291	1397.8148	1468.0359	1809.5819	1837.3979	2920.0678	2925.0235	3128.1213	3196.1596	3218.4565	3225.3515
O=CC1(OC2CC12)C=O	O=CC1(O[C@H]2C[C@@H]12)C=O	
InChI=1S/C6H6O3/c7-2-6(3-8)4-1-5(4)9-6/h2-5H,1H2	InChI=1S/C6H6O3/c7-2-6(3-8)4-1-5(4)9-6/h2-5H,1H2/t4-,5+/m1/s1
