19
gdb 119328	4.92104	1.03243	1.00784	1.0485	79.24	-0.2148	0.0844	0.2993	1265.6902	0.157705	-385.766981	-385.758917	-385.757973	-385.800187	31.16	
C	 0.0123604715	 1.5078987145	 0.1221458753	-0.38764
C	-0.128808584	-0.0032086348	 0.1298520437	-0.060014
O	 0.8631971447	-0.5383069256	 1.0085946161	-0.286748
C	 0.8354796999	-1.8931220753	 1.1172880397	 0.448712
C	 1.2267192952	-3.0497286141	 0.1207540157	-0.190094
C	 0.2461863209	-3.9706485894	 0.8337999085	-0.0777
C	 1.6883562114	-3.8806204754	 1.3103475602	-0.080056
C	 1.3009599783	-2.7287542005	 2.2838126417	-0.178316
C	-0.1592823362	-2.826833264	 1.8082598104	-0.189095
H	 1.0069931512	 1.800015565	-0.2263046316	 0.128614
H	-0.7336595279	 1.9556152124	-0.5412657414	 0.115745
H	-0.1301514333	 1.9120419272	 1.1284222299	 0.127647
H	-1.1265399623	-0.30898582	 0.4757644256	 0.096973
H	 0.0107054546	-0.4149161842	-0.8805321719	 0.097979
H	 1.573176294	-3.0707621717	-0.9040058297	 0.087501
H	-0.3039255303	-4.8143275976	 0.437871667	 0.084372
H	 2.4573467194	-4.6408153203	 1.3550977902	 0.085133
H	 1.6826633153	-2.4138939912	 3.2452687434	 0.090743
H	-1.0644687023	-2.6125225149	 2.359899477	 0.086243
57.4275	93.0787	131.5729	242.8022	328.4347	357.6964	387.8647	628.0824	668.6298	727.583	760.8316	779.9478	807.3944	817.0881	836.5864	846.9902	880.7922	904.5233	932.35	943.2273	948.7603	975.7811	1009.5225	1024.8567	1063.2444	1068.2808	1098.1375	1144.0553	1166.1983	1185.057	1204.2756	1253.896	1260.5529	1291.2349	1320.7966	1386.6594	1410.1986	1462.632	1483.4886	1499.1299	1525.6007	2991.3624	3025.5764	3045.1305	3119.4853	3122.5323	3185.9117	3191.2107	3205.6231	3207.0557	3215.5227
CCOC12C3C4C3C1C24	CCO[C@@]12[C@@H]3[C@H]4[C@@H]3[C@@H]1[C@@H]24	
InChI=1S/C8H10O/c1-2-9-8-5-3-4(5)7(8)6(3)8/h3-7H,2H2,1H3	InChI=1S/C8H10O/c1-2-9-8-5-3-4(5)7(8)6(3)8/h3-7H,2H2,1H3/t3-,4+,5-,6+,7-,8-
