18
gdb 111638	2.23074	1.75409	1.3924	1.4208	71.67	-0.234	0.0181	0.2521	1026.7194	0.147027	-439.066791	-439.058329	-439.057385	-439.099762	31.403	
C	 0.2970239377	 0.9253572917	-0.2717092075	-0.239745
O	-0.4144486782	 0.0286178771	 0.5686276664	-0.23416
C	 0.4035440497	-0.65890731	 1.4428346126	 0.034257
C	 0.0269378244	-2.0637019588	 1.8046506942	-0.036692
O	-0.8593638089	-2.7110818387	 0.9093439409	-0.203817
C	-0.2033445929	-2.7455521884	-0.2777375252	 0.107962
N	 0.9925132233	-2.3162251098	-0.3337199089	-0.299822
C	 1.3055046787	-1.8052938665	 0.9834576702	 0.253102
C	 2.7275147206	-1.9439382071	 1.4546420486	-0.475859
H	 1.020166891	 0.3887922282	-0.8979656692	 0.133969
H	-0.44277453	 1.4161507594	-0.9078264972	 0.12917
H	 0.8257924062	 1.6902689953	 0.3155385869	 0.105695
H	 0.8178267987	-0.0675700437	 2.262812772	 0.091819
H	-0.0630946566	-2.4187326505	 2.8236060463	 0.113518
H	-0.7711421141	-3.1666187316	-1.0977392894	 0.144554
H	 3.4066336969	-1.4186358916	 0.7755595406	 0.133358
H	 2.8511077751	-1.5215052897	 2.456412522	 0.114649
H	 3.0294067584	-2.9956971552	 1.4869572568	 0.128042
103.5144	144.2509	182.2376	189.4087	236.1543	249.9903	314.4296	364.8264	491.4713	599.4386	618.2523	697.8354	756.7311	776.89	887.7035	901.246	938.1098	949.3984	994.6879	1019.7036	1075.563	1087.9041	1108.6405	1147.3154	1179.0371	1187.3593	1227.4566	1261.3257	1278.7834	1311.5477	1350.5428	1416.2083	1429.8387	1480.7657	1486.0493	1488.2096	1498.3417	1505.1486	1664.7474	2994.4371	3035.5948	3062.6065	3076.3224	3103.7995	3111.1062	3125.5206	3192.0613	3235.0661
COC1C2OC=NC12C	CO[C@H]1[C@H]2OC=N[C@@]12C	
InChI=1S/C6H9NO2/c1-6-4(8-2)5(6)9-3-7-6/h3-5H,1-2H3	InChI=1S/C6H9NO2/c1-6-4(8-2)5(6)9-3-7-6/h3-5H,1-2H3/t4-,5+,6-/m0/s1
