23
gdb 104280	2.13004	1.18797	1.03564	2.8971	86.33	-0.2412	-0.0236	0.2176	1336.4876	0.203856	-388.298657	-388.288462	-388.287518	-388.334078	37.786	
C	-0.0985975455	 1.4957796148	-0.0966547006	-0.398232
C	 0.1592437904	-0.0146962968	-0.0329060176	-0.22961
C	 0.7932774162	-0.5062606578	 1.2821490586	 0.328081
C	 2.1405722294	 0.1564313296	 1.5530630896	-0.461516
C	-0.2231411738	-0.5109002421	 2.4702149596	-0.256765
C	-0.4668138802	-2.0223600316	 2.2446138523	-0.252809
C	 0.8286369861	-2.0926816501	 1.3905753463	-0.098537
C	 0.8041802186	-2.9088465379	 0.129263332	 0.145898
O	 1.731970151	-3.555223652	-0.2907339267	-0.259989
H	 0.8320003709	 2.0700570785	-0.0930770631	 0.123138
H	-0.638168596	 1.7522878689	-1.0133143452	 0.116942
H	-0.7049236868	 1.8377370521	 0.7489569789	 0.118875
H	-0.792040429	-0.5373956296	-0.1920963142	 0.09435
H	 0.8081104843	-0.3035626887	-0.8704527477	 0.105738
H	 2.0357384668	 1.2379620575	 1.6872012098	 0.119534
H	 2.5962770312	-0.2445655874	 2.4640071432	 0.113487
H	 2.8397177038	-0.0138653843	 0.7260311522	 0.122609
H	 0.2701615619	-0.3101284515	 3.4252769414	 0.101564
H	-1.0878523673	 0.1523807861	 2.3855035679	 0.098675
H	-0.5033268445	-2.6674686836	 3.1246044402	 0.1084
H	-1.3602630103	-2.2167553101	 1.6424210156	 0.106106
H	 1.6982415671	-2.4033134824	 1.9751028275	 0.087862
H	-0.1648510644	-2.8862155416	-0.4229173	 0.066199
48.8337	82.2913	123.1181	178.5345	211.2802	224.0864	270.1856	302.7707	346.1738	360.1987	424.8602	447.0986	486.0605	625.5693	708.5677	793.4062	810.2766	864.2812	894.0575	900.1339	963.8116	998.2756	1015.7162	1032.1528	1034.3495	1072.7872	1082.6199	1138.643	1159.6766	1202.6819	1216.8213	1238.1872	1264.6943	1271.9613	1295.9296	1325.0287	1348.1643	1371.9535	1409.9124	1414.6868	1434.6249	1480.7156	1482.2274	1490.319	1495.0914	1501.0243	1505.7945	1513.2265	1818.1053	2850.1838	3015.421	3027.1458	3039.0893	3048.3983	3052.9353	3057.2437	3079.9877	3094.4663	3099.4795	3100.9889	3103.9021	3114.776	3117.357
CCC1(C)CCC1C=O	CC[C@@]1(C)CC[C@H]1C=O	
InChI=1S/C8H14O/c1-3-8(2)5-4-7(8)6-9/h6-7H,3-5H2,1-2H3	InChI=1S/C8H14O/c1-3-8(2)5-4-7(8)6-9/h6-7H,3-5H2,1-2H3/t7-,8-/m0/s1
