15
gdb 76292	2.42484	1.65491	1.09624	0.7118	62.42	-0.2452	-0.0313	0.2139	1052.0701	0.113918	-491.145313	-491.137033	-491.136089	-491.178379	30.537	
N	 0.1377491272	 1.3763252453	 0.4388217234	-0.521297
C	-0.0235736508	 0.0038941779	 0.0113171025	-0.100698
C	-1.4823202805	-0.4599494644	-0.1166546608	-0.001586
O	-2.2707406313	 0.6327417664	-0.5623501195	-0.430622
C	-1.4478220014	-1.4992818906	-1.2543191455	 0.399901
O	-2.3406807838	-2.2435971957	-1.5734455696	-0.352427
N	-0.2389480598	-1.3397492277	-1.9132285338	-0.35762
C	 0.5906477978	-0.3680355479	-1.3536347113	 0.402603
O	 1.6022840565	 0.0609551854	-1.8428364332	-0.343948
H	 1.0865828111	 1.6727703136	 0.2260533786	 0.245971
H	-0.4888280902	 1.9649940231	-0.1015778683	 0.250069
H	 0.4743068364	-0.657851581	 0.735380491	 0.123267
H	-1.8838508995	-0.8987517116	 0.802949145	 0.106695
H	-3.148905867	 0.2944056526	-0.7716544028	 0.30509
H	-0.0306353948	-1.8036812955	-2.7877106258	 0.274603
66.3548	137.911	235.9539	249.9669	269.0806	276.6696	344.8999	385.1786	478.7408	548.264	620.5481	653.6722	676.0684	736.545	780.4973	827.8291	910.6977	918.5742	973.18	1067.9757	1155.6697	1179.2034	1210.3125	1240.8715	1316.7327	1327.3241	1330.0012	1354.5502	1390.5655	1429.9755	1653.1358	1835.3502	1881.5709	3004.6296	3054.7458	3497.0155	3578.1313	3598.7781	3806.9402
NC1C(O)C(=O)NC1=O	N[C@H]1[C@@H](O)C(=O)NC1=O	
InChI=1S/C4H6N2O3/c5-1-2(7)4(9)6-3(1)8/h1-2,7H,5H2,(H,6,8,9)	InChI=1S/C4H6N2O3/c5-1-2(7)4(9)6-3(1)8/h1-2,7H,5H2,(H,6,8,9)/t1-,2+/m0/s1
