17
gdb 38579	2.85224	2.23163	2.05917	1.7706	68.57	-0.2113	0.0749	0.2863	784.4474	0.140022	-421.796409	-421.790882	-421.789937	-421.825926	24.539	
C	-0.0337380114	 1.5622033341	 0.0607381527	-0.258233
C	 1.5170019986	 1.4862795914	-0.0041186667	 0.073997
O	 2.085765601	 1.319612899	 1.2908058916	-0.26332
C	 1.6639616243	 0.12235221	 1.8973903169	 0.054128
C	 1.8376925532	-1.1424217724	 1.1122576153	 0.050157
O	 2.218235055	-0.9267151321	-0.2273808534	-0.246782
C	 1.3637501054	 0.0909075987	-0.6941157525	 0.079949
C	-0.0233142934	 0.0099665347	 0.0232935558	-0.083426
C	 0.4344293217	-0.5851578825	 1.3480332639	-0.1587
H	-0.4607262589	 2.0543449275	 0.9363409326	 0.108443
H	-0.4557729991	 1.9934443214	-0.8511512535	 0.103163
H	 2.082018259	 2.2802269836	-0.4938262634	 0.08035
H	 1.8465528421	 0.137837401	 2.9656210289	 0.105171
H	 2.2236124254	-2.0664651267	 1.5245679881	 0.102781
H	 1.3764235987	 0.1124890467	-1.7838481845	 0.089266
H	-0.8496611583	-0.5356533189	-0.4340467799	 0.070727
H	-0.2755711531	-1.0551268455	 2.017694558	 0.09233
290.3203	382.6494	404.7349	551.1707	600.6417	655.4437	677.7934	718.491	753.7739	780.1009	796.3093	849.906	872.0288	899.0105	942.5242	970.2734	981.5043	1016.2014	1031.6981	1055.2582	1078.126	1097.8461	1109.8494	1123.2628	1132.8714	1155.5365	1198.5544	1215.2331	1239.2159	1258.7965	1287.759	1299.9389	1323.7906	1355.8185	1378.2443	1428.5965	1479.6589	3063.3921	3098.1737	3105.0007	3121.3365	3126.7405	3176.7626	3182.7271	3195.4264
C1C2OC3C4OC2C1C34	C1[C@H]2O[C@@H]3[C@@H]4O[C@H]2[C@H]1[C@H]34	
InChI=1S/C7H8O2/c1-2-4-6-7(4)9-5(2)3(1)8-6/h2-7H,1H2	InChI=1S/C7H8O2/c1-2-4-6-7(4)9-5(2)3(1)8-6/h2-7H,1H2/t2-,3-,4-,5+,6+,7-/m1/s1
