21
gdb 63429	3.89297	0.83556	0.81402	4.4185	84.24	-0.2362	0.0236	0.2597	1506.617	0.181336	-383.265883	-383.256206	-383.255261	-383.300596	35.851	
C	-0.1028020971	 1.5102987339	-0.0325225643	-0.435481
C	-0.0749169041	-0.0184100112	-0.0061851971	 0.322702
C	-1.4513491358	-0.6136185535	-0.2727195272	-0.455585
C	 1.1074618617	-0.5992886573	-0.8396410871	-0.21018
N	 1.916133083	-0.6429852306	 0.3944716608	-0.074533
C	 2.8233734566	-1.755266455	 0.5665223559	-0.287039
C	 3.5422389258	-1.6700022893	 1.8437855795	 0.277351
N	 4.094400912	-1.6150488333	 2.8567240709	-0.304823
C	 0.6983919759	-0.5713616827	 1.2291762071	-0.208646
H	 0.8921038294	 1.9226345367	 0.1588361356	 0.131753
H	-0.4443681548	 1.8784911316	-1.0064888202	 0.112919
H	-0.7859405239	 1.9011648654	 0.7297932004	 0.115448
H	-1.8292630471	-0.3017847796	-1.2531956634	 0.118007
H	-1.429277306	-1.7078488396	-0.2539000435	 0.111429
H	-2.1750982034	-0.2794224217	 0.4793628838	 0.120035
H	 0.8747216422	-1.5988275085	-1.2433877531	 0.082873
H	 1.5284149474	 0.0193500062	-1.6401422437	 0.104981
H	 2.3193040214	-2.7416327687	 0.5274610406	 0.122124
H	 3.5610264319	-1.7433777714	-0.2450342325	 0.154514
H	 0.7875135246	 0.0688598092	 2.1124058372	 0.115656
H	 0.3287924503	-1.5624091305	 1.5402189302	 0.086494
56.5043	82.247	143.7	220.1898	255.7385	294.5885	297.4368	308.8459	344.9713	390.4123	418.0226	422.1202	491.8921	642.1459	765.3455	871.4838	896.6405	925.5474	946.2406	955.7841	976.3937	992.4749	1008.2331	1054.6025	1110.3107	1136.5833	1167.5839	1188.4998	1213.9064	1259.6152	1284.1882	1296.2567	1298.9818	1349.7511	1387.5319	1403.6925	1423.5614	1471.5824	1486.6784	1487.6068	1498.3648	1503.3775	1511.8357	1525.9094	2366.7467	2907.0066	2959.4369	2970.7572	3023.4268	3028.9911	3054.2034	3055.583	3071.7327	3088.0859	3093.4584	3098.9569	3111.3456
CC1(C)CN(CC#N)C1	CC1(C)CN(CC#N)C1	
InChI=1S/C7H12N2/c1-7(2)5-9(6-7)4-3-8/h4-6H2,1-2H3	InChI=1S/C7H12N2/c1-7(2)5-9(6-7)4-3-8/h4-6H2,1-2H3
