20
gdb 62567	2.38062	1.52607	1.18008	4.1024	80.35	-0.2371	0.0135	0.2506	1138.5038	0.169322	-403.158316	-403.149044	-403.1481	-403.191537	35.668	
C	 0.0613654122	 1.5199051223	 0.0329018626	-0.463344
C	 0.0516493747	 0.0025566873	 0.0582134953	 0.270292
C	-1.1944021053	-0.5864595013	-0.5852244494	-0.457594
C	 1.3280993398	-0.829499621	-0.2122113726	-0.332423
C	 2.5060337403	-0.1172938013	 0.4227443046	 0.422902
O	 3.551241887	 0.3417511778	 0.0553164811	-0.353959
N	 1.8990008638	-0.1542209715	 1.691972285	-0.388355
C	 0.6802797538	-0.8020943772	 1.1740147265	 0.316207
C	 0.0489929134	-1.8838149969	 2.0003236515	-0.485245
H	 0.951323197	 1.9463211825	 0.4994005343	 0.126812
H	 0.0232839466	 1.8843957815	-0.9991530063	 0.127784
H	-0.8175653602	 1.9154456895	 0.5553644763	 0.115807
H	-1.2980279399	-0.2200964326	-1.6122340181	 0.126615
H	-1.1673247818	-1.6782777612	-0.6268067189	 0.121232
H	-2.0947688604	-0.2892554528	-0.0355828395	 0.122194
H	 1.3527257417	-1.613824336	-0.9565685423	 0.107737
H	 1.9048408331	 0.6319890315	 2.332984928	 0.235878
H	-0.4044443692	-1.4625472084	 2.9056348033	 0.124163
H	-0.7373827632	-2.4077418794	 1.4532709216	 0.127639
H	 0.8026487365	-2.6125560727	 2.3133260471	 0.13566
137.4288	175.088	184.5532	192.7269	203.4301	270.8223	295.3868	327.4456	363.5507	451.5102	474.4456	518.7457	585.4202	633.5318	673.4769	728.859	788.8736	869.0141	911.6606	941.2792	969.2537	992.6803	995.7976	1040.17	1082.2401	1112.1343	1145.3109	1161.4554	1203.4912	1258.03	1280.8717	1323.66	1400.8	1413.0438	1428.0252	1431.4859	1479.3461	1483.5988	1488.8552	1495.6473	1505.0635	1514.6258	1891.7735	3029.4767	3032.5796	3035.3261	3088.9757	3092.6655	3094.6848	3113.6184	3128.9205	3132.2325	3212.2404	3538.4689
CC1(C)C2C(=O)NC12C	CC1(C)[C@H]2C(=O)N[C@@]12C	
InChI=1S/C7H11NO/c1-6(2)4-5(9)8-7(4,6)3/h4H,1-3H3,(H,8,9)	InChI=1S/C7H11NO/c1-6(2)4-5(9)8-7(4,6)3/h4H,1-3H3,(H,8,9)/t4-,7-/m1/s1
