19
gdb 67149	2.42231	1.6739	1.55396	3.2988	79.07	-0.2325	-0.0136	0.2189	992.6088	0.159987	-385.876904	-385.869286	-385.868342	-385.908689	30.392	
C	-0.0506510332	 1.551028089	 0.0143527798	-0.533004
C	-0.0004779578	 0.0516443459	-0.0030471719	 0.383073
C	 0.6363728302	-0.8771932881	-1.1082404822	-0.091848
C	 1.5321198771	-1.5265055184	-0.0269792602	-0.234907
C	 0.6877161551	-0.858393864	 1.0985157235	-0.219579
C	-0.6674744047	-1.5468890789	 1.2800375808	 0.431041
O	-1.1394358874	-2.2046126836	 2.1648127654	-0.324117
C	-1.2605875152	-0.9110591149	 0.0200942088	-0.219578
C	-0.7273484798	-1.5875852102	-1.2776368285	-0.234909
H	 0.9561947691	 1.9838800595	 0.0023722813	 0.122484
H	-0.5903357106	 1.9420671305	-0.8557473675	 0.122483
H	-0.5593004103	 1.9187351409	 0.9131306346	 0.125862
H	 1.126355935	-0.5110441877	-2.0113309878	 0.068935
H	 1.6211183345	-2.6172456896	-0.0168312809	 0.105974
H	 2.5366261415	-1.0946816308	-0.0412666682	 0.110462
H	 1.1991976902	-0.5061926344	 1.9952936761	 0.085597
H	-2.3057953078	-0.60093503	 0.0552153979	 0.085596
H	-1.265592937	-1.197469007	-2.1458598099	 0.110462
H	-0.7379972587	-2.6810192782	-1.322650311	 0.105974
110.234	201.9173	224.7213	260.1793	289.7953	365.815	455.6466	513.2123	583.2889	584.2428	732.3468	758.4742	817.646	837.3805	880.2742	887.3948	942.6724	946.7356	971.711	974.4693	1043.0474	1092.4047	1106.0468	1113.1382	1119.6635	1128.5822	1154.3458	1172.4899	1191.414	1218.2565	1256.6063	1284.5832	1306.8328	1315.2368	1348.2591	1415.0575	1479.4234	1488.4089	1491.3825	1492.047	1875.7392	3020.1947	3046.2556	3047.9673	3085.5001	3086.0165	3093.3846	3097.7515	3101.6717	3106.5363	3109.9123
CC12C3CC1C(=O)C2C3	C[C@@]12[C@H]3C[C@@H]1C(=O)[C@@H]2C3	
InChI=1S/C8H10O/c1-8-4-2-5(8)7(9)6(8)3-4/h4-6H,2-3H2,1H3	InChI=1S/C8H10O/c1-8-4-2-5(8)7(9)6(8)3-4/h4-6H,2-3H2,1H3/t4-,5+,6-,8+
