18
gdb 126652	6.44926	0.67893	0.6233	4.6739	75.55	-0.2183	-0.0297	0.1886	1757.9347	0.14727	-435.239981	-435.230995	-435.230051	-435.274921	31.95	
C	 0.0308340863	 1.5179900845	-0.1036642429	-0.382114
C	-0.0855070036	 0.001755098	 0.066688858	-0.193305
C	 0.7692301433	-0.5259316018	 1.2173130758	-0.12229
N	 0.6085791863	-1.9646073367	 1.3694576226	-0.396757
C	 1.3247615442	-2.6065917812	 2.3536242128	 0.330977
C	 1.9478930596	-2.160419059	 3.4814970981	-0.062106
O	 2.448312189	-3.2330326412	 4.1263339396	-0.159042
N	 2.1302062883	-4.3555247365	 3.3601188516	-0.002097
N	 1.4813365025	-3.9770296959	 2.3414827981	-0.208856
H	 1.0651048788	 1.8190787401	-0.3020023313	 0.120742
H	-0.5829963934	 1.8667721995	-0.9387312842	 0.122375
H	-0.3024409414	 2.0450153412	 0.7968297761	 0.120952
H	-1.1289530013	-0.2823652782	 0.2443351077	 0.116716
H	 0.2197659774	-0.4969247637	-0.8633368487	 0.101298
H	 1.8260314006	-0.2463785616	 1.0614856428	 0.097475
H	 0.4538427735	-0.0485389009	 2.1547917341	 0.112705
H	 0.5948279634	-2.4843451537	 0.5023575242	 0.247931
H	 2.1071820766	-1.1970430029	 3.9308193356	 0.155396
54.3532	68.7329	96.8331	141.2287	236.7592	274.6721	331.0578	346.8366	463.8756	570.5089	638.2679	713.2734	747.7086	761.369	769.5278	777.5431	900.7902	916.9538	994.6716	1041.0803	1058.5293	1105.6959	1120.1472	1150.6069	1173.5983	1258.103	1280.7144	1310.6311	1325.056	1347.0234	1410.9953	1412.8668	1430.4429	1491.2347	1499.9581	1505.8442	1514.8096	1525.7213	1669.5736	2949.9804	3015.5393	3029.3116	3035.7054	3066.7816	3102.3044	3112.6384	3307.6721	3586.568
CCCNC1=CON=N1	CCCNc1conn1	
InChI=1S/C5H9N3O/c1-2-3-6-5-4-9-8-7-5/h4,6H,2-3H2,1H3	InChI=1S/C5H9N3O/c1-2-3-6-5-4-9-8-7-5/h4,6H,2-3H2,1H3
