21
gdb 40914	3.55682	1.39146	1.34071	1.5088	81.56	-0.2342	0.0899	0.3241	1061.657	0.18531	-387.067191	-387.05989	-387.058946	-387.099029	29.909	
C	-0.0205867854	 1.3613406395	-0.3007089187	-0.076841
C	 1.4417635707	 1.5549527822	 0.1389783034	-0.365783
C	 1.3052275807	 0.1394583424	 0.7430731362	 0.498218
C	 2.2576470992	-1.0150119899	 0.3118911932	-0.290031
C	 2.6238974198	-1.5643622211	 1.7033870731	-0.017785
C	 1.2401119194	-1.5684613945	 2.4180400311	-0.23019
C	 1.3839048007	-0.0263744665	 2.2662022173	-0.067688
C	 2.9099979975	-0.2482591316	 2.4854634142	-0.23403
O	-0.0447262973	 0.0179822866	 0.2200730362	-0.331771
H	-0.7530168732	 2.0080821474	 0.1987940464	 0.098821
H	-0.2082125757	 1.3850761552	-1.3807779494	 0.100768
H	 2.1604850898	 1.6359276988	-0.6787768186	 0.107085
H	 1.6267322773	 2.3553491503	 0.8588428422	 0.106824
H	 1.7181131909	-1.7334725	-0.3112726896	 0.109934
H	 3.1282456499	-0.654488956	-0.2453231365	 0.092134
H	 3.2986863123	-2.4194789612	 1.7466391467	 0.058937
H	 0.3970239973	-2.051295326	 1.9180268863	 0.107827
H	 1.3046210379	-1.8909840795	 3.4597869432	 0.092962
H	 0.8012376978	 0.6779428449	 2.8611704618	 0.055506
H	 3.1560060085	-0.4202160923	 3.535959373	 0.097496
H	 3.6104372218	 0.4715639113	 2.0493919886	 0.087608
81.2046	132.0195	239.3925	363.2283	411.8165	431.6938	493.7962	511.8422	721.9068	777.7897	823.7616	845.0549	849.9298	862.9951	869.4081	894.3656	935.9325	957.3964	971.5642	985.8133	1020.8224	1025.7659	1033.5683	1066.5398	1075.8187	1085.1476	1133.5234	1160.7719	1174.3197	1197.4928	1201.8062	1226.2535	1227.1804	1241.3851	1259.8624	1273.2054	1276.4394	1312.9642	1346.6542	1356.5236	1483.3568	1487.7159	1488.7955	1522.9294	1531.9551	3013.4058	3044.8921	3048.5815	3052.5859	3062.7806	3069.583	3101.1871	3106.6479	3108.6421	3114.02	3123.4315	3124.2775
C1CC2(CC3CC2C3)O1	C1C[C@]2(C[C@@H]3C[C@H]2C3)O1	
InChI=1S/C8H12O/c1-2-9-8(1)5-6-3-7(8)4-6/h6-7H,1-5H2	InChI=1S/C8H12O/c1-2-9-8(1)5-6-3-7(8)4-6/h6-7H,1-5H2/t6-,7+,8-/m1/s1
