23
gdb 114551	2.57618	1.42561	1.11863	1.5989	85.42	-0.2339	0.0861	0.32	1217.0832	0.206264	-388.284578	-388.27573	-388.274786	-388.317706	35.144	
C	-0.1254507358	 1.5382459845	 0.1167319664	-0.379295
C	 0.1122728469	 0.0347640629	-0.0592391926	-0.207351
C	 0.7637273043	-0.5947136278	 1.1666957349	 0.134165
O	-0.0409197599	-0.3844516992	 2.3572573472	-0.299684
C	-0.1773284691	-1.7217923569	 2.8637097859	 0.109981
C	-0.5550333832	-2.5450178642	 1.6118074625	-0.276101
C	 0.9034923088	-2.1356513963	 1.2042355944	 0.277174
C	 1.6859605529	-2.8139974643	 0.105167046	-0.505199
C	 1.246555915	-2.3059300249	 2.7256762226	-0.27474
H	 0.8177780671	 2.0707526917	 0.2827834234	 0.110654
H	-0.6012182836	 1.9694096478	-0.7691801163	 0.106679
H	-0.7694983253	 1.7231122397	 0.9802519024	 0.136985
H	-0.8378500314	-0.4665113466	-0.2754186091	 0.096019
H	 0.7668705326	-0.1394139283	-0.9232912073	 0.093016
H	 1.7465883965	-0.1225610264	 1.3218054038	 0.063473
H	-0.7516029394	-1.7085880721	 3.7885926693	 0.075764
H	-0.6401560846	-3.6164021477	 1.8055417104	 0.095631
H	-1.3962417129	-2.1927607129	 1.0116795498	 0.097432
H	 1.2168334658	-2.6627904938	-0.8731189735	 0.121794
H	 2.7078033785	-2.4205157295	 0.0480771817	 0.117391
H	 1.7537300955	-3.8927724065	 0.2781747036	 0.116221
H	 2.0709675095	-1.7191754795	 3.1396689318	 0.095094
H	 1.3226283517	-3.3535209896	 3.0245939727	 0.094895
87.7686	168.9396	175.4695	222.5053	245.8999	269.5384	317.6441	401.2973	487.2936	493.0505	540.8332	594.3191	677.6421	767.3518	812.3613	857.9136	859.2095	882.6262	925.7813	944.0447	959.9946	976.4455	987.2107	1027.7518	1035.0339	1065.4991	1104.1791	1115.0997	1131.4086	1162.9657	1191.4388	1224.5695	1239.0264	1257.2686	1268.392	1290.37	1309.9046	1331.1888	1365.2808	1405.9807	1412.6042	1417.1198	1471.4549	1481.5369	1492.8659	1496.1912	1497.2979	1509.7003	1513.9305	2975.1528	3022.281	3026.3004	3036.2309	3059.4114	3065.5671	3072.6806	3088.8744	3098.3499	3101.4112	3124.1879	3125.4651	3133.6437	3136.7394
CCC1OC2CC1(C)C2	CC[C@H]1O[C@H]2C[C@]1(C)C2	
InChI=1S/C8H14O/c1-3-7-8(2)4-6(5-8)9-7/h6-7H,3-5H2,1-2H3	InChI=1S/C8H14O/c1-3-7-8(2)4-6(5-8)9-7/h6-7H,3-5H2,1-2H3/t6-,7-,8+/m1/s1
