20
gdb 87623	2.6153	1.42959	1.18024	1.5402	80.25	-0.2256	0.0236	0.2492	1146.0692	0.170767	-403.161354	-403.15253	-403.151586	-403.195102	33.348	
C	 0.025825574	 1.5900930275	 0.0891095183	-0.405282
C	-0.0036875161	 0.0781972715	 0.090397547	-0.055577
C	 1.2276770133	-0.7257758955	-0.2588340244	-0.341323
C	 0.7126190533	-0.7171598528	 1.1587905927	 0.323353
N	 1.487941593	-0.0131788721	 2.161193703	-0.303507
C	 1.4155058236	-0.7250209522	 3.2078626049	 0.098103
O	 0.6995703262	-1.8734933886	 3.191940494	-0.237426
C	 0.1310136434	-1.9680183139	 1.8511128134	 0.029914
C	-1.3833296797	-2.0460583137	 1.9658149692	-0.39775
H	 0.9699663302	 1.9594839725	 0.4948971357	 0.141223
H	-0.0936492095	 1.9799111047	-0.9277261921	 0.11174
H	-0.7825403719	 2.0018325047	 0.7032523988	 0.113967
H	-0.9435151571	-0.3541660501	-0.2447767296	 0.081832
H	 1.1096348915	-1.6375883534	-0.8373696009	 0.106249
H	 2.1509655777	-0.1859392955	-0.4407986993	 0.1215
H	 1.8879478935	-0.5004794934	 4.1573501307	 0.138162
H	 0.5249817995	-2.8908090736	 1.4099823507	 0.094665
H	-1.7893640549	-1.1204680206	 2.3837987742	 0.129275
H	-1.8338221668	-2.2090092189	 0.9819959729	 0.122545
H	-1.6711193332	-2.8795793166	 2.612398101	 0.128335
44.0407	147.9002	183.5684	196.2741	237.3367	262.3555	332.6777	400.723	425.9176	500.2501	547.5426	624.5417	746.9847	805.0526	847.1748	853.3705	887.5612	923.3365	937.9185	954.4768	1000.7848	1050.7601	1058.9797	1067.8155	1106.6346	1129.8049	1137.0708	1139.0441	1192.2881	1233.8716	1292.6651	1316.099	1353.3175	1376.9378	1404.1711	1407.776	1423.5968	1478.9295	1486.3151	1492.7295	1494.9332	1503.0921	1698.7305	3033.1517	3035.7944	3042.908	3089.9242	3115.4237	3118.0396	3123.7227	3124.3011	3140.2267	3211.7659	3217.4075
CC1CC11N=COC1C	C[C@H]1C[C@]21N=CO[C@H]2C	
InChI=1S/C7H11NO/c1-5-3-7(5)6(2)9-4-8-7/h4-6H,3H2,1-2H3	InChI=1S/C7H11NO/c1-5-3-7(5)6(2)9-4-8-7/h4-6H,3H2,1-2H3/t5-,6-,7+/m0/s1
