23
gdb 63950	2.61519	1.64168	1.48607	1.4003	83.8	-0.2332	0.0799	0.3131	1050.4651	0.207728	-388.317973	-388.309777	-388.308833	-388.349912	34.141	
C	-0.1282921742	 1.5531048813	-0.0462735127	-0.433467
C	-0.0126656885	 0.0276940142	 0.0364175156	 0.407704
C	-1.4225696843	-0.5750713738	 0.0936606996	-0.423136
O	 0.6499952163	-0.4501075224	-1.1713510523	-0.32778
C	 1.8100571772	-1.1827017889	-0.7542023067	 0.119296
C	 2.8680952301	-0.1831933619	-0.2388509465	-0.213993
C	 2.2683874375	 0.2341015541	 1.1438637601	-0.233389
C	 0.9162228949	-0.5184693577	 1.1611417042	-0.052568
C	 1.3423511768	-1.8666483538	 0.536203446	-0.240044
H	 0.8341512964	 2.0244542249	-0.2514455903	 0.118781
H	-0.8082042334	 1.8260323276	-0.8590632583	 0.118112
H	-0.5307826287	 1.9685124658	 0.8840450741	 0.108144
H	-1.94576568	-0.3674609649	-0.8445051959	 0.122161
H	-1.4042677418	-1.6580699673	 0.2334476615	 0.111802
H	-2.0006198617	-0.1335418504	 0.9126351813	 0.10765
H	 2.1272147219	-1.8165858292	-1.5835288027	 0.067499
H	 3.8507070372	-0.6540771562	-0.1351650798	 0.092449
H	 2.9679052155	 0.6544666083	-0.9330704687	 0.104411
H	 2.8953602351	-0.11809475	 1.9686959516	 0.093984
H	 2.1655742785	 1.3139252372	 1.2607655165	 0.10027
H	 0.4305754118	-0.5584142465	 2.1377624216	 0.058777
H	 0.5323596172	-2.578677535	 0.373314492	 0.101113
H	 2.1484029562	-2.3561992254	 1.0899874996	 0.092223
141.9486	188.1342	219.8352	252.3122	330.621	375.6463	384.9887	430.505	469.5578	492.997	566.0804	676.0541	781.0453	801.3453	813.53	834.7605	885.984	900.146	926.7247	937.9253	949.0791	960.4209	972.0224	998.6375	1013.234	1042.3664	1057.103	1109.5672	1156.9014	1173.3308	1199.1321	1209.7946	1242.08	1252.2646	1258.3996	1280.2169	1323.716	1327.2515	1341.8925	1348.9447	1396.906	1414.8622	1471.6234	1478.2716	1483.4332	1494.3952	1499.2727	1505.413	1525.7349	3036.2321	3042.7144	3049.733	3060.3611	3068.0396	3099.4693	3100.5992	3102.0864	3109.2096	3110.3548	3116.6709	3121.5971	3132.1383	3136.3084
CC1(C)OC2CCC1C2	CC1(C)O[C@H]2CC[C@@H]1C2	
InChI=1S/C8H14O/c1-8(2)6-3-4-7(5-6)9-8/h6-7H,3-5H2,1-2H3	InChI=1S/C8H14O/c1-8(2)6-3-4-7(5-6)9-8/h6-7H,3-5H2,1-2H3/t6-,7+/m1/s1
