20
gdb 114599	2.28899	1.31737	0.98415	2.7947	80.39	-0.2455	-0.032	0.2135	1277.2017	0.170059	-403.118632	-403.109584	-403.10864	-403.152728	33.468	
C	-0.0131047405	 1.5010569955	 0.1366533977	-0.382814
C	-0.0921007339	-0.0290333306	 0.1149683878	-0.208631
C	 0.5567016549	-0.6321262747	-1.1267626118	-0.051774
C	 2.1013480983	-0.6029799086	-1.3085118324	-0.178429
N	 2.1839572275	-2.0927304957	-1.5599623454	-0.161905
C	 1.6919097645	-2.7270035335	-0.3463309256	-0.277961
C	 0.6663281907	-2.1492727058	-1.2587388993	 0.229835
C	-0.2221722627	-2.9994733814	-2.0712162071	 0.074352
O	-1.307823546	-2.6488179455	-2.4680834465	-0.264384
H	 1.0264521857	 1.8472321328	 0.1207500617	 0.116596
H	-0.5194248214	 1.934811854	-0.7324591321	 0.121443
H	-0.4842954423	 1.9092272859	 1.0355795951	 0.117168
H	 0.3804719943	-0.4326598775	 1.0192355194	 0.091256
H	-1.1412607706	-0.3474512337	 0.1464556462	 0.115849
H	 0.064130717	-0.2355080647	-2.0193250728	 0.10028
H	 2.4481327241	-0.0584179831	-2.1873695916	 0.120617
H	 2.6883710966	-0.2922457701	-0.4369485188	 0.10743
H	 1.8044996253	-3.8076947122	-0.3508945427	 0.130832
H	 1.8639845974	-2.2566264085	 0.6195674701	 0.122855
H	 0.193335261	-4.0054980926	-2.305919352	 0.077382
80.0106	97.954	152.0077	162.4333	214.4369	246.8178	301.5703	394.3202	455.7777	463.5787	511.9957	681.7709	732.7252	771.9607	791.073	838.2089	887.1504	945.4004	968.8906	982.7315	1002.8924	1037.2774	1083.8798	1101.3501	1127.1187	1143.8513	1170.0723	1204.8172	1236.0714	1271.2432	1288.3482	1317.8806	1341.8389	1351.5694	1410.864	1415.0976	1430.8163	1485.1456	1489.7019	1500.6908	1505.3534	1510.1257	1805.0751	2880.8851	3023.5224	3032.0472	3043.3915	3054.8682	3073.5984	3098.8368	3103.3719	3107.8515	3124.4281	3192.51
CCC1CN2CC12C=O	CC[C@H]1CN2C[C@@]12C=O	
InChI=1S/C7H11NO/c1-2-6-3-8-4-7(6,8)5-9/h5-6H,2-4H2,1H3	InChI=1S/C7H11NO/c1-2-6-3-8-4-7(6,8)5-9/h5-6H,2-4H2,1H3/t6-,7+,8?/m0/s1
