15
gdb 98054	3.42112	0.96886	0.84262	2.557	63.75	-0.2533	-0.1115	0.1418	1358.0961	0.107284	-494.926268	-494.916106	-494.915162	-494.96309	33.628	
C	 0.3694527129	 1.1687864984	 0.4090041698	-0.490037
C	-0.1746300027	-0.2045092388	 0.1287087573	 0.320651
O	-0.9043194256	-0.8356688883	 0.8542221491	-0.265563
C	 0.1564754532	-0.8152945345	-1.248286287	 0.212964
O	 0.3018690406	-0.1382499389	-2.237275283	-0.268685
C	 0.261336943	-2.3455481622	-1.3148813887	 0.287952
O	 0.8902703244	-2.9437693368	-0.4721083323	-0.29976
C	-0.3490045231	-3.0507437914	-2.5044024201	-0.137245
O	-0.0745802687	-4.4177707276	-2.484186224	-0.416749
H	 0.1834972265	 1.8258009066	-0.4454080095	 0.167653
H	-0.0785774293	 1.5702889866	 1.3180954867	 0.153577
H	 1.4580262425	 1.1088400951	 0.529703113	 0.160147
H	-1.4351062635	-2.8513319885	-2.488098347	 0.130977
H	 0.0342455655	-2.5683893752	-3.4169222028	 0.144957
H	 0.4258968141	-4.5796189844	-1.6698554517	 0.299161
30.0063	53.8186	100.6796	122.7989	144.728	184.7015	272.7115	290.9087	320.5567	357.9632	431.3333	471.5744	570.0187	624.618	707.0489	793.2004	852.9929	971.1882	1004.5713	1044.3134	1127.291	1163.3621	1234.7085	1277.8514	1321.2009	1383.3814	1439.9851	1457.8433	1460.4768	1480.3549	1787.3081	1795.3245	1815.5479	2965.5778	3009.3802	3041.5559	3109.1927	3163.6287	3708.3334
CC(=O)C(=O)C(=O)CO	CC(=O)C(=O)C(=O)CO	
InChI=1S/C5H6O4/c1-3(7)5(9)4(8)2-6/h6H,2H2,1H3	InChI=1S/C5H6O4/c1-3(7)5(9)4(8)2-6/h6H,2H2,1H3
