18
gdb 9692	4.1235	1.24223	1.17041	2.4021	64.5	-0.2353	0.0655	0.3008	1087.756	0.151338	-422.036365	-422.02724	-422.026296	-422.070107	33.029	
C	 0.0164773046	 0.9737958451	 0.4383139466	-0.246112
O	-0.1362206	-0.1484837992	-0.4206790479	-0.250095
C	-1.4019723052	-0.7345851341	-0.3078855157	 0.019824
C	-1.5130544995	-2.1463672718	-0.823094476	-0.384292
C	-1.506036619	-1.8824658836	 0.6677039903	 0.390595
O	-0.3482268387	-2.2010242767	 1.3944655461	-0.49045
C	-2.7258418004	-2.1213786465	 1.5162262063	-0.104979
O	-2.8685660678	-3.4852718658	 1.8721191921	-0.419292
H	 1.0273754672	 1.3578287949	 0.2848078198	 0.13245
H	-0.7069687731	 1.7629204034	 0.1892544679	 0.116862
H	-0.1135135727	 0.6955825241	 1.492336362	 0.123435
H	-2.2352183045	-0.0438152663	-0.4426946119	 0.088223
H	-2.4376405202	-2.4473064395	-1.3032264523	 0.123566
H	-0.612856736	-2.5758769415	-1.2502779088	 0.123519
H	 0.3905571057	-1.7745792066	 0.9404275833	 0.290388
H	-2.6648847245	-1.4811201502	 2.411143334	 0.089584
H	-3.6289146604	-1.8428977412	 0.9636756906	 0.102515
H	-2.0221377554	-3.7570257647	 2.2446644835	 0.294259
76.905	106.8259	123.4889	178.1707	238.6945	267.819	338.4744	380.8022	394.4954	429.3265	443.7382	485.7567	666.7288	743.5413	827.5701	878.5385	926.9363	965.1	1033.6504	1051.3028	1061.5521	1088.1691	1118.6303	1156.8247	1180.3246	1191.5769	1203.7302	1243.5288	1324.0094	1342.989	1381.8031	1419.6644	1448.3291	1473.4577	1487.3364	1493.8506	1495.3615	1508.3252	2975.7306	2997.0932	3056.1341	3078.3761	3093.8557	3124.7331	3133.2415	3224.6796	3762.0732	3806.6526
COC1CC1(O)CO	CO[C@H]1C[C@]1(O)CO	
InChI=1S/C5H10O3/c1-8-4-2-5(4,7)3-6/h4,6-7H,2-3H2,1H3	InChI=1S/C5H10O3/c1-8-4-2-5(4,7)3-6/h4,6-7H,2-3H2,1H3/t4-,5-/m0/s1
