22
gdb 94364	2.7344	1.45883	1.20349	1.5487	85.84	-0.2223	0.0843	0.3066	1141.9403	0.195217	-367.158194	-367.149835	-367.14889	-367.19092	33.459	
C	-0.7227806899	 1.1189618031	 0.0080666671	-0.418431
C	 0.1378928474	-0.1283423144	-0.1176294693	-0.000286
C	 1.5542023097	-0.0212699561	-0.7499230104	-0.23257
C	 2.0569402904	-1.0591150066	 0.2881134693	-0.305572
C	 0.7957464604	-0.7670548565	 1.141331837	 0.400828
C	 1.0109115804	 0.0428781201	 2.476128007	-0.307405
C	 0.3493926855	-1.1135016572	 3.231390264	-0.032883
N	-1.0177349692	-1.2429752113	 2.6670418323	-0.337997
C	 0.1383462536	-1.869632108	 1.9694560483	-0.15426
H	-0.1676114314	 1.9429518789	 0.4705537585	 0.106646
H	-1.0585654416	 1.4619899731	-0.9774706601	 0.104332
H	-1.6052376643	 0.9211651686	 0.623534246	 0.135322
H	-0.4324005433	-0.9118411589	-0.6329510191	 0.066639
H	 1.6621316113	-0.2677909401	-1.8091087452	 0.091267
H	 1.9923113283	 0.9675883628	-0.5787272293	 0.09739
H	 2.0402712073	-2.0774982797	-0.1149259753	 0.095388
H	 3.0319930731	-0.8890445695	 0.7532022529	 0.093235
H	 2.0709866529	 0.164882431	 2.7128750025	 0.09843
H	 0.5010382334	 1.0046808551	 2.5688238127	 0.10551
H	 0.5682161086	-1.4686808435	 4.2309320336	 0.089116
H	-1.4832186174	-1.9871592556	 3.1875863763	 0.224413
H	 0.1548117549	-2.9363855151	 1.7742469414	 0.080888
94.1363	117.6449	204.6674	236.1621	277.9394	330.7552	410.1915	421.3486	481.9209	551.4965	655.4756	757.0431	790.134	814.7251	837.0425	856.1751	891.3811	903.4141	932.8845	948.3319	953.0439	972.8371	1000.7346	1054.7868	1070.4052	1090.9406	1108.0623	1139.4332	1153.9743	1179.41	1186.8623	1197.4012	1227.434	1254.0484	1263.7779	1270.6805	1282.4356	1310.641	1332.973	1373.5286	1380.4888	1404.5043	1470.0879	1481.8813	1494.1656	1499.6218	1503.2706	3019.6469	3025.2004	3040.9435	3048.3616	3059.5799	3085.8283	3088.4835	3105.4968	3111.3844	3115.7731	3168.21	3189.8312	3461.2634
CC1CCC11CC2NC12	C[C@H]1CC[C@]21C[C@H]1N[C@@H]21	
InChI=1S/C8H13N/c1-5-2-3-8(5)4-6-7(8)9-6/h5-7,9H,2-4H2,1H3	InChI=1S/C8H13N/c1-5-2-3-8(5)4-6-7(8)9-6/h5-7,9H,2-4H2,1H3/t5-,6+,7+,8+/m0/s1
