24
gdb 113696	2.89272	0.93206	0.8763	1.9229	85.71	-0.2467	0.0666	0.3133	1488.861	0.215788	-405.523143	-405.512329	-405.511385	-405.558997	40.626	
C	 0.5547085218	 0.7073180835	 1.0402301841	-0.422304
C	-0.0020488466	-0.661514764	 0.6175681479	 0.249634
C	 0.2464462849	-1.6958759914	 1.731198158	-0.401904
C	-1.5207827469	-0.5166491809	 0.3788222501	-0.400367
C	 0.5884770928	-1.2122503264	-0.6847337314	-0.011985
N	 0.850767714	-0.3199679329	-1.8227132998	-0.363884
C	 1.959697163	-1.1246162669	-1.2686345361	-0.04303
C	 3.1631461096	-0.3523849864	-0.7813929086	-0.07948
O	 3.9670525041	 0.0484978427	-1.8836994201	-0.422635
H	 1.5753835813	 0.6340944213	 1.4253309991	 0.113699
H	 0.5480878929	 1.4084156318	 0.2018509242	 0.131548
H	-0.0625859475	 1.1255417866	 1.842418877	 0.104008
H	-0.217262265	-1.3743843772	 2.6699042898	 0.110949
H	-0.1759304851	-2.6728965225	 1.4703691527	 0.106889
H	 1.3176352353	-1.8313549513	 1.913901723	 0.113045
H	-1.7201787264	 0.2157698599	-0.4100122722	 0.121853
H	-1.971642368	-1.469186636	 0.0778951764	 0.103233
H	-2.0270538851	-0.1815190838	 1.2901985724	 0.108348
H	 0.099794836	-2.155804532	-0.9394639406	 0.075172
H	 0.5005621796	-0.7176249892	-2.6890669859	 0.231469
H	 2.2572966558	-1.997769929	-1.8508298808	 0.087341
H	 2.8629508347	 0.5120583826	-0.1819381457	 0.096343
H	 3.7991986517	-0.9937369015	-0.1614633123	 0.105785
H	 3.4095213031	 0.6138624729	-2.4303232812	 0.286273
44.8977	71.9658	143.3955	191.9654	223.628	253.5018	265.9973	279.0044	310.2896	334.5879	375.4293	394.3332	408.7793	460.3369	520.9175	614.2033	703.3852	821.322	840.5276	910.616	932.8826	941.5429	962.6954	977.0897	994.7171	1011.196	1043.0833	1054.6494	1061.9586	1129.6478	1185.8339	1205.0631	1231.1667	1242.8573	1264.9974	1276.6136	1326.1589	1362.5934	1393.3669	1397.0528	1404.5385	1420.4885	1443.8437	1477.613	1480.3056	1485.7269	1492.0971	1499.1008	1504.9299	1508.3788	1524.6015	3022.8712	3026.7111	3037.9925	3047.0143	3066.539	3085.5312	3089.3035	3094.3131	3097.0965	3100.7352	3103.9128	3108.3982	3125.689	3509.2523	3798.5435
CC(C)(C)C1NC1CO	CC(C)(C)[C@H]1N[C@H]1CO	
InChI=1S/C7H15NO/c1-7(2,3)6-5(4-9)8-6/h5-6,8-9H,4H2,1-3H3	InChI=1S/C7H15NO/c1-7(2,3)6-5(4-9)8-6/h5-6,8-9H,4H2,1-3H3/t5-,6-/m0/s1
