21
gdb 72334	2.24824	2.0273	1.52324	0.2203	85.82	-0.2355	0.028	0.2635	992.6112	0.184309	-349.939882	-349.93237	-349.931425	-349.971172	31.595	
C	-0.0122773621	 1.4830055066	 0.0118380006	-0.475459
C	-0.0190699621	-0.0388096843	-0.0137682813	 0.351068
C	-1.3737241093	-0.648775091	-0.4649401347	-0.33535
C	-1.7186536596	-1.621793978	 0.6431697955	-0.065973
C	-0.8092266667	-1.6608284362	 1.6207592505	-0.082934
C	 0.3344986313	-0.727400334	 1.3550837911	-0.096306
C	 1.6444161862	-1.2754393788	 0.7287057596	-0.056259
C	 1.3592239794	-2.123556428	-0.4769683159	-0.304348
C	 1.2804762977	-0.6292788059	-0.61056113	-0.090832
H	 0.9377904675	 1.8679270172	 0.3987016382	 0.112631
H	-0.1529581784	 1.8958012612	-0.9945565548	 0.11167
H	-0.8176747306	 1.8683181206	 0.6471478979	 0.113224
H	-2.1528474508	 0.116847086	-0.5816592966	 0.096656
H	-1.294267897	-1.1523847565	-1.4375200858	 0.104767
H	-2.6262129333	-2.2177672308	 0.6202744036	 0.088282
H	-0.8707911422	-2.2977352358	 2.4972377309	 0.088254
H	 0.5352343505	-0.0282264456	 2.1733449862	 0.066229
H	 2.6036710384	-1.3012725291	 1.2318303018	 0.079466
H	 2.2343911178	-2.5739860435	-0.9351014933	 0.106666
H	 0.4683934334	-2.743389751	-0.5201724579	 0.11268
H	 1.9241326099	-0.0880727131	-1.2960202056	 0.07587
161.5223	224.0948	250.5742	273.5728	319.1183	385.8702	458.0043	510.7654	592.3403	637.9423	728.7347	767.8058	784.3882	800.9135	829.4475	916.0656	921.7157	944.7502	955.5152	967.1083	979.4081	986.6846	1003.2464	1017.7701	1059.9917	1065.3037	1092.3321	1111.3705	1134.9382	1167.7858	1180.4076	1192.4835	1234.1872	1237.9868	1285.7814	1301.3319	1330.2672	1365.9457	1376.3514	1408.6197	1482.1869	1489.9035	1492.0409	1497.0798	1671.7911	3008.0219	3018.1855	3035.5798	3051.6991	3082.3303	3091.8818	3118.949	3159.5185	3167.2417	3177.7812	3193.7834	3201.9342
CC12CC=CC1C1CC21	C[C@]12CC=C[C@H]1[C@H]1C[C@@H]21	
InChI=1S/C9H12/c1-9-4-2-3-7(9)6-5-8(6)9/h2-3,6-8H,4-5H2,1H3	InChI=1S/C9H12/c1-9-4-2-3-7(9)6-5-8(6)9/h2-3,6-8H,4-5H2,1H3/t6-,7+,8-,9+/m1/s1
