19
gdb 116924	4.24388	0.63532	0.57994	2.1122	84.36	-0.2429	0.0245	0.2673	1938.3171	0.156088	-422.961505	-422.950971	-422.950027	-422.999677	35.95	
C	-1.0627029408	 1.3378532594	 0.3298694585	-0.220134
O	-1.4352195517	-0.0188166659	 0.2502361639	-0.230085
C	-0.4435276842	-0.8056202181	-0.3832105536	-0.207821
C	-0.8689200311	-2.1969401375	-0.4390854354	 0.055212
C	-1.1866954092	-3.3585692642	-0.5148833459	 0.085978
C	-1.6282541195	-4.7183409629	-0.5146401332	-0.234299
C	-0.8911678059	-5.7639739215	 0.3273543807	-0.308271
C	-2.2196478641	-5.2508691335	 0.7891914354	 0.146962
O	-2.2912084726	-4.4222004562	 1.9004833632	-0.427577
H	-1.8771766551	 1.8672416039	 0.8288911869	 0.132727
H	-0.137772646	 1.4757757118	 0.9124725673	 0.105868
H	-0.908298487	 1.7797776063	-0.6674817649	 0.105801
H	-0.2521902055	-0.4348368414	-1.4056761906	 0.11718
H	 0.5136767744	-0.726032038	 0.1617604624	 0.115741
H	-2.0869365745	-5.0689753803	-1.4339940545	 0.115129
H	-0.8218751104	-6.7665017299	-0.0801626509	 0.118438
H	-0.0226104707	-5.4195378544	 0.8757521847	 0.131678
H	-3.0817505509	-5.906530594	 0.6905760295	 0.10235
H	-2.188708085	-3.5080773737	 1.6030661666	 0.295122
13.3999	59.1893	70.4268	107.7286	151.5425	178.8736	225.9991	288.1438	335.2062	392.6817	405.7722	454.1643	533.5299	642.4445	741.78	781.4537	839.8187	923.2269	974.4589	995.7351	1026.1604	1048.2752	1057.4801	1116.022	1142.6105	1153.7219	1181.9821	1193.0436	1219.6841	1233.4496	1253.2962	1368.1116	1372.6172	1403.2173	1415.7408	1471.0388	1477.7792	1483.9315	1494.3452	1515.2658	2353.9657	2943.8563	2961.5319	2969.5286	3012.5905	3121.9574	3131.8115	3140.6378	3153.4175	3238.7425	3743.2594
COCC#CC1CC1O	COCC#C[C@H]1C[C@H]1O	
InChI=1S/C7H10O2/c1-9-4-2-3-6-5-7(6)8/h6-8H,4-5H2,1H3	InChI=1S/C7H10O2/c1-9-4-2-3-6-5-7(6)8/h6-8H,4-5H2,1H3/t6-,7+/m0/s1
