17
gdb 87384	2.26579	1.57506	1.08141	4.6268	69.17	-0.2673	-0.012	0.2553	1136.8183	0.133847	-458.973423	-458.964675	-458.963731	-459.006843	31.931	
C	-0.0265659855	 1.4917784024	-0.3221413424	-0.420138
C	-0.0220324274	 0.0120377753	-0.0464272208	-0.013971
O	 1.2383228576	-0.6696650633	-0.1620163446	-0.271528
C	 0.6448990601	-0.5987890554	 1.1111579424	 0.185859
C	 1.2777548922	-0.068172195	 2.4043123419	 0.062448
C	 0.7564615408	 1.1955982512	 3.0510126714	-0.408345
O	 0.7691367955	-1.273303535	 3.0897591551	-0.271391
C	 0.2363407916	-1.805189839	 1.9377676662	 0.420211
O	-0.3204923107	-2.8435830391	 1.7919316531	-0.333091
H	 0.8570392726	 1.9756270398	 0.0997786385	 0.131558
H	-0.0304833552	 1.6691789109	-1.4021979643	 0.141234
H	-0.922756329	 1.9590361987	 0.0983579604	 0.133969
H	-0.8543378868	-0.5530358686	-0.4684027533	 0.121597
H	 2.370745763	-0.1031780325	 2.3821922199	 0.116225
H	-0.3361286465	 1.2303392449	 3.0212814504	 0.13068
H	 1.0754234628	 1.238374258	 4.0962385143	 0.143006
H	 1.1512435849	 2.0786643167	 2.5402328816	 0.131678
103.8541	132.2195	159.7379	199.6212	234.1714	256.9724	288.3271	327.0508	424.9706	503.0755	582.072	635.5316	722.9404	741.2789	823.7934	859.3329	916.3996	946.8095	1034.4092	1040.1619	1052.0209	1109.3468	1124.8651	1144.4795	1166.8728	1198.6754	1290.2799	1355.4165	1383.1441	1409.2998	1413.1845	1468.8917	1483.6254	1489.6619	1498.5837	1521.6621	1943.5167	3043.5931	3046.9924	3075.8735	3106.1522	3109.4755	3120.9655	3126.1942	3136.3982
CC1OC11C(C)OC1=O	C[C@H]1O[C@]21[C@@H](C)OC2=O	
InChI=1S/C6H8O3/c1-3-6(4(2)9-6)5(7)8-3/h3-4H,1-2H3	InChI=1S/C6H8O3/c1-3-6(4(2)9-6)5(7)8-3/h3-4H,1-2H3/t3-,4-,6+/m1/s1
