17
gdb 66878	3.08114	1.93603	1.71448	1.3223	77.3	-0.1903	-0.0201	0.1702	851.3392	0.137048	-384.579551	-384.573173	-384.572229	-384.609681	27.702	
O	-0.0923122524	 1.3987402871	 0.0768443431	-0.460323
C	-0.0475952623	 0.0233032832	 0.0598581615	 0.364615
C	-0.3804625393	-0.7892485363	-1.2594467326	-0.15261
C	 0.5974239035	-1.882347871	-1.3769497783	-0.109168
C	 0.7151279588	-2.4662844815	-0.1610510076	 0.01482
C	 1.8493315268	-1.9046320292	 0.7128786796	-0.280245
C	 0.7000941367	-0.8854495646	 1.1147256234	-0.100603
C	-0.3914749921	-1.9413073994	 0.7879541709	-0.062275
C	-1.2203479311	-0.9208731924	-0.0023621493	-0.143669
H	 0.6591579749	 1.7377913502	-0.4233857758	 0.287046
H	-0.754609337	-0.1830373627	-2.0781154755	 0.089092
H	 1.4293481616	-1.8062922453	-2.0721168541	 0.090879
H	 2.1362019685	-2.4921994065	 1.5926333098	 0.102402
H	 2.7416627786	-1.5422365957	 0.1976161431	 0.100175
H	 0.7390637231	-0.4108440676	 2.0977275666	 0.090615
H	-0.8138679699	-2.5992169696	 1.5441343662	 0.071799
H	-2.2839204885	-0.7306806588	 0.0354903388	 0.097448
240.3747	290.4689	346.4636	369.9547	472.1134	528.0719	578.9536	631.7039	682.1909	700.84	722.433	804.3555	835.3479	856.2804	871.1036	892.0491	914.6403	946.1514	949.1036	983.3868	1014.2182	1031.5787	1054.2578	1075.5168	1103.1836	1129.0121	1173.4318	1184.2601	1216.543	1235.0423	1246.3081	1290.5951	1295.444	1314.8336	1428.7889	1496.2475	1571.4651	3032.1312	3092.0565	3106.6406	3132.0838	3155.9925	3172.3307	3213.1989	3775.9906
OC12C3C=C4CC1C4C23	O[C@@]12[C@H]3[CH][C]4C[C@@H]1[C@H]4[C@@H]23	
InChI=1S/C8H8O/c9-8-4-1-3-2-5(8)7(8)6(3)4/h2,4-7,9H,1H2	InChI=1S/C8H8O/c9-8-4-1-3-2-5(8)7(8)6(3)4/h2,4-7,9H,1H2/t4-,5+,6+,7+,8-/m1/s1
