21
gdb 100551	3.07321	0.94686	0.79901	3.1551	81.06	-0.2594	-0.0246	0.2348	1508.7056	0.180905	-424.241798	-424.231856	-424.230912	-424.277363	36.346	
C	-0.0672904889	 1.5183466733	 0.0816707129	-0.383207
C	-0.1126635576	-0.0019758242	-0.08520676	-0.183184
C	 0.7731415245	-0.4759486262	-1.2577929522	 0.040656
O	 2.1053444996	-0.076477061	-1.0727181413	-0.440038
C	 0.7120803865	-1.9964974483	-1.4095615505	 0.362667
O	 1.7191475106	-2.6498017141	-1.1952019528	-0.365329
C	-0.5692113773	-2.621883679	-1.812010864	-0.09846
C	-0.4918232751	-3.9012252647	-2.6373743195	-0.253341
C	-0.9084591497	-3.982942189	-1.2122305662	-0.249257
H	 0.963575482	 1.8522108694	 0.2203980007	 0.143429
H	-0.4705861078	 2.0247635396	-0.802522145	 0.111302
H	-0.6555416139	 1.8354632769	 0.9479756182	 0.110004
H	 0.2466399569	-0.4905445885	 0.8287062015	 0.106694
H	-1.1452297132	-0.3352614607	-0.243609274	 0.095103
H	 0.3816131609	-0.0320209592	-2.1897720907	 0.084454
H	 2.6004562863	-0.9062594784	-0.9685901456	 0.291291
H	-1.3921601801	-1.9472727662	-2.0159924062	 0.095854
H	-1.2384590511	-4.0275197603	-3.4126086983	 0.123174
H	 0.5088451495	-4.2337550925	-2.8874695942	 0.143246
H	-0.1896734462	-4.372617589	-0.5009106278	 0.141538
H	-1.9500013558	-4.167293188	-0.976202625	 0.123404
52.2004	71.9117	97.7803	166.1506	211.1124	236.4692	268.094	296.4514	364.5521	381.8522	457.3555	504.9427	656.8292	721.1882	775.7186	798.6608	828.4895	848.6322	882.5862	910.3604	934.3137	1000.3913	1054.9615	1073.4754	1090.9498	1096.5585	1114.7944	1119.7437	1129.4506	1179.7231	1210.8001	1222.7801	1262.8895	1288.072	1341.6976	1371.8127	1404.9951	1408.637	1448.0395	1455.001	1476.4543	1486.464	1494.9909	1510.0306	1763.6714	2956.3252	3029.2331	3036.6156	3069.4153	3102.2207	3131.0149	3143.4177	3145.1641	3182.7635	3231.2188	3245.9273	3662.7741
CCC(O)C(=O)C1CC1	CC[C@@H](O)C(=O)C1CC1	
InChI=1S/C7H12O2/c1-2-6(8)7(9)5-3-4-5/h5-6,8H,2-4H2,1H3	InChI=1S/C7H12O2/c1-2-6(8)7(9)5-3-4-5/h5-6,8H,2-4H2,1H3/t6-/m1/s1
