20
gdb 38039	3.44182	1.52094	1.21233	1.1622	83.93	-0.2223	0.0154	0.2376	1066.9265	0.175015	-366.005302	-365.998229	-365.997285	-366.036751	29.154	
C	-0.02918679	 1.5282379967	-0.0359084523	-0.203681
C	 1.4393480791	 2.028381809	 0.0122652751	-0.229708
C	 2.2247978233	 0.8587759564	-0.6080055975	-0.043166
C	 3.6817909746	 0.5814938181	-0.2718424875	-0.088365
N	 3.9788373574	 0.452906279	 1.1709936662	-0.335322
C	 3.7448187885	-0.775071172	 0.3494226088	-0.070489
C	 2.3326818532	-1.2507547802	 0.4863381904	-0.22541
C	 1.4969697197	-0.3360337518	-0.0093562144	 0.341327
C	 0.0328336944	-0.025422857	 0.1477118343	-0.324779
H	-0.6571451421	 2.0103543054	 0.7178308396	 0.099226
H	-0.4671962024	 1.7664636363	-1.0112113017	 0.098608
H	 1.572221001	 2.978892107	-0.5124141086	 0.087998
H	 1.7693410674	 2.1598960858	 1.047644739	 0.121902
H	 2.1022072498	 0.8819327113	-1.7017644756	 0.071027
H	 4.4666650007	 0.9370377556	-0.930730632	 0.080368
H	 4.9831794859	 0.5748399447	 1.2929268745	 0.224087
H	 4.5756974412	-1.4556942821	 0.1940799317	 0.0836
H	 2.0571532943	-2.1418972564	 1.038410831	 0.089838
H	-0.3417012743	-0.3413088039	 1.1261335299	 0.11452
H	-0.5843915817	-0.5328838119	-0.6029257208	 0.10842
100.0718	173.6662	222.5037	348.2605	450.2885	475.9903	563.5449	628.0319	678.619	705.0694	784.5287	807.137	834.1844	838.0384	868.7548	890.0782	893.835	914.9725	968.129	987.3078	997.9739	1032.4364	1068.7822	1089.2348	1121.1082	1136.7376	1167.9357	1177.2112	1193.5868	1228.4941	1242.5895	1268.4701	1290.6619	1305.6079	1317.0659	1334.3219	1367.4003	1373.6238	1407.7381	1477.6742	1491.8387	1506.1958	1711.0024	2984.7215	3031.739	3047.2233	3052.4261	3072.4637	3093.123	3106.2052	3157.4892	3167.8265	3196.2258	3472.6004
C1CC2C3NC3C=C2C1	C1C[C@H]2[C@H]3N[C@H]3[CH][C]2C1	
InChI=1S/C8H11N/c1-2-5-4-7-8(9-7)6(5)3-1/h4,6-9H,1-3H2	InChI=1S/C8H11N/c1-2-5-4-7-8(9-7)6(5)3-1/h4,6-9H,1-3H2/t6-,7+,8-/m1/s1
