19
gdb 86011	2.95028	1.19331	1.11943	3.0239	78.53	-0.2341	-0.0341	0.2	1197.9259	0.156393	-423.048983	-423.039656	-423.038712	-423.083318	34.288	
C	 0.005403245	 1.5550073518	-0.344284811	-0.391138
C	-0.1329313056	 0.0816447902	 0.03710067	 0.071669
O	 0.2539930132	-0.7529572108	-1.0663034217	-0.313716
C	 1.2547697318	-1.6979505095	-0.6821972302	 0.238578
C	 0.7776587985	-3.1342870965	-0.9059682705	-0.421974
C	 2.5168156663	-1.402040185	-1.5092961169	 0.133687
O	 3.3750754629	-2.2053525907	-1.7601777189	-0.251119
C	 1.5431566341	-1.3616139712	 0.7659352085	-0.130574
C	 0.7588378472	-0.367540075	 1.1637315025	-0.095897
H	 1.0496526419	 1.8022920763	-0.5564700001	 0.120065
H	-0.5927272251	 1.7689412898	-1.2342275505	 0.13065
H	-0.348033245	 2.1965110694	 0.4698523836	 0.114907
H	-1.1907066391	-0.1195389312	 0.2748506186	 0.087054
H	 0.4339016552	-3.2544926499	-1.9369735551	 0.130947
H	 1.6012587974	-3.8316032023	-0.7353237129	 0.137374
H	-0.0470406664	-3.3694476831	-0.228963199	 0.118109
H	 2.5706334182	-0.3408458412	-1.8407472976	 0.085029
H	 2.2885131797	-1.8915525084	 1.3444714811	 0.122203
H	 0.7218849996	 0.0721754774	 2.1527765502	 0.114146
63.4957	73.3695	171.1988	212.5724	230.5311	255.7852	290.9684	310.0938	364.8518	432.0495	503.4568	545.3646	714.0081	734.9842	777.3179	820.7561	861.4641	886.1563	933.636	961.0225	977.9891	994.2523	1050.1044	1088.0141	1116.2933	1131.3184	1171.3102	1191.4061	1205.1711	1322.0996	1353.1756	1372.9671	1380.7311	1399.6243	1402.6469	1482.7366	1486.0822	1490.2348	1494.3906	1682.5069	1831.7668	2888.7068	2962.1429	3038.1416	3050.1931	3112.166	3123.0881	3127.7188	3138.0679	3207.1604	3233.3799
CC1OC(C)(C=O)C=C1	C[C@H]1O[C@@](C)(C=O)C=C1	
InChI=1S/C7H10O2/c1-6-3-4-7(2,5-8)9-6/h3-6H,1-2H3	InChI=1S/C7H10O2/c1-6-3-4-7(2,5-8)9-6/h3-6H,1-2H3/t6-,7-/m1/s1
