19
gdb 63592	2.89383	1.34761	1.19457	0.9022	71.33	-0.2339	0.0723	0.3061	1112.3441	0.158032	-460.140771	-460.13196	-460.131016	-460.174512	33.195	
C	-0.255117354	 1.4743965708	 0.1585853007	-0.440763
C	 0.0366223928	-0.0020600975	 0.0948820705	 0.375223
O	-1.103918022	-0.7387803591	-0.2378243723	-0.475703
C	 1.3850133232	-0.5012647539	-0.4166135139	-0.42925
C	 1.0152639114	-0.6802674559	 1.0262833303	 0.307011
C	 1.6994929229	-0.0607717397	 2.2429366603	-0.166782
O	 1.4579958316	-0.9994898354	 3.2922766518	-0.246217
C	 0.4658203423	-1.8773332696	 2.8260104605	 0.01341
O	 0.6587762154	-1.9929303672	 1.4281520984	-0.282788
H	 0.6427988098	 2.0513829116	 0.3967241793	 0.113467
H	-0.6309400096	 1.8211458368	-0.8094926036	 0.133072
H	-1.019316883	 1.6871679679	 0.9130242112	 0.124182
H	-1.0023610463	-1.604344365	 0.181728064	 0.288645
H	 1.3782631513	-1.3938333942	-1.0336774236	 0.126917
H	 2.1595261814	 0.2207603402	-0.658145533	 0.115115
H	 2.7828307248	 0.0364179079	 2.1157605597	 0.118687
H	 1.2827789755	 0.9224530253	 2.496495991	 0.110657
H	 0.6013733955	-2.8592639784	 3.2863730972	 0.125036
H	-0.5438838329	-1.4837453646	 3.0398860514	 0.090081
44.4049	155.2313	177.752	193.9747	219.7504	304.3401	374.2243	400.8285	423.8852	466.5027	512.9954	591.6476	720.1494	756.9421	786.381	869.3563	895.2651	919.8365	966.7114	977.4422	1024.9367	1034.4894	1091.5851	1105.7564	1114.5529	1153.4612	1173.3645	1212.3746	1226.0755	1246.8507	1254.2871	1336.8822	1375.9203	1402.4382	1430.5269	1434.807	1473.9162	1482.571	1506.4505	1523.8644	1540.5419	2944.0958	3016.8958	3036.8275	3065.7633	3100.379	3102.9627	3114.8276	3121.9721	3216.3227	3744.5204
CC1(O)CC11COCO1	C[C@@]1(O)C[C@]21COCO2	
InChI=1S/C6H10O3/c1-5(7)2-6(5)3-8-4-9-6/h7H,2-4H2,1H3	InChI=1S/C6H10O3/c1-5(7)2-6(5)3-8-4-9-6/h7H,2-4H2,1H3/t5-,6-/m1/s1
