18
gdb 81631	4.17567	0.93593	0.85096	2.7493	75.67	-0.2563	0.0227	0.279	1366.3523	0.147629	-439.021905	-439.013553	-439.012609	-439.055843	31.198	
O	 0.0248784244	 1.4395972834	-0.0389388866	-0.443081
C	 0.034115817	 0.0362086167	-0.0173511327	 0.157594
C	 0.0151809609	-0.7077895785	 1.3663859558	-0.154783
C	-1.4277732896	-0.1501052597	 1.5491954162	-0.236276
C	-1.368687256	-0.6246238215	 0.062023434	-0.12292
C	-0.6615258899	-1.8822565551	 0.6090925317	 0.170198
O	 0.1013572731	-2.6236176157	-0.3286358333	-0.206799
C	 0.522757414	-3.8447540745	 0.0499781576	 0.117449
N	 1.2989882603	-4.5058604327	-0.693859561	-0.444426
H	 0.9360671357	 1.7444018035	-0.0758337723	 0.288211
H	 0.7126175854	-0.3767963394	-0.7671666609	 0.099692
H	 0.8083357468	-0.7711738701	 2.1124428581	 0.074562
H	-2.0914353035	-0.7062437928	 2.2168735004	 0.090206
H	-1.5030693952	 0.9240200482	 1.6956458008	 0.127729
H	-2.1608016351	-0.5892890989	-0.685325446	 0.083824
H	-1.2795603474	-2.5516475532	 1.2162268138	 0.086151
H	 0.115346622	-4.1666767039	 1.0189107792	 0.083967
H	 1.4957493271	-5.4102867257	-0.2702962948	 0.228702
36.997	104.1407	143.0119	250.8822	286.8597	331.2887	373.0162	410.3251	443.8872	633.9436	693.5317	772.2022	822.3358	824.138	876.8565	904.113	906.4331	941.7955	1020.0969	1023.1659	1044.9836	1060.4755	1079.6084	1105.8171	1116.8378	1143.7106	1171.4282	1194.5286	1200.1945	1228.0422	1245.9766	1268.6918	1300.5326	1314.7614	1398.5941	1432.1942	1449.5186	1514.2645	1746.143	3015.4768	3054.4863	3068.5014	3087.0076	3108.75	3124.814	3176.4462	3517.3872	3833.3051
OC1C2CC1C2OC=N	O[C@H]1[C@H]2C[C@@H]1[C@H]2O[CH][NH]	
InChI=1S/C6H9NO2/c7-2-9-6-3-1-4(6)5(3)8/h2-8H,1H2	InChI=1S/C6H9NO2/c7-2-9-6-3-1-4(6)5(3)8/h2-8H,1H2/t3-,4+,5+,6+
