17
gdb 96845	3.33551	1.18292	0.91819	1.5637	74.24	-0.2474	-0.005	0.2424	1264.5771	0.135731	-455.209188	-455.200168	-455.199224	-455.243712	31.922	
C	 0.0078591773	 1.4567847839	-0.0537808633	-0.333061
N	-0.0015920892	 0.005208963	-0.1184185448	-0.360752
C	-1.0917530235	-0.6114140837	-0.0415285167	 0.517411
N	-1.2116111116	-2.0000643953	-0.0927606135	-0.403954
C	-2.5080983811	-2.4344259772	 0.0148258015	 0.424554
O	-2.9161629927	-3.5691022353	 0.0204525763	-0.36577
C	-3.3276427445	-1.1460262603	 0.1374628099	-0.028737
C	-4.1606766431	-1.0908638561	 1.4084894067	-0.398463
O	-2.3473821108	-0.0913750835	 0.1050814733	-0.261304
H	 0.6143194949	 1.7761174156	 0.8014645542	 0.126996
H	 0.4935136146	 1.8532823808	-0.9524536131	 0.127226
H	-0.9855882624	 1.9104652437	 0.0351589795	 0.124626
H	-0.4073707681	-2.6001061314	-0.1824512769	 0.282164
H	-3.96735252	-1.0444432124	-0.7474710223	 0.128264
H	-3.5211974584	-1.1604617241	 2.2929009058	 0.13442
H	-4.7260073996	-0.1572564689	 1.4555328812	 0.135421
H	-4.8580407519	-1.9325932788	 1.413553642	 0.150958
55.5931	93.973	101.526	192.9084	220.1074	242.8716	274.023	406.1963	413.1422	544.7228	582.2756	642.865	685.6613	710.365	727.157	818.6911	908.8784	952.7234	1057.8493	1074.6177	1103.8884	1124.2036	1137.5631	1155.556	1206.7536	1324.6648	1342.633	1375.0522	1378.6318	1404.1297	1445.5993	1485.0186	1495.122	1495.8936	1501.2907	1824.5471	1866.6357	3018.2588	3042.8988	3051.1234	3077.046	3088.3018	3130.0508	3137.2034	3660.9587
CN=C1NC(=O)C(C)O1	CN=C1NC(=O)[C@@H](C)O1	
InChI=1S/C5H8N2O2/c1-3-4(8)7-5(6-2)9-3/h3H,1-2H3,(H,6,7,8)	InChI=1S/C5H8N2O2/c1-3-4(8)7-5(6-2)9-3/h3H,1-2H3,(H,6,7,8)/t3-/m1/s1
