21
gdb 124508	2.56716	1.34616	1.03239	2.6022	85.21	-0.2269	0.0289	0.2558	1250.7605	0.183111	-383.304262	-383.294672	-383.293728	-383.33917	34.964	
C	-0.6437044177	 1.0506044446	 0.0884579204	-0.381272
C	 0.2138519206	-0.2045916623	-0.1763660874	-0.090433
C	 1.1816239592	 0.0345087496	-1.3447014317	-0.388941
C	 0.9445802168	-0.6386116009	 1.065600517	 0.380406
C	 2.2152980881	-0.3414751189	 1.5294321597	-0.314991
C	 2.3170064218	-1.0049122397	 2.7663856203	-0.006367
N	 1.2052847189	-1.6696513066	 3.0628616112	-0.272025
N	 0.3781525641	-1.4341073588	 2.0181487805	-0.024243
C	-0.9324741466	-2.0489694887	 2.0140444182	-0.334198
H	-0.0065134722	 1.8953201832	 0.3694097632	 0.12523
H	-1.2077457055	 1.3297522513	-0.8077550586	 0.112662
H	-1.3579008035	 0.8900527469	 0.9016121923	 0.117436
H	-0.4662233583	-1.0156550452	-0.4695606133	 0.080178
H	 1.8639962774	 0.86255895	-1.1261726506	 0.122453
H	 1.7848018577	-0.8538491453	-1.5509286502	 0.122813
H	 0.6275558645	 0.2941391766	-2.2520837785	 0.111931
H	 2.9595166913	 0.2645801174	 1.0388880751	 0.09765
H	 3.1522239714	-1.0299068215	 3.4511733041	 0.106061
H	-1.7276031381	-1.2974246706	 1.9848496591	 0.136368
H	-1.0531191304	-2.7226802861	 1.1592941015	 0.137226
H	-1.0156262594	-2.6231363849	 2.9358468776	 0.162054
45.5497	80.3363	144.0641	189.1377	210.7565	231.9273	261.6873	296.9672	367.8755	414.7681	505.6036	611.0073	667.27	711.5721	742.1808	795.0277	884.9397	888.3748	930.127	945.7402	966.7778	1020.4896	1067.3896	1096.0096	1118.2375	1145.1816	1149.4363	1203.0898	1234.2923	1317.7806	1335.2415	1356.7494	1366.0321	1397.3692	1419.9722	1423.5083	1456.7543	1484.3705	1485.3265	1491.5135	1498.912	1501.6145	1509.3763	1516.5596	1574.9537	3011.1929	3031.6631	3037.0446	3037.6108	3093.2077	3101.2833	3105.4052	3109.2964	3115.8533	3165.1387	3239.7819	3267.1287
CC(C)C1=CC=NN1C	CC(C)c1ccnn1C	
InChI=1S/C7H12N2/c1-6(2)7-4-5-8-9(7)3/h4-6H,1-3H3	InChI=1S/C7H12N2/c1-6(2)7-4-5-8-9(7)3/h4-6H,1-3H3
