16
gdb 16384	3.01258	2.41995	1.73781	2.8487	63.9	-0.2307	-0.0194	0.2113	793.3567	0.131196	-383.733631	-383.726872	-383.725928	-383.76441	26.138	
C	-0.051878238	 1.5322453788	 0.0017425249	-0.414314
C	 0.0337972461	 0.0074807055	-0.0392435514	-0.098834
C	 0.9817335653	-0.5728049358	-1.1108395094	 0.069076
C	 1.1857854592	-2.0482829697	-0.6991645607	-0.251123
C	 1.9462786032	-1.3167760326	 0.4332233705	-0.033848
O	 2.3016614167	-0.2720431238	-0.5337340271	-0.297931
C	 0.8041145503	-0.5935275452	 1.1660679574	 0.444439
O	 0.5834621532	-0.4858108569	 2.3395311176	-0.331691
H	 0.9492743924	 1.969217792	-0.044641457	 0.138213
H	-0.6404383211	 1.9174069474	-0.8368449538	 0.115207
H	-0.5253264001	 1.8586383038	 0.9320117187	 0.13736
H	-0.9693104768	-0.4324597217	-0.0874213049	 0.097151
H	 0.8683618375	-0.2493810389	-2.1452285568	 0.090183
H	 0.313842932	-2.6598868525	-0.4520839544	 0.110494
H	 1.8725453009	-2.5739621103	-1.3633492487	 0.124356
H	 2.7738564692	-1.7292158802	 1.006105205	 0.101261
130.2914	218.8188	224.1016	247.6379	439.8763	447.7188	546.1253	644.7045	678.6058	784.8248	794.0692	859.2417	871.5905	888.7821	915.3557	989.4904	1003.7369	1041.4986	1054.7257	1085.4488	1125.4875	1157.2361	1185.8688	1223.362	1239.0876	1267.1142	1282.5052	1308.4843	1348.6685	1402.2333	1483.623	1494.4874	1506.0817	1881.2035	3040.9643	3044.8759	3067.516	3111.661	3124.8727	3125.6222	3144.0967	3156.692
CC1C2CC(O2)C1=O	C[C@H]1[C@@H]2C[C@@H](O2)C1=O	
InChI=1S/C6H8O2/c1-3-4-2-5(8-4)6(3)7/h3-5H,2H2,1H3	InChI=1S/C6H8O2/c1-3-4-2-5(8-4)6(3)7/h3-5H,2H2,1H3/t3-,4-,5+/m0/s1
