19
gdb 97591	4.44256	0.65395	0.61337	1.5645	81.55	-0.2513	0.0397	0.291	1874.1416	0.15705	-422.972913	-422.96281	-422.961866	-423.010728	35.396	
C	 0.3038873411	 1.2046070147	 0.5797300199	-0.36472
C	-0.4386926272	 0.296311472	-0.417178124	-0.315952
C	 0.3884112938	-0.1134693287	-1.547130476	 0.082749
C	 1.0978332211	-0.4399531752	-2.4646290654	 0.052703
C	 1.9344633396	-0.8640789209	-3.5949456507	-0.092872
O	 2.6816619311	-2.0348420102	-3.3133925867	-0.414852
C	 1.074770082	-1.0703070919	-4.8447016494	 0.071565
C	 1.5178787588	-1.9579920024	-5.9219493936	-0.184624
O	 0.5286894052	-2.3837525981	-4.968428487	-0.242367
H	 1.1788142776	 0.6947154958	 0.9915527705	 0.131752
H	 0.646798638	 2.120217042	 0.0903638363	 0.127734
H	-0.3561903201	 1.4818544554	 1.406969235	 0.115109
H	-0.8052866177	-0.5981866618	 0.1024841241	 0.133257
H	-1.3323544583	 0.8123109149	-0.7911359367	 0.130422
H	 2.6740899612	-0.0821529059	-3.8106062734	 0.120374
H	 2.0392491571	-2.758121094	-3.3193919762	 0.292312
H	 0.379607624	-0.2620222235	-5.0684566498	 0.1069
H	 1.1454020436	-1.8038323313	-6.9326950583	 0.119061
H	 2.480449089	-2.4543478908	-5.8330989888	 0.131448
7.5303	60.7443	91.3899	130.3869	182.6708	228.0163	263.0897	316.2354	348.1983	426.8956	453.6936	503.4688	558.5517	672.0217	766.6279	784.1236	800.6452	889.6073	927.8956	976.1894	1003.6713	1078.1811	1098.1881	1100.308	1106.136	1160.4021	1164.7185	1170.2367	1257.123	1285.7397	1293.6759	1311.4876	1349.3238	1409.0927	1416.1648	1431.5019	1472.9188	1494.7961	1505.2832	1514.7034	2360.6641	3020.853	3029.8041	3044.6585	3048.223	3100.4297	3118.074	3124.0869	3124.6355	3198.0402	3755.8192
CCC#CC(O)C1CO1	CCC#C[C@@H](O)[C@H]1CO1	
InChI=1S/C7H10O2/c1-2-3-4-6(8)7-5-9-7/h6-8H,2,5H2,1H3	InChI=1S/C7H10O2/c1-2-3-4-6(8)7-5-9-7/h6-8H,2,5H2,1H3/t6-,7-/m1/s1
