17
gdb 77483	2.06412	1.52678	1.42076	1.561	64.09	-0.2339	0.0579	0.2918	1032.0045	0.133685	-496.049966	-496.040914	-496.03997	-496.082941	34.746	
O	-0.2230347716	 1.4530437115	-0.0226682498	-0.432462
C	-0.1455560837	 0.0455076017	 0.0539858856	-0.034978
C	-0.459697283	-0.7507068381	 1.282369223	 0.28205
O	 0.4845590211	-1.6360630576	 1.758627667	-0.45423
C	-1.5444831517	-0.062180306	 2.1057081764	-0.341597
C	-2.4963216032	-0.1025342517	 0.8512866981	 0.081798
O	-3.0465350143	 1.0953332988	 0.3703748713	-0.444566
C	-1.3936276621	-0.784225443	 0.0321788843	 0.23863
O	-1.604809879	-1.7960040838	-0.8841808949	-0.462495
H	 0.4847320869	 1.8279585295	 0.5130057916	 0.295077
H	 0.6618174059	-0.3985874318	-0.5287096599	 0.106989
H	 0.0265076245	-2.3824031696	 2.1616950221	 0.290881
H	-1.9110459973	-0.6795676403	 2.9307603173	 0.09937
H	-1.3106838673	 0.9370827146	 2.4837258505	 0.095942
H	-3.3309761648	-0.789070601	 1.0157745063	 0.096142
H	-2.2971750535	 1.6708950492	 0.1667255157	 0.29102
H	-1.7330636368	-1.4021948923	-1.7546924147	 0.292428
154.8638	160.3638	199.679	227.0654	254.0054	282.1385	322.4601	332.8427	359.6249	402.9169	463.007	554.4846	571.8604	588.2069	662.6683	746.3571	769.6442	827.7885	867.8823	981.4012	1013.6938	1076.2861	1095.4459	1115.0917	1152.7084	1188.3995	1201.663	1233.3671	1269.7444	1287.4945	1314.9846	1328.2317	1343.6473	1380.0805	1461.9702	1468.297	1526.9076	3051.5125	3079.7717	3105.7224	3117.0062	3757.3562	3789.3716	3791.9753	3801.01
OC1C2(O)CC(O)C12O	O[C@H]1[C@@]2(O)C[C@@H](O)[C@@]12O	
InChI=1S/C5H8O4/c6-2-1-4(8)3(7)5(2,4)9/h2-3,6-9H,1H2	InChI=1S/C5H8O4/c6-2-1-4(8)3(7)5(2,4)9/h2-3,6-9H,1H2/t2-,3+,4+,5-/m1/s1
