18
gdb 39176	2.62475	1.82123	1.28974	2.719	77.53	-0.2305	0.0042	0.2346	1004.0318	0.14981	-401.926136	-401.918735	-401.91779	-401.95798	28.865	
C	 0.2996099197	 1.822142716	 0.8289303602	-0.176918
C	 1.5530985546	 1.4382350789	-0.0180732994	-0.122532
C	 1.7619152395	 1.977411405	-1.4263253899	-0.108714
O	 0.7326034769	 1.5931541403	-2.3406516267	-0.234177
C	 0.7546200787	 0.3200937583	-2.8430263264	 0.06353
C	 0.9614094824	-0.8479790581	-2.2278641784	-0.121164
C	 1.1484164901	-1.1364170482	-0.7514057325	-0.382405
C	 0.875614229	 0.0926693508	 0.0418544288	 0.331149
N	-0.1318608514	 0.3853521972	 0.7864848385	-0.248551
H	 0.478601617	 2.2090007691	 1.8368072221	 0.106788
H	-0.4200510453	 2.4632817556	 0.3115751417	 0.122799
H	 2.4931917752	 1.5051596627	 0.5414070482	 0.088564
H	 1.7657939883	 3.0720465012	-1.4378409014	 0.119281
H	 2.7274529209	 1.6259965748	-1.814868623	 0.105834
H	 0.5347145346	 0.3311585906	-3.9082044554	 0.103302
H	 0.9354469434	-1.7204659265	-2.874474254	 0.099674
H	 0.4562100338	-1.9295303212	-0.444567729	 0.135032
H	 2.1658442625	-1.5068574466	-0.5589604835	 0.118508
94.9717	161.7686	249.2606	274.2251	331.3824	380.8293	463.1088	475.5739	646.2564	705.1797	743.1252	780.1338	857.6884	870.4299	887.7646	921.6088	943.8402	962.141	984.5006	1006.2637	1079.6523	1088.9244	1130.2061	1141.1884	1154.6166	1203.0908	1248.0284	1284.3279	1293.8336	1323.4909	1330.7766	1375.6833	1412.7069	1427.5779	1467.8464	1482.5561	1484.7191	1695.498	1711.0351	3002.0621	3010.2098	3046.4693	3051.7259	3059.1614	3081.5007	3106.2709	3149.8038	3176.1159
C1C2COC3C4CC23N14	C1[C@@H]2COC=CC[C]2[N]1	
InChI=1S/C7H9NO/c1-5-6-7(1)4(3-9-6)2-8(5)7/h4-6H,1-3H2	InChI=1S/C7H9NO/c1-2-7-6(4-8-7)5-9-3-1/h1,3,6H,2,4-5H2/t6-/m1/s1
