19
gdb 47502	2.81566	1.42474	1.06172	3.9222	77.27	-0.2276	0.034	0.2616	1152.6838	0.161666	-419.223691	-419.215692	-419.214747	-419.256279	31.527	
O	 0.0202776402	-0.0446809944	-0.0217874808	-0.377768
C	-0.0129596885	 1.1711580798	 0.0132089915	 0.402029
C	-1.3332996326	 1.9340245511	 0.1015697534	-0.275581
N	-1.1662751065	 3.3167487126	 0.5383735789	-0.307821
C	-0.1587686639	 4.0037905716	-0.2627358682	-0.235016
C	 1.182471432	 3.3700044697	 0.0310793736	 0.424538
C	 2.4497149232	 4.0553303393	-0.3877595029	-0.333777
C	 2.0856537109	 3.9655511338	 1.0827533863	-0.299589
N	 1.1134563389	 1.9366713714	-0.0959733977	-0.37465
H	-1.7992876591	 1.8382497031	-0.8976824563	 0.109432
H	-1.9677614005	 1.3899506363	 0.805261782	 0.13498
H	-2.0537314705	 3.8037689718	 0.4866165618	 0.225445
H	-0.3559061414	 3.9454737215	-1.3509075766	 0.086388
H	-0.1327395518	 5.0607555803	 0.0155311734	 0.104111
H	 3.2653784242	 3.4365753088	-0.7489417647	 0.11581
H	 2.3732307764	 5.0159072082	-0.8868566635	 0.12086
H	 1.7597507492	 4.8651161754	 1.5935474956	 0.120649
H	 2.6544740542	 3.280117468	 1.7015115041	 0.11775
H	 1.9729198654	 1.4072627618	-0.1452362499	 0.24221
92.8425	101.5272	240.8968	264.6684	361.7426	396.9167	435.7596	470.2402	492.3478	535.618	580.8205	645.8492	725.3656	764.82	824.3202	865.7159	921.7559	939.6063	977.0441	994.4289	1009.4433	1016.335	1053.5142	1070.0978	1081.9801	1154.74	1185.1401	1205.2595	1271.7596	1298.292	1318.6074	1333.0441	1368.2626	1413.578	1461.3372	1469.3232	1484.3759	1486.9188	1499.609	1513.9964	1792.5151	2912.4673	2927.4991	3086.6684	3100.3061	3124.7243	3133.778	3205.011	3223.9425	3531.9273	3596.4909
O=C1CNCC2(CC2)N1	O=C1CNCC2(CC2)N1	
InChI=1S/C6H10N2O/c9-5-3-7-4-6(8-5)1-2-6/h7H,1-4H2,(H,8,9)	InChI=1S/C6H10N2O/c9-5-3-7-4-6(8-5)1-2-6/h7H,1-4H2,(H,8,9)
