18
gdb 117326	3.3873	0.77957	0.66797	3.5372	71.59	-0.2497	0.0002	0.2499	1636.0868	0.147591	-472.454235	-472.444169	-472.443225	-472.490542	35.488	
N	 0.7845416907	 0.0915768736	-0.3750952218	-0.544922
C	-0.0275867434	-0.1490011335	 0.6753824851	 0.450732
O	 0.0255966181	 0.390567159	 1.7639076366	-0.40247
N	-1.0202375735	-1.1371901437	 0.4511238059	-0.356641
C	-1.3174190465	-1.8881747954	-0.6678463676	 0.381439
N	-0.6588278161	-1.7497091255	-1.7589017429	-0.538331
C	-2.4404208675	-2.8829914767	-0.4462175724	-0.285587
C	-1.9726785335	-4.1266967164	 0.3173700426	-0.064484
O	-3.1003186132	-4.9702575499	 0.4611126019	-0.414993
H	 1.4833899862	 0.8033584648	-0.2576914798	 0.260685
H	 0.6268887368	-0.3975540957	-1.2517682711	 0.286758
H	-1.5930596104	-1.259986349	 1.2710846445	 0.258958
H	-1.0068601764	-2.3815030636	-2.4743303841	 0.222449
H	-3.261445287	-2.4194517474	 0.1125499956	 0.126417
H	-2.8424527506	-3.1940029082	-1.4138127122	 0.125865
H	-1.1644653838	-4.6171315655	-0.2466788577	 0.102079
H	-1.5583725644	-3.8334678258	 1.2942914117	 0.099449
H	-2.8280067956	-5.7635400611	 0.9318944155	 0.292596
49.037	69.0238	86.2383	89.6142	209.1634	255.5462	259.7467	320.0075	336.7814	421.4573	451.0174	553.6104	575.7483	632.6067	694.3045	729.8549	780.6878	809.9613	828.236	936.2243	978.1837	1011.5223	1079.5576	1086.4536	1150.3759	1155.8615	1213.1856	1239.3164	1300.2191	1319.5138	1342.8507	1376.2922	1456.5515	1493.647	1519.3757	1530.2142	1602.4108	1704.7117	1827.6733	2977.8439	3007.4588	3049.569	3107.5173	3446.7961	3525.642	3646.6749	3716.6429	3830.1717
NC(=O)NC(=N)CCO	NC(=O)NC(=N)CCO	
InChI=1S/C4H9N3O2/c5-3(1-2-8)7-4(6)9/h8H,1-2H2,(H4,5,6,7,9)	InChI=1S/C4H9N3O2/c5-3(1-2-8)7-4(6)9/h8H,1-2H2,(H4,5,6,7,9)
