19
gdb 89992	3.00127	1.26328	1.10876	2.2357	70.92	-0.25	0.0455	0.2955	1163.812	0.157595	-460.12031	-460.111302	-460.110358	-460.154623	33.088	
C	 0.395946918	 1.542441101	-0.0310235677	-0.411249
C	-0.0864940699	 0.1125806364	 0.1185740441	 0.103631
O	 0.5158886875	-0.7850777604	-0.8520353624	-0.321883
C	 1.1814205714	-1.5536728962	 0.1549442319	 0.318533
C	 1.1378183198	-3.0876028475	 0.066843784	-0.133684
O	 2.5751332555	-3.1709267793	 0.1630035278	-0.271839
C	 2.7089413238	-1.7389543314	 0.0740621051	-0.133257
C	 0.5039888039	-0.7345710183	 1.2807686223	-0.005955
O	 1.2940998176	-0.1215921066	 2.2605567909	-0.417034
H	 1.4886527226	 1.6105697442	 0.0165422962	 0.106123
H	 0.0869942425	 1.9400515222	-1.0019699998	 0.136441
H	-0.0282969333	 2.176174579	 0.7541482696	 0.131287
H	-1.1804075971	 0.07388251	 0.0472526403	 0.083472
H	 0.6347460648	-3.6183253528	 0.8845246852	 0.104803
H	 0.7598862793	-3.4499879169	-0.8979459837	 0.110803
H	 3.1285147794	-1.4112391748	-0.8860428082	 0.108654
H	 3.3011400061	-1.3297862268	 0.9020902837	 0.099591
H	-0.2506133811	-1.3075379513	 1.8248001464	 0.104387
H	 1.953945559	 0.4319880496	 1.8298793643	 0.287175
40.9695	91.5745	193.9056	198.1955	246.1255	252.5331	284.8804	365.2636	392.5543	468.2082	524.4165	601.634	793.6811	807.0405	832.6733	884.8199	929.2579	930.8501	993.3097	1015.2162	1033.5619	1075.4334	1097.4573	1129.8274	1148.6835	1156.5122	1157.9529	1200.7566	1243.0378	1260.0146	1292.2044	1300.9198	1316.2201	1370.0562	1390.3586	1406.8536	1440.4341	1481.8936	1488.8832	1498.4515	1517.7134	3003.708	3015.9104	3027.1111	3032.5364	3059.3128	3061.1688	3088.2461	3101.8802	3118.9169	3813.0365
CC1OC2(COC2)C1O	C[C@H]1OC2(COC2)[C@H]1O	
InChI=1S/C6H10O3/c1-4-5(7)6(9-4)2-8-3-6/h4-5,7H,2-3H2,1H3	InChI=1S/C6H10O3/c1-4-5(7)6(9-4)2-8-3-6/h4-5,7H,2-3H2,1H3/t4-,5+/m1/s1
