23
gdb 101051	2.15056	1.15271	1.02108	0.6372	91.89	-0.2395	0.055	0.2945	1375.3253	0.202922	-351.12093	-351.110292	-351.109348	-351.156317	40.042	
C	-0.1558071401	 1.6203804747	-0.1755495546	-0.39292
C	-0.1435357344	 0.08884565	-0.2069290458	-0.171976
C	 0.862608392	-0.5238740933	-1.1994954137	-0.036828
C	 2.3206358331	-0.1849788725	-0.8602127779	-0.40452
C	 0.6650474105	-2.0426998283	-1.3099439857	 0.167433
C	-0.4275651867	-2.5538988609	-2.2383640329	-0.305641
C	 1.0127649963	-2.7136764911	-2.6314117167	-0.309364
C	 0.9111000527	-2.7997115278	-0.1093458652	 0.304067
C	 1.1207737568	-3.4234455609	 0.8986961839	-0.480552
H	 0.7920903491	 2.0324306062	 0.1833889806	 0.118759
H	-0.3430303175	 2.0377673403	-1.1718993622	 0.109503
H	-0.9436232931	 1.9880341722	 0.4894193763	 0.112135
H	 0.0667275654	-0.3024211783	 0.7960831165	 0.107993
H	-1.1463019786	-0.2712622449	-0.468279679	 0.093983
H	 0.6403307921	-0.1159025232	-2.1961417863	 0.063887
H	 2.5848353083	-0.56372436	 0.1325908397	 0.12729
H	 3.0046473658	-0.6401608654	-1.583468361	 0.112503
H	 2.4947566017	 0.8943492156	-0.8706010386	 0.112304
H	-0.9774161456	-3.4358146597	-1.9324139933	 0.125332
H	-1.0212018216	-1.8046959288	-2.7518136349	 0.115961
H	 1.4065517314	-2.0750719979	-3.4152920285	 0.116205
H	 1.4482783134	-3.7049092087	-2.5927610606	 0.125298
H	 1.3040338289	-3.9764943875	 1.7861377199	 0.189148
69.2931	81.7138	136.4119	167.53	209.672	218.9701	230.1499	281.67	285.0686	368.4105	409.5851	447.5232	557.1398	563.8669	587.9896	645.0067	688.8471	774.1763	786.9268	838.3811	897.1503	910.7737	943.1454	969.0209	972.3425	998.6215	1038.2785	1057.1173	1081.2784	1087.5386	1150.2028	1187.0471	1192.9732	1254.3753	1286.9335	1297.4493	1346.2273	1364.8228	1385.5404	1408.1616	1413.8335	1464.4177	1484.5927	1493.0166	1493.6913	1500.3249	1505.8749	1510.9359	2227.4681	2997.3206	3025.6849	3030.301	3039.1584	3060.389	3095.813	3104.3542	3106.6504	3116.2266	3132.7379	3136.9323	3218.9189	3233.1576	3503.2368
CCC(C)C1(CC1)C#C	CC[C@@H](C)C1(CC1)C#C	
InChI=1S/C9H14/c1-4-8(3)9(5-2)6-7-9/h2,8H,4,6-7H2,1,3H3	InChI=1S/C9H14/c1-4-8(3)9(5-2)6-7-9/h2,8H,4,6-7H2,1,3H3/t8-/m1/s1
