17
gdb 67184	2.81084	1.50853	1.47114	2.2938	71.2	-0.2346	-0.0122	0.2224	973.2167	0.136779	-421.818814	-421.811566	-421.810622	-421.850265	29.242	
O	-0.1720678063	 1.4068597344	-0.027974576	-0.45969
C	 0.0061721884	 0.0438356393	-0.0155886513	 0.378084
C	-1.0350195374	-1.0422829445	 0.0476301038	-0.116213
C	-0.4082835051	-1.7599147951	-1.1446537866	-0.240051
C	 0.8467374669	-0.8133948531	-1.0213345323	-0.225846
C	 1.8818518148	-1.532826479	-0.1714072535	 0.413261
O	 2.9891195757	-1.8736954924	-0.4965785703	-0.326124
C	 1.2350836232	-1.7510167858	 1.2158335164	-0.353923
C	-0.0044252292	-0.8762575322	 1.1787614295	-0.131844
H	 0.5612427113	 1.8215640351	 0.4408445864	 0.289918
H	-2.0927459432	-0.9608903868	 0.2661495209	 0.09589
H	-0.2280740908	-2.8376779314	-1.0695355646	 0.105852
H	-0.9477453387	-1.552900752	-2.0709617425	 0.121874
H	 1.2275033207	-0.3702402297	-1.9381162229	 0.093178
H	 1.039463076	-2.8183242869	 1.3700518012	 0.131615
H	 1.9390606118	-1.44169452	 1.9952355767	 0.128544
H	-0.4207222479	-0.48398044	 2.0996054951	 0.095473
106.7204	224.6781	282.9369	309.9917	336.6821	441.0461	463.7755	533.0024	582.3261	634.0196	695.0667	708.039	763.3789	835.7047	877.1479	914.759	945.2184	964.6498	975.7462	1034.8054	1040.8296	1053.8243	1105.1301	1141.4234	1149.1135	1173.8595	1191.0138	1218.281	1260.1746	1270.9005	1290.8634	1312.3354	1319.5622	1455.2499	1470.7987	1505.6164	1845.7105	3042.8077	3048.4571	3086.3544	3112.9925	3154.2351	3181.9362	3192.0318	3785.8404
OC12C3CC1C(=O)CC23	O[C@@]12[C@H]3C[C@@H]1C(=O)C[C@@H]23	
InChI=1S/C7H8O2/c8-6-2-4-3-1-5(6)7(3,4)9/h3-5,9H,1-2H2	InChI=1S/C7H8O2/c8-6-2-4-3-1-5(6)7(3,4)9/h3-5,9H,1-2H2/t3-,4+,5+,7+/m0/s1
