18
gdb 100363	2.58781	1.04821	0.89907	2.3154	72.74	-0.2653	-0.0401	0.2252	1327.1968	0.144366	-439.104431	-439.094146	-439.093202	-439.140239	35.919	
C	-0.1123268012	 1.5372363673	 0.0309439146	-0.411402
C	 0.0374763468	 0.0025528188	-0.0217023829	 0.034478
C	 0.7400931432	-0.5095723701	 1.2721138959	-0.073582
O	 2.0182872411	 0.0454254415	 1.461325236	-0.414588
C	-1.3385755378	-0.7001424725	-0.1543308373	-0.307353
C	-2.1063242703	-0.309945365	-1.4033900564	 0.151742
O	-3.2389317862	 0.0953569218	-1.3974614564	-0.235672
C	 0.9071320832	-0.3724981147	-1.149245154	 0.265657
N	 1.6321678558	-0.6831093446	-1.9952591302	-0.344395
H	 0.8545164387	 1.9991510579	 0.2366040045	 0.153652
H	-0.5043999866	 1.9370467069	-0.9074231502	 0.140632
H	-0.8060124602	 1.8047770533	 0.8337867812	 0.132699
H	 0.1350078644	-0.1972147651	 2.1291618998	 0.124857
H	 0.7661691049	-1.6088134581	 1.2555405553	 0.107731
H	 2.6076440926	-0.3143739319	 0.7880058985	 0.301702
H	-1.1858703401	-1.7877120477	-0.1868396516	 0.1366
H	-1.9556326243	-0.4645591368	 0.7173002839	 0.132509
H	-1.5427581039	-0.437372471	-2.3542006307	 0.104733
57.4438	74.7554	114.407	151.2509	172.3973	211.4962	237.5834	286.8427	336.7475	362.9476	402.4323	431.449	493.3885	581.6271	648.0758	701.3194	819.4161	906.6914	914.4243	968.0985	1013.1253	1053.9078	1097.6257	1148.4316	1162.5833	1186.87	1215.552	1303.4298	1314.3329	1389.4375	1412.3446	1421.7706	1429.7768	1457.0686	1485.0785	1497.9318	1503.8571	1835.2	2343.8824	2893.0645	3000.4561	3024.013	3050.0552	3085.5451	3103.8854	3122.5911	3148.3038	3796.5761
CC(CO)(CC=O)C#N	C[C@@](CO)(CC=O)C#N	
InChI=1S/C6H9NO2/c1-6(4-7,5-9)2-3-8/h3,9H,2,5H2,1H3	InChI=1S/C6H9NO2/c1-6(4-7,5-9)2-3-8/h3,9H,2,5H2,1H3/t6-/m1/s1
