18
gdb 99003	5.05521	0.7783	0.68027	3.8321	72.92	-0.2378	0.0278	0.2656	1640.6036	0.146904	-472.421908	-472.411864	-472.41092	-472.45756	34.884	
C	-0.2229322132	 1.7233855466	-1.4041593318	-0.222672
O	-0.1377933757	 0.4279805858	-1.9953684377	-0.264994
C	 0.8933861925	-0.3357137452	-1.5626618219	 0.503352
N	 1.7311754614	 0.0479983101	-0.7005429232	-0.581107
N	 0.810391126	-1.5520550311	-2.2469424737	-0.426957
C	 1.6563303838	-2.6296015801	-2.1222148014	 0.518778
N	 2.6554179935	-2.6469838193	-1.3363832728	-0.582172
O	 1.2109306044	-3.5992791867	-2.9697007109	-0.24922
C	 1.9441916042	-4.8141706124	-3.0059012021	-0.263334
H	-0.3438306436	 1.6479434801	-0.3202780715	 0.139422
H	 0.6799788446	 2.3041502463	-1.6106396244	 0.139292
H	-1.0960028731	 2.1956980787	-1.8568154955	 0.122614
H	 2.4155056217	-0.6881400569	-0.5301111472	 0.25661
H	 0.0516086509	-1.649412966	-2.9020050699	 0.263968
H	 3.1705116036	-3.5192567426	-1.369537639	 0.224882
H	 2.9783042685	-4.6471534836	-3.3290362842	 0.137385
H	 1.9427728667	-5.3108817929	-2.0286649789	 0.137366
H	 1.4364459738	-5.4477463608	-3.7336204939	 0.146788
59.2161	91.8052	120.768	146.0309	152.1258	176.6517	212.2565	299.1454	352.4744	383.953	425.3019	487.7665	674.759	708.0202	714.5344	735.2256	760.8834	899.3765	923.6096	980.7072	1020.8138	1132.2915	1141.4137	1157.0471	1179.1729	1185.0792	1218.1193	1218.9788	1278.5781	1382.8774	1464.7825	1474.5223	1479.8169	1492.0641	1502.1768	1507.7652	1554.8169	1718.3216	1779.7679	3020.8713	3047.3648	3086.3237	3120.7846	3147.7713	3148.0904	3494.0828	3571.9676	3653.2879
COC(=N)NC(=N)OC	COC(=N)NC(=N)OC	
InChI=1S/C4H9N3O2/c1-8-3(5)7-4(6)9-2/h1-2H3,(H3,5,6,7)	InChI=1S/C4H9N3O2/c1-8-3(5)7-4(6)9-2/h1-2H3,(H3,5,6,7)
