18
gdb 105402	2.31971	1.45902	1.17116	4.7527	68.9	-0.2512	0.0036	0.2547	1106.1714	0.14758	-476.226058	-476.217306	-476.216362	-476.259358	33.295	
O	 0.8341579044	 0.0577661242	 0.4793725174	-0.427596
C	-0.1544904209	 0.1273222529	-0.5395172831	-0.142315
C	-1.4605254378	-0.5308500236	-0.1023905517	 0.251516
C	-2.0569400459	-1.6624287212	-0.9098476473	-0.37129
C	-1.3320730671	-1.9653174654	 0.3759308339	 0.114085
O	-0.0872916687	-2.5717028904	 0.3081302399	-0.427491
N	-2.4073556273	 0.3224980348	 0.5800816964	-0.329463
C	-2.121842481	 1.0390423094	 1.6901177872	 0.154949
O	-1.0320692805	 1.0955532212	 2.2383132796	-0.342619
H	 0.4223159485	 0.4579743437	 1.2683879987	 0.307954
H	-0.3476258045	 1.1663149402	-0.8424983792	 0.099989
H	 0.2559965214	-0.403182252	-1.4014929917	 0.122232
H	-3.1377046305	-1.7672738689	-0.9223307192	 0.110404
H	-1.5594090628	-1.9246298414	-1.8364028028	 0.134499
H	-1.9488288227	-2.2457175538	 1.2296692253	 0.092225
H	 0.5543948986	-1.9097161763	 0.6177263305	 0.300737
H	-3.336075484	 0.4086557636	 0.1961744197	 0.255371
H	-2.9970078193	 1.596539443	 2.0696219864	 0.096811
69.8733	173.8215	193.1268	226.2252	248.4549	270.3456	337.3831	416.8317	436.9651	448.6408	543.0577	563.0847	600.0017	724.9445	763.5937	815.7546	852.6099	919.5425	931.6538	993.1454	1030.1438	1037.6764	1049.5882	1064.1059	1108.8251	1171.6138	1195.0354	1229.4167	1299.8711	1310.4988	1373.639	1399.1773	1424.1659	1429.9123	1470.0451	1486.4969	1498.1348	1514.2508	1770.8794	2976.3242	3004.9674	3103.4046	3105.4242	3128.8427	3224.6996	3579.5544	3617.2258	3647.2621
OCC1(CC1O)NC=O	OC[C@]1(C[C@H]1O)NC=O	
InChI=1S/C5H9NO3/c7-2-5(6-3-8)1-4(5)9/h3-4,7,9H,1-2H2,(H,6,8)	InChI=1S/C5H9NO3/c7-2-5(6-3-8)1-4(5)9/h3-4,7,9H,1-2H2,(H,6,8)/t4-,5+/m1/s1
