23
gdb 115587	2.52394	1.02581	0.94476	2.1265	81.8	-0.2507	0.0703	0.3211	1409.7147	0.203825	-425.413634	-425.403097	-425.402153	-425.448926	39.269	
C	 0.0034664036	 1.642529987	-0.0867862899	-0.416713
C	 0.006348058	 0.1159727906	 0.05924781	-0.210372
C	-1.3957459672	-0.5104394013	 0.0369927958	 0.374336
O	-2.2046764351	 0.0027554768	 1.0820619924	-0.48795
C	-2.0345604774	-0.5535540878	-1.3900136548	-0.286169
C	-1.6004963292	-2.0394112395	-1.50183898	-0.231223
C	-1.4219990282	-2.0663165137	 0.0384334677	 0.031492
C	-0.2903420987	-2.8679865196	 0.6480299634	-0.119065
O	-0.588891236	-4.2433213588	 0.4388214311	-0.424488
H	 1.0250952843	 2.0314308935	-0.1252636159	 0.119842
H	-0.5060146229	 1.9632400215	-1.0019722745	 0.121443
H	-0.4881071934	 2.127792819	 0.7639216279	 0.113241
H	 0.6060162009	-0.3223965605	-0.747218403	 0.097824
H	 0.4967422706	-0.1531189003	 1.0022395353	 0.102296
H	-2.2812236238	 0.9556776076	 0.9664213442	 0.274707
H	-3.1199312054	-0.4482097445	-1.3175546259	 0.103982
H	-1.6558664763	 0.1459011397	-2.1403801669	 0.088466
H	-2.3153955801	-2.7424400057	-1.9309823237	 0.105623
H	-0.6467223625	-2.1548414382	-2.0260109537	 0.09673
H	-2.3589983749	-2.3728070683	 0.5133277703	 0.092639
H	 0.6682633987	-2.600045958	 0.1759048661	 0.077366
H	-0.2054764515	-2.6377007926	 1.7225741195	 0.091384
H	 0.1309725966	-4.7651736266	 0.8050237345	 0.284608
82.124	104.4665	126.8123	142.9246	210.0316	236.13	256.1727	270.0676	312.1922	322.9499	358.4127	415.8303	471.7499	556.9954	634.6494	729.0076	786.0223	796.9241	875.2662	908.6868	931.6774	958.0294	1002.9063	1012.2202	1030.3588	1061.8955	1094.829	1112.3608	1150.4111	1173.4891	1187.9054	1212.0578	1241.6699	1253.7284	1263.4645	1281.2128	1297.7414	1316.1574	1335.5543	1372.8126	1388.6151	1409.9751	1460.6389	1474.889	1477.2757	1497.2115	1500.3614	1513.8147	1523.4571	2962.2099	2990.8075	3028.0324	3031.838	3052.698	3058.8538	3064.4988	3071.1504	3097.1207	3105.9727	3108.6753	3125.766	3809.7241	3827.5641
CCC1(O)CCC1CO	CC[C@@]1(O)CC[C@H]1CO	
InChI=1S/C7H14O2/c1-2-7(9)4-3-6(7)5-8/h6,8-9H,2-5H2,1H3	InChI=1S/C7H14O2/c1-2-7(9)4-3-6(7)5-8/h6,8-9H,2-5H2,1H3/t6-,7+/m0/s1
