20
gdb 32740	3.03742	1.05685	0.81015	1.4431	84.77	-0.1763	0.0399	0.2162	1458.7175	0.170623	-403.179024	-403.16939	-403.168446	-403.214472	34.777	
C	-0.0449768744	 1.4215742508	 0.1837443153	-0.393144
C	-0.2128990922	-0.0217026412	-0.2773191501	-0.122574
N	 0.9959024448	-0.4801961607	-0.9723289313	-0.404256
C	 1.067254965	-1.806875059	-1.3670755639	 0.338568
C	 1.4691020184	-2.4177106143	-2.5235378491	 0.153617
C	 1.8826986289	-1.7621738879	-3.8048197652	-0.515717
C	 1.4119442333	-3.8292181042	-2.238885416	-0.255791
C	 0.9695054802	-3.9613142857	-0.9670739961	-0.029607
O	 0.7592774871	-2.7248043679	-0.4127800586	-0.181038
H	 0.8217405577	 1.5186073455	 0.8435908356	 0.130883
H	 0.1004426903	 2.0963245087	-0.6682087514	 0.112028
H	-0.9353259818	 1.7582510863	 0.7224324286	 0.120515
H	-0.3626627086	-0.6774296639	 0.5842363614	 0.132017
H	-1.1104428859	-0.1164068664	-0.9108415138	 0.092354
H	 1.2583095973	 0.1359402855	-1.7306567401	 0.232293
H	 2.9723738558	-1.7351763114	-3.9334262388	 0.127561
H	 1.4707183764	-2.2898734273	-4.6719667421	 0.127141
H	 1.5256724042	-0.7273838916	-3.8613059641	 0.107177
H	 1.6584605159	-4.6321251565	-2.9174885271	 0.101563
H	 0.7426404275	-4.7991509888	-0.330504593	 0.12641
50.3964	63.2623	103.6106	131.4737	238.972	248.6809	267.8119	325.5851	355.8522	465.0561	605.3033	626.8165	639.5482	675.5411	714.7742	790.4519	815.7421	822.4893	900.8185	928.2947	979.5193	1058.3134	1065.4639	1069.568	1093.9945	1136.7717	1181.548	1196.0258	1275.7148	1292.1319	1307.9715	1374.8357	1413.671	1418.0742	1455.4998	1466.6333	1485.1208	1494.7069	1498.9768	1501.1986	1522.1641	1570.4309	1677.3817	2964.1992	3014.1846	3033.3956	3063.9688	3085.6887	3086.5823	3107.4021	3122.8752	3243.9053	3291.0304	3575.2044
CCNC1=C(C)C=CO1	CCNc1c(C)cco1	
InChI=1S/C7H11NO/c1-3-8-7-6(2)4-5-9-7/h4-5,8H,3H2,1-2H3	InChI=1S/C7H11NO/c1-3-8-7-6(2)4-5-9-7/h4-5,8H,3H2,1-2H3
