19
gdb 113869	3.30444	1.05197	0.93112	2.8834	71.76	-0.2529	0.0679	0.3207	1306.592	0.15858	-460.109413	-460.100352	-460.099408	-460.144474	32.322	
O	 0.0198352571	 1.2067371441	-0.7775071432	-0.420116
C	 0.1025784969	 0.0609124992	 0.0611304783	-0.111433
C	-1.2554595318	-0.5816438994	 0.2031578935	 0.038331
O	-1.692980576	-1.4174817104	-0.8900354831	-0.270604
C	-1.5342035166	-2.0145343859	 0.3955784746	 0.030917
C	-0.5403791486	-3.1409328733	 0.5324219045	 0.102192
C	-0.7980564801	-4.3540938434	-0.3991556409	-0.290628
C	 0.5662278639	-3.9868385202	-1.0127102314	-0.060298
O	 0.7496566903	-2.9089154024	-0.0673922279	-0.277761
H	-0.2331492494	 0.8935290719	-1.6525900745	 0.289251
H	 0.8295781239	-0.6703740759	-0.3010667382	 0.130357
H	 0.4351415566	 0.4263673701	 1.0393376647	 0.107901
H	-2.0275890437	 0.115238241	 0.5371435611	 0.097077
H	-2.4794274359	-2.2611885114	 0.8907948042	 0.089226
H	-0.4420538816	-3.3897810075	 1.5984528536	 0.08413
H	-0.8409164072	-5.3213612842	 0.1022687902	 0.114482
H	-1.6552945365	-4.2443441856	-1.064228581	 0.126845
H	 1.3558256098	-4.7408890232	-0.9207674622	 0.106064
H	 0.534729479	-3.6184059734	-2.0439586722	 0.114066
58.4296	62.7961	86.7502	152.4471	201.1295	249.0075	304.9787	376.1879	463.4421	546.3701	659.3092	719.8006	792.8676	812.2341	847.004	920.8393	933.9737	962.9724	984.5996	1026.6057	1035.1311	1062.4763	1095.1381	1105.6366	1153.317	1158.1032	1169.5979	1220.2795	1230.4621	1262.5052	1270.1007	1298.3272	1351.6002	1354.9132	1385.0076	1402.2207	1425.9736	1485.0751	1490.3308	1504.0663	1527.4705	3005.9878	3029.9168	3049.1425	3054.3072	3073.855	3086.8167	3088.6757	3114.0131	3146.9759	3809.4931
OCC1OC1C1CCO1	OC[C@H]1O[C@H]1[C@H]1CCO1	
InChI=1S/C6H10O3/c7-3-5-6(9-5)4-1-2-8-4/h4-7H,1-3H2	InChI=1S/C6H10O3/c7-3-5-6(9-5)4-1-2-8-4/h4-7H,1-3H2/t4-,5-,6+/m1/s1
