17
gdb 63303	1.83019	1.73302	1.10357	1.8093	69.85	-0.2498	-0.0384	0.2114	1124.2433	0.131737	-458.977946	-458.968647	-458.967703	-459.012371	33.904	
C	-0.341362703	 1.5022672046	 0.1289123234	-0.448126
C	 0.0028121724	 0.0217892953	 0.009902854	 0.371357
O	-1.1100450501	-0.7468957943	-0.3926134813	-0.471776
C	 1.2233808752	-0.2565120505	-0.9196464702	-0.376818
C	 2.0743913136	-0.5237349191	 0.3215286505	 0.381962
O	 3.2468452372	-0.5793252603	 0.5477565309	-0.289757
C	 0.8153603164	-0.5860906673	 1.2170825826	-0.26456
C	 0.8577673356	 0.0091541212	 2.5967162566	 0.13896
O	 0.0315549137	 0.7643459264	 3.0456103373	-0.250448
H	 0.5388070412	 2.1007725757	 0.383255359	 0.124356
H	-0.7351552422	 1.8559319389	-0.8287620279	 0.124956
H	-1.0827673942	 1.6715540215	 0.9133101206	 0.140654
H	-1.8604153486	-0.4997346212	 0.1591551035	 0.28603
H	 1.0723380626	-1.1728542488	-1.4993295418	 0.149136
H	 1.5553178258	 0.5437636046	-1.5849109741	 0.135149
H	 0.548283605	-1.6483874247	 1.3175848277	 0.144213
H	 1.7372950394	-0.308778192	 3.197915429	 0.104712
52.6418	83.3987	157.0851	201.3493	268.3073	281.8897	306.5159	347.8172	379.262	403.2181	449.4885	559.1876	609.2798	639.0945	723.776	807.574	834.4855	918.9773	934.9702	978.5252	1014.1783	1057.0464	1100.7682	1121.2181	1135.9845	1163.1118	1227.476	1248.5751	1300.9895	1372.8173	1414.7128	1418.1847	1432.0588	1489.4383	1491.1403	1812.2109	1892.0778	2898.9804	3022.1194	3042.4841	3062.2334	3113.0911	3124.5546	3130.2802	3803.3803
CC1(O)CC(=O)C1C=O	C[C@@]1(O)CC(=O)[C@H]1C=O	
InChI=1S/C6H8O3/c1-6(9)2-5(8)4(6)3-7/h3-4,9H,2H2,1H3	InChI=1S/C6H8O3/c1-6(9)2-5(8)4(6)3-7/h3-4,9H,2H2,1H3/t4-,6-/m1/s1
