13
gdb 11680	5.52249	1.48024	1.34372	4.2727	65.87	-0.2716	-0.0282	0.2434	885.4323	0.096226	-357.608897	-357.602236	-357.601292	-357.639778	24.934	
N	-0.1496846953	 1.2335842222	-0.0024178287	-0.484395
C	 0.0080742786	-0.0083856508	 0.0157250947	 0.379691
C	 1.137353992	-1.0399245829	 0.0889085337	-0.405296
C	 0.0136600907	-2.0835840371	 0.040521421	 0.17786
C	-1.0035788747	-1.8255412246	 1.0846867438	-0.262524
N	-1.0595458073	-0.9904562142	-0.1380529631	-0.146481
C	 0.0384271482	-3.2661336448	-0.7629980735	 0.225137
N	 0.0973654936	-4.2332770601	-1.3945226062	-0.325787
H	 0.7401475517	 1.7240250445	 0.0975707887	 0.236633
H	 1.7559301615	-1.0358511749	-0.8113313848	 0.161342
H	 1.7784880828	-1.0444783204	 0.9737932541	 0.140962
H	-1.8365214165	-2.51633832	 1.1549684798	 0.160621
H	-0.6952975452	-1.3686812269	 2.0218511304	 0.142238
105.1129	167.5018	241.7857	369.3109	435.7286	500.0712	558.1388	568.3342	604.9184	676.0053	769.2903	834.6912	891.2931	924.714	963.5495	973.1247	1020.6007	1103.0232	1132.5417	1150.9808	1217.9642	1241.4499	1275.8886	1353.993	1462.6906	1501.4346	1815.7179	2356.1064	3071.6148	3119.3676	3129.9686	3222.0444	3479.2793
N=C1CC2(CN12)C#N	[NH][C]1C[C@]2(CN12)C#N	
InChI=1S/C5H5N3/c6-2-5-1-4(7)8(5)3-5/h7H,1,3H2	InChI=1S/C5H5N3/c6-2-5-1-4(7)8(5)3-5/h7H,1,3H2/t5-,8?/m1/s1
