23
gdb 112899	2.39487	1.16119	0.87724	1.8974	82.12	-0.2381	0.0746	0.3128	1409.5734	0.205126	-425.438758	-425.428692	-425.427748	-425.473894	37.537	
C	-0.0424601582	 1.4788451714	 0.2647257074	-0.398471
C	 0.0587117917	-0.0034732289	-0.0574064048	 0.15165
C	 1.1002057388	-0.3913810949	-1.1087150174	-0.231491
C	 1.3858283208	-1.8520679831	-0.7359332126	 0.004485
C	 2.6644188125	-2.4318761781	-1.3206594955	-0.115154
O	 2.5077602115	-2.4578229878	-2.7337538997	-0.424591
C	 1.2906499491	-1.824386106	 0.8121729537	 0.121718
C	 2.6093008312	-1.6598099263	 1.5679721788	-0.393896
O	 0.4482243947	-0.7088663525	 1.1267202191	-0.293234
H	 0.9308166042	 1.8704884093	 0.5768074081	 0.11489
H	-0.3822013066	 2.039855476	-0.6119653894	 0.111212
H	-0.7554763156	 1.6472742516	 1.0768029012	 0.123085
H	-0.9316479935	-0.3681922241	-0.3804926704	 0.062309
H	 0.7443531245	-0.2758722262	-2.1339333799	 0.111882
H	 2.0026102759	 0.2224721555	-0.9909659447	 0.092426
H	 0.5595930604	-2.4663128595	-1.1148479836	 0.085633
H	 3.5304435679	-1.8169054348	-1.0322883616	 0.087825
H	 2.8338409914	-3.4464124041	-0.9238963762	 0.086294
H	 3.3216012646	-2.793937783	-3.1201816376	 0.286491
H	 0.7973615672	-2.7386211623	 1.1715477914	 0.071102
H	 3.1674296912	-0.7867937208	 1.2157021499	 0.113969
H	 2.3965711817	-1.5135085752	 2.6305189641	 0.124269
H	 3.2432660946	-2.5472935464	 1.4670042399	 0.107597
54.5248	102.1308	127.3749	179.3133	225.7568	259.1808	264.3813	287.0053	328.0114	384.4808	429.8432	464.2994	477.776	577.7035	691.1726	799.974	836.2866	886.479	903.9857	944.0547	972.482	1015.9862	1034.605	1064.6265	1087.0677	1099.4134	1122.8068	1154.0672	1160.3604	1177.7813	1207.3738	1252.4256	1257.9272	1298.8806	1328.7146	1333.309	1364.1193	1387.3599	1394.0362	1396.4938	1407.3045	1413.5283	1466.5635	1483.6973	1487.6277	1491.0697	1496.5552	1499.4821	1523.7192	2947.2918	2963.2558	2992.7821	3000.5883	3025.1156	3035.2702	3036.9495	3039.5592	3106.2637	3109.6443	3114.9445	3116.0119	3118.9512	3830.0128
CC1CC(CO)C(C)O1	C[C@H]1C[C@@H](CO)[C@@H](C)O1	
InChI=1S/C7H14O2/c1-5-3-7(4-8)6(2)9-5/h5-8H,3-4H2,1-2H3	InChI=1S/C7H14O2/c1-5-3-7(4-8)6(2)9-5/h5-8H,3-4H2,1-2H3/t5-,6+,7-/m0/s1
