18
gdb 16896	3.97755	1.76741	1.36563	2.0863	72.4	-0.2435	0.0022	0.2457	933.3293	0.155043	-347.799339	-347.792166	-347.791222	-347.830651	28.057	
C	 0.1553908063	 1.5814459217	 0.0015425233	-0.3993
C	-0.0241691108	 0.0570662791	 0.0162292324	-0.03153
C	 0.523374983	-0.57476782	-1.2826939167	-0.229597
C	 0.7062447481	-2.0851017308	-1.2004172965	 0.021865
O	 2.0317093954	-2.542677653	-0.9031158131	-0.257816
C	 1.0075139656	-2.6940064458	 0.101834825	 0.01677
C	 1.0747612852	-1.8073018502	 1.2912560548	-0.10112
C	 0.5978063104	-0.5630364285	 1.2491006393	-0.035882
H	 1.2176868498	 1.8488622897	-0.0192699498	 0.122667
H	-0.3195206911	 2.0229375817	-0.8806166258	 0.114039
H	-0.2901469776	 2.0424415469	 0.8892053543	 0.113249
H	-1.1063703358	-0.1437052863	 0.0645651671	 0.089036
H	-0.1366368227	-0.320080399	-2.1188554345	 0.096679
H	 1.5042351711	-0.1387997309	-1.5045348152	 0.118292
H	 0.1950218058	-2.6855264998	-1.9523334768	 0.089812
H	 0.7298264944	-3.7321671673	 0.2838726955	 0.089432
H	 1.5061083063	-2.2100404276	 2.203346394	 0.092814
H	 0.6316249066	 0.0584598103	 2.1418884028	 0.09059
83.1731	204.5082	250.0771	298.7771	376.0706	401.7207	457.7111	536.1848	585.6674	725.8938	746.0403	813.4765	825.3216	874.2445	922.7024	942.6378	990.2949	1000.2732	1009.076	1070.1283	1077.3532	1101.9004	1151.4458	1156.7433	1205.5842	1252.6237	1286.251	1311.1303	1335.703	1356.201	1377.9989	1405.8776	1425.5384	1461.5716	1477.0541	1497.101	1500.1907	1709.303	2973.1118	3028.6046	3036.7559	3078.9293	3099.3563	3101.5481	3103.6736	3115.5922	3141.9804	3172.8216
CC1CC2OC2C=C1	C[C@H]1C[C@H]2O[C@H]2C=C1	
InChI=1S/C7H10O/c1-5-2-3-6-7(4-5)8-6/h2-3,5-7H,4H2,1H3	InChI=1S/C7H10O/c1-5-2-3-6-7(4-5)8-6/h2-3,5-7H,4H2,1H3/t5-,6+,7-/m1/s1
