19
gdb 94352	2.78533	1.09644	1.02359	2.9246	77.25	-0.2573	-0.04	0.2173	1270.7034	0.156875	-423.00863	-422.999557	-422.998613	-423.04304	33.203	
C	-0.070078005	 1.6159833563	 0.5071434023	-0.391182
C	 0.0111715438	 0.1447682352	 0.1068011565	-0.094254
C	 1.1628878028	-0.2145890067	-0.8881436146	-0.228771
C	 1.9745440243	-0.8684272028	 0.2720268409	-0.318205
C	 0.7237329082	-0.7456120833	 1.1436298618	 0.449877
O	 0.7325693222	-0.5147605541	 2.5318094271	-0.274294
C	 0.1700165761	-1.7583210183	 2.0724078108	-0.158138
C	-1.3051084404	-1.8868856356	 2.2420010044	 0.151041
O	-1.8831397771	-2.9422757229	 2.3052875674	-0.250445
H	 0.9105866133	 2.0030740787	 0.8039265648	 0.121374
H	-0.4333381543	 2.2216877472	-0.3290547635	 0.11873
H	-0.7485314466	 1.7571963199	 1.3536733671	 0.128457
H	-0.9753620405	-0.2130958593	-0.2016199305	 0.083525
H	 0.8585466964	-0.9331106288	-1.6515913419	 0.111883
H	 1.6376546028	 0.637604407	-1.3785684076	 0.107571
H	 2.362831464	-1.8752438685	 0.1046332531	 0.115549
H	 2.7864618757	-0.2373345964	 0.6436290909	 0.124181
H	 0.7510133086	-2.6542504861	 2.2859679278	 0.115376
H	-1.8355972943	-0.9108913114	 2.3032995231	 0.087725
54.0602	87.4425	143.1164	193.3794	223.1361	233.039	335.7501	385.5266	428.0211	456.2927	546.077	567.7215	729.3921	781.6254	854.5104	878.5852	917.6136	930.2892	949.7022	986.6546	1029.5297	1069.9991	1079.5132	1111.2331	1143.1648	1164.9421	1178.663	1222.1331	1241.7065	1251.6502	1275.5591	1299.3289	1343.1365	1391.6782	1410.5843	1457.9279	1471.5327	1493.8062	1496.7007	1501.3744	1823.2489	2892.9028	3035.2721	3057.2696	3065.35	3075.198	3104.6391	3110.7461	3113.5366	3131.6788	3134.3497
CC1CCC11OC1C=O	C[C@H]1CC[C@]21O[C@H]2C=O	
InChI=1S/C7H10O2/c1-5-2-3-7(5)6(4-8)9-7/h4-6H,2-3H2,1H3	InChI=1S/C7H10O2/c1-5-2-3-7(5)6(4-8)9-7/h4-6H,2-3H2,1H3/t5-,6-,7+/m0/s1
