17
gdb 84754	2.09207	1.8633	1.23964	3.7292	69.52	-0.2424	-0.024	0.2183	1031.6644	0.135417	-458.985004	-458.97638	-458.975436	-459.018483	32.173	
O	-0.0446250888	 1.4099361402	-0.1127063362	-0.440027
C	-0.0223799164	-0.0201886672	-0.0298039435	 0.048428
C	 0.8061647325	-0.507593682	 1.1290066587	-0.104686
C	 0.2714332947	-0.9406110939	 2.2722799555	-0.057488
C	-1.2144994978	-1.0043636974	 2.535927811	-0.358601
C	-1.9990336564	-0.2858326568	 1.4448668373	 0.335348
O	-2.8912965028	 0.4942713982	 1.6730099846	-0.306942
C	-1.478549332	-0.5565439663	 0.0343937657	 0.023378
O	-2.2734889431	-0.0062596079	-0.9720335368	-0.420565
H	-0.1394900698	 1.7553568931	 0.782627788	 0.288102
H	 0.4074778844	-0.3417984979	-0.9837169961	 0.104595
H	 1.8854475543	-0.4615213661	 1.0140832158	 0.105915
H	 0.9181016861	-1.2632801104	 3.0847291206	 0.108749
H	-1.5412246649	-2.0548171905	 2.5747071534	 0.140402
H	-1.4714331665	-0.5643287297	 3.5050290342	 0.136041
H	-1.4480725406	-1.6421745918	-0.1241614594	 0.107343
H	-2.2180883728	 0.9521121762	-0.8655278227	 0.29001
63.186	96.4745	174.6697	227.7194	279.6911	326.018	376.9792	399.3515	451.9168	482.3983	533.9305	588.0875	669.9194	735.9141	776.4495	852.0982	905.5942	939.1284	964.9558	1008.8136	1040.4486	1063.9204	1105.8045	1145.0992	1169.7119	1219.9293	1226.005	1284.5764	1294.5761	1323.6078	1369.5022	1398.7932	1423.7554	1437.0979	1452.1858	1710.2109	1826.5422	3003.3632	3039.7437	3064.6081	3077.1294	3152.7911	3177.3061	3784.1267	3796.8666
OC1C=CCC(=O)C1O	O[C@H]1C=CCC(=O)[C@H]1O	
InChI=1S/C6H8O3/c7-4-2-1-3-5(8)6(4)9/h1-2,4,6-7,9H,3H2	InChI=1S/C6H8O3/c7-4-2-1-3-5(8)6(4)9/h1-2,4,6-7,9H,3H2/t4-,6-/m0/s1
