18
gdb 100583	4.11623	0.78041	0.70272	1.987	71.87	-0.2739	-0.0241	0.2498	1590.7126	0.144939	-476.251405	-476.241064	-476.24012	-476.287849	35.277	
C	-0.0193281969	 1.5662530848	-0.1044546411	-0.403868
C	-0.0285027958	 0.024454186	-0.102566933	-0.111005
C	-1.4347094661	-0.5464006621	 0.0848146657	-0.079094
O	-1.8942053055	-0.1124554854	 1.3550277186	-0.424162
C	 0.5829533369	-0.514422447	-1.3748275974	 0.469541
O	 0.0088185257	-1.1173812189	-2.2416550699	-0.344563
O	 1.9237147097	-0.2077160942	-1.4211959464	-0.2116
C	 2.6404400604	-0.5967480111	-2.5254638882	 0.114573
N	 3.863626728	-0.3075618168	-2.5639693272	-0.419075
H	 0.9998500793	 1.9521535386	-0.1691770765	 0.139785
H	-0.5935510725	 1.956353196	-0.9518516694	 0.121928
H	-0.481753292	 1.9256929882	 0.8161653684	 0.14734
H	 0.5990780331	-0.3168377624	 0.7296669292	 0.122191
H	-2.0852226425	-0.1919158157	-0.7279289709	 0.102535
H	-1.4004943554	-1.643214579	 0.0206555728	 0.100814
H	-2.7976190466	-0.4202555945	 1.4687378163	 0.291635
H	 2.0347907987	-1.129303506	-3.2588506573	 0.143096
H	 4.2715419414	-0.6534522606	-3.4314324938	 0.239928
39.921	90.1247	107.7959	112.1343	144.4702	222.9684	246.3714	253.589	280.7017	342.4715	358.0778	458.4924	548.6594	699.1956	763.8547	853.4623	861.5216	932.6051	936.5273	1015.4901	1051.9249	1073.024	1084.3595	1119.0183	1153.6694	1174.1845	1255.0048	1263.5299	1269.4616	1335.5496	1348.8357	1389.2439	1401.6857	1463.1233	1497.244	1504.3679	1519.3999	1746.7371	1831.026	2992.6089	3024.0715	3043.912	3052.0256	3122.5572	3139.6364	3149.5445	3506.6341	3840.2597
CC(CO)C(=O)OC=N	C[C@@H](CO)C(=O)O[CH][NH]	
InChI=1S/C5H9NO3/c1-4(2-7)5(8)9-3-6/h3-4,6-7H,2H2,1H3	InChI=1S/C5H9NO3/c1-4(2-7)5(8)9-3-6/h3-4,6-7H,2H2,1H3/t4-/m0/s1
