22
gdb 64366	2.04663	1.79233	1.33497	2.2641	80.65	-0.2432	0.0656	0.3089	1090.9832	0.194515	-404.329414	-404.320403	-404.319459	-404.362721	35.281	
C	 0.2030919372	 1.5487387856	-0.151307207	-0.418745
C	-0.0219579388	 0.0346511791	 0.0142925434	 0.195338
C	-1.5153190519	-0.2924416653	 0.0401133716	-0.467657
C	 0.728870813	-0.720280839	-1.103553884	-0.109317
O	 2.0923735211	-0.7063638804	-0.7149874798	-0.257907
C	 2.1274581777	-0.9359810553	 0.6899791571	-0.132586
C	 0.7660615562	-0.4872196995	 1.2382701568	 0.287986
C	 0.5769242395	 0.0284827884	 2.6121187679	-0.297102
N	 0.1821650305	-1.3525434393	 2.2740099286	-0.365159
H	 1.2702076652	 1.7754655597	-0.2252395111	 0.131539
H	-0.283274743	 1.9146102832	-1.0625483888	 0.108618
H	-0.2070325405	 2.1078622799	 0.6952870288	 0.109718
H	-2.0038686365	 0.0770386666	-0.8677549741	 0.121182
H	-1.6956345796	-1.3710030422	 0.0952319805	 0.122399
H	-2.0199983237	 0.1848412718	 0.8886158066	 0.116018
H	 0.3514364061	-1.7537005231	-1.1892358164	 0.084297
H	 0.6533430023	-0.2395813496	-2.0832060439	 0.104187
H	 2.2739348764	-2.0013368994	 0.9177984787	 0.1068
H	 2.9713372047	-0.3714039489	 1.0990246926	 0.107225
H	 1.4260115892	 0.1130251989	 3.2863544843	 0.116806
H	-0.204871834	 0.765119456	 2.786000412	 0.108566
H	-0.8287964611	-1.4040156471	 2.1764126261	 0.227797
56.9983	203.8862	224.2352	238.8205	247.3361	282.6579	324.4778	344.7815	354.3937	427.7067	504.9307	523.701	604.5056	698.4853	839.9996	841.3122	909.3989	926.0171	939.9263	957.2685	964.4642	981.1901	999.3342	1037.267	1066.5374	1083.7689	1107.8776	1129.2489	1197.5931	1202.584	1238.1682	1243.4459	1269.5215	1276.1892	1301.1477	1338.7807	1380.544	1399.4442	1401.1339	1428.0006	1486.2939	1489.7766	1504.6715	1505.4141	1510.5801	1519.8884	1521.1454	2957.1543	3004.6097	3024.0145	3032.4233	3071.3973	3084.3884	3087.2477	3093.7336	3097.2761	3099.6626	3117.7778	3175.4376	3502.0849
CC1(C)COCC11CN1	CC1(C)COC[C@]21CN2	
InChI=1S/C7H13NO/c1-6(2)4-9-5-7(6)3-8-7/h8H,3-5H2,1-2H3	InChI=1S/C7H13NO/c1-6(2)4-9-5-7(6)3-8-7/h8H,3-5H2,1-2H3/t7-/m0/s1
