15
gdb 46481	3.03829	1.52438	1.11011	5.7066	67.02	-0.253	-0.0799	0.173	1049.1635	0.112854	-457.801422	-457.7938	-457.792856	-457.834171	28.108	
O	 0.0024417923	-0.0047983511	 0.0037463592	-0.311396
C	 0.0077868878	 1.1881433577	 0.0099307113	 0.372802
O	-1.1145774945	 1.9493014377	 0.028800774	-0.227629
C	-0.8343919981	 3.3668681432	 0.0329314723	-0.174763
C	 0.6778348473	 3.5093055973	 0.0132800493	 0.192275
C	 1.425427413	 4.6007860575	-0.7360026347	-0.288452
C	 1.4455256269	 4.5934321875	 0.7527546539	-0.288491
C	 1.2253470966	 2.135201298	-0.0010779095	 0.190877
O	 2.3754050554	 1.7827286451	-0.017993532	-0.298835
H	-1.3191896291	 3.7996667376	-0.8474930423	 0.134391
H	-1.2950706419	 3.7897164451	 0.9309747461	 0.134392
H	 2.3191512983	 4.2826697533	-1.2620207871	 0.150972
H	 0.8195888764	 5.3426618736	-1.2455419661	 0.131444
H	 0.8537946389	 5.330192753	 1.2857563431	 0.131441
H	 2.3530894007	 4.2702572346	 1.2512775224	 0.150973
49.2738	147.0039	216.7135	235.1923	327.8254	330.129	463.3254	482.7533	607.8246	631.6996	742.5158	790.161	790.8148	852.7281	884.8722	964.4964	970.8064	1030.4804	1048.7751	1070.4992	1074.2283	1106.2519	1167.3516	1203.7067	1230.5599	1292.7186	1347.407	1415.4624	1456.5617	1486.9296	1523.2998	1847.3285	1887.5046	3047.5431	3090.923	3132.7159	3133.7734	3220.219	3234.7292
O=C1OCC2(CC2)C1=O	O=C1OCC2(CC2)C1=O	
InChI=1S/C6H6O3/c7-4-5(8)9-3-6(4)1-2-6/h1-3H2	InChI=1S/C6H6O3/c7-4-5(8)9-3-6(4)1-2-6/h1-3H2
