23
gdb 59195	2.73411	1.06662	1.03322	1.6259	85.82	-0.2511	0.0721	0.3232	1343.6766	0.205183	-388.241111	-388.23171	-388.230766	-388.275175	36.634	
C	 0.0250296716	 1.4867558039	 0.0702979483	-0.3853
C	 0.0848342834	-0.0476786933	 0.1178538789	-0.02943
C	 0.7554604503	-0.5316580675	 1.4126212807	-0.38534
C	-1.3214273967	-0.6370011345	-0.0028826957	 0.073193
C	-2.1295876893	-0.6315159313	-1.3468850953	-0.1257
C	-1.2387260361	-1.8137703825	-1.8235522805	-0.233129
C	-1.5812493027	-2.1457675684	-0.3433489864	-0.125787
C	-3.0437411089	-1.7348761972	-0.7181271676	 0.191727
O	-4.0152848843	-1.4490556729	 0.2443045704	-0.450758
H	 1.0256783504	 1.9224787976	 0.158535082	 0.110343
H	-0.4155832938	 1.842688811	-0.8662907905	 0.115129
H	-0.5810494061	 1.8814953815	 0.8950258161	 0.109469
H	 0.7031902017	-0.3827480379	-0.7223768176	 0.07462
H	 0.839011394	-1.622713664	 1.4381532171	 0.11511
H	 1.7627422529	-0.1144384957	 1.5138483093	 0.110345
H	 0.1791303849	-0.2207606642	 2.2926765424	 0.109457
H	-1.8922370646	-0.2696372914	 0.8628879442	 0.028551
H	-2.4451246442	 0.2360084778	-1.9292304844	 0.069157
H	-1.6715804533	-2.4730246278	-2.5816116842	 0.0915
H	-0.1988176006	-1.5910108637	-2.0554142996	 0.101783
H	-1.2659530896	-3.0201669568	 0.2287585782	 0.069143
H	-3.5314488817	-2.3916205294	-1.4428247509	 0.080964
H	-3.6415574674	-0.8704830233	 0.916496605	 0.284952
54.3475	151.212	171.5209	215.7977	241.4812	242.6755	288.4158	384.317	384.4877	422.3156	445.8429	537.2854	606.0843	755.8636	821.7612	836.9234	876.4694	882.4006	887.3557	898.9013	927.4058	966.0754	1009.9177	1013.469	1041.9268	1044.7275	1109.8344	1111.2911	1127.0427	1145.0588	1178.4995	1183.6576	1196.4544	1197.3659	1239.5822	1245.6868	1273.4255	1285.9088	1332.164	1341.2029	1397.7785	1417.0667	1442.5405	1460.1835	1486.9117	1490.8522	1503.7542	1509.2038	1522.1521	2980.7697	3022.0543	3026.1996	3039.1888	3061.9996	3083.3024	3085.7943	3093.9702	3094.6309	3101.794	3102.4931	3104.441	3145.7823	3815.8852
CC(C)C1C2CC1C2O	CC(C)[C@H]1[C@H]2C[C@@H]1[C@H]2O	
InChI=1S/C8H14O/c1-4(2)7-5-3-6(7)8(5)9/h4-9H,3H2,1-2H3	InChI=1S/C8H14O/c1-4(2)7-5-3-6(7)8(5)9/h4-9H,3H2,1-2H3/t5-,6+,7+,8+
