14
gdb 125185	3.51516	1.66187	1.13641	2.4397	69.8	-0.2281	-0.0163	0.2119	996.6998	0.103984	-432.891127	-432.884096	-432.883152	-432.923553	25.916	
C	-0.0237723719	 1.5262395121	 0.1015693214	-0.511457
C	 0.0075324167	 0.0454974529	-0.075488522	 0.207248
C	-0.0059456619	-0.7830750572	-1.1853860286	 0.145305
N	-0.0475467783	-0.8607488129	-2.579266306	-0.350036
C	-0.0219854191	-2.1326398351	-2.7936168524	 0.046602
O	 0.0335734305	-2.9700111803	-1.6896609718	-0.209557
C	 0.0432205262	-2.0778575498	-0.6625156392	 0.406935
N	 0.0862832019	-2.1664793702	 0.6484047646	-0.352818
N	 0.0627070624	-0.8335648194	 0.9751144042	-0.253381
H	 0.874594776	 1.8943608156	 0.6099408428	 0.141573
H	-0.0783635478	 2.0082219275	-0.8761397976	 0.16004
H	-0.8932764495	 1.8477300666	 0.6859590077	 0.141148
H	-0.0389432759	-2.6401749888	-3.7459258078	 0.152612
H	 0.0869090207	-0.593814821	 1.9520271246	 0.275786
30.9975	188.7162	245.0775	267.6923	389.8085	464.5089	556.3024	606.7229	631.3143	642.8448	719.927	787.4879	814.0899	852.2879	918.0016	993.4689	1053.1723	1059.9032	1087.6318	1166.8149	1229.7674	1291.2491	1320.5797	1417.8342	1453.8332	1464.9986	1483.4374	1497.3166	1556.4245	1582.1439	1668.8304	3031.8453	3083.2589	3137.2508	3274.445	3673.7974
CC1=C2N=COC2=NN1	Cc1c2ncoc2n[nH]1	
InChI=1S/C5H5N3O/c1-3-4-5(8-7-3)9-2-6-4/h2H,1H3,(H,7,8)	InChI=1S/C5H5N3O/c1-3-4-5(8-7-3)9-2-6-4/h2H,1H3,(H,7,8)
