21
gdb 46543	3.385	1.15258	1.04423	2.8894	81.92	-0.234	-0.0128	0.2212	1231.3365	0.183418	-387.119654	-387.111423	-387.110479	-387.152718	32.392	
O	 0.2829283155	 0.1402316601	-0.5761813253	-0.312984
C	 0.1209737092	 1.268390025	-0.1900230198	 0.403815
C	-1.2271573468	 1.9254713658	 0.1351029324	-0.318025
C	-0.8568128511	 3.2537048458	 0.812088227	-0.298732
C	 0.489907188	 3.6479051547	 0.178661001	 0.360201
C	 0.4488697247	 4.4398146327	-1.171309172	-0.263585
C	 1.6064295734	 5.331123458	-0.648170694	-0.207315
C	 1.305165521	 4.8215269404	 0.7868920161	-0.284561
C	 1.2238982152	 2.3028860212	 0.0653931443	-0.380775
H	-1.7442196171	 2.0944024382	-0.8185052791	 0.132713
H	-1.8584555633	 1.2562205898	 0.7244045107	 0.126603
H	-1.6147639916	 4.0324962661	 0.6889511576	 0.098295
H	-0.7205777368	 3.1015072252	 1.8908241576	 0.102027
H	 0.6203913975	 3.8749166079	-2.0920033828	 0.099288
H	-0.4836266187	 5.0024903597	-1.2795745903	 0.09743
H	 2.5818563712	 4.9930540616	-1.0079195607	 0.105898
H	 1.5290450068	 6.4057967761	-0.8258115483	 0.099363
H	 0.659143471	 5.5121287018	 1.338831095	 0.097694
H	 2.1548066284	 4.5598696722	 1.4241893556	 0.094343
H	 1.6960233476	 2.0396164134	 1.0232563172	 0.124651
H	 2.0021062658	 2.2524016043	-0.7002891222	 0.123656
70.3675	116.0742	136.3506	253.4703	344.284	371.4442	439.8677	477.4506	488.7999	573.2889	657.1492	723.3535	743.7079	791.9581	816.2246	875.9981	885.0758	929.4462	941.8606	965.9689	978.2682	988.278	998.0686	1072.0242	1097.3872	1158.5252	1167.873	1190.2933	1208.7957	1221.9335	1235.0886	1260.0243	1265.2546	1275.8651	1290.6221	1307.3125	1318.8962	1341.803	1446.0914	1450.2933	1475.8199	1484.228	1495.8111	1507.0846	1847.5831	3012.9975	3024.7997	3036.3363	3042.0388	3047.3708	3063.6859	3085.1007	3090.8666	3095.0774	3101.2811	3106.9109	3119.1916
O=C1CCC2(CCC2)C1	O=C1CCC2(CCC2)C1	
InChI=1S/C8H12O/c9-7-2-5-8(6-7)3-1-4-8/h1-6H2	InChI=1S/C8H12O/c9-7-2-5-8(6-7)3-1-4-8/h1-6H2
