20
gdb 88084	3.44545	1.24111	1.14535	2.6232	78.6	-0.234	0.0804	0.3143	1163.1252	0.17162	-403.11708	-403.108981	-403.108037	-403.149535	31.879	
C	-0.0308179225	 1.5365851711	-0.0991737384	-0.421826
C	-0.0487524306	 0.044568033	 0.117399122	-0.010332
O	 1.1861257379	-0.6651198866	-0.0648628187	-0.303575
C	 0.604030703	-0.6271684214	 1.2479545723	 0.439977
C	 1.3927268031	 0.0522850988	 2.3652099038	-0.341155
C	 1.8561203292	-1.1403863203	 3.2410242024	-0.158874
N	 0.9445829459	-2.2814390416	 3.0040577408	-0.098241
C	-0.4734040932	-1.9383165874	 3.1480320535	-0.256721
C	 0.1560581863	-1.9520199751	 1.7997210661	-0.100451
H	 0.8302836791	 2.0007231036	 0.3864078573	 0.126248
H	 0.0143512882	 1.7649422231	-1.1691783213	 0.130911
H	-0.9445585555	 1.989885843	 0.3006492681	 0.12201
H	-0.9066446572	-0.4656434956	-0.3276226227	 0.084995
H	 2.2316374988	 0.6213310201	 1.9624680029	 0.123285
H	 0.7573573118	 0.7468305304	 2.9240333548	 0.11023
H	 2.8573734484	-1.464526543	 2.9409303685	 0.11843
H	 1.8874942787	-0.9021288161	 4.3081799402	 0.10675
H	-1.1104948267	-2.7644769493	 3.4497069844	 0.119149
H	-0.7469082691	-0.9788879721	 3.5820790564	 0.108104
H	-0.0422326558	-2.7486016044	 1.0894053473	 0.101087
102.3489	163.5319	191.4924	204.108	301.2398	383.4434	386.9107	441.3784	499.597	558.3791	660.5746	719.6589	771.5154	813.8219	832.6564	867.99	915.6019	948.7851	961.6869	995.3173	1011.4374	1040.1527	1080.6389	1099.6176	1109.6462	1126.0954	1159.7062	1160.79	1206.2497	1232.8644	1248.6781	1262.2516	1300.152	1328.5145	1347.9089	1383.5327	1409.0989	1471.9545	1478.654	1491.0674	1498.6585	1515.4318	1520.4563	3037.9126	3051.6944	3055.6082	3075.9042	3094.9825	3099.4789	3104.0206	3124.1604	3133.3038	3162.4893	3189.258
CC1OC11CCN2CC12	C[C@H]1O[C@]21CCN1C[C@@H]21	
InChI=1S/C7H11NO/c1-5-7(9-5)2-3-8-4-6(7)8/h5-6H,2-4H2,1H3	InChI=1S/C7H11NO/c1-5-7(9-5)2-3-8-4-6(7)8/h5-6H,2-4H2,1H3/t5-,6+,7+,8?/m1/s1
