12
gdb 130502	4.2089	1.71998	1.22101	0.3844	67.42	-0.2713	-0.083	0.1883	897.6851	0.081556	-431.693953	-431.688381	-431.687437	-431.72393	21.797	
O	-0.0209574417	 1.3284803401	 0.0094101947	-0.239139
N	 1.3020989204	 1.8153560808	-0.0006710385	-0.097424
C	 2.1008334648	 0.7872879455	-0.0139265276	-0.057809
C	 1.362973367	-0.4450322337	-0.0134409557	 0.202099
C	 0.0367792485	-0.014382622	 0.0016270383	 0.352328
C	-0.9755299221	-0.9687910953	 0.0062301692	-0.081436
N	-0.6300388526	-2.2518804594	-0.0039950224	-0.242181
C	 0.6814028775	-2.5655502569	-0.0183126216	 0.053595
N	 1.7189545328	-1.733785542	-0.0237969633	-0.327906
H	 3.1697554843	 0.9436708824	-0.0233702683	 0.161149
H	-2.0317340687	-0.7155128279	 0.0177542249	 0.146138
H	 0.91049582	-3.6270185917	-0.0261789397	 0.130587
220.7588	246.5844	425.3487	442.8238	557.5094	611.0298	637.6499	656.6653	793.0169	816.9072	867.6615	907.7904	914.4688	943.4844	951.5083	998.1595	1133.3205	1190.5279	1245.1358	1274.513	1307.0728	1360.579	1418.8884	1489.4657	1537.7588	1614.3283	1619.5978	3175.2757	3185.0432	3255.9743
O1N=CC2=C1C=NC=N2	o1ncc2c1cncn2	
InChI=1S/C5H3N3O/c1-4-5(9-8-1)2-6-3-7-4/h1-3H	InChI=1S/C5H3N3O/c1-4-5(9-8-1)2-6-3-7-4/h1-3H
