22
gdb 109019	3.42507	1.06114	0.91317	1.456	88.82	-0.2185	0.0212	0.2397	1389.0983	0.194459	-367.211178	-367.202054	-367.20111	-367.244941	35.306	
C	 0.0954709746	 1.4977776393	 0.2393761922	-0.374883
C	-0.0502867888	 0.017317424	-0.1544799329	-0.284515
C	-1.4653990364	-0.4790782663	-0.1218002208	 0.330146
C	-2.1615584522	-0.991293408	-1.143784232	-0.171771
C	-3.5017312101	-1.4652596493	-0.7006636119	-0.127908
N	-3.4109797435	-2.5592768688	 0.3191373432	-0.372147
C	-3.6077433853	-1.1562783041	 0.7525238058	 0.335331
C	-4.8862987899	-0.7609857093	 1.4440391156	-0.490818
C	-2.2912873712	-0.4880535996	 1.1585047502	-0.353908
H	 1.1425808088	 1.811499461	 0.1888012875	 0.11276
H	-0.4840567806	 2.1397197377	-0.4317911851	 0.118687
H	-0.2557780023	 1.6782816774	 1.260225792	 0.119089
H	 0.3625033494	-0.1374617301	-1.1577174195	 0.101003
H	 0.5616895046	-0.5895508979	 0.5280006178	 0.105714
H	-1.7905279545	-1.1058283817	-2.1561266685	 0.087066
H	-4.3603414615	-1.4511298223	-1.3648172643	 0.080331
H	-4.3167121625	-3.027047986	 0.3643808955	 0.216798
H	-5.7562008184	-1.2160622437	 0.9581215251	 0.111489
H	-4.8844175776	-1.0803336309	 2.4933026118	 0.123155
H	-5.0254971341	 0.3257016176	 1.4302301035	 0.121813
H	-1.7882777006	-1.044539659	 1.9591385708	 0.113371
H	-2.463171408	 0.5285894499	 1.537684884	 0.099197
68.5879	110.7461	198.7718	204.4408	227.0654	277.6515	314.5779	381.2474	406.9414	479.4147	531.3287	563.9276	658.3227	730.1278	783.968	823.189	863.1534	875.5352	908.5638	934.7634	955.4569	963.7656	988.4607	1050.8128	1057.9106	1075.9105	1088.8425	1120.8368	1142.3783	1191.3245	1201.3537	1257.662	1281.6121	1297.4688	1345.0725	1358.0244	1363.3595	1405.9338	1413.5501	1431.8974	1467.5857	1479.1594	1486.9092	1498.4786	1500.3535	1507.7458	1698.0423	3007.0514	3012.4932	3021.2222	3036.6853	3052.065	3059.521	3081.6234	3094.1477	3107.6221	3108.3367	3157.5818	3192.639	3454.4356
CCC1=CC2NC2(C)C1	CCC1=C[C@H]2N[C@@]2(C)C1	
InChI=1S/C8H13N/c1-3-6-4-7-8(2,5-6)9-7/h4,7,9H,3,5H2,1-2H3	InChI=1S/C8H13N/c1-3-6-4-7-8(2,5-6)9-7/h4,7,9H,3,5H2,1-2H3/t7-,8+/m1/s1
