19
gdb 29693	2.36867	1.59787	0.97161	2.6342	80.33	-0.1829	0.0498	0.2327	1227.7319	0.157636	-419.258475	-419.248071	-419.247127	-419.294461	35.843	
C	-0.0431118706	 1.4612979697	 0.006884115	-0.345372
N	 0.0210602419	 0.0142669891	-0.0037058856	-0.083566
C	 0.0691584632	-0.8290237537	-1.0942906897	 0.315883
C	 0.0903777783	-0.3348590404	-2.5005618813	-0.501342
N	 0.0926328603	-2.0862332384	-0.722577387	-0.353893
C	 0.0512053498	-2.0959736327	 0.6620968398	 0.14589
C	 0.0645813625	-3.3622591129	 1.4546165177	-0.498435
C	 0.0056836255	-0.801927886	 1.1052325024	 0.265832
O	-0.0497498153	-0.2133598774	 2.330349814	-0.447281
H	 0.6661492202	 1.8767941808	-0.7135719628	 0.139113
H	-1.0473020704	 1.8236746691	-0.2411360365	 0.137343
H	 0.218053351	 1.8168990947	 1.0041861534	 0.159726
H	 0.9656624015	 0.2931249956	-2.7099016957	 0.125105
H	 0.1244702272	-1.2003142289	-3.1636981039	 0.153208
H	-0.8000063132	 0.2561935891	-2.7486602424	 0.124914
H	 0.9991634819	-3.9189928285	 1.3187221404	 0.131655
H	-0.0491983379	-3.1692434652	 2.5283023167	 0.088509
H	-0.7538013972	-4.0264933057	 1.1557782766	 0.135656
H	 0.0634443915	-0.8981282181	 2.9965840889	 0.307054
49.0068	68.5442	128.0976	143.2952	162.0758	183.0417	252.6506	265.824	270.1334	300.8503	360.2418	556.8358	584.3804	612.3501	670.3392	683.1829	742.7402	866.9149	977.0896	1028.4719	1052.7815	1058.9186	1059.2854	1151.2468	1193.8126	1228.5141	1276.0453	1329.4934	1399.7798	1416.4945	1427.7096	1457.8153	1468.4853	1479.0113	1482.7332	1494.4288	1499.7619	1512.6132	1535.0517	1579.5983	1659.7326	3016.7138	3017.8868	3034.7772	3060.9546	3074.2853	3082.3241	3100.5286	3144.7173	3150.4408	3842.415
CN1C(C)=NC(C)=C1O	Cn1c(C)nc(C)c1O	
InChI=1S/C6H10N2O/c1-4-6(9)8(3)5(2)7-4/h9H,1-3H3	InChI=1S/C6H10N2O/c1-4-6(9)8(3)5(2)7-4/h9H,1-3H3
