20
gdb 13190	5.07842	1.10582	1.02598	2.4912	75.87	-0.2379	-0.0087	0.2292	1234.7418	0.176311	-349.021794	-349.012888	-349.011944	-349.056509	31.819	
C	-0.3907436294	 1.4573814524	 0.1846117535	-0.377256
C	-0.097300584	-0.0153619621	-0.0866075904	-0.284325
C	 0.7473722613	-0.2587198748	-1.3295477476	 0.367227
O	 1.218917037	 0.6536043531	-1.9735241896	-0.313445
C	 0.9336377088	-1.7037081798	-1.7474996134	-0.060843
C	-0.0298971669	-2.2060376267	-2.882311492	-0.220436
C	 1.1771737253	-2.9305799265	-3.5331289417	-0.209554
C	 2.1242455813	-2.0462339659	-2.6806998778	-0.229058
H	 0.5377413553	 2.0247711919	 0.2842773728	 0.133532
H	-0.9536811424	 1.9020286747	-0.6404578965	 0.128037
H	-0.9725305233	 1.5757509613	 1.1030663493	 0.10797
H	 0.4344379204	-0.4758217151	 0.7590204092	 0.122477
H	-1.0222539236	-0.6008965722	-0.1861628128	 0.119636
H	 0.8751892956	-2.3671406014	-0.8793022403	 0.070247
H	-0.8893566084	-2.806995909	-2.5770222261	 0.100546
H	-0.3787337392	-1.368993596	-3.4932985745	 0.117483
H	 1.2229468746	-3.9828112054	-3.2382677796	 0.10168
H	 1.2702291922	-2.8710549987	-4.6198249061	 0.101544
H	 2.4431358404	-1.1464853453	-3.2117796132	 0.12797
H	 2.9945591351	-2.5222660144	-2.2237180832	 0.096569
29.4234	71.1815	115.2469	176.3445	205.2322	238.9495	313.9188	358.375	554.4798	595.4219	670.5518	756.6414	776.184	811.3226	865.9255	913.6179	934.1593	948.6999	982.9076	1010.0589	1018.892	1050.1633	1103.5202	1132.7513	1144.6204	1209.8782	1238.1604	1254.6503	1260.8948	1276.5421	1281.3371	1283.6738	1349.6329	1386.9971	1412.7645	1449.0795	1476.786	1487.073	1493.401	1497.6834	1507.5985	1797.6159	3010.2144	3036.7192	3050.6635	3057.5174	3060.6833	3060.9678	3070.0717	3103.1171	3119.1529	3120.3247	3128.0181	3131.5645
CCC(=O)C1CCC1	CCC(=O)C1CCC1	
InChI=1S/C7H12O/c1-2-7(8)6-4-3-5-6/h6H,2-5H2,1H3	InChI=1S/C7H12O/c1-2-7(8)6-4-3-5-6/h6H,2-5H2,1H3
