18
gdb 91481	2.64777	1.63985	1.2317	1.9276	77.97	-0.231	0.0322	0.2632	1038.4213	0.148645	-401.875953	-401.868157	-401.867213	-401.907906	31.416	
O	 0.0562785346	 1.364690604	 0.0361607871	-0.440305
C	-0.0141497175	-0.0443250836	 0.0283092505	 0.083479
C	 0.4190278853	-0.6163535677	 1.4126254089	-0.198103
N	-0.8019962476	-1.3304438704	 1.8846241122	-0.143794
C	-1.1959678906	-2.0315273178	 0.6009736933	-0.226488
C	-1.463169906	-0.6052142311	 0.0333455427	 0.237559
C	-1.8581120037	-0.3131218524	 1.5139941855	-0.217136
C	-2.2842457183	-0.3005339558	-1.1078715125	 0.002724
C	-2.9592496171	-0.0164576427	-2.0634199263	-0.341368
H	-0.3391499269	 1.6823872027	-0.7838862617	 0.288313
H	 0.5612651183	-0.4608091266	-0.8097849455	 0.074296
H	 1.2560465729	-1.3147218228	 1.3464525382	 0.108381
H	 0.6794448581	 0.1939081168	 2.0968237077	 0.124363
H	-0.4125274226	-2.640355034	 0.1398503508	 0.105801
H	-2.1049311165	-2.6187438942	 0.7429944628	 0.120031
H	-2.8520163622	-0.6796910047	 1.7752572423	 0.114947
H	-1.6938634752	 0.6970912874	 1.8928376951	 0.122419
H	-3.566052865	 0.2198448329	-2.9024123011	 0.184882
118.3828	146.3498	208.0582	321.5867	363.325	458.9987	467.3796	485.6991	517.4419	545.045	599.2753	630.0651	649.9055	695.3021	837.0822	855.2476	867.8165	893.4564	965.8762	978.9729	1004.6177	1014.5953	1050.0132	1079.8652	1153.6747	1162.1182	1205.564	1221.501	1230.5036	1240.4208	1257.3364	1277.897	1314.7945	1354.7227	1419.1448	1492.128	1495.545	1529.821	2226.7169	3005.9956	3056.165	3073.1276	3078.5691	3127.0595	3130.627	3146.2562	3499.647	3793.9875
OC1CN2CC1(C2)C#C	O[C@H]1CN2C[C@]1(C2)C#C	
InChI=1S/C7H9NO/c1-2-7-4-8(5-7)3-6(7)9/h1,6,9H,3-5H2	InChI=1S/C7H9NO/c1-2-7-4-8(5-7)3-6(7)9/h1,6,9H,3-5H2/t6-/m0/s1
