18
gdb 19044	4.20386	1.99657	1.73459	0.3476	76.28	-0.2104	0.0262	0.2366	829.6407	0.155697	-310.647076	-310.640589	-310.639645	-310.677286	26.717	
C	 0.0714291208	 1.4685822603	 0.0371702631	-0.502664
C	-0.0419456652	-0.0205557088	-0.032428026	 0.338681
C	-0.1360997534	-0.8023980137	-1.1165619092	-0.195641
C	-0.0481305577	-2.2535839066	-0.7030645622	-0.092965
C	 1.4241955536	-2.5043060183	-0.1790422627	-0.223725
C	 0.9469051927	-2.1132657309	 1.2133191469	-0.068775
C	-0.4972971611	-2.2674410698	 0.7988638494	-0.068711
C	-0.0187718864	-0.89662948	 1.1819196184	-0.130108
H	 1.0275289573	 1.7753631006	 0.48046058	 0.126444
H	-0.0023477561	 1.9230593907	-0.954585059	 0.121974
H	-0.715891657	 1.9008458121	 0.6683164233	 0.121676
H	-0.0953683275	-0.4677474102	-2.1468437671	 0.084509
H	-0.4503643702	-2.9928849397	-1.3940206714	 0.064586
H	 1.6687648126	-3.5696018899	-0.2060027349	 0.099545
H	 2.22591272	-1.9283410153	-0.6538370272	 0.087036
H	 1.4219391563	-2.3856104103	 2.1486048339	 0.081916
H	-1.3189405122	-2.8079524002	 1.2532624653	 0.08141
H	-0.2707504665	-0.49671972	 2.1585877893	 0.074811
170.2605	183.3965	295.47	375.1599	434.1593	571.5086	589.7528	696.8286	751.9162	769.0588	794.0762	812.9387	866.2098	871.8986	920.3399	948.1655	975.4904	981.5262	1015.6091	1022.1294	1056.7038	1059.0051	1068.4847	1093.5879	1136.3863	1167.4365	1203.102	1226.0012	1254.3982	1279.4393	1309.6347	1341.9135	1383.0236	1413.2908	1478.7348	1486.37	1491.1437	1691.4005	3014.482	3037.0815	3058.6215	3097.2917	3108.6297	3120.6531	3165.7116	3172.3972	3186.9346	3195.2285
CC1=CC2CC3C2C13	CC1=C[C@H]2C[C@@H]3[C@H]2[C@H]13	
InChI=1S/C8H10/c1-4-2-5-3-6-7(4)8(5)6/h2,5-8H,3H2,1H3	InChI=1S/C8H10/c1-4-2-5-3-6-7(4)8(5)6/h2,5-8H,3H2,1H3/t5-,6-,7+,8-/m0/s1
