17
gdb 9893	3.75857	1.52355	1.31277	4.6608	65.28	-0.2365	0.0118	0.2483	969.409	0.142101	-401.010115	-401.00203	-401.001086	-401.042803	30.147	
O	-0.0983968711	 1.0038015675	-1.0809134987	-0.480838
C	 0.0470110729	-0.1520214743	-0.3210896994	 0.451259
C	 1.0894613744	-1.1317535856	-0.8388817465	-0.25844
N	 2.4725763901	-0.841465757	-0.431661024	-0.262179
C	 3.1211729645	 0.3217034227	-0.6440012129	 0.168532
O	 2.6399910674	 1.3349563046	-1.1259125123	-0.33951
C	-0.2013273055	-0.0736261696	 1.1682396182	-0.313813
C	-1.2338838833	-0.6902895654	 0.243930635	-0.307814
H	 0.7941695103	 1.3845611156	-1.173228368	 0.299073
H	 0.8744012368	-2.1384500427	-0.4730781848	 0.111383
H	 1.0251669531	-1.1483496927	-1.9335040728	 0.13456
H	 3.0127195024	-1.5956835132	-0.0393892929	 0.254797
H	 4.1783312274	 0.275793331	-0.322865151	 0.091198
H	 0.3557743391	-0.7262498708	 1.832949683	 0.097746
H	-0.4135022526	 0.911706483	 1.5655677189	 0.122171
H	-2.1228344318	-0.108773791	 0.029256133	 0.127571
H	-1.3889817141	-1.7635245921	 0.2790502752	 0.104303
56.2485	122.031	207.6079	255.2669	286.4483	335.999	372.5088	425.0684	510.6273	549.0285	654.896	722.2339	769.493	795.3245	889.8615	919.9812	958.6527	968.3496	987.0658	1021.0962	1035.8459	1046.3416	1077.8062	1188.9145	1228.6658	1259.8262	1297.4768	1350.0152	1373.0011	1432.0081	1447.7914	1461.1832	1472.923	1515.2279	1539.6596	1781.4425	2965.1227	3038.245	3105.0449	3130.03	3135.3449	3218.9929	3232.7918	3594.7438	3638.7035
OC1(CNC=O)CC1	OC1(CNC=O)CC1	
InChI=1S/C5H9NO2/c7-4-6-3-5(8)1-2-5/h4,8H,1-3H2,(H,6,7)	InChI=1S/C5H9NO2/c7-4-6-3-5(8)1-2-5/h4,8H,1-3H2,(H,6,7)
