16
gdb 112329	2.87419	1.39674	1.04202	2.1507	66.34	-0.2642	-0.0044	0.2598	1117.6888	0.124818	-475.007617	-474.999841	-474.998896	-475.040246	29.237	
O	 0.0716029426	 1.3333835197	-0.1689866117	-0.419253
C	 0.0360138976	-0.0772335327	-0.1214951222	-0.072389
C	-1.3642525856	-0.5919641323	 0.1945639292	 0.060683
O	-2.2603807336	-0.1006747476	-0.837396961	-0.278865
C	-3.0947214048	-1.0864422955	-1.2983395964	 0.435931
N	-4.1041007882	-0.9137077453	-2.0331653882	-0.540133
C	-2.6177634079	-2.3975056544	-0.7701774971	-0.056056
O	-1.2427113038	-2.6463859076	-1.1209392135	-0.241405
C	-1.5280092213	-2.0988517671	 0.1648865065	-0.000765
H	-0.5522978558	 1.6038345949	-0.852029877	 0.294507
H	 0.371791723	-0.5353668698	-1.0618179238	 0.116767
H	 0.7228064615	-0.3851017499	 0.6743354877	 0.114907
H	-1.7061295613	-0.1847262685	 1.1541120819	 0.104876
H	-4.2461071208	 0.0783676275	-2.2319415593	 0.228428
H	-3.2783314025	-3.2545306008	-0.7288362873	 0.132111
H	-1.280998359	-2.7102776006	 1.0271837122	 0.120656
100.2613	128.7539	151.8465	234.7335	336.5363	395.3622	418.4488	478.6369	503.7437	633.9894	704.5356	769.1304	837.9327	852.6751	880.6482	908.7227	932.9992	969.1682	1003.5843	1070.5233	1077.6507	1087.4817	1107.854	1118.1674	1226.5288	1239.9928	1271.1181	1314.0715	1324.9792	1374.495	1399.0522	1413.9509	1434.1842	1499.1635	1786.7369	3016.9148	3042.1091	3082.2927	3170.1094	3208.7237	3473.5992	3807.4515
OCC1OC(=N)C2OC12	OC[C@H]1O[C]([NH])[C@H]2O[C@@H]12	
InChI=1S/C5H7NO3/c6-5-4-3(9-4)2(1-7)8-5/h2-4,6-7H,1H2	InChI=1S/C5H7NO3/c6-5-4-3(9-4)2(1-7)8-5/h2-4,6-7H,1H2/t2-,3+,4+/m1/s1
