19
gdb 90821	3.36295	1.77832	1.59466	1.5233	76.46	-0.2319	0.0927	0.3246	914.4277	0.161615	-385.848236	-385.841584	-385.84064	-385.878988	28.029	
C	-0.1467092245	 1.5638280923	-0.0504897169	-0.397884
C	-0.0002529587	 0.0492183063	 0.0019724944	 0.13444
O	 0.7129980405	-0.4238466017	-1.1673953755	-0.299958
C	 1.8176054788	-1.1797933202	-0.7148120739	 0.124715
C	 2.9258486128	-0.401376968	 0.0078628861	-0.099361
C	 2.8725690561	-1.3133817594	 1.213842894	-0.121715
C	 2.2414206991	 0.053566117	 1.3047033013	-0.072336
C	 0.8085669151	-0.4986057886	 1.1844554513	-0.068676
C	 1.4870922141	-1.8035143522	 0.6693137019	-0.10136
H	 0.8327309279	 2.050048546	-0.0212197484	 0.122204
H	-0.650051348	 1.8652331066	-0.97335041	 0.123949
H	-0.7422029613	 1.9228318924	 0.7962417434	 0.107631
H	-1.0005852152	-0.4106100488	-0.0141884965	 0.069145
H	 2.1509735976	-1.8493841888	-1.5086548399	 0.076198
H	 3.7725735556	 0.1286890909	-0.4080238683	 0.084961
H	 3.6546770071	-1.7871214299	 1.7860708727	 0.093903
H	 2.5896405571	 0.9199448431	 1.8511056979	 0.086914
H	 0.2635898284	-0.5714666126	 2.1265325989	 0.06752
H	 1.0312193174	-2.7845515943	 0.7750167473	 0.069711
130.1756	214.4827	255.6313	411.2425	472.4073	498.1821	649.6147	662.047	774.4377	798.5031	814.109	817.8323	827.2164	849.9724	883.1471	901.6352	935.5979	953.7602	983.0859	988.5819	1019.5382	1034.0887	1043.4178	1063.9506	1076.0849	1103.5137	1138.3663	1154.8357	1173.362	1178.8123	1213.3635	1259.6248	1271.3344	1307.586	1338.3139	1359.6598	1368.5992	1383.4038	1402.999	1484.9423	1496.3495	2977.3531	3035.9663	3105.3339	3107.588	3111.0843	3119.1608	3149.4496	3196.1668	3204.1121	3240.821
CC1OC2C3C4C3C1C24	C[C@H]1O[C@H]2[C@@H]3[C@H]4[C@@H]3[C@@H]1[C@@H]24	
InChI=1S/C8H10O/c1-2-3-4-5-6(3)8(9-2)7(4)5/h2-8H,1H3	InChI=1S/C8H10O/c1-2-3-4-5-6(3)8(9-2)7(4)5/h2-8H,1H3/t2-,3-,4+,5+,6-,7+,8-/m1/s1
