17
gdb 33549	2.1065	1.67624	1.13695	1.9848	71.99	-0.2661	0.0122	0.2783	1090.681	0.136721	-417.959092	-417.950859	-417.949915	-417.992317	30.211	
N	 0.3385739885	-1.2928487198	-0.2763089404	-0.331631
C	 0.1604291644	-0.1580045049	-0.1471790997	 0.243453
C	-0.0616300208	 1.2734422355	 0.0111403394	 0.084405
C	-0.2508151268	 1.7727765303	 1.473252347	-0.137776
O	 0.7674097476	 2.7712731425	 1.3033130573	-0.263656
C	 1.2200017813	 2.1661188858	 0.0771765195	-0.104695
C	-1.0762820338	 1.7665594168	-1.0142104585	-0.044354
C	-2.5144374919	 1.9119301637	-0.6875617048	-0.244687
N	-1.6696139753	 3.0996298901	-0.9014022723	-0.326172
H	-1.2222484833	 2.2075482956	 1.7297323994	 0.11762
H	 0.0185237521	 1.0215233425	 2.2246644936	 0.130064
H	 2.1512852284	 1.603924132	 0.210418286	 0.125458
H	 1.3277334576	 2.8943055403	-0.7316785214	 0.134821
H	-0.8013614149	 1.4965824676	-2.0319149433	 0.115702
H	-3.2620736103	 1.7352495685	-1.4545941804	 0.134133
H	-2.8394972724	 1.6708053052	 0.3213031848	 0.119989
H	-1.4181780002	 3.5376456884	-0.0178562363	 0.247324
88.4684	108.1948	149.6689	195.0417	239.765	285.291	421.5022	456.1799	548.5243	553.1599	585.7583	793.0306	848.6932	877.3933	914.2655	947.0451	965.7523	977.6366	985.5878	1041.2512	1068.957	1097.5116	1144.9612	1160.6362	1161.8601	1170.0959	1236.4848	1246.3257	1253.9266	1307.2077	1307.7393	1365.1937	1415.2784	1505.17	1515.355	1531.1572	2355.1192	3028.7864	3038.1057	3083.0761	3099.7874	3113.9524	3128.368	3199.437	3496.9932
N#CC1(COC1)C1CN1	N#CC1(COC1)[C@H]1CN1	
InChI=1S/C6H8N2O/c7-2-6(3-9-4-6)5-1-8-5/h5,8H,1,3-4H2	InChI=1S/C6H8N2O/c7-2-6(3-9-4-6)5-1-8-5/h5,8H,1,3-4H2/t5-/m1/s1
