14
gdb 131453	3.39733	1.14498	0.86084	1.7225	68.15	-0.2585	-0.004	0.2545	1241.1654	0.100021	-436.645518	-436.637442	-436.636498	-436.678978	29.652	
O	 1.1806209104	 1.1183772575	-0.0729067638	-0.418497
C	 0.506214642	-0.0426944252	-0.0568664229	 0.387726
N	 0.5236923021	-0.8819840526	-1.0619740852	-0.255341
O	-0.2885346384	-1.9432630591	-0.6528493008	-0.179766
C	-0.7513233972	-1.6827594398	 0.5792921699	 0.025514
C	-0.2940933183	-0.4901138365	 1.0359063854	 0.063567
C	-0.5336297266	 0.2210329641	 2.3379096355	-0.476624
C	-1.4071465875	-0.5146668236	 3.2459945233	 0.294318
C	-2.1273428746	-1.130229248	 3.9844917278	-0.434201
H	 1.6394570607	 1.1833271039	-0.9212593025	 0.314938
H	-1.3965423184	-2.4284299218	 1.0163641955	 0.164872
H	 0.4279256357	 0.4156812637	 2.8319529507	 0.155668
H	-0.9621842428	 1.2130192743	 2.1407023133	 0.15567
H	-2.762961067	-1.6630332268	 4.6477078937	 0.202157
39.6242	109.688	226.1182	233.7697	326.105	332.9872	402.16	455.6807	529.1084	592.4472	622.7	649.8758	667.3428	725.9281	795.3838	856.2957	923.2912	952.2906	958.1596	968.4541	1156.1453	1188.455	1227.7634	1236.1246	1297.0147	1362.7906	1466.1209	1499.8109	1563.4391	1683.0084	2245.2868	3014.753	3035.4227	3273.3967	3505.5823	3781.4046
OC1=NOC=C1CC#C	Oc1nocc1CC#C	
InChI=1S/C6H5NO2/c1-2-3-5-4-9-7-6(5)8/h1,4H,3H2,(H,7,8)	InChI=1S/C6H5NO2/c1-2-3-5-4-9-7-6(5)8/h1,4H,3H2,(H,7,8)
