13
gdb 9451	2.92863	1.80565	1.70721	3.9262	59.69	-0.2751	-0.0183	0.2567	828.1418	0.095886	-394.771609	-394.764052	-394.763108	-394.803559	26.969	
N	 0.0776969981	 1.4939238809	 0.1091510662	-0.547818
C	 0.0256786214	 0.0484587678	 0.0067299848	 0.01667
C	-1.3988408926	-0.5634661876	-0.1494874209	-0.094474
O	-1.0124391903	-1.1700075602	-1.4177313662	-0.247948
C	 0.2501726523	-0.6258317583	-1.3667454136	 0.402416
N	 1.1998028184	-0.624879653	-2.1771767787	-0.529265
C	 0.8172178545	-0.5593493548	 1.0763408238	 0.281659
N	 1.4394751541	-1.0507026155	 1.916072831	-0.320105
H	 1.0450896396	 1.8020382852	 0.148398323	 0.261472
H	-0.3272661647	 1.9083391711	-0.7259703489	 0.247459
H	-1.6930925149	-1.3153584102	 0.583142779	 0.151022
H	-2.1817104123	 0.1862269455	-0.2845590446	 0.136461
H	 0.9850296165	-1.1400882708	-3.0321696849	 0.242451
101.2798	137.6899	187.612	235.6664	246.4357	343.7664	425.4418	543.7117	576.0003	642.0555	703.8491	772.1527	844.3038	864.7221	937.1447	982.8896	1000.5895	1016.0583	1068.4216	1150.0917	1214.7401	1236.798	1335.4513	1370.4839	1510.2201	1662.0956	1831.1574	2367.133	3076.4299	3149.673	3485.3228	3494.2109	3575.6564
NC1(COC1=N)C#N	N[C@]1(CO[C]1[NH])C#N	
InChI=1S/C4H5N3O/c5-1-4(7)2-8-3(4)6/h6H,2,7H2	InChI=1S/C4H5N3O/c5-1-4(7)2-8-3(4)6/h6H,2,7H2/t4-/m0/s1
