17
gdb 14642	7.87342	0.61002	0.57418	4.1274	78.51	-0.2543	0.0263	0.2806	1861.9672	0.14043	-326.727184	-326.717487	-326.716543	-326.763714	32.056	
C	 0.0181155424	 1.5033572971	 0.0099500057	-0.497638
C	 0.020465582	 0.0473711995	 0.001878747	 0.129042
C	 0.0335778054	-1.1564471322	-0.0046290013	 0.009032
C	 0.0140680881	-2.6143231489	-0.0122050116	-0.360581
C	-1.4156638701	-3.1888050702	-0.0015340241	-0.169226
C	-1.4036786512	-4.7298085193	-0.0098696384	-0.341225
C	-2.7483980667	-5.3007390671	-0.0001396449	 0.254388
N	-3.8188844518	-5.7358190747	 0.0079845397	-0.301952
H	 1.0386686357	 1.9018122472	 0.0023302165	 0.14959
H	-0.5006845665	 1.9061075873	-0.8668865021	 0.149337
H	-0.4836765264	 1.8963042812	 0.9010207508	 0.149343
H	 0.5489168782	-2.9883633796	-0.8962480606	 0.128887
H	 0.5657711855	-2.9977017827	 0.8573635471	 0.128886
H	-1.9491886611	-2.8308300952	 0.8837624416	 0.133275
H	-1.9660395039	-2.8214888504	-0.8725742103	 0.133274
H	-0.8757821891	-5.1018904418	-0.8961852316	 0.15278
H	-0.8589318104	-5.1112615202	 0.8621694468	 0.152789
25.2544	64.505	78.4647	85.3188	164.0867	219.8295	292.776	304.4861	385.3681	398.5557	464.1617	569.3905	738.4629	765.3951	841.0752	946.0887	1030.7351	1033.705	1053.7734	1053.9069	1082.9517	1171.4064	1177.8067	1261.3529	1294.4776	1321.11	1349.8032	1386.9806	1415.4912	1467.8409	1475.6782	1478.254	1479.201	1500.4533	2363.2065	2376.0926	3004.9182	3027.8446	3032.1915	3035.5055	3064.322	3070.1626	3088.8483	3088.9582	3111.6023
CC#CCCCC#N	CC#CCCCC#N	
InChI=1S/C7H9N/c1-2-3-4-5-6-7-8/h4-6H2,1H3	InChI=1S/C7H9N/c1-2-3-4-5-6-7-8/h4-6H2,1H3
