21
gdb 119339	3.89338	0.95913	0.91599	1.8936	82.29	-0.2248	0.084	0.3087	1399.993	0.182547	-387.028257	-387.019753	-387.018809	-387.061983	32.562	
C	 0.0842519157	 1.6411282792	-0.0224667039	-0.381291
C	 0.1344194965	 0.1120581025	-0.0626650299	-0.156187
C	 0.6027852698	-0.5056281749	 1.2641162492	-0.360134
C	 0.6555251661	-1.9995330847	 1.245432347	 0.331517
C	 1.3216658776	-3.0458170994	 2.1428453495	-0.186142
C	 0.0103248924	-3.8077418307	 2.323343237	-0.231724
C	-0.3975835952	-3.1584859439	 0.977032906	 0.02066
O	 0.4948930444	-3.7769961523	 0.0084968568	-0.294512
C	 1.5413057262	-3.0218676719	 0.6164173644	 0.041062
H	 1.0719433814	 2.0651050719	 0.1912437629	 0.113464
H	-0.254765224	 2.0536422157	-0.9776647007	 0.113292
H	-0.6013469434	 1.9959098101	 0.7553413816	 0.113461
H	-0.8584785247	-0.2829794704	-0.3119445996	 0.099898
H	 0.8028900336	-0.219216105	-0.8664826214	 0.10453
H	 1.6031561661	-0.1250401845	 1.5133742045	 0.100616
H	-0.0554305075	-0.1667590384	 2.0771744499	 0.09839
H	 2.1296467069	-2.8991664616	 2.8491293098	 0.087195
H	 0.0225078202	-4.9020844619	 2.3492089469	 0.098869
H	-0.5718569487	-3.4088235238	 3.1582490244	 0.100746
H	-1.4275488259	-3.085383285	 0.6327439538	 0.083423
H	 2.5042951024	-2.9614911009	 0.1257222617	 0.102868
77.4108	83.521	105.4899	245.2391	260.591	299.351	341.9051	474.4385	547.289	651.3684	732.5657	760.1767	778.0515	817.073	853.987	882.9891	910.9793	915.5873	936.6858	950.8806	974.5695	1017.4276	1026.6016	1044.078	1050.2202	1087.36	1122.0742	1132.6602	1158.193	1180.1875	1220.3711	1226.2856	1262.2251	1279.1439	1311.3233	1317.6547	1330.2241	1389.4761	1413.527	1459.2468	1474.1626	1489.7588	1491.414	1500.3734	1509.2001	2999.0738	3025.6402	3028.789	3031.0242	3046.6126	3061.8068	3095.9668	3103.2091	3108.9717	3138.7165	3191.0497	3204.7347
CCCC12C3CC1OC23	CCC[C@@]12[C@H]3C[C@@H]1O[C@@H]23	
InChI=1S/C8H12O/c1-2-3-8-5-4-6(8)9-7(5)8/h5-7H,2-4H2,1H3	InChI=1S/C8H12O/c1-2-3-8-5-4-6(8)9-7(5)8/h5-7H,2-4H2,1H3/t5-,6-,7+,8+/m0/s1
