19
gdb 82212	2.51877	1.84748	1.35746	3.1902	73.49	-0.2574	0.0602	0.3176	1006.6849	0.15838	-423.000299	-422.99217	-422.991226	-423.032499	31.824	
C	 0.0667812541	 1.5261832588	 0.0006523549	-0.397483
C	 0.0023504421	-0.0050995641	-0.014386015	-0.089242
C	 0.7042361885	-0.633561493	-1.2215636483	 0.021787
O	 2.0991606594	-0.3416542323	-1.3377005283	-0.234702
C	 1.7216796628	-1.5957142984	-0.7671689819	 0.008887
C	 1.7048774056	-1.6019136128	 0.7514817669	-0.063762
O	 2.0621870615	-0.3487423585	 1.3398061401	-0.275484
C	 0.6659527498	-0.6602340466	 1.2141523511	 0.392135
C	-0.0974740615	-0.7788288036	 2.5056662464	-0.48298
H	 1.1102351782	 1.8480899884	 0.016021592	 0.153058
H	-0.4149731879	 1.9487556573	-0.8865201499	 0.113318
H	-0.4375834916	 1.9359873493	 0.8814394384	 0.11306
H	-1.0462851817	-0.3313381838	-0.039259485	 0.074733
H	 0.1732677013	-0.7228811219	-2.1675565795	 0.094622
H	 2.0157253476	-2.484126486	-1.3188591984	 0.096486
H	 2.002895179	-2.4920076832	 1.2999065825	 0.092025
H	-0.3637296256	 0.2111413233	 2.8926832547	 0.131041
H	-1.0245153145	-1.3442614766	 2.3639302893	 0.120927
H	 0.510777233	-1.2825480563	 3.2610149	 0.131573
132.2858	190.9303	208.901	227.4754	236.7025	281.0946	373.3675	433.6191	546.2285	564.9357	661.3004	705.1281	716.7158	820.5343	846.1154	852.0764	892.0316	936.4396	941.5945	1000.1056	1019.2754	1037.1126	1055.1091	1091.7156	1094.9795	1121.5944	1149.1597	1223.1349	1249.8922	1279.4894	1321.5976	1324.084	1343.5291	1398.9846	1406.3544	1425.7964	1449.066	1483.3195	1494.6542	1496.2885	1503.6385	3020.2933	3033.9014	3041.7172	3095.3748	3103.8036	3123.2689	3126.8572	3136.2837	3142.706	3160.3896
CC1C2OC2C2OC12C	C[C@H]1[C@H]2O[C@H]2[C@H]2O[C@@]12C	
InChI=1S/C7H10O2/c1-3-4-5(8-4)6-7(3,2)9-6/h3-6H,1-2H3	InChI=1S/C7H10O2/c1-3-4-5(8-4)6-7(3,2)9-6/h3-6H,1-2H3/t3-,4+,5+,6+,7-/m0/s1
