20
gdb 23207	2.40929	1.31927	0.95958	1.0138	84.5	-0.2279	0.0077	0.2355	1279.2583	0.169278	-403.089371	-403.080077	-403.079133	-403.123589	35.179	
C	-0.6185438981	 1.3309886409	 0.0479132839	-0.40246
C	 0.0588401416	-0.0276812483	-0.0623576954	-0.068919
C	 1.4074556772	-0.0705652597	-0.8660726893	-0.348784
C	 2.0791153836	-0.6250804165	 0.3755369984	 0.36634
N	 3.2339196321	-1.0405229948	 0.6922140598	-0.262889
O	 4.1213275413	-0.9438023378	-0.4001033839	-0.395094
C	 0.8299945341	-0.5448412274	 1.1795332639	 0.277135
C	 0.7188843122	-0.0908064166	 2.6163846349	-0.31488
C	 0.3787298107	-1.5068430375	 2.2487199753	-0.316263
H	 0.0792519749	 2.0903666371	 0.4171442984	 0.118627
H	-0.9913355143	 1.6609325823	-0.9278163385	 0.116768
H	-1.472375888	 1.3000209917	 0.7339696852	 0.114161
H	-0.6526421384	-0.7722931002	-0.433624631	 0.076359
H	 1.4330566423	-0.7309787484	-1.7368212742	 0.125407
H	 1.7857015033	 0.9111428653	-1.1691925981	 0.123254
H	 4.9379715046	-1.2912558765	-0.0265289897	 0.30417
H	 1.6478829015	 0.0972942151	 3.1435140077	 0.128641
H	-0.0935829003	 0.5834045165	 2.8675486191	 0.11569
H	-0.6670399282	-1.7984658679	 2.2472244272	 0.113827
H	 1.0723878581	-2.2934537773	 2.5253987262	 0.128909
46.9016	145.8657	158.1134	203.1695	218.0436	253.4884	322.4923	358.1046	388.1079	456.0211	507.2326	539.6537	586.4567	732.0295	779.062	807.0141	854.9992	880.2656	908.9573	936.4008	966.7413	983.7074	1049.8164	1061.4136	1072.4203	1078.2792	1109.16	1126.9557	1182.5777	1197.4329	1212.3298	1258.6099	1265.5955	1350.4287	1362.2075	1409.8435	1420.8867	1458.2832	1459.8124	1489.5168	1497.1508	1498.5358	1776.4331	3026.2717	3048.2265	3053.7751	3091.6952	3098.9397	3105.4167	3125.3713	3129.6124	3209.6053	3224.7807	3820.3949
CC1CC(=NO)C11CC1	C[C@H]1CC(=NO)C21CC2	
InChI=1S/C7H11NO/c1-5-4-6(8-9)7(5)2-3-7/h5,9H,2-4H2,1H3	InChI=1S/C7H11NO/c1-5-4-6(8-9)7(5)2-3-7/h5,9H,2-4H2,1H3/t5-/m0/s1
