19
gdb 98697	2.66578	1.09311	0.91526	2.7008	83.05	-0.2413	-0.0155	0.2259	1363.2477	0.156257	-385.870063	-385.860192	-385.859248	-385.905647	35.722	
C	-0.013789382	 1.5588931037	-0.1895019118	-0.378684
C	-0.1708261535	 0.0430800641	-0.2639514116	-0.288537
C	-1.5424927312	-0.4496335175	 0.1719816146	 0.38914
O	-2.4101952659	 0.3031878213	 0.5573403774	-0.317253
C	-1.7634392846	-1.9293585628	 0.0822239826	-0.123159
C	-2.9493063849	-2.5255758748	 0.7910408286	-0.293892
C	-2.9830218232	-2.4525578195	-0.7123213578	-0.18848
C	-3.8698162025	-1.5677866767	-1.4071534622	 0.359535
C	-4.6210291743	-0.861183352	-2.0249129787	-0.467173
H	 0.9877308402	 1.8608481434	-0.5083908841	 0.108154
H	-0.7470773482	 2.0571107821	-0.8285504958	 0.134288
H	-0.1767840152	 1.9173559146	 0.8300142856	 0.131614
H	 0.0066140412	-0.3293786959	-1.282922864	 0.125399
H	 0.5793868651	-0.4667615481	 0.3576742314	 0.120236
H	-0.8699765007	-2.5352778216	-0.0255642056	 0.094286
H	-2.8379577966	-3.5007497985	 1.2502800356	 0.121656
H	-3.568958415	-1.8117628077	 1.320949208	 0.153788
H	-2.7838532685	-3.3842190526	-1.2347053517	 0.120695
H	-5.2864719498	-0.2230161616	-2.5511668204	 0.198388
41.2323	68.4741	110.3823	164.5446	191.6844	219.8766	258.9297	305.8246	376.3007	495.3451	522.817	589.9574	604.5844	653.54	657.0318	761.1483	773.1022	821.2612	841.0613	894.9468	963.4046	1006.0205	1043.5329	1065.0736	1094.5152	1100.971	1126.4266	1130.0373	1150.3569	1217.6018	1276.6528	1354.2343	1381.5959	1410.629	1413.4272	1450.5885	1468.101	1491.5933	1497.6432	1794.9897	2241.2091	3011.2337	3038.0124	3051.5717	3122.6609	3128.3388	3143.3319	3144.6854	3167.8819	3244.359	3506.1485
CCC(=O)C1CC1C#C	CCC(=O)[C@H]1C[C@H]1C#C	
InChI=1S/C8H10O/c1-3-6-5-7(6)8(9)4-2/h1,6-7H,4-5H2,2H3	InChI=1S/C8H10O/c1-3-6-5-7(6)8(9)4-2/h1,6-7H,4-5H2,2H3/t6-,7+/m1/s1
