17
gdb 11518	4.76414	1.03689	0.93892	2.8407	70.73	-0.2438	0.0273	0.2711	1236.6451	0.140716	-363.789517	-363.780802	-363.779858	-363.823135	31.675	
O	-0.3363635215	 1.2998881037	 0.0532771301	-0.416624
C	 0.0296556754	-0.0735246852	-0.0534163732	-0.04959
C	 0.8756984152	-0.3376187309	-1.319124428	-0.233792
C	 0.1416433404	 0.037552556	-2.5851355166	 0.036921
C	 0.4699450697	-0.6229835055	-3.8703399626	-0.254678
N	-0.8149109583	-0.9015973106	-3.2010185894	-0.317295
C	 0.7184382299	-0.5451601159	 1.1508709567	 0.290546
C	 1.3248030761	-0.8997863092	 2.1266519074	-0.435435
H	 0.4425024653	 1.7843149816	 0.3497040065	 0.285532
H	-0.9241222488	-0.6059304201	-0.154258609	 0.126098
H	 1.8076144654	 0.23706641	-1.2329735744	 0.10468
H	 1.1604434933	-1.3969146404	-1.3460920135	 0.102921
H	-0.204267226	 1.0675630241	-2.6085380753	 0.107158
H	 0.3902858535	-0.0743226125	-4.8045251426	 0.119876
H	 1.2378345682	-1.3932147152	-3.8647691491	 0.108231
H	-0.7604973048	-1.8040891201	-2.7326194279	 0.224196
H	 1.8394588569	-1.2214655398	 2.9984187908	 0.201256
72.2182	89.9692	121.4741	200.0556	236.8297	302.0857	336.4663	401.4012	471.9239	540.2127	571.9131	635.5123	674.5222	794.098	819.8252	861.015	930.4234	949.1019	974.6239	1023.7235	1056.7295	1085.3689	1128.897	1148.5442	1174.0809	1246.0341	1255.6138	1282.6848	1297.3631	1313.4667	1361.3494	1417.8441	1428.0729	1467.3105	1514.1112	2232.1421	3016.2713	3039.6698	3063.9029	3105.1813	3148.5912	3189.8721	3480.7841	3502.4176	3803.2843
OC(CC1CN1)C#C	O[C@@H](C[C@H]1CN1)C#C	
InChI=1S/C6H9NO/c1-2-6(8)3-5-4-7-5/h1,5-8H,3-4H2	InChI=1S/C6H9NO/c1-2-6(8)3-5-4-7-5/h1,5-8H,3-4H2/t5-,6+/m0/s1
