15
gdb 25034	4.08536	1.12993	0.94538	3.9567	69.74	-0.2138	0.0111	0.2249	1191.4625	0.114403	-453.970415	-453.962856	-453.961912	-454.002976	28.145	
O	 0.1125258734	 0.0426375605	 0.2877240552	-0.394507
C	-0.0068065982	 1.2284379733	 0.1580210875	 0.481031
N	-1.1070241474	 1.9857144719	-0.1665134619	-0.364413
C	-0.7703015536	 3.3406689339	-0.2108409927	-0.225151
C	 0.532925247	 3.4209930703	 0.0972532969	 0.382732
O	 1.0235464101	 2.1452608749	 0.3234660649	-0.257331
C	 1.4668699669	 4.5409313694	 0.2114399359	-0.105451
C	 2.6216068098	 4.4726023936	 1.1516056478	-0.24063
N	 2.849156172	 4.4156505923	-0.2984320619	-0.32251
H	-2.0051984917	 1.5746898368	-0.3476842919	 0.280211
H	-1.4812681523	 4.1109305238	-0.4531668693	 0.155649
H	 1.0072295077	 5.5053048505	 0.0129552078	 0.101537
H	 2.9646941408	 5.382149067	 1.6362021741	 0.125511
H	 2.7383127243	 3.5632549295	 1.7331265654	 0.13547
H	 3.0130196713	 3.4493788325	-0.5744137677	 0.24785
81.6914	134.9325	155.0967	224.3957	376.0997	405.2969	465.4789	519.0165	632.2265	665.0515	732.9904	765.0647	767.4719	817.5629	877.9447	937.3862	959.505	969.864	1003.1894	1080.7214	1103.1021	1129.9678	1140.098	1177.1824	1254.3084	1285.1946	1299.1024	1345.2705	1404.945	1417.7815	1504.8694	1715.4736	1903.8638	3116.9058	3149.1971	3209.0477	3291.9775	3497.6052	3700.4326
O=C1NC=C(O1)C1CN1	O=c1[nH]cc(o1)[C@H]1CN1	
InChI=1S/C5H6N2O2/c8-5-7-2-4(9-5)3-1-6-3/h2-3,6H,1H2,(H,7,8)	InChI=1S/C5H6N2O2/c8-5-7-2-4(9-5)3-1-6-3/h2-3,6H,1H2,(H,7,8)/t3-/m1/s1
