17
gdb 80684	2.93833	1.57025	1.28401	3.309	67.69	-0.2251	0.061	0.286	1005.1332	0.135757	-458.881433	-458.873933	-458.872989	-458.913492	29.24	
O	 0.1729720803	 1.4610368899	 0.3950619971	-0.434019
C	 0.0057932548	 0.0976812226	 0.2794817109	 0.130189
C	-0.6288748271	-0.8075103447	 1.278326528	 0.028768
O	-1.7659194537	-0.1842654202	 1.9002182554	-0.301399
C	-2.4825629019	-0.1877293174	 0.6448382745	 0.081708
C	-3.1847122692	 1.1085800794	 0.3341841372	 0.051695
C	-3.4914881443	 2.0699166444	 1.401785906	-0.175774
O	-2.442461651	 2.3269716614	 0.454487718	-0.234224
C	-1.2450320697	-0.6640790345	-0.1261096798	-0.238635
H	-0.678408081	 1.8701389407	 0.6218800667	 0.303735
H	 0.886870342	-0.3543929376	-0.1730433512	 0.10979
H	-0.181364973	-1.6442339818	 1.8041011172	 0.103504
H	-3.2476464081	-0.9789360463	 0.6619896806	 0.092084
H	-3.8327698326	 1.0722583855	-0.5420328772	 0.108412
H	-4.3549201819	 2.7251271205	 1.3122155869	 0.125856
H	-3.1489256266	 1.850830558	 2.4089247192	 0.14897
H	-1.279906047	-1.3551598099	-0.9585184597	 0.099341
87.5867	179.8422	214.1523	249.8719	276.0785	426.483	503.9274	535.4935	637.7911	657.5812	723.1231	783.0276	796.989	827.3484	896.4479	916.6637	935.5468	966.1692	1020.7421	1023.4692	1059.4356	1072.2963	1078.0402	1103.1169	1138.3701	1165.8359	1178.4453	1208.5717	1255.0195	1275.5901	1285.3546	1331.3318	1382.4568	1409.7633	1430.3076	1479.5516	1515.2711	2988.7404	3107.3285	3115.5887	3133.8756	3167.2849	3192.8133	3210.4108	3647.3156
OC1C2OC(C3CO3)C12	O[C@H]1[C@H]2O[C@@H]([C@H]3CO3)[C@@H]12	
InChI=1S/C6H8O3/c7-4-3-5(2-1-8-2)9-6(3)4/h2-7H,1H2	InChI=1S/C6H8O3/c7-4-3-5(2-1-8-2)9-6(3)4/h2-7H,1H2/t2-,3-,4-,5+,6+/m1/s1
