12
gdb 133147	2.3901	1.87217	1.0567	4.2306	61.59	-0.2881	-0.1051	0.183	1016.3842	0.074404	-513.885055	-513.877256	-513.876311	-513.91781	27.591	
C	-0.0135886537	 1.5158583329	-0.0337132235	-0.473938
C	-0.0314961619	 0.0230044515	-0.0900739154	 0.213395
C	-1.0977951478	-0.7528584453	 0.1847503892	 0.069026
F	-2.2598404399	-0.2431027457	 0.5403769636	-0.025811
C	-1.0352546795	-2.2127490939	 0.1068447453	 0.417085
O	-1.9332679092	-2.9716122889	 0.3345615668	-0.320082
O	 0.2031836944	-2.6789858965	-0.2693341523	-0.267195
N	 1.325718474	-1.8092310011	-0.5561505542	 0.057044
N	 1.1669906457	-0.5930731802	-0.4600741038	-0.151177
H	 0.7433732049	 1.8563416379	 0.6798264391	 0.163413
H	 0.2555042317	 1.9261199123	-1.0121994483	 0.16341
H	-0.9871943787	 1.9059738471	 0.2628509535	 0.154828
102.7141	108.0498	154.0011	275.6732	296.001	296.7598	443.9374	498.8497	514.4295	534.6354	632.0329	644.8195	774.1645	781.7423	887.6325	958.6584	1054.1997	1062.3417	1166.2019	1251.7208	1371.4549	1423.8782	1476.6572	1478.2346	1598.2868	1702.4444	1852.3188	3049.8882	3107.96	3159.7475
CC1=C(F)C(=O)ON=N1	Cc1c(F)c(=O)onn1	
InChI=1S/C4H3FN2O2/c1-2-3(5)4(8)9-7-6-2/h1H3	InChI=1S/C4H3FN2O2/c1-2-3(5)4(8)9-7-6-2/h1H3
