18
gdb 67483	2.40197	1.64941	1.2311	4.5585	80.38	-0.2296	0.0233	0.2529	1067.0238	0.147559	-364.756349	-364.748354	-364.74741	-364.788533	31.402	
C	 0.0115529068	 1.4882537838	-0.0054922496	-0.494393
C	-0.0271949771	-0.0121237606	 0.0142219989	 0.31288
C	-1.383897801	-0.7750054637	 0.0982157765	-0.109935
C	-1.336781228	-2.2485951688	-0.1985924764	-0.326568
C	-0.7746760278	-1.7457924426	 1.1003593812	-0.050042
C	 0.5806575007	-1.0015170227	 0.9916739102	-0.129804
C	 1.1720391616	-0.8493632115	-0.4026734378	-0.224086
C	 1.3005912923	-1.8224786593	-1.4576558762	 0.285372
N	 1.4739217448	-2.5691322344	-2.3251929492	-0.358202
H	 1.0204556535	 1.8655013865	 0.1884727627	 0.122814
H	-0.3133926157	 1.8788255243	-0.9771163965	 0.133744
H	-0.6554922057	 1.9026233728	 0.7589694428	 0.127624
H	-2.3158503004	-0.2297760798	 0.1742682729	 0.09556
H	-2.3024978838	-2.7343505318	-0.0871896393	 0.118206
H	-0.7288053685	-2.6788154198	-0.9816771894	 0.161113
H	-1.1687852477	-2.0508560664	 2.0604285873	 0.098625
H	 1.2085555063	-0.8037613628	 1.852077579	 0.101257
H	 2.0771703499	-0.245013873	-0.3540596972	 0.135836
121.8945	170.621	203.862	214.0767	294.4493	360.8202	383.1217	446.8532	537.5114	609.5293	649.1241	708.449	752.1792	764.6608	843.0999	880.0837	913.1297	927.0877	950.394	975.0746	992.2042	1029.5261	1055.8284	1060.1545	1090.2172	1107.2152	1131.6713	1181.3221	1219.6438	1255.0391	1291.1906	1323.2975	1344.5366	1416.8716	1455.635	1482.2084	1496.8747	1500.4117	2341.0303	3023.87	3084.4856	3101.891	3120.7206	3139.1307	3182.4714	3191.5255	3204.511	3241.2438
CC12C3CC3C1C2C#N	C[C@]12[C@H]3C[C@H]3[C@H]1[C@H]2C#N	
InChI=1S/C8H9N/c1-8-5-2-4(5)7(8)6(8)3-9/h4-7H,2H2,1H3	InChI=1S/C8H9N/c1-8-5-2-4(5)7(8)6(8)3-9/h4-7H,2H2,1H3/t4-,5+,6-,7+,8-/m1/s1
