16
gdb 128688	3.26988	1.25707	0.91764	0.9299	67.85	-0.2077	0.0552	0.2629	1218.0403	0.125358	-471.206758	-471.197766	-471.196821	-471.240289	32.569	
C	-0.0594239171	 1.3751968179	 0.0960143709	-0.233963
O	-0.021477677	-0.0477449158	 0.0406161745	-0.272594
C	-1.2187779809	-0.6594832391	 0.0112019654	 0.41907
N	-2.3698710263	-0.0079812406	 0.0312564134	-0.346142
N	-3.3121646807	-1.0111203869	-0.0123281154	-0.310387
C	-2.7481160071	-2.2310688782	-0.0572491994	 0.484288
O	-3.4763272481	-3.3570193995	-0.1045894526	-0.430542
C	-1.37736068	-2.0709236886	-0.0445700434	-0.127194
N	-0.4732813447	-3.1667677731	-0.0831544458	-0.6418
H	 0.9808958762	 1.703713705	 0.1137816073	 0.122606
H	-0.5722628529	 1.7880109511	-0.7789871003	 0.132254
H	-0.5806907129	 1.7186945852	 0.995643654	 0.132259
H	-4.2888348695	-0.7795162644	-0.0075225204	 0.274533
H	-2.8263952957	-4.0763599904	-0.1298311348	 0.309341
H	 0.1307023001	-3.1831914376	 0.7334747828	 0.244132
H	 0.1388134066	-3.1192308549	-0.892488966	 0.244139
92.1542	160.4075	192.5941	194.6331	234.0045	249.1599	276.6854	296.6676	365.335	459.052	521.5218	552.9583	656.1063	684.3164	741.8891	774.0407	784.5008	873.0868	1016.6032	1117.876	1139.4117	1181.6312	1199.6257	1221.5799	1231.7494	1289.0243	1390.6118	1442.4858	1455.2709	1477.0098	1503.7952	1562.2762	1618.102	1647.5062	1692.6198	3031.4072	3096.9558	3140.57	3487.1154	3545.9453	3700.0657	3727.2355
COC1=NNC(O)=C1N	COc1n[nH]c(O)c1N	
InChI=1S/C4H7N3O2/c1-9-4-2(5)3(8)6-7-4/h5H2,1H3,(H2,6,7,8)	InChI=1S/C4H7N3O2/c1-9-4-2(5)3(8)6-7-4/h5H2,1H3,(H2,6,7,8)
