19
gdb 31652	3.45544	1.13936	0.87089	2.8847	80.86	-0.1844	0.0337	0.218	1349.4839	0.158644	-419.245643	-419.235756	-419.234812	-419.282114	34.199	
C	 0.0182913937	 1.405839208	-0.0266848406	-0.229566
O	-0.0354147078	-0.0148999942	-0.0322258324	-0.277991
C	 0.5761420498	-0.6209504036	-1.0709254357	 0.369165
C	 0.6436496208	-1.9760236322	-1.2727294328	-0.266506
N	 1.3616582918	-2.1192251029	-2.4528033807	-0.024087
C	 1.6880094842	-3.3852761933	-3.0738073072	-0.342051
C	 1.6807058341	-0.8688512322	-2.888947956	 0.340093
C	 2.4551664583	-0.5801299568	-4.1327549372	-0.500167
N	 1.2145310976	 0.0594983661	-2.0659054179	-0.402875
H	 1.0517100912	 1.7665050037	 0.0101368641	 0.126008
H	-0.4607581528	 1.8272791049	-0.916798281	 0.125959
H	-0.5187420881	 1.7202472047	 0.8701951139	 0.119019
H	 0.2690758861	-2.8181178038	-0.7181123537	 0.120542
H	 0.7788880576	-3.9357813903	-3.337681567	 0.141992
H	 2.2617258785	-3.2086126167	-3.9838269432	 0.144991
H	 2.2880034926	-4.0058748024	-2.4000803582	 0.142073
H	 1.954602702	-0.9521703601	-5.0345211392	 0.129633
H	 2.5547107225	 0.5022440312	-4.2222333936	 0.15411
H	 3.4617287279	-1.0143238501	-4.1104840215	 0.129658
16.5843	63.8834	135.8136	151.9669	181.9683	200.2541	224.5669	287.5891	360.0634	379.5423	534.57	628.1079	634.259	656.2212	663.7635	727.4764	807.011	1000.3045	1021.0053	1059.025	1070.8254	1087.7645	1150.7248	1180.4228	1201.0434	1211.8227	1218.2523	1352.3803	1399.5585	1408.2053	1448.9661	1470.2554	1472.6565	1477.9412	1478.9781	1492.7098	1503.6109	1504.1947	1534.0424	1548.5163	1628.7269	3025.2635	3028.1425	3036.3904	3072.3191	3090.6724	3091.995	3133.8486	3146.2128	3151.234	3285.1157
COC1=CN(C)C(C)=N1	COc1cn(C)c(C)n1	
InChI=1S/C6H10N2O/c1-5-7-6(9-3)4-8(5)2/h4H,1-3H3	InChI=1S/C6H10N2O/c1-5-7-6(9-3)4-8(5)2/h4H,1-3H3
