23
gdb 118648	1.78164	0.98378	0.66675	0.745	89.7	-0.2601	0.041	0.3012	1777.0172	0.201978	-388.259213	-388.247752	-388.246808	-388.296756	40.531	
C	-0.049354282	 1.6327910339	-0.0309290618	-0.386449
C	 0.0123607972	 0.10378262	 0.0108183717	-0.169847
C	 0.6845199764	-0.4923783758	-1.2293944991	-0.179947
C	 0.7266024389	-2.0276077907	-1.2101911091	-0.074301
O	-0.6142173094	-2.4908356502	-1.2034505383	-0.243484
C	-0.7579452076	-3.8779543679	-0.9443176103	-0.037524
C	-2.2405076337	-4.2084792432	-0.939280682	-0.384775
C	 1.4871902038	-2.5586925995	-2.351506198	 0.336379
C	 2.1070324106	-2.9813856621	-3.2910616727	-0.461241
H	 0.9529268992	 2.071475656	-0.094632778	 0.11223
H	-0.6173971536	 1.9820175764	-0.9003317625	 0.116238
H	-0.5321779953	 2.0354226095	 0.8649164005	 0.111678
H	 0.5591218139	-0.2171858135	 0.9078848239	 0.089626
H	-0.9963931934	-0.3112445311	 0.0991012082	 0.116148
H	 0.1534384521	-0.1819759237	-2.1367312602	 0.113334
H	 1.7128991118	-0.1244350798	-1.3208549798	 0.104493
H	 1.2283527603	-2.3568383918	-0.2823831124	 0.08758
H	-0.2310119873	-4.4634607258	-1.7118629074	 0.101998
H	-0.3004775219	-4.1258416393	 0.0283633445	 0.083949
H	-2.7629723715	-3.6312264116	-0.1709726811	 0.12413
H	-2.6886698615	-3.9729058209	-1.9086499646	 0.128643
H	-2.3910134723	-5.2730941173	-0.7366106389	 0.114882
H	 2.656167405	-3.3575837417	-4.1186720924	 0.196259
64.2956	68.8162	87.9921	93.3353	119.6665	180.3912	224.7287	248.7592	256.4828	281.6421	324.0125	399.2482	444.4802	562.1478	602.9364	624.4026	670.0022	744.9929	822.482	829.1145	902.7178	913.4703	937.3124	1002.3089	1043.7309	1069.2471	1107.6022	1124.8417	1145.6851	1182.1604	1189.8392	1259.6907	1286.4667	1298.5304	1326.2243	1348.5372	1356.319	1395.2721	1401.4721	1412.1618	1434.6946	1474.6048	1483.5142	1493.7892	1500.0723	1500.4673	1510.3323	1529.1336	2228.5513	2938.8297	2964.1408	3014.278	3017.9731	3028.2091	3039.542	3044.4481	3070.577	3084.2023	3101.3041	3103.248	3118.4609	3121.5019	3502.7816
CCCC(OCC)C#C	CCC[C@@H](OCC)C#C	
InChI=1S/C8H14O/c1-4-7-8(5-2)9-6-3/h2,8H,4,6-7H2,1,3H3	InChI=1S/C8H14O/c1-4-7-8(5-2)9-6-3/h2,8H,4,6-7H2,1,3H3/t8-/m0/s1
