19
gdb 112871	3.33661	1.12022	0.89556	4.6905	71.81	-0.2635	0.0028	0.2664	1307.9378	0.159802	-460.219616	-460.210903	-460.209959	-460.253235	32.589	
C	-0.105079187	 1.5116274569	 0.1560725214	-0.400664
C	 0.0507586847	 0.0147186447	-0.0293315231	 0.129478
C	 0.9305242942	-0.4285184362	-1.2109872064	-0.268458
C	 1.5453245638	-1.7372976779	-0.7062294254	-0.170911
C	 2.9483773057	-2.0964301695	-1.2188783018	-0.069792
O	 3.406400495	-3.3142106009	-0.6844409221	-0.423947
C	 1.549593793	-1.5332024797	 0.8055957596	 0.452256
O	 2.204668215	-2.1311013385	 1.6211150258	-0.364033
O	 0.7059169602	-0.5367316867	 1.1451028776	-0.226035
H	 0.8734425584	 1.9895293589	 0.2613664093	 0.131179
H	-0.61150394	 1.9430579517	-0.7131309278	 0.126202
H	-0.6983073333	 1.7346046705	 1.0464839744	 0.138241
H	-0.9362966276	-0.4613078061	-0.0925580642	 0.096849
H	 0.3560849413	-0.5368722426	-2.1330072822	 0.119502
H	 1.7163260262	 0.316467676	-1.3866537666	 0.114211
H	 0.8830942343	-2.5888232787	-0.9109558764	 0.119657
H	 2.9232681548	-2.210007426	-2.3080824048	 0.108676
H	 3.6337084084	-1.2610508593	-0.993520352	 0.087976
H	 3.328655133	-3.2318148568	 0.2778132648	 0.299614
70.6244	127.6316	161.7272	208.299	236.771	299.8117	326.6248	382.7269	469.2723	517.2027	581.5497	612.0894	646.4509	714.0756	778.0668	871.8553	916.8686	956.4399	986.4569	1023.0965	1080.9379	1089.7869	1106.6099	1140.334	1149.0276	1202.6193	1217.6575	1221.9387	1270.3951	1322.6601	1349.4638	1374.6498	1387.6931	1395.2299	1415.9019	1465.2206	1483.8908	1491.43	1498.3344	1512.4954	1839.9925	2955.9932	3022.5466	3031.7398	3041.4221	3044.8085	3066.0878	3113.2896	3118.6288	3127.2666	3719.1771
CC1CC(CO)C(=O)O1	C[C@H]1C[C@@H](CO)C(=O)O1	
InChI=1S/C6H10O3/c1-4-2-5(3-7)6(8)9-4/h4-5,7H,2-3H2,1H3	InChI=1S/C6H10O3/c1-4-2-5(3-7)6(8)9-4/h4-5,7H,2-3H2,1H3/t4-,5-/m0/s1
