17
gdb 33802	3.53411	1.42502	1.21537	4.138	72.38	-0.2372	0.0154	0.2526	1028.3538	0.13827	-417.972184	-417.964951	-417.964006	-418.003714	28.527	
N	-0.0218936748	-1.1548739286	-0.0973521413	-0.33115
C	-0.0409908238	-0.0002497632	-0.0681434883	 0.23482
C	-0.0022908121	 1.4558879928	 0.0352236205	 0.27621
C	-0.1529293547	 2.1509455298	 1.4187520554	-0.237737
N	 0.7335350321	 3.251353604	 0.894148668	-0.127124
C	 1.3472025009	 2.2165228112	-0.0155730293	-0.20876
C	-0.0922774534	 4.1408017451	 0.050053054	-0.186492
C	-1.2249709006	 3.3716255675	-0.6776385512	-0.094656
O	-0.8842130905	 2.0023605962	-0.9333271351	-0.306279
H	-1.152232858	 2.440344491	 1.7483083939	 0.126592
H	 0.3556663771	 1.6031342526	 2.2145614606	 0.133937
H	 2.1668923945	 1.7019765147	 0.4918672328	 0.126543
H	 1.6603361438	 2.5707860585	-0.9998577298	 0.121494
H	-0.532529135	 4.922984761	 0.6778694634	 0.115752
H	 0.5791889085	 4.6317370365	-0.6607255288	 0.120441
H	-2.1451932336	 3.4010222381	-0.0802700811	 0.112049
H	-1.4532353505	 3.8148046528	-1.6502180736	 0.12436
142.6883	152.2742	210.6941	332.4015	418.5348	443.2347	457.4681	546.3521	554.8403	561.6211	657.3873	801.3224	829.4669	869.1573	908.5649	914.6388	929.569	965.3216	1021.3808	1050.4729	1082.3455	1106.9377	1161.3843	1175.0497	1216.6091	1247.5558	1263.9072	1270.9182	1290.0956	1311.4309	1366.0997	1396.5318	1481.6044	1497.9689	1505.9396	1529.8983	2362.3065	3016.9724	3044.7443	3062.6013	3078.3329	3085.3458	3101.154	3132.094	3138.3956
N#CC12CN(C1)CCO2	N#C[C@@]12CN(C1)CCO2	
InChI=1S/C6H8N2O/c7-3-6-4-8(5-6)1-2-9-6/h1-2,4-5H2	InChI=1S/C6H8N2O/c7-3-6-4-8(5-6)1-2-9-6/h1-2,4-5H2
