15
gdb 74689	3.32727	1.41538	1.18928	1.4262	66.4	-0.2352	-0.0396	0.1956	1027.2529	0.113628	-453.968976	-453.961573	-453.960629	-454.001192	28.384	
N	-0.0223562864	 1.3558801782	 0.333794044	-0.574788
C	-0.0850334761	 0.0141568058	 0.1054021075	 0.469505
N	-1.1114211119	-0.7396614855	 0.2156686017	-0.343263
C	-0.6603935365	-2.1016899524	-0.0467512523	-0.026197
C	-1.0127629817	-2.6261933239	-1.4707265108	-0.350782
C	 0.4133616957	-2.2544305297	-1.9203817443	 0.37124
O	 0.9743816019	-2.2018079823	-2.9727190336	-0.277551
C	 0.8408506024	-1.9180682668	-0.4564639254	-0.031711
O	 1.1288987518	-0.5394294233	-0.214995252	-0.251491
H	 0.7195329869	 1.8495291264	-0.1364042932	 0.270068
H	-0.9148853767	 1.8224166667	 0.3526817266	 0.27315
H	-0.9028838758	-2.7768009385	 0.7766726261	 0.085701
H	-1.1922404676	-3.7056887288	-1.5285781073	 0.132221
H	-1.8230640788	-2.1019705136	-1.983162685	 0.141665
H	 1.6301455629	-2.5385107323	-0.0281749621	 0.112234
60.3535	153.0088	230.7494	347.3315	402.2964	421.0102	441.6033	512.0343	539.2574	618.9741	690.425	739.6657	763.1724	789.418	851.47	913.944	921.2009	969.9414	1034.0895	1055.4962	1096.7475	1108.6472	1147.5293	1193.923	1235.5913	1244.9331	1311.619	1315.2022	1412.4229	1424.2884	1615.1041	1746.1317	1898.2665	3051.2234	3082.8547	3104.1878	3118.0699	3599.4949	3715.4555
NC1=NC2CC(=O)C2O1	NC1=N[C@H]2CC(=O)[C@H]2O1	
InChI=1S/C5H6N2O2/c6-5-7-2-1-3(8)4(2)9-5/h2,4H,1H2,(H2,6,7)	InChI=1S/C5H6N2O2/c6-5-7-2-1-3(8)4(2)9-5/h2,4H,1H2,(H2,6,7)/t2-,4-/m0/s1
