13
gdb 27605	3.54662	1.21274	0.90372	3.7629	75.46	-0.2591	-0.0671	0.192	1169.4689	0.091496	-415.679743	-415.672628	-415.671683	-415.711412	26.784	
O	 0.1024459561	 1.3539900348	 0.1257262296	-0.42739
C	 0.0684402096	 0.0037468572	 0.024003411	 0.359805
C	 0.0736255586	-0.6846245002	-1.1824370788	-0.318552
C	 0.0356650452	-2.0834556223	-1.1487681046	 0.148723
C	-0.0057939732	-2.7294355685	 0.092747387	-0.063537
N	-0.0105872209	-2.0649462863	 1.2471230298	-0.255972
C	 0.0254801081	-0.7369203511	 1.2139850499	-0.035085
C	 0.0391245356	-2.840618282	-2.3606811019	 0.215757
N	 0.0418789577	-3.4551723714	-3.3416634631	-0.324692
H	 0.1302336315	 1.7501292755	-0.7521863746	 0.307859
H	 0.1061556601	-0.1602392521	-2.1322177105	 0.124286
H	-0.0356672222	-3.8130894438	 0.1423483438	 0.135636
H	 0.0211079637	-0.2071144498	 2.1629161824	 0.133162
144.5139	148.843	228.2275	364.6933	390.5754	400.8946	467.1221	501.899	550.6089	580.2776	640.9695	716.5495	726.5481	908.1688	923.7518	968.6514	982.2159	1032.2392	1169.1632	1184.667	1213.4911	1313.6729	1326.9783	1358.9038	1466.5523	1506.1569	1610.3538	1634.7364	2346.1883	3171.0362	3182.4525	3186.4786	3814.6905
OC1=CC(=CN=C1)C#N	Oc1cc(cnc1)C#N	
InChI=1S/C6H4N2O/c7-2-5-1-6(9)4-8-3-5/h1,3-4,9H	InChI=1S/C6H4N2O/c7-2-5-1-6(9)4-8-3-5/h1,3-4,9H
