15
gdb 56612	2.02491	1.40793	0.87523	4.3401	70.8	-0.2973	-0.0761	0.2212	1248.8816	0.110002	-416.836003	-416.826326	-416.825382	-416.871947	32.501	
C	 0.0182955217	 1.5695552407	-0.0022222782	-0.407553
C	 0.0211145106	 0.0287073314	 0.0031319739	-0.164605
C	 0.6382449895	-0.4820766527	-1.2242440097	 0.28753
N	 1.134808147	-0.8548573783	-2.198337615	-0.301349
C	 0.7631096611	-0.5505145223	 1.2569060979	-0.226032
C	 0.0392884588	-0.0966379215	 2.5405849833	 0.154626
O	 0.4421101981	 0.7897840365	 3.2378042786	-0.218954
C	 0.8049419773	-2.0114186219	 1.2368380022	 0.275705
N	 0.7977080658	-3.1663050581	 1.2681474822	-0.293934
H	 1.0396491882	 1.9580594215	-0.0276188763	 0.153449
H	-0.5106342561	 1.9360887436	-0.8842298496	 0.152785
H	-0.4765569239	 1.9600474763	 0.8892554057	 0.150236
H	-1.0121918047	-0.3390504909	 0.0255806671	 0.151994
H	 1.7798205525	-0.1475075822	 1.2887714558	 0.16547
H	-0.9002471259	-0.6482313122	 2.754633582	 0.120632
34.1283	58.4134	112.0078	177.4524	189.7479	201.0794	242.9237	299.9125	342.7379	441.0023	491.9652	531.1595	558.8102	607.2972	819.0704	908.9668	942.0154	995.9165	1044.169	1089.8551	1095.295	1137.7106	1222.5516	1285.1976	1325.4742	1348.9182	1417.9815	1420.5108	1489.1686	1497.0357	1845.0838	2361.64	2363.6821	2918.8309	3041.3243	3059.5807	3084.1416	3137.7673	3144.903
CC(C#N)C(C=O)C#N	C[C@@H](C#N)[C@@H](C=O)C#N	
InChI=1S/C6H6N2O/c1-5(2-7)6(3-8)4-9/h4-6H,1H3	InChI=1S/C6H6N2O/c1-5(2-7)6(3-8)4-9/h4-6H,1H3/t5-,6+/m0/s1
