16
gdb 7793	3.32199	1.93289	1.29328	5.7842	61.73	-0.2765	0.0429	0.3194	927.0245	0.131133	-420.931599	-420.924163	-420.923219	-420.96376	27.122	
C	 0.0258867635	 1.5064640573	 0.1047476014	-0.401304
C	-0.0229898929	 0.0035854855	-0.1121117665	 0.149007
C	 0.8602665747	-0.5041907922	-1.2387748113	-0.241659
C	 0.8309093315	-2.0195287567	-1.2017800534	-0.072642
O	 1.1984071974	-2.5143942626	 0.0935809284	-0.255142
C	 0.9307180624	-1.833255839	 1.2301676175	 0.473456
O	 1.1985937195	-2.3017715799	 2.2954473309	-0.361043
O	 0.3813051061	-0.6028004223	 1.1374371438	-0.272053
H	 1.0526528108	 1.8343876138	 0.291809143	 0.133022
H	-0.3542581484	 2.0278341827	-0.7789821554	 0.121167
H	-0.5869822425	 1.785785157	 0.9651007755	 0.140695
H	-1.0605143044	-0.3077746421	-0.2996147441	 0.094634
H	 0.492457379	-0.1421604211	-2.2037791566	 0.119074
H	 1.8848443624	-0.1385436185	-1.105747516	 0.124482
H	-0.1704818317	-2.3958940811	-1.4486353475	 0.118564
H	 1.5434351126	-2.4688639308	-1.8971670597	 0.129743
69.1109	119.6729	226.5171	243.8644	287.8012	434.2368	454.2897	498.3756	559.3739	674.2794	765.1413	780.1847	864.9651	922.9582	967.3711	979.6264	1014.3864	1081.5364	1144.9954	1162.5225	1168.2617	1204.5828	1253.779	1272.3066	1343.8858	1381.5166	1407.4189	1414.4008	1430.6023	1473.5525	1484.6058	1498.3604	1518.8511	1878.1888	3004.2981	3024.7578	3044.7704	3048.9515	3099.2638	3105.7643	3120.9418	3130.5267
CC1CCOC(=O)O1	C[C@H]1CCOC(=O)O1	
InChI=1S/C5H8O3/c1-4-2-3-7-5(6)8-4/h4H,2-3H2,1H3	InChI=1S/C5H8O3/c1-4-2-3-7-5(6)8-4/h4H,2-3H2,1H3/t4-/m0/s1
