20
gdb 84820	2.80667	1.25041	0.98475	3.5497	81.43	-0.2463	0.0137	0.26	1240.6972	0.171628	-403.190896	-403.181911	-403.180967	-403.225442	33.374	
C	-0.0886781221	 1.4692542118	 0.353066941	-0.404579
C	 0.1064438386	-0.0330672859	 0.1350965463	-0.020874
C	 0.7541325414	-0.423184157	-1.178007282	-0.063958
C	 1.5855041472	-1.455485695	-1.0414923385	-0.086214
C	 1.6369944855	-1.9390993916	 0.3902512276	-0.280824
C	 1.017298756	-0.758076062	 1.1819224125	 0.01395
N	 2.0731478034	 0.0993159494	 1.7042888444	-0.269333
C	 2.0288011073	 0.6747922615	 2.9343433075	 0.15397
O	 1.1349929648	 0.5364771889	 3.743797758	-0.330419
H	 0.853268869	 2.0160393629	 0.2507188384	 0.106569
H	-0.7912016683	 1.8733748832	-0.3828832861	 0.111577
H	-0.487756658	 1.6712210997	 1.3513938921	 0.13888
H	-0.8857424937	-0.5077169662	 0.1868259266	 0.089348
H	 0.51723582	 0.0754910616	-2.1120329977	 0.09274
H	 2.1301295136	-1.9389945573	-1.8447057031	 0.094774
H	 1.035785068	-2.850094171	 0.5149733532	 0.117313
H	 2.6439571395	-2.18174385	 0.7466622769	 0.104911
H	 0.4449422116	-1.0776583257	 2.0527736881	 0.113823
H	 2.8412661921	 0.3370443558	 1.0956883201	 0.246454
H	 2.9283441341	 1.2930114269	 3.1294484646	 0.071891
34.6697	76.8355	186.841	212.288	229.2604	264.9592	288.6013	383.2982	437.2981	544.2207	551.2267	671.4995	728.1325	763.8655	778.0938	853.1941	893.7205	939.1938	945.7431	974.8335	994.3407	1022.4769	1034.2508	1081.9075	1112.3067	1124.4255	1150.0964	1181.9425	1229.2567	1241.1401	1298.1618	1313.8184	1337.1812	1366.9251	1382.4053	1411.5327	1430.5661	1482.9176	1494.7959	1500.9654	1523.5702	1677.8151	1800.1453	2928.3057	2981.3525	3016.8441	3038.4949	3064.8818	3105.5672	3115.9036	3123.654	3179.6592	3206.1788	3624.4608
CC1C=CCC1NC=O	C[C@H]1C=CC[C@H]1NC=O	
InChI=1S/C7H11NO/c1-6-3-2-4-7(6)8-5-9/h2-3,5-7H,4H2,1H3,(H,8,9)	InChI=1S/C7H11NO/c1-6-3-2-4-7(6)8-5-9/h2-3,5-7H,4H2,1H3,(H,8,9)/t6-,7+/m0/s1
