20
gdb 22920	2.70238	1.29967	1.0934	0.8646	83.04	-0.2374	0.0097	0.247	1197.3513	0.169862	-403.089101	-403.080129	-403.079185	-403.122984	34.211	
C	-0.1702955728	 1.4552543554	-0.1251768936	-0.487677
C	 0.0276385545	-0.0426764454	-0.0329789044	 0.260296
C	-1.2262526349	-0.9316145716	 0.2669802881	-0.272074
C	-0.4672217094	-1.6416504968	 1.4266649131	-0.217895
C	 0.8022505794	-0.8054896258	 1.1283919752	-0.072723
C	 1.7591959606	-1.4363750533	 0.0746992351	-0.336551
C	 0.9861519178	-0.7025012069	-1.004466895	 0.381583
N	 1.0809581326	-0.5596419275	-2.2591031071	-0.251857
O	 2.1385388786	-1.3353313638	-2.7774065715	-0.393992
H	 0.787679842	 1.9841153407	-0.1617168399	 0.117619
H	-0.7257252659	 1.7143577442	-1.0332743231	 0.131654
H	-0.7358959375	 1.8293456662	 0.7353217208	 0.110546
H	-2.0797201924	-0.338423891	 0.6060103968	 0.102877
H	-1.5566973298	-1.5633623586	-0.5604518554	 0.107729
H	-0.9005046099	-1.4407342426	 2.4093364371	 0.102295
H	-0.3426216123	-2.7238035412	 1.3285972624	 0.099519
H	 1.2737315709	-0.2815590732	 1.9603083877	 0.067718
H	 2.798107194	-1.0972484436	 0.1438754008	 0.126681
H	 1.7657483876	-2.5289706936	 0.0085671138	 0.119723
H	 2.1054974169	-1.1192991116	-3.7153139009	 0.304527
44.8729	131.3981	172.8721	221.0881	229.3256	299.7129	341.846	376.1622	411.3013	483.4705	516.5611	612.7751	681.6174	745.9279	789.0959	821.9244	848.6598	887.2873	923.8086	957.9686	968.756	1015.0863	1029.7635	1061.3897	1109.1861	1119.5991	1148.7505	1185.1147	1202.1358	1227.4641	1234.1017	1253.7907	1279.0198	1306.3712	1323.3316	1404.2612	1407.135	1451.7166	1477.4556	1487.9716	1491.1646	1496.8054	1773.4466	3026.4755	3045.0143	3053.8438	3060.795	3088.2391	3094.7887	3095.5988	3098.7081	3107.2517	3119.4921	3819.0947
CC12CCC1CC2=NO	C[C@]12CC[C@H]1CC2=NO	
InChI=1S/C7H11NO/c1-7-3-2-5(7)4-6(7)8-9/h5,9H,2-4H2,1H3	InChI=1S/C7H11NO/c1-7-3-2-5(7)4-6(7)8-9/h5,9H,2-4H2,1H3/t5-,7-/m0/s1
