15
gdb 5248	7.31248	1.08849	0.95869	0.5629	62.66	-0.2386	0.0072	0.2458	1149.0164	0.119495	-399.826979	-399.819326	-399.818382	-399.860594	26.626	
O	-0.1117642294	 1.4472096782	 0.034200325	-0.422193
C	-0.1280968535	 0.0855719893	 0.4346530929	-0.071151
C	-1.0990947788	-0.631686492	-0.4966659953	-0.30632
C	-1.2125295622	-2.0831836696	-0.1845056452	 0.406915
N	-0.6049794412	-2.7651915999	 0.7353500925	-0.312832
C	-1.0772738508	-4.0648316315	 0.5805675485	-0.115997
C	-1.9587992549	-4.0938249023	-0.4427173223	-0.042355
O	-2.0581391375	-2.8261878278	-0.9468418253	-0.179771
H	 0.4961320261	 1.9199284511	 0.6096735122	 0.28869
H	 0.8662942226	-0.3761478667	 0.358358456	 0.106644
H	-0.460055939	-0.0315548231	 1.4757981764	 0.106339
H	-2.0859429428	-0.1585400564	-0.4271047709	 0.136965
H	-0.7711850561	-0.499277034	-1.5347620699	 0.137033
H	-0.7458793322	-4.8708168863	 1.2153841384	 0.123388
H	-2.5602266903	-4.8509165392	-0.9149437733	 0.144644
22.1602	90.6279	146.55	253.5359	259.8885	358.4549	411.2304	627.3076	689.3792	760.2966	767.1809	805.8269	861.9026	932.569	966.2751	1024.4131	1073.2432	1093.4587	1108.8181	1136.8758	1167.096	1197.8034	1212.8935	1256.4097	1300.88	1331.0685	1401.386	1465.9314	1481.6213	1524.9148	1560.1887	1619.6894	2998.94	3028.3947	3038.2657	3073.2607	3264.9519	3302.1243	3836.56
OCCC1=NC=CO1	OCCc1ncco1	
InChI=1S/C5H7NO2/c7-3-1-5-6-2-4-8-5/h2,4,7H,1,3H2	InChI=1S/C5H7NO2/c7-3-1-5-6-2-4-8-5/h2,4,7H,1,3H2
