17
gdb 76072	2.28184	1.38835	1.13055	2.1489	73.63	-0.2552	-0.0025	0.2526	1133.5018	0.135709	-418.047859	-418.038644	-418.0377	-418.082163	33.575	
C	 0.3261884977	 1.6513874779	-0.0354389871	-0.416966
C	 0.0797749662	 0.1619461312	 0.0318900802	-0.022804
C	 1.2116960828	-0.8435077429	-0.1374110197	-0.222778
C	 2.557194797	-0.3959706286	-0.3451170851	 0.298524
N	 3.6465397882	-0.0291576973	-0.4896372782	-0.349668
C	 0.5014965943	-0.6813628321	 1.213232554	-0.121955
C	 1.0380629328	-0.0986852889	 2.5038749291	 0.379109
N	 2.2620414503	 0.4974140078	 2.5023003756	-0.539148
O	 0.3361125211	-0.1551511954	 3.4959124207	-0.36019
H	 1.2711713838	 1.9345097982	 0.4320853375	 0.143073
H	 0.3452086238	 1.9901010489	-1.0758382081	 0.132821
H	-0.476245243	 2.1861562317	 0.4818185064	 0.139008
H	-0.8486668903	-0.155970775	-0.4338409468	 0.115433
H	 0.9851550459	-1.7625203884	-0.668211345	 0.14344
H	-0.1650064142	-1.5022448137	 1.4513337263	 0.133953
H	 2.9294604334	 0.3921099526	 1.7546019681	 0.284515
H	 2.5972714702	 0.8186617139	 3.3968419319	 0.263632
48.3912	126.4866	140.7247	176.063	190.9681	277.8523	346.3993	392.582	406.0641	428.6408	512.4628	583.9113	613.2641	661.2814	751.0737	767.317	792.2165	822.5057	944.426	961.8559	1026.3971	1061.2578	1092.9782	1117.9327	1151.1943	1166.0855	1236.5094	1343.0383	1368.5154	1398.7454	1411.5953	1426.8744	1489.478	1502.2556	1632.2995	1786.014	2338.8614	3047.2662	3110.568	3132.4263	3153.6445	3165.1438	3187.1971	3574.2776	3704.1864
CC1C(C#N)C1C(N)=O	C[C@H]1[C@@H](C#N)[C@H]1C(=O)N	
InChI=1S/C6H8N2O/c1-3-4(2-7)5(3)6(8)9/h3-5H,1H3,(H2,8,9)	InChI=1S/C6H8N2O/c1-3-4(2-7)5(3)6(8)9/h3-5H,1H3,(H2,8,9)/t3-,4+,5-/m0/s1
