20
gdb 13875	3.96799	1.42634	1.10634	1.3769	75.6	-0.2356	0.0298	0.2653	1096.2295	0.177253	-349.019552	-349.011155	-349.010211	-349.052378	31.868	
C	 0.0684311164	 1.5508965721	-0.0125035549	-0.405254
C	 0.0349117775	 0.0216889251	-0.0175275278	 0.120824
O	 0.7948807606	-0.5058656188	 1.0697525421	-0.43241
C	-1.3863791998	-0.5504874981	-0.0267651471	 0.024726
C	-2.2266798293	-0.174173857	-1.2813979086	-0.275285
C	-3.0325634976	-1.421973977	-1.5532813946	-0.065357
C	-2.6038214416	-2.4606159	-0.839206324	-0.064212
C	-1.4336274051	-2.1031082001	 0.043346154	-0.262755
H	 1.102480589	 1.9044682106	 0.0218050319	 0.122635
H	-0.4121246875	 1.9696208595	-0.9020079117	 0.120489
H	-0.4572078404	 1.945741738	 0.866615475	 0.103495
H	 0.5585617938	-0.34393635	-0.9112103331	 0.085371
H	 0.3955463197	-0.1834566037	 1.8856164381	 0.273577
H	-1.9096315835	-0.1559221944	 0.8562669342	 0.060364
H	-2.8497999801	 0.7121897495	-1.1168099833	 0.101887
H	-1.5814748445	 0.0637085139	-2.141385746	 0.102468
H	-3.8369162574	-1.4480102652	-2.2805124205	 0.088991
H	-3.0072316284	-3.4660809518	-0.8949494276	 0.088871
H	-0.5023167661	-2.547732288	-0.334728079	 0.111995
H	-1.5413738256	-2.4697720747	 1.0697203632	 0.09958
80.293	99.3608	181.3496	243.2671	286.0305	333.0709	353.8036	393.2494	441.6231	490.2059	625.7583	724.411	784.6956	821.1015	898.2338	923.3781	950.6325	969.9409	977.0601	980.3121	1015.8662	1065.8507	1070.7904	1121.1003	1128.9785	1147.4639	1161.1782	1203.171	1272.6332	1293.4396	1319.433	1321.5968	1339.04	1370.5616	1390.2933	1402.708	1420.6728	1484.1739	1492.0571	1493.4947	1495.7284	1691.5207	2987.3029	2992.5186	3012.6092	3020.948	3028.7825	3051.7592	3061.794	3094.7116	3119.194	3177.604	3203.4767	3794.9992
CC(O)C1CC=CC1	C[C@@H](O)[C@H]1CC=CC1	
InChI=1S/C7H12O/c1-6(8)7-4-2-3-5-7/h2-3,6-8H,4-5H2,1H3	InChI=1S/C7H12O/c1-6(8)7-4-2-3-5-7/h2-3,6-8H,4-5H2,1H3/t6-/m1/s1
