19
gdb 41511	2.89891	1.9371	1.47499	1.1045	79.97	-0.2326	-0.0008	0.2318	936.7265	0.162816	-385.861425	-385.854834	-385.85389	-385.892005	28.007	
C	 0.0506309284	 1.5433225171	 0.2058499047	-0.228917
C	 1.5393497889	 1.9872649314	-0.0084957684	-0.269932
C	 2.1897279249	 0.7573796554	 0.5711040009	 0.22003
C	 2.652664756	 0.6513884357	 1.819342319	-0.160834
C	 2.2583033467	-0.6018959952	 2.5628430084	-0.11555
O	 0.8436113657	-0.814246881	 2.3332572665	-0.258866
C	 0.5702636192	-1.0235988168	 0.9782329041	 0.102294
C	 0.0528304165	 0.0177802562	-0.0262219672	-0.071613
C	 1.5006328233	-0.4390934388	-0.0363797621	-0.198055
H	-0.2678270235	 1.7965243403	 1.2219558897	 0.116564
H	-0.6304853805	 2.0366537035	-0.4934665909	 0.099904
H	 1.7365745366	 2.1147690247	-1.079355964	 0.099684
H	 1.7944462992	 2.9136327829	 0.5126765351	 0.098696
H	 2.9903709052	 1.5183233939	 2.3804146694	 0.090967
H	 2.8160281829	-1.4968878487	 2.2560694001	 0.103731
H	 2.3691026207	-0.4817610125	 3.6426527507	 0.11248
H	 0.1907053473	-2.0282530709	 0.7923837402	 0.086751
H	-0.6576665646	-0.3769095421	-0.7456365061	 0.083702
H	 1.9734906371	-1.0255130153	-0.81697353	 0.088964
188.8081	206.029	308.7986	381.725	494.2939	507.6842	549.9689	625.026	697.1175	734.2201	761.024	794.4251	827.6894	847.9912	870.6336	901.8369	919.7313	966.5876	1009.8038	1029.9802	1032.7395	1041.9569	1056.971	1091.428	1111.1567	1150.8502	1173.0228	1197.4869	1211.677	1260.3153	1285.8325	1293.0353	1312.9552	1345.7989	1350.972	1370.0537	1405.9157	1481.1627	1491.3283	1494.8046	1702.9219	3011.7703	3034.5884	3049.7342	3092.9066	3099.5777	3106.0012	3107.9623	3152.851	3161.9843	3164.7806
C1CC2=CCOC3C1C23	C1C[C]2[CH]CO[C@H]3[C@@H]1[C@@H]23	
InChI=1S/C8H10O/c1-2-6-7-5(1)3-4-9-8(6)7/h3,6-8H,1-2,4H2	InChI=1S/C8H10O/c1-2-6-7-5(1)3-4-9-8(6)7/h3,6-8H,1-2,4H2/t6-,7+,8-/m0/s1
