20
gdb 90956	2.59204	1.73352	1.42127	1.5855	78.48	-0.2243	0.0668	0.2911	1007.5261	0.172134	-403.090886	-403.082999	-403.082055	-403.122834	31.687	
C	 0.0301411027	 1.5647067645	-0.0647001979	-0.523474
C	 0.0212793661	 0.0571935519	-0.0234122716	 0.310691
C	 0.566314128	-0.9614230731	-1.0391465146	-0.21496
N	-0.0038150384	-1.8944102219	 0.0313207064	-0.176502
C	 0.5871559962	-0.9059256591	 1.0650085032	-0.009459
C	-0.3247644158	-0.9709179256	 2.2804472758	-0.282515
C	-1.6951587026	-0.9378299465	 1.5467729227	 0.098761
O	-2.4599053068	 0.2393516046	 1.7709650132	-0.441504
C	-1.1906722379	-0.9126290201	 0.1116314855	-0.015364
H	 1.0544473262	 1.9540952435	-0.0690411349	 0.112425
H	-0.4717305162	 1.932615267	-0.9664262992	 0.119289
H	-0.497453952	 1.9755894927	 0.8005398284	 0.134503
H	 0.0624212546	-1.0471910433	-2.0072134282	 0.094128
H	 1.6514823336	-1.0468589594	-1.1578203723	 0.092253
H	 1.6671478309	-0.9882881249	 1.2088145813	 0.066209
H	-0.168934405	-1.8890835126	 2.8542787245	 0.106889
H	-0.2088665753	-0.1118167065	 2.9482094208	 0.099084
H	-2.2944818459	-1.8356935816	 1.7483427578	 0.074796
H	-2.7926373791	 0.2125727549	 2.6732311213	 0.285236
H	-1.9248050431	-0.9984287043	-0.6917563922	 0.069514
122.6115	186.756	200.5009	279.4976	283.9259	348.3725	404.4544	477.2917	483.2163	622.9763	678.9832	738.2714	769.2368	814.8127	862.7803	887.5451	907.1083	930.9971	977.203	980.6094	1002.4958	1039.2118	1053.9081	1061.6311	1117.4184	1131.7803	1139.4976	1191.4116	1193.1185	1213.7669	1221.3906	1263.4506	1265.5952	1295.5647	1307.271	1338.5515	1391.9467	1407.5465	1426.4481	1471.9628	1485.9812	1495.0421	1531.8754	3012.226	3029.3989	3036.4122	3052.5529	3089.249	3092.0824	3096.0929	3102.36	3104.9887	3115.8101	3822.7212
CC12CN3C1CC(O)C23	C[C@@]12CN3[C@@H]1C[C@@H](O)[C@@H]23	
InChI=1S/C7H11NO/c1-7-3-8-5(7)2-4(9)6(7)8/h4-6,9H,2-3H2,1H3	InChI=1S/C7H11NO/c1-7-3-8-5(7)2-4(9)6(7)8/h4-6,9H,2-3H2,1H3/t4-,5-,6+,7-/m1/s1
