15
gdb 129412	5.14712	1.0837	0.89583	10.4545	72.91	-0.1942	-0.0101	0.1841	1214.5861	0.114126	-446.328308	-446.320322	-446.319377	-446.360966	29.682	
N	-0.0114369117	 1.3315565943	-0.0327993592	-0.52853
C	 0.0049851104	 0.0113000802	 0.0355662648	 0.53137
N	 1.1755602136	-0.6937674661	 0.095299208	-0.571352
H	 1.1335115824	-1.6825947343	-0.0954862381	 0.276172
H	 1.9937248978	-0.2423484562	-0.2820871934	 0.276703
N	-1.1558633708	-0.6412404175	 0.0914697457	-0.402357
C	-2.4168517246	-0.0014644785	 0.134156112	 0.42728
N	-3.5524106996	-0.6826809142	 0.2204746529	-0.387576
C	-4.4264754589	 0.3604673081	 0.2275726053	 0.003838
N	-3.8727088017	 1.5685850661	 0.1512679681	-0.253068
N	-2.5287641145	 1.3272288599	 0.0871959061	-0.332
H	 0.8485002639	 1.8502933535	 0.0204348529	 0.262867
H	-1.0099918252	 1.7576535451	 0.0063470316	 0.326089
H	-1.18092076	-1.6480275425	 0.1366529902	 0.277253
H	-5.4968512811	 0.222197092	 0.2899622632	 0.093312
89.7641	123.239	181.1763	220.1732	350.5457	395.7483	417.4672	437.4588	458.8618	557.1021	574.3173	691.5346	706.3839	735.5462	833.2388	876.7696	967.5745	992.5534	1020.4372	1068.973	1105.33	1122.3647	1186.1598	1203.2598	1273.5067	1316.5442	1419.4939	1441.1529	1455.5	1566.6149	1635.122	1676.1665	1728.4998	2417.3873	3238.4657	3595.3424	3642.9982	3672.8813	3700.0855
NC(=[NH2+])NC1=NC=N[N-]1	[NH2]=C(N)Nc1ncnn1	
InChI=1S/C3H5N6/c4-2(5)8-3-6-1-7-9-3/h1H,(H4-,4,5,6,7,8,9)/q-1/p+1	InChI=1S/C3H7N6/c4-2(5)8-3-6-1-7-9-3/h1H,4-5H2,(H2,6,7,8,9)
