22
gdb 86317	1.83271	1.6761	1.11893	3.2777	82.8	-0.2389	0.0283	0.2672	1218.172	0.193528	-404.385619	-404.37534	-404.374395	-404.42106	37.812	
C	-1.4546589475	 0.7136371119	 1.1202199259	-0.425555
C	-0.3459385606	-0.1474105305	 0.5344259495	 0.054513
C	 0.5543119759	 0.4240688158	-0.5914747557	-0.241915
C	 1.7531163432	-0.3505075415	 0.0148186272	 0.054515
C	 3.1420461721	 0.268876776	-0.0176610913	-0.425554
C	 0.9524639108	-0.4666353588	 1.3650849095	-0.1648
C	 1.3077435641	 0.5989405774	 2.3838117367	 0.431245
N	 1.5739875002	 0.1349207612	 3.640523122	-0.530654
O	 1.3581626342	 1.7909003241	 2.1215080014	-0.380407
H	-1.0667579747	 1.6764643433	 1.4607322809	 0.14636
H	-2.2259706995	 0.9018947037	 0.3648810075	 0.109182
H	-1.9401404391	 0.2186453339	 1.9696664341	 0.103467
H	-0.7622135377	-1.1087408535	 0.2120222856	 0.070044
H	 0.2770316813	 0.2070194919	-1.6267638147	 0.083569
H	 0.6888527634	 1.5017267929	-0.4691878737	 0.122457
H	 1.791618837	-1.3558402428	-0.4201624588	 0.070045
H	 3.1368170754	 1.2697398216	 0.4201720427	 0.146361
H	 3.8667989157	-0.343214612	 0.5321985081	 0.10347
H	 3.4963196631	 0.3482315466	-1.0516303745	 0.10918
H	 0.9716469009	-1.4572262585	 1.8297560533	 0.048115
H	 1.5381912247	-0.8398298388	 3.8777831353	 0.258182
H	 1.8151976173	 0.803201996	 4.3542381589	 0.258178
42.5395	107.1067	111.7551	175.184	188.6748	220.4092	233.55	286.8478	351.8545	389.4276	427.7711	433.2411	551.8096	600.3778	667.5014	732.8862	797.387	807.0579	891.6026	901.1019	926.8384	967.457	971.8564	1038.3577	1070.4484	1108.7076	1136.0448	1136.5278	1163.766	1183.0663	1247.0227	1261.672	1271.6534	1283.917	1294.1644	1357.5483	1383.7693	1408.5188	1409.2311	1427.9389	1484.9388	1490.7397	1492.3312	1509.2257	1510.8579	1612.893	1767.1073	3025.3703	3025.7425	3030.8204	3033.7303	3052.1834	3056.8873	3084.5204	3084.5679	3116.7226	3127.2541	3128.3461	3603.302	3744.7913
CC1CC(C)C1C(N)=O	C[C@H]1C[C@@H](C)[C@H]1C(=O)N	
InChI=1S/C7H13NO/c1-4-3-5(2)6(4)7(8)9/h4-6H,3H2,1-2H3,(H2,8,9)	InChI=1S/C7H13NO/c1-4-3-5(2)6(4)7(8)9/h4-6H,3H2,1-2H3,(H2,8,9)/t4-,5+,6-
