25
gdb 101746	3.03989	0.81335	0.73446	1.0089	90.1	-0.248	0.0824	0.3304	1709.2966	0.227656	-389.478544	-389.467875	-389.466931	-389.515214	38.833	
C	 0.0971508781	 1.472635706	-0.0511534135	-0.233707
O	-0.0824709339	 0.0787631226	-0.1149935017	-0.243474
C	 0.6604593253	-0.576978306	-1.1390098564	 0.142298
C	 2.137049949	-0.7243006063	-0.7603126481	-0.401684
C	-0.0114532338	-1.933485121	-1.368060097	-0.226188
C	-1.4456126449	-1.8321346647	-1.8674547694	 0.064627
C	-1.7196447093	-1.3481805437	-3.322902035	-0.220555
C	-2.8548242327	-2.4031946572	-3.4164383807	-0.210245
C	-2.2148765096	-3.1393283127	-2.209170021	-0.238107
H	 1.1189059243	 1.7588631039	 0.2388839195	 0.104202
H	-0.1335882267	 1.9579111062	-1.013011946	 0.101317
H	-0.5931554375	 1.8523208791	 0.7068939351	 0.12437
H	 0.5864813678	 0.0184682	-2.0661636633	 0.063553
H	 2.2354007159	-1.3148674203	 0.1562190937	 0.121572
H	 2.6884357551	-1.2300133231	-1.5593891238	 0.113259
H	 2.6124665262	 0.2467358528	-0.5942259887	 0.113079
H	 0.5909494851	-2.5046295827	-2.0868279335	 0.084048
H	 0.0130588361	-2.4901175425	-0.4214076117	 0.099095
H	-2.0259768948	-1.2289243778	-1.163190296	 0.084033
H	-1.9822054097	-0.2982939384	-3.4765671068	 0.091291
H	-0.8850519074	-1.5974210982	-3.9882387935	 0.090652
H	-3.8269630782	-1.9732766338	-3.1581214667	 0.100121
H	-2.9602050714	-2.9560685088	-4.3530156596	 0.092005
H	-1.5294368389	-3.9281504134	-2.5385102062	 0.092278
H	-2.879748184	-3.5554732999	-1.4477776295	 0.092161
47.8526	71.1178	80.9259	122.1996	159.399	202.1679	228.2426	280.6951	326.1145	335.3558	408.7746	468.6024	525.216	639.5484	763.488	788.9493	806.964	869.1845	899.7458	927.4405	934.9509	955.7603	977.2614	1007.7353	1030.718	1108.9472	1118.6841	1131.8753	1155.1755	1171.1445	1184.1092	1204.2191	1211.8178	1242.2196	1256.6575	1264.2425	1272.4478	1281.2389	1302.7817	1323.4769	1366.8865	1384.1322	1400.1003	1403.4685	1468.7156	1477.7592	1478.806	1483.4089	1486.6661	1493.6803	1503.0688	1510.1986	1513.0853	2945.9302	2973.563	3012.4476	3020.4512	3036.5461	3038.1146	3041.9901	3049.6099	3055.9829	3068.9345	3093.1347	3094.8175	3105.6651	3108.7077	3112.1249	3113.7827
COC(C)CC1CCC1	CO[C@@H](C)CC1CCC1	
InChI=1S/C8H16O/c1-7(9-2)6-8-4-3-5-8/h7-8H,3-6H2,1-2H3	InChI=1S/C8H16O/c1-7(9-2)6-8-4-3-5-8/h7-8H,3-6H2,1-2H3/t7-/m0/s1
