17
gdb 14547	4.70141	1.52552	1.39981	3.4231	69.18	-0.2419	-0.0233	0.2186	925.5878	0.141551	-363.826855	-363.819229	-363.818284	-363.858656	28.552	
C	-0.0624595469	 1.601565186	-0.0082455991	-0.494847
C	 0.0279799048	 0.0950735154	-0.0551138524	 0.214545
C	-1.0795171784	-0.6227799607	 0.6604852524	 0.141578
O	-2.0767192694	-0.0929779677	 1.0806165179	-0.269752
C	 0.5790450183	-0.7074139231	-1.1891727662	-0.057338
C	 1.7267710308	 0.0012446752	-1.9035706687	-0.265567
C	 2.4003040474	 0.0888514811	-0.5111556922	-0.155568
N	 1.2862302898	-0.6916095744	 0.1437485444	-0.176998
H	 0.5284867807	 2.0938043229	-0.7813881717	 0.121496
H	-1.1086640617	 1.8903848094	-0.1329148691	 0.149875
H	 0.2630048819	 1.9758769265	 0.9680201137	 0.135524
H	-0.8979826691	-1.713422678	 0.7749188271	 0.08732
H	 0.0733369905	-1.59699133	-1.5555811491	 0.099457
H	 2.2606193664	-0.6620996666	-2.5861047808	 0.120626
H	 1.4893899361	 0.9287520769	-2.431487602	 0.113567
H	 3.3259702095	-0.4838509311	-0.4342688629	 0.121331
H	 2.5616198894	 1.0815173983	-0.0831911312	 0.114751
97.7579	135.6869	226.3544	245.9344	310.2312	323.5074	417.7059	428.5909	561.0503	731.2325	741.3483	786.1809	823.0772	859.2445	945.4392	958.3416	994.4876	1020.3745	1035.1728	1045.8699	1103.6549	1109.3805	1149.4656	1214.3282	1222.6993	1262.6869	1294.1242	1322.7283	1380.7879	1409.4144	1431.3486	1478.	1490.0157	1501.7786	1511.8729	1825.8873	2903.6757	3051.5861	3062.2188	3070.5712	3112.8128	3117.96	3129.7431	3143.7213	3145.7168
CC1(C=O)C2CCN12	C[C@@]1(C=O)[C@H]2CCN12	
InChI=1S/C6H9NO/c1-6(4-8)5-2-3-7(5)6/h4-5H,2-3H2,1H3	InChI=1S/C6H9NO/c1-6(4-8)5-2-3-7(5)6/h4-5H,2-3H2,1H3/t5-,6-,7?/m1/s1
