24
gdb 10762	3.26976	1.3333	1.23981	0.0982	84.67	-0.2697	0.08	0.3497	1162.4258	0.221935	-314.267175	-314.25726	-314.256316	-314.301557	37.682	
C	-0.2189862548	 1.4752492104	 0.1289134187	-0.405338
C	-0.0323984929	-0.0256632059	-0.1208718134	-0.170408
C	 0.8119768919	-0.4343421618	-1.3584225474	 0.25426
C	 0.1926134437	 0.1447321849	-2.6424224135	-0.430609
C	 2.2610907209	 0.0753854111	-1.222617755	-0.404496
C	 0.8614248156	-1.9678752651	-1.3688312276	 0.041595
C	-0.1854476148	-2.8520481783	-1.9977137488	-0.28506
C	 1.2097333083	-2.8016351189	-2.575394174	-0.292478
H	 0.7364624595	 1.9917283061	 0.2632901894	 0.116015
H	-0.7509436898	 1.9657759421	-0.6919817956	 0.115811
H	-0.8066757823	 1.6366713829	 1.038368868	 0.111125
H	 0.4308751458	-0.4748910044	 0.7677413183	 0.086291
H	-1.0188744599	-0.4971033299	-0.2153996864	 0.093581
H	 0.2547080503	 1.2365754956	-2.642489536	 0.114636
H	 0.7181786764	-0.2029720178	-3.5370188606	 0.112242
H	-0.8639887444	-0.1230328038	-2.7433509494	 0.111541
H	 2.7252979326	-0.2982107015	-0.302876644	 0.104517
H	 2.8696187963	-0.2690482468	-2.0650553654	 0.111636
H	 2.3099990306	 1.1685479423	-1.2019695054	 0.107584
H	 1.2652116606	-2.3569046318	-0.4355782696	 0.074902
H	-0.4957086124	-3.7433918666	-1.4630337261	 0.106338
H	-0.9784884536	-2.3902250089	-2.5752702544	 0.109711
H	 1.3346935413	-2.309225294	-3.5335919171	 0.110003
H	 1.8619986511	-3.6570814696	-2.4359629346	 0.106601
46.2183	91.6133	181.8802	206.0329	234.8671	262.1934	271.3937	311.5388	339.9279	368.2618	396.9482	466.8301	510.6607	681.4881	783.4018	787.7921	815.0289	833.4677	906.7531	936.5521	942.0002	960.5559	998.2224	1026.1995	1038.6004	1057.6047	1077.7535	1082.9335	1115.3973	1150.5819	1197.1306	1198.3807	1230.402	1236.8693	1275.6144	1327.6483	1370.5736	1391.4346	1399.9012	1414.0007	1427.9485	1464.6599	1482.0219	1484.2633	1489.4628	1507.1086	1507.9595	1509.1511	1510.9351	1515.6309	3013.5096	3027.1537	3037.1861	3040.669	3048.4176	3093.4308	3098.4057	3100.3346	3103.6668	3108.4178	3111.7331	3114.4551	3131.9007	3136.9453	3206.4538	3221.6308
CCC(C)(C)C1CC1	CCC(C)(C)C1CC1	
InChI=1S/C8H16/c1-4-8(2,3)7-5-6-7/h7H,4-6H2,1-3H3	InChI=1S/C8H16/c1-4-8(2,3)7-5-6-7/h7H,4-6H2,1-3H3
