18
gdb 90740	2.58494	1.65453	1.36394	5.1545	70.69	-0.2521	0.0356	0.2877	1008.3664	0.149794	-439.115489	-439.107811	-439.106867	-439.147986	29.091	
C	 0.5550090334	 1.4896888738	-0.2587287389	-0.416382
C	 0.0213951979	 0.0916204861	 0.030066861	-0.011713
C	 0.6491717742	-1.0478508351	-0.8344005622	-0.195627
N	 1.381112376	-1.5508812817	 0.3654747142	-0.156886
C	 0.6232610913	-0.6589362064	 1.2666358998	-0.015642
C	 1.7137064495	-0.0634657163	 2.174500252	-0.108707
O	 2.9528084339	-0.4692050416	 1.5792640001	-0.241302
C	 2.7371246896	-1.2314316218	 0.4594920254	 0.450671
O	 3.6112704283	-1.5395376488	-0.2985241296	-0.374775
H	 1.6500905449	 1.5174348777	-0.2545991498	 0.140155
H	 0.2211925182	 1.8270384385	-1.2452553514	 0.127936
H	 0.196202465	 2.2152615072	 0.4788189431	 0.122468
H	-1.0717441663	 0.0988017623	 0.0267577941	 0.081203
H	-0.0665932113	-1.7848825151	-1.2058413024	 0.119591
H	 1.3165032496	-0.7478485419	-1.6464600085	 0.13617
H	-0.1364168257	-1.1898744676	 1.8468179174	 0.094257
H	 1.6921314233	 1.0287013465	 2.2356210868	 0.124147
H	 1.663039058	-0.4726802559	 3.1877028387	 0.124436
68.1736	141.0386	227.5305	238.3168	262.2669	359.9113	418.4339	533.0709	654.1905	700.8898	726.0798	786.3717	792.5491	823.8638	876.0373	920.8034	982.399	1012.8899	1039.6389	1059.566	1090.1802	1105.6116	1122.8954	1153.0851	1191.2048	1215.7906	1242.8717	1263.841	1282.4169	1314.6146	1351.885	1376.0532	1398.1432	1418.5074	1496.2493	1498.1931	1512.2721	1521.3928	1878.2706	3031.4362	3048.8952	3058.8593	3062.1002	3073.1594	3094.6176	3101.5806	3104.2135	3119.7434
CC1CN2C1COC2=O	C[C@H]1CN2[C@H]1COC2=O	
InChI=1S/C6H9NO2/c1-4-2-7-5(4)3-9-6(7)8/h4-5H,2-3H2,1H3	InChI=1S/C6H9NO2/c1-4-2-7-5(4)3-9-6(7)8/h4-5H,2-3H2,1H3/t4-,5-/m0/s1
