20
gdb 9255	6.13653	0.75938	0.7154	1.2348	80.7	-0.2389	0.0549	0.2938	1648.5132	0.173795	-348.987938	-348.977311	-348.976367	-349.025167	36.253	
C	 0.0534508233	 1.5559363897	 0.1727925039	-0.3857
C	-0.021738288	 0.0383523385	-0.007141746	-0.180255
C	 0.7131048726	-0.4523253597	-1.2620644503	 0.149045
O	 2.07889342	-0.0612956904	-1.2593176695	-0.420823
C	 0.5578596212	-1.979165668	-1.4423321475	-0.393406
C	 1.1849321014	-2.4957908712	-2.6523851939	 0.044223
C	 1.6981052271	-2.9110008152	-3.6589886974	 0.108042
C	 2.3235221521	-3.4105505534	-4.8751217298	-0.497773
H	 1.0945870086	 1.8879389582	 0.1890148341	 0.129413
H	-0.4467762691	 2.0743718844	-0.6526171583	 0.114953
H	-0.42658696	 1.8695396638	 1.104546714	 0.108504
H	 0.4110468163	-0.4648445853	 0.8704064811	 0.084064
H	-1.0691559843	-0.2852485623	-0.0583405083	 0.095038
H	 0.2897793224	 0.0431632715	-2.1442370442	 0.095561
H	 2.521850346	-0.5404902147	-0.5497224233	 0.276496
H	 0.980082424	-2.4783817583	-0.5565879606	 0.111068
H	-0.5122817371	-2.2253697998	-1.4397454166	 0.124541
H	 2.9110060239	-4.3147809465	-4.6799233349	 0.144146
H	 1.5763608405	-3.6608473858	-5.6366293509	 0.144069
H	 2.9997789792	-2.6650802653	-5.3082066215	 0.148797
20.0272	52.8958	75.5737	113.0785	208.8177	215.3824	224.7313	269.2126	284.1642	340.5952	385.041	413.8209	458.6179	557.193	770.639	780.3466	853.1071	910.6522	991.3743	1012.7959	1052.7519	1053.8637	1072.3085	1110.5299	1139.6825	1171.7431	1193.9973	1267.3942	1289.4331	1353.7419	1360.9245	1384.6355	1406.2896	1414.7419	1424.6431	1464.3706	1479.1361	1479.6435	1482.899	1495.5148	1509.5721	2376.1337	2989.1411	2999.3709	3024.3831	3031.8929	3037.6884	3039.534	3057.0749	3083.2739	3085.0558	3101.9624	3123.6593	3792.2528
CCC(O)CC#CC	CC[C@@H](O)CC#CC	
InChI=1S/C7H12O/c1-3-5-6-7(8)4-2/h7-8H,4,6H2,1-2H3	InChI=1S/C7H12O/c1-3-5-6-7(8)4-2/h7-8H,4,6H2,1-2H3/t7-/m1/s1
