16
gdb 20194	3.49212	2.97786	2.25364	0.1598	72.63	-0.2192	0.0147	0.2339	674.0866	0.133908	-309.462836	-309.457463	-309.456519	-309.491778	23.433	
C	-0.0108755279	 1.4747671628	 0.0626089747	-0.060144
C	 1.229050663	 1.984916827	 0.0035265455	-0.08536
C	 2.2677904414	 0.8642485489	-0.0415162532	-0.1485
C	 2.5473380809	 0.6684566912	 1.4485896329	-0.085358
C	 1.7235516117	-0.2572517428	 1.9639526292	-0.060146
C	 0.9121326661	-0.8888739203	 0.9104603961	-0.087803
C	 0.0127030348	 0.0093140832	-0.0755422455	-0.087805
C	 1.4211380718	-0.3864586037	-0.4085149939	-0.079309
H	-0.9160427799	 2.0421596523	 0.2445750035	 0.090372
H	 1.4977660214	 3.023464124	 0.1581413091	 0.094064
H	 3.1425268212	 1.0533647826	-0.6672146667	 0.068705
H	 3.1905293083	 1.3330578492	 2.0136588244	 0.094062
H	 1.61382748	-0.4841851898	 3.0179147618	 0.090373
H	 0.5420003499	-1.9012250259	 1.0249044363	 0.087038
H	-0.8364989764	-0.524623005	-0.4862937357	 0.087036
H	 1.6824813838	-1.0343119137	-1.2370724083	 0.082775
304.8744	326.7934	465.7401	566.5196	661.8916	672.2786	743.2306	761.7345	763.5395	807.5263	815.627	832.6959	883.9359	911.127	933.62	938.1697	962.1993	965.7008	1020.8471	1034.1447	1041.2622	1090.1261	1126.8805	1128.6224	1130.9783	1242.2613	1256.3212	1283.8351	1304.9116	1371.5389	1377.8777	1379.5004	1623.8782	1634.9045	3080.2376	3169.2456	3171.6968	3182.916	3188.9184	3192.1806	3213.0155	3215.4002
C1=CC2C=CC3C1C23	C1=C[C@H]2C=C[C@H]3[C@@H]1[C@@H]23	
InChI=1S/C8H8/c1-3-6-7-4-2-5(1)8(6)7/h1-8H	InChI=1S/C8H8/c1-3-6-7-4-2-5(1)8(6)7/h1-8H/t5-,6+,7-,8+
