15
gdb 31313	2.19005	1.51016	0.91349	3.4086	76.89	-0.2288	-0.0221	0.2067	1199.6357	0.114153	-416.85487	-416.846533	-416.845589	-416.888656	30.032	
O	 0.0418105983	 1.3128192954	 0.533669768	-0.415533
C	 0.0058155418	 0.0615972701	-0.1391665979	-0.214755
C	-1.3871859622	-0.4768739878	-0.053719553	 0.214319
C	-1.7498019988	-1.8119815057	 0.0776647927	 0.128193
N	-3.1300883017	-1.874956472	 0.0791514454	-0.314522
C	-3.6397119726	-0.6176799747	-0.0373405737	-0.075188
C	-2.5872788468	 0.2698030709	-0.1245348437	-0.212365
C	-0.9483362134	-2.9654282091	 0.1964672771	 0.202196
N	-0.2878012144	-3.9142829825	 0.2951785845	-0.361155
H	 0.9061483202	 1.7054810139	 0.3787775459	 0.291529
H	 0.2910922468	 0.1821491319	-1.19744693	 0.106299
H	 0.7099496309	-0.6605380299	 0.30112142	 0.112663
H	-3.6613542199	-2.7240380922	 0.1691222467	 0.279225
H	-4.7050084954	-0.4510183466	-0.0450775516	 0.136498
H	-2.6573199927	 1.3417653683	-0.2109252207	 0.122595
42.9124	125.1997	160.0843	192.3465	254.7537	298.4066	408.1854	482.2472	517.6852	556.3315	609.0614	639.821	684.5754	734.3948	766.2548	858.169	920.2309	1020.0087	1047.1982	1088.4462	1111.1705	1180.2382	1227.7198	1252.816	1266.6931	1323.7535	1440.2373	1456.736	1476.9242	1507.8533	1516.0287	1602.6077	2328.7026	2960.6285	3000.0242	3260.949	3279.839	3679.5151	3828.662
OCC1=C(NC=C1)C#N	OCc1c([nH]cc1)C#N	
InChI=1S/C6H6N2O/c7-3-6-5(4-9)1-2-8-6/h1-2,8-9H,4H2	InChI=1S/C6H6N2O/c7-3-6-5(4-9)1-2-8-6/h1-2,8-9H,4H2
