17
gdb 127398	4.77758	1.25563	1.02003	0.837	74.92	-0.2138	-0.007	0.2068	1136.0824	0.139331	-414.175976	-414.168596	-414.167652	-414.207757	28.091	
C	-0.0316277455	 1.4112954697	 0.0388013498	-0.314371
N	-0.0791423513	-0.0277470449	 0.1609526176	-0.081804
C	-1.4424053029	-0.6093795635	 0.1512514874	-0.291507
C	-1.2061837374	-1.8929567978	 0.8742967018	 0.311482
N	-1.8235827836	-3.0395581488	 1.1231011002	-0.314352
N	-0.9271180095	-3.6661196703	 1.8966401177	-0.099829
N	 0.215430466	-3.0190370409	 2.1620791446	-0.314352
C	 0.0353474006	-1.8802344414	 1.5074966739	 0.311491
C	 0.7382839088	-0.586943911	 1.2636774262	-0.291512
H	 1.0074102063	 1.7425353346	-0.0596808908	 0.122388
H	-0.5671379707	 1.7263435952	-0.8628591742	 0.122388
H	-0.4774594021	 1.9431550312	 0.9020916248	 0.092846
H	-2.1771668942	 0.0198723467	 0.6878037707	 0.101653
H	-1.8013754569	-0.7246527153	-0.8780279992	 0.126297
H	-1.0940770818	-4.5966810897	 2.2426810108	 0.291228
H	 1.7839961506	-0.6877866384	 0.9508322407	 0.126294
H	 0.7250413835	 0.0496711747	 2.1682641079	 0.101659
98.9494	218.1841	266.5372	269.6684	296.3277	301.6676	459.6585	484.3388	516.7011	700.911	709.0228	736.6261	798.1126	849.5571	998.2805	1013.1944	1018.9831	1057.0001	1138.8001	1143.1424	1157.8197	1183.785	1192.9638	1202.3709	1202.9927	1237.2085	1343.643	1355.2297	1446.0078	1447.5825	1465.6949	1488.6163	1501.8862	1509.778	1522.044	1532.8901	1609.6084	2914.7811	2919.5183	2928.4519	3043.181	3045.7328	3055.9724	3099.2783	3676.464
CN1CC2=NNN=C2C1	CN1Cc2n[nH]nc2C1	
InChI=1S/C5H8N4/c1-9-2-4-5(3-9)7-8-6-4/h2-3H2,1H3,(H,6,7,8)	InChI=1S/C5H8N4/c1-9-2-4-5(3-9)7-8-6-4/h2-3H2,1H3,(H,6,7,8)
