19
gdb 39001	2.78361	2.14997	1.48285	0.584	86.06	-0.1996	0.002	0.2017	923.2678	0.162333	-348.7139	-348.707364	-348.70642	-348.744297	28.023	
C	-0.1038324083	 1.4549795477	-0.0189558161	-0.321996
C	 1.4826841138	 1.6396418077	 0.0129522279	-0.028673
C	 2.2717822277	 1.5771964128	 1.355882097	-0.26321
C	 2.4846176579	 0.0832230586	 1.612428486	-0.146578
C	 2.1102785318	-0.6639440581	 0.5695105712	 0.191911
C	 1.2717155447	-1.944978848	 0.4937830349	-0.325289
C	-0.088474537	-1.2261519398	 0.2662289228	-0.181872
C	 0.1422680474	-0.0286553552	-0.2874495084	 0.240751
C	 1.6137514356	 0.2032983181	-0.5551753839	-0.123022
H	-0.6785650487	 1.691766741	 0.8816831591	 0.108121
H	-0.5247302132	 2.0164926998	-0.8593794284	 0.111686
H	 1.8123540987	 2.4654785482	-0.6189625455	 0.071707
H	 3.2046883912	 2.1538096022	 1.2849873137	 0.101761
H	 1.7107216741	 2.0188557453	 2.1903951574	 0.103182
H	 2.6878034219	-0.2958943838	 2.609002541	 0.082676
H	 1.5679389935	-2.6184798315	-0.3196977043	 0.109334
H	 1.2620512574	-2.5232244765	 1.4221511349	 0.109001
H	-0.9922977317	-1.5485116643	 0.7716251962	 0.092153
H	 2.0180175529	 0.0398993959	-1.5570269157	 0.068358
186.4084	283.8571	311.1042	351.0094	390.4862	556.6208	596.6773	680.5923	690.5907	740.7914	777.4573	814.9823	821.5948	873.7645	878.2538	885.9402	919.5447	933.7721	950.2463	982.1792	1005.0244	1028.8472	1062.2251	1111.6717	1118.5514	1147.1573	1169.2185	1189.7047	1209.6013	1235.2206	1248.056	1257.7996	1279.7243	1297.9554	1320.5412	1341.9424	1468.4849	1481.8108	1482.9967	1665.0981	1686.6072	3001.8876	3028.6999	3032.1612	3040.2643	3072.8649	3089.5805	3090.3003	3100.5517	3178.423	3187.0665
C1C2CC=C3CC=C1C23	C1[C@H]2C[CH][C]3C[CH][C]1[C@@H]23	
InChI=1S/C9H10/c1-3-7-5-8-4-2-6(1)9(7)8/h1,4,7,9H,2-3,5H2	InChI=1S/C9H10/c1-3-7-5-8-4-2-6(1)9(7)8/h1,4,7,9H,2-3,5H2/t7-,9-/m1/s1
