20
gdb 59846	3.25942	0.8595	0.74838	1.2528	76.31	-0.2395	-0.0618	0.1777	1574.6571	0.168139	-440.349503	-440.338883	-440.337939	-440.386065	37.959	
C	-0.0308450403	 1.5146426561	-0.068399174	-0.39565
C	 0.0408113407	-0.008387097	 0.1002184987	 0.038093
C	 0.7233545191	-0.3853997514	 1.4230660303	-0.38955
C	-1.3606777454	-0.6232941797	-0.0047404485	-0.287365
C	-1.3865621546	-2.1196134902	-0.188918806	 0.284087
O	-0.4115111792	-2.8098701018	-0.3927522368	-0.315597
C	-2.7913724161	-2.7748242489	-0.1289498176	 0.333974
N	-2.7397190819	-4.1065743262	-0.348697203	-0.518618
O	-3.7940510879	-2.1228754656	 0.0921218944	-0.351277
H	 0.9674484945	 1.9609920814	-0.0171174276	 0.112808
H	-0.4741683166	 1.792361891	-1.0306230168	 0.110468
H	-0.6387226765	 1.9705159112	 0.7222058844	 0.114378
H	 0.6429134781	-0.4218863722	-0.7183048824	 0.08928
H	 0.8127137779	-1.4691047102	 1.5315795601	 0.128035
H	 1.7305832073	 0.0403891033	 1.4750526222	 0.112096
H	 0.1562577398	 0.0009009166	 2.2789071003	 0.108872
H	-1.9875620075	-0.3777648801	 0.8620142932	 0.141405
H	-1.916997035	-0.2044213501	-0.8565198927	 0.137213
H	-1.8432090072	-4.5361636478	-0.5105919653	 0.278584
H	-3.5826907895	-4.6544600085	-0.328360673	 0.268764
36.4506	57.7275	97.4537	134.3297	226.8994	242.1882	255.8462	308.5739	316.9197	357.7602	402.4401	411.9722	428.2936	527.7611	610.9917	634.2773	718.9634	804.2838	839.8925	897.2897	929.9211	963.9005	972.313	1055.7406	1098.1939	1108.6895	1161.8309	1195.5957	1235.4135	1310.2597	1357.0924	1366.4238	1398.44	1399.8826	1419.2773	1429.8381	1488.4083	1493.7903	1505.4044	1513.0833	1586.1787	1792.5981	1807.8292	3017.3417	3024.4594	3027.4533	3033.2975	3059.8035	3089.3561	3095.5979	3100.9105	3120.7033	3596.7142	3738.4738
CC(C)CC(=O)C(N)=O	CC(C)CC(=O)C(=O)N	
InChI=1S/C6H11NO2/c1-4(2)3-5(8)6(7)9/h4H,3H2,1-2H3,(H2,7,9)	InChI=1S/C6H11NO2/c1-4(2)3-5(8)6(7)9/h4H,3H2,1-2H3,(H2,7,9)
