18
gdb 124992	2.98715	1.01062	0.79674	2.7855	75.09	-0.2437	-0.0051	0.2386	1420.9892	0.146841	-439.084341	-439.074981	-439.074037	-439.119822	32.689	
C	-0.2784085554	 1.5714429162	 0.2441607314	-0.514823
C	-0.023230543	 0.1069728905	 0.0727338016	 0.058927
C	 0.1364109152	-0.6179785995	-1.0729887892	 0.344845
C	 0.1353148639	-0.2714839387	-2.521529143	-0.300431
C	 1.5033753461	-0.4715015075	-3.1824500868	-0.067769
O	 1.3642535208	-0.0948100402	-4.5413814967	-0.418147
O	 0.3487146407	-1.9172722114	-0.7688863465	-0.220515
N	 0.3314592347	-2.0792811642	 0.6123884741	-0.144149
C	 0.1109919913	-0.8820466053	 1.0908824626	-0.027016
H	 0.5281759659	 2.0583026295	 0.8035336214	 0.136147
H	-0.359985354	 2.0765483301	-0.7216936669	 0.132556
H	-1.2087849193	 1.7554208598	 0.7925395395	 0.137032
H	-0.5975708008	-0.8876680413	-3.0547183154	 0.1368
H	-0.1683565807	 0.771590338	-2.6465250064	 0.125026
H	 2.254945339	 0.1450875336	-2.6648690077	 0.093121
H	 1.8079622573	-1.5226492862	-3.0785938104	 0.111301
H	 2.2002435198	-0.2588089378	-4.9872244919	 0.290088
H	 0.0507717684	-0.7502497956	 2.1630680902	 0.127007
41.1639	87.3759	94.0819	118.9311	246.8743	252.282	253.7595	339.0086	350.464	427.6405	646.1725	651.8968	685.2852	782.9711	797.3084	909.8791	935.0416	956.6541	1002.0856	1006.9378	1044.7147	1067.712	1083.6591	1173.8587	1203.9619	1221.0702	1242.4982	1266.3458	1314.5139	1331.899	1399.6259	1428.5192	1455.5763	1479.385	1484.6551	1495.8463	1519.2844	1529.5767	1677.1049	2978.3569	3020.0913	3033.4152	3049.1104	3084.3264	3103.3002	3115.6229	3233.0549	3832.9411
CC1=C(CCO)ON=C1	Cc1c(CCO)onc1	
InChI=1S/C6H9NO2/c1-5-4-7-9-6(5)2-3-8/h4,8H,2-3H2,1H3	InChI=1S/C6H9NO2/c1-5-4-7-9-6(5)2-3-8/h4,8H,2-3H2,1H3
