19
gdb 104481	2.16919	1.81784	1.19543	3.1119	76.36	-0.2215	-0.0376	0.1839	1080.295	0.158897	-419.119685	-419.11097	-419.110026	-419.15361	32.381	
C	 0.788270372	-0.187553718	-1.3374165392	-0.336071
N	 0.0466326013	-0.0344877714	-0.0844506557	-0.345584
C	 0.6710050216	-0.6618823019	 1.0672815978	 0.253383
C	 1.9731261641	 0.0372961714	 1.4150561038	 0.088472
O	 3.0131011331	-0.4772248616	 1.746389466	-0.254029
C	-0.2564119939	-1.0361521602	 2.2962305036	-0.100096
C	-0.9363502019	-2.1021022493	 1.4024440392	-0.205159
C	 0.5973030303	-2.2200875278	 1.1999612874	-0.059445
N	 0.7123175119	-2.1203771349	 2.7119120208	-0.33165
H	 0.822943988	-1.2475934987	-1.6085457801	 0.135296
H	 0.2581648892	 0.3421402217	-2.1334001739	 0.126716
H	 1.8265943713	 0.1828759404	-1.3110712979	 0.110079
H	-0.1297903339	 0.9478345691	 0.1025878042	 0.221016
H	 1.8993366744	 1.1485298291	 1.3112650503	 0.068419
H	-0.7083688481	-0.3495242538	 3.0148046241	 0.083335
H	-1.3795095171	-2.9285926752	 1.9569312077	 0.109449
H	-1.5298243157	-1.7482632645	 0.5643747015	 0.118204
H	 1.1610843919	-2.9596825621	 0.6307148995	 0.088659
H	 1.6217713716	-1.7260593023	 2.9582020607	 0.229009
52.8404	83.1045	163.3042	192.411	225.839	276.3064	376.3419	419.1727	457.3291	580.1466	600.4423	683.7138	755.8089	782.3757	817.2285	875.8875	895.1176	918.8707	1008.1586	1021.3741	1049.4117	1065.5916	1083.4853	1091.8291	1137.0672	1166.3167	1179.0797	1181.3315	1194.6503	1212.2098	1236.0218	1268.1955	1294.7784	1319.3733	1418.8632	1457.8629	1468.0128	1475.8803	1494.5435	1516.3683	1808.6303	2822.8871	2965.2128	3069.6025	3093.146	3104.7206	3114.3227	3116.6814	3196.7595	3448.7474	3510.3385
CNC1(C=O)C2CC1N2	CN[C@@]1(C=O)[C@H]2C[C@@H]1N2	
InChI=1S/C6H10N2O/c1-7-6(3-9)4-2-5(6)8-4/h3-5,7-8H,2H2,1H3	InChI=1S/C6H10N2O/c1-7-6(3-9)4-2-5(6)8-4/h3-5,7-8H,2H2,1H3/t4-,5+,6+
