17
gdb 71507	2.99593	1.51529	1.40162	2.0119	71.98	-0.2309	-0.0214	0.2096	985.2866	0.135585	-421.795681	-421.788371	-421.787426	-421.827288	29.078	
C	 0.0701054312	 1.4891903629	-0.1349070517	-0.519883
C	 0.0079891594	 0.0017301496	 0.0085317172	 0.419573
O	 0.6195173156	-0.8373513768	-1.0388282507	-0.34372
C	 0.0464354044	-1.7795359907	-0.0752796618	 0.045292
C	 0.5789536978	-0.9419152365	 1.1200889695	-0.087251
C	-0.3964021884	-1.0202414241	 2.2851664086	-0.370234
C	-1.7197124712	-1.0070141512	 1.4915708491	 0.403294
O	-2.8411319864	-1.0375502094	 1.9253447128	-0.321104
C	-1.2611391597	-0.9359438438	 0.0573341419	-0.195574
H	 1.1120789832	 1.8210024315	-0.1734984722	 0.140405
H	-0.4307949518	 1.806746341	-1.0539575982	 0.142997
H	-0.4207672979	 1.9759151551	 0.7136212931	 0.134502
H	 0.1391754682	-2.8456933147	-0.2809640402	 0.104067
H	 1.6547594858	-0.9278213846	 1.2871312697	 0.08872
H	-0.3074561082	-1.9351084637	 2.8804355964	 0.132209
H	-0.3440833751	-0.1698386328	 2.9730505844	 0.130779
H	-1.986029927	-0.9144922216	-0.7523172879	 0.095929
110.3094	187.8647	213.431	299.0063	380.7658	400.0642	529.2088	579.2963	592.9051	652.7642	673.1143	699.786	763.0917	838.0431	891.2317	908.6382	913.3826	973.6385	975.1874	1009.095	1032.9968	1082.8351	1134.0534	1139.8757	1159.3404	1186.6538	1214.1053	1228.1163	1255.7886	1272.7112	1289.346	1379.055	1417.2212	1459.579	1473.8511	1488.5573	1858.8996	3041.1478	3051.3822	3093.8417	3116.6027	3119.027	3121.8861	3140.5324	3166.7539
CC12OC3C1CC(=O)C23	C[C@@]12O[C@H]3[C@@H]1CC(=O)[C@@H]23	
InChI=1S/C7H8O2/c1-7-3-2-4(8)5(7)6(3)9-7/h3,5-6H,2H2,1H3	InChI=1S/C7H8O2/c1-7-3-2-4(8)5(7)6(3)9-7/h3,5-6H,2H2,1H3/t3-,5+,6-,7+/m0/s1
