25
gdb 58109	2.33318	1.20788	1.06415	1.3713	88.16	-0.2604	0.0715	0.3319	1324.0689	0.226566	-389.481448	-389.470503	-389.469558	-389.516772	41.971	
C	 0.1083899968	 1.4460852742	-0.2370092114	-0.428147
C	-0.079732062	-0.0583503465	-0.027821717	 0.151653
O	 0.6510122523	-0.490982404	 1.1221392655	-0.445941
C	-1.5491515606	-0.5340924429	 0.1645103263	 0.250372
C	-1.5338110856	-2.0716182405	 0.2693322498	-0.440011
C	-2.1444302176	 0.0395685879	 1.4661729449	-0.419256
C	-2.389559496	-0.0340497798	-1.0163722956	 0.016216
C	-2.284524002	-0.5848646896	-2.4187695671	-0.287528
C	-3.5436832509	-0.7987583507	-1.6156382408	-0.289385
H	 1.1758468628	 1.6733298926	-0.3459230399	 0.099334
H	-0.38909625	 1.7930594087	-1.1461314166	 0.122614
H	-0.2681162262	 2.0196236627	 0.6144584671	 0.124828
H	 0.304378768	-0.5758491895	-0.9224665646	 0.059686
H	 1.5603010227	-0.1937578967	 1.0232404512	 0.27904
H	-0.8470220252	-2.3785576187	 1.0598689935	 0.136346
H	-2.526348387	-2.4629137447	 0.5096634217	 0.10807
H	-1.1973820327	-2.5432183784	-0.6604105257	 0.104486
H	-2.2064606843	 1.1322186789	 1.4390540296	 0.103431
H	-3.1598124498	-0.3414369958	 1.6143022444	 0.108174
H	-1.5354985663	-0.2432712213	 2.32766174	 0.127909
H	-2.5587852434	 1.0389127151	-0.9762686869	 0.079844
H	-2.3065135187	 0.1136723789	-3.248387304	 0.106366
H	-1.6513058222	-1.4485554874	-2.5903108078	 0.112046
H	-3.7440475852	-1.8035453958	-1.2630626411	 0.113415
H	-4.433839107	-0.2431268667	-1.8898836757	 0.106439
67.755	76.0278	177.744	211.9477	235.606	249.4038	252.8072	266.4144	288.6387	322.4523	342.6983	382.8405	417.1	469.3069	476.9975	573.9431	690.5022	783.1391	808.0006	843.1451	894.3792	924.1608	941.1999	946.6891	971.899	1007.2433	1029.5374	1057.3943	1072.6023	1080.5793	1113.7088	1120.6766	1156.0357	1177.6228	1201.6594	1220.2445	1230.1335	1276.1451	1291.5229	1373.3432	1387.428	1391.1303	1405.7304	1413.4242	1428.8157	1465.7232	1482.4463	1492.7754	1497.9608	1502.1129	1506.3814	1510.0297	1518.0651	2957.5413	3031.9312	3036.6178	3041.0834	3095.0615	3099.6855	3102.3781	3126.8257	3129.3996	3131.6236	3134.0883	3136.7913	3141.3709	3208.7957	3226.3583	3826.2491
CC(O)C(C)(C)C1CC1	C[C@@H](O)C(C)(C)C1CC1	
InChI=1S/C8H16O/c1-6(9)8(2,3)7-4-5-7/h6-7,9H,4-5H2,1-3H3	InChI=1S/C8H16O/c1-6(9)8(2,3)7-4-5-7/h6-7,9H,4-5H2,1-3H3/t6-/m1/s1
