20
gdb 118531	1.54296	1.33988	0.80086	3.6292	76.23	-0.2674	0.036	0.3035	1471.0265	0.168816	-440.293157	-440.282594	-440.281649	-440.330132	36.659	
C	 0.0213776496	 1.4809011796	-0.122454525	-0.388049
C	 0.0342869218	-0.0342777501	-0.0296195712	-0.047751
O	 0.6265829769	-0.5480310404	-1.218425681	-0.265996
C	 0.7045849314	-1.964964378	-1.2921706596	 0.089042
C	-0.5104238496	-2.4865983437	-2.0693304919	-0.075733
O	-0.5917042886	-1.8764075105	-3.340846857	-0.416742
C	 2.0170412264	-2.3038557826	-2.0216221484	-0.343005
C	 3.1870757246	-1.798595665	-1.3103600428	 0.26576
N	 4.1086228789	-1.4112325213	-0.7310682834	-0.311446
H	 1.0385959138	 1.8637400962	-0.2397831789	 0.141805
H	-0.5733483174	 1.8126031724	-0.9786068846	 0.123503
H	-0.4111229146	 1.9107352705	 0.7856257844	 0.122456
H	 0.6198278864	-0.3654073336	 0.8407841454	 0.109718
H	-0.9882521268	-0.4236909769	 0.0916661115	 0.093895
H	 0.7233981564	-2.4031001839	-0.2843930483	 0.08852
H	-0.4336034847	-3.5672244007	-2.2305690763	 0.11187
H	-1.4190854853	-2.3044405069	-1.4740023531	 0.095558
H	-0.5157148483	-0.9271711876	-3.1781492278	 0.290245
H	 2.1091061732	-3.3892743988	-2.136310124	 0.149574
H	 1.9781797359	-1.8732425387	-3.0265284179	 0.166777
48.6997	57.5824	77.9814	103.5706	162.672	200.7149	248.8666	264.7013	321.5333	391.4957	394.2925	439.2592	494.5927	569.2223	664.4608	819.9149	828.6921	893.0492	909.9868	952.0022	980.7442	1057.1973	1091.8923	1098.2273	1126.1695	1147.9982	1186.8859	1222.9994	1235.4417	1285.0737	1301.1713	1353.0976	1362.6685	1394.4936	1404.9885	1425.5829	1443.1556	1459.8653	1484.5377	1498.5138	1502.4417	1527.2807	2365.6316	2977.4507	2983.2488	3015.394	3017.3884	3047.033	3058.5727	3074.6826	3107.2641	3120.1904	3128.1132	3773.0697
CCOC(CO)CC#N	CCO[C@@H](CO)CC#N	
InChI=1S/C6H11NO2/c1-2-9-6(5-8)3-4-7/h6,8H,2-3,5H2,1H3	InChI=1S/C6H11NO2/c1-2-9-6(5-8)3-4-7/h6,8H,2-3,5H2,1H3/t6-/m1/s1
