15
gdb 19003	5.33636	1.93528	1.70914	3.7086	64.83	-0.2387	0.0135	0.2521	763.029	0.121814	-362.647948	-362.642313	-362.641369	-362.677427	23.262	
O	-0.0443240634	-0.0157979346	 0.0425177201	-0.368606
C	-0.0132120166	 1.1871994907	-0.0348591275	 0.40807
N	-1.0870084496	 2.071465934	-0.1397722767	-0.345152
C	-0.4737566774	 3.3839911073	 0.017917575	 0.022117
C	 0.7924902605	 3.3951399141	-0.8849648898	-0.044187
C	 1.5010912407	 4.3265880314	 0.1256394497	-0.249534
C	 0.7464545915	 3.3032967351	 1.0023298893	-0.062435
C	 1.1667292314	 2.153509738	 0.0055241456	-0.15417
H	-1.9719369493	 1.8327106195	 0.2817581334	 0.249211
H	-1.1636750609	 4.2263889416	 0.0309359872	 0.088471
H	 0.8087579826	 3.4292339541	-1.9752232611	 0.085299
H	 2.5917089233	 4.2749493717	 0.1483732329	 0.104551
H	 1.1552366425	 5.3641847314	 0.1680338573	 0.094853
H	 0.7178709945	 3.2325950163	 2.0911632203	 0.082623
H	 2.1732831402	 1.7416112995	 0.0121126244	 0.088889
185.7902	353.4883	421.0865	425.7979	511.2993	627.8898	693.7623	735.9485	796.7234	835.2875	885.6546	891.3638	911.5364	917.4878	970.0768	1003.2028	1016.3492	1066.9215	1073.9084	1101.8213	1129.1541	1160.3517	1182.585	1187.7308	1226.5497	1235.8785	1251.9002	1284.3703	1326.0295	1389.5719	1519.1177	1860.1957	3049.3357	3099.7799	3107.3319	3117.1841	3136.876	3154.9416	3626.0409
O=C1NC2C3CC2C13	O=C1N[C@@H]2[C@H]3C[C@@H]2[C@@H]13	
InChI=1S/C6H7NO/c8-6-4-2-1-3(4)5(2)7-6/h2-5H,1H2,(H,7,8)	InChI=1S/C6H7NO/c8-6-4-2-1-3(4)5(2)7-6/h2-5H,1H2,(H,7,8)/t2-,3+,4-,5+
