19
gdb 99203	6.70448	0.5172	0.48591	1.7416	82.05	-0.2445	0.0144	0.2588	2243.9882	0.155827	-423.043311	-423.032111	-423.031167	-423.083046	36.507	
C	 0.0050088837	 1.3453594001	 0.1544202678	-0.241797
O	 0.1409773561	-0.0760376235	 0.0305942685	-0.236677
C	 0.6269951564	-0.5085442665	-1.1501232346	 0.450722
O	 0.9338940047	 0.2263334124	-2.0557506476	-0.354787
C	 0.7274569294	-2.0193318326	-1.1684852439	-0.317556
C	 1.2791053614	-2.5472912096	-2.5027115042	-0.355449
C	 1.377395583	-4.0024076539	-2.5243384963	 0.006867
C	 1.4494138195	-5.2043097694	-2.5186334316	 0.127284
C	 1.5427137568	-6.6574939853	-2.5277404387	-0.497678
H	 0.9739666568	 1.8376015412	 0.0385630145	 0.140646
H	-0.678293446	 1.7355414186	-0.6041706371	 0.140646
H	-0.3944111725	 1.5193501194	 1.1535718846	 0.133389
H	 1.3595140334	-2.3361188484	-0.3319971	 0.14197
H	-0.2643425435	-2.4364201126	-0.963707146	 0.14197
H	 0.637943447	-2.195683434	-3.3191410073	 0.140724
H	 2.2603310545	-2.0954755324	-2.6880023715	 0.140723
H	 2.5747917836	-6.9903226584	-2.6847861741	 0.146714
H	 1.199207712	-7.0852137564	-1.5791847842	 0.145572
H	 0.9305704338	-7.0918654186	-3.3260043583	 0.146717
16.1902	32.8917	52.8467	69.6154	118.4937	168.3049	178.1335	216.7642	279.7603	308.5185	389.6279	403.426	510.7845	584.6353	686.0601	782.6236	782.6698	911.4193	1004.0438	1035.2478	1053.7343	1057.6192	1069.9908	1168.6399	1178.5471	1181.5868	1198.1062	1215.5726	1301.8914	1314.3574	1391.6705	1415.7071	1457.5532	1473.4611	1475.258	1479.1141	1479.7137	1481.9011	1497.9594	1816.8367	2375.4927	3025.0725	3038.4055	3050.9533	3056.4384	3064.9089	3084.7969	3085.1453	3094.3858	3125.1271	3158.3511	16.181	32.892	52.8471	69.6153	118.4929	168.3048	178.1334	216.7641	279.7603	308.5186	389.6288	403.4261	510.7845	584.6354	686.0601	782.6236	782.6698	911.4192	1004.0437	1035.2478	1053.7345	1057.6194	1069.9908	1168.64	1178.5471	1181.5866	1198.1062	1215.5727	1301.8911	1314.3572	1391.6704	1415.7072	1457.553	1473.4611	1475.2579	1479.1145	1479.7141	1481.9014	1497.9596	1816.8368	2375.4928	3025.0725	3038.4055	3050.9533	3056.4384	3064.9089	3084.7969	3085.1453	3094.3858	3125.1271	3158.3511
COC(=O)CCC#CC	COC(=O)CCC#CC	
InChI=1S/C7H10O2/c1-3-4-5-6-7(8)9-2/h5-6H2,1-2H3	InChI=1S/C7H10O2/c1-3-4-5-6-7(8)9-2/h5-6H2,1-2H3
