17
gdb 40074	4.69505	1.18826	1.05682	1.5473	75.78	-0.244	-0.0119	0.2321	1128.0094	0.136429	-421.76536	-421.758193	-421.757249	-421.796994	28.293	
C	 0.0543772822	 1.5016706306	-0.0145192189	-0.250674
O	 1.213564639	 0.6680784109	-0.0513587207	-0.2712
C	-0.0801876353	 0.04114898	-0.0091985367	 0.415987
C	-0.4613736118	-0.7749621548	 1.2530714527	-0.338514
C	-0.4961462716	-2.2060300761	 0.7044664046	 0.093897
O	-1.7130031193	-3.0338323988	 0.7393343796	-0.306678
C	-1.67884465	-3.1886060142	-0.7147668445	-0.15534
C	-0.7255986077	-2.0226986559	-0.7615492081	 0.191386
C	-0.5583234769	-0.7730650824	-1.1819312689	-0.284944
H	-0.0989944785	 2.0547756706	 0.9125618288	 0.112462
H	-0.149541535	 2.0657566558	-0.9247503497	 0.112865
H	 0.2409198031	-0.60722733	 2.0724494469	 0.115301
H	-1.4676273713	-0.4926264075	 1.5793394607	 0.126163
H	 0.3636149158	-2.8145722386	 1.0108805538	 0.091452
H	-1.2645040304	-4.1644340326	-0.9996698791	 0.113278
H	-2.6609451635	-3.0530352633	-1.1786354536	 0.124761
H	-0.8216800088	-0.3396649339	-2.138423727	 0.109799
91.5871	193.4544	283.1735	306.2674	322.2825	430.6647	460.6446	521.9641	639.3382	743.9019	767.3867	806.1241	849.8576	873.5616	893.2592	911.7822	955.9495	966.2477	993.3381	1036.9328	1059.185	1103.2491	1126.4199	1140.0823	1159.2927	1181.2625	1201.3607	1236.7933	1251.6689	1294.8673	1331.3572	1356.7893	1416.8564	1466.4549	1508.7263	1528.5066	1733.2788	3015.388	3027.914	3059.1931	3069.984	3081.299	3120.8993	3153.8251	3213.1517
C1OC11CC2OCC2=C1	C1O[C@]21C[C@H]1OC[C]1[CH]2	
InChI=1S/C7H8O2/c1-5-3-8-6(5)2-7(1)4-9-7/h1,6H,2-4H2	InChI=1S/C7H8O2/c1-5-3-8-6(5)2-7(1)4-9-7/h1,6H,2-4H2/t6-,7+/m1/s1
