18
gdb 71719	2.33888	2.11708	1.75123	0.6548	73.54	-0.2403	0.0713	0.3116	902.4876	0.147069	-401.869367	-401.861893	-401.860949	-401.90077	29.963	
C	 0.0615920043	 1.4678535352	-0.07901597	-0.522552
C	-0.0165883023	-0.0268856042	-0.0474764472	 0.386421
O	 0.5743922587	-0.7112714242	-1.1844333245	-0.330239
C	-0.2157784613	-1.8508395473	-0.7876380567	 0.011104
C	 0.1918365726	-2.2269731916	 0.6574525827	-0.063029
C	 0.3453635906	-0.8590400763	 1.2134184698	-0.105576
N	-0.9820267986	-1.5547320835	 1.3112555028	-0.213788
C	-1.2757759263	-0.9587923841	-0.0804061444	 0.290628
C	-2.6670477057	-0.6347743495	-0.5120040185	-0.535095
H	 1.1060509883	 1.7950453573	-0.0340289739	 0.136272
H	-0.380702631	 1.8625067092	-0.9977614985	 0.132253
H	-0.4665133629	 1.8956540376	 0.7786254994	 0.132013
H	-0.3650122124	-2.5986561935	-1.5639431106	 0.086102
H	 0.6428722899	-3.1251346978	 1.0591567615	 0.099759
H	 0.9267018488	-0.5945920603	 2.088083783	 0.097258
H	-3.119897266	 0.1058329564	 0.1557317182	 0.13208
H	-2.6677475354	-0.2314745315	-1.5301454476	 0.132184
H	-3.2964036614	-1.5307898818	-0.4947277655	 0.134205
177.6709	195.3793	204.1948	236.0581	295.2061	328.6064	530.7914	585.9657	621.3198	655.4112	749.063	779.6269	802.9333	818.6463	853.0706	860.501	872.6326	885.3325	923.4858	962.0612	995.9333	1029.7476	1113.6838	1121.4936	1141.2458	1144.9803	1150.7621	1186.1925	1227.6378	1277.7299	1297.4977	1352.9981	1371.7843	1411.8106	1419.6427	1477.308	1478.6568	1489.7365	1492.9295	3030.9648	3038.5937	3100.2311	3105.4693	3106.7318	3120.4228	3143.0725	3188.1832	3202.456
CC12OC3C4C1N4C23C	C[C@@]12O[C@H]3[C@H]4[C@@H]1N4[C@@]23C	
InChI=1S/C7H9NO/c1-6-5-3-4(8(3)6)7(6,2)9-5/h3-5H,1-2H3	InChI=1S/C7H9NO/c1-6-5-3-4(8(3)6)7(6,2)9-5/h3-5H,1-2H3/t3-,4+,5+,6-,7-,8?/m1/s1
