16
gdb 133561	3.17767	1.11678	0.98679	2.5771	63.24	-0.2604	-0.003	0.2575	1197.327	0.121771	-532.279993	-532.271929	-532.270984	-532.313612	29.514	
F	-0.2105780884	 0.0740103435	-0.1562715075	-0.073612
C	-0.1122561863	 1.4010835423	 0.0020642948	 0.227758
F	 1.1931712517	 1.7239784867	-0.0848554201	-0.085765
F	-0.7195997783	 1.9782517805	-1.0531770918	-0.084339
C	-0.6988334609	 1.8705955798	 1.2890724985	 0.167872
C	-1.2641538923	 1.0934418944	 2.2099399617	-0.173717
C	-1.7104267684	 1.8868663294	 3.4120352428	-0.252326
C	-1.5968505536	 3.3585502909	 2.9309867065	-0.216114
C	-0.6542899504	 3.325600651	 1.6991343111	-0.313465
H	-1.3649174193	 0.0177649886	 2.1325194802	 0.11389
H	-2.7230662002	 1.6259242163	 3.7379960289	 0.113195
H	-1.0515257482	 1.6784094484	 4.2666523122	 0.11708
H	-2.5839001311	 3.7151050928	 2.6219153408	 0.113524
H	-1.2402332598	 4.0320257251	 3.7133344864	 0.105956
H	 0.3733476619	 3.6170084734	 1.9525714976	 0.120505
H	-0.9793736564	 3.997268767	 0.8983099479	 0.119557
52.6598	105.8025	157.0443	179.3957	321.14	357.1264	404.9972	477.0017	576.5527	595.901	654.7415	725.3693	812.5495	849.6434	876.0033	913.8528	918.7316	961.1474	1022.372	1060.8915	1073.3949	1156.1065	1159.59	1191.4628	1218.5499	1229.0299	1276.7486	1303.7437	1329.1414	1343.0735	1376.6867	1481.6352	1488.5889	1506.5788	1730.3312	3013.7224	3026.1538	3054.3181	3066.6941	3076.7607	3111.3022	3214.6797
FC(F)(F)C1=CCCC1	FC(F)(F)C1=CCCC1	
InChI=1S/C6H7F3/c7-6(8,9)5-3-1-2-4-5/h3H,1-2,4H2	InChI=1S/C6H7F3/c7-6(8,9)5-3-1-2-4-5/h3H,1-2,4H2
