17
gdb 85570	2.80913	1.37399	0.96886	2.1464	68.51	-0.2618	-0.0387	0.2231	1173.7037	0.135276	-459.025647	-459.017186	-459.016242	-459.059246	30.978	
C	-0.0056123024	 1.5775619832	-0.0372581559	-0.402085
C	 0.10770409	 0.0542255234	 0.0009274819	-0.104011
C	 0.9007220187	-0.5468877451	-1.1768450728	-0.369965
C	 0.8760372511	-2.0639200534	-1.1476794222	 0.416525
O	 0.7244993162	-2.7665770797	-2.1056617646	-0.3155
O	 0.9846622998	-2.6296846626	 0.0872842371	-0.220392
C	 1.3791546275	-1.8334771224	 1.2049395537	-0.175713
C	 0.7394932572	-0.4468774023	 1.2896670075	 0.362382
O	 0.7976536827	 0.1842830906	 2.3158546115	-0.299857
H	 0.9856977071	 2.0414177534	-0.0619200507	 0.126169
H	-0.5579687705	 1.9012230317	-0.9236491742	 0.121354
H	-0.5195542744	 1.9436011615	 0.853645668	 0.144947
H	-0.9032093405	-0.3822433929	-0.0247008733	 0.12581
H	 0.4982746629	-0.231811909	-2.1405246011	 0.146332
H	 1.9440023523	-0.2048380832	-1.1356955792	 0.135648
H	 1.1184486308	-2.4034824984	 2.0987519993	 0.161425
H	 2.4703608016	-1.699996795	 1.2070538451	 0.146929
53.736	124.232	172.1291	195.7998	266.6843	303.1587	368.4543	424.8953	444.0616	547.8043	583.7088	643.9347	686.0583	754.8797	819.3973	901.8281	919.3719	965.4987	1064.1812	1094.3268	1098.7515	1139.0995	1154.2619	1181.1982	1244.8458	1256.6646	1288.3699	1328.5051	1360.8539	1377.3323	1411.5169	1465.7997	1475.5574	1492.1294	1496.7831	1826.3257	1863.302	2992.5674	3016.4274	3029.4756	3046.8598	3114.4633	3119.9194	3126.2229	3138.1333
CC1CC(=O)OCC1=O	C[C@H]1CC(=O)OCC1=O	
InChI=1S/C6H8O3/c1-4-2-6(8)9-3-5(4)7/h4H,2-3H2,1H3	InChI=1S/C6H8O3/c1-4-2-6(8)9-3-5(4)7/h4H,2-3H2,1H3/t4-/m0/s1
