18
gdb 42064	2.65635	1.65705	1.11827	1.845	79.74	-0.2428	0.0126	0.2554	1088.8199	0.149439	-401.91385	-401.905859	-401.904915	-401.946162	30.653	
C	 0.3833200987	 1.5536164932	-0.5289249177	-0.074381
C	 1.3926434381	 2.2103890605	 0.4710002901	-0.347436
C	 2.1843449769	 1.1609453097	 1.0956915919	 0.011887
C	 2.4816080741	 0.0742667092	 1.5231492932	 0.127525
C	 2.4526598327	-1.3444280691	 1.8505574156	-0.335382
C	 1.0773340429	-1.9098500729	 1.374871429	-0.150008
N	 0.9863921339	-1.8326152948	-0.0749923575	-0.23859
C	 0.5516770961	-0.799155674	-0.6473190082	 0.134282
O	-0.0600079891	 0.2806033554	-0.0676865408	-0.205108
H	-0.4981588954	 2.1919365017	-0.6361248374	 0.118543
H	 0.8572887097	 1.4452939936	-1.5124141765	 0.110227
H	 1.9912726168	 2.9498912051	-0.0735792442	 0.126508
H	 0.8371430291	 2.7616927199	 1.2391315375	 0.136477
H	 3.2625045341	-1.8906076808	 1.3535275294	 0.135164
H	 2.5541814048	-1.5206507511	 2.9274927379	 0.124513
H	 1.0178422715	-2.9638658527	 1.6642427065	 0.103664
H	 0.2805137548	-1.3605890679	 1.8887955144	 0.11615
H	 0.6033703102	-0.7279925748	-1.738421973	 0.105964
104.3032	176.1741	206.0329	259.919	268.1408	358.8521	372.1143	398.7026	488.148	572.2943	609.7445	674.4893	745.5108	835.3826	858.0643	895.3888	937.3523	960.5591	996.0983	1024.916	1070.1059	1078.5864	1126.3877	1165.0731	1214.4512	1233.1222	1249.593	1286.7611	1333.1041	1342.0658	1363.1247	1389.1711	1426.7101	1468.2776	1476.8052	1500.3074	1504.8546	1752.6923	2350.0208	3024.3229	3030.8837	3032.9494	3037.1271	3062.969	3073.0204	3080.5772	3084.8767	3095.9792
C1CC#CCCN=CO1	C1CC#CCCN=CO1	
InChI=1S/C7H9NO/c1-2-4-6-9-7-8-5-3-1/h7H,3-6H2/b8-7-	InChI=1S/C7H9NO/c1-2-4-6-9-7-8-5-3-1/h7H,3-6H2/b8-7-
