25
gdb 123157	7.4607	0.44773	0.43959	0.9328	91.55	-0.2414	0.0898	0.3312	2598.4486	0.227077	-389.476499	-389.465437	-389.464493	-389.514251	39.359	
C	 0.0481452285	 1.4530720481	-0.3055292426	-0.380125
C	-0.0458614329	-0.00891172	 0.1384272772	-0.162805
C	-1.4214945544	-0.6316687818	-0.1248255835	-0.161697
C	-1.5188586275	-2.0924254214	 0.3249714131	-0.19579
C	-2.8884901791	-2.7022234415	 0.0617245136	-0.058456
O	-2.8821754374	-4.0423345392	 0.5268616253	-0.250443
C	-4.0981349116	-4.6941336625	 0.3498579703	 0.152475
C	-4.3998950616	-5.3493536354	-0.9754614415	-0.287614
C	-4.0456091834	-6.1822750637	 0.2423996359	-0.28775
H	 1.0409980373	 1.8687623268	-0.1070173569	 0.111241
H	-0.1461957156	 1.554563685	-1.3792299502	 0.112838
H	-0.6842910811	 2.074928206	 0.2213683489	 0.112946
H	 0.7222875715	-0.5999902982	-0.3774267121	 0.095407
H	 0.1842066014	-0.0834695961	 1.2093870006	 0.095714
H	-2.1906723205	-0.0372204402	 0.3881086192	 0.092372
H	-1.6507099849	-0.5600842951	-1.1974025209	 0.092308
H	-0.7621146153	-2.6969294887	-0.1902259249	 0.102164
H	-1.3024955322	-2.1721106728	 1.3974018656	 0.103946
H	-3.6721084099	-2.1251833196	 0.5818509511	 0.082772
H	-3.1278668551	-2.6736114624	-1.0135381539	 0.087121
H	-4.9315702209	-4.2443066601	 0.8926030767	 0.079205
H	-5.422112842	-5.3568262539	-1.3377833244	 0.11024
H	-3.6422624311	-5.2633143371	-1.7463803921	 0.117408
H	-3.0585879537	-6.6297897473	 0.2629938307	 0.124433
H	-4.8216384787	-6.7654590391	 0.7250027347	 0.112093
42.5228	53.6226	80.2521	102.6901	122.9357	162.9931	195.65	243.8072	270.565	339.4848	405.9178	481.7742	502.0156	736.2538	758.665	772.8742	816.1788	832.7073	861.5715	898.786	964.058	973.3166	986.5524	1025.5729	1047.7577	1063.3435	1068.7676	1070.8134	1091.9858	1129.1949	1145.3717	1193.3521	1194.9929	1207.3318	1238.6331	1245.5037	1271.3355	1296.761	1316.2606	1332.4558	1350.2973	1381.28	1400.2305	1414.1513	1439.3037	1451.9672	1485.0744	1489.4882	1497.9006	1499.6988	1500.9495	1512.2798	1527.4641	2956.5512	2988.3033	3002.2158	3016.3436	3026.3573	3028.4806	3030.3688	3050.4113	3074.5246	3082.5183	3094.7665	3100.7787	3134.3648	3141.5678	3218.9378	3234.0374
CCCCCOC1CC1	CCCCCOC1CC1	
InChI=1S/C8H16O/c1-2-3-4-7-9-8-5-6-8/h8H,2-7H2,1H3	InChI=1S/C8H16O/c1-2-3-4-7-9-8-5-6-8/h8H,2-7H2,1H3
