12
gdb 48377	2.6343	1.27329	0.99985	3.1883	66.08	-0.2967	-0.0771	0.2197	1126.2998	0.076117	-431.655175	-431.646853	-431.645909	-431.688713	28.621	
O	-0.3319288032	 0.4224116652	 0.7760653277	-0.216079
C	 0.2506557953	 0.8402849692	-0.1826837032	 0.148616
C	 1.3626321224	 1.8653478143	-0.0949744622	 0.036073
N	 2.3313029236	 1.7982443909	-1.2052988839	-0.317769
C	 1.4579355215	 2.960386303	-1.1496944328	-0.219933
C	 0.4597231618	 3.09204521	-2.1863497364	 0.344979
N	-0.345073955	 3.2227805311	-3.0047266619	-0.303884
C	 1.8232065907	 2.2157296811	 1.2277687298	 0.252255
N	 2.2320534924	 2.4998763574	 2.2703194675	-0.307525
H	 0.044549902	 0.5162200646	-1.2213779479	 0.130714
H	 3.2698135615	 2.0278347264	-0.886080927	 0.27945
H	 1.8546093771	 3.9059961468	-0.7895874197	 0.173103
81.7328	114.3028	142.6637	158.6839	249.4088	286.5079	334.5794	439.7581	486.7092	568.8835	597.0619	612.6971	748.0647	786.0414	907.3083	950.7284	1025.4802	1034.7338	1065.6388	1195.3489	1254.6564	1326.8695	1400.1292	1432.1496	1844.7739	2363.4921	2368.887	2959.0436	3157.0935	3517.9208
O=CC1(NC1C#N)C#N	O=C[C@]1(N[C@H]1C#N)C#N	
InChI=1S/C5H3N3O/c6-1-4-5(2-7,3-9)8-4/h3-4,8H	InChI=1S/C5H3N3O/c6-1-4-5(2-7,3-9)8-4/h3-4,8H/t4-,5+/m0/s1
