14
gdb 24909	4.95925	1.34946	1.06781	3.7277	68.99	-0.2064	0.0049	0.2114	1037.2067	0.104015	-432.898393	-432.891741	-432.890797	-432.929487	25.938	
N	-0.0299075106	 1.2201095756	 0.007156909	-0.511784
C	-0.0293203979	-0.0328840988	 0.0008206139	 0.393254
C	-1.2628963306	-0.9599271045	 0.0027271038	-0.437608
C	-0.5947040832	-2.3002137919	-0.0077220602	 0.192378
C	 0.7379200884	-2.0878345066	-0.0138796184	 0.429846
N	 1.3634173416	-3.2952964498	-0.0235508386	-0.402401
C	 0.3218799228	-4.2180629182	-0.0223655324	-0.018155
N	-0.8635854773	-3.6480442604	-0.0132087019	-0.332499
O	 1.1718434015	-0.7978031695	-0.0096612011	-0.269275
H	 0.9188470513	 1.5965321842	 0.0039179117	 0.235366
H	-1.8730777873	-0.7505027428	 0.887846377	 0.153909
H	-1.8825917279	-0.7415086203	-0.8735643822	 0.153914
H	 2.3500206632	-3.4898717822	-0.0299372896	 0.27824
H	 0.5173035661	-5.2789095349	-0.0287566411	 0.134815
105.5871	202.3753	311.4062	345.2038	456.0617	533.552	537.0615	550.8921	654.5622	696.4283	734.6944	753.348	781.913	837.2221	892.9953	960.8775	969.3223	973.9972	1057.5262	1137.8511	1150.7008	1220.6497	1248.0015	1285.0983	1361.2777	1390.2293	1464.5659	1475.4403	1549.9759	1658.2511	1805.2987	3047.7114	3078.5794	3264.5898	3488.0126	3676.2399
N=C1CC2=C(NC=N2)O1	[NH][C]1Cc2c([nH]cn2)O1	
InChI=1S/C5H5N3O/c6-4-1-3-5(9-4)8-2-7-3/h2,6H,1H2,(H,7,8)	InChI=1S/C5H5N3O/c6-4-1-3-5(9-4)8-2-7-3/h2,6H,1H2,(H,7,8)
