19
gdb 103919	3.48285	1.10848	1.04681	1.1619	71.71	-0.2469	0.0576	0.3044	1225.2145	0.156576	-460.123058	-460.113763	-460.112819	-460.156704	35.305	
C	 0.0970911164	 1.5557717903	-0.0052492309	-0.501687
C	-0.0889010952	 0.0800421017	 0.1216289447	 0.422802
C	-1.3826115735	-0.7450237732	 0.0003360568	-0.350391
C	-0.7334336306	-1.8097713267	 0.9720481839	 0.426062
O	-1.3392821808	-1.8422074488	 2.2439154065	-0.499587
C	-0.5538019258	-3.2203912584	 0.4371970911	-0.145276
O	-1.8590509544	-3.800175421	 0.4261429457	-0.439873
C	 0.5211918496	-0.92185115	 1.0131485533	-0.107141
O	 0.9722936463	-0.7810170331	-0.3406500612	-0.293387
H	 1.114846031	 1.8379501338	 0.277374167	 0.133624
H	-0.0739822817	 1.8823921313	-1.0373321152	 0.129478
H	-0.6092743868	 2.0897325336	 0.6382100785	 0.12877
H	-2.2401945228	-0.2774334242	 0.4880651906	 0.110859
H	-1.6446628197	-1.0651394836	-1.0109653439	 0.101183
H	-2.0429194562	-2.501365699	 2.1771205909	 0.287772
H	-0.1102951351	-3.1910625609	-0.5648229975	 0.110634
H	 0.1176093713	-3.7774535225	 1.1077236975	 0.09217
H	-1.7774210276	-4.7395151089	 0.2405491631	 0.294915
H	 1.2504859956	-0.8359493504	 1.8116577592	 0.099071
94.9071	118.7502	178.7156	198.7353	246.4139	298.5494	317.4464	324.9599	392.3654	436.939	458.8607	474.0062	552.95	647.2508	700.9779	783.6451	866.2187	886.7065	918.9437	969.7894	1002.8648	1009.685	1033.193	1060.8383	1071.8794	1124.7358	1148.3095	1195.2059	1205.4915	1231.1933	1245.4016	1271.9227	1289.4888	1401.9375	1414.2271	1441.6005	1451.5616	1475.227	1486.0751	1497.9447	1513.8259	2991.6654	3034.2256	3058.8066	3066.5527	3097.3074	3121.1741	3132.8034	3179.2237	3765.5194	3841.7995
CC12CC(O)(CO)C1O2	C[C@]12C[C@@](O)(CO)[C@H]1O2	
InChI=1S/C6H10O3/c1-5-2-6(8,3-7)4(5)9-5/h4,7-8H,2-3H2,1H3	InChI=1S/C6H10O3/c1-5-2-6(8,3-7)4(5)9-5/h4,7-8H,2-3H2,1H3/t4-,5-,6+/m0/s1
