19
gdb 41205	2.82383	1.77374	1.57981	2.7381	75.64	-0.2397	0.0493	0.289	934.5581	0.161331	-422.900237	-422.89336	-422.892416	-422.931201	28.475	
C	 0.0643549389	 1.5965832853	-0.1337697648	-0.205621
O	 1.5329635688	 1.4387541276	-0.0129654473	-0.321905
C	 1.1951420533	 0.2785354605	 0.8459786082	 0.174823
C	 1.2653858826	-1.2719337164	 1.1127642454	-0.133739
C	-0.338955078	-1.0890254813	 1.1463779061	-0.329908
C	-0.0646652572	 0.0544549354	 0.1039309376	 0.206678
C	 0.1938589011	-0.658548473	-1.2551468739	-0.084263
O	 1.3719835058	-1.4442570054	-1.2987346597	-0.244413
C	 1.6800521386	-2.1042133358	-0.088410852	-0.065835
H	-0.3263044967	 2.2212499593	 0.6789356163	 0.105952
H	-0.2130798053	 2.0034645016	-1.109779397	 0.114788
H	 1.0047488088	 0.7190676021	 1.8357179021	 0.081342
H	 1.7522933519	-1.6147145977	 2.0287840564	 0.081862
H	-0.9233031721	-1.9460636569	 0.798873321	 0.10722
H	-0.6972379428	-0.7617764591	 2.1234848844	 0.114033
H	-0.6918332003	-1.2765779404	-1.4841290419	 0.082913
H	 0.3091668773	 0.0698299386	-2.0601883387	 0.113453
H	 2.7638217036	-2.2640257116	-0.0948525024	 0.114687
H	 1.1979945717	-3.0962271828	-0.0370898898	 0.087933
144.6139	214.8844	279.5537	372.7431	414.6641	419.0715	532.7053	540.3688	632.038	741.588	758.9934	828.4063	837.1286	873.5208	891.9946	922.3132	937.0283	958.5424	1000.0679	1035.1842	1053.4558	1057.5307	1081.9167	1131.0274	1144.6474	1167.4977	1195.3152	1216.6837	1243.2954	1262.0432	1268.6543	1289.1765	1302.7669	1336.2849	1390.8008	1427.3538	1459.2062	1485.2044	1502.5966	1510.3124	1516.2392	2946.8897	2954.1704	2976.2149	3024.4483	3057.1804	3060.5826	3086.6433	3095.6039	3105.9526	3130.9645
C1OC2C3CC12COC3	C1O[C@@H]2[C@H]3C[C@@]12COC3	
InChI=1S/C7H10O2/c1-5-2-8-3-7(1)4-9-6(5)7/h5-6H,1-4H2	InChI=1S/C7H10O2/c1-5-2-8-3-7(1)4-9-6(5)7/h5-6H,1-4H2/t5-,6+,7+/m0/s1
