14
gdb 105588	1.99186	1.61652	1.30619	4.4393	62.14	-0.2992	-0.0317	0.2675	1023.2785	0.100409	-473.84346	-473.835084	-473.83414	-473.876881	29.466	
O	-0.0047444593	 1.4554466624	 0.0698853239	-0.398749
C	 0.030879245	 0.0683482316	-0.1147609225	-0.107221
C	-1.3962407082	-0.5370141553	-0.0904217733	-0.115307
C	-1.512926797	-2.0625864493	 0.157806522	-0.120903
O	-2.0175500861	-1.8120383345	 1.5114610233	-0.229478
C	-1.968853169	-0.4627369726	 1.3472110974	 0.470278
O	-2.2050143815	 0.4013415588	 2.1267530086	-0.320614
C	-2.2437108064	 0.0028431267	-1.1392271213	 0.275497
N	-2.9220144022	 0.401086692	-1.9855160307	-0.318768
H	-0.4263513899	 1.6433541206	 0.9185405306	 0.308722
H	 0.4917742976	-0.1150381978	-1.0895243414	 0.141127
H	 0.6306645605	-0.4494351189	 0.6503980432	 0.110879
H	-2.2536557823	-2.5860944217	-0.4456896549	 0.159439
H	-0.5688616411	-2.6085943721	 0.1954057051	 0.145099
98.2306	120.2719	127.6433	159.1216	225.2011	295.0371	394.585	425.407	443.5095	544.2295	582.2461	686.3904	766.6652	789.6324	899.7746	931.7482	960.9745	1037.4645	1099.3936	1125.3492	1147.0836	1159.3592	1204.6885	1271.9536	1350.2479	1388.7954	1428.6664	1505.81	1509.6758	1932.8982	2362.5976	2983.5384	3088.0524	3092.5282	3161.0609	3774.4153
OCC1(COC1=O)C#N	OC[C@]1(COC1=O)C#N	
InChI=1S/C5H5NO3/c6-1-5(2-7)3-9-4(5)8/h7H,2-3H2	InChI=1S/C5H5NO3/c6-1-5(2-7)3-9-4(5)8/h7H,2-3H2/t5-/m0/s1
