19
gdb 91518	2.55045	1.48467	1.11942	2.3099	75.54	-0.2403	0.0188	0.2591	1138.7449	0.159816	-419.202954	-419.19416	-419.193215	-419.236388	33.483	
C	-0.0991944848	 1.560668387	-0.1406739314	-0.419117
C	 0.0512025219	 0.0553904231	 0.025757277	-0.047883
C	 1.1456526973	-0.7330828046	-0.7544541986	-0.182668
N	 1.7039615194	-1.3509235708	 0.507205751	-0.187448
C	 2.1691539489	-0.2209568064	 1.3203980998	-0.266191
C	 0.7114127837	-0.4956859707	 1.2901535454	 0.252874
C	-0.0476192804	-1.0118773679	 2.4705999208	 0.284049
N	 0.4777805412	-2.1508042752	 3.0115071958	-0.538887
O	-1.030035665	-0.4338135937	 2.8981067357	-0.365277
H	 0.8553650705	 2.0838134851	-0.0227115869	 0.111532
H	-0.4922634915	 1.806598466	-1.1330352287	 0.115403
H	-0.7945562542	 1.952426885	 0.6078419077	 0.143461
H	-0.922300382	-0.4232645936	-0.1091535737	 0.096774
H	 0.7590196941	-1.5101320714	-1.4155776514	 0.115277
H	 1.885589985	-0.1346724835	-1.2968916827	 0.106744
H	 2.7091003601	-0.5250424089	 2.2113263539	 0.130357
H	 2.5642728372	 0.6630447412	 0.824915215	 0.119427
H	 1.0996643112	-2.7046291217	 2.4416543975	 0.271808
H	-0.0541678326	-2.6099204991	 3.733500514	 0.259765
68.8192	122.6102	185.9387	219.2253	229.8257	277.4305	389.7603	423.9181	434.0182	479.7492	556.9393	597.2675	673.222	698.4791	751.7746	805.6481	852.4893	875.2814	895.8998	950.6705	995.1993	1080.1111	1095.6317	1098.825	1114.5377	1135.9471	1153.4057	1193.8321	1223.5195	1264.0916	1290.6093	1329.4011	1374.9007	1408.1189	1426.4599	1490.4867	1498.1742	1498.6353	1514.0234	1606.1678	1790.1388	3033.2516	3046.7374	3071.0288	3100.065	3110.4058	3112.9613	3120.8464	3205.3031	3571.8107	3707.3086
CC1CN2CC12C(N)=O	C[C@H]1CN2C[C@@]12C(=O)N	
InChI=1S/C6H10N2O/c1-4-2-8-3-6(4,8)5(7)9/h4H,2-3H2,1H3,(H2,7,9)	InChI=1S/C6H10N2O/c1-4-2-8-3-6(4,8)5(7)9/h4H,2-3H2,1H3,(H2,7,9)/t4-,6-,8?/m0/s1
