15
gdb 13360	5.83455	1.07085	1.00212	2.1772	70.44	-0.2492	0.0192	0.2683	1182.9453	0.118868	-362.649753	-362.64167	-362.640726	-362.684799	27.196	
C	 0.1129710418	 1.5607619394	-0.1058291195	-0.497629
C	 0.0016117159	 0.1112847924	-0.0469812294	 0.043482
C	-0.101068247	-1.0874293665	-0.0015135844	 0.106921
C	-0.1820910324	-2.5356020154	 0.0652931819	-0.079342
C	 0.5892472259	-3.1839608025	 1.264632375	-0.192204
N	-0.4356974144	-3.8975732274	 2.0385553314	-0.259512
C	-1.5286968877	-3.7026219042	 1.4312414335	 0.126541
O	-1.5630676997	-2.9643196313	 0.2968859872	-0.220861
H	 0.7812433958	 1.9418927553	 0.6738470834	 0.152524
H	 0.504277454	 1.8907293378	-1.0741866626	 0.152627
H	-0.8654825933	 2.0325906569	 0.0352862915	 0.156925
H	 0.1180932715	-2.9757213047	-0.8910559448	 0.118417
H	 1.3577787985	-3.8831932781	 0.9217956062	 0.121065
H	 1.0750658179	-2.4275301094	 1.8867704462	 0.128243
H	-2.4954796868	-4.0861293425	 1.7389663244	 0.142802
14.2624	50.3739	106.4298	156.0248	299.0768	325.8261	453.6648	488.1353	527.7335	717.0482	768.2588	872.479	918.0659	958.8363	970.0006	985.3172	1043.8566	1050.333	1057.3006	1120.7752	1185.3661	1210.1551	1296.1232	1312.8036	1337.3112	1371.6958	1413.6876	1475.2581	1477.5423	1498.0853	1713.1276	2372.3148	3029.8166	3047.4284	3056.6424	3092.2183	3093.2293	3097.13	3213.2524	14.2905	50.3728	106.4298	156.0244	299.0773	325.8263	453.6651	488.1354	527.734	717.0483	768.2589	872.4791	918.0658	958.8366	970.0006	985.3172	1043.8566	1050.3325	1057.3003	1120.775	1185.3663	1210.1558	1296.1239	1312.8043	1337.3114	1371.6965	1413.687	1475.257	1477.5413	1498.0863	1713.1277	2372.3147	3029.8166	3047.4283	3056.6423	3092.2183	3093.2294	3097.1299	3213.2524
CC#CC1CN=CO1	CC#C[C@H]1CN=CO1	
InChI=1S/C6H7NO/c1-2-3-6-4-7-5-8-6/h5-6H,4H2,1H3	InChI=1S/C6H7NO/c1-2-3-6-4-7-5-8-6/h5-6H,4H2,1H3/t6-/m0/s1
