16
gdb 30480	3.74194	1.19628	0.91171	5.1788	77.8	-0.2236	-0.032	0.1916	1228.9586	0.126282	-434.134332	-434.12613	-434.125186	-434.167319	30.286	
C	 0.0632163416	 1.4292601326	-0.2241255089	-0.342736
N	 0.0407011158	-0.0162244103	-0.1353755108	-0.333735
C	-1.0600791362	-0.5900249943	 0.1472768899	 0.508093
N	-2.2847105271	 0.0329876252	 0.3887987206	-0.388923
C	-3.4330443292	-0.6572096895	 0.6889345102	 0.041185
C	-3.4620398019	-1.9989795334	 0.7730517445	-0.265977
C	-2.2400330128	-2.7671695701	 0.5404562711	 0.438078
O	-2.1419243473	-3.9770965268	 0.5882686375	-0.378956
N	-1.1285296761	-1.9713077998	 0.2426477662	-0.426953
H	 1.0753072843	 1.7570410162	-0.4731605666	 0.134409
H	-0.6033338091	 1.8245310304	-1.0096408963	 0.105931
H	-0.2093630369	 1.9247121038	 0.7233818816	 0.105978
H	-2.3053541662	 1.0363813344	 0.335588398	 0.270803
H	-4.3088564781	-0.0392326505	 0.8517167688	 0.138408
H	-4.3662928072	-2.5394279888	 1.0092357079	 0.125249
H	-0.2587192037	-2.457452749	 0.0736232763	 0.269148
93.982	116.4126	165.2286	216.5215	241.2234	367.2702	393.3808	481.8947	500.3129	528.4386	618.825	670.8298	715.4405	743.8092	762.5566	818.2259	927.4362	968.0583	982.4892	1067.1781	1094.4198	1115.0581	1158.4644	1229.0349	1255.3537	1394.9196	1403.8129	1422.2198	1446.8529	1481.3633	1508.778	1517.9615	1683.8166	1759.8754	1796.9627	2945.3025	2986.1214	3101.381	3199.6221	3254.5623	3616.7169	3679.4152
CN=C1NC=CC(=O)N1	CN=c1[nH]ccc(=O)[nH]1	
InChI=1S/C5H7N3O/c1-6-5-7-3-2-4(9)8-5/h2-3H,1H3,(H2,6,7,8,9)	InChI=1S/C5H7N3O/c1-6-5-7-3-2-4(9)8-5/h2-3H,1H3,(H2,6,7,8,9)
