18
gdb 92713	2.06037	1.75686	1.06984	4.6924	78.09	-0.2599	0.0002	0.2601	1137.5838	0.147445	-401.98011	-401.971256	-401.970312	-402.013674	32.98	
C	 0.0002957883	 1.4832527424	 0.0469363503	-0.502536
C	 0.0406677867	-0.0090300105	-0.0169086161	 0.325256
C	 0.0136366166	-0.7951828298	-1.0956091626	-0.183103
C	 0.0122279655	-2.2635382653	-0.7541083984	-0.289282
C	 0.4817779698	-2.2831734623	 0.7205876795	 0.121371
O	 1.8710291814	-2.4947834265	 0.8363176233	-0.413753
C	 0.0477515836	-0.8719650144	 1.2492954583	-0.288159
C	 0.9020280084	-0.3595493864	 2.3190318556	 0.289648
N	 1.5659083964	 0.0851938629	 3.1539553045	-0.334634
H	 0.8542913962	 1.8799570869	 0.6076604823	 0.152782
H	 0.0056423013	 1.9221669817	-0.953764307	 0.128944
H	-0.9008064522	 1.8317620348	 0.5676710305	 0.134568
H	-0.0459467631	-0.4265071298	-2.1140300548	 0.100465
H	-0.9935078736	-2.6935952417	-0.8601677822	 0.115634
H	 0.6833585619	-2.8709904958	-1.3699677468	 0.120073
H	 0.0205233551	-3.0821765754	 1.3044149816	 0.103026
H	 2.3250106706	-1.8108188838	 0.3294928109	 0.287895
H	-0.9746675329	-0.9307493872	 1.6513695512	 0.131806
66.5462	138.9701	170.5205	182.6381	238.9433	314.4141	357.4702	362.7666	413.6359	446.9154	512.5867	581.844	655.0169	775.7418	797.8881	842.4149	874.8301	919.0359	963.1939	1003.5146	1037.1549	1039.4604	1066.4617	1095.0155	1177.9739	1184.9078	1213.6038	1250.5116	1285.9299	1311.8277	1330.0227	1342.187	1419.1394	1434.5747	1476.953	1479.2715	1487.84	1717.6296	2358.1002	3000.3202	3014.2285	3024.5577	3075.3479	3076.3659	3099.9083	3120.727	3191.6249	3790.2262
CC1=CCC(O)C1C#N	CC1=CC[C@@H](O)[C@H]1C#N	
InChI=1S/C7H9NO/c1-5-2-3-7(9)6(5)4-8/h2,6-7,9H,3H2,1H3	InChI=1S/C7H9NO/c1-5-2-3-7(9)6(5)4-8/h2,6-7,9H,3H2,1H3/t6-,7+/m0/s1
