17
gdb 35772	3.87349	1.19309	1.00635	2.4423	74.22	-0.2587	0.0319	0.2906	1165.1571	0.135776	-421.769292	-421.761499	-421.760555	-421.801618	30.189	
C	 0.063101957	-1.2055747639	 0.0270389962	-0.403186
C	 0.0650134858	-0.0047700455	 0.0161084394	 0.290618
C	 0.0169095426	 1.4532630826	 0.0249289343	-0.061991
C	-0.7349780428	 1.9986823884	 1.257765692	-0.236111
C	-0.537402374	 3.4985040815	 1.3907308499	 0.025359
O	 0.6833163852	 3.9217723246	 2.0107150392	-0.241457
C	 0.5240064556	 4.1649577335	 0.6175606177	 0.042426
C	 1.3886315598	 3.3381984016	-0.3091044551	-0.110863
O	 1.3487695658	 1.9560634557	-0.0152700049	-0.251154
H	 0.0743269135	-2.2676066995	 0.0294484246	 0.198694
H	-0.5163860751	 1.7909326021	-0.8818563529	 0.093486
H	-1.7993644404	 1.761840496	 1.1633555817	 0.112211
H	-0.3621484678	 1.5039083512	 2.1593183038	 0.135549
H	-1.407647703	 4.0785607201	 1.6958992498	 0.094567
H	 0.4119602795	 5.2133120948	 0.336649733	 0.093193
H	 1.0660417797	 3.5282174714	-1.3483388245	 0.092734
H	 2.4382091189	 3.6357735455	-0.220279774	 0.125924
89.7921	146.6416	193.7095	286.2432	362.5197	365.9126	423.6537	496.1112	541.8115	562.5032	626.3807	675.5274	729.52	787.0015	814.0417	882.845	916.4423	968.4705	1022.2822	1028.5925	1046.8546	1069.2789	1099.8792	1147.3213	1161.5118	1233.7541	1275.8796	1291.3721	1309.6265	1360.5139	1370.2332	1389.6934	1400.063	1465.2616	1474.7254	1481.981	2246.4597	2938.6383	2955.0925	3055.8675	3080.441	3098.9556	3103.8789	3117.608	3504.0151
C#CC1CC2OC2CO1	C#C[C@H]1C[C@H]2O[C@H]2CO1	
InChI=1S/C7H8O2/c1-2-5-3-6-7(9-6)4-8-5/h1,5-7H,3-4H2	InChI=1S/C7H8O2/c1-2-5-3-6-7(9-6)4-8-5/h1,5-7H,3-4H2/t5-,6+,7-/m0/s1
