20
gdb 112085	3.18971	1.29231	1.01711	1.9651	81.51	-0.2359	0.0254	0.2613	1220.1632	0.172236	-403.120807	-403.112421	-403.111477	-403.154029	31.999	
C	 0.0028844503	 1.2295899768	 0.3047765005	-0.234141
O	 0.0224241769	-0.150505107	 0.0305146362	-0.248121
C	 0.6173067955	-0.4923888803	-1.2199893687	 0.10945
C	 2.1226948309	-0.5125474257	-1.1526706089	-0.072668
C	 2.8882219288	-1.4217858295	-1.7518506025	-0.052894
C	 2.3592016618	-2.5723602071	-2.5628505321	-0.266271
C	 0.8847878606	-2.833053702	-2.3302418856	-0.033263
N	 0.4846739902	-3.0115238785	-0.926822224	-0.316833
C	 0.0329485596	-1.8171586603	-1.6568739488	-0.069474
H	 1.0104093149	 1.6599520609	 0.4088913191	 0.104707
H	-0.5282054264	 1.7940513164	-0.4791654199	 0.09913
H	-0.5254080828	 1.3621792454	 1.2524831533	 0.126702
H	 0.3064060209	 0.2624480336	-1.9668820763	 0.066573
H	 2.5836620599	 0.2899399123	-0.5835841722	 0.087468
H	 3.969750535	-1.349832835	-1.6645257903	 0.086484
H	 2.5269025678	-2.380923213	-3.63309282	 0.108571
H	 2.9300635986	-3.4814243795	-2.3304822799	 0.112832
H	 0.4032327213	-3.4626493279	-3.0757532775	 0.079407
H	-0.2784487163	-3.6785623907	-0.8559220925	 0.230449
H	-1.0172774075	-1.767036189	-1.9346199301	 0.081892
79.6016	95.4222	177.6657	207.2663	309.9899	317.4966	376.5561	406.3166	487.8259	527.2325	643.1741	712.0278	781.4065	840.0482	861.0183	881.2008	919.9887	952.5261	987.1377	998.0138	1016.1309	1020.6262	1081.0657	1122.9467	1137.7332	1165.9875	1178.8825	1187.8989	1214.5141	1226.2248	1233.5156	1272.6594	1346.3335	1362.5112	1378.5452	1391.165	1434.6793	1465.9411	1469.7907	1477.0461	1490.5991	1509.7094	1727.281	2917.122	2967.5967	3001.2396	3014.5081	3032.9485	3108.785	3120.8868	3134.5977	3147.2756	3173.697	3510.5947
COC1C=CCC2NC12	CO[C@H]1C=CC[C@H]2N[C@@H]12	
InChI=1S/C7H11NO/c1-9-6-4-2-3-5-7(6)8-5/h2,4-8H,3H2,1H3	InChI=1S/C7H11NO/c1-9-6-4-2-3-5-7(6)8-5/h2,4-8H,3H2,1H3/t5-,6+,7-/m1/s1
