20
gdb 109872	2.36995	1.43124	1.05655	1.0492	75.31	-0.1995	0.0665	0.266	1187.1203	0.169082	-440.21796	-440.208513	-440.207569	-440.251712	35.777	
C	-0.45930691	 1.4581593159	 0.2490113746	-0.329381
N	-0.0597423446	 0.0703561731	 0.0912837252	-0.082578
C	 0.339468592	-0.4044521882	-1.2292210817	-0.098542
C	 1.6738411834	 0.1616064483	-1.6883593198	-0.337587
C	 1.6507236819	-0.9385642522	-0.6705675299	 0.356774
O	 2.3490832763	-2.1070547772	-0.8992025816	-0.461927
C	 1.2149198542	-0.4303290119	 0.7071031279	-0.025585
C	 2.137215917	 0.5203160958	 1.4476347237	-0.10591
O	 1.5354625921	 0.8311307774	 2.6991143714	-0.41895
H	 0.2225266043	 2.1903285511	-0.2184902649	 0.086701
H	-1.447251688	 1.5962601432	-0.2036855848	 0.114549
H	-0.528759348	 1.6896264079	 1.3144564704	 0.137603
H	-0.3798790815	-0.8410965592	-1.9137535384	 0.095
H	 1.9853769843	-0.1830669215	-2.6697991977	 0.120224
H	 1.9803190732	 1.1759467813	-1.4490092768	 0.106298
H	 1.8661305259	-2.8320419024	-0.4857711391	 0.286362
H	 0.9822364555	-1.2595631274	 1.3908182872	 0.080336
H	 3.1054538558	 0.011700982	 1.5828808878	 0.098584
H	 2.3213230269	 1.4296148007	 0.8590768324	 0.089896
H	 2.0927032093	 1.4716628333	 3.1509763943	 0.288133
105.8134	131.6075	179.2441	197.557	238.2034	246.6389	277.8264	328.6288	352.6058	384.0744	486.4957	512.7323	543.1479	607.8324	729.0172	769.1024	860.4433	892.3979	961.2823	975.6302	1003.4482	1044.8146	1056.4607	1067.5399	1084.705	1112.6466	1155.8842	1189.437	1195.7004	1207.1965	1247.544	1249.3525	1271.9183	1298.5235	1335.5422	1366.2029	1419.314	1443.3538	1461.3427	1486.6599	1495.9256	1504.4028	1518.6188	2943.8358	2975.1755	2995.6341	3024.529	3058.2709	3114.6893	3123.1077	3166.4042	3204.3312	3788.3774	3827.3474
CN1C2CC2(O)C1CO	CN1[C@H]2C[C@@]2(O)[C@H]1CO	
InChI=1S/C6H11NO2/c1-7-4-2-6(4,9)5(7)3-8/h4-5,8-9H,2-3H2,1H3	InChI=1S/C6H11NO2/c1-7-4-2-6(4,9)5(7)3-8/h4-5,8-9H,2-3H2,1H3/t4-,5+,6-/m0/s1
