16
gdb 28422	3.11144	1.35295	0.94852	2.5793	75.65	-0.2079	-0.0179	0.19	1175.9675	0.124976	-437.961939	-437.95379	-437.952846	-437.994343	31.139	
C	-0.017355612	 1.5215081042	 0.0701987337	-0.535228
C	 0.0299888794	 0.0170028417	 0.0080062312	 0.214542
C	 0.0107711233	-0.6673833858	-1.2005154848	-0.291295
C	 0.0570521847	-2.0630874237	-1.1898031238	 0.430534
O	 0.0381005547	-2.7269677254	-2.371008752	-0.427906
N	 0.1190983747	-2.7842371955	-0.0797584932	-0.368596
C	 0.1379060975	-2.1313365397	 1.0864786779	-0.062095
C	 0.0958089803	-0.7466990718	 1.1860142764	 0.250559
O	 0.1209182403	-0.1957995392	 2.4377523166	-0.443102
H	 0.8722775464	 1.9344466986	 0.5634476844	 0.138453
H	-0.0666968396	 1.9545349929	-0.9307668082	 0.14242
H	-0.8955099603	 1.8762531944	 0.6254070568	 0.138437
H	-0.0392865867	-0.1371798066	-2.1444656155	 0.104248
H	 0.076843947	-3.6658085807	-2.1431772964	 0.294849
H	 0.1888318943	-2.7279993417	 1.992892318	 0.116839
H	 0.0872733361	 0.7626933083	 2.3679845688	 0.297339
138.3661	158.2243	193.1625	252.9436	286.6879	345.9232	395.0054	454.2565	458.0731	506.5516	530.7409	573.1465	633.3633	765.8271	769.4715	785.4055	884.1736	941.0059	973.1259	1012.0686	1056.8505	1141.9117	1199.2116	1210.2494	1263.1455	1326.4456	1336.2939	1375.8564	1406.8691	1479.6396	1487.0092	1509.8349	1528.1028	1622.2179	1673.775	3013.8781	3061.6581	3125.8643	3170.8761	3196.39	3773.275	3841.3965
CC1=CC(O)=NC=C1O	Cc1cc(O)ncc1O	
InChI=1S/C6H7NO2/c1-4-2-6(9)7-3-5(4)8/h2-3,8H,1H3,(H,7,9)	InChI=1S/C6H7NO2/c1-4-2-6(9)7-3-5(4)8/h2-3,8H,1H3,(H,7,9)
