14
gdb 128970	4.16839	1.61215	1.16253	7.2816	77.32	-0.216	-0.0434	0.1726	961.3139	0.105661	-395.766043	-395.760021	-395.759077	-395.796294	24.405	
N	-0.0235796235	 1.3508353409	 0.0098988168	-0.221843
C	 1.2390367585	 1.8739218455	 0.0005262016	-0.206946
C	 2.1108856003	 0.7943172999	-0.0139553051	 0.213298
C	 3.5175134102	 0.6171592663	-0.0286879187	-0.06075
N	 4.0915962797	-0.5581088791	-0.0408281005	-0.228791
N	 3.3287715869	-1.705402764	-0.0397434854	-0.228791
C	 2.0229308411	-1.6307031525	-0.0265794702	-0.060749
C	 1.3153769691	-0.4021341299	-0.0128142866	 0.213299
C	-0.0174481731	-0.0158447923	 0.0024761499	-0.206946
H	-0.8623733032	 1.9085519159	 0.0211154709	 0.276579
H	 1.405982061	 2.9380889716	 0.0047604764	 0.144399
H	 4.1934754837	 1.4700088338	-0.0305934359	 0.111421
H	 1.4980144912	-2.5839835827	-0.0266637048	 0.111421
H	-0.9341507321	-0.5814964433	 0.0083877815	 0.144399
205.6175	216.7669	390.6944	444.3812	575.85	595.5464	612.4408	615.382	661.9605	664.3207	738.7508	795.4923	809.0461	916.6779	925.8563	927.8267	958.4443	976.0538	1090.7458	1147.6924	1234.0836	1268.3302	1305.742	1330.2572	1356.162	1412.231	1472.8206	1501.6133	1523.4836	1557.8142	1644.8753	3146.7116	3148.7166	3273.4572	3276.4447	3657.5627
N1C=C2C=NN=CC2=C1	[nH]1cc2cnncc2c1	
InChI=1S/C6H5N3/c1-5-3-8-9-4-6(5)2-7-1/h1-4,7H	InChI=1S/C6H5N3/c1-5-3-8-9-4-6(5)2-7-1/h1-4,7H
