22
gdb 123086	5.17656	0.49123	0.48087	3.8018	80.92	-0.2399	0.0368	0.2767	2312.5138	0.191938	-441.520178	-441.508526	-441.507582	-441.560229	39.206	
C	-0.2796249914	 1.4048708415	-0.2644181498	-0.481278
C	-0.358177296	-0.1031462691	-0.4535202806	 0.406609
O	-0.0516154682	-0.6410299724	-1.5029642346	-0.377225
N	-0.7903291972	-0.8065161632	 0.6350550312	-0.309676
C	-0.9791379301	-2.2475916454	 0.5971916442	-0.165529
C	-2.3920924155	-2.6683092601	 0.1718247114	-0.187305
C	-2.5647145789	-4.1891152246	 0.1572927112	-0.162223
C	-3.9547943823	-4.6233086559	-0.2879467375	-0.074167
O	-4.006634057	-6.0412164194	-0.2402852598	-0.421454
H	 0.7131857164	 1.7434878783	-0.5697321604	 0.152972
H	-1.0055027794	 1.8826560789	-0.9287765581	 0.150277
H	-0.4703219469	 1.7325407952	 0.7610472825	 0.108337
H	-1.096025508	-0.301860498	 1.4500201067	 0.241292
H	-0.2481249968	-2.6424272011	-0.1130464674	 0.144083
H	-0.7429974325	-2.6550610888	 1.5870082507	 0.10083
H	-3.1263504644	-2.214335579	 0.8514760045	 0.085231
H	-2.5859608778	-2.254714211	-0.8248954812	 0.119517
H	-1.8271546139	-4.646169497	-0.5134961805	 0.113218
H	-2.3770465912	-4.6035935833	 1.1559770538	 0.102402
H	-4.7145172303	-4.1745677666	 0.3739088299	 0.080877
H	-4.1507903522	-4.2500173073	-1.3063222166	 0.088003
H	-4.8726387065	-6.3213147117	-0.5501018896	 0.285209
20.9347	34.3741	55.3582	68.1364	97.4217	140.4017	157.1559	261.5926	283.3367	299.162	358.3821	418.9567	440.7032	524.7026	619.1322	651.8537	743.3635	789.5511	878.8884	961.3619	983.9828	1003.0064	1045.2731	1051.4354	1057.2455	1091.3928	1108.1862	1177.2135	1217.1446	1230.9457	1266.0456	1295.4092	1301.2905	1317.9673	1343.5738	1373.4901	1394.6683	1411.8791	1463.9506	1468.9191	1470.7523	1486.19	1488.9835	1502.846	1529.0296	1538.7109	1777.9871	2956.0711	2983.1487	3012.9486	3027.5385	3038.2874	3048.0219	3057.5508	3077.6408	3111.3057	3121.6337	3133.1356	3650.7829	3830.7841
CC(=O)NCCCCO	CC(=O)NCCCCO	
InChI=1S/C6H13NO2/c1-6(9)7-4-2-3-5-8/h8H,2-5H2,1H3,(H,7,9)	InChI=1S/C6H13NO2/c1-6(9)7-4-2-3-5-8/h8H,2-5H2,1H3,(H,7,9)
