16
gdb 26820	3.32702	1.17078	0.87544	4.0724	79.17	-0.2444	-0.0693	0.1751	1285.8809	0.122876	-437.946539	-437.937664	-437.936719	-437.980665	30.855	
C	 0.1655940355	 1.4818733385	 0.0323113988	-0.498143
C	-0.03024552	 0.0115104786	 0.0010854098	 0.266524
C	-1.1196838615	-0.8192865743	 0.0373153078	 0.173772
C	-2.5717334065	-0.4855331112	 0.1268020945	-0.497032
N	-0.6758127972	-2.1256990036	-0.0244528925	-0.320159
C	 0.6222724487	-2.0395597147	-0.0934513333	 0.267102
O	 1.0850665778	-0.765366843	-0.0825186367	-0.180604
C	 1.5599523849	-3.1622223321	-0.1771435418	 0.077506
O	 2.7615740408	-3.054399391	-0.2401886549	-0.263691
H	 0.7745517004	 1.7814334306	 0.8921839539	 0.15375
H	 0.677630139	 1.8317487115	-0.8706595485	 0.153751
H	-0.7981191184	 1.9899312603	 0.0997796209	 0.143827
H	-3.1150516889	-0.8805496873	-0.7376440532	 0.146096
H	-3.0181929462	-0.9309258755	 1.021676641	 0.146098
H	-2.7326878768	 0.5943951007	 0.1665871092	 0.125876
H	 1.0363662184	-4.1387234273	-0.1762402552	 0.105325
84.8582	106.5776	118.3587	162.2556	198.4701	260.4944	266.9035	365.2327	386.1263	517.5018	637.265	676.9568	709.0343	714.1978	812.6439	978.2353	1007.0863	1023.9242	1025.0939	1058.4366	1068.8824	1168.0395	1210.4041	1342.9757	1379.9481	1393.8541	1423.0071	1430.2063	1470.8925	1476.1024	1485.507	1490.0819	1564.3062	1644.2944	1795.6338	2945.0843	3038.4584	3042.7768	3091.977	3099.3573	3126.2227	3138.5445
CC1=C(C)N=C(O1)C=O	Cc1c(C)nc(o1)C=O	
InChI=1S/C6H7NO2/c1-4-5(2)9-6(3-8)7-4/h3H,1-2H3	InChI=1S/C6H7NO2/c1-4-5(2)9-6(3-8)7-4/h3H,1-2H3
