14
gdb 131737	2.0091	1.76649	0.99341	5.87	70.29	-0.2644	-0.024	0.2404	1117.6982	0.103046	-432.897654	-432.889617	-432.888673	-432.931571	28.584	
O	 0.0976177503	 1.3196246217	-0.5000451303	-0.404759
C	-0.0288337611	 0.0579108475	 0.1380325384	-0.177185
C	-1.4184369818	-0.4977347737	 0.0367066748	 0.236463
N	-2.1584563813	-0.7000144339	 1.1187453897	-0.270117
N	-3.3357703055	-1.1694937061	 0.654585179	-0.182178
C	-3.380271804	-1.2699755129	-0.6877216194	-0.108891
C	-2.1453751565	-0.838797152	-1.1440543976	 0.053097
C	-1.7123646142	-0.7675836011	-2.4891675207	 0.207075
N	-1.3604666297	-0.7207007895	-3.591365576	-0.347586
H	-0.4964578892	 1.9334384091	-0.0550715245	 0.287829
H	 0.6789969961	-0.5993555391	-0.3765501261	 0.132935
H	 0.2503891035	 0.0941608595	 1.1994813173	 0.116894
H	-4.06218084	-1.4007301993	 1.3119991332	 0.289368
H	-4.2478911166	-1.6284007301	-1.2176730776	 0.167054
26.4984	122.0781	172.3962	182.1345	300.9949	365.8016	418.1777	523.5996	553.4422	565.3021	591.3153	670.9839	702.4182	785.9544	827.194	944.9286	975.2244	1059.2214	1087.8758	1139.6819	1204.2796	1221.0659	1326.0386	1366.2586	1399.1483	1422.0787	1476.3037	1494.2629	1507.3366	1586.4511	2351.7462	3021.3341	3086.4243	3273.9564	3668.9786	3811.1694
OCC1=NNC=C1C#N	OCc1n[nH]cc1C#N	
InChI=1S/C5H5N3O/c6-1-4-2-7-8-5(4)3-9/h2,9H,3H2,(H,7,8)	InChI=1S/C5H5N3O/c6-1-4-2-7-8-5(4)3-9/h2,9H,3H2,(H,7,8)
