19
gdb 113175	3.31564	1.05652	0.93624	12.7426	73.59	-0.1793	0.0146	0.194	1298.6299	0.158865	-456.30583	-456.296787	-456.295842	-456.339767	33.691	
C	 0.2458430587	 1.1659203943	 0.4534977332	-0.336349
N	-0.2294916003	 0.0964372105	-0.458740466	-0.23656
H	-0.3836639992	-0.8938968436	 0.0260575185	 0.30215
H	-1.1228777478	 0.3670538514	-0.8687025172	 0.296274
C	 0.6618234946	-0.3580729477	-1.5457716044	-0.087315
C	 1.9793341345	-0.9744515059	-1.1696258208	-0.330681
C	 0.8220785122	-1.8778555347	-1.4547952459	 0.175308
N	 0.0826171891	-2.4132018072	-0.324984051	-0.58203
C	 0.6639356418	-2.6638332872	-2.7929128892	 0.332993
O	-0.1292568214	-3.6217434013	-2.6825509656	-0.488215
O	 1.2927582195	-2.1796374929	-3.7430744639	-0.477784
H	 1.1725194414	 0.8399041606	 0.923741849	 0.174899
H	 0.430732086	 2.0801318245	-0.1129602863	 0.170236
H	-0.5109924032	 1.346736362	 1.2198331282	 0.158414
H	 0.5194672425	 0.1185663301	-2.5061449276	 0.149477
H	 2.7267375263	-0.936224791	-1.9544079261	 0.169894
H	 2.3524005114	-0.8747543039	-0.1537236058	 0.102171
H	-0.4956159198	-3.1334492811	-0.7919066413	 0.262254
H	 0.6977274537	-2.8966759068	 0.3236751122	 0.244864
90.1847	104.3311	133.8247	174.4947	220.4964	285.8487	333.0655	384.3164	445.4049	490.117	521.8963	555.8413	643.971	748.5381	779.5458	837.7519	852.0024	895.0392	913.1289	947.8286	1001.4708	1022.4295	1072.5557	1090.0977	1102.0776	1150.2195	1181.583	1218.0064	1236.2641	1294.3754	1333.612	1343.718	1391.5928	1420.6099	1461.1519	1464.7187	1492.7805	1503.4108	1640.4897	1682.0549	1791.7014	2251.1718	3069.2089	3117.2295	3152.0561	3176.237	3215.7785	3221.8337	3264.0139	3488.3049	3525.219
C[NH2+]C1CC1(N)C([O-])=O	C[NH2][C@H]1C[C@]1(N)C(=O)[O]	
InChI=1S/C5H10N2O2/c1-7-3-2-5(3,6)4(8)9/h3,7H,2,6H2,1H3,(H,8,9)	InChI=1S/C5H10N2O2/c1-7-3-2-5(3,6)4(8)9/h3H,2,6-7H2,1H3/t3-,5+/m0/s1
