19
gdb 84632	2.73009	1.82471	1.5118	1.5735	79.02	-0.2306	-0.002	0.2286	959.6943	0.161409	-385.893524	-385.88634	-385.885396	-385.924663	29.769	
C	-0.139527815	 1.562625213	-0.0177326386	-0.410752
C	 0.027044029	 0.0356300236	 0.0002600632	-0.024759
C	 0.7144301756	-0.470909357	-1.2559808621	-0.050478
C	 1.7360633867	-1.3264498344	-1.2131638358	-0.073433
C	 2.2160818015	-1.7901569428	 0.1554936813	-0.024805
O	 1.0814121858	-1.8676739886	 1.0219291195	-0.253192
C	 0.7776151831	-0.4896603647	 1.2588203077	 0.006469
C	 2.1605027235	 0.1282678636	 1.4229267049	-0.079724
C	 3.0264189304	-0.6517369588	 0.7821702118	-0.080692
H	 0.8281927193	 2.0679966228	-0.0939378998	 0.123756
H	-0.7472314011	 1.8757917475	-0.8727821178	 0.11674
H	-0.638808566	 1.9167808197	 0.8910098959	 0.112866
H	-0.9769904392	-0.4113771671	 0.0345684108	 0.09139
H	 0.3404569125	-0.0915065294	-2.2047540837	 0.085978
H	 2.2483193674	-1.6669780518	-2.1076522581	 0.089105
H	 2.7075981834	-2.7655206591	 0.1329610796	 0.08169
H	 0.1441305206	-0.4204614208	 2.1482656627	 0.078681
H	 2.3588646283	 1.0688396718	 1.9187302308	 0.104676
H	 4.0847665143	-0.4916669774	 0.6245625675	 0.106484
134.757	240.1788	250.2657	336.0733	344.3332	442.0086	473.524	553.4776	611.8248	687.0937	726.4183	739.2504	783.8	834.5012	882.582	894.8448	929.7489	937.1469	949.8392	962.2061	978.4686	994.1421	1039.934	1065.4534	1099.8063	1123.7354	1148.6926	1186.2545	1261.4782	1276.9687	1295.7382	1312.6871	1318.3323	1355.3236	1368.9209	1391.2511	1411.369	1495.9302	1502.0234	1659.2734	1695.9253	2998.1883	3030.4044	3064.7963	3086.6406	3096.3287	3106.7333	3141.6666	3179.5148	3212.3026	3238.0925
CC1C=CC2OC1C=C2	C[C@H]1C=C[C@@H]2O[C@H]1C=C2	
InChI=1S/C8H10O/c1-6-2-3-7-4-5-8(6)9-7/h2-8H,1H3	InChI=1S/C8H10O/c1-6-2-3-7-4-5-8(6)9-7/h2-8H,1H3/t6-,7-,8-/m0/s1
