25
gdb 115479	3.3357	0.83299	0.71288	0.2428	96.87	-0.224	0.0322	0.2562	1729.6808	0.229108	-352.38785	-352.377567	-352.376623	-352.42353	38.282	
C	-0.0616247714	 1.5116966988	 0.3313166268	-0.386594
C	 0.0064794539	-0.0013124679	 0.1025587242	-0.174566
C	 0.6551440442	-0.4076265279	-1.2307625855	 0.006121
C	 0.8410207964	-1.9420092394	-1.3795148379	-0.233268
C	 0.6295600776	-2.2483349768	-2.8798981575	-0.307077
C	-0.1682118851	-1.053500365	-3.3708409332	 0.337739
C	-0.8391374325	-1.0352651431	-4.7127978645	-0.287796
C	 0.1392890251	-1.1780440523	-5.8922890647	-0.372315
C	-0.1397076206	-0.0656133737	-2.4727951878	-0.183216
H	 0.9381026112	 1.9601457176	 0.306817059	 0.112467
H	-0.6655567121	 2.0107990991	-0.4336900269	 0.116778
H	-0.5058984123	 1.7452162873	 1.3040856817	 0.109993
H	 0.5753533433	-0.4626660632	 0.9207212492	 0.090802
H	-1.0029552384	-0.4308736102	 0.1505361258	 0.091529
H	 1.6367900748	 0.0926601582	-1.2824772797	 0.067496
H	 1.8060660671	-2.2898668319	-1.00057976	 0.090987
H	 0.0637202805	-2.4473426766	-0.79421149	 0.097518
H	 1.5858874796	-2.3211039189	-3.4172342165	 0.102373
H	 0.1131956879	-3.2013176058	-3.0503403723	 0.094651
H	-1.568325745	-1.8569712222	-4.7643207651	 0.099549
H	-1.4099921695	-0.106105873	-4.8216972172	 0.098135
H	-0.3965173447	-1.1621193046	-6.8463818922	 0.111635
H	 0.8669876148	-0.3602149575	-5.8975913278	 0.118677
H	 0.6952972037	-2.1193340908	-5.8385590422	 0.119289
H	-0.6071457686	 0.9031242599	-2.6198303456	 0.079093
60.4477	83.2291	115.3477	130.4491	185.0468	221.7524	240.4339	258.5058	344.3794	398.0521	481.4186	488.3368	604.4668	612.5199	778.4172	787.5451	839.201	853.9013	877.0594	889.9805	949.5785	959.3367	972.4691	989.3709	1035.2473	1058.2056	1068.5982	1087.3065	1126.7623	1130.8237	1185.0534	1194.7293	1247.3688	1264.0053	1274.6669	1292.0205	1302.3506	1329.9902	1348.0016	1353.1487	1372.9395	1382.2044	1407.0834	1411.6683	1479.182	1482.1687	1486.5866	1497.996	1500.1067	1500.177	1506.8061	1508.1923	1714.0083	2955.6488	3001.133	3004.4937	3011.1548	3030.0102	3030.9104	3035.9493	3045.4824	3045.912	3057.2914	3090.0962	3095.8484	3100.275	3106.734	3108.1068	3178.9098
CCC1CCC(CC)=C1	CC[C@H]1CCC(=C1)CC	
InChI=1S/C9H16/c1-3-8-5-6-9(4-2)7-8/h7-8H,3-6H2,1-2H3	InChI=1S/C9H16/c1-3-8-5-6-9(4-2)7-8/h7-8H,3-6H2,1-2H3/t8-/m0/s1
