21
gdb 96372	2.30278	1.74543	1.15222	1.7574	78.21	-0.2569	0.0856	0.3425	1120.9641	0.183719	-424.217741	-424.209459	-424.208515	-424.250239	32.902	
C	-0.1269179428	 1.5135524651	-0.1262706003	-0.425931
C	 0.0510997065	 0.0119045042	 0.0263840188	 0.044789
O	 0.7759762687	-0.4325928961	-1.1276791732	-0.248609
C	 0.9477348231	-1.8225848334	-1.1416203779	 0.020322
O	 1.6851735437	-2.2935576944	-0.0453321136	-0.233735
C	 1.0229696306	-1.974655277	 1.1712013112	-0.163688
C	 0.7739652684	-0.4804598243	 1.2787645989	 0.354987
C	 1.8094279239	 0.3568495939	 1.980822315	-0.294576
C	 0.4817134977	 0.0760189335	 2.6461335979	-0.328703
H	 0.8420734737	 2.0150776927	-0.1904338237	 0.132896
H	-0.6731500481	 1.7195100226	-1.0502151951	 0.12812
H	-0.6935135304	 1.936203713	 0.7076066523	 0.118481
H	-0.9444694584	-0.4695881162	 0.0109362298	 0.063801
H	-0.041863961	-2.3217414683	-1.1658448768	 0.069436
H	 1.5159774397	-2.067689056	-2.0412598809	 0.115235
H	 0.0626131559	-2.5184174882	 1.2231061667	 0.085825
H	 1.6614020135	-2.3338762302	 1.9833199066	 0.105466
H	 2.6928699219	-0.1463104323	 2.359497817	 0.115281
H	 1.9945493539	 1.3643853998	 1.6278353787	 0.116299
H	-0.2265816966	 0.8920417267	 2.7381559191	 0.113873
H	 0.4589552459	-0.6192648151	 3.4800725693	 0.110433
95.6217	187.0383	224.9303	265.092	278.3754	335.8909	350.1293	416.2846	440.9122	498.2351	540.2198	658.9307	752.424	779.2422	844.6796	891.3752	929.0989	951.1218	960.3538	984.9219	1039.1471	1056.2495	1057.3	1069.3627	1084.1824	1102.1786	1117.4256	1157.0438	1185.032	1211.506	1259.7324	1286.6434	1322.3852	1356.0234	1367.3927	1384.9531	1401.5521	1417.5521	1445.2894	1467.5859	1485.2486	1490.1662	1503.7399	1506.8653	1513.4365	2901.3786	2926.3265	2949.0903	3051.7942	3083.8602	3110.5921	3124.0824	3126.0146	3129.844	3138.8649	3204.5136	3224.1531
CC1OCOCC11CC1	C[C@H]1OCOCC21CC2	
InChI=1S/C7H12O2/c1-6-7(2-3-7)4-8-5-9-6/h6H,2-5H2,1H3	InChI=1S/C7H12O2/c1-6-7(2-3-7)4-8-5-9-6/h6H,2-5H2,1H3/t6-/m1/s1
