14
gdb 47262	2.48338	1.82415	1.17579	5.2525	66.05	-0.2425	-0.0618	0.1807	996.6536	0.101783	-473.864414	-473.856741	-473.855797	-473.897204	27.822	
O	 0.0323568303	-0.1179487789	 0.1623790298	-0.333702
C	-0.0160028508	 1.0876813725	 0.0874277032	 0.353759
N	-1.1941083181	 1.7942196432	 0.1849029772	-0.35312
C	-1.4545266576	 3.1653658342	 0.0537518196	 0.022531
C	-0.6231098673	 4.210273909	 0.1035646667	-0.1027
C	 0.8490290213	 4.2182749375	 0.3816346211	-0.156295
O	 1.3314723072	 2.9395612356	 0.8107899641	-0.241481
C	 1.2364718975	 1.9469583535	-0.126292684	 0.312065
O	 2.0518456925	 1.7354131743	-0.9687797952	-0.275373
H	-1.9982328203	 1.1874588979	 0.2663105439	 0.264681
H	-2.5076366765	 3.3515829808	-0.1264591216	 0.123906
H	-1.0653987554	 5.1866890969	-0.0679913714	 0.109419
H	 1.4235025948	 4.5582907776	-0.4926588172	 0.135678
H	 1.0780804025	 4.8995459959	 1.2070262939	 0.140631
58.7001	124.7044	166.8367	270.7742	319.3535	369.442	438.7272	478.5259	604.5141	615.9015	718.8918	725.6311	748.46	846.3413	871.4418	895.7135	965.1859	1015.9176	1041.1711	1105.4838	1116.4733	1257.2408	1271.4151	1364.1742	1396.516	1448.3683	1483.6314	1493.3124	1740.3792	1800.7011	1870.3598	3000.9895	3077.3775	3175.5744	3196.6888	3602.853
O=C1NC=CCOC1=O	O=C1NC=CCOC1=O	
InChI=1S/C5H5NO3/c7-4-5(8)9-3-1-2-6-4/h1-2H,3H2,(H,6,7)	InChI=1S/C5H5NO3/c7-4-5(8)9-3-1-2-6-4/h1-2H,3H2,(H,6,7)
