16
gdb 12680	2.68247	2.28275	1.52506	0.9093	60.18	-0.2591	-0.0392	0.2199	851.8234	0.129545	-420.894152	-420.886412	-420.885467	-420.926075	28.744	
C	 0.5456159052	 1.3611163491	-0.2395406425	-0.396729
C	-0.1325620579	 0.0605017409	 0.1741573558	 0.070116
O	-0.0902561521	-0.947693435	-0.8597564718	-0.269524
C	 1.1401434509	-1.6490945468	-0.7874232493	-0.179758
C	 1.6463298835	-1.4236394697	 0.6285404234	 0.332259
O	 2.721145701	-1.6904301184	 1.1027084094	-0.319831
C	 0.55672194	-0.6447726739	 1.3586050435	 0.040964
O	 1.075743089	 0.1787224948	 2.361298353	-0.43459
H	 1.6125289047	 1.2165825982	-0.4412058542	 0.118503
H	 0.0738880422	 1.755776132	-1.1429705348	 0.126067
H	 0.459359051	 2.0986829747	 0.5621088501	 0.140383
H	-1.1940811853	 0.2346090145	 0.3650065099	 0.097271
H	 0.9709550219	-2.7110249565	-0.998560615	 0.141792
H	 1.8855859494	-1.2763775232	-1.505624333	 0.132242
H	-0.1513374815	-1.386648019	 1.7692661295	 0.105274
H	 1.9567743379	-0.1706040017	 2.5645400159	 0.295561
95.6679	164.6217	213.4337	240.3857	259.3218	385.2177	395.888	456.4042	492.9934	596.9106	637.2778	720.0591	752.2664	829.9187	912.9198	976.0562	1040.2573	1068.8126	1089.0396	1125.8371	1133.8163	1188.6582	1215.6622	1235.1194	1310.0105	1340.5722	1363.0497	1384.476	1405.235	1414.3804	1478.6104	1490.0036	1492.6234	1853.7772	2950.0115	3000.9667	3043.3078	3065.2372	3082.2743	3115.873	3134.8121	3712.0419
CC1OCC(=O)C1O	C[C@H]1OCC(=O)[C@H]1O	
InChI=1S/C5H8O3/c1-3-5(7)4(6)2-8-3/h3,5,7H,2H2,1H3	InChI=1S/C5H8O3/c1-3-5(7)4(6)2-8-3/h3,5,7H,2H2,1H3/t3-,5+/m1/s1
