21
gdb 114680	3.18087	1.27526	1.20975	1.1677	81.81	-0.2322	0.0215	0.2537	1132.4887	0.185514	-387.093713	-387.085926	-387.084982	-387.125873	31.59	
O	-0.1178433308	 1.4933304888	 0.0258605216	-0.42511
C	 0.028940423	 0.0785557693	 0.0759408811	-0.105698
C	-1.3573147266	-0.5342644437	-0.0390775689	 0.061737
C	-2.0708599062	-0.2768903966	-1.4041245806	-0.21678
C	-2.479175394	-1.7176487346	-1.865892296	-0.054792
C	-2.8099553674	-2.3682172898	-0.5009047841	-0.213103
C	-1.3991058519	-2.1009329102	 0.0757973676	-0.083034
C	-0.5413719508	-2.6693001893	-1.0467332528	-0.077544
C	-1.1834169299	-2.4427576502	-2.1975347955	-0.074639
H	 0.7599356921	 1.8857323769	 0.0310077587	 0.284142
H	 0.6659422703	-0.2816325072	-0.7458907043	 0.085081
H	 0.4990202529	-0.2348656762	 1.0234106271	 0.076964
H	-1.9612157128	-0.1164643066	 0.7740731665	 0.076879
H	-2.9527782812	 0.3568032066	-1.276381546	 0.097227
H	-1.4162348379	 0.2181257216	-2.1255190623	 0.100505
H	-3.2534735762	-1.7422954172	-2.6335198983	 0.055593
H	-3.6084272664	-1.8552341817	 0.0460232983	 0.08688
H	-3.0395285188	-3.4337142225	-0.5808366616	 0.092217
H	-1.1904780812	-2.4760819748	 1.0789814772	 0.054104
H	 0.4505430268	-3.0848468362	-0.9183246217	 0.089726
H	-0.8208842727	-2.6284134263	-3.2013048558	 0.089647
102.2599	144.6134	203.3837	270.8602	339.9392	422.5135	454.9102	479.9892	494.896	677.7008	745.3958	780.177	797.8168	832.1645	842.5875	907.9396	917.87	936.0954	951.757	956.6884	969.3178	984.1557	1029.0538	1062.8766	1075.78	1105.8164	1118.5791	1141.6356	1171.3436	1181.0601	1212.0165	1237.8559	1265.634	1279.4221	1285.0145	1293.5196	1306.9464	1328.1819	1367.5047	1377.2261	1456.3328	1490.6124	1503.6122	1523.8674	1641.7185	2955.778	3000.6823	3041.6715	3046.5969	3061.708	3099.545	3102.9395	3107.2858	3109.1522	3191.3422	3217.3772	3828.6661
OCC1CC2CC1C=C2	OC[C@H]1C[C@@H]2C[C@H]1C=C2	
InChI=1S/C8H12O/c9-5-8-4-6-1-2-7(8)3-6/h1-2,6-9H,3-5H2	InChI=1S/C8H12O/c9-5-8-4-6-1-2-7(8)3-6/h1-2,6-9H,3-5H2/t6-,7+,8+/m0/s1
