17
gdb 34369	2.6118	1.63712	1.30211	5.0682	77.07	-0.2412	0.0003	0.2416	1011.832	0.138161	-380.870254	-380.862723	-380.861779	-380.902499	29.045	
N	-0.0707179129	-1.0838241817	 0.3649523384	-0.350222
C	-0.0614371384	 0.0573077603	 0.1799612994	 0.270142
C	-0.0278903992	 1.4992440059	-0.0783279356	 0.171828
C	-0.7251434755	 1.8687661661	-1.4178692499	-0.330638
C	 0.2453308682	 2.824510695	-2.0683403719	-0.066191
C	 1.3799195599	 2.9668673176	-1.3844250062	-0.077954
C	 1.3888646667	 2.1907490995	-0.1010328331	-0.119298
C	 0.9219121752	 2.9917541086	 1.1506190407	-0.16634
N	-0.3873600772	 2.2923805114	 1.1231832989	-0.34568
H	-0.9077078093	 0.9855969837	-2.0418381278	 0.134462
H	-1.7096283735	 2.3161337116	-1.2271382904	 0.117526
H	 0.0198359331	 3.3140823571	-3.0092415177	 0.106489
H	 2.2119182807	 3.5970447384	-1.6789755503	 0.106715
H	 2.2646925681	 1.5550931458	 0.0422726744	 0.102721
H	 1.4796775821	 2.787931604	 2.0706548931	 0.116234
H	 0.8772183055	 4.0748785844	 0.9968177545	 0.104817
H	-1.1963030835	 2.887842182	 0.9901250935	 0.225391
69.2028	152.9294	189.3633	253.2178	359.8413	441.9299	509.5227	549.4516	577.901	606.4944	716.89	747.3073	772.7676	843.0692	900.0047	934.8962	962.0896	974.6816	1003.9263	1017.16	1054.7364	1062.5474	1096.8088	1111.9202	1139.2975	1171.4296	1215.3753	1246.5884	1297.641	1320.9149	1337.1228	1365.4146	1386.2602	1480.3472	1515.6784	1684.1774	2351.9339	3021.9664	3033.9246	3054.0802	3077.5742	3096.9733	3185.5766	3209.7091	3545.0909
N#CC12CC=CC1CN2	N#C[C@]12CC=C[C@H]1CN2	
InChI=1S/C7H8N2/c8-5-7-3-1-2-6(7)4-9-7/h1-2,6,9H,3-4H2	InChI=1S/C7H8N2/c8-5-7-3-1-2-6(7)4-9-7/h1-2,6,9H,3-4H2/t6-,7+/m0/s1
