24
gdb 60368	3.48213	0.65514	0.59916	4.0247	88.3	-0.2383	0.0335	0.2718	1950.5816	0.215447	-405.58553	-405.574148	-405.573203	-405.623439	40.077	
C	 0.0221549339	 1.5114524174	-0.1589476587	-0.390299
C	 0.0363077572	-0.0119284641	 0.0277361496	 0.045869
C	 0.8138150636	-0.3910923095	 1.2970908364	-0.385286
C	-1.4008557632	-0.5642682989	 0.0268278578	-0.174235
C	-1.4871333436	-2.0978960915	-0.0022968465	-0.193802
N	-2.8458240627	-2.6090878491	-0.0837274366	-0.024759
C	-3.5779541614	-2.4800692326	-1.3317618525	-0.34804
C	-3.4342902746	-3.2278669702	 0.979541565	 0.150996
O	-4.5606567145	-3.6789340317	 1.0048791439	-0.344676
H	 1.0394910433	 1.9138671977	-0.2009253861	 0.112333
H	-0.4908652235	 1.7969187418	-1.0832690935	 0.111219
H	-0.4945124265	 2.0030237662	 0.6739509463	 0.115318
H	 0.5621327907	-0.4499384818	-0.8338424063	 0.07291
H	 0.9178808014	-1.4738604292	 1.4155727514	 0.114522
H	 1.8233100676	 0.0319929996	 1.2746312907	 0.11506
H	 0.3128377583	-0.0028839335	 2.1922050924	 0.115346
H	-1.9401846737	-0.1961818588	 0.910077845	 0.101038
H	-1.9288168912	-0.162803472	-0.8463834219	 0.098001
H	-0.9114832276	-2.4832681581	-0.8562524622	 0.104958
H	-1.033658658	-2.5182249873	 0.9003886909	 0.117312
H	-2.9996020537	-2.907190331	-2.1598320815	 0.121258
H	-4.516850729	-3.0229841098	-1.22172628	 0.168691
H	-3.7988725813	-1.4330846006	-1.5679894792	 0.128065
H	-2.7489201712	-3.279584903	 1.8489934156	 0.068198
29.9507	54.1634	93.5446	109.746	147.7896	209.9898	231.0346	249.8234	279.262	333.3741	346.9586	362.8666	418.1153	420.279	462.1395	704.1318	771.4266	834.891	882.3831	927.3625	942.8315	965.5585	988.2084	1028.429	1036.7459	1089.7531	1140.4482	1146.7785	1167.6925	1192.9306	1234.7104	1276.5058	1300.8338	1322.7341	1364.5394	1373.7974	1401.9299	1405.4423	1423.8812	1432.5572	1439.3177	1443.3459	1478.5443	1488.5429	1494.5631	1499.0481	1500.8318	1506.5316	1510.931	1522.7933	1794.4525	2930.6381	2991.0508	3001.5808	3020.5451	3023.1455	3024.8367	3030.2676	3057.4465	3074.4459	3085.643	3090.4569	3096.0641	3100.644	3104.3268	3154.5754
CC(C)CCN(C)C=O	CC(C)CCN(C)C=O	
InChI=1S/C7H15NO/c1-7(2)4-5-8(3)6-9/h6-7H,4-5H2,1-3H3	InChI=1S/C7H15NO/c1-7(2)4-5-8(3)6-9/h6-7H,4-5H2,1-3H3
