19
gdb 6880	2.91075	1.64728	1.45153	1.0407	79.14	-0.2196	0.0362	0.2557	992.0557	0.161925	-327.870932	-327.861469	-327.860525	-327.904183	35.067	
C	-0.2553486595	 1.4794444676	 0.0151897668	-0.317564
N	 0.0328660017	 0.0529344318	 0.082444783	-0.132227
C	 1.3784392096	-0.4332098768	-0.2909951382	-0.263114
C	 2.4282265459	 0.4679980497	-0.6758591601	 0.353953
C	 3.3049986028	 1.2116454757	-1.0331584593	-0.461217
C	 0.8805582273	-0.49782627	 1.1373096616	 0.312483
C	 1.5070926436	 0.3922519037	 2.1936800329	-0.461001
C	 0.409421295	-1.8425056104	 1.6587919474	-0.435857
H	 0.601278122	 2.1395663589	 0.2013050696	 0.117052
H	-0.6421010065	 1.7065424587	-0.9831173789	 0.126712
H	-1.041017288	 1.7098313667	 0.7414494955	 0.121102
H	 1.3548776636	-1.3530061961	-0.8735979443	 0.106185
H	 4.0843320654	 1.8617465069	-1.3456472987	 0.197248
H	 1.9684433374	 1.2864581437	 1.773868405	 0.135013
H	 0.7551486009	 0.69776894	 2.9301894166	 0.118811
H	 2.285944113	-0.1600707056	 2.7293716144	 0.123444
H	 1.2452031655	-2.4183920342	 2.0711949051	 0.11548
H	-0.3298372128	-1.7052489052	 2.456522855	 0.117287
H	-0.0609581771	-2.4224255852	 0.8614442966	 0.12621
129.4812	143.9459	159.251	167.7733	198.6911	235.2648	276.3687	347.0689	369.7677	388.1604	468.2889	543.1711	590.4065	607.794	656.9575	699.8034	727.088	856.1516	957.5493	973.0264	1008.5636	1043.3776	1085.8051	1136.5702	1154.2869	1165.1442	1183.9863	1274.7776	1336.7669	1392.8929	1407.3719	1419.5286	1452.2884	1477.956	1481.5132	1488.2907	1495.2056	1505.6005	1513.2159	2225.5263	3014.5871	3028.6257	3038.06	3081.729	3089.9171	3095.4788	3104.8999	3108.999	3124.4393	3143.2798	3502.3759
CN1C(C#C)C1(C)C	CN1[C@@H](C#C)C1(C)C	
InChI=1S/C7H11N/c1-5-6-7(2,3)8(6)4/h1,6H,2-4H3	InChI=1S/C7H11N/c1-5-6-7(2,3)8(6)4/h1,6H,2-4H3/t6-,8?/m0/s1
