19
gdb 38848	2.81259	1.87385	1.56951	0.6556	72.85	-0.2449	0.0858	0.3307	916.239	0.163091	-423.028672	-423.022079	-423.021134	-423.059362	27.566	
C	-0.0107507293	 1.5443909586	-0.0327620041	-0.070434
O	 1.35737994	 1.9646774795	-0.012169357	-0.280133
C	 2.2135563391	 0.813446327	-0.1062399838	 0.105572
C	 1.3258471676	-0.2690638118	-0.7303806428	-0.24729
C	 0.0332879839	 0.0108088236	 0.0548066702	-0.085004
C	 0.2253772167	-0.3907477145	 1.5119485217	 0.054654
O	 1.0924263165	-1.4920669381	 1.7835516167	-0.261999
C	 1.5457283105	-0.1718270752	 2.1287712596	 0.054697
C	 2.6825998967	 0.4065139982	 1.3006110942	-0.240193
H	-0.5415361219	 2.0073538477	 0.8084333313	 0.099575
H	-0.4902741337	 1.8785524027	-0.9636641285	 0.094203
H	 3.0691580214	 1.0941470094	-0.7273644458	 0.075468
H	 1.1772493596	-0.085418617	-1.7982220084	 0.09998
H	 1.7021627796	-1.2806034369	-0.5815891934	 0.124382
H	-0.8542406409	-0.4629108965	-0.3724747168	 0.074387
H	-0.6655233937	-0.3523549188	 2.1397057674	 0.090013
H	 1.5978427337	-0.0040732116	 3.2040873541	 0.09289
H	 3.500088051	-0.3226723577	 1.2387223313	 0.108045
H	 3.0752933529	 1.2961562617	 1.8040176639	 0.111187
159.0632	246.8618	300.4567	380.2261	415.1516	445.5059	544.7137	618.6192	750.6571	785.7229	797.4823	837.2853	873.1863	875.5139	901.2536	918.5621	950.6778	992.8181	997.8788	1035.6255	1055.9555	1074.2268	1081.8433	1110.4541	1149.1703	1171.4467	1201.827	1221.7884	1247.8474	1291.9681	1310.375	1321.4004	1329.9554	1352.2502	1372.9875	1391.5731	1398.8684	1455.5267	1469.5067	1487.4705	1528.2599	2999.7599	3032.6836	3043.8919	3061.3732	3071.1778	3081.1333	3082.4908	3102.3816	3116.6343	3145.0034
C1OC2CC1C1OC1C2	C1O[C@@H]2C[C@H]1[C@H]1O[C@H]1C2	
InChI=1S/C7H10O2/c1-4-3-8-5(1)2-6-7(4)9-6/h4-7H,1-3H2	InChI=1S/C7H10O2/c1-4-3-8-5(1)2-6-7(4)9-6/h4-7H,1-3H2/t4-,5-,6+,7-/m1/s1
