22
gdb 121477	3.91231	0.59933	0.55972	4.5389	85.59	-0.2454	0.0133	0.2587	2076.3105	0.191397	-441.485566	-441.474431	-441.473487	-441.52356	38.735	
C	-0.1432736282	 1.4787408728	-0.061356414	-0.384882
C	-0.1122945046	-0.0298072186	 0.0940658335	-0.055005
O	-1.4547963357	-0.5123254331	-0.0399476677	-0.205154
C	-1.6134762371	-1.8448854249	 0.030290523	 0.127829
N	-2.7557095426	-2.3654491239	-0.0615544984	-0.237264
C	-2.8654380645	-3.8185487813	 0.0060058473	 0.020866
C	-3.5660792222	-4.2214851456	 1.308654803	-0.369202
C	-3.6739810629	-4.2551488307	-1.2298303826	-0.043216
O	-4.9241606126	-3.6019966662	-1.2884409316	-0.423524
H	 0.8666721429	 1.8864325891	 0.0394392517	 0.122789
H	-0.5352534233	 1.7562320058	-1.0434276453	 0.137231
H	-0.7799423585	 1.9307739572	 0.7037276323	 0.137918
H	 0.5240090428	-0.4898095862	-0.6739177787	 0.110408
H	 0.2847221835	-0.3142929828	 1.0778355221	 0.110903
H	-0.6804666268	-2.4128869176	 0.1708092416	 0.07728
H	-1.8747636071	-4.304751168	-0.041003851	 0.053396
H	-3.0144616148	-3.8518956278	 2.1777656235	 0.106699
H	-4.5761301298	-3.8062613201	 1.3330066936	 0.136669
H	-3.6379732336	-5.311556149	 1.3817778914	 0.109883
H	-3.0738353148	-4.0564499771	-2.1332212712	 0.077238
H	-3.8713553702	-5.332230292	-1.1893400394	 0.098071
H	-4.7299331601	-2.67120202	-1.1117913232	 0.291066
26.1013	51.0825	91.7418	115.8554	147.1055	221.0113	224.8106	247.7625	259.1456	284.3157	335.8281	447.1102	478.9415	512.3276	558.7886	683.4673	817.1475	830.281	914.243	933.8027	962.6669	991.8936	1018.6775	1064.806	1096.3611	1137.8617	1142.9999	1164.4845	1182.3672	1234.4461	1249.5188	1301.7889	1324.347	1355.6248	1384.2681	1394.37	1405.5533	1414.8394	1436.3076	1444.1196	1483.6988	1486.8523	1498.6845	1498.8848	1507.3379	1522.4866	1771.0631	2938.4315	2967.9119	2990.9308	3008.2821	3041.3476	3043.9205	3050.1906	3064.5187	3109.938	3125.6953	3130.2467	3134.1841	3750.9123
CCOC=NC(C)CO	CCOC=N[C@@H](C)CO	
InChI=1S/C6H13NO2/c1-3-9-5-7-6(2)4-8/h5-6,8H,3-4H2,1-2H3	InChI=1S/C6H13NO2/c1-3-9-5-7-6(2)4-8/h5-6,8H,3-4H2,1-2H3/t6-/m0/s1
