16
gdb 121787	2.37381	0.93341	0.76388	5.5165	70.76	-0.2723	-0.0165	0.2558	1479.1606	0.12351	-434.058403	-434.048647	-434.047703	-434.094144	33.319	
O	-0.0971965728	 1.4226959591	-0.2844712464	-0.419088
C	-0.0353573838	 0.0502374356	 0.0801162282	-0.089434
C	-1.4676202286	-0.4586120643	 0.1142482697	-0.138379
N	-2.0492835941	-0.316964844	-1.221433763	-0.281047
C	-3.4534912894	-0.6713381122	-1.3100044823	-0.24292
C	-4.3610134213	 0.1630322648	-0.4737660816	 0.29079
N	-5.0023148412	 0.8254131665	 0.222188629	-0.30968
C	-3.8985590999	-0.6354073528	-2.7149056405	 0.306813
N	-4.2381139634	-0.6122910112	-3.8173797161	-0.297486
H	 0.7912378739	 1.7315651559	-0.4824764696	 0.29845
H	 0.5414924258	-0.5317454523	-0.6524164443	 0.10806
H	 0.4220245823	-0.0853515954	 1.0710249836	 0.102063
H	-1.471373084	-1.518409221	 0.3960943021	 0.112911
H	-2.0267472858	 0.098433401	 0.8830539477	 0.125991
H	-1.8982870247	 0.6353313641	-1.5419190586	 0.255554
H	-3.566178763	-1.7069733937	-0.959687758	 0.177403
53.7027	74.366	112.0019	133.3841	187.6207	238.2254	251.5332	293.6338	333.3549	379.7559	493.1539	512.4549	578.6819	636.9424	786.7568	865.6213	891.7199	939.3623	1012.0199	1071.228	1098.3606	1131.9824	1154.8641	1221.3627	1263.0461	1295.0313	1309.9952	1332.2199	1400.4066	1458.1682	1492.2857	1503.6574	1514.2084	2353.362	2377.9681	2982.3342	2992.4678	3024.3286	3034.3564	3059.6983	3526.6149	3842.3309
OCCNC(C#N)C#N	OCCNC(C#N)C#N	
InChI=1S/C5H7N3O/c6-3-5(4-7)8-1-2-9/h5,8-9H,1-2H2	InChI=1S/C5H7N3O/c6-3-5(4-7)8-1-2-9/h5,8-9H,1-2H2
