15
gdb 44925	3.14705	1.48169	1.4639	3.9494	64.27	-0.2577	-0.0419	0.2158	935.144	0.114554	-457.825988	-457.819395	-457.818451	-457.857105	26.033	
O	 0.0232055823	 0.0095853089	-0.0013999715	-0.306479
C	-0.0156855359	 1.2066367358	 0.0185370179	 0.439683
C	-1.2594517246	 2.1201030258	 0.0395640744	-0.348502
C	-0.6140732103	 3.534050113	 0.0260460193	-0.174409
C	 0.620059792	 3.3162943199	-0.8832027157	-0.263848
C	 1.1712895176	 2.1945614695	 0.0046518853	-0.005646
O	 1.1615402547	 2.7991296996	 1.328058804	-0.243014
C	 0.0863369089	 3.6594707356	 1.3764216627	 0.454451
O	-0.1827509746	 4.3059411771	 2.3414464338	-0.335037
H	-1.8553289237	 1.9424746213	-0.8613011716	 0.143752
H	-1.8927659879	 1.922364838	 0.9077296534	 0.156658
H	-1.2841857221	 4.3615015363	-0.1915975402	 0.109263
H	 0.3675042981	 2.9832567258	-1.8935248555	 0.125301
H	 1.2888087193	 4.1787469345	-0.9314961376	 0.133917
H	 2.1522461862	 1.768752549	-0.1876218588	 0.11391
107.1942	187.7611	314.1979	398.7837	460.0651	477.9144	539.5793	584.5603	693.0094	735.3533	762.5591	815.2717	835.2633	906.6969	939.2317	955.2998	964.1176	981.5522	1017.7971	1082.8438	1111.5933	1147.4237	1169.2493	1193.6503	1231.0395	1294.4638	1302.7797	1306.9701	1331.5574	1453.0757	1493.9227	1876.833	1906.5512	3063.5776	3068.2065	3117.4393	3126.2825	3159.1798	3170.5862
O=C1CC2CC1OC2=O	O=C1C[C@@H]2C[C@H]1OC2=O	
InChI=1S/C6H6O3/c7-4-1-3-2-5(4)9-6(3)8/h3,5H,1-2H2	InChI=1S/C6H6O3/c7-4-1-3-2-5(4)9-6(3)8/h3,5H,1-2H2/t3-,5-/m1/s1
