20
gdb 88124	2.47445	1.49201	1.10489	2.4456	80.42	-0.2427	-0.0235	0.2192	1168.1592	0.17185	-403.171474	-403.162903	-403.161958	-403.204634	32.799	
C	-0.1253185105	 1.5066066116	-0.0677802158	-0.400853
C	-0.03408988	 0.0097094763	 0.0850248784	-0.037364
N	 1.2580922087	-0.6170469393	-0.1767361555	-0.385199
C	 0.7413623624	-0.6462313868	 1.1968241992	 0.252259
C	 1.4235169048	 0.0506274491	 2.3595024079	-0.312929
C	 0.6629591194	-0.4954701671	 3.5928990238	-0.222118
C	 0.3237185529	-1.9538955395	 3.2299187341	-0.323211
C	 0.1895769656	-1.9487511964	 1.7095456603	 0.351558
O	-0.2424138053	-2.8346312881	 1.0081521997	-0.346249
H	 0.812075801	 1.9891186837	 0.2181776616	 0.131434
H	-0.3269965438	 1.7647711079	-1.112918065	 0.128175
H	-0.9369654608	 1.917965789	 0.5418763344	 0.118191
H	-0.9135741097	-0.5485542252	-0.2333027764	 0.10297
H	 1.1069147117	-1.5439984251	-0.5783364525	 0.241312
H	 2.479241582	-0.2438347655	 2.3952082452	 0.113057
H	 1.3921266036	 1.1402773213	 2.2971003085	 0.108207
H	 1.2432019535	-0.4093324341	 4.5140847486	 0.106974
H	-0.262087851	 0.0738768799	 3.7359870351	 0.109623
H	 1.154342865	-2.6279511545	 3.4791562486	 0.134735
H	-0.5699288995	-2.3588646373	 3.7103163697	 0.12943
88.7024	149.4712	157.5582	187.8848	234.213	289.9173	382.0536	453.713	478.9667	534.9385	572.0006	643.384	678.8723	768.6786	835.4796	852.322	900.0928	918.1792	965.9681	1010.7738	1021.0297	1033.4081	1060.81	1089.2182	1124.1053	1151.3794	1175.8822	1189.8371	1236.536	1258.8517	1277.0651	1298.2912	1322.2454	1335.1697	1373.8698	1405.5952	1448.6131	1456.4595	1484.9921	1493.3665	1498.2298	1504.8248	1818.2078	3031.067	3036.6487	3039.9764	3049.3413	3097.8408	3102.7118	3106.8894	3111.964	3115.344	3133.5385	3447.1241
CC1NC11CCCC1=O	C[C@H]1N[C@]21CCCC2=O	
InChI=1S/C7H11NO/c1-5-7(8-5)4-2-3-6(7)9/h5,8H,2-4H2,1H3	InChI=1S/C7H11NO/c1-5-7(8-5)4-2-3-6(7)9/h5,8H,2-4H2,1H3/t5-,7+/m1/s1
