18
gdb 115179	2.55887	1.31343	1.02197	2.8865	67.13	-0.2454	0.0097	0.2551	1181.133	0.148585	-476.25073	-476.241682	-476.240738	-476.284757	32.811	
N	 0.3286657961	 1.2194569019	 0.6553604862	-0.517079
C	 0.0078225044	-0.0365237962	-0.0045794505	-0.146152
C	-1.4599685075	-0.4948945057	 0.0641045025	-0.015677
C	-2.4560895018	 0.6557996139	-0.063067792	-0.102136
O	-3.7556907957	 0.0843744412	-0.0608262122	-0.421737
C	-1.5245728097	-1.4406704101	-1.1468156157	-0.095069
O	-0.5945243423	-0.9099004565	-2.1186393183	-0.223135
C	 0.2981896059	-0.0882709493	-1.5150929955	 0.415736
O	 1.1553266165	 0.5006221958	-2.1105760241	-0.350139
H	 1.3373258104	 1.3426619796	 0.6392919389	 0.245593
H	-0.0339329674	 1.9959234169	 0.1077838684	 0.236979
H	 0.6287365325	-0.8189569104	 0.4521420479	 0.117287
H	-1.6815066598	-1.0313849465	 0.9896692848	 0.098428
H	-2.3169319092	 1.3472322851	 0.7789587838	 0.112016
H	-2.2719929685	 1.2161135256	-0.9954591094	 0.095251
H	-4.3992411834	 0.7920643517	-0.1577668306	 0.292362
H	-1.2144959541	-2.4595380842	-0.889651044	 0.114527
H	-2.5123862265	-1.4712355029	-1.6070158001	 0.142944
73.7648	120.6037	166.1953	188.1525	202.3635	257.329	270.4993	299.3229	418.9109	473.8999	536.2409	624.9597	707.9104	750.9956	807.8727	864.2988	914.9196	948.4738	999.2539	1017.8835	1070.6333	1078.7069	1126.5303	1161.4785	1180.6976	1213.0637	1229.8231	1240.8103	1267.1939	1284.7298	1314.3675	1371.6653	1385.8246	1423.5881	1458.9151	1522.7374	1528.1062	1677.6926	1874.9618	2960.8472	3023.2325	3026.201	3046.1193	3088.8101	3135.4543	3490.5856	3559.1852	3835.284
NC1C(CO)COC1=O	N[C@H]1[C@@H](CO)COC1=O	
InChI=1S/C5H9NO3/c6-4-3(1-7)2-9-5(4)8/h3-4,7H,1-2,6H2	InChI=1S/C5H9NO3/c6-4-3(1-7)2-9-5(4)8/h3-4,7H,1-2,6H2/t3-,4-/m0/s1
