16
gdb 79172	2.88672	1.89187	1.41913	4.3259	68.36	-0.2235	0.0066	0.23	920.6118	0.125541	-437.863589	-437.856516	-437.855572	-437.895126	27.343	
C	-0.05139911	 1.3622587309	-0.2111142228	-0.348783
N	-0.0054351342	-0.037529889	 0.149337583	-0.072989
C	-1.150429863	-0.9016212351	 0.1558060207	-0.050209
C	-1.1613864985	-2.076231516	-0.8421043404	 0.076885
O	 0.1393443464	-2.2628149617	-1.3781448225	-0.292643
C	 0.6928843107	-2.2263032824	-0.0096578481	-0.057562
C	-0.7281234371	-2.2796145049	 0.5850284453	-0.175204
C	 1.1652996184	-0.7689500699	 0.1201997373	 0.443613
O	 2.2942636428	-0.3339698547	 0.0757015743	-0.394633
H	 0.9725513387	 1.7388701234	-0.1766301637	 0.166221
H	-0.4510174373	 1.5064117111	-1.2230212976	 0.130145
H	-0.6674741209	 1.9298485465	 0.4946481355	 0.124342
H	-2.088590608	-0.4816459092	 0.4974026295	 0.112169
H	-2.0115635728	-2.4042153098	-1.4284866194	 0.118142
H	 1.4354680102	-3.0009339522	 0.1621578764	 0.107311
H	-1.1037531055	-2.8561026869	 1.4187986125	 0.113195
117.6135	160.4611	183.6914	288.278	394.2057	436.6737	546.1085	616.5901	699.9554	735.5629	751.4776	792.669	826.0116	842.1101	884.2206	935.2813	985.574	1020.5468	1032.7042	1049.2174	1068.9512	1108.9059	1133.5507	1158.8965	1212.4829	1226.1097	1250.5547	1273.7339	1318.5811	1353.9143	1422.6871	1459.1682	1493.6745	1515.3902	1821.8392	3017.2644	3074.8652	3141.5603	3162.3811	3186.5068	3193.9018	3212.1499
CN1C2C3OC(C23)C1=O	CN1[C@H]2[C@H]3O[C@H]([C@@H]23)C1=O	
InChI=1S/C6H7NO2/c1-7-3-2-4(3)9-5(2)6(7)8/h2-5H,1H3	InChI=1S/C6H7NO2/c1-7-3-2-4(3)9-5(2)6(7)8/h2-5H,1H3/t2-,3+,4-,5+/m0/s1
