21
gdb 70018	3.1601	1.47891	1.31849	1.661	81.46	-0.226	0.0863	0.3123	1067.9315	0.184508	-387.06809	-387.060306	-387.059362	-387.099976	31.401	
C	-0.0442734694	 1.5392507944	 0.0587535622	-0.50172
C	 0.0141080859	 0.0389398975	 0.0153585462	 0.361575
C	-0.8960519718	-0.843302584	 0.8284919048	-0.347769
C	 0.5955212006	-0.9587414412	 1.0241986314	-0.114904
C	 1.2693214244	-1.7550466858	-0.1097893396	-0.030757
C	 0.7066463064	-3.1146169609	-0.5331595227	-0.105753
O	-0.4326934393	-2.8366701348	-1.3504969887	-0.25205
C	-0.1891700905	-1.6238188585	-2.0666744149	-0.108832
C	 0.6666131061	-0.7505129477	-1.1462751184	-0.09455
H	 0.924179688	 1.9869943399	-0.1949514226	 0.112492
H	-0.7841579705	 1.9315023625	-0.6505060252	 0.117915
H	-0.3260976497	 1.8948726864	 1.0554340023	 0.117154
H	-1.4060529577	-0.3219233697	 1.6339232183	 0.102148
H	-1.4713822504	-1.6460920623	 0.3821045974	 0.13473
H	 1.0554064802	-0.7584788214	 1.9855464358	 0.079023
H	 2.3584081803	-1.748839434	-0.0448686957	 0.072281
H	 1.459022422	-3.6806265301	-1.1067172503	 0.085807
H	 0.3651389594	-3.7371689898	 0.2991196425	 0.10937
H	 0.3481213635	-1.8357553373	-3.0056353312	 0.086566
H	-1.1636162693	-1.1927756851	-2.3159119843	 0.108037
H	 1.402940282	-0.1544667279	-1.6891675074	 0.069238
125.528	199.9751	226.336	230.9189	267.3485	331.8253	429.8556	484.0113	583.8835	671.105	728.2573	772.7561	780.4055	831.6828	890.2722	895.5871	917.2696	943.0909	978.9863	997.0837	1004.742	1021.1355	1061.7166	1075.5212	1100.8198	1108.7865	1116.6303	1129.0039	1160.3634	1210.2166	1233.3782	1253.6443	1268.4092	1277.9573	1320.3169	1332.3285	1350.3263	1395.5438	1402.3285	1425.1714	1485.0557	1495.6759	1499.2214	1499.6312	1511.915	2963.341	2970.4204	3014.3417	3069.6061	3078.1572	3082.511	3086.2063	3092.0064	3099.9041	3125.7018	3169.0906	3212.4211
CC12CC1C1COCC21	C[C@]12C[C@H]1[C@H]1COC[C@@H]21	
InChI=1S/C8H12O/c1-8-2-6(8)5-3-9-4-7(5)8/h5-7H,2-4H2,1H3	InChI=1S/C8H12O/c1-8-2-6(8)5-3-9-4-7(5)8/h5-7H,2-4H2,1H3/t5-,6+,7-,8+/m1/s1
