21
gdb 91362	2.08285	1.97508	1.39092	1.8171	76.41	-0.2429	0.0752	0.3181	1041.8785	0.184237	-424.240215	-424.232066	-424.231122	-424.272698	32.246	
C	-0.3472256351	 1.53509221	 0.6837641222	-0.430591
C	-0.1888258915	 0.0223599629	 0.5366081378	 0.062424
C	 0.1509960289	-0.509830858	-0.8924719156	-0.267914
C	 1.2140733154	-1.5691275709	-0.5396378668	 0.196636
O	 2.4569365311	-0.9038389289	-0.3126790411	-0.298966
C	 2.3570664115	-0.409429025	 1.041712367	 0.156434
C	 2.8994078049	 1.0070404789	 1.138149445	-0.419268
C	 0.8803361955	-0.7349984662	 1.3683949839	-0.022654
O	 0.8151194342	-2.0348588471	 0.7379904017	-0.253499
H	 0.4827868015	 2.0957391546	 0.2503836256	 0.124389
H	-1.2595096939	 1.8637638916	 0.1750560867	 0.119669
H	-0.438901999	 1.8274532006	 1.7358286781	 0.113794
H	-1.1345117324	-0.4350548002	 0.8468032619	 0.088051
H	-0.7181715919	-0.9496136352	-1.3887164638	 0.101514
H	 0.5756691629	 0.2567234956	-1.5450356674	 0.106697
H	 1.35804626	-2.3985610624	-1.2320225455	 0.088047
H	 2.9649903127	-1.0583818935	 1.6892844819	 0.082913
H	 2.4542183773	 1.6684757248	 0.3947819079	 0.128438
H	 2.7243147129	 1.4241034488	 2.135502125	 0.114423
H	 3.9794934786	 0.9950822392	 0.9650658093	 0.128544
H	 0.6640982666	-0.8242175995	 2.4333956662	 0.080921
91.3011	157.7414	183.8067	264.7659	294.3193	322.1629	402.5417	429.4929	524.5352	555.5659	634.1476	690.352	801.3855	822.8239	842.0614	865.5392	909.9038	924.3836	943.7648	975.6607	1005.7164	1040.4092	1069.979	1102.6669	1109.8644	1112.487	1137.789	1161.8919	1204.792	1245.8842	1256.8724	1307.2021	1317.8398	1331.5655	1361.3333	1367.1068	1376.5695	1402.3811	1411.8033	1417.4041	1479.0845	1487.177	1491.734	1499.1973	1518.3136	2988.6713	3035.2652	3039.9701	3047.1712	3062.4922	3092.5449	3108.2066	3113.7628	3119.4796	3128.1837	3128.8349	3152.8718
CC1CC2OC(C)C1O2	C[C@H]1C[C@H]2O[C@@H](C)[C@@H]1O2	
InChI=1S/C7H12O2/c1-4-3-6-8-5(2)7(4)9-6/h4-7H,3H2,1-2H3	InChI=1S/C7H12O2/c1-4-3-6-8-5(2)7(4)9-6/h4-7H,3H2,1-2H3/t4-,5-,6-,7+/m0/s1
