18
gdb 69175	2.21162	1.8321	1.25682	3.9846	77.7	-0.2307	-0.0147	0.216	1051.0135	0.146747	-401.908544	-401.900204	-401.89926	-401.941245	31.937	
C	-0.0247200908	 1.5580292592	 0.0931256946	-0.509893
C	 0.0834523325	 0.0685778348	 0.0053490261	 0.22497
N	-0.8470342443	-0.855516817	 0.6739264915	-0.364943
C	 0.6253697088	-0.9242774884	 1.0050764493	-0.269594
C	 1.2616696682	-1.7067639059	-0.1301573952	 0.416842
O	 2.0488477999	-2.6074210945	-0.2006614643	-0.330038
C	 0.668950973	-0.7461133497	-1.1485739072	 0.228583
C	 0.1376972209	-1.043816844	-2.5193961702	-0.312677
C	 1.4165849256	-0.2670439837	-2.3665686155	-0.330563
H	 0.9128144598	 2.0375347793	-0.2051242268	 0.136094
H	-0.8191473461	 1.9356464893	-0.5612251823	 0.134373
H	-0.2578151995	 1.8741109973	 1.1153232575	 0.124864
H	-1.2712805407	-0.3510208278	 1.4557403862	 0.230071
H	 0.969312286	-0.787621319	 2.0226898899	 0.111437
H	 0.1987008386	-2.0730761208	-2.8566899308	 0.133868
H	-0.7524805425	-0.5121174633	-2.8383265931	 0.121315
H	 1.3996278961	 0.7965105294	-2.5814796347	 0.118839
H	 2.3552373346	-0.7646337652	-2.5869418248	 0.136452
102.0604	177.7234	181.5324	202.3681	212.4122	278.8218	371.9281	450.6402	516.755	598.1886	628.9011	675.7618	752.8456	789.2643	816.3027	820.4171	930.7502	945.7252	959.0375	985.2064	989.7655	1011.8838	1055.683	1069.0625	1081.5296	1105.9652	1125.0065	1192.0616	1198.2739	1272.3803	1318.0645	1372.803	1407.5189	1440.3396	1457.8755	1481.9822	1495.5335	1498.5364	1885.8155	3028.0319	3089.7604	3106.1852	3128.4284	3133.0097	3199.2934	3211.3807	3225.8706	3435.829
CC12NC1C(=O)C21CC1	C[C@]12N[C@H]1C(=O)C12CC1	
InChI=1S/C7H9NO/c1-6-4(8-6)5(9)7(6)2-3-7/h4,8H,2-3H2,1H3	InChI=1S/C7H9NO/c1-6-4(8-6)5(9)7(6)2-3-7/h4,8H,2-3H2,1H3/t4-,6-/m0/s1
