21
gdb 62951	2.06638	1.83248	1.41852	1.4494	82.25	-0.2252	0.0704	0.2956	1055.6827	0.182286	-383.198566	-383.189853	-383.188909	-383.231105	34.781	
C	-0.0352155823	 1.5671195362	-0.0741681533	-0.446406
C	 0.0047944362	 0.0443732608	-0.0005275887	 0.222463
C	-1.3782882788	-0.5792889231	-0.1917497601	-0.451102
C	 1.0583653954	-0.6564569172	-0.8960982643	-0.077039
N	 2.39516426	-0.175156296	-0.479483754	-0.352171
C	 1.7324420881	-1.2720180841	 0.2787971145	-0.147911
C	 0.7665999471	-0.5850302667	 1.2180568894	 0.370048
C	 0.9900301379	-0.0475103145	 2.572214902	-0.30089
N	 0.1685825817	-1.2635646119	 2.3610076163	-0.386396
H	 0.9733938968	 1.979009323	 0.0001388731	 0.14055
H	-0.4784357684	 1.9008290368	-1.0198318797	 0.106368
H	-0.6432190673	 1.9854992017	 0.736728206	 0.103992
H	-1.7981463336	-0.292228607	-1.1623523613	 0.1149
H	-1.3364411173	-1.6723615359	-0.1493922085	 0.123625
H	-2.0798369808	-0.2361757551	 0.5775155669	 0.109906
H	 0.889803886	-1.0581485231	-1.8886681041	 0.086998
H	 3.0764487331	-0.6120325833	-1.100290285	 0.228521
H	 2.1954177687	-2.2431954348	 0.4007465823	 0.098796
H	 1.9353632914	-0.2145936784	 3.0811959907	 0.11778
H	 0.486179028	 0.8769129816	 2.8441047368	 0.109705
H	-0.8202758919	-1.0348090791	 2.434654271	 0.228263
122.2128	206.5508	220.2394	238.7302	258.4568	275.5968	302.3035	336.8408	402.9857	525.0617	531.4806	595.158	646.0481	811.3419	835.8	846.5225	860.0709	895.6831	926.7749	940.0334	953.069	970.3104	978.1572	1013.9564	1031.4234	1049.603	1084.0254	1105.8849	1124.7726	1185.0832	1216.9108	1221.2539	1251.6366	1262.3294	1294.5586	1322.3757	1362.8366	1394.3267	1412.8645	1437.5874	1483.4694	1486.3555	1503.0382	1507.0132	1516.0055	3021.3608	3025.9662	3079.0585	3086.2822	3101.3569	3102.7541	3128.8163	3176.3848	3187.602	3198.3808	3468.8192	3490.57
CC1(C)C2NC2C11CN1	CC1(C)[C@H]2N[C@H]2[C@]21CN2	
InChI=1S/C7H12N2/c1-6(2)4-5(9-4)7(6)3-8-7/h4-5,8-9H,3H2,1-2H3	InChI=1S/C7H12N2/c1-6(2)4-5(9-4)7(6)3-8-7/h4-5,8-9H,3H2,1-2H3/t4-,5+,7-/m0/s1
