20
gdb 40559	3.84456	1.10834	0.95319	1.6139	81.77	-0.2355	0.0293	0.2648	1294.964	0.17314	-403.159712	-403.151496	-403.150552	-403.193275	31.23	
C	-0.0002959805	 1.5210202266	 0.0034136353	-0.252703
C	 1.2776342316	 0.7536633734	-0.122469115	-0.253773
C	-0.0289827199	 0.006130497	 0.0561876094	-0.08349
C	-0.3006553177	-0.6656330298	 1.3529345391	 0.411293
N	 0.1253481452	-0.2046887421	 2.4562393787	-0.334881
C	-0.2349872482	-0.87167166	 3.6998795443	-0.149069
C	-1.4494936605	-1.7930336237	 3.5531201083	-0.232437
C	-1.2612288259	-2.6269268583	 2.2938475128	-0.070563
O	-1.0478458895	-1.7900259178	 1.1500367714	-0.266873
H	-0.1843291695	 2.0287694371	 0.9428438859	 0.131379
H	-0.4149219639	 1.9984063826	-0.8774604838	 0.110512
H	 1.7592530394	 0.6919808663	-1.0919310443	 0.110425
H	 1.9414776047	 0.7505435134	 0.7337416751	 0.13406
H	-0.42993325	-0.5209677055	-0.8005375577	 0.094978
H	 0.6322366747	-1.442812062	 4.0615600567	 0.105027
H	-0.4245665958	-0.1024551486	 4.4572923586	 0.106638
H	-1.5688861605	-2.4458964941	 4.4239444098	 0.101609
H	-2.3639739588	-1.1967320163	 3.4567656674	 0.11376
H	-0.3976479697	-3.297616668	 2.40020332	 0.109254
H	-2.1380703953	-3.2342876	 2.056074988	 0.114855
39.3282	124.7478	173.2889	190.3548	275.1952	360.9074	377.8513	499.8426	515.9598	647.4158	721.9737	787.4541	820.0326	830.4975	862.7011	886.1809	918.8871	927.7969	951.8405	963.6998	1058.8931	1068.7643	1089.8977	1090.9214	1132.1238	1134.0279	1170.54	1187.8784	1208.879	1225.3981	1231.2989	1255.0821	1302.6521	1361.9498	1367.9847	1409.1698	1429.5744	1452.5414	1479.1932	1489.8138	1492.7029	1512.3973	1740.8257	3002.168	3015.7962	3037.7279	3052.1462	3087.911	3097.4046	3138.1602	3140.8994	3190.0729	3227.2364	3241.5779
C1CC1C1=NCCCO1	C1CC1C1=NCCCO1	
InChI=1S/C7H11NO/c1-4-8-7(9-5-1)6-2-3-6/h6H,1-5H2	InChI=1S/C7H11NO/c1-4-8-7(9-5-1)6-2-3-6/h6H,1-5H2
