16
gdb 31474	6.34056	0.8377	0.75335	3.4179	83.67	-0.1991	0.019	0.218	1447.3194	0.124313	-400.750929	-400.742264	-400.74132	-400.784463	32.297	
O	 0.7000831375	-0.137438735	 0.8067548267	-0.426017
C	-0.0888319674	 0.2740485611	-0.3089467962	-0.205594
C	-1.4871253016	-0.191295848	-0.0753251731	 0.361092
C	-2.7055589588	 0.3200823346	-0.4466755652	-0.388689
C	-3.7141113918	-0.5981621826	-0.0031991541	 0.157311
C	-3.0539471607	-1.6368787294	 0.6343576318	-0.1954
N	-1.7155770134	-1.3834491444	 0.5690510709	-0.279424
C	-5.1123448266	-0.4718827952	-0.17249786	 0.241944
C	-6.301712174	-0.3512591961	-0.3249753681	-0.452706
H	 1.6261055302	-0.0084025241	 0.5814756793	 0.29335
H	-0.0858368438	 1.3664254961	-0.43380822	 0.111706
H	 0.3170289308	-0.1607438215	-1.2376299057	 0.104692
H	-2.8800790596	 1.2402453609	-0.9819230493	 0.1009
H	-3.4452635727	-2.5097280865	 1.130072963	 0.127671
H	-0.9832680446	-1.9056141454	 1.0199050275	 0.270902
H	-7.3495825236	-0.2477328845	-0.4559168374	 0.178262
58.5522	119.619	146.4087	208.8555	264.8716	302.4471	405.8413	465.0586	524.5448	543.4871	561.882	586.6182	644.1133	658.419	667.473	724.9648	741.4281	820.9638	979.675	994.058	1025.9401	1057.8971	1138.7712	1158.1266	1213.4134	1237.8639	1268.6505	1326.339	1398.5143	1439.9573	1466.5783	1516.3118	1536.9418	1621.3985	2229.4057	2956.3052	3010.7061	3256.4611	3273.3346	3507.8431	3675.9976	3830.9438
OCC1=CC(=CN1)C#C	OCc1cc(c[nH]1)C#C	
InChI=1S/C7H7NO/c1-2-6-3-7(5-9)8-4-6/h1,3-4,8-9H,5H2	InChI=1S/C7H7NO/c1-2-6-3-7(5-9)8-4-6/h1,3-4,8-9H,5H2
