23
gdb 109867	2.21796	1.40988	1.02673	1.3633	85.73	-0.2424	0.0606	0.303	1287.0676	0.204513	-388.270503	-388.260556	-388.259611	-388.304968	37.829	
C	 0.0470135742	 1.58495528	 0.0695027353	-0.379532
C	 0.0478285392	 0.0528267922	 0.1289128435	-0.194616
C	-1.3482624473	-0.5508513264	-0.0018356893	-0.077302
C	-2.0186999699	-0.647527606	-1.4319418071	 0.092051
O	-1.2359487211	-0.3215900329	-2.5654605906	-0.428475
C	-2.1967092215	-2.1441105279	-1.2394731023	-0.10727
C	-0.8614597759	-2.7929132199	-0.9853407066	-0.331376
C	-1.5373270608	-2.0713419226	 0.147383193	 0.346173
C	-1.9345638606	-2.7471052971	 1.4291678483	-0.498742
H	 1.0590859434	 1.9896571178	 0.1677523896	 0.113729
H	-0.358479056	 1.9500031984	-0.8811760472	 0.096592
H	-0.5642969061	 2.0148735501	 0.8710110822	 0.113451
H	 0.694959777	-0.3389659613	-0.6624648893	 0.107352
H	 0.4877892963	-0.2720468565	 1.0807931512	 0.093036
H	-2.0325805727	-0.0282728293	 0.678586758	 0.056694
H	-2.978743327	-0.1169794408	-1.4590265123	 0.064582
H	-1.2175693312	 0.6362661017	-2.6552118815	 0.282625
H	-3.0595252486	-2.7163419642	-1.5596603402	 0.079091
H	-0.8931439685	-3.8761126021	-0.9152824821	 0.104122
H	 0.0315683001	-2.4076208151	-1.4662211171	 0.120424
H	-1.1091312221	-2.7512337981	 2.1517806677	 0.118731
H	-2.7837787801	-2.2396041656	 1.9021148925	 0.112404
H	-2.2215984206	-3.7897834842	 1.2559845241	 0.116256
81.1416	108.2641	153.2244	201.7997	216.0242	234.906	258.2768	285.6312	320.5252	345.0231	470.8942	528.1791	537.7795	667.3064	713.2697	762.618	801.2119	832.8877	892.913	937.7165	968.7353	974.3191	988.5876	1025.2764	1033.6385	1067.977	1071.5173	1092.5501	1107.2888	1142.9768	1159.7379	1203.2359	1226.5634	1259.5493	1270.6652	1302.8574	1322.3529	1334.5643	1378.8888	1406.4775	1409.0088	1424.028	1428.4085	1478.3748	1486.6599	1496.6351	1498.5895	1500.9745	1503.4851	3008.0807	3016.3652	3023.003	3026.184	3028.7433	3070.0253	3073.0694	3090.9176	3092.6291	3101.8461	3124.2057	3176.5253	3205.1128	3820.4165
CCC1C(O)C2CC12C	CC[C@H]1[C@@H](O)[C@H]2C[C@@]12C	
InChI=1S/C8H14O/c1-3-5-7(9)6-4-8(5,6)2/h5-7,9H,3-4H2,1-2H3	InChI=1S/C8H14O/c1-3-5-7(9)6-4-8(5,6)2/h5-7,9H,3-4H2,1-2H3/t5-,6+,7+,8-/m0/s1
