17
gdb 13612	4.10177	1.44172	1.22368	2.2779	66.25	-0.2533	0.0371	0.2904	1033.1184	0.14081	-401.01219	-401.003414	-401.00247	-401.045976	30.336	
C	 0.2743592094	 1.161254029	-0.0883114437	-0.229622
O	 0.0082188351	-0.2289493495	 0.1191590602	-0.239871
C	 0.586308573	-0.7542852302	 1.2231707214	 0.483422
O	 1.3072065831	-0.1421601529	 1.9749010119	-0.404412
N	 0.1679508215	-2.0593200035	 1.4101474081	-0.133827
C	 0.2151834488	-3.1082512197	 0.4102530902	-0.247918
C	 1.0672901014	-3.1745830159	 1.6464940623	 0.01685
C	 2.5642909778	-2.9940921159	 1.5706782581	-0.402899
H	 1.3469008121	 1.3410601082	-0.1987268971	 0.136951
H	-0.2529059589	 1.4290858207	-1.0044035331	 0.130194
H	-0.0948936774	 1.7559777953	 0.7512343282	 0.140642
H	-0.6811737674	-3.7158095975	 0.3203091357	 0.124536
H	 0.7138109591	-2.8836260735	-0.5293627439	 0.128605
H	 0.7271998985	-3.8289671639	 2.4475673274	 0.102608
H	 2.8534777523	-2.4122578955	 0.6907221691	 0.123373
H	 2.9364512948	-2.4679662018	 2.4536757285	 0.150705
H	 3.0544851669	-3.9710882034	 1.5128388568	 0.120663
70.7611	95.4571	132.6666	153.3176	198.6426	214.6663	316.0009	378.8686	410.944	517.9099	606.1895	783.6724	805.9359	849.8321	907.5346	921.6628	1036.6961	1056.0836	1077.4604	1126.438	1155.2631	1160.5448	1182.2304	1194.729	1211.8809	1236.4298	1382.3241	1408.4684	1430.9148	1477.306	1480.7015	1483.8446	1491.2854	1501.7709	1516.3673	1805.2895	3042.5279	3049.4474	3106.2718	3108.4159	3119.8514	3122.92	3128.9575	3154.1873	3195.6165
COC(=O)N1CC1C	COC(=O)N1C[C@H]1C	
InChI=1S/C5H9NO2/c1-4-3-6(4)5(7)8-2/h4H,3H2,1-2H3	InChI=1S/C5H9NO2/c1-4-3-6(4)5(7)8-2/h4H,3H2,1-2H3/t4-,6?/m1/s1
