16
gdb 127646	3.15882	1.26658	1.01374	3.1288	75.28	-0.2523	0.002	0.2543	1154.9651	0.125827	-396.965617	-396.957231	-396.956286	-396.999545	29.642	
C	 0.2854933834	 1.331442398	 0.1613805321	-0.346409
N	 0.0946197776	-0.1048089815	 0.0957362064	-0.009441
N	-0.0161565103	-0.7069311128	-1.1058493293	-0.256885
C	-0.1790797997	-1.9979545302	-0.8307527214	 0.001788
C	-0.173781624	-2.2392087454	 0.5555374239	-0.309638
C	 0.004267767	-0.9928407367	 1.123762713	 0.371824
C	 0.071930736	-0.592161882	 2.5701418462	-0.454656
C	 1.3693119749	-0.0309317947	 2.9657187336	 0.272314
N	 2.3874552939	 0.4275515837	 3.262410606	-0.308692
H	 1.2115078952	 1.579201725	 0.6874701776	 0.16656
H	 0.3397207973	 1.6913837942	-0.8648485784	 0.169143
H	-0.5552722811	 1.8169989101	 0.668282285	 0.137194
H	-0.2936341698	-2.7059588021	-1.6379970094	 0.117858
H	-0.2805914767	-3.1779415067	 1.0752182465	 0.109375
H	-0.7039442661	 0.1434132495	 2.8195068488	 0.165835
H	-0.1272591476	-1.4732232784	 3.1871605394	 0.17383
53.2067	89.4712	108.2508	208.7166	253.3348	288.7494	378.9524	424.9975	476.6543	641.6021	668.7694	716.7396	767.0431	800.5844	887.0903	920.1453	935.5256	951.0987	1033.4049	1068.5367	1152.0689	1171.0687	1228.0585	1238.3235	1315.2901	1333.0711	1371.9142	1425.8894	1451.8268	1460.3608	1489.473	1501.4648	1515.6482	1581.0659	2362.4159	3030.3163	3041.5012	3095.0858	3107.2575	3172.1575	3247.281	3267.2893
CN1N=CC=C1CC#N	Cn1nccc1CC#N	
InChI=1S/C6H7N3/c1-9-6(2-4-7)3-5-8-9/h3,5H,2H2,1H3	InChI=1S/C6H7N3/c1-9-6(2-4-7)3-5-8-9/h3,5H,2H2,1H3
