14
gdb 133639	3.32406	0.86937	0.82533	2.4078	54.92	-0.2723	0.0122	0.2845	1335.89	0.097511	-564.375637	-564.366835	-564.365891	-564.410792	30.515	
F	 0.3909263349	 0.7682368511	-0.4545614411	-0.067742
C	-0.2454014044	 1.6637278591	 0.3030565258	 0.310025
F	 0.6368521247	 2.6366997944	 0.6047809475	-0.087303
F	-1.2167562303	 2.2171125512	-0.4365645814	-0.074007
C	-0.8398096507	 1.0368311645	 1.5581868842	-0.317549
N	 0.1923218144	 0.4482834548	 2.3980765284	-0.278328
C	 0.8182300629	 1.3434228595	 3.3630072377	-0.29769
C	-0.1114605649	 1.890475586	 4.3744291512	 0.249443
N	-0.8811909036	 2.2853853374	 5.141156568	-0.303916
H	-1.4442800508	 1.8070672205	 2.0601195166	 0.140608
H	-1.5196718062	 0.2510878993	 1.2206781528	 0.142478
H	-0.1645074507	-0.3744028671	 2.865923412	 0.246304
H	 1.6173070675	 0.8032753273	 3.87993395	 0.161415
H	 1.2869012772	 2.1763713419	 2.8334159984	 0.176263
37.9497	56.4131	132.0956	170.8365	250.6972	300.6872	373.5271	380.5353	436.4999	534.1012	545.7195	597.914	628.6153	737.7284	838.2855	896.1438	943.0092	946.4716	1055.8398	1162.4454	1186.4132	1198.3374	1282.8729	1291.8705	1343.5615	1362.4186	1422.4748	1465.5389	1476.8385	1516.6129	2349.7618	3006.4358	3069.9243	3113.2082	3118.5833	3571.8948
FC(F)(F)CNCC#N	FC(F)(F)CNCC#N	
InChI=1S/C4H5F3N2/c5-4(6,7)3-9-2-1-8/h9H,2-3H2	InChI=1S/C4H5F3N2/c5-4(6,7)3-9-2-1-8/h9H,2-3H2
