19
gdb 111817	2.64242	1.41511	1.09132	1.9476	75.41	-0.2424	-0.0287	0.2137	1165.7373	0.158598	-423.011219	-423.002645	-423.001701	-423.044951	31.641	
C	 0.1680175184	 1.4016124354	 0.2707440707	-0.386614
C	 0.040995756	-0.0987650989	-0.0159938694	-0.196994
C	-1.4065605558	-0.5822510158	 0.0028763734	-0.115791
C	-1.7337285198	-2.0973445723	-0.1041962573	 0.079661
O	-0.7902283911	-2.9308225586	 0.6014983316	-0.285065
C	-1.649267126	-3.0163467012	 1.7602215094	-0.083341
C	-2.6668383633	-2.0283527304	 1.1441871009	-0.214053
C	-2.2155228252	-0.5667255912	 1.3211664358	 0.389142
O	-2.409797408	 0.2541868622	 2.171313459	-0.301809
H	 1.2185805442	 1.7068811064	 0.2877303886	 0.112481
H	-0.3398285522	 1.9961936195	-0.4969492443	 0.111224
H	-0.2800582219	 1.6544042624	 1.2353984529	 0.145095
H	 0.4771005002	-0.3342437003	-0.9950172005	 0.10159
H	 0.6109053169	-0.6772605493	 0.7181029649	 0.115701
H	-2.0058592123	-0.0407110518	-0.7458558599	 0.103767
H	-2.0088730307	-2.5048664711	-1.0787806063	 0.083607
H	-2.046912351	-4.0305664153	 1.8851599989	 0.114355
H	-1.1506299851	-2.7058551647	 2.6848469431	 0.122224
H	-3.7282320835	-2.265835525	 1.1872229683	 0.104821
70.3204	94.7948	147.866	184.7714	225.2519	262.2161	323.5578	470.7525	484.7389	615.362	671.1475	729.9179	793.6889	837.1254	844.11	917.4625	944.4734	953.5895	978.1847	1018.2644	1037.1158	1041.4465	1072.9662	1118.1467	1139.9854	1146.8281	1167.1569	1200.8771	1232.6279	1250.964	1267.8887	1301.5858	1335.0299	1353.3869	1366.0715	1413.9427	1492.3965	1499.3472	1512.2401	1524.844	1880.9546	2998.5481	3022.8799	3029.3718	3035.6722	3073.809	3076.4478	3094.9704	3102.9542	3123.4902	3134.8043
CCC1C2OCC2C1=O	CC[C@H]1[C@H]2OC[C@H]2C1=O	
InChI=1S/C7H10O2/c1-2-4-6(8)5-3-9-7(4)5/h4-5,7H,2-3H2,1H3	InChI=1S/C7H10O2/c1-2-4-6(8)5-3-9-7(4)5/h4-5,7H,2-3H2,1H3/t4-,5+,7-/m1/s1
