13
gdb 16607	3.30092	2.34458	1.54322	3.6339	59.1	-0.2344	-0.0952	0.1391	779.6379	0.09572	-398.595926	-398.589533	-398.588588	-398.626636	23.999	
O	 0.0161584161	 0.0129614525	-0.3195763659	-0.268781
C	-0.0461836401	 1.1722198716	-0.0193615278	 0.283859
C	-1.2884337854	 2.0211451372	 0.2316240252	-0.28318
N	-0.8526138485	 3.3595473745	 0.6855518797	-0.095694
C	-0.1055873638	 3.3021261018	 1.9269150789	-0.244005
C	 0.6382529014	 3.41474157	 0.6272890965	-0.14704
C	 1.1783918123	 2.1349489597	 0.1017551263	 0.329563
O	 2.3001751587	 1.8667949817	-0.2373233118	-0.291461
H	-1.832972215	 2.1282415298	-0.714425025	 0.156192
H	-1.9664636303	 1.558945484	 0.9543660938	 0.149435
H	-0.1595661151	 4.1864223707	 2.5542473621	 0.145783
H	-0.0602493026	 2.3585931289	 2.4701027138	 0.133102
H	 1.1006641123	 4.3529023877	 0.3424910443	 0.132227
91.436	206.664	308.6207	373.3337	415.8845	500.0929	586.0995	627.4062	688.1432	710.0812	773.6903	869.9913	919.2561	977.7865	1001.0618	1056.8275	1071.4516	1115.8687	1146.7644	1192.8579	1216.2539	1262.8101	1287.5874	1337.2375	1449.8104	1506.8898	1841.8325	1861.4655	3043.2736	3095.0185	3101.0881	3183.0499	3196.523
O=C1CN2CC2C1=O	O=C1CN2C[C@H]2C1=O	
InChI=1S/C5H5NO2/c7-4-2-6-1-3(6)5(4)8/h3H,1-2H2	InChI=1S/C5H5NO2/c7-4-2-6-1-3(6)5(4)8/h3H,1-2H2/t3-,6?/m0/s1
