21
gdb 105871	2.04528	1.42328	1.27352	2.5802	78.59	-0.2447	0.0708	0.3155	1160.5577	0.181643	-424.189769	-424.180225	-424.179281	-424.22373	36.243	
C	-0.2980525135	 1.5167439655	-0.0417363796	-0.425313
C	 0.0471812073	 0.0323416057	-0.0734749107	 0.000882
C	 1.2528835265	-0.4914692254	-0.9216567623	-0.253847
C	 1.7907303964	-1.2317484671	 0.3104539641	-0.191108
C	 2.0725642651	-0.2605380225	 1.4152583183	 0.043411
O	 2.5298586053	 1.0469259305	 1.1984416915	-0.417884
C	 0.6423127617	-0.6417385665	 1.1788331388	 0.274212
C	-0.198177406	-1.2625706351	 2.2563544545	-0.17068
O	-0.9171341678	-0.2848495606	 3.0024984665	-0.412996
H	 0.5805340076	 2.1202946712	 0.1930137256	 0.136178
H	-0.6992823109	 1.843808368	-1.0078719969	 0.102576
H	-1.0609370902	 1.7069340802	 0.7205301375	 0.120567
H	-0.8455979244	-0.5365581919	-0.3574674985	 0.073281
H	 0.9528373873	-1.1545126772	-1.7350242353	 0.10013
H	 1.9202383285	 0.2775924683	-1.3221617689	 0.092568
H	 2.2024310908	-2.2352066154	 0.3145560941	 0.085582
H	 2.4915633846	-0.727602614	 2.3097010657	 0.083252
H	 3.4293173071	 0.9939119993	 0.8573151584	 0.286978
H	-0.964591664	-1.9130570679	 1.8193245264	 0.105998
H	 0.4265744495	-1.8905269131	 2.9131183585	 0.080935
H	-0.2752402207	 0.3581626982	 3.3228090422	 0.285279
81.7143	118.5277	181.5937	210.0049	227.1792	273.2167	291.2057	318.3374	342.2763	385.1577	394.2991	516.9326	588.951	682.406	729.8119	809.73	837.7173	873.8984	924.0578	939.4866	978.6369	1006.956	1030.5925	1047.9653	1086.7969	1112.2456	1123.1511	1138.8228	1183.0168	1205.0846	1240.8218	1248.583	1268.8589	1295.7223	1313.69	1347.2926	1367.0556	1378.8147	1402.8221	1423.8045	1467.3063	1490.1869	1497.8179	1505.5749	1511.8335	2963.9438	3029.4052	3035.349	3054.4742	3057.2748	3074.562	3093.9096	3112.7313	3138.1981	3167.7766	3798.5355	3806.1049
CC1CC2C(O)C12CO	C[C@H]1C[C@H]2[C@@H](O)[C@@]12CO	
InChI=1S/C7H12O2/c1-4-2-5-6(9)7(4,5)3-8/h4-6,8-9H,2-3H2,1H3	InChI=1S/C7H12O2/c1-4-2-5-6(9)7(4,5)3-8/h4-6,8-9H,2-3H2,1H3/t4-,5-,6+,7-/m0/s1
