23
gdb 64273	2.71338	1.37556	1.23215	1.7362	84.02	-0.2568	0.0752	0.332	1160.3092	0.206653	-388.301342	-388.292619	-388.291675	-388.333986	35.31	
C	 0.0014068739	 1.5466912414	 0.0228207579	-0.422377
C	-0.0467489566	 0.0105415675	-0.0028475766	 0.280197
C	-1.5196485739	-0.442453043	 0.0323435461	-0.415906
C	 0.6520728652	-0.4980252436	-1.2841293687	-0.216427
C	 0.6433330068	-2.0283867473	-1.4177587761	-0.260778
C	 1.1227592212	-2.7104969554	-0.15747898	 0.074073
O	 2.3469721531	-2.2235978763	 0.3964757194	-0.259938
C	 1.1333358489	-1.9903723122	 1.1288660823	 0.033392
C	 0.6956036501	-0.5399581529	 1.2416247074	-0.242778
H	 1.0315333987	 1.9116056332	-0.0533870281	 0.111723
H	-0.5676858192	 1.972788623	-0.8110172682	 0.107585
H	-0.4251737451	 1.9400389186	 0.9526007984	 0.107232
H	-2.0457288825	-0.1465567567	-0.8822403213	 0.108883
H	-1.6157263486	-1.5272974917	 0.1376714488	 0.114002
H	-2.0419322325	 0.0156655871	 0.8794271502	 0.109016
H	 0.1730824558	-0.0527907254	-2.164086703	 0.087899
H	 1.691199735	-0.1501409421	-1.2784767934	 0.107828
H	-0.3662372912	-2.3928287822	-1.6441696175	 0.102955
H	 1.2764415147	-2.3363367513	-2.2588568709	 0.105008
H	 1.0300156859	-3.7980537824	-0.1410635303	 0.081485
H	 1.0677505176	-2.5801342669	 2.0438343238	 0.086659
H	 1.5957181656	 0.0577178242	 1.4310567692	 0.108225
H	 0.0559341772	-0.4254064957	 2.1249208705	 0.092041
96.337	198.572	243.4908	262.2497	291.2706	297.3886	352.8148	381.9842	400.0058	423.9671	473.3745	555.7398	667.6201	719.3693	794.1346	807.177	869.9694	894.2428	916.3185	929.0549	948.4072	976.8744	1004.606	1025.8681	1043.3213	1065.3244	1094.5611	1124.215	1181.8532	1183.6186	1210.8102	1252.8188	1289.1877	1294.1475	1312.382	1348.9436	1376.3281	1377.5866	1389.8699	1401.1013	1425.9938	1462.1656	1471.4934	1481.4784	1484.0032	1491.7274	1497.6136	1504.4969	1515.7942	3020.1483	3023.3308	3025.999	3027.6322	3036.1317	3057.6153	3062.2341	3076.3151	3087.1349	3087.6873	3093.2818	3094.0403	3103.1389	3103.8462
CC1(C)CCC2OC2C1	CC1(C)CC[C@H]2O[C@H]2C1	
InChI=1S/C8H14O/c1-8(2)4-3-6-7(5-8)9-6/h6-7H,3-5H2,1-2H3	InChI=1S/C8H14O/c1-8(2)4-3-6-7(5-8)9-6/h6-7H,3-5H2,1-2H3/t6-,7+/m1/s1
