21
gdb 20070	4.81679	1.32129	1.11784	0.9938	78.76	-0.2298	0.0804	0.3102	1121.4369	0.190649	-329.11225	-329.104211	-329.103267	-329.147232	29.948	
C	 1.4295091398	-0.0364715147	-0.2866202917	-0.224494
C	 0.6435793701	-1.1353135964	-0.9108332039	-0.224496
N	-0.0082320696	-0.1453029414	-0.0588816626	-0.064607
C	-0.4220755911	-0.5995551919	 1.2618305548	 0.079271
C	-0.5625677568	 0.5558975702	 2.2641730722	-0.210764
C	-1.4521673044	-0.0151555552	 3.3901583146	-0.206569
C	-2.2745079564	-1.1690328851	 2.736202782	-0.206572
C	-1.8292813817	-1.2152687149	 1.2582167208	-0.210764
H	 2.0972369053	-0.3065971716	 0.5304663615	 0.107149
H	 1.7537384346	 0.8168346349	-0.8754323004	 0.113877
H	 0.3823448648	-1.1005578961	-1.9646380449	 0.113877
H	 0.7875398606	-2.1377447558	-0.5097528566	 0.107147
H	 0.294004819	-1.3420389325	 1.6671975016	 0.045002
H	 0.4000704554	 0.9295132249	 2.6250028788	 0.089083
H	-1.0632423618	 1.3848841567	 1.7510286935	 0.106457
H	-0.8367796152	-0.4040209209	 4.207560244	 0.097078
H	-2.0936651284	 0.7556532895	 3.8255087337	 0.098411
H	-2.0563339349	-2.1192728114	 3.2337542489	 0.097075
H	-3.3527123725	-1.0126730419	 2.8268358088	 0.09835
H	-2.4704558704	-0.581103512	 0.635337268	 0.10642
H	-1.8551573664	-2.2227645343	 0.833064607	 0.089071
6.0196	94.1544	130.1825	190.4503	297.6427	413.2644	461.2022	526.2536	629.5085	752.0593	794.1908	820.3783	866.77	890.4796	897.1744	907.5206	962.1372	978.5646	980.3387	1025.3834	1040.6155	1068.765	1112.5845	1113.894	1120.6215	1164.7708	1174.9809	1199.4285	1214.6163	1242.5184	1259.5418	1299.1881	1310.5782	1322.4551	1331.3161	1333.8826	1355.5018	1399.4529	1486.6247	1488.6981	1496.0986	1498.4503	1516.3171	1520.2211	2896.3843	3040.1947	3043.4802	3044.7963	3056.9874	3075.5145	3088.109	3089.5156	3093.204	3094.5142	3106.0337	3173.6714	3187.9858
C1CN1C1CCCC1	C1CN1C1CCCC1	
InChI=1S/C7H13N/c1-2-4-7(3-1)8-5-6-8/h7H,1-6H2	InChI=1S/C7H13N/c1-2-4-7(3-1)8-5-6-8/h7H,1-6H2
