17
gdb 80804	1.9482	1.7173	1.216	5.5862	74.28	-0.2544	-0.0037	0.2508	1092.0846	0.135231	-417.941787	-417.933155	-417.932211	-417.974837	32.503	
C	-0.0423505212	 1.5765023492	-0.0315099536	-0.436016
C	-0.0247608877	 0.0605353757	-0.0163990124	-0.019606
C	 1.2268933155	-0.695599322	-0.5499631397	-0.022685
O	 1.9873756538	-0.2307443304	 0.6340611794	-0.319097
C	 0.6850201237	-0.6727184868	 1.1690315781	 0.303515
C	 0.4310149097	-0.5517068468	 2.5825409519	 0.173104
N	 0.1866316168	-0.4695408775	 3.7094128327	-0.34385
C	 0.8328376002	-1.9635556416	 0.2895562907	 0.016642
N	-0.2734745677	-2.8348151835	 0.0475239803	-0.534221
H	 0.9310992743	 1.977151444	 0.2562598041	 0.147117
H	-0.29266429	 1.9451057046	-1.0317683058	 0.121384
H	-0.7982168401	 1.9606416105	 0.6608270982	 0.133631
H	-0.9942876111	-0.3605633565	-0.2991462933	 0.077269
H	 1.7213323254	-0.6140567362	-1.5176643001	 0.103592
H	 1.7114724234	-2.5336893257	 0.5934771474	 0.113567
H	-1.0156008612	-2.4136674755	-0.4973873006	 0.240094
H	 0.0228247059	-3.6816525114	-0.4212222673	 0.24556
116.3387	132.0119	174.1957	219.4384	226.2801	264.085	351.1458	365.6131	517.8815	526.2152	553.3831	616.5286	658.0696	736.0521	767.2889	805.1479	838.7101	890.0807	928.0728	962.5046	1040.6714	1070.7719	1099.2122	1161.6774	1164.9991	1201.9235	1216.3817	1231.3081	1247.0563	1269.9986	1395.0832	1412.4616	1434.804	1492.3867	1503.6903	1661.4336	2354.2042	3042.4381	3064.8711	3102.6114	3119.5526	3129.2872	3142.5592	3533.7729	3617.4452
CC1C2OC1(C#N)C2N	C[C@H]1[C@H]2O[C@]1(C#N)[C@H]2N	
InChI=1S/C6H8N2O/c1-3-4-5(8)6(3,2-7)9-4/h3-5H,8H2,1H3	InChI=1S/C6H8N2O/c1-3-4-5(8)6(3,2-7)9-4/h3-5H,8H2,1H3/t3-,4+,5-,6-/m0/s1
