23
gdb 108913	3.62561	1.06535	1.00698	0.158	92.24	-0.2112	0.0235	0.2347	1346.4335	0.206052	-351.13969	-351.130709	-351.129765	-351.173142	35.471	
C	 0.2080940734	 1.5158514538	-0.1683063851	-0.371098
C	-0.0712785726	 0.0271861856	 0.1089154042	-0.320088
C	 0.6590726216	-0.4989924837	 1.2992355476	 0.372063
C	 0.2265710896	-0.971546308	 2.4730606879	-0.266177
C	 1.5142515157	-1.3422781737	 3.2347092507	 0.315007
C	 1.4083051938	-1.9220415947	 4.6264072851	-0.505115
C	 2.390155495	-0.0803130607	 2.8951040204	-0.241291
C	 2.1921616429	-0.6173828684	 1.4394425839	-0.119974
C	 2.3081914483	-2.0438744294	 2.0714477605	-0.241981
H	 1.2762720681	 1.6964557789	-0.326178289	 0.119375
H	-0.3243561177	 1.8529679226	-1.0631558471	 0.110963
H	-0.113309512	 2.1353409347	 0.6746757765	 0.119561
H	-1.1478682394	-0.1246577691	 0.2492877965	 0.101282
H	 0.2107223775	-0.5529790461	-0.7816822155	 0.101913
H	-0.7847985986	-1.092380191	 2.8391720312	 0.088009
H	 0.8364862057	-2.8572112593	 4.6227532509	 0.11558
H	 2.3971107164	-2.1377198756	 5.0444973074	 0.111098
H	 0.9025626284	-1.227532879	 5.3071174309	 0.115562
H	 1.9719075625	 0.9010917427	 3.1335948461	 0.086201
H	 3.4221905608	-0.162733041	 3.254534584	 0.084334
H	 2.8182541494	-0.2956074368	 0.6067077551	 0.05428
H	 3.3326611808	-2.316220905	 2.3499568761	 0.084287
H	 1.8140818804	-2.8689050769	 1.5516247317	 0.08621
73.9431	118.5847	188.0632	205.3426	262.164	271.1342	311.1801	390.2439	500.3993	510.3667	560.6001	632.7083	647.9059	775.5087	785.1811	803.6142	836.3797	846.3944	869.7579	923.1899	943.5125	954.828	989.9544	1045.6042	1055.0978	1055.6747	1085.8924	1103.9908	1112.3997	1137.5127	1188.5282	1209.3855	1218.3357	1229.4689	1234.5866	1278.4607	1312.7417	1340.7925	1355.8258	1405.7484	1412.9598	1476.3075	1478.8481	1493.2306	1493.619	1496.9969	1506.5046	1516.0812	1689.0732	3001.3919	3023.25	3029.0196	3035.1372	3040.7177	3055.0531	3086.0989	3093.9936	3102.6657	3105.003	3107.915	3108.9044	3110.9949	3211.6167
CCC1=CC2(C)CC1C2	CCC1=C[C@]2(C)C[C@H]1C2	
InChI=1S/C9H14/c1-3-7-4-9(2)5-8(7)6-9/h4,8H,3,5-6H2,1-2H3	InChI=1S/C9H14/c1-3-7-4-9(2)5-8(7)6-9/h4,8H,3,5-6H2,1-2H3/t8-,9+
