17
gdb 45291	2.92104	1.68927	1.28246	4.4166	71.86	-0.2635	0.0036	0.2672	991.7443	0.137549	-421.820771	-421.813792	-421.812848	-421.85221	27.578	
O	-0.1885925763	 0.0789326338	 0.0466039769	-0.335419
C	-0.0307166349	 1.2556639508	-0.0122473998	 0.392395
O	-1.0111063531	 2.2409360489	 0.0374670656	-0.269482
C	-0.0455314215	 3.3102267593	-0.2093019514	 0.077701
C	 0.4055764199	 4.0258420261	 1.0833309027	-0.264805
C	 1.5686381021	 3.0103623475	 1.2027872234	-0.057854
C	 2.8801888115	 3.3425427616	 0.4203161812	-0.23393
C	 2.4892499156	 2.3285227492	-0.7019443712	-0.343901
C	 1.0895060142	 2.2571071841	-0.1071643371	 0.144692
H	-0.3052575831	 3.8671401844	-1.1097097927	 0.097764
H	 0.7170921593	 5.0652923703	 0.9484418891	 0.1105
H	-0.3457683774	 3.9798589469	 1.874577668	 0.126204
H	 1.7051469068	 2.4759391062	 2.1424016339	 0.090198
H	 2.9219421905	 4.3808448172	 0.0799497243	 0.108427
H	 3.8066994764	 3.1189770637	 0.9517381848	 0.116161
H	 2.5746208029	 2.6521552321	-1.7422779318	 0.111445
H	 3.0124620272	 1.3748549279	-0.5902474358	 0.129903
127.2185	151.4034	239.1821	290.3175	403.4555	433.5369	582.3779	655.1579	684.4011	730.9233	757.7099	796.973	848.1024	867.1877	896.8141	933.1175	954.6199	965.2028	1012.1992	1037.1303	1061.9412	1103.3441	1127.6928	1163.127	1204.6537	1219.638	1228.6815	1253.7856	1267.3038	1277.6787	1297.1465	1323.9162	1344.6316	1463.6156	1476.7634	1491.9464	1930.5788	3060.0798	3063.0759	3065.4368	3105.7556	3111.0946	3115.5444	3122.6354	3130.0396
O=C1OC2CC3CCC123	O=C1O[C@H]2C[C@@H]3CC[C@]123	
InChI=1S/C7H8O2/c8-6-7-2-1-4(7)3-5(7)9-6/h4-5H,1-3H2	InChI=1S/C7H8O2/c8-6-7-2-1-4(7)3-5(7)9-6/h4-5H,1-3H2/t4-,5-,7+/m0/s1
