18
gdb 126429	2.89771	1.24772	0.94111	2.032	74.5	-0.2071	0.043	0.2501	1255.4843	0.148886	-435.287292	-435.278038	-435.277094	-435.321679	34.087	
C	 0.0696384877	 1.4773518362	-0.0864048004	-0.370119
C	-0.0330529641	-0.0470539285	 0.0929608978	-0.284516
C	-1.4395422559	-0.5571666895	 0.0100222046	 0.31119
N	-2.1046042149	-0.8912032511	 1.1117084997	-0.316399
N	-3.3383828905	-1.2831057996	 0.6710103445	-0.280759
C	-3.4450594138	-1.2045412394	-0.6677905067	 0.460773
O	-4.5637707404	-1.5487926273	-1.3258803192	-0.431105
C	-2.241142335	-0.7346837381	-1.1525083145	-0.075073
N	-2.0245756132	-0.5464272387	-2.548789674	-0.637183
H	 1.1096252528	 1.8112412076	-0.0143769761	 0.111465
H	-0.3146645534	 1.7915396663	-1.0628460969	 0.10444
H	-0.5110836934	 1.9959586867	 0.6819561316	 0.129465
H	 0.5817451937	-0.5422987969	-0.6698432556	 0.091313
H	 0.3754156848	-0.3327093333	 1.0669262665	 0.120582
H	-4.0301263954	-1.5984447573	 1.3280340818	 0.274543
H	-4.356984675	-1.4018340058	-2.2620351759	 0.307304
H	-1.2473406459	-1.1010103189	-2.8942240555	 0.241568
H	-1.8246794883	 0.4215833576	-2.7806871916	 0.242512
37.4546	120.5394	189.6102	222.6152	234.7609	253.3375	290.8767	312.5297	395.1991	479.4006	526.7105	528.3055	586.3734	701.7673	727.6745	741.6424	777.2692	801.6844	842.9163	969.6643	1038.7617	1080.0017	1096.1354	1135.6418	1198.5539	1209.7905	1261.1282	1299.5888	1349.6779	1390.2494	1405.5686	1438.0276	1474.9284	1494.7797	1496.9886	1516.0358	1600.9208	1633.9579	1682.6203	3022.8121	3033.7189	3080.982	3102.9437	3115.0826	3490.2055	3553.2543	3686.8434	3723.7616
CCC1=NNC(O)=C1N	CCc1n[nH]c(O)c1N	
InChI=1S/C5H9N3O/c1-2-3-4(6)5(9)8-7-3/h2,6H2,1H3,(H2,7,8,9)	InChI=1S/C5H9N3O/c1-2-3-4(6)5(9)8-7-3/h2,6H2,1H3,(H2,7,8,9)
