20
gdb 19050	3.40643	2.12767	1.94073	0.2884	76.75	-0.2483	0.0888	0.3371	823.9998	0.17999	-311.854858	-311.848153	-311.847209	-311.885262	27.831	
C	-0.2479796245	 1.5633441905	 0.0330511678	-0.397465
C	 0.0230133266	 0.0550605562	-0.018995347	 0.016597
C	 0.7389898844	-0.4450409904	-1.3147859983	-0.226711
C	 2.1284359218	-0.9044159648	-0.8488418514	-0.031683
C	 2.9374744466	 0.2853985026	-0.2381820824	-0.233662
C	 2.4077286725	-0.1155989159	 1.1390498696	-0.062192
C	 1.9287564267	-1.4552913763	 0.5963195966	-0.091025
C	 0.9246294526	-0.4654173682	 1.1027116486	-0.030264
H	 0.6765213229	 2.1434081275	-0.0442203954	 0.119868
H	-0.9093025863	 1.8740105691	-0.7831786589	 0.108023
H	-0.7327004374	 1.8405257983	 0.9757899647	 0.108054
H	-0.9447401501	-0.4546006378	 0.0678696509	 0.066255
H	 0.1893556494	-1.2852889281	-1.7534935106	 0.09076
H	 0.8035495272	 0.3358176061	-2.0808170439	 0.090959
H	 2.665085915	-1.523384177	-1.5682345586	 0.061155
H	 4.0148221424	 0.1081079902	-0.3044439449	 0.096425
H	 2.72447721	 1.2907826878	-0.6194254521	 0.08515
H	 2.8947999341	 0.089946266	 2.0858428137	 0.075924
H	 2.0831907207	-2.4624563732	 0.959963683	 0.078925
H	 0.4850528054	-0.6352447025	 2.0808717786	 0.074911
152.1844	208.5261	254.1933	369.5659	377.4797	494.2546	624.7251	652.748	745.586	767.2204	802.6707	830.6625	843.8799	875.2957	927.128	949.5699	968.4143	982.5176	997.8245	1017.7283	1052.9693	1059.1281	1065.5814	1087.5066	1123.7291	1140.3847	1158.7155	1198.5293	1232.2505	1246.3071	1260.6569	1290.6371	1305.1976	1329.5724	1344.8488	1371.2246	1401.2393	1414.8121	1486.3468	1494.9208	1496.773	1507.2037	3012.8352	3028.354	3031.1513	3036.0515	3073.2419	3083.8056	3091.327	3106.5295	3108.8375	3156.1026	3168.2454	3199.361
CC1CC2CC3C2C13	C[C@H]1C[C@H]2C[C@@H]3[C@H]2[C@H]13	
InChI=1S/C8H12/c1-4-2-5-3-6-7(4)8(5)6/h4-8H,2-3H2,1H3	InChI=1S/C8H12/c1-4-2-5-3-6-7(4)8(5)6/h4-8H,2-3H2,1H3/t4-,5-,6-,7+,8-/m0/s1
