20
gdb 64709	3.69885	1.09011	1.01902	1.533	83.74	-0.2339	0.0464	0.2803	1242.9843	0.169666	-365.932863	-365.92395	-365.923006	-365.966154	34.656	
C	-0.0094663556	 1.6480987325	 0.1560681207	-0.460971
C	 0.0342516936	 0.1261179884	 0.0591991819	 0.317649
C	-1.3767535729	-0.4594401619	-0.1808706698	-0.41541
C	-1.963248601	-0.0571284531	-1.4540266273	 0.305742
C	-2.4204419924	 0.2770898699	-2.5146677142	-0.443895
C	 1.0860097597	-0.5324853064	-0.8845032423	-0.213036
N	 1.6429043743	-1.3925955468	 0.221913468	-0.128025
C	 2.1929760938	-0.4442210171	 1.2060379327	-0.256898
C	 0.7326764847	-0.6468183951	 1.1873145514	-0.06758
H	 0.9846699295	 2.0699820922	 0.3264140674	 0.112992
H	-0.4079798699	 2.0819829986	-0.766366058	 0.133761
H	-0.6551133563	 1.9684018467	 0.9822831944	 0.114118
H	-1.3202861204	-1.5544414541	-0.1381051817	 0.140091
H	-2.0361984514	-0.1521807388	 0.6422530318	 0.126008
H	-2.8375641963	 0.5662738472	-3.4473200254	 0.195958
H	 0.6511345102	-1.1484048272	-1.6738949073	 0.118682
H	 1.8302047276	 0.138186603	-1.3273996006	 0.100006
H	 2.7512941082	-0.9320696069	 1.9995949163	 0.121772
H	 2.6297254712	 0.4882099792	 0.8549500363	 0.110369
H	 0.2127620935	-1.1646624302	 1.9896866956	 0.088667
77.2952	123.5406	185.5661	224.2884	255.4944	325.6935	349.5455	377.297	410.8265	472.5364	535.1649	620.2282	640.9687	675.0264	748.8398	781.5189	844.0933	877.312	916.3285	946.6425	961.7986	982.0647	996.5999	1031.3273	1057.9578	1107.0659	1116.5967	1152.1996	1170.7738	1194.7791	1228.8283	1244.9591	1281.6103	1310.2417	1339.2646	1375.9599	1416.7062	1469.772	1490.4991	1494.734	1502.0148	1514.5222	2235.5538	3013.6494	3031.3785	3044.8383	3050.787	3097.9514	3105.574	3113.6071	3115.3402	3137.4978	3194.454	3505.8091
CC1(CC#C)CN2CC12	C[C@@]1(CC#C)CN2C[C@@H]12	
InChI=1S/C8H11N/c1-3-4-8(2)6-9-5-7(8)9/h1,7H,4-6H2,2H3	InChI=1S/C8H11N/c1-3-4-8(2)6-9-5-7(8)9/h1,7H,4-6H2,2H3/t7-,8+,9?/m0/s1
