16
gdb 18503	6.23761	1.15179	1.0914	3.6623	65.19	-0.2476	-0.0225	0.225	1076.0038	0.129258	-383.699174	-383.691712	-383.690767	-383.731965	27.027	
O	-0.3644462269	 0.1529279068	-0.2129961778	-0.239171
C	 0.019046024	 1.2740113056	 0.0041603414	 0.155847
C	 1.4343620884	 1.7573769346	-0.243911113	-0.298187
C	 1.4708086616	 2.9215890449	-1.2311555533	 0.126946
O	 0.6738397962	 4.0688331944	-0.8068018671	-0.306509
C	 1.7862289712	 4.9389078357	-1.0408971359	 0.115431
C	 2.9095530587	 4.6264920089	-0.1091863278	-0.29858
C	 2.7190613865	 3.7941097448	-1.3631544091	-0.149672
H	-0.6638626301	 2.0507246322	 0.410263184	 0.098393
H	 1.8532411118	 2.0871408668	 0.7151483796	 0.118546
H	 2.0304232455	 0.9227357939	-0.6251846763	 0.123087
H	 1.1163757336	 2.5906465508	-2.215537735	 0.098013
H	 1.5932791421	 5.8906707048	-1.5209444064	 0.110586
H	 3.758710308	 5.3012651206	-0.1557020596	 0.121057
H	 2.6943367464	 4.2292887444	 0.8786224739	 0.118148
H	 3.4777947329	 3.6917626007	-2.1264081876	 0.106068
52.1521	70.6563	171.9362	220.4759	366.8423	446.8317	484.7194	535.8615	711.1272	767.801	806.2948	845.2658	879.8489	945.0887	962.0606	978.275	1021.025	1039.9641	1049.2085	1083.2232	1084.7777	1093.8828	1117.2536	1200.1615	1222.1644	1260.3509	1269.8912	1312.109	1366.5485	1386.3437	1422.3614	1451.8428	1475.8432	1830.4515	2908.7383	3024.9014	3038.1865	3104.7587	3120.188	3187.0547	3206.1039	3215.1093
O=CCC1OC2CC12	O=CC[C@H]1O[C@H]2C[C@@H]12	
InChI=1S/C6H8O2/c7-2-1-5-4-3-6(4)8-5/h2,4-6H,1,3H2	InChI=1S/C6H8O2/c7-2-1-5-4-3-6(4)8-5/h2,4-6H,1,3H2/t4-,5+,6-/m0/s1
