19
gdb 122042	2.66745	0.75004	0.60744	3.623	79.36	-0.2523	-0.0321	0.2201	1780.7156	0.15511	-422.992647	-422.981801	-422.980857	-423.030173	37.156	
O	-0.0458266053	 1.4649302091	 0.0628899753	-0.418516
C	 0.0368957838	 0.0517301252	-0.0177525594	-0.079858
C	-1.3820043871	-0.5002508731	 0.0448563729	-0.178447
C	-1.4139357308	-2.0296338772	-0.0143798797	-0.210755
C	-2.8540799185	-2.6118277937	 0.029855073	-0.255407
C	-3.596534747	-2.24116099	-1.2589682332	 0.172185
O	-4.4903855806	-1.4425011183	-1.3217674621	-0.241269
C	-2.8412399101	-4.0638774167	 0.1622427154	 0.287807
C	-2.8300971827	-5.264553319	 0.2225021466	-0.425611
H	 0.8452726852	 1.8232063206	 0.017058836	 0.28733
H	 0.5191871675	-0.268627615	-0.9562534157	 0.086022
H	 0.6345934797	-0.3627191072	 0.8111615095	 0.085789
H	-1.8512674722	-0.1501094982	 0.9719463035	 0.115198
H	-1.9615850338	-0.0657587021	-0.7772828319	 0.125439
H	-0.9186454222	-2.3916693825	-0.9247678065	 0.111736
H	-0.8566381218	-2.4559788117	 0.8265798287	 0.119885
H	-3.4057064334	-2.1562131772	 0.8600659943	 0.126184
H	-3.2166787263	-2.7744507853	-2.1592887453	 0.089978
H	-2.8265862945	-6.3239578276	 0.2982099987	 0.202311
46.4413	59.8844	74.302	97.9106	139.0812	175.3738	215.7975	256.4314	281.9437	359.6356	417.8209	466.0875	504.8838	571.6511	636.4277	650.9371	750.9048	841.0787	946.8551	957.4764	986.0948	1041.4087	1045.8908	1081.5394	1090.3202	1144.3108	1203.8963	1230.2058	1265.492	1284.2727	1313.5766	1323.0242	1334.4005	1383.7259	1416.6116	1465.1495	1486.9892	1500.571	1528.9625	1839.4323	2233.8143	2883.0592	2956.0513	2981.2218	3026.2416	3041.6628	3052.4686	3067.6603	3091.1688	3503.3177	3832.0378
OCCCC(C=O)C#C	OCCC[C@@H](C=O)C#C	
InChI=1S/C7H10O2/c1-2-7(6-9)4-3-5-8/h1,6-8H,3-5H2	InChI=1S/C7H10O2/c1-2-7(6-9)4-3-5-8/h1,6-8H,3-5H2/t7-/m0/s1
