20
gdb 112667	3.2642	1.02898	0.8327	4.0576	76.22	-0.2484	0.0264	0.2748	1407.1446	0.171527	-440.339664	-440.330457	-440.329513	-440.373875	34.459	
C	 0.058367061	 1.5443978424	-0.0086776883	-0.39532
C	 0.0012172536	 0.0137418205	-0.0313942973	-0.180573
C	-1.4143456117	-0.5609345188	 0.0559628447	 0.046411
C	-1.4696729188	-2.1066933717	-0.0284498076	-0.256941
C	-2.6974733119	-2.4787996952	 0.8063401922	 0.04395
O	-2.6242830771	-3.7389816598	 1.4189164315	-0.442252
C	-2.7487840491	-1.3598098921	 1.8531461365	 0.38627
O	-3.300132946	-1.4528989668	 2.9323921113	-0.401643
N	-2.0578001511	-0.3065457409	 1.3467528085	-0.323795
H	 1.0873845085	 1.8985230413	-0.1183817788	 0.12565
H	-0.5318209631	 1.9766043189	-0.8241270669	 0.121835
H	-0.3232035518	 1.9551375456	 0.9328673602	 0.113801
H	 0.4499288463	-0.3532752137	-0.9627213725	 0.108057
H	 0.5980664834	-0.4003593663	 0.7903481523	 0.107904
H	-2.0180498162	-0.1215291809	-0.7538150125	 0.081619
H	-1.5077650994	-2.4621996411	-1.0596951387	 0.111128
H	-0.5858484256	-2.5366103747	 0.4552255636	 0.120216
H	-3.6122980866	-2.3918429636	 0.1928212414	 0.087218
H	-3.0455913896	-3.6247491298	 2.2842159889	 0.292489
H	-2.0206472948	 0.5789691465	 1.8263567414	 0.253977
72.4687	104.9756	117.2444	206.5157	245.0352	258.6862	347.2261	402.2813	425.0118	443.7795	510.9903	534.5495	586.8377	649.6465	721.9385	793.6836	822.708	876.2995	960.6056	990.8152	1014.7392	1033.2486	1074.5737	1119.5613	1148.3579	1167.7281	1190.9147	1264.5227	1270.2735	1287.0456	1301.1505	1323.8452	1362.8093	1385.7035	1407.1459	1415.9917	1430.5717	1436.4788	1477.3581	1493.921	1501.0651	1506.4262	1823.8968	2941.3162	2972.501	3027.7624	3032.449	3057.1489	3065.3878	3097.7104	3109.3476	3120.4231	3639.8012	3719.2775
CCC1CC(O)C(=O)N1	CC[C@H]1C[C@@H](O)C(=O)N1	
InChI=1S/C6H11NO2/c1-2-4-3-5(8)6(9)7-4/h4-5,8H,2-3H2,1H3,(H,7,9)	InChI=1S/C6H11NO2/c1-2-4-3-5(8)6(9)7-4/h4-5,8H,2-3H2,1H3,(H,7,9)/t4-,5+/m0/s1
