23
gdb 123095	4.59037	0.52419	0.49415	2.9839	84.15	-0.2425	-0.0101	0.2324	2290.4635	0.201824	-425.443839	-425.432247	-425.431302	-425.483164	39.487	
C	 0.1367193536	 1.4282821846	-0.2576485279	-0.378192
C	-0.0300855962	-0.0909159253	-0.1661336244	-0.166704
C	 0.5586436235	-0.8321562118	-1.3718881398	-0.180492
C	 0.3768918163	-2.3476137728	-1.2669021522	-0.063945
O	 0.8198968633	-3.0609224304	-2.4107112271	-0.247232
C	 2.2142399927	-3.2018399342	-2.5201845936	-0.164049
C	 2.5827741742	-4.1800610987	-3.6386027413	 0.351257
C	 1.4582241841	-4.9537936407	-4.2869332697	-0.465142
O	 3.7436024593	-4.3069652802	-3.9501518501	-0.297407
H	 1.1944977226	 1.7073313924	-0.3164251083	 0.116392
H	-0.3598492776	 1.827625511	-1.1487032043	 0.116953
H	-0.2919479305	 1.9292722729	 0.6157237681	 0.11408
H	 0.4456267118	-0.4558732709	 0.7538993858	 0.098223
H	-1.0961692951	-0.3373883943	-0.0736369196	 0.098476
H	 0.0788608428	-0.4879890974	-2.2967632944	 0.104868
H	 1.6245343145	-0.5872768712	-1.4617113149	 0.09956
H	 0.8849378464	-2.7305661904	-0.3659781818	 0.088067
H	-0.688063575	-2.5862132143	-1.1693342945	 0.107356
H	 2.7244996495	-2.2509573804	-2.732753121	 0.12343
H	 2.6502042518	-3.5950998661	-1.5850539063	 0.115927
H	 0.7343425751	-4.261027353	-4.7275014766	 0.150357
H	 1.8649400664	-5.6203829346	-5.0479095063	 0.133872
H	 0.9083942964	-5.5237369241	-3.5307993998	 0.144346
23.5587	47.836	65.5472	76.5343	121.4714	148.2377	182.1174	199.3818	244.0181	293.6925	390.851	432.6566	483.47	507.3538	550.5576	741.8575	786.2205	807.0947	865.7139	910.7294	950.0144	973.4603	1003.5449	1037.4234	1061.7119	1093.5852	1129.2041	1150.4927	1204.8323	1236.5989	1248.1694	1268.6678	1296.2148	1325.8351	1332.7672	1380.955	1381.3868	1388.3806	1412.4514	1422.2742	1452.5938	1464.8972	1478.8309	1486.5461	1490.5959	1500.0136	1502.9752	1514.9017	1818.6568	2959.4951	2968.6255	3012.1033	3014.2648	3026.4089	3032.2472	3038.7076	3047.0407	3056.176	3077.5358	3098.9379	3104.124	3109.1977	3158.7871
CCCCOCC(C)=O	CCCCOCC(=O)C	
InChI=1S/C7H14O2/c1-3-4-5-9-6-7(2)8/h3-6H2,1-2H3	InChI=1S/C7H14O2/c1-3-4-5-9-6-7(2)8/h3-6H2,1-2H3
