22
gdb 122425	5.11225	0.66061	0.62716	1.7872	80.86	-0.2178	0.0755	0.2933	1838.7559	0.193012	-441.441959	-441.431937	-441.430992	-441.478035	36.092	
C	 0.1066609337	 1.4467368664	 0.0939941779	-0.31568
N	-0.087772567	 0.016453856	 0.1624919791	-0.068461
C	-1.3747678387	-0.4999315855	 0.6674334173	-0.2046
C	-0.6034598427	-1.6487629025	 1.3418374725	 0.135297
C	 0.6555355396	-0.7519449077	 1.1789766	-0.198277
O	-1.0462117036	-1.9571581517	 2.6338100716	-0.26581
C	-0.316723767	-2.9970086418	 3.2687419546	-0.081345
C	-1.0637053284	-3.3311644497	 4.5504166266	-0.058702
O	-2.3868681284	-3.7469153511	 4.2804434879	-0.420819
H	 1.1329062468	 1.666928612	-0.2189786002	 0.120831
H	-0.5704452451	 1.8780369009	-0.651135682	 0.121275
H	-0.0748575872	 1.9578414276	 1.0590797025	 0.090325
H	-1.8383229631	 0.1413142692	 1.4352811981	 0.092975
H	-2.1161053411	-0.742240147	-0.100722338	 0.103251
H	-0.5511127953	-2.5534997501	 0.7214972183	 0.081231
H	 1.5915781665	-1.1997822998	 0.828945902	 0.099915
H	 0.8419676665	-0.1887674437	 2.1093637561	 0.086919
H	-0.2753079661	-3.8821653701	 2.6147811003	 0.098496
H	 0.7146226094	-2.67917953	 3.4880778943	 0.092793
H	-0.560919898	-4.1553736718	 5.0668630557	 0.108405
H	-1.0436912542	-2.4530072274	 5.2156827492	 0.093227
H	-2.7491603963	-3.0838219423	 3.6808241062	 0.288755
46.9166	56.9559	87.4652	160.5134	188.041	228.4045	299.0163	319.2657	337.7518	411.6209	443.8882	463.3394	521.1676	649.4287	791.7872	883.9446	891.295	907.2851	972.9351	990.7991	1032.008	1060.0625	1089.4706	1105.2185	1125.2591	1134.5015	1149.7845	1178.1206	1217.04	1219.1388	1238.6634	1247.7659	1261.6972	1279.5258	1301.0305	1333.3145	1376.432	1386.1823	1427.511	1443.3456	1450.7047	1484.6458	1496.4611	1499.53	1499.9574	1508.1992	1526.73	2922.9385	2959.1968	2973.9308	2975.1692	2978.4002	3015.1745	3017.6129	3054.9879	3061.9806	3068.6986	3079.733	3097.2316	3793.0892
CN1CC(C1)OCCO	CN1CC(C1)OCCO	
InChI=1S/C6H13NO2/c1-7-4-6(5-7)9-3-2-8/h6,8H,2-5H2,1H3	InChI=1S/C6H13NO2/c1-7-4-6(5-7)9-3-2-8/h6,8H,2-5H2,1H3
