18
gdb 42956	2.59241	1.87607	1.35267	3.4079	74.7	-0.2266	-0.0212	0.2054	973.7353	0.150276	-401.935981	-401.92893	-401.927985	-401.967461	28.326	
O	-0.045307431	 0.0098042344	 0.1292738488	-0.329768
C	-0.0486198012	 1.2090437762	 0.0042183803	 0.440826
C	-1.27662168	 2.0686991076	-0.1835237657	-0.165994
N	-1.3154284752	 3.1748074192	 0.8189725647	-0.330949
C	-0.8327377774	 3.4476328549	-0.5408129332	-0.053777
C	 0.6921783475	 3.500945067	-0.6263765083	-0.027863
C	 1.4314870603	 4.2073464733	 0.548815644	-0.219251
C	 1.7032853361	 2.822536531	 1.2036208893	-0.223424
C	 1.1746155445	 2.1192416512	-0.0948933558	-0.132954
H	-2.2028585933	 1.6141427859	-0.5151685405	 0.104631
H	-2.2813167261	 3.4818095514	 0.9083249075	 0.241758
H	-1.4344422204	 4.0749442511	-1.1907454069	 0.093047
H	 1.0058142626	 3.7773549118	-1.6356541732	 0.072624
H	 2.3441047156	 4.7127358481	 0.2241077864	 0.098922
H	 0.8291545524	 4.9033028676	 1.1352679741	 0.107477
H	 2.7445601047	 2.6014812876	 1.4454328763	 0.102504
H	 1.0840596465	 2.6280939285	 2.0793247481	 0.127484
H	 1.9581576644	 1.6200562534	-0.6667760757	 0.094707
101.3681	184.3508	234.9241	268.4227	427.988	485.6248	554.5655	604.734	708.9594	736.3152	762.9853	792.768	846.276	860.3407	872.7067	908.0298	926.2682	948.1532	963.7049	1025.1657	1028.87	1059.5328	1109.4899	1117.9759	1153.0268	1186.4095	1206.5841	1227.632	1242.2591	1251.6646	1273.9116	1275.5058	1287.4571	1336.8882	1362.4121	1398.8596	1467.6336	1487.5492	1835.2739	3066.4736	3078.4175	3080.4063	3103.1129	3121.0831	3144.7629	3160.6013	3188.76	3497.5264
O=C1C2NC2C2CCC12	O=C1[C@H]2N[C@H]2[C@H]2CC[C@@H]12	
InChI=1S/C7H9NO/c9-7-4-2-1-3(4)5-6(7)8-5/h3-6,8H,1-2H2	InChI=1S/C7H9NO/c9-7-4-2-1-3(4)5-6(7)8-5/h3-6,8H,1-2H2/t3-,4+,5-,6-/m0/s1
