21
gdb 41758	2.43704	1.78034	1.36662	0.33	89.18	-0.2143	-0.0182	0.1961	1042.003	0.185868	-349.956881	-349.949285	-349.948341	-349.98875	30.968	
C	-0.0085132959	 1.2495081845	-0.6788525272	-0.225041
C	 1.0560629643	 1.7314494005	 0.3381535883	-0.221396
C	 1.3020210952	 0.2463466316	 0.7897176814	-0.025524
C	 1.3862477016	-0.0326272775	 2.2609514813	-0.08989
C	 0.4343409094	 0.1974780458	 3.1818752512	-0.086365
C	-0.9286025644	 0.6509147788	 2.9198738537	-0.074774
C	-1.64699436	 0.3344028377	 1.8324514706	-0.078005
C	-1.180532731	-0.6167148622	 0.7599789318	-0.269809
C	 0.0423966471	-0.1762259506	-0.0532752577	-0.000283
H	-0.9768437639	 1.7543904949	-0.6265378866	 0.095373
H	 0.3341638063	 1.2730958215	-1.7164705141	 0.094252
H	 1.9284455496	 2.2491518553	-0.0678553147	 0.093523
H	 0.6325460577	 2.3357835448	 1.1418782709	 0.112163
H	 2.2057595429	-0.1395703516	 0.3101361436	 0.066414
H	 2.3519580294	-0.3803679508	 2.6224698949	 0.084492
H	 0.6964608386	 0.0584888065	 4.2295793247	 0.084901
H	-1.3902799388	 1.2631293341	 3.6925928137	 0.083758
H	-2.6540067314	 0.7331649347	 1.7409667465	 0.087206
H	-0.9228091206	-1.5751916474	 1.2350822968	 0.110963
H	-2.0054429941	-0.8208816037	 0.067683643	 0.094566
H	 0.2649812481	-0.9661821369	-0.7792087621	 0.063475
96.5484	149.3141	245.0366	282.6295	365.0621	399.0588	413.4842	590.2533	623.5341	696.2214	718.1697	739.1855	757.4857	816.0925	840.6228	884.5426	911.2654	925.0132	957.9111	968.0035	995.7764	999.611	1009.9982	1052.6649	1082.4962	1091.4692	1127.8911	1211.6855	1226.9147	1238.1093	1248.0539	1261.9038	1263.8021	1274.7507	1308.5893	1323.7492	1368.4485	1373.4717	1415.0597	1453.444	1474.5215	1476.6037	1493.8779	1664.1207	1697.9245	2995.7616	3031.2854	3054.5451	3055.5824	3059.632	3068.5302	3100.9736	3124.417	3129.3904	3135.823	3151.5395	3164.5959
C1CC2C=CC=CCC12	C1C[C@H]2C=CC=CC[C@@H]12	
InChI=1S/C9H12/c1-2-4-8-6-7-9(8)5-3-1/h1-4,8-9H,5-7H2	InChI=1S/C9H12/c1-2-4-8-6-7-9(8)5-3-1/h1-4,8-9H,5-7H2/t8-,9+/m1/s1
