12
gdb 130706	5.96174	1.07387	0.90996	1.6562	75.66	-0.2499	-0.0925	0.1574	1162.9993	0.078235	-431.65511	-431.647955	-431.647011	-431.686909	26.698	
O	-0.0086722493	-0.0872709416	 0.0033977386	-0.373836
C	 0.0090699509	 1.126248449	 0.0090499988	 0.440645
N	-1.1539392528	 1.8949201673	 0.0280483722	-0.278398
N	-1.2436663812	 3.2269984452	 0.0357094513	-0.206599
C	-0.105147312	 3.8749320806	 0.0238943819	 0.202696
N	 1.1467463368	 3.2836012033	 0.0046078977	-0.237701
C	 1.1957501514	 1.993742414	-0.0023101086	-0.111919
C	-0.1517150482	 5.2996883962	 0.0315376802	 0.28126
C	-0.1689830327	 6.5015437101	 0.0376907355	-0.363126
H	-2.0390291575	 1.4016213254	 0.0372771954	 0.286376
H	 2.1651203752	 1.4987044089	-0.0174335758	 0.153351
H	-0.1871492007	 7.5638102716	 0.0431736427	 0.207251
83.8963	152.2874	224.6759	390.5138	419.536	443.676	466.4234	530.4356	560.5746	632.7392	641.7222	677.9915	747.445	758.3958	809.4484	824.6986	973.9784	991.1197	1227.6199	1233.9678	1301.4686	1374.4118	1429.961	1534.4788	1627.9796	1804.4887	2244.1191	3159.1235	3500.5179	3573.4676
O=C1NN=C(N=C1)C#C	O=c1[nH]nc(nc1)C#C	
InChI=1S/C5H3N3O/c1-2-4-6-3-5(9)8-7-4/h1,3H,(H,8,9)	InChI=1S/C5H3N3O/c1-2-4-6-3-5(9)8-7-4/h1,3H,(H,8,9)
