19
gdb 91135	2.66037	1.78268	1.51908	2.9842	73.81	-0.2335	0.0526	0.2861	961.0497	0.160291	-422.951124	-422.943733	-422.942789	-422.983037	29.284	
C	 0.1684720373	 1.408912504	-0.4499704138	-0.421503
C	 0.0027989902	 0.0048444061	 0.1004461121	 0.15269
O	 0.5724565427	-1.0115813984	-0.774621559	-0.297711
C	 1.2226227564	-1.6517768759	 0.3210476008	 0.1145
C	 2.7070020672	-1.2351855193	 0.5991570957	 0.090863
O	 3.2005792828	-0.1233054975	-0.1746321233	-0.284049
C	 3.0344165627	 0.7831067014	 0.9461366591	-0.098829
C	 2.2330663776	-0.2677827311	 1.7214388916	-0.088493
C	 0.7480913513	-0.5838214599	 1.3400900508	-0.14463
H	 1.1768081268	 1.5580554956	-0.8349690703	 0.151479
H	-0.530260756	 1.5591482426	-1.2792594182	 0.123361
H	-0.0529943593	 2.1603617085	 0.3154517677	 0.11365
H	-1.0705041097	-0.2005373304	 0.2277353484	 0.078811
H	 1.005992341	-2.7226679561	 0.3938683757	 0.07114
H	 3.4511165484	-2.029466185	 0.7170587596	 0.071945
H	 4.0037015222	 1.0012725673	 1.4153316656	 0.101483
H	 2.5565349055	 1.7246894913	 0.66816993	 0.106512
H	 2.4614729679	-0.4086764945	 2.7775282128	 0.079149
H	 0.1031695752	-0.8146102887	 2.1873483346	 0.079631
75.38	175.1764	238.6256	271.9776	309.0511	401.3812	526.2712	574.6504	637.2915	705.5886	735.2345	804.0798	857.8403	863.4408	880.0726	910.5019	949.5787	983.0344	1009.9576	1043.7039	1054.4395	1075.3298	1089.4689	1115.2791	1144.9745	1157.4579	1179.3193	1186.8744	1218.3031	1228.6078	1273.2481	1299.2539	1301.6265	1334.1833	1347.9124	1363.4485	1391.0552	1408.8235	1476.1381	1504.5748	1534.5699	2982.0235	3008.0049	3041.9475	3045.185	3059.5829	3098.972	3103.2448	3104.8262	3118.7673	3159.2093
CC1OC2C3OCC3C12	C[C@H]1O[C@H]2[C@H]3OC[C@H]3[C@@H]12	
InChI=1S/C7H10O2/c1-3-5-4-2-8-6(4)7(5)9-3/h3-7H,2H2,1H3	InChI=1S/C7H10O2/c1-3-5-4-2-8-6(4)7(5)9-3/h3-7H,2H2,1H3/t3-,4+,5-,6+,7-/m1/s1
