16
gdb 8051	3.54835	1.82176	1.51066	1.7942	71.39	-0.2523	0.0469	0.2991	873.4813	0.129708	-346.519286	-346.511968	-346.511024	-346.550453	28.838	
O	-0.0742060153	 1.3366295542	 0.0427914319	-0.466392
C	 0.0484563556	-0.0355915041	 0.0205794856	 0.398993
C	 0.6177314102	-0.9496228487	-1.1108284628	-0.29404
C	 0.0800870266	-1.9011360643	-0.0078545895	-0.053303
C	 0.7502816423	-0.9780246786	 1.0493294186	-0.300137
C	-1.1932528808	-0.9827039944	 0.0640560329	-0.201377
C	-2.0424154977	-1.0145383197	 1.236251006	 0.309031
C	-2.7722011128	-1.0470241945	 2.1919054886	-0.443799
H	 0.8067973886	 1.7237685494	 0.0877185367	 0.285495
H	 0.0850281482	-0.9428859193	-2.0652256792	 0.096041
H	 1.7019552983	-0.9370745892	-1.2476763313	 0.088916
H	 0.0780421448	-2.9876825817	-0.0212073162	 0.090654
H	 1.8437499079	-0.9668680488	 1.051496785	 0.08616
H	 0.3361750245	-1.0001165754	 2.0579658287	 0.116723
H	-1.7899373042	-0.9725005461	-0.853530483	 0.096095
H	-3.4136464664	-1.0692846687	 3.0377290281	 0.19094
130.2865	170.4729	204.0371	330.9105	360.3348	441.9648	505.2237	514.7544	609.3527	614.7212	641.2181	659.3121	761.048	816.575	881.3702	919.5025	949.4138	959.6956	1017.2043	1037.973	1067.669	1100.5835	1118.5195	1131.1137	1143.1166	1204.3644	1214.0805	1221.3885	1294.8229	1351.854	1389.9078	1493.4946	1538.1651	2231.8807	3053.6439	3058.0235	3063.5531	3123.0382	3140.338	3156.5308	3504.2387	3809.5811
OC12CC(C1)C2C#C	O[C@@]12C[C@@H](C1)[C@H]2C#C	
InChI=1S/C7H8O/c1-2-6-5-3-7(6,8)4-5/h1,5-6,8H,3-4H2	InChI=1S/C7H8O/c1-2-6-5-3-7(6,8)4-5/h1,5-6,8H,3-4H2/t5-,6-,7-/m1/s1
