16
gdb 56968	4.07526	0.90564	0.83137	3.9182	72.73	-0.2516	-0.0323	0.2193	1356.649	0.121822	-437.819564	-437.8104	-437.809456	-437.854172	33.054	
O	-0.1834384414	 1.3807310881	-0.1737573905	-0.407419
C	-0.0496168692	-0.0225786064	-0.0815122032	-0.068249
C	 0.6993809302	-0.5843114637	-1.2165916057	 0.308613
C	 1.3286770655	-1.0468808564	-2.1299429205	-0.448574
C	 0.6383597608	-0.4351296967	 1.2268441757	-0.035025
N	 1.5186342703	 0.5686480906	 1.7987412879	-0.348424
C	 0.3245779529	 0.1577517084	 2.5709608853	-0.124093
C	-0.730460073	 1.1892066554	 2.8217249311	 0.162657
O	-1.5093112328	 1.091359984	 3.7378140228	-0.258222
H	 0.6611051991	 1.7417182095	 0.1358252458	 0.29579
H	-1.0673132202	-0.4316712478	-0.0943942546	 0.132314
H	 1.8716727198	-1.4486160443	-2.949867143	 0.203774
H	 0.9537723569	-1.4759646456	 1.2456112451	 0.115707
H	 2.367665559	 0.1713098601	 2.1876825638	 0.253464
H	 0.46262898	-0.5120993355	 3.4170332154	 0.112434
H	-0.7461057781	 2.0381426404	 2.1147778945	 0.105255
55.1623	69.3529	127.4727	209.9944	224.0615	259.0524	311.8805	371.4497	458.8853	490.1977	536.3722	556.1225	638.5505	671.7757	691.959	820.5115	851.2256	903.2778	955.2633	1001.1661	1010.3215	1034.5591	1070.4438	1121.3143	1182.6235	1224.4378	1237.1091	1283.9474	1321.4641	1364.3218	1415.484	1440.5705	1455.6017	1814.1559	2233.2777	2980.7289	3041.1667	3135.6599	3145.8723	3501.2489	3532.6847	3723.0848
OC(C#C)C1NC1C=O	O[C@@H](C#C)[C@H]1N[C@H]1C=O	
InChI=1S/C6H7NO2/c1-2-5(9)6-4(3-8)7-6/h1,3-7,9H	InChI=1S/C6H7NO2/c1-2-5(9)6-4(3-8)7-6/h1,3-7,9H/t4-,5-,6-/m0/s1
