20
gdb 38732	2.63275	2.02407	1.60187	2.3076	78.04	-0.2278	0.0819	0.3097	923.5935	0.174501	-403.109963	-403.10319	-403.102246	-403.140618	28.792	
C	-0.0877965785	 1.4863053884	 0.0590129363	-0.312782
N	 1.2464232898	 0.8998367042	-0.0091614225	-0.08843
C	 2.0453264555	 0.4826366875	 1.1628240303	-0.173859
C	 1.5601437512	-0.9671787341	 1.4010460356	-0.031482
C	 0.0431489968	-0.7452996198	 1.3037957516	-0.270062
C	 0.0640364611	 0.0092377218	-0.029100194	 0.255199
C	 0.1869795464	-0.9608845362	-1.1802355223	-0.129773
O	 1.4655821082	-1.5956197468	-1.0507865314	-0.259016
C	 1.9089598227	-1.9560858919	 0.256294202	-0.056921
H	-0.4759423713	 1.867891097	 1.0053025851	 0.104334
H	-0.3455536376	 2.097065507	-0.8043774398	 0.116986
H	 3.1062920672	 0.5513303478	 0.9044871915	 0.109388
H	 1.8721719068	 1.100557664	 2.0559083927	 0.091819
H	 1.9144782593	-1.391261953	 2.3470456776	 0.065072
H	-0.5342897747	-1.6723281621	 1.2577933301	 0.098382
H	-0.3428092357	-0.1396980746	 2.1286745612	 0.09357
H	-0.6237705625	-1.7061047522	-1.178729935	 0.082883
H	 0.2059527262	-0.4590138762	-2.1507825269	 0.111969
H	 2.9930991082	-2.0781417567	 0.1599245594	 0.107617
H	 1.488719941	-2.9357683641	 0.5418832486	 0.085108
188.5285	241.0537	327.9981	366.238	388.241	455.3382	480.5912	566.5178	610.0018	758.5278	775.8263	805.539	834.9274	862.736	908.2609	928.1322	937.2689	946.7037	985.7954	992.2668	1030.7221	1045.077	1073.9739	1091.8019	1132.7135	1157.912	1185.0335	1199.0632	1219.6898	1238.5179	1271.8321	1292.4842	1314.818	1331.4218	1342.7715	1361.922	1401.7545	1423.1959	1491.9589	1492.6224	1500.6639	1502.7443	1521.3617	2954.4186	2983.4149	2999.0005	3048.8412	3059.5091	3067.2382	3067.7717	3079.3089	3096.4931	3103.364	3153.3373
C1N2CC3CC12COC3	C1N2C[C@H]3C[C@@]12COC3	
InChI=1S/C7H11NO/c1-6-2-8-4-7(1,8)5-9-3-6/h6H,1-5H2	InChI=1S/C7H11NO/c1-6-2-8-4-7(1,8)5-9-3-6/h6H,1-5H2/t6-,7+,8?/m1/s1
