23
gdb 58868	2.51029	1.39332	1.06796	1.7277	85.16	-0.2438	0.0775	0.3213	1254.7296	0.203867	-388.270599	-388.260725	-388.25978	-388.305165	37.512	
C	 0.3472255495	 1.5644846792	-0.107037021	-0.392044
C	 0.0161261058	 0.0641978542	-0.012089284	-0.096788
C	 0.48487449	-0.6867060091	-1.265653777	-0.393476
C	 0.5984468485	-0.5302485494	 1.24352975	 0.439192
O	 2.0223070619	-0.7360839747	 1.3032227166	-0.297904
C	 1.1598781541	-1.8570186353	 1.5594918682	-0.055129
C	 0.7283091777	-1.7672726691	 3.0246449372	-0.26546
C	 0.1288918642	-0.3452677938	 2.7122833024	-0.048723
C	 0.6753151885	 0.8404789216	 3.4958841555	-0.409883
H	 1.4305238405	 1.7150345276	-0.1552463575	 0.131198
H	-0.0976286912	 2.0017215885	-1.0064576889	 0.109692
H	-0.0316512227	 2.1179312664	 0.757198516	 0.116952
H	-1.0753099437	-0.0390408051	 0.0686007743	 0.074975
H	 1.575500268	-0.6572977014	-1.3426187729	 0.134168
H	 0.1744339529	-1.7359102166	-1.2423933696	 0.109709
H	 0.063284276	-0.231065947	-2.1667309923	 0.108549
H	 1.3039520671	-2.7341628487	 0.9384916792	 0.098608
H	-0.0341168606	-2.4987380348	 3.3034090624	 0.101569
H	 1.5477375899	-1.7996349179	 3.7478889448	 0.106057
H	-0.9646366555	-0.3795641501	 2.7667357406	 0.071039
H	 1.7581724498	 0.9138552839	 3.361445211	 0.132741
H	 0.2239888879	 1.7847001174	 3.1730766152	 0.113509
H	 0.4713114816	 0.7264487745	 4.5661238497	 0.111448
46.2451	133.2283	191.5011	196.7389	211.4404	235.5117	268.4854	277.91	310.1345	394.8719	433.7689	497.2397	585.4475	656.8746	701.7772	800.1873	858.8168	872.6161	887.9345	925.9246	936.7955	950.8563	971.237	1013.5387	1035.9824	1081.1608	1103.6715	1113.4749	1136.6717	1151.1688	1190.9987	1197.6652	1223.9122	1252.0489	1274.6065	1338.4478	1354.7697	1367.5686	1394.2913	1402.8037	1412.983	1449.2234	1478.0199	1485.2396	1491.0685	1494.577	1502.861	1505.3365	1517.5438	3005.6684	3031.7491	3036.336	3040.328	3047.9332	3059.9059	3092.7105	3105.0785	3107.563	3111.8956	3114.9652	3118.6378	3119.826	3179.6912
CC(C)C12OC1CC2C	CC(C)[C@]12O[C@H]1C[C@H]2C	
InChI=1S/C8H14O/c1-5(2)8-6(3)4-7(8)9-8/h5-7H,4H2,1-3H3	InChI=1S/C8H14O/c1-5(2)8-6(3)4-7(8)9-8/h5-7H,4H2,1-3H3/t6-,7+,8-/m1/s1
