23
gdb 121282	2.72652	0.94035	0.73271	1.2908	88.67	-0.2252	0.0348	0.26	1590.8772	0.20574	-388.308251	-388.298283	-388.297339	-388.343383	36.934	
C	-0.2093122981	 1.5604099403	 0.1949635955	-0.498899
C	-0.0596048312	 0.0784144425	 0.0420804701	 0.338894
C	-0.1745294557	-0.6217664474	-1.088041475	-0.173881
C	-0.0422550632	-2.1083383287	-0.8741968739	-0.260657
C	 0.5200892687	-2.1961391373	 0.5653292785	-0.215588
C	 0.1773472344	-0.8387548621	 1.2369210151	-0.07408
C	 1.2400329497	-0.3398799264	 2.2260773695	-0.187594
C	 1.4167924792	-1.2505908253	 3.4345195876	-0.07546
O	 2.3702149434	-0.6471569873	 4.2978294997	-0.422771
H	 0.7030504299	 2.0232082535	 0.5900442884	 0.129909
H	-0.4425711058	 2.0380206036	-0.7606002298	 0.119764
H	-1.0124613935	 1.807478173	 0.9020845873	 0.121366
H	-0.3918318116	-0.1870891267	-2.0587826079	 0.080104
H	-1.0210045339	-2.6027825486	-0.9604394592	 0.100705
H	 0.6092275397	-2.5958169386	-1.6087802345	 0.098622
H	 0.1360885138	-3.0562229836	 1.1204716215	 0.092411
H	 1.6106657579	-2.3010673759	 0.5213191068	 0.100621
H	-0.7728905718	-0.9261935003	 1.791439507	 0.069026
H	 2.2060954002	-0.2384502999	 1.7154254527	 0.101796
H	 0.9738900989	 0.6563166307	 2.5981289188	 0.103435
H	 0.4462126383	-1.3809430187	 3.9425626934	 0.080998
H	 1.7512365636	-2.2494859625	 3.1131603442	 0.08748
H	 2.5097355571	-1.2330275743	 5.0473455943	 0.283798
76.7235	105.5119	117.2225	144.3949	193.0047	247.7699	265.3752	267.8014	331.7248	375.2962	432.925	569.8567	572.6329	672.0454	789.8401	817.0282	846.7392	865.9474	930.4565	936.3516	984.7336	1008.6525	1026.2249	1039.0704	1063.4159	1076.7213	1101.0989	1117.3636	1174.1802	1199.8245	1229.3494	1233.4863	1250.9155	1279.7548	1305.5142	1314.4485	1325.2127	1344.9843	1351.4226	1376.1334	1414.4679	1460.9428	1480.0055	1485.4343	1490.2607	1495.0562	1504.0071	1527.2034	1721.9783	2948.7328	2957.4055	2990.0128	2998.6027	3015.8074	3028.4424	3033.8683	3051.3785	3063.3812	3073.8828	3091.5759	3108.3988	3178.659	3828.9727
CC1=CCCC1CCO	CC1=CCC[C@H]1CCO	
InChI=1S/C8H14O/c1-7-3-2-4-8(7)5-6-9/h3,8-9H,2,4-6H2,1H3	InChI=1S/C8H14O/c1-7-3-2-4-8(7)5-6-9/h3,8-9H,2,4-6H2,1H3/t8-/m0/s1
