19
gdb 109613	2.59476	1.07619	0.97585	3.9238	77.99	-0.2333	0.0187	0.2519	1315.6841	0.157896	-419.195338	-419.185105	-419.184161	-419.231103	36.717	
C	 0.1816279484	 1.4865115793	 0.1513177887	-0.379822
C	-0.2126536664	 0.0322903302	-0.1343906556	-0.195504
C	 0.5683531433	-0.5445424456	-1.2982683347	-0.074484
C	 1.9402284261	-1.1293876225	-1.1313036043	 0.032633
O	 2.4212121031	-1.2038765322	 0.1753716078	-0.412313
C	 0.7472648039	-2.0537285958	-1.4666369011	 0.097237
N	 0.2209479474	-2.9424453853	-0.4480136541	-0.567927
C	 0.6834293289	-2.5820412174	-2.8022663356	 0.254008
N	 0.6641209049	-3.0023416333	-3.8807404034	-0.344477
H	 1.2375323885	 1.555264745	 0.4299057299	 0.130672
H	 0.0223851469	 2.1227615662	-0.7260894642	 0.11573
H	-0.4133685754	 1.8966773402	 0.97278658	 0.116019
H	-0.0583484023	-0.5699750154	 0.7636772315	 0.111248
H	-1.2813845484	-0.0316612047	-0.3680036104	 0.113102
H	 0.4287189557	-0.0085725503	-2.2334415698	 0.111976
H	 2.6891193208	-0.9439294654	-1.8986679085	 0.110242
H	 3.1173154794	-1.869690919	 0.2039941908	 0.297956
H	 0.484474266	-3.8978995498	-0.6719310178	 0.241302
H	 0.6768586092	-2.7149846742	 0.4326184607	 0.242402
30.5573	116.0591	127.1667	165.2567	182.217	206.3583	248.851	293.7719	309.0629	357.2066	437.4397	471.4012	571.6821	595.7338	627.3285	710.6995	766.6925	825.7708	851.7693	942.8667	961.721	1008.6016	1038.2037	1063.8442	1076.0207	1133.7627	1173.4526	1204.9605	1261.4912	1289.8611	1296.1239	1324.9476	1353.1162	1395.502	1411.2283	1474.104	1482.3498	1499.1379	1507.2274	1651.6507	2344.4861	3035.4747	3048.6809	3092.4725	3110.62	3116.3769	3122.265	3147.8606	3479.7891	3563.1218	3801.9671
CCC1C(O)C1(N)C#N	CC[C@H]1[C@@H](O)[C@]1(N)C#N	
InChI=1S/C6H10N2O/c1-2-4-5(9)6(4,8)3-7/h4-5,9H,2,8H2,1H3	InChI=1S/C6H10N2O/c1-2-4-5(9)6(4,8)3-7/h4-5,9H,2,8H2,1H3/t4-,5+,6-/m0/s1
