18
gdb 9611	3.13365	1.4768	1.19845	4.9192	73.24	-0.2698	0.0177	0.2875	1063.6238	0.153013	-343.983568	-343.97475	-343.973805	-344.016897	32.032	
C	 0.1927915131	 1.4884117535	 0.2351706377	-0.389314
C	-0.2373320804	 0.077194654	-0.1821605577	-0.230164
C	 0.5843180281	-0.4801882525	-1.3337704198	 0.327597
C	 0.4299905987	 0.2168009925	-2.6717329897	-0.468615
N	 1.9154968222	-0.9631900205	-0.9470056399	-0.338525
C	 0.9004746589	-1.9501984302	-1.3796126546	-0.251779
C	 0.4260560364	-2.8812204292	-0.3846031185	 0.335913
N	 0.0174782984	-3.6358335177	 0.3905227962	-0.342271
H	 1.2540354744	 1.5013633908	 0.501628193	 0.133569
H	 0.0314024397	 2.222232005	-0.5609709178	 0.114357
H	-0.378530582	 1.820002737	 1.1067011498	 0.121529
H	-0.1411009135	-0.5966028163	 0.6737453753	 0.130881
H	-1.2958868011	 0.0720306124	-0.4705223468	 0.103462
H	 0.7772853612	 1.2531713187	-2.6124112379	 0.136454
H	 1.0082211285	-0.2865790532	-3.4533322052	 0.11697
H	-0.6186752979	 0.2347195034	-2.9858524298	 0.135674
H	 2.5883654802	-0.8302763349	-1.6989301396	 0.238612
H	 1.003989085	-2.3944059828	-2.3663105849	 0.125651
74.7927	122.6841	147.9054	213.5455	221.8988	254.509	334.5208	366.1598	397.9173	449.7982	579.6465	611.067	695.9442	783.9762	811.8349	894.0833	932.7103	961.2398	1006.0175	1012.3825	1044.6398	1096.8683	1116.8191	1139.6298	1208.734	1263.0776	1322.3323	1340.8181	1388.1184	1408.5921	1417.2328	1437.9199	1474.5752	1488.8257	1499.5585	1505.5098	1508.9449	2357.073	3032.4371	3037.3379	3040.1267	3088.442	3102.9541	3105.1353	3112.3345	3117.1551	3142.4592	3494.6036
CCC1(C)NC1C#N	CC[C@@]1(C)N[C@H]1C#N	
InChI=1S/C6H10N2/c1-3-6(2)5(4-7)8-6/h5,8H,3H2,1-2H3	InChI=1S/C6H10N2/c1-3-6(2)5(4-7)8-6/h5,8H,3H2,1-2H3/t5-,6+/m0/s1
