17
gdb 66078	2.32259	1.36637	1.15846	1.9374	74.99	-0.2601	-0.0365	0.2237	1134.6542	0.131951	-421.77635	-421.766942	-421.765998	-421.811269	33.665	
C	 0.0923083056	 1.4618200113	-0.099445903	-0.420807
C	 0.0157815409	-0.0577272053	 0.0137886134	 0.208488
O	 0.8318680114	-0.6870686678	-1.0253077934	-0.302098
C	 1.7095254931	-1.3106789641	-0.0738859693	-0.092932
C	 0.8802365793	-0.7698065025	 1.1107292171	-0.196447
C	 1.5996204339	 0.015233857	 2.1755498108	 0.141886
O	 1.2397085789	 1.0651515715	 2.6414133472	-0.240388
C	-1.3651728724	-0.5268132138	-0.0390162702	 0.325597
C	-2.5038102239	-0.9104555863	-0.0688292051	-0.462948
H	 1.1323278196	 1.793907285	-0.0773447914	 0.120732
H	-0.3539423587	 1.7629909194	-1.0509985926	 0.13177
H	-0.4450333467	 1.9419856619	 0.7198698833	 0.146823
H	 1.7357320691	-2.4000147782	-0.1842322011	 0.116489
H	 2.7343330343	-0.9210914957	-0.1421456142	 0.10691
H	 0.3223954291	-1.5613171631	 1.6219115354	 0.129203
H	 2.5296690899	-0.4837162978	 2.5384988249	 0.084718
H	-3.5101942833	-1.2487808414	-0.103047762	 0.203004
43.1092	72.1704	141.459	170.9615	204.3967	241.4373	288.4447	348.639	385.0426	521.068	536.273	580.5897	628.4091	668.5131	695.9415	725.9059	872.9545	905.64	939.6811	956.9131	1022.5442	1066.656	1104.1483	1126.9821	1160.8932	1177.8268	1198.5413	1243.8394	1328.3206	1354.3964	1408.3581	1424.291	1474.4248	1484.4172	1529.6838	1827.8172	2233.9669	2849.4355	3009.1152	3055.8939	3057.0296	3070.6636	3132.9358	3150.1544	3499.8207
CC1(OCC1C=O)C#C	C[C@]1(OC[C@H]1C=O)C#C	
InChI=1S/C7H8O2/c1-3-7(2)6(4-8)5-9-7/h1,4,6H,5H2,2H3	InChI=1S/C7H8O2/c1-3-7(2)6(4-8)5-9-7/h1,4,6H,5H2,2H3/t6-,7+/m1/s1
