23
gdb 85970	3.3099	0.97731	0.92598	1.4836	85.32	-0.2525	0.0776	0.3301	1395.4098	0.204845	-388.265583	-388.255982	-388.255038	-388.300065	37.333	
C	-0.35120095	 1.8766848346	-0.1038029185	-0.477002
C	-0.0010243382	 0.3919968357	-0.0603335165	 0.31857
C	 1.1214516524	-0.0591070592	-1.0570034673	-0.304224
C	 1.7902723264	-0.8526389462	 0.0959130705	 0.179767
O	 3.1919611855	-0.875416449	 0.2082734459	-0.437542
C	 0.9480136338	-0.0365349809	 1.1111980827	-0.304226
C	-1.2038502543	-0.5386823172	-0.1468604644	 0.000669
C	-2.5353935552	-0.2530192779	 0.5017525594	-0.284859
C	-2.414900914	-0.2686937748	-1.0046325173	-0.284859
H	 0.5588409204	 2.481254078	-0.0372925416	 0.105846
H	-0.8557756642	 2.1517288069	-1.0361006714	 0.118133
H	-0.997109297	 2.1701211144	 0.7305360098	 0.118132
H	 0.8166607583	-0.6074864856	-1.9520474394	 0.098956
H	 1.7488551205	 0.7866732823	-1.3613749913	 0.082333
H	 1.4911038169	-1.9042605662	 0.0829302002	 0.091063
H	 3.5025181446	 0.0361328384	 0.2236789217	 0.273305
H	 1.5204586092	 0.8163988018	 1.4938632729	 0.082332
H	 0.5039249285	-0.5667851638	 1.9575674884	 0.098957
H	-0.9157611062	-1.5872637564	-0.1129065006	 0.082409
H	-3.0536176691	-1.071467916	 0.9895164177	 0.10938
H	-2.6866883434	 0.7080421554	 0.9801601884	 0.11174
H	-2.4866437965	 0.6820184774	-1.5207739498	 0.11174
H	-2.8503635383	-1.0979096317	-1.5515340096	 0.10938
51.1478	82.1398	188.4872	219.2017	254.2396	277.5395	313.3575	323.7855	384.142	402.3858	451.4843	494.2858	596.6447	693.4188	786.7185	819.0523	821.9586	827.5423	889.1107	931.2593	940.3424	958.1556	987.2825	997.5293	1053.1996	1057.4374	1068.9574	1080.0033	1103.021	1117.3509	1147.3941	1157.8753	1193.8015	1199.2332	1218.5568	1231.8281	1273.8733	1280.2265	1314.8959	1338.1918	1399.2228	1420.6072	1438.0593	1464.2389	1466.7542	1488.8243	1500.0558	1500.825	1509.9927	3028.4217	3032.3809	3039.3861	3068.9181	3094.5287	3096.4645	3099.5447	3104.6932	3123.7432	3134.8489	3139.5729	3210.4858	3225.2179	3802.7989
CC1(CC(O)C1)C1CC1	C[C@]1(C[C@@H](O)C1)C1CC1	
InChI=1S/C8H14O/c1-8(6-2-3-6)4-7(9)5-8/h6-7,9H,2-5H2,1H3	InChI=1S/C8H14O/c1-8(6-2-3-6)4-7(9)5-8/h6-7,9H,2-5H2,1H3/t7-,8-
