21
gdb 109248	3.35536	1.20939	1.04262	1.4104	84.04	-0.2181	0.0334	0.2515	1221.8196	0.184645	-387.084215	-387.07609	-387.075146	-387.116836	32.23	
O	 0.0431799062	 1.4159498606	-0.0214791807	-0.413968
C	-0.0120301704	 0.0028037257	-0.0056382386	-0.186912
C	-1.4332237374	-0.4702324895	 0.0198041521	 0.324426
C	-2.5021382652	 0.3278912143	 0.0230895764	-0.160525
C	-3.8833981321	-0.287034686	 0.0501879859	-0.254576
C	-3.7896249299	-1.8226454232	 0.0701720804	-0.010621
C	-2.7450568836	-2.280024456	 1.1309900772	-0.21556
C	-1.6712196074	-1.9698125622	 0.0436034206	-0.109717
C	-2.7738748007	-2.3094814646	-1.0054189686	-0.215574
H	 0.9673616427	 1.6781033379	-0.0454874981	 0.288871
H	 0.4918036389	-0.4288364544	-0.8903126966	 0.092298
H	 0.517071171	-0.4100319639	 0.8732775229	 0.092233
H	-2.3966747089	 1.4066365918	 0.0069723757	 0.100081
H	-4.4407408961	 0.0679744173	 0.9291745732	 0.100406
H	-4.4643570324	 0.0437162009	-0.8229541742	 0.100374
H	-4.7797886013	-2.2847015926	 0.0899210737	 0.05573
H	-2.6846163054	-1.7279551923	 2.072615416	 0.09178
H	-2.8236943469	-3.352200024	 1.3319385412	 0.090273
H	-0.7440235923	-2.548744714	 0.0390720523	 0.048992
H	-2.8574720216	-3.3867545587	-1.1745953797	 0.090275
H	-2.7391098373	-1.7835776669	-1.9631892711	 0.091714
80.6141	159.7403	205.7941	235.6583	304.8398	356.9108	363.5206	427.9539	533.9766	571.5644	648.4306	772.0918	819.783	821.6136	834.4027	875.0571	910.4024	940.7804	950.6995	975.2152	1025.0449	1055.2624	1055.7556	1086.048	1092.949	1101.4948	1130.8991	1131.5073	1170.8889	1207.891	1221.3608	1247.6891	1252.6728	1265.4145	1289.0508	1296.0354	1340.5721	1370.4876	1371.6259	1462.7734	1475.7624	1478.885	1505.3066	1510.4522	1734.7157	2927.125	2937.5927	2997.4255	3020.0712	3047.4042	3049.678	3069.7349	3074.7443	3106.5339	3109.1597	3198.6165	3841.9939
OCC1=CCC2CC1C2	OCC1=CC[C@@H]2C[C@H]1C2	
InChI=1S/C8H12O/c9-5-7-2-1-6-3-8(7)4-6/h2,6,8-9H,1,3-5H2	InChI=1S/C8H12O/c9-5-7-2-1-6-3-8(7)4-6/h2,6,8-9H,1,3-5H2/t6-,8+
