20
gdb 5946	2.93241	1.45789	1.26246	1.5577	76.73	-0.2492	0.0539	0.303	1086.1225	0.172745	-348.967676	-348.95762	-348.956676	-349.002086	36.801	
C	-0.0087444089	 1.3915223629	-0.1190484468	-0.241649
O	 0.008022419	-0.0066473894	 0.054578893	-0.268652
C	 0.7093814378	-0.5340492955	 1.1845624857	 0.353233
C	 2.1634096043	-0.0472462145	 1.2464096052	-0.425525
C	-0.0367102621	-0.2022015247	 2.4870742571	-0.418106
C	 0.650583344	-2.0665712603	 0.95685141	-0.370951
C	 1.3668509569	-2.5315477794	-0.223930611	 0.323494
C	 1.964205176	-2.9336844551	-1.1862784394	-0.454522
H	 0.9872672261	 1.8039103096	-0.3307918276	 0.108729
H	-0.6498782694	 1.5850137945	-0.9829960182	 0.128025
H	-0.4285751588	 1.9258325895	 0.7454284336	 0.101979
H	 2.2190476514	 1.0222049074	 1.4676723569	 0.112361
H	 2.7025282692	-0.5745048032	 2.0396460791	 0.11508
H	 2.6726864587	-0.2406134372	 0.2994057377	 0.138462
H	-1.0780845351	-0.5316869245	 2.4243564565	 0.120409
H	 0.4346158582	-0.6977178002	 3.3415223485	 0.114606
H	-0.0283116202	 0.8726386754	 2.6884507608	 0.115583
H	 1.0451136694	-2.569830564	 1.8477209179	 0.122365
H	-0.4062355292	-2.3462054297	 0.8742906837	 0.1341
H	 2.4832319728	-3.2852596117	-2.0430014127	 0.190978
71.1412	80.1288	142.1946	189.3658	240.4304	252.7722	290.1808	314.4992	347.2984	357.1702	387.2546	418.7656	465.5419	592.8009	608.2771	638.9112	740.1072	855.2635	882.614	923.2106	959.8879	1006.2543	1019.7827	1119.073	1165.6098	1179.8052	1189.6415	1213.5732	1260.6709	1296.1386	1344.9977	1395.2238	1414.1672	1455.1854	1475.1278	1481.6879	1483.8883	1497.2842	1503.4383	1511.2139	1515.7201	2238.7107	2991.2711	3029.9219	3036.314	3043.5746	3047.7091	3069.1288	3107.0548	3107.8227	3114.5014	3115.4283	3131.9026	3506.7325
COC(C)(C)CC#C	COC(C)(C)CC#C	
InChI=1S/C7H12O/c1-5-6-7(2,3)8-4/h1H,6H2,2-4H3	InChI=1S/C7H12O/c1-5-6-7(2,3)8-4/h1H,6H2,2-4H3
