15
gdb 29950	3.40753	1.46286	1.03003	4.1343	71.74	-0.2464	-0.0323	0.2142	1093.4887	0.114637	-450.215433	-450.207076	-450.206131	-450.248775	29.756	
C	-0.0209067484	 1.4422321643	 0.0020353934	-0.331069
N	 0.0029949414	-0.0136448852	-0.0264723892	-0.109632
C	-0.1317683362	-0.7177938748	-1.1613365905	 0.116659
N	-0.1174062602	-2.0138770384	-1.2364721292	-0.353094
C	 0.0539282135	-2.6361246047	-0.0169924086	 0.445829
N	 0.0731122124	-3.9821568563	-0.0796494713	-0.543097
N	 0.1962379679	-2.0626606902	 1.1595462147	-0.392243
C	 0.1805537037	-0.7037551085	 1.2324848338	 0.431419
O	 0.2989448686	-0.0318375586	 2.2339488065	-0.395287
H	 0.9151185246	 1.822847371	 0.4160864736	 0.161152
H	-0.1591388097	 1.8176386993	-1.0140744376	 0.126852
H	-0.8349394812	 1.789860565	 0.6416380079	 0.160994
H	-0.2629335366	-0.1389009042	-2.0743739167	 0.134103
H	-0.0463222306	-4.4383057907	-0.9656552739	 0.272266
H	 0.1834354508	-4.5110833682	 0.7670465373	 0.275148
86.7409	113.5261	115.3775	182.7792	256.6855	317.4472	369.8158	444.8039	492.9427	583.8782	592.1535	611.5761	748.0151	777.5611	816.4232	823.4719	936.5835	997.8739	1066.6266	1090.9072	1157.3389	1209.3894	1258.132	1386.1725	1396.212	1456.5532	1465.2829	1480.0897	1516.7751	1543.7797	1632.7859	1690.1446	1815.3134	3056.7304	3132.6584	3142.7102	3149.2631	3631.5861	3773.5146
CN1C=NC(N)=NC1=O	Cn1cnc(N)nc1=O	
InChI=1S/C4H6N4O/c1-8-2-6-3(5)7-4(8)9/h2H,1H3,(H2,5,7,9)	InChI=1S/C4H6N4O/c1-8-2-6-3(5)7-4(8)9/h2H,1H3,(H2,5,7,9)
