21
gdb 60259	2.99529	1.00169	0.83179	4.2661	75.45	-0.2438	0.0514	0.2952	1437.7812	0.180991	-461.340987	-461.331092	-461.330148	-461.376233	36.366	
C	-0.1744788803	 1.5904814959	 0.4627623113	-0.38251
C	-0.1333438759	 0.0707313813	 0.3503837197	 0.149215
O	 0.3053454776	-0.4278518577	 1.6045896584	-0.451435
C	-1.5025879051	-0.5166731808	-0.0341586673	-0.216434
C	-1.4256084304	-1.9997974057	-0.3660340711	 0.09903
O	-0.8710116957	-2.8043681932	 0.7227423706	-0.298591
C	-2.1411676646	-3.4491316626	 0.9643714347	-0.105477
C	-2.7422207497	-2.8128616474	-0.310762982	 0.04561
O	-3.8964018571	-2.0243169352	-0.1766465248	-0.41752
H	 0.7964973841	 1.9632854651	 0.8002494239	 0.121746
H	-0.410408915	 2.0512752373	-0.5014197039	 0.103213
H	-0.9289637901	 1.8981266856	 1.1940125416	 0.117289
H	 0.5918075984	-0.1996248514	-0.4403155423	 0.052369
H	 0.1233343978	-1.3780615167	 1.6099378987	 0.288779
H	-2.2044349862	-0.3458962415	 0.7883976826	 0.114019
H	-1.9012418723	 0.0036684	-0.9136695701	 0.101348
H	-0.8276759945	-2.1555637086	-1.2725550882	 0.084008
H	-2.0426171317	-4.5397117003	 0.9917311604	 0.106346
H	-2.6211246925	-3.0936582423	 1.8843687315	 0.112556
H	-2.8349133957	-3.5230562795	-1.141031104	 0.083615
H	-4.669510761	-2.5895061824	-0.2636154599	 0.292825
56.2936	86.8877	119.1669	165.5993	205.3069	233.7155	257.3331	307.5559	396.792	408.7315	472.4591	506.549	547.44	555.702	741.1361	831.1038	862.6657	893.8775	902.7069	955.6638	965.4775	1013.655	1062.5022	1073.7898	1078.1499	1120.8845	1157.931	1160.0252	1185.7046	1204.5499	1245.3897	1277.1398	1301.7687	1308.8883	1332.0574	1354.1444	1379.5385	1394.1738	1405.3302	1442.9141	1462.6765	1474.6507	1488.1345	1500.8669	1514.4314	2916.4053	3019.988	3022.8381	3035.6768	3037.087	3041.5858	3080.0073	3092.828	3111.8307	3118.9417	3724.4498	3832.6828
CC(O)CC1OCC1O	C[C@@H](O)C[C@H]1OC[C@H]1O	
InChI=1S/C6H12O3/c1-4(7)2-6-5(8)3-9-6/h4-8H,2-3H2,1H3	InChI=1S/C6H12O3/c1-4(7)2-6-5(8)3-9-6/h4-8H,2-3H2,1H3/t4-,5-,6-/m1/s1
