18
gdb 37397	2.84682	2.21235	1.7905	1.1635	72.88	-0.2211	0.0627	0.2838	831.2613	0.151525	-401.872208	-401.866365	-401.865421	-401.901978	25.779	
C	-0.0606288466	 1.5628068671	 0.0548821889	-0.233491
C	 1.4851211348	 1.4696385614	 0.0292563311	-0.045179
C	 1.9921161557	 1.3100854777	 1.4634211201	 0.024797
O	 0.9913508299	 1.3705899284	 2.5066083025	-0.255106
C	 1.4799632135	 0.0968291455	 2.1103132722	 0.064224
C	 0.7102583783	-0.7759729143	 1.1343330413	-0.116464
C	 1.7855589896	-1.0770499169	 0.0462069008	-0.164881
N	 1.3398988006	 0.1240235424	-0.7257148481	-0.145785
C	-0.0013238569	 0.0345778909	-0.0130558157	 0.014379
H	-0.5280731695	 2.0579120968	 0.9011294975	 0.126955
H	-0.4471638372	 1.9471317283	-0.8915924002	 0.107939
H	 2.0563584543	 2.2036565302	-0.5404246666	 0.073516
H	 2.9486873136	 1.7450023244	 1.7391010541	 0.096628
H	 2.0639942879	-0.4288040352	 2.8656943257	 0.098314
H	 0.1638439714	-1.5950389882	 1.6066854097	 0.068889
H	 2.8345853076	-1.1079696614	 0.3583648949	 0.101204
H	 1.563620082	-1.9621700583	-0.5574644633	 0.110643
H	-0.796184409	-0.527280429	-0.5126421351	 0.073418
271.4516	343.3735	388.6655	447.0175	500.5042	617.3618	626.2495	710.5883	730.2583	805.0946	817.4945	828.9346	854.706	895.9962	917.8016	957.4969	973.4412	980.7124	1018.5386	1035.0009	1049.7881	1070.9348	1091.7452	1115.8192	1136.4421	1174.5849	1204.6567	1213.6815	1243.0664	1261.0292	1280.1115	1291.9543	1299.6136	1322.7971	1336.06	1373.6742	1442.9048	1475.6547	1503.88	3041.7612	3058.8934	3081.6443	3085.0648	3096.5114	3098.8238	3111.4303	3152.1496	3176.2882
C1C2C3OC3C3CN2C13	C1[C@H]2[C@H]3O[C@H]3[C@@H]3CN2[C@H]13	
InChI=1S/C7H9NO/c1-4-3-2-8(4)5(1)7-6(3)9-7/h3-7H,1-2H2	InChI=1S/C7H9NO/c1-4-3-2-8(4)5(1)7-6(3)9-7/h3-7H,1-2H2/t3-,4-,5+,6+,7-/m1/s1
