18
gdb 39521	3.05999	1.89791	1.54213	1.1543	75.67	-0.2356	-0.0097	0.2259	900.0442	0.150988	-401.895953	-401.88945	-401.888506	-401.926469	27.129	
C	-0.0741081341	 1.4164472267	 0.0753097775	-0.198918
C	 1.3599744454	 1.8988238575	 0.0828827156	-0.138562
C	 2.178392776	 0.9089621512	-0.2877899471	 0.137775
C	 3.4931555371	 0.6046952654	 0.3511904864	-0.125646
O	 3.2094152053	-0.3786759586	 1.3780593251	-0.272543
C	 1.8396391736	-0.4902247298	 1.7914097012	-0.094655
C	 0.9256866187	-0.8905951414	 0.6172264311	-0.039226
C	 1.3605735375	-0.2955072008	-0.667620461	-0.094115
N	-0.0006920934	-0.0333986833	-0.1993646715	-0.128335
H	-0.549818551	 1.6088543397	 1.0454313898	 0.119498
H	-0.7138858247	 1.8795456338	-0.6879634381	 0.11894
H	 1.6743443202	 2.8212948935	 0.5602138448	 0.101207
H	 4.2322039651	 0.1431505787	-0.3126673756	 0.1095
H	 3.9378307236	 1.5013650189	 0.8033549755	 0.098616
H	 1.8530736045	-1.2960346808	 2.5296934141	 0.11412
H	 1.4947600366	 0.4167658577	 2.3042598438	 0.09839
H	 0.5625310692	-1.9138378014	 0.6384953605	 0.102643
H	 1.5339314702	-0.855708397	-1.5825081922	 0.09131
177.6817	274.0379	280.1306	348.9577	439.1049	495.2307	548.8043	648.0477	730.5952	767.6612	792.9887	806.5104	842.0076	865.7076	898.186	925.8852	944.8991	1011.9708	1016.6079	1024.6243	1042.2203	1056.9117	1092.8729	1129.5288	1174.54	1205.6167	1217.9051	1251.0892	1271.8071	1297.7878	1324.0358	1343.1611	1363.4888	1376.3181	1388.9365	1479.6994	1496.5681	1515.9406	1684.6454	3010.2268	3013.3641	3015.653	3048.5948	3062.1042	3094.9598	3138.8963	3153.5862	3185.9779
C1C=C2COCC3C2N13	C1[CH][C]2COC[C@@H]3[C@H]2N13	
InChI=1S/C7H9NO/c1-2-8-6-4-9-3-5(1)7(6)8/h1,6-7H,2-4H2	InChI=1S/C7H9NO/c1-2-8-6-4-9-3-5(1)7(6)8/h1,6-7H,2-4H2/t6-,7+,8?/m1/s1
