25
gdb 62922	2.45349	1.5279	1.44689	0.1167	90.92	-0.2631	0.0761	0.3392	1119.7451	0.231805	-352.364465	-352.355858	-352.354914	-352.396703	35.89	
C	-0.1089167983	 1.4778966775	 0.1145813367	-0.451196
C	-0.0243547563	-0.0504714913	-0.0036427994	 0.365474
C	-1.4321977742	-0.5830425159	-0.2739479818	-0.468236
C	 1.1565690379	-0.5045519692	-0.9341076977	-0.030019
C	 2.0923266576	-0.3924666998	 0.304272889	-0.24865
C	 0.823359186	-0.6847084197	 1.1563886795	-0.030024
C	 0.6003413481	-2.2025908044	 1.2360681875	-0.22159
C	 1.0247670741	-2.9093412512	-0.0827913433	-0.195549
C	 1.0094620399	-1.9813713507	-1.3308562669	-0.221592
H	 0.8584164083	 1.9472222292	 0.3092237681	 0.111318
H	-0.5067171317	 1.9138898486	-0.8094034916	 0.107672
H	-0.7839514765	 1.7640167563	 0.9297780516	 0.107671
H	-1.8350392976	-0.1498499562	-1.1974131442	 0.108129
H	-1.4799247607	-1.6688171388	-0.3751588542	 0.114178
H	-2.1117645793	-0.2995230735	 0.5387824567	 0.108129
H	 1.3698016863	 0.1247268927	-1.8043129692	 0.048003
H	 2.9245282037	-1.0979769788	 0.3761203861	 0.085541
H	 2.4826676544	 0.6143897033	 0.4532619492	 0.096103
H	 0.740773393	-0.2153712037	 2.1420963219	 0.048003
H	 1.1844646819	-2.6149710158	 2.0670849627	 0.089161
H	-0.4488987329	-2.407671794	 1.4746220529	 0.096813
H	 2.0430300808	-3.2876598819	 0.0468979975	 0.10289
H	 0.4048358539	-3.7941538425	-0.2578493122	 0.0918
H	 0.0909088308	-2.1157750863	-1.9122934923	 0.096814
H	 1.832292861	-2.2646818538	-1.9975873766	 0.089159
151.0143	186.9111	224.6308	229.6892	286.6163	332.4134	381.4042	395.9772	432.4439	456.8737	522.6004	582.7042	666.0922	762.9243	805.592	814.9559	839.4937	883.7338	905.5113	916.1393	952.626	952.848	970.3827	1009.235	1012.7939	1049.4932	1080.886	1097.1206	1109.4276	1133.3675	1186.1637	1205.6083	1224.1627	1237.6235	1244.1273	1257.6991	1266.8433	1318.2368	1318.945	1334.6458	1352.4831	1369.7134	1382.1103	1402.3403	1423.129	1482.6378	1484.5173	1489.771	1498.7411	1504.2881	1509.6852	1524.7745	1525.9564	3022.6634	3026.8869	3028.1371	3029.4105	3046.8972	3048.711	3051.0759	3057.2279	3063.7738	3069.0432	3076.9161	3083.2338	3089.031	3111.58	3127.2576	3128.6498
CC1(C)C2CC1CCC2	CC1(C)[C@H]2C[C@@H]1CCC2	
InChI=1S/C9H16/c1-9(2)7-4-3-5-8(9)6-7/h7-8H,3-6H2,1-2H3	InChI=1S/C9H16/c1-9(2)7-4-3-5-8(9)6-7/h7-8H,3-6H2,1-2H3/t7-,8+
