24
gdb 7587	2.51165	1.59477	1.37214	0.1081	85.1	-0.2551	0.0818	0.337	1112.558	0.221597	-314.273731	-314.263634	-314.262689	-314.307724	38.246	
C	-2.140497189	 0.2451620264	 1.8824921239	-0.395298
C	-1.1558480682	-0.5705874957	 1.0286750642	-0.021841
C	-0.9844818466	 0.0592185393	-0.363281307	-0.399368
C	 0.1830285828	-0.786590176	 1.742538305	 0.388628
C	 0.9885316122	 0.4678544184	 2.0436638391	-0.470923
C	 0.2525956244	-1.8947236909	 2.7728263015	-0.345371
C	 0.9946870956	-2.0406046659	 1.4631023775	-0.03581
C	 0.6205542242	-3.1120738037	 0.4606329431	-0.417421
H	-1.7999667805	 1.2774385551	 2.0164763846	 0.113488
H	-3.1243472911	 0.2870314532	 1.4034411426	 0.106327
H	-2.2661392553	-0.1980255853	 2.8754883005	 0.112769
H	-1.6087496777	-1.5587057952	 0.8850157	 0.066405
H	-0.597067761	 1.0814948855	-0.2968258708	 0.114249
H	-0.2930591379	-0.5209450837	-0.9821032385	 0.114057
H	-1.9452293693	 0.1094224444	-0.8866500479	 0.10728
H	 0.4350399448	 1.1642873428	 2.6829064825	 0.114485
H	 1.9156323856	 0.2143252798	 2.5672129945	 0.109987
H	 1.2663584223	 1.0035124328	 1.1293611483	 0.114503
H	 0.8174184529	-1.7297644726	 3.6850031122	 0.101051
H	-0.6337253387	-2.5084956833	 2.9095387176	 0.100831
H	 2.0699707808	-1.8870678969	 1.5304392593	 0.074948
H	-0.4563576739	-3.298114053	 0.4302085838	 0.117377
H	 0.9411589272	-2.8476814499	-0.5535562452	 0.114987
H	 1.1034290065	-4.0611166655	 0.7203526589	 0.114659
73.3518	150.4661	184.6826	196.452	218.7748	234.5858	251.5887	280.5533	293.3451	344.1672	399.8044	437.1957	487.0675	537.6	662.7883	774.6623	852.474	878.227	919.1651	928.7233	935.5105	962.0639	970.3382	1022.2846	1048.5776	1072.7272	1109.7815	1133.0109	1137.6997	1149.0746	1189.8693	1195.2393	1270.2507	1313.8152	1349.4151	1376.1959	1396.3709	1408.7196	1413.3365	1423.3188	1433.1869	1483.8768	1486.1251	1491.008	1493.9182	1499.4695	1504.392	1505.8663	1509.7014	1515.2903	3025.4887	3027.5936	3029.7662	3031.9106	3035.8204	3081.3902	3087.9294	3095.9971	3096.4512	3100.3553	3102.6017	3103.8082	3107.7013	3114.9526	3124.9458	3196.9593
CC(C)C1(C)CC1C	CC(C)[C@@]1(C)C[C@H]1C	
InChI=1S/C8H16/c1-6(2)8(4)5-7(8)3/h6-7H,5H2,1-4H3	InChI=1S/C8H16/c1-6(2)8(4)5-7(8)3/h6-7H,5H2,1-4H3/t7-,8-/m1/s1
