21
gdb 116930	6.77154	0.50478	0.4948	1.7625	90.48	-0.2411	0.0306	0.2717	2308.6522	0.181236	-387.048115	-387.037818	-387.036874	-387.086622	35.457	
C	-0.4154400664	 1.6801725683	 0.2076168869	-0.382007
C	-0.3697335345	 0.1512006965	 0.2233373498	-0.154032
C	 0.9976786484	-0.3894250435	 0.6893010262	-0.337883
C	 1.0680093476	-1.8453556099	 0.7160518874	 0.025409
C	 1.0961424583	-3.0502616626	 0.7350191956	 0.138019
C	 1.1458511668	-4.5004429896	 0.7520175345	-0.031095
C	 2.5373084354	-5.1837611104	 0.6306142921	-0.283424
C	 2.1782197942	-5.8340073091	 1.9792266437	-0.058214
O	 0.9495410604	-5.0827932547	 2.0709806077	-0.280034
H	 0.341069107	 2.094134722	-0.4685613513	 0.115202
H	-1.3926214825	 2.0425121114	-0.1251679685	 0.115583
H	-0.2291357809	 2.0938523071	 1.2050589353	 0.116586
H	-1.1489339248	-0.2437742909	 0.8844253572	 0.112593
H	-0.5840411227	-0.2435929402	-0.7760715439	 0.108305
H	 1.7865667884	 0.0021816657	 0.0323980687	 0.125814
H	 1.2217485818	 0.0027963663	 1.6906859729	 0.129574
H	 0.4056405353	-4.9062763198	 0.0484861184	 0.097535
H	 2.656443961	-5.8560179047	-0.2197479819	 0.112846
H	 3.3720771784	-4.4840625521	 0.666418211	 0.121511
H	 1.9929824758	-6.9151077686	 1.9420683125	 0.10021
H	 2.8516072331	-5.6187325812	 2.8167714858	 0.107502
9.7445	53.1725	68.6089	84.7816	136.9448	182.9782	240.6996	299.162	331.0276	462.3064	491.8027	538.2932	701.1355	741.7071	797.7609	841.8432	870.5844	887.958	935.6574	946.6946	1005.4432	1027.8924	1045.035	1087.495	1108.6928	1120.6467	1163.621	1183.9359	1214.9409	1255.8607	1258.537	1262.2884	1305.5584	1321.8585	1352.7733	1368.7097	1381.985	1413.0122	1469.1259	1488.3221	1491.6662	1499.0913	1508.6262	1531.883	2358.6108	2998.9966	3008.394	3015.5465	3029.2193	3035.325	3041.9596	3057.4081	3073.5514	3089.2568	3099.9438	3105.7501	3149.4591
CCCC#CC1CCO1	CCCC#C[C@H]1CCO1	
InChI=1S/C8H12O/c1-2-3-4-5-8-6-7-9-8/h8H,2-3,6-7H2,1H3	InChI=1S/C8H12O/c1-2-3-4-5-8-6-7-9-8/h8H,2-3,6-7H2,1H3/t8-/m0/s1
