14
gdb 24495	4.07675	1.70687	1.20313	4.8037	76.6	-0.2368	-0.0384	0.1984	939.1224	0.106321	-395.812348	-395.806364	-395.80542	-395.842511	24.146	
N	-0.0280815468	 1.3701727333	 0.0100518115	-0.39074
C	 1.2702780308	 1.8333591296	 0.0001124814	-0.040047
C	 2.1502371031	 0.7829749771	-0.0143177439	-0.275973
C	 1.3579232882	-0.4069588595	-0.0133637725	 0.340169
C	-0.0047578453	-0.004069226	 0.0020928356	 0.261315
C	-0.9826166296	-0.9887801775	 0.0060044134	-0.076726
N	-0.6296419536	-2.2712776595	-0.0046418241	-0.264921
C	 0.6892160361	-2.5520952632	-0.0189831883	 0.044786
N	 1.7092139526	-1.7035484199	-0.0240715885	-0.339657
H	-0.8500453078	 1.9483994629	 0.0212982791	 0.269583
H	 1.4636395708	 2.8952835187	 0.0042279419	 0.137671
H	 3.2263682584	 0.8438256581	-0.0243859398	 0.116955
H	-2.0471448874	-0.7595407936	 0.0175934949	 0.10725
H	 0.9402506304	-3.6098337005	-0.0273823462	 0.110333
218.2972	243.2747	400.7802	429.3569	436.5165	569.1193	621.4829	628.8059	643.1721	762.4822	785.9826	838.1006	875.5762	900.5963	910.578	934.8367	990.4215	1081.3184	1113.6862	1143.3243	1214.9089	1277.2699	1290.7883	1315.0626	1397.3285	1427.2778	1438.2689	1505.3417	1536.614	1585.709	1645.5727	3135.3986	3165.9104	3253.0778	3274.9025	3678.6018
N1C=CC2=C1C=NC=N2	[nH]1ccc2c1cncn2	
InChI=1S/C6H5N3/c1-2-8-6-3-7-4-9-5(1)6/h1-4,8H	InChI=1S/C6H5N3/c1-2-8-6-3-7-4-9-5(1)6/h1-4,8H
