21
gdb 41988	3.22557	1.41841	1.048	1.296	84.66	-0.2331	0.0224	0.2555	1179.1985	0.185998	-387.119613	-387.11194	-387.110996	-387.151821	30.607	
C	-0.0282629465	 1.430580901	-0.0563386995	-0.076604
C	 1.4235823143	 1.9164989295	 0.1945805873	-0.351938
C	 2.2241225389	 0.6493472205	-0.0173423324	 0.334172
C	 3.4797383209	 0.3702421949	 0.3170409033	-0.196457
C	 4.0731853084	-1.0102271003	 0.1770857028	-0.234649
C	 3.1278927323	-2.0110061925	-0.516396599	-0.21512
C	 1.6582300422	-1.795929728	-0.1179761823	-0.235171
C	 1.2562113175	-0.3910279922	-0.5377002125	 0.067732
O	 0.0028722549	 0.0084880741	 0.0077378306	-0.269748
H	-0.7433018389	 1.782985675	 0.691026798	 0.108312
H	-0.3775961537	 1.7596823591	-1.0478590296	 0.088772
H	 1.7044390814	 2.7173325431	-0.4978669962	 0.112397
H	 1.5540477816	 2.3041044709	 1.2095250792	 0.118685
H	 4.1139728062	 1.1351775896	 0.7619637346	 0.077318
H	 5.0273251088	-0.9618056601	-0.3640545778	 0.102646
H	 4.3323324285	-1.3755120993	 1.1823986739	 0.107474
H	 3.2167958558	-1.8974428705	-1.6045544242	 0.101082
H	 3.4385339486	-3.0351474938	-0.2870045907	 0.096268
H	 1.0117370016	-2.5443599062	-0.5868645214	 0.097803
H	 1.5339637033	-1.8836861874	 0.9676422943	 0.104107
H	 1.2011844838	-0.3418692973	-1.6429005883	 0.062919
83.1266	159.1403	225.9438	272.4803	339.1501	350.1879	452.3024	508.7887	577.9159	688.0583	689.8319	757.4712	809.6288	855.9521	869.9753	883.5425	935.2525	949.4134	958.6947	1016.0393	1044.5797	1076.3725	1087.6609	1096.5978	1119.5969	1145.1159	1170.5814	1213.9041	1230.3309	1251.6916	1267.7732	1278.0569	1319.5928	1331.7095	1360.3899	1367.6344	1385.071	1389.7221	1404.7468	1477.4531	1480.7852	1491.3545	1499.1265	1518.5479	1761.2331	2902.5226	2975.7837	2994.6501	3019.8346	3035.7573	3040.1411	3043.8889	3077.0038	3078.1488	3087.7519	3097.8881	3137.9519
C1CC2=CCCCC2O1	C1CC2=CCCC[C@H]2O1	
InChI=1S/C8H12O/c1-2-4-8-7(3-1)5-6-9-8/h3,8H,1-2,4-6H2	InChI=1S/C8H12O/c1-2-4-8-7(3-1)5-6-9-8/h3,8H,1-2,4-6H2/t8-/m1/s1
