24
gdb 88996	4.10341	0.79824	0.73379	1.059	90.53	-0.2196	0.0904	0.31	1662.39	0.217449	-368.372929	-368.363277	-368.362333	-368.408177	36.291	
C	 0.0590081729	 1.4983508909	-0.3841385533	-0.410623
C	 0.0827264716	 0.0205043425	-0.0564287531	 0.030309
C	 1.3656957524	-0.73133738	 0.0515532723	-0.249893
N	 0.5335125742	-0.5114367928	 1.2310140524	-0.082819
C	 1.0275792522	 0.388361693	 2.26850571	-0.172181
C	 1.7164639676	-0.3968398886	 3.3744266965	 0.069196
C	 3.1309740472	-0.9981407031	 3.129704948	-0.212932
C	 3.5040292707	-0.6074636861	 4.5850245236	-0.210205
C	 2.3093405469	 0.3844749395	 4.5802699235	-0.238083
H	 0.9708686759	 2.0116021967	-0.0700542682	 0.120174
H	-0.0432435094	 1.6372171409	-1.4657348877	 0.120553
H	-0.792657905	 1.9964225263	 0.0929505698	 0.121527
H	-0.7806754279	-0.5208849852	-0.4431089771	 0.086234
H	 1.4519843296	-1.7583349981	-0.2948441568	 0.109375
H	 2.2819110316	-0.1470132672	-0.0386083448	 0.101684
H	 1.7250664469	 1.1539435066	 1.8851438722	 0.073436
H	 0.1652859714	 0.9233411012	 2.6887896066	 0.097297
H	 1.0359482963	-1.1796502636	 3.7250542228	 0.078661
H	 3.1984114378	-2.0503378969	 2.8441694095	 0.096207
H	 3.6931741935	-0.4032696795	 2.4014193903	 0.091243
H	 3.3375557508	-1.4348472078	 5.2809342785	 0.101162
H	 4.5023934183	-0.2012548894	 4.7642450516	 0.092565
H	 2.6259652255	 1.3909862856	 4.2845549183	 0.093846
H	 1.7017955589	 0.4658299552	 5.4852580852	 0.093266
49.6887	78.463	103.9055	166.5164	183.6807	238.9206	289.6179	365.5445	404.9044	438.4265	493.4691	645.0882	747.8339	769.889	782.9596	822.3465	890.3122	900.3152	914.9467	933.7483	947.938	971.9916	979.2308	1034.5965	1041.5262	1085.8499	1112.958	1121.4904	1145.9382	1148.8942	1185.0688	1189.9308	1202.7052	1234.8416	1255.7096	1260.5094	1272.9908	1282.0431	1304.2167	1337.0695	1356.078	1394.0563	1407.0322	1420.6977	1476.9022	1483.9648	1487.6869	1492.8546	1500.3312	1508.8045	1514.3983	2939.2093	3029.402	3034.4811	3040.1799	3044.5386	3056.508	3057.367	3080.3146	3091.138	3093.8661	3095.8825	3100.5375	3115.5058	3124.9168	3166.478
CC1CN1CC1CCC1	C[C@H]1CN1CC1CCC1	
InChI=1S/C8H15N/c1-7-5-9(7)6-8-3-2-4-8/h7-8H,2-6H2,1H3	InChI=1S/C8H15N/c1-7-5-9(7)6-8-3-2-4-8/h7-8H,2-6H2,1H3/t7-,9?/m0/s1
