16
gdb 97349	5.92525	0.60485	0.57282	2.4314	73.09	-0.2644	-0.0413	0.2232	1888.0147	0.120175	-475.057781	-475.047869	-475.046925	-475.094629	32.755	
C	-0.3524853431	 1.2828497004	 0.0844395091	-0.320335
N	-0.0629165171	-0.1376054149	 0.0415554671	-0.184083
C	 0.583634611	-0.5628193383	-0.9421126034	 0.110259
O	 0.8645183084	-1.9144040047	-0.9984361048	-0.216467
C	 1.5808874426	-2.3750403905	-2.0637446623	 0.442778
O	 1.9806468632	-1.690708895	-2.9678512865	-0.339209
C	 1.7981031026	-3.8656796118	-1.9538249982	-0.404616
C	 1.6330883946	-4.5634103722	-3.3011392538	 0.164674
O	 1.2003522007	-5.6776462972	-3.413319388	-0.229029
H	 0.0641222512	 1.705058313	 1.0049552153	 0.139633
H	 0.0413655988	 1.8483015016	-0.7734845745	 0.109383
H	-1.437330913	 1.4249381576	 0.1305587284	 0.140251
H	 0.9702642652	 0.0019332982	-1.7924433992	 0.138069
H	 2.8452220128	-4.0127844302	-1.6516366683	 0.171904
H	 1.1608616746	-4.3267293023	-1.1993216507	 0.161032
H	 1.9619119975	-3.9601706436	-4.1714686903	 0.115756
26.9709	76.6504	92.8814	96.911	134.713	213.5989	231.2196	317.003	339.3249	385.3272	463.7526	553.8027	603.2273	736.6751	784.1539	948.3507	985.6932	1038.3975	1045.3097	1066.0127	1109.9201	1141.5059	1158.731	1177.5594	1219.3163	1317.3298	1371.2627	1411.1408	1434.2805	1447.5993	1480.9314	1501.7736	1780.3579	1822.2531	1846.4555	2938.2394	2988.9711	3028.3963	3075.7047	3093.831	3120.381	3144.6009
CN=COC(=O)CC=O	CN=COC(=O)CC=O	
InChI=1S/C5H7NO3/c1-6-4-9-5(8)2-3-7/h3-4H,2H2,1H3	InChI=1S/C5H7NO3/c1-6-4-9-5(8)2-3-7/h3-4H,2H2,1H3
