16
gdb 69187	2.10481	1.70146	1.16605	3.8914	75.49	-0.2455	-0.0167	0.2289	1085.7556	0.122087	-400.6988	-400.690281	-400.689337	-400.7319	31.889	
C	-0.0008920266	 1.545702948	 0.0335128862	-0.493191
C	-0.0422832091	 0.0497216136	-0.0053850895	 0.341464
C	-0.8341357434	-0.794793242	 0.8933587004	-0.290282
N	 0.6618844597	-0.808423389	 1.0638046169	-0.212732
C	 1.1385612407	-1.669432346	 0.0059592775	 0.405515
O	 1.8351485604	-2.6289532893	 0.0607777694	-0.287491
C	 0.5430091819	-0.8029657077	-1.1507462073	-0.392294
C	-0.3365341952	-1.4043129249	-2.1272487154	 0.327589
C	-1.0805171314	-1.9220304806	-2.9170738876	-0.445334
H	 0.9856702329	 1.9212759243	-0.2563693484	 0.13369
H	-0.740438916	 1.9655695906	-0.6570621615	 0.139518
H	-0.2254153297	 1.9130458388	 1.0384600042	 0.139762
H	-1.3275208234	-0.3232275097	 1.7367592254	 0.141343
H	-1.3215963374	-1.692623917	 0.523439821	 0.147713
H	 1.3751574222	-0.2806404022	-1.6380663333	 0.13951
H	-1.7308564157	-2.379818217	-3.6209980581	 0.205221
96.242	115.6361	158.254	194.8961	273.0119	350.4297	367.6882	386.0679	524.766	542.2347	618.4706	628.1372	647.2556	652.7694	700.2112	765.3694	866.9636	923.0744	967.4809	1005.5511	1022.2748	1064.6043	1086.472	1128.8586	1138.6338	1165.4267	1266.066	1315.4808	1394.5771	1428.9293	1483.4466	1491.2648	1512.4703	1926.0787	2236.3055	3036.9004	3046.8189	3101.8606	3120.5498	3122.663	3214.4298	3501.4238
CC12CN1C(=O)C2C#C	C[C@]12CN1C(=O)[C@H]2C#C	
InChI=1S/C7H7NO/c1-3-5-6(9)8-4-7(5,8)2/h1,5H,4H2,2H3	InChI=1S/C7H7NO/c1-3-5-6(9)8-4-7(5,8)2/h1,5H,4H2,2H3/t5-,7-,8?/m1/s1
