17
gdb 123798	5.44205	0.94433	0.83288	1.4692	74.87	-0.2079	0.0071	0.215	1345.9694	0.138899	-414.169319	-414.161471	-414.160527	-414.202574	29.301	
C	-0.3395721581	 1.0621874436	-0.3169211826	-0.249538
C	 1.0610327136	 1.1161826924	 0.2389549788	-0.28647
C	 0.3716075406	-0.2099150746	 0.0799386794	 0.030423
N	-0.0523280864	-0.8743560919	 1.2761739811	-0.384546
C	-1.0842310769	-1.7931941489	 1.1997483134	 0.371771
N	-1.2416018534	-2.7514121561	 2.116845822	-0.315536
N	-2.3550521939	-3.3702162076	 1.7100760496	-0.07696
N	-2.9245203635	-2.9084086591	 0.6143823247	-0.193179
C	-2.1333640342	-1.8939418477	 0.2583554808	-0.123336
H	-1.144018574	 1.3939798806	 0.3284871046	 0.127487
H	-0.4869481991	 1.2553053014	-1.3734811333	 0.115924
H	 1.880278777	 1.3466093298	-0.4320477097	 0.117619
H	 1.1801345894	 1.4890266831	 1.2497628526	 0.122503
H	 0.7131452335	-0.8483872783	-0.7367119668	 0.090145
H	 0.6976833619	-1.1840939896	 1.8793425154	 0.244358
H	-2.7319593916	-4.154252556	 2.2150547878	 0.289243
H	-2.3387449149	-1.3022198311	-0.6172542378	 0.120094
68.2824	69.6252	129.793	310.2	340.1028	373.0059	438.093	482.4242	596.216	703.2842	739.7941	755.9306	777.7668	838.6581	845.0091	852.2944	965.9465	994.0463	1009.0302	1039.3423	1060.4043	1080.8539	1134.4709	1174.7386	1186.8288	1196.2087	1203.9088	1250.9825	1262.9884	1343.6226	1398.7758	1404.4169	1457.0902	1480.319	1498.8082	1520.8101	1607.7495	3077.7859	3140.7612	3145.4093	3225.1952	3239.0597	3286.318	3579.8003	3683.4264
C1CC1NC1=NNN=C1	C1CC1Nc1n[nH]nc1	
InChI=1S/C5H8N4/c1-2-4(1)7-5-3-6-9-8-5/h3-4H,1-2H2,(H2,6,7,8,9)	InChI=1S/C5H8N4/c1-2-4(1)7-5-3-6-9-8-5/h3-4H,1-2H2,(H2,6,7,8,9)
