18
gdb 112309	2.90777	1.41245	1.05962	2.8405	74.19	-0.2585	0.0249	0.2834	1150.8697	0.148402	-439.088408	-439.080239	-439.079295	-439.121492	30.616	
C	-0.2217141099	 1.3062071721	 0.0762873357	-0.243489
O	-0.1155016543	-0.1095542401	 0.0999314958	-0.226648
C	 0.7669711167	-0.5959313014	 1.047028342	 0.19871
O	 0.2645755883	-0.3412386218	 2.3816607319	-0.274016
C	 0.3266694642	-1.4666152756	 3.1678984771	 0.413536
N	 0.1723941445	-1.4767365012	 4.4202947714	-0.547193
C	 0.619188216	-2.6471154482	 2.3134081949	-0.113582
C	-0.3506450079	-2.8711129855	 1.1696426596	-0.280603
C	 0.9127248724	-2.1000260397	 0.9369911156	-0.090491
H	 0.7608891278	 1.7755421569	-0.0786367716	 0.110817
H	-0.874087212	 1.5594126872	-0.7613632974	 0.133359
H	-0.6556422474	 1.6898226796	 1.0063292548	 0.133984
H	 1.734886176	-0.0753076814	 0.9725199494	 0.078226
H	 0.0164427676	-0.5293600906	 4.7684651427	 0.221208
H	 1.1411874599	-3.4829051001	 2.7570114953	 0.117738
H	-0.3968554959	-3.8778411553	 0.7716111699	 0.122703
H	-1.290928066	-2.3325939199	 1.1675063585	 0.141054
H	 1.6975710501	-2.4941085052	 0.3050820645	 0.104685
88.4063	115.6553	160.2174	179.4383	243.0339	341.6387	404.492	494.9928	528.7891	605.1058	712.8185	753.0346	803.5479	843.3534	863.6189	888.8601	943.2793	959.8776	1000.9929	1019.9908	1033.0295	1068.5582	1093.8423	1101.8888	1110.6128	1161.8925	1179.3367	1197.1987	1233.0282	1276.761	1348.1731	1373.4789	1392.0957	1405.8941	1480.1589	1485.5669	1488.5838	1510.1167	1781.4286	2979.7225	2998.8602	3073.5934	3133.3392	3146.5968	3200.3064	3222.0649	3238.0803	3475.5275
COC1OC(=N)C2CC12	CO[C@H]1O[C]([NH])[C@H]2C[C@@H]12	
InChI=1S/C6H9NO2/c1-8-6-4-2-3(4)5(7)9-6/h3-4,6-7H,2H2,1H3	InChI=1S/C6H9NO2/c1-8-6-4-2-3(4)5(7)9-6/h3-4,6-7H,2H2,1H3/t3-,4+,6-/m0/s1
