17
gdb 26751	3.12319	1.51012	1.04295	2.3079	77.31	-0.1875	0.0434	0.2309	1128.7905	0.136537	-418.010632	-418.002124	-418.00118	-418.04405	30.772	
C	-0.2617856166	 1.40967881	 0.0348939245	-0.49683
C	 0.1207142559	-0.0302733406	-0.0834314102	 0.142473
C	 0.3251733084	-0.7599831217	-1.2414790344	 0.235723
O	 0.2279941028	-0.4757341502	-2.563709413	-0.43437
N	 0.7864919774	-1.9805167263	-0.818337758	-0.046474
C	 0.7886376804	-3.4620481413	-0.8904957143	-0.171398
C	 0.8933030325	-3.4604906699	 0.6841427743	-0.357905
C	 0.74571852	-1.9545954916	 0.5453443992	 0.328969
N	 0.3552668012	-0.8199617875	 1.051140819	-0.400751
H	 0.5672134087	 2.0299023319	 0.3964935371	 0.132912
H	-0.5864096196	 1.8237568883	-0.927446129	 0.091982
H	-1.0907693058	 1.5337164063	 0.7393349861	 0.140102
H	 0.0163718417	 0.4587424716	-2.6570573413	 0.305695
H	-0.1474097026	-3.8752203855	-1.2735962267	 0.136389
H	 1.6352111945	-3.8721332147	-1.4451390708	 0.13043
H	 0.0707272466	-3.971068804	 1.1897927748	 0.133859
H	 1.8432250745	-3.8242515648	 1.0833451927	 0.129193
82.5717	92.3485	187.3579	199.1596	228.5459	261.2782	290.6882	365.3896	571.0344	596.4305	658.5818	678.5146	681.3297	802.7007	832.2299	861.504	932.0195	981.7832	1049.9658	1055.958	1086.4903	1133.363	1176.8655	1203.4926	1214.9297	1248.9479	1268.0336	1309.1601	1396.7287	1419.6626	1467.9572	1479.9957	1493.3963	1503.2931	1523.7199	1598.3673	1610.3386	3016.9783	3066.234	3070.1916	3070.7304	3090.0562	3114.1212	3128.9563	3831.4636
CC1=C(O)N2CCC2=N1	Cc1c(O)n2CCc2n1	
InChI=1S/C6H8N2O/c1-4-6(9)8-3-2-5(8)7-4/h9H,2-3H2,1H3	InChI=1S/C6H8N2O/c1-4-6(9)8-3-2-5(8)7-4/h9H,2-3H2,1H3
