18
gdb 109854	2.56771	1.07527	0.93998	3.3622	70.14	-0.2561	0.004	0.2601	1304.4083	0.146262	-476.180788	-476.171252	-476.170308	-476.216123	34.012	
O	 0.2571229298	 0.9065696984	-0.2987769846	-0.424587
C	-0.0564022917	-0.2462705319	 0.4600863022	-0.09295
C	-1.4926027314	-0.6950655655	 0.2365164646	-0.11906
C	-1.8814181529	-1.1076920427	-1.169621045	 0.075501
O	-0.8733790745	-1.1356052123	-2.1408183539	-0.430583
C	-1.84873438	-2.140300055	-0.0838164474	 0.014578
O	-0.8321409807	-3.0956360663	-0.265463321	-0.205857
C	-0.3345975758	-3.6859280172	 0.851121362	 0.133208
N	 0.5479423768	-4.575861826	 0.7364138429	-0.431149
H	 0.1716589982	 0.6382602662	-1.2224159306	 0.295326
H	 0.6376408787	-1.0676845154	 0.2387967247	 0.102215
H	 0.0887068746	 0.0252604948	 1.5104782367	 0.110117
H	-2.2465049941	-0.1485534327	 0.7958434262	 0.100293
H	-2.8426836491	-0.799469906	-1.5700539118	 0.110086
H	-0.4487686403	-2.0026247561	-2.0980305414	 0.310617
H	-2.7795755499	-2.557806266	 0.2912437739	 0.113271
H	-0.7818008204	-3.3014818075	 1.7759297987	 0.101595
H	 0.8203341129	-4.9223977387	 1.6537675339	 0.237379
53.0461	88.6109	99.0065	129.8236	167.5607	263.7272	286.9429	340.0803	371.237	513.7373	529.85	598.1285	643.3181	685.7949	783.7989	798.9077	826.9938	900.044	972.2979	1017.1127	1047.0044	1065.958	1079.2107	1084.6208	1124.5948	1129.2507	1171.7602	1235.2139	1246.7637	1279.4181	1334.8432	1354.0494	1369.2981	1407.7911	1411.778	1439.6412	1442.1761	1505.5812	1749.5156	3017.1076	3049.5532	3076.658	3134.5083	3147.5183	3159.3357	3523.9158	3765.1524	3779.5025
OCC1C(O)C1OC=N	OC[C@H]1[C@@H](O)[C@H]1O[CH][NH]	
InChI=1S/C5H9NO3/c6-2-9-5-3(1-7)4(5)8/h2-8H,1H2	InChI=1S/C5H9NO3/c6-2-9-5-3(1-7)4(5)8/h2-8H,1H2/t3-,4+,5-/m0/s1
