14
gdb 133247	2.52532	1.80652	1.06009	3.0704	68.52	-0.2374	-0.0588	0.1786	1035.1229	0.101188	-478.005321	-477.997763	-477.996819	-478.037629	27.723	
C	-0.0224177595	 1.4448668988	-0.0019897963	-0.315222
N	-0.0062545041	-0.0156344391	 0.0014977504	-0.057487
N	-0.0381345377	-0.6125100124	-1.2011404046	-0.20866
C	-0.0241401364	-1.9160794246	-1.2232418455	 0.009421
C	 0.0228803316	-2.7242036307	-0.0538850442	-0.25926
C	 0.0543355905	-2.0962424246	 1.1438616985	 0.216213
F	 0.0989461379	-2.758369931	 2.2852081464	-0.039748
C	 0.0410275983	-0.6424969397	 1.2546270564	 0.316498
O	 0.0685388968	-0.0018859899	 2.2908179786	-0.392567
H	 0.8746026511	 1.8290189602	 0.4899404001	 0.155587
H	-0.0623975513	 1.7659255647	-1.0405745471	 0.150865
H	-0.8908933748	 1.8093089992	 0.5521192496	 0.155706
H	-0.0507666528	-2.365701554	-2.2088777793	 0.135383
H	 0.0333304105	-3.8061934969	-0.1157342231	 0.133273
102.1132	125.0474	218.6686	281.9383	305.6462	328.4542	481.0611	494.2382	531.4216	579.7037	622.2144	720.5955	776.149	869.9455	885.8279	941.3769	982.9928	1035.9519	1100.4418	1150.1629	1279.3937	1284.5648	1320.0971	1382.1148	1404.0074	1441.3712	1472.8183	1502.0846	1577.403	1672.5677	1766.7051	3061.0624	3124.621	3185.4194	3197.8649	3210.2254
CN1N=CC=C(F)C1=O	Cn1nccc(F)c1=O	
InChI=1S/C5H5FN2O/c1-8-5(9)4(6)2-3-7-8/h2-3H,1H3	InChI=1S/C5H5FN2O/c1-8-5(9)4(6)2-3-7-8/h2-3H,1H3
