16
gdb 33805	3.54257	1.50643	1.34544	4.4029	76.7	-0.2457	-0.0269	0.2188	964.8507	0.126725	-363.615135	-363.608497	-363.607553	-363.645885	27.528	
N	 0.0177559117	-1.1403022434	-0.0179716569	-0.342191
C	 0.0050094668	 0.0153636732	-0.0073015564	 0.15667
C	-0.0093641231	 1.4664156253	 0.0034267704	 0.138626
C	-0.6575651971	 2.1824910706	 1.2387404968	-0.221362
C	-0.354081587	 3.5880490966	 0.6401878661	-0.139609
C	 1.1629589235	 3.4205764098	 0.421703461	-0.088328
C	 1.3768773948	 2.1630882922	 0.0442463105	-0.101114
C	-1.0421207991	 3.4072497848	-0.7277021135	-0.088328
C	-0.8433792885	 2.1496318796	-1.1129454833	-0.10112
H	-1.7234587974	 1.9669547139	 1.3371578781	 0.116017
H	-0.1257688953	 1.9766112418	 2.1699102026	 0.116019
H	-0.6616094409	 4.4566138718	 1.2201039016	 0.075457
H	 1.8874331828	 4.2178041281	 0.5143497507	 0.114451
H	 2.2960602785	 1.6738426083	-0.2433799174	 0.125181
H	-1.5404978276	 4.1970901666	-1.2724870602	 0.114452
H	-1.1294017921	 1.653080721	-2.0287054902	 0.125178
155.249	165.0122	418.1465	447.288	490.5911	494.6345	545.6088	564.8967	569.1647	689.2097	720.8606	763.0953	789.9659	811.3978	905.5422	905.9674	919.3183	922.7707	946.8971	951.9398	1039.8907	1064.5902	1073.9891	1092.0261	1154.7171	1206.2636	1236.8488	1255.7549	1272.9822	1282.591	1342.7581	1494.5828	1617.4629	1661.1464	2360.9739	3072.5602	3131.9139	3139.0095	3222.2009	3223.5168	3250.3347	3252.0483
N#CC12CC(C=C1)C=C2	N#C[C@@]12C[C@@H](C=C1)C=C2	
InChI=1S/C8H7N/c9-6-8-3-1-7(5-8)2-4-8/h1-4,7H,5H2	InChI=1S/C8H7N/c9-6-8-3-1-7(5-8)2-4-8/h1-4,7H,5H2/t7-,8-
