21
gdb 70866	2.76712	1.54686	1.18638	1.413	83.09	-0.2251	0.0779	0.303	1126.1098	0.181141	-387.051148	-387.042296	-387.041351	-387.083649	35.469	
C	-0.0815072782	 1.4685308498	 0.0527654821	-0.502324
C	 0.0385315829	-0.0250099133	 0.0086373423	 0.308843
C	 0.9226605506	-0.8672368745	-0.909725221	-0.32032
C	 0.0749967875	-2.0892497072	-0.4489767765	 0.324576
C	-0.0930776185	-3.3072816844	-1.3184840517	-0.501218
C	 0.4571899059	-2.228414247	 1.0596219143	-0.338336
C	-0.2544979971	-0.8944725659	 1.2383228537	 0.357508
O	-0.5958047034	-0.2670266139	 2.4205291321	-0.464013
C	-1.0701809972	-1.0711744661	-0.0267439412	-0.277022
H	 0.8650769764	 1.930184357	 0.3582685674	 0.11836
H	-0.3490297195	 1.8756082476	-0.9288484752	 0.110659
H	-0.8437839462	 1.7765406526	 0.7736270258	 0.129243
H	 0.7411864407	-0.6239092427	-1.962450395	 0.088904
H	 2.0039798252	-0.9022380471	-0.7234235466	 0.08113
H	 0.8621109669	-3.8320826195	-1.441793008	 0.117647
H	-0.8070429665	-4.0153968146	-0.8833864829	 0.113475
H	-0.4548429813	-3.0368018812	-2.3165694199	 0.115746
H	-0.0979401857	-3.0455753745	 1.5350980302	 0.081856
H	 1.5217935795	-2.3076213492	 1.3113629391	 0.08701
H	-1.2436650507	-0.815102616	 2.8764809677	 0.284151
H	-2.1271541913	-0.99870609	-0.2425046268	 0.084125
182.1376	195.1146	208.9136	217.6492	242.56	273.1144	310.0981	380.7777	432.443	448.8906	460.6171	569.0428	610.4418	660.6999	740.3487	761.9608	819.1304	863.8243	889.2216	932.1274	973.7044	977.5507	1023.2409	1034.4737	1070.1058	1090.2157	1111.1417	1143.8668	1165.9319	1189.8619	1195.666	1228.5013	1260.7357	1295.7392	1347.4005	1362.5548	1412.9323	1416.4764	1440.2844	1487.8163	1488.7148	1492.3051	1493.2179	1497.3207	1515.0995	3011.1698	3018.0301	3022.3517	3025.5798	3070.1131	3073.5268	3079.7457	3083.8716	3091.5117	3113.0811	3212.317	3796.6114
CC12CC3(C)CC1(O)C23	C[C@@]12C[C@@]3(C)C[C@]1(O)[C@@H]23	
InChI=1S/C8H12O/c1-6-3-7(2)5(6)8(7,9)4-6/h5,9H,3-4H2,1-2H3	InChI=1S/C8H12O/c1-6-3-7(2)5(6)8(7,9)4-6/h5,9H,3-4H2,1-2H3/t5-,6+,7+,8+/m1/s1
