18
gdb 108497	2.73902	1.55802	1.23003	1.9964	70.92	-0.2458	0.0104	0.2562	1045.7143	0.149147	-439.086149	-439.078315	-439.077371	-439.118909	29.891	
O	 0.0853989019	 1.3778073933	 0.1038392926	-0.421978
C	 0.0583400493	-0.0344959113	 0.1087364027	-0.12303
C	-1.3686113245	-0.5489827566	 0.001533312	 0.289884
C	-2.3115792153	-0.3265385147	 1.2201733689	-0.262484
C	-2.6530522288	-1.8515540081	 1.2236587579	-0.243549
C	-1.6814710651	-2.0764085305	 0.0435177659	 0.028134
O	-2.3328684833	-2.3430474267	-1.2225856639	-0.231277
C	-2.4265111076	-1.1368712292	-1.8334997758	 0.109382
N	-1.954195298	-0.098685231	-1.2774818563	-0.319934
H	-0.4486347059	 1.6479813058	-0.6540514967	 0.296468
H	 0.6567365011	-0.4585805044	-0.7151451126	 0.086098
H	 0.5121133259	-0.3592509659	 1.0519798033	 0.10086
H	-1.7925776728	 0.0236986999	 2.1150715717	 0.113817
H	-3.1483293882	 0.3430108674	 1.015627349	 0.11338
H	-2.3753195956	-2.3833942953	 2.1364825667	 0.111444
H	-3.6867912121	-2.1022217383	 0.9770834289	 0.116983
H	-0.8805740158	-2.8070009021	 0.1703891116	 0.091383
H	-2.9185837451	-1.1640546025	-2.799789786	 0.14442
71.3892	103.0188	174.7412	287.5432	329.6068	346.2259	439.8048	475.9333	584.7757	656.55	683.2082	732.1856	826.536	871.9774	882.0256	924.863	945.1068	962.7153	969.8301	1013.342	1048.4952	1085.2966	1124.233	1134.053	1147.5853	1190.8393	1219.5721	1235.7436	1264.8025	1276.1965	1308.6043	1319.7387	1358.8974	1376.0444	1439.5403	1466.6633	1483.324	1505.3404	1685.2339	2964.4154	3061.4133	3069.823	3076.451	3096.4091	3119.7113	3137.8894	3212.8015	3777.6836
OCC12CCC1OC=N2	OC[C@]12CC[C@H]1OC=N2	
InChI=1S/C6H9NO2/c8-3-6-2-1-5(6)9-4-7-6/h4-5,8H,1-3H2	InChI=1S/C6H9NO2/c8-3-6-2-1-5(6)9-4-7-6/h4-5,8H,1-3H2/t5-,6-/m1/s1
