20
gdb 98421	2.55812	1.21335	0.99434	2.7005	77.88	-0.2373	0.0312	0.2685	1294.2699	0.169245	-440.310434	-440.300277	-440.299333	-440.345467	37.127	
C	 0.0995865847	 1.4508140519	 0.1570446068	-0.332188
N	 0.2042611677	 0.0140163008	 0.0196957118	-0.319819
C	 0.4441124806	-0.5934228751	-1.1725183512	 0.346888
O	 0.542256847	 0.0027895036	-2.2364913975	-0.39855
C	 0.5819224771	-2.0943941315	-1.0693587234	 0.256976
O	 0.2101640491	-2.6521856686	 0.1717025178	-0.469328
C	 0.3659143428	-2.9123819433	-2.3216651591	-0.339982
C	 1.7518633433	-2.7897234534	-1.7426399138	-0.007278
C	 2.8625661609	-2.0580496071	-2.4602535985	-0.4263
H	 0.9384126474	 1.8645429878	 0.729359947	 0.125422
H	 0.1139193141	 1.8774824673	-0.8468395849	 0.168171
H	-0.8340685827	 1.7333664955	 0.6555748901	 0.122377
H	 0.2051594111	-0.5809761957	 0.8331557413	 0.252072
H	-0.7466244139	-2.771519866	 0.164707269	 0.286475
H	-0.1605011236	-3.8537765937	-2.2057263179	 0.108517
H	 0.1418659087	-2.3448286894	-3.2180058834	 0.141207
H	 2.0668599309	-3.6530914424	-1.1621810699	 0.099697
H	 2.4824133785	-1.170145438	-2.96766813	 0.158714
H	 3.6446032563	-1.7449957335	-1.7597604876	 0.113465
H	 3.3260445799	-2.7151584391	-3.2041378269	 0.113464
68.2773	94.3391	135.1189	182.858	188.5837	219.1238	250.8893	322.8192	346.4425	365.5818	426.0691	443.0231	478.1945	553.9978	634.173	744.5465	800.7526	825.777	878.6322	904.1024	934.0342	1006.2852	1048.1804	1068.0056	1118.4141	1129.6307	1154.0387	1174.1828	1192.6812	1207.1826	1250.2928	1324.8205	1331.7235	1392.3437	1421.0624	1438.5346	1463.9648	1495.0885	1499.1803	1500.7529	1506.6952	1567.0834	1757.5701	3024.4179	3034.5901	3075.7594	3090.1785	3131.7903	3135.5254	3149.1222	3152.1971	3231.112	3633.2655	3787.0432
CNC(=O)C1(O)CC1C	CNC(=O)[C@@]1(O)C[C@H]1C	
InChI=1S/C6H11NO2/c1-4-3-6(4,9)5(8)7-2/h4,9H,3H2,1-2H3,(H,7,8)	InChI=1S/C6H11NO2/c1-4-3-6(4,9)5(8)7-2/h4,9H,3H2,1-2H3,(H,7,8)/t4-,6-/m1/s1
