15
gdb 34152	2.86405	1.70387	1.36707	4.0435	69.98	-0.2624	-0.0001	0.2624	937.5567	0.115055	-416.748259	-416.741699	-416.740755	-416.779302	25.852	
N	-0.0320728697	-1.1262906724	 0.0771460134	-0.343504
C	-0.0277947561	 0.030241228	 0.0688802145	 0.146808
C	-0.0279241879	 1.4677815302	 0.021226153	 0.211411
N	-0.632863368	 2.342870533	 1.0869365909	-0.353948
C	-0.0831146359	 3.3087764724	 0.0672584769	-0.091235
C	 1.2048461333	 2.4350497612	-0.05246235	-0.076989
C	 1.6458381563	 2.4803819362	-1.5049217784	-0.11851
O	 0.3698230287	 2.4671258911	-2.1880440212	-0.26456
C	-0.5381785006	 2.4194941704	-1.1305779501	 0.088083
H	-1.6550985445	 2.3063769044	 1.0146721046	 0.223152
H	-0.1496813716	 4.3883974672	 0.1876924907	 0.101701
H	 1.9330860424	 2.4233883209	 0.7549820716	 0.112072
H	 2.1945292052	 3.3932699715	-1.7612500367	 0.121966
H	 2.2351785999	 1.609761144	-1.811751863	 0.131979
H	-1.5732272518	 2.3813929622	-1.4687122062	 0.111573
130.4577	157.8786	307.4351	378.3143	450.7269	529.1727	540.5127	582.9094	704.6388	747.0327	781.8139	829.4369	913.7932	936.3871	953.1572	963.538	986.9055	1013.4776	1035.8025	1094.9256	1107.5691	1137.5853	1162.7873	1202.4902	1217.9664	1252.5279	1261.3032	1281.4464	1296.273	1330.3649	1393.5359	1516.1272	2349.011	3040.5346	3084.6192	3136.7582	3145.6133	3163.201	3385.0968
N#CC12NC3C1COC23	N#C[C@@]12N[C@H]3[C@@H]1CO[C@@H]23	
InChI=1S/C6H6N2O/c7-2-6-3-1-9-5(6)4(3)8-6/h3-5,8H,1H2	InChI=1S/C6H6N2O/c7-2-6-3-1-9-5(6)4(3)8-6/h3-5,8H,1H2/t3-,4-,5+,6+/m0/s1
