18
gdb 90269	3.42719	1.52018	1.25705	0.4525	71.52	-0.2094	0.0533	0.2627	1012.9621	0.148179	-439.002504	-438.994908	-438.993964	-439.034591	30.038	
O	-0.1256665534	 1.4216538367	 0.0134670406	-0.411404
C	-0.0176881181	 0.0224235082	 0.0365102445	 0.11888
C	 0.3130388287	-0.6261444702	 1.4356656235	-0.385216
C	-1.1385953283	-1.0629245815	 1.5141002437	 0.487127
O	-1.6657181672	-2.2009184055	 2.1711936443	-0.332093
C	-2.9310543481	-1.5141794685	 2.3892428324	-0.10748
C	-2.365947416	-0.1750965186	 1.8463694962	-0.105723
N	-2.560440167	 0.1709524025	 0.4210960695	-0.303391
C	-1.4230141	-0.6906022185	 0.0315949744	-0.108452
H	 0.7589256187	 1.7845295906	 0.1244062837	 0.284624
H	 0.6366690913	-0.347223034	-0.7643126347	 0.070488
H	 0.992618505	-1.4787823186	 1.3382989479	 0.111517
H	 0.6841071383	 0.0446538583	 2.2160222217	 0.099342
H	-3.7459684521	-1.9506903223	 1.7981622964	 0.097966
H	-3.2026599428	-1.5232149613	 3.4508431984	 0.109536
H	-2.3687571037	 0.6701294077	 2.537577258	 0.086963
H	-3.4534332143	-0.1080236568	 0.028983124	 0.217318
H	-1.5828911111	-1.4088104083	-0.7744614045	 0.069997
67.9847	192.7378	245.2491	287.08	336.3614	377.3949	406.3239	470.2691	608.3758	636.4312	700.2342	785.0434	813.8909	835.0566	850.2526	893.3648	932.4607	977.798	981.0878	1024.5713	1040.6197	1092.0691	1101.5639	1120.6448	1138.5384	1158.1513	1178.9403	1205.1469	1210.1612	1260.2841	1274.0758	1303.0312	1313.5164	1335.4654	1352.0581	1380.2524	1419.9378	1467.0275	1508.5983	3000.9009	3014.6442	3048.244	3066.6277	3090.2557	3095.9163	3102.9441	3524.8388	3816.5457
OC1CC23OCC2NC13	O[C@H]1C[C@@]23OC[C@@H]2N[C@@H]13	
InChI=1S/C6H9NO2/c8-3-1-6-4(2-9-6)7-5(3)6/h3-5,7-8H,1-2H2	InChI=1S/C6H9NO2/c8-3-1-6-4(2-9-6)7-5(3)6/h3-5,7-8H,1-2H2/t3-,4-,5-,6+/m0/s1
