25
gdb 58034	1.84742	1.30951	0.93693	0.5735	94.6	-0.258	0.0541	0.3121	1434.1201	0.225577	-352.338966	-352.32745	-352.326506	-352.374876	43.26	
C	 0.9517769627	-0.3722968937	-1.0017981563	-0.392893
C	-0.0118702695	 0.0986742661	 0.0950110813	 0.01766
C	-0.1095085063	 1.6300873488	 0.1217738221	-0.398712
C	-1.4281434208	-0.5465943367	-0.0219623024	-0.151087
C	-2.0853123706	-0.129689486	-1.2627385134	 0.344666
C	-2.6035954562	 0.2065734734	-2.2954232305	-0.475039
C	-1.4596841824	-2.1002398262	 0.1200415727	 0.029059
C	-0.7257762592	-2.5851389249	 1.3779013757	-0.404559
C	-2.906615116	-2.6145171699	 0.1253225077	-0.397207
H	 1.9254333945	 0.1153768536	-0.8896360947	 0.108837
H	 1.1186191607	-1.4531737684	-0.968111454	 0.112571
H	 0.5627182742	-0.1235351564	-1.9944464641	 0.127894
H	 0.3891360308	-0.2176012126	 1.0645596816	 0.076653
H	-0.5036157445	 2.016302542	-0.8232298853	 0.129213
H	-0.7702254388	 1.9735083201	 0.9253763737	 0.106922
H	 0.8767753553	 2.0760585578	 0.285780927	 0.107612
H	-2.0201663284	-0.1451155045	 0.8153382853	 0.093744
H	-3.0738696464	 0.5080476558	-3.1984810279	 0.191383
H	-0.9577165698	-2.5223244799	-0.7593752087	 0.084827
H	-1.1321364979	-2.1103277429	 2.2793818645	 0.111838
H	-0.851119175	-3.6666032606	 1.4923077525	 0.111049
H	 0.3476738959	-2.382394116	 1.345728122	 0.11932
H	-3.4489779051	-2.2438707509	 1.0039797408	 0.108433
H	-3.4500273289	-2.2922602193	-0.7659767794	 0.129794
H	-2.9269099285	-3.7084104787	 0.1617977899	 0.108023
72.7937	89.0523	151.3762	176.4283	186.6625	225.2212	230.8969	245.5142	257.5633	314.3078	334.5107	391.9813	397.2816	424.6134	447.2971	531.0859	615.679	622.1248	630.9395	787.6303	855.6848	901.5553	933.0359	937.2481	962.9032	969.0655	973.1768	997.1742	1080.6438	1118.8959	1143.0081	1183.5298	1188.1597	1203.1394	1284.1075	1294.0613	1349.9162	1357.5937	1371.2269	1377.2396	1400.6608	1405.0886	1421.4812	1423.622	1486.9808	1489.1733	1493.9256	1494.7209	1503.1504	1505.3434	1511.7211	1515.6147	2223.3235	2981.4273	3025.9031	3027.0878	3030.8102	3034.206	3038.1289	3043.1424	3089.2462	3095.844	3096.9532	3103.0697	3108.2435	3112.3595	3115.2763	3123.1129	3502.9132
CC(C)C(C#C)C(C)C	CC(C)C(C#C)C(C)C	
InChI=1S/C9H16/c1-6-9(7(2)3)8(4)5/h1,7-9H,2-5H3	InChI=1S/C9H16/c1-6-9(7(2)3)8(4)5/h1,7-9H,2-5H3
