16
gdb 67443	2.3269	2.09271	1.88557	2.6434	67.65	-0.2323	-0.0303	0.202	844.552	0.125126	-437.808859	-437.802086	-437.801141	-437.83953	27.721	
O	-0.2384641088	 1.442585913	-0.1461602906	-0.485568
C	-0.1002178693	 0.0724817132	-0.0786723953	 0.381631
C	-1.2538177222	-0.8498799084	 0.3137775904	-0.11549
C	-0.6208832113	-1.8841433162	-0.7191481538	-0.24559
C	 0.559987571	-0.9028000959	-1.0790611933	-0.021289
O	 1.7668100607	-1.0475198034	-0.1969720819	-0.277933
C	 0.9147044671	-0.6455020761	 0.8192466677	 0.21406
N	 0.5519051055	-1.2592218382	 1.8632098982	-0.25221
C	-0.9475720959	-1.1128894254	 1.8212984243	-0.179327
H	 0.6358206503	 1.8494130893	-0.1669329704	 0.294718
H	-2.2765991731	-0.5473088024	 0.0859258226	 0.083902
H	-0.3259847969	-2.8603625936	-0.3320380469	 0.134406
H	-1.2706841283	-2.016093781	-1.5867957425	 0.120422
H	 0.861209965	-0.7413214181	-2.1121892194	 0.105643
H	-1.3297082661	-0.3147667196	 2.4702816758	 0.119177
H	-1.3626541978	-2.0611663871	 2.1751451355	 0.123448
214.1288	254.5909	270.0046	314.89	362.8625	409.2972	534.9033	610.7257	649.8906	690.2678	732.8908	751.7311	791.4534	846.1222	882.9685	930.6469	949.1148	970.5861	1014.0148	1058.1038	1065.4517	1093.3744	1121.8864	1147.4885	1169.1334	1214.9788	1247.7227	1268.6257	1282.9603	1307.325	1353.0473	1386.37	1460.8462	1481.5907	1695.0526	3030.3049	3078.9195	3089.2926	3110.7954	3141.2853	3146.327	3791.7804
OC12C3CC1OC2=NC3	O[C@@]12[C@H]3C[C@@H]1O[C]2[N]C3	
InChI=1S/C6H7NO2/c8-6-3-1-4(6)9-5(6)7-2-3/h3-4,8H,1-2H2	InChI=1S/C6H7NO2/c8-6-3-1-4(6)9-5(6)7-2-3/h3-4,8H,1-2H2/t3-,4-,6-/m0/s1
