23
gdb 115567	2.41151	1.04784	1.01906	2.7278	86.5	-0.243	-0.0187	0.2242	1381.5086	0.203614	-388.302293	-388.291945	-388.291001	-388.337914	37.879	
C	 0.0926015313	 1.6090906818	 0.042908277	-0.38249
C	-0.0795290553	 0.0863841393	-0.0141041136	-0.203703
C	 0.6498232329	-0.53405481	-1.1991925454	 0.012838
C	 2.2030767884	-0.5363069338	-1.2318667815	-0.233058
C	 2.1733454666	-1.9632864806	-1.8352026915	-0.268737
C	 0.6943881893	-2.1134843391	-1.3897073413	 0.211223
C	 0.496712884	-2.9247317798	-0.1079033798	-0.467665
C	-0.2748050306	-2.5702238817	-2.4509402373	 0.104098
O	-0.0057009956	-2.7549319117	-3.6117590297	-0.258725
H	 1.1490013228	 1.8855971671	 0.1251149426	 0.121695
H	-0.305228662	 2.0865883773	-0.8592451666	 0.117687
H	-0.4308827405	 2.0343301622	 0.9045463823	 0.114244
H	 0.2864617115	-0.3543999029	 0.9210089504	 0.095696
H	-1.1485593084	-0.157187532	-0.0712680466	 0.096314
H	 0.270507327	-0.086657844	-2.1261250365	 0.081938
H	 2.6894064704	 0.2470723652	-1.8172653892	 0.101643
H	 2.6257462582	-0.5228261458	-0.2218751711	 0.098347
H	 2.2487375817	-1.9689130133	-2.9244802837	 0.125878
H	 2.8761834304	-2.6935935342	-1.4269630432	 0.09628
H	 1.1484438305	-2.5679857541	 0.6946071753	 0.125144
H	-0.5367601571	-2.8715337428	 0.2522758906	 0.120217
H	 0.7373299398	-3.9792994052	-0.2825360277	 0.124412
H	-1.3225572852	-2.7001603818	-2.0859276735	 0.066723
55.9977	90.7974	94.9126	169.1011	202.7117	235.5297	244.8072	277.9094	285.6744	334.7499	423.2893	428.2459	546.4404	671.5433	742.9786	771.1339	809.9817	872.2366	907.3249	939.5681	941.44	952.0678	974.6533	997.8332	1026.5961	1073.451	1119.5794	1158.0378	1174.5807	1199.6593	1229.6488	1246.416	1263.2034	1280.4178	1295.4426	1317.6668	1344.7866	1389.4999	1406.9758	1412.1003	1425.5686	1482.0693	1483.8662	1493.4882	1499.1147	1499.5689	1501.332	1508.0198	1819.7049	2836.5744	3018.5725	3024.9503	3029.7224	3033.0673	3048.7421	3057.1059	3067.5585	3092.8606	3101.1015	3102.4067	3105.7276	3108.4262	3127.8867
CCC1CCC1(C)C=O	CC[C@H]1CC[C@]1(C)C=O	
InChI=1S/C8H14O/c1-3-7-4-5-8(7,2)6-9/h6-7H,3-5H2,1-2H3	InChI=1S/C8H14O/c1-3-7-4-5-8(7,2)6-9/h6-7H,3-5H2,1-2H3/t7-,8+/m0/s1
