20
gdb 110616	4.53669	1.01	0.93535	1.1606	79.73	-0.218	0.0734	0.2914	1331.0841	0.169186	-403.044948	-403.036111	-403.035167	-403.078222	33.774	
C	-0.429065743	 1.121249767	 0.18175498	-0.23704
O	 0.5068393314	 0.0920562022	-0.0778707415	-0.249025
C	 1.029089728	-0.4713358911	 1.0856597187	 0.074927
C	 0.2222218618	-1.6442038109	 1.6063696356	-0.04551
C	 1.5222919553	-1.8663834728	 0.8619308094	-0.16836
C	 2.0333391563	-2.5501921438	 2.1495174987	 0.324882
C	 2.7232771877	-3.8804657929	 2.0957261946	-0.476845
C	 1.9260640763	-1.7180355661	 3.3696444778	-0.292766
N	 0.7009470084	-2.3704224205	 2.8419980553	-0.18597
H	 0.029411367	 1.9513316622	 0.740056224	 0.108076
H	-0.7719547736	 1.4931532094	-0.7862410787	 0.129822
H	-1.2913534662	 0.7528145566	 0.7547966097	 0.112696
H	 1.5381830366	 0.2497757257	 1.7240435038	 0.085341
H	-0.80083549	-1.802972933	 1.290029182	 0.106462
H	 1.6893062632	-2.2542057838	-0.1341279636	 0.101106
H	 3.7613147063	-3.7678825693	 1.7606918889	 0.121417
H	 2.7290112687	-4.35146041	 3.0827126365	 0.12782
H	 2.2149145387	-4.5558373383	 1.3986935024	 0.125716
H	 2.2512718492	-2.1825513618	 4.2968229713	 0.117882
H	 2.0335995482	-0.640346489	 3.3673223553	 0.119369
89.0736	149.1396	179.6523	195.9733	217.6305	277.2712	316.2607	409.4177	412.7009	470.046	537.3609	613.7309	706.9565	804.3239	829.5409	863.791	901.3098	933.4275	946.1226	974.7796	1013.2079	1021.3192	1064.0879	1075.3412	1098.415	1114.3469	1129.8893	1150.3651	1178.73	1182.9094	1206.7066	1239.38	1284.605	1302.799	1362.4572	1412.8063	1425.6353	1479.4001	1481.6752	1486.1734	1493.1122	1507.263	1518.0063	2985.8976	3026.2006	3038.9093	3087.5165	3092.2573	3113.64	3122.5608	3129.2319	3191.262	3205.5728	3213.7699
COC1C2C1C1(C)CN21	CO[C@H]1[C@H]2[C@@H]1[C@@]1(C)CN21	
InChI=1S/C7H11NO/c1-7-3-8(7)5-4(7)6(5)9-2/h4-6H,3H2,1-2H3	InChI=1S/C7H11NO/c1-7-3-8(7)5-4(7)6(5)9-2/h4-6H,3H2,1-2H3/t4-,5+,6+,7+,8?/m0/s1
