21
gdb 57850	2.16955	1.16767	0.96148	2.1299	84.78	-0.2398	-0.0192	0.2206	1375.9433	0.178212	-387.086362	-387.075235	-387.074291	-387.123565	39.664	
C	 1.6202842778	 1.4183638327	 0.1512328735	-0.391214
C	 0.445914527	 0.4633047583	 0.3953341098	-0.054927
C	-0.1712498178	-0.0249049595	-0.9317940785	-0.391593
C	 0.9009802358	-0.7650738776	 1.1826834148	 0.392261
O	 1.9348354313	-1.3384955357	 0.9417823047	-0.315768
C	-0.0585337242	-1.282197741	 2.2858900107	-0.243848
C	 0.3713321353	-2.6560456015	 2.8204061101	-0.388043
C	-0.1432079855	-0.2743812129	 3.340865797	 0.331521
C	-0.1746841827	 0.5568360818	 4.2094036832	-0.483609
H	 2.4383650055	 0.8913763904	-0.3463862551	 0.138073
H	 1.3074975651	 2.2566635283	-0.4787017494	 0.109621
H	 2.0022633246	 1.8226551075	 1.093282973	 0.12261
H	-0.3304116	 0.9753813676	 0.9738561932	 0.09112
H	 0.5791190058	-0.5524198075	-1.5284504089	 0.136437
H	-1.0139881264	-0.7047736768	-0.7670072524	 0.114852
H	-0.5380749067	 0.8266082477	-1.5126238649	 0.121306
H	-1.0514229558	-1.3639919813	 1.8179900675	 0.118997
H	 1.3727940574	-2.599017658	 3.2505501688	 0.143626
H	-0.325512236	-2.9992467538	 3.5884952346	 0.120889
H	 0.3955482346	-3.3853636086	 2.0071910831	 0.125432
H	-0.2159213151	 1.2851015701	 4.9812376152	 0.202257
23.784	47.3468	120.88	182.9331	201.1534	211.2717	219.2137	250.0047	258.9087	298.7353	322.634	429.1088	431.0498	543.3484	595.1316	624.4741	645.8316	719.5889	786.6248	856.5927	890.9264	933.8412	971.9722	1009.2986	1024.3902	1104.6039	1112.867	1127.3603	1137.8189	1197.6274	1270.407	1315.4019	1334.8826	1377.1385	1392.5788	1408.1922	1414.9363	1486.6843	1487.2964	1489.4906	1490.9856	1500.8881	1512.718	1815.9895	2229.0548	2995.4339	3033.4323	3042.2246	3053.28	3057.9096	3101.7736	3110.619	3115.7517	3128.0346	3133.5777	3144.6981	3503.2064
CC(C)C(=O)C(C)C#C	CC(C)C(=O)[C@@H](C)C#C	
InChI=1S/C8H12O/c1-5-7(4)8(9)6(2)3/h1,6-7H,2-4H3	InChI=1S/C8H12O/c1-5-7(4)8(9)6(2)3/h1,6-7H,2-4H3/t7-/m0/s1
