19
gdb 66454	2.97802	1.66281	1.49523	1.1805	78.43	-0.2325	0.0774	0.3099	972.9245	0.159242	-385.818435	-385.810965	-385.810021	-385.849659	31.046	
C	 0.0076797798	 1.5346699566	-0.0593715204	-0.532357
C	 0.0202437793	 0.0356359498	-0.0562010172	 0.389083
C	 0.5834022202	-0.9134046577	-1.1636569937	-0.229291
C	 0.8775918456	-1.8975072299	-0.0384544036	-0.151965
C	 0.5995244027	-0.8883733988	 1.0949671911	-0.102822
C	-0.8380968496	-1.1618172145	 1.6054347597	-0.258884
C	-1.2551579057	-0.8868449287	 0.1396955209	-0.180577
C	-0.4813878861	-1.8880644141	-0.7523268943	 0.419608
O	-0.9725708375	-2.9342756965	-1.5021361219	-0.470975
H	 1.0247720191	 1.9405374125	-0.1103977368	 0.119967
H	-0.5495730338	 1.9244117609	-0.9192293165	 0.121698
H	-0.4635822206	 1.9279631498	 0.8489243804	 0.118988
H	 1.0817986405	-0.7446171721	-2.1093152142	 0.089161
H	 1.5272503695	-2.7633518022	-0.0580061883	 0.081903
H	 1.4144016145	-0.5916816373	 1.7564055203	 0.060367
H	-1.0620925849	-2.1433249583	 2.0378656276	 0.081912
H	-1.1846219434	-0.3762528347	 2.2843747061	 0.09654
H	-2.2610301519	-0.5908721906	-0.1587007252	 0.064825
H	-1.1306187476	-3.6836028543	-0.9165616539	 0.282819
199.0737	221.2788	235.749	274.4574	301.6935	373.0508	446.0491	546.7447	566.0668	624.3237	731.8214	752.8293	778.1915	830.4965	851.6921	866.1905	884.1034	920.9826	925.4137	959.5338	968.7687	984.121	1044.8378	1061.0152	1097.3531	1101.2479	1135.0604	1153.4364	1164.8576	1184.5326	1207.1082	1247.1565	1256.7181	1293.4763	1312.0437	1353.236	1412.1665	1453.8027	1484.8359	1487.677	1493.1768	3018.1989	3034.9399	3082.7141	3084.8248	3092.0565	3105.2712	3117.3095	3191.2253	3203.0036	3783.3676
CC12C3C4C1CC2C34O	C[C@@]12[C@H]3[C@H]4[C@@H]1C[C@@H]2[C@@]34O	
InChI=1S/C8H10O/c1-7-3-2-4(7)8(9)5(3)6(7)8/h3-6,9H,2H2,1H3	InChI=1S/C8H10O/c1-7-3-2-4(7)8(9)5(3)6(7)8/h3-6,9H,2H2,1H3/t3-,4-,5+,6+,7+,8-/m0/s1
