21
gdb 67640	3.11656	1.73109	1.54312	0.3506	85.02	-0.2299	0.0928	0.3227	977.3578	0.18555	-349.928192	-349.921226	-349.920282	-349.958997	29.807	
C	 0.0016962357	 1.543292238	 0.0743321038	-0.517842
C	-0.008903639	 0.0460069658	-0.004437827	 0.35622
C	 1.0925037662	-0.8390095199	-0.5108595771	-0.098237
C	 0.5952122423	-1.756052637	-1.6161164893	-0.226758
C	-0.8500087408	-2.0613701235	-1.1913215408	-0.045985
C	-0.8559001268	-3.0434095452	 0.017000617	-0.237621
C	-0.753591751	-1.8131264989	 0.9422683721	-0.017971
C	 0.578290937	-1.0317169121	 0.9135274141	-0.139083
C	-1.2415111746	-0.8784316945	-0.2053644127	-0.103556
H	 0.9911921401	 1.9136425013	 0.3635388169	 0.116379
H	-0.2503503503	 1.9965433155	-0.8927086592	 0.116055
H	-0.7196966278	 1.9169379475	 0.8105333644	 0.115561
H	 2.0897049005	-0.4138936841	-0.5791144546	 0.074571
H	 0.6294997808	-1.2250577675	-2.5760835238	 0.088684
H	 1.1850277755	-2.673392162	-1.727161039	 0.092621
H	-1.5151365243	-2.2921583972	-2.0249385225	 0.058927
H	-1.8230743384	-3.5421564548	 0.1346204658	 0.090594
H	-0.0613787495	-3.79621108	 0.0533269836	 0.085955
H	-1.2375769597	-1.8218274796	 1.920537554	 0.059054
H	 1.2526961728	-0.9132924794	 1.7549245354	 0.074202
H	-2.2479862487	-0.4655114823	-0.2420182311	 0.05823
195.6012	206.6771	242.7596	315.3719	401.5114	497.6552	537.0303	630.4358	658.7104	701.4534	802.7528	816.9905	834.1029	841.0105	872.487	895.8834	907.2843	943.6526	950.6865	966.3354	993.3722	1040.4685	1056.7034	1058.1947	1068.9808	1086.0514	1114.7608	1127.9187	1173.8314	1183.1706	1197.6133	1224.8423	1240.6834	1265.6023	1278.7022	1279.7782	1318.5792	1329.7175	1340.835	1413.4203	1460.7545	1485.1003	1486.3781	1499.1227	1501.4716	3015.0438	3018.4699	3035.6816	3059.6102	3071.0763	3083.5805	3088.4189	3089.74	3094.276	3129.5775	3151.909	3165.3178
CC12C3CC4CC(C13)C24	C[C@@]12[C@@H]3C[C@H]4C[C@@H]([C@H]13)[C@@H]24	
InChI=1S/C9H12/c1-9-6-3-4-2-5(7(4)9)8(6)9/h4-8H,2-3H2,1H3	InChI=1S/C9H12/c1-9-6-3-4-2-5(7(4)9)8(6)9/h4-8H,2-3H2,1H3/t4-,5-,6-,7+,8+,9+/m1/s1
