21
gdb 120277	3.10646	1.07036	0.92725	1.0615	78.73	-0.2474	0.0836	0.331	1347.6422	0.180944	-424.174972	-424.165543	-424.164599	-424.209549	34.553	
C	-0.021101309	 1.4282406756	-0.0498197082	-0.226034
O	 0.1021727915	 0.0273986423	 0.0004706674	-0.235578
C	 0.5276158951	-0.5298165299	-1.2283386284	-0.067767
C	 0.6334013128	-2.0328689224	-1.0624517243	-0.059109
C	 1.1863729295	-2.8239459123	-2.2563907254	-0.000621
O	 2.5534532772	-2.428816392	-2.4432468832	-0.249274
C	 2.2589650104	-3.4106714306	-1.440171822	 0.019894
C	 1.7978690881	-2.657647174	-0.1801173241	-0.01393
C	 2.8090628668	-1.745704671	 0.5005941291	-0.412928
H	 0.9363308216	 1.9157658399	-0.292849031	 0.105023
H	-0.7648147643	 1.7458743209	-0.7983081739	 0.102374
H	-0.3484752838	 1.7651598961	 0.9369344995	 0.125183
H	-0.198787043	-0.2927374059	-2.0264550286	 0.082175
H	 1.4952311937	-0.1056746264	-1.5347398276	 0.103533
H	-0.3336632864	-2.4278844029	-0.7374251686	 0.083252
H	 0.6633153259	-3.210781536	-3.1238356594	 0.100884
H	 2.7660620461	-4.3652964328	-1.5259668899	 0.099745
H	 1.3599734587	-3.3526147434	 0.5429956459	 0.077136
H	 3.3483393467	-1.1456840719	-0.2373516233	 0.128124
H	 2.3088547009	-1.0670893891	 1.1963908173	 0.130836
H	 3.5460530912	-2.3327740939	 1.0595048187	 0.107083
72.953	98.6852	115.4295	187.6303	219.8382	230.8778	260.4772	281.6376	369.5879	423.8102	574.0006	606.9481	710.7458	767.2588	838.8181	863.2463	866.2862	931.7037	977.7569	1005.0576	1022.3603	1029.439	1054.1814	1075.3294	1143.7209	1152.2573	1171.6215	1186.3041	1205.0636	1225.4267	1237.8459	1246.722	1257.2561	1285.3938	1342.2822	1365.8214	1383.4757	1405.9798	1426.1847	1480.3792	1485.246	1489.8415	1503.3052	1509.277	1530.6985	2943.3498	2969.092	3007.5107	3012.3045	3038.5517	3056.5153	3074.4905	3106.5001	3111.7639	3125.9211	3172.9379	3188.2999
COCC1C2OC2C1C	COC[C@H]1[C@H]2O[C@H]2[C@H]1C	
InChI=1S/C7H12O2/c1-4-5(3-8-2)7-6(4)9-7/h4-7H,3H2,1-2H3	InChI=1S/C7H12O2/c1-4-5(3-8-2)7-6(4)9-7/h4-7H,3H2,1-2H3/t4-,5+,6-,7+/m0/s1
