16
gdb 106099	3.37052	1.28585	1.17847	2.1026	68.97	-0.2397	-0.0124	0.2273	1068.0896	0.124433	-437.824882	-437.817228	-437.816284	-437.857502	28.876	
O	 0.1458626654	 1.3738766905	 0.2344779363	-0.405884
C	 0.0698351564	-0.0026941335	-0.0944550674	-0.221698
C	-1.3398513103	-0.4866225895	-0.1723717139	 0.335388
C	-1.9392761592	-1.8609122159	 0.0319002404	-0.233335
N	-2.2395952963	-0.7278141925	 0.9724222636	-0.184916
C	-3.322547559	 0.0816720657	 0.292607565	-0.160782
C	-2.6086243116	-0.1172081665	-1.050956379	-0.248273
C	-2.7235375726	-1.6456197384	-1.2342069388	 0.443488
O	-3.0782244912	-2.3581218366	-2.1280594973	-0.329883
H	-0.2129455339	 1.4745133737	 1.1229763562	 0.293162
H	 0.557896514	-0.1125084316	-1.0681779495	 0.130594
H	 0.6168786932	-0.6283914569	 0.6265225402	 0.110463
H	-1.4970697355	-2.7551724995	 0.4492614853	 0.125216
H	-4.3381416698	-0.3139451493	 0.4021967328	 0.117891
H	-3.2706724932	 1.1012773823	 0.6794214181	 0.121959
H	-2.6816619765	 0.557354628	-1.8987979619	 0.10661
68.6645	116.5811	167.7553	285.3004	354.8998	410.3119	431.8113	480.2396	595.4549	650.5287	727.0148	754.8076	783.1195	857.3384	894.4274	928.7377	959.1527	1001.0782	1018.2995	1025.7503	1071.8017	1074.4083	1134.243	1148.7645	1172.4325	1203.2823	1228.5353	1239.133	1311.4183	1368.3757	1401.6039	1429.0008	1482.3672	1508.6689	1887.7573	2998.3914	3047.3164	3082.8666	3117.253	3171.9902	3220.1575	3808.8562
OCC12C3N1CC2C3=O	OC[C@@]12[C@H]3N1C[C@@H]2C3=O	
InChI=1S/C6H7NO2/c8-2-6-3-1-7(6)5(6)4(3)9/h3,5,8H,1-2H2	InChI=1S/C6H7NO2/c8-2-6-3-1-7(6)5(6)4(3)9/h3,5,8H,1-2H2/t3-,5+,6-,7?/m1/s1
