16
gdb 7260	4.31876	1.27687	1.01637	3.6601	63.56	-0.2501	-0.0239	0.2261	1113.5659	0.13001	-417.092283	-417.083671	-417.082727	-417.125851	30.659	
C	-0.0629152373	 1.6426858105	 0.5229643959	-0.400125
C	-0.1410329779	 0.2328263138	-0.0441440248	 0.061371
O	 0.7083648105	-0.6870204462	 0.6512968406	-0.43613
C	-1.5811629008	-0.2930063071	-0.1148705633	 0.331625
N	-2.5610676148	 0.4987606692	-0.2540011132	-0.506373
N	-1.6258979124	-1.698564773	-0.0563976652	-0.333083
C	-2.7377170074	-2.4906720378	-0.166398635	 0.163631
O	-3.8703178219	-2.1002881505	-0.3465017126	-0.301406
H	 0.9668135917	 2.0062619857	 0.4802969031	 0.121321
H	-0.7151803533	 2.3107806102	-0.0404251067	 0.160585
H	-0.4043042628	 1.6579440729	 1.5646361751	 0.115669
H	 0.2462187029	 0.2302048004	-1.0713498844	 0.122791
H	 0.5948651866	-0.5305738317	 1.59599557	 0.288087
H	-3.4356923107	-0.0215312398	-0.3346026974	 0.253005
H	-0.7337319042	-2.1364344682	 0.1346854991	 0.26513
H	-2.4825392281	-3.5637583084	-0.0717839611	 0.093901
51.9668	92.9304	190.766	214.0184	256.4576	286.5394	327.3943	373.7108	415.6636	481.7259	499.8627	660.6303	730.5708	773.1967	894.8485	929.4431	970.9151	1014.0756	1028.2759	1050.8087	1116.3164	1133.3443	1193.0497	1285.8711	1311.6097	1362.5471	1401.3574	1411.9276	1437.6695	1484.8966	1490.3336	1510.2263	1730.4292	1809.0046	2949.0694	3030.8712	3041.4073	3113.605	3155.4752	3481.6737	3577.8623	3795.5664
CC(O)C(=N)NC=O	C[C@@H](O)C(=N)NC=O	
InChI=1S/C4H8N2O2/c1-3(8)4(5)6-2-7/h2-3,8H,1H3,(H2,5,6,7)	InChI=1S/C4H8N2O2/c1-3(8)4(5)6-2-7/h2-3,8H,1H3,(H2,5,6,7)/t3-/m1/s1
