17
gdb 94128	1.90998	1.72961	1.18006	3.1582	79.07	-0.2578	-0.0054	0.2524	1109.9533	0.134705	-380.821555	-380.812461	-380.811517	-380.855167	33.673	
C	 0.3449871751	 1.6341826531	-0.2510475645	-0.408726
C	-0.0644674618	 0.207938993	 0.0766214299	-0.028555
C	 0.5010562717	-0.8780455531	-0.8756452241	-0.182006
N	 1.5819888681	-1.1434383961	 0.1020976	-0.324331
C	 0.8166267868	-0.4972365967	 1.1981362486	-0.022651
C	 1.5967240463	 0.3321717781	 2.1078891449	 0.280911
C	 2.2325960822	 1.0305630516	 2.8496265911	-0.393611
C	-0.002722459	-1.4533146643	 1.9697105297	 0.247952
N	-0.6430189901	-2.2378389771	 2.5280581072	-0.341077
H	 1.4179837799	 1.70057795	-0.4506044657	 0.141483
H	-0.1929803076	 1.976503159	-1.1411154705	 0.121814
H	 0.1090270763	 2.314008138	 0.5723896893	 0.132699
H	-1.1343237541	 0.1407755457	 0.2758749125	 0.105347
H	-0.1953441286	-1.7120390126	-1.0267942037	 0.114024
H	 0.8659457766	-0.532983353	-1.8478112401	 0.113488
H	 1.8336214574	-2.1127503932	 0.2647330257	 0.237657
H	 2.8008902608	 1.6406879376	 3.5081520195	 0.205583
98.9966	127.2532	136.4926	174.775	239.043	240.4369	311.0272	371.4647	478.7086	492.8246	542.383	586.4433	592.919	651.3435	664.2232	701.1833	816.9547	877.6165	928.7689	986.6556	1028.47	1031.2015	1061.9204	1112.3106	1130.2102	1195.3644	1211.2534	1249.6293	1317.1394	1363.1217	1382.012	1412.595	1489.9106	1495.2396	1522.3024	2241.8367	2343.4864	3022.857	3041.5231	3079.5079	3103.6336	3112.1761	3128.0989	3499.2595	3534.0366
CC1CNC1(C#C)C#N	C[C@H]1CN[C@]1(C#C)C#N	
InChI=1S/C7H8N2/c1-3-7(5-8)6(2)4-9-7/h1,6,9H,4H2,2H3	InChI=1S/C7H8N2/c1-3-7(5-8)6(2)4-9-7/h1,6,9H,4H2,2H3/t6-,7+/m0/s1
