17
gdb 53833	3.17204	1.07957	0.8643	2.5356	71.06	-0.2389	-0.0607	0.1782	1314.1548	0.135534	-455.140608	-455.131601	-455.130657	-455.175071	32.804	
N	 0.296310735	 0.9470869495	 0.0473923067	-0.512559
C	-0.1112406496	-0.3579736864	 0.1089691298	 0.243315
N	 0.612581627	-1.2835733337	 0.6119265414	-0.510191
C	-1.5038827877	-0.5455938739	-0.4872480919	 0.347948
O	-2.23899524	 0.408491949	-0.6229198893	-0.315093
C	-1.9495717408	-1.9475606291	-0.8900716129	-0.348664
C	-2.5433773944	-2.7297750227	 0.2671369839	 0.088244
C	-2.4620271302	-4.1943613259	 0.319108071	-0.179551
O	-1.6245708883	-3.3797796328	 1.1465481321	-0.21352
H	 1.0753859403	 1.1988461766	 0.6344268612	 0.259518
H	-0.436518691	 1.6288439036	-0.0728409322	 0.266133
H	 0.1520085609	-2.1909218073	 0.5723699228	 0.238983
H	-2.7195020621	-1.816361871	-1.6564570808	 0.137886
H	-1.1137428824	-2.5104635216	-1.3152379042	 0.129141
H	-3.3740424641	-2.239789593	 0.7756155102	 0.117078
H	-3.2242268743	-4.7629244217	 0.8484297327	 0.127455
H	-1.9502638182	-4.7290864295	-0.4794276604	 0.123877
62.2035	82.1325	101.7537	167.6482	260.5199	336.2112	367.498	379.4875	447.0047	501.1532	523.9909	532.7901	634.9145	697.6424	797.5625	816.1359	866.6907	895.2557	943.782	955.911	1062.3367	1096.5357	1119.8906	1151.7229	1162.77	1174.02	1188.248	1262.1176	1287.9732	1305.5838	1425.5528	1432.0631	1461.991	1528.3286	1597.5209	1716.6344	1784.0336	3057.3205	3091.3198	3107.5322	3122.066	3181.4207	3509.9682	3585.6278	3709.6965
NC(=N)C(=O)CC1CO1	NC(=N)C(=O)C[C@H]1CO1	
InChI=1S/C5H8N2O2/c6-5(7)4(8)1-3-2-9-3/h3H,1-2H2,(H3,6,7)	InChI=1S/C5H8N2O2/c6-5(7)4(8)1-3-2-9-3/h3H,1-2H2,(H3,6,7)/t3-/m0/s1
