12
gdb 25316	2.39342	1.58906	0.955	1.964	74.16	-0.2604	-0.0862	0.1742	1112.0772	0.07697	-435.491667	-435.484209	-435.483265	-435.524025	26.746	
O	 0.0108520098	-0.1058831642	-0.0013304686	-0.266079
C	-0.0086534068	 1.1035218564	 0.0096980766	 0.052699
C	 1.1729461804	 1.9537705879	 0.0030465097	 0.172246
C	 1.3319315118	 3.3216544383	 0.0131484508	 0.07976
N	 2.6918475307	 3.6152894305	-0.0005134621	-0.309183
C	 3.2595136393	 2.4512924246	-0.0174712707	 0.082491
O	 2.4223482602	 1.3997648156	-0.0167013328	-0.151197
C	 0.3291771274	 4.314623603	 0.0338552028	 0.253535
C	-0.5304131274	 5.156428717	 0.0512556694	-0.396278
H	-0.9518764535	 1.6861457117	 0.0258594625	 0.101609
H	 4.316146772	 2.2317052433	-0.0319967632	 0.171231
H	-1.2859889439	 5.9034298759	 0.0657392756	 0.209167
119.7907	137.0194	166.0967	215.7194	285.4296	429.0652	462.1359	576.4926	609.5104	620.9466	652.0375	676.4704	757.014	801.8612	881.7343	954.6312	1024.0537	1071.0368	1160.4439	1245.8401	1297.7894	1370.3709	1415.9391	1539.666	1585.7529	1784.1796	2239.8692	2931.6073	3276.264	3497.2637
O=CC1=C(N=CO1)C#C	O=Cc1c(nco1)C#C	
InChI=1S/C6H3NO2/c1-2-5-6(3-8)9-4-7-5/h1,3-4H	InChI=1S/C6H3NO2/c1-2-5-6(3-8)9-4-7-5/h1,3-4H
