18
gdb 51113	3.82533	1.0698	0.98481	3.2621	76.11	-0.2237	-0.0189	0.2048	1229.1391	0.146351	-401.865767	-401.857631	-401.856687	-401.899428	30.727	
O	 0.1561673262	-0.1180213847	 0.0775434695	-0.241433
C	 0.0711918333	 1.0718034512	-0.0881850289	 0.158789
C	 1.2395921352	 2.036935984	-0.0036424952	-0.368337
C	 1.28371326	 2.9525572709	-1.1958182835	 0.358507
C	 1.9321761557	 2.6193539798	-2.5110032904	-0.345232
C	 2.3685919774	 3.8469238241	-1.7505506748	-0.14458
C	 1.3149019482	 4.9687296967	-1.7884272573	-0.027592
C	 0.0848206059	 4.6553463234	-2.5415568773	-0.253514
N	 0.2538219586	 4.0819815739	-1.1899545323	-0.183673
H	-0.9032061033	 1.5543154423	-0.3228914086	 0.093074
H	 1.1067084129	 2.6455168501	 0.9018639431	 0.131375
H	 2.1641758098	 1.4615833801	 0.0949056826	 0.120622
H	 2.6336230012	 1.7938406487	-2.4325772418	 0.126663
H	 1.4349379453	 2.6611561787	-3.473508706	 0.118427
H	 3.3821106319	 3.9947168569	-1.401972088	 0.100848
H	 1.5054974405	 5.9507308535	-1.3674991858	 0.104131
H	-0.6864247321	 5.4205693019	-2.5521490977	 0.127212
H	 0.0865901433	 4.0248373984	-3.4224854778	 0.124712
51.1226	64.5751	144.7966	251.6951	328.1833	373.5649	451.9313	461.2907	536.848	646.2852	701.7851	747.8251	768.2201	823.3271	865.8787	908.0828	915.3286	954.6635	974.4265	1004.7295	1024.6442	1050.3028	1060.2664	1076.142	1098.5032	1109.8333	1138.8941	1162.0921	1221.3757	1242.1828	1266.1573	1304.9863	1351.6881	1395.7406	1426.0997	1446.6404	1479.9239	1523.335	1831.7246	2892.881	3018.5319	3102.9532	3123.8433	3135.9512	3160.7872	3198.8074	3204.8201	3216.9027
O=CCC12CC1C1CN21	O=CC[C@]12C[C@H]1[C@H]1CN21	
InChI=1S/C7H9NO/c9-2-1-7-3-5(7)6-4-8(6)7/h2,5-6H,1,3-4H2	InChI=1S/C7H9NO/c9-2-1-7-3-5(7)6-4-8(6)7/h2,5-6H,1,3-4H2/t5-,6+,7-,8?/m0/s1
