17
gdb 67523	2.48114	1.83018	1.49568	4.2423	70.7	-0.2537	0.0081	0.2619	950.2126	0.136115	-421.8139	-421.806435	-421.805491	-421.845575	29.258	
C	-0.0504121552	 1.5573420319	-0.0007641562	-0.497408
C	-0.0035374551	 0.0481301546	 0.024896974	 0.128723
C	-1.2307908285	-0.6977797987	 0.637810086	-0.096659
C	-1.1393356629	-2.1881906463	 0.5120692578	-0.313492
C	-0.2990513631	-1.5064600748	 1.5545516377	-0.061135
C	 0.9140235197	-0.8014669514	 0.9200106901	 0.061248
O	 1.4960890679	-1.4489928995	-0.2625995905	-0.270902
C	 0.7109835989	-0.6935452532	-1.1181949705	 0.410338
O	 0.7210304358	-0.7117909444	-2.3064657469	-0.330228
H	 0.9338699046	 1.9842210276	-0.2155809103	 0.133042
H	-0.7425748136	 1.9012582866	-0.7763230637	 0.143148
H	-0.395579323	 1.951858649	 0.9603568062	 0.126093
H	-2.1562057354	-0.1899600353	 0.8789942165	 0.100304
H	-1.9930658731	-2.726515496	 0.9105456347	 0.121858
H	-0.6793252362	-2.6619688419	-0.3491140981	 0.146636
H	-0.3909657134	-1.7271399142	 2.6100661021	 0.09745
H	 1.6825453426	-0.3898911941	 1.571573571	 0.100984
135.0158	193.6528	209.6968	257.588	260.6054	359.914	472.8934	554.0647	672.6421	683.9222	729.4031	764.1745	797.7106	836.2936	883.6571	901.9015	918.3099	953.3586	978.027	1018.6118	1024.0033	1054.5455	1080.275	1091.5601	1161.8016	1164.1533	1189.0136	1214.7462	1249.2924	1300.7759	1324.6313	1368.6078	1411.1307	1490.0072	1492.101	1498.4129	1928.7782	3035.2305	3105.1978	3110.1038	3131.2294	3137.8173	3188.7791	3198.3683	3215.7501
CC12C3CC3C1OC2=O	C[C@]12[C@H]3C[C@H]3[C@H]1OC2=O	
InChI=1S/C7H8O2/c1-7-4-2-3(4)5(7)9-6(7)8/h3-5H,2H2,1H3	InChI=1S/C7H8O2/c1-7-4-2-3(4)5(7)9-6(7)8/h3-5H,2H2,1H3/t3-,4+,5-,7+/m1/s1
