19
gdb 83353	2.18807	2.03713	1.58819	1.3513	74.28	-0.2412	0.0064	0.2476	947.6633	0.15975	-423.019663	-423.011755	-423.010811	-423.051365	31.985	
C	-0.0908952436	 1.5371630793	 0.0095376136	-0.438306
C	 0.037313646	 0.0187984306	 0.0150729489	-0.000966
C	 1.0765188585	-0.5958128886	-0.9453120011	 0.037016
O	 2.3326868846	-0.0495885411	-0.4253568545	-0.273448
C	 2.2010024663	-0.0639672152	 0.9949948636	-0.129526
C	 0.7605638391	-0.6310475102	 1.2328338638	 0.333161
O	 0.1798995335	-0.3418735174	 2.4738970584	-0.501846
C	 0.8304032098	-2.0789177343	 0.7728384507	-0.154625
C	 1.0233423183	-2.0614027381	-0.550556447	-0.079498
H	 0.8805479958	 2.0268193497	-0.0908707201	 0.133356
H	-0.7166527712	 1.863385203	-0.8273641003	 0.11243
H	-0.562084625	 1.8824731971	 0.9348936364	 0.130928
H	-0.9403697992	-0.4522295842	-0.1092295045	 0.083008
H	 1.0258562114	-0.3469592098	-2.003808736	 0.074664
H	 2.9772068925	-0.694743581	 1.4472663226	 0.088135
H	 2.285630486	 0.9527907335	 1.3976327066	 0.102333
H	 0.7288474745	-0.7203927329	 3.168465761	 0.282142
H	 0.8314509396	-2.9303797103	 1.4433914831	 0.096675
H	 1.226645053	-2.89695728	-1.2076874552	 0.104369
164.5908	204.4343	223.0307	256.5626	297.7875	352.3341	399.8459	409.6033	520.1833	561.9956	641.1275	683.1652	723.3903	761.0213	777.8103	860.2831	884.3069	929.3614	954.8031	974.345	989.9425	1031.9577	1055.551	1070.7364	1094.0258	1125.2988	1150.9941	1181.9583	1236.3423	1253.1348	1269.6996	1291.2585	1327.8678	1346.1248	1370.0367	1397.7489	1405.7292	1493.3126	1502.2348	1524.1729	1634.6125	3009.4395	3042.7396	3052.4912	3085.3597	3105.8578	3129.486	3138.6159	3192.2337	3221.621	3811.56
CC1C2OCC1(O)C=C2	C[C@H]1[C@H]2OC[C@]1(O)C=C2	
InChI=1S/C7H10O2/c1-5-6-2-3-7(5,8)4-9-6/h2-3,5-6,8H,4H2,1H3	InChI=1S/C7H10O2/c1-5-6-2-3-7(5,8)4-9-6/h2-3,5-6,8H,4H2,1H3/t5-,6-,7+/m0/s1
