21
gdb 64401	2.21778	1.43085	1.11931	1.8497	79.01	-0.2508	-0.0268	0.224	1188.5905	0.180821	-424.251152	-424.241601	-424.240657	-424.2866	35.395	
C	 0.0045079192	 1.5980103757	 0.0042084006	-0.427581
C	 0.0449008549	 0.0653786674	-0.0202841533	 0.375604
C	-1.3679573115	-0.5112352115	-0.1442767825	-0.419502
O	 0.8154859687	-0.3025226808	-1.1812227434	-0.292145
C	 1.8289111277	-1.230995354	-0.8384893421	-0.081536
C	 2.1860663708	-0.9121631213	 0.6137601572	-0.254529
C	 0.8022722929	-0.5851098193	 1.1990387282	-0.122943
C	 0.8569209255	 0.2852879689	 2.4314991192	 0.146557
O	 0.2188839051	 0.0907973627	 3.4347367823	-0.25624
H	 1.0069206136	 2.022778229	 0.1057348808	 0.115378
H	-0.4130480476	 1.9562590923	-0.9407379958	 0.128697
H	-0.6222063708	 1.9728092083	 0.8196588163	 0.12448
H	-1.8816945862	-0.0771157594	-1.0069580585	 0.121853
H	-1.3296341721	-1.596353066	-0.2779095814	 0.117719
H	-1.9548155794	-0.2969884245	 0.7549763967	 0.126511
H	 1.4676577362	-2.2684185075	-0.9288466212	 0.091984
H	 2.6610705281	-1.1002699263	-1.5367612395	 0.110876
H	 2.6832084826	-1.7360689351	 1.1314847345	 0.113973
H	 2.841250142	-0.0341557012	 0.6592047328	 0.110611
H	 0.282501422	-1.5044873766	 1.4833542724	 0.094821
H	 1.5545330785	 1.1510870892	 2.3585074666	 0.075414
20.7021	61.4677	176.5982	234.0058	248.8063	269.9786	299.9153	329.9699	385.1045	404.776	444.5943	480.2842	595.3519	631.4049	746.2681	840.7985	902.7999	927.992	932.4651	955.703	982.0514	1008.4419	1038.6271	1082.4603	1098.9166	1129.3676	1170.323	1188.9035	1216.7753	1243.0008	1253.1039	1292.592	1326.0392	1351.8957	1385.3814	1398.6542	1416.759	1431.9065	1476.2739	1484.8096	1488.2792	1495.5418	1505.8958	1525.6421	1824.6687	2865.307	2969.9802	3034.712	3039.5154	3041.5216	3069.0009	3079.62	3107.6442	3109.2318	3114.1407	3115.808	3119.5624	20.7	61.4682	176.5978	234.0059	248.8065	269.9788	299.9155	329.9699	385.1044	404.776	444.5943	480.2841	595.3519	631.4049	746.2681	840.7982	902.7999	927.992	932.4651	955.7029	982.0514	1008.4418	1038.6271	1082.4601	1098.9163	1129.3675	1170.3229	1188.9035	1216.7754	1243.0009	1253.1039	1292.5921	1326.039	1351.8959	1385.3814	1398.6541	1416.7589	1431.9066	1476.2737	1484.8095	1488.2794	1495.5416	1505.8958	1525.6423	1824.6689	2865.307	2969.9801	3034.712	3039.5153	3041.5216	3069.0009	3079.6199	3107.6442	3109.2318	3114.1407	3115.808	3119.5624
CC1(C)OCCC1C=O	CC1(C)OCC[C@H]1C=O	
InChI=1S/C7H12O2/c1-7(2)6(5-8)3-4-9-7/h5-6H,3-4H2,1-2H3	InChI=1S/C7H12O2/c1-7(2)6(5-8)3-4-9-7/h5-6H,3-4H2,1-2H3/t6-/m0/s1
