19
gdb 91515	2.61399	1.39161	1.12711	2.0796	76.62	-0.2487	-0.0273	0.2215	1165.4782	0.156588	-423.017782	-423.008527	-423.007583	-423.052093	33.862	
C	-0.3606209851	 1.3551330569	-0.487705578	-0.414825
C	 0.0261365767	-0.0896749978	-0.2126747192	-0.04488
C	 1.4159739867	-0.6134156902	-0.7365266203	-0.269447
C	 1.7976883588	-0.9362552391	 0.7109107787	-0.040587
O	 1.7206207668	 0.26331341	 1.4685826969	-0.280915
C	 0.487940206	-0.4340418656	 1.2152143772	 0.318402
C	-0.3388271376	-0.9029336877	 2.3582556679	 0.276555
C	 0.3333150912	-0.9850163704	 3.7120468133	-0.484504
O	-1.5017252894	-1.1956139809	 2.1752794173	-0.309208
H	 0.4208490634	 2.0358030952	-0.1373699818	 0.128798
H	-0.504177469	 1.5233313529	-1.5600640103	 0.11611
H	-1.2956934303	 1.6122439668	 0.0204182574	 0.12809
H	-0.7727699739	-0.7752899722	-0.5042733388	 0.102333
H	 1.3274060683	-1.497792491	-1.3708137079	 0.113637
H	 2.064393693	 0.1219232316	-1.2196879832	 0.114878
H	 2.4290295996	-1.7282804382	 1.0992780479	 0.112322
H	 0.5709443612	 0.0239448715	 4.065463627	 0.155563
H	-0.3365252776	-1.476602783	 4.4183088588	 0.139256
H	 1.2840652711	-1.5236288288	 3.6514748672	 0.138422
64.7732	108.0982	119.7454	173.2482	194.6114	234.0232	290.488	375.8812	431.4829	489.5874	552.4981	598.3131	643.8988	703.9714	812.4496	855.2983	870.4042	904.1693	934.2158	969.0897	1002.9557	1030.0054	1054.1766	1097.1755	1108.0184	1124.5458	1190.1854	1213.8711	1231.7129	1268.0306	1302.1779	1362.5542	1383.1102	1402.6761	1423.9338	1456.4986	1469.9276	1475.4178	1493.9931	1502.5927	1787.3817	3035.7696	3046.1158	3068.0407	3087.8355	3102.2068	3108.0281	3116.3164	3128.3608	3155.9251	3178.4504
CC1CC2OC12C(C)=O	C[C@H]1C[C@H]2O[C@@]12C(=O)C	
InChI=1S/C7H10O2/c1-4-3-6-7(4,9-6)5(2)8/h4,6H,3H2,1-2H3	InChI=1S/C7H10O2/c1-4-3-6-7(4,9-6)5(2)8/h4,6H,3H2,1-2H3/t4-,6+,7+/m0/s1
