16
gdb 131646	3.71707	1.12793	0.88832	3.0737	78.54	-0.2066	-0.0303	0.1764	1252.0638	0.126769	-434.068229	-434.060274	-434.05933	-434.101075	29.904	
O	 0.0971092257	 1.2829801753	 0.564127302	-0.411273
C	 0.0325456688	 0.0054901578	-0.0552614209	-0.159061
C	-1.3807031879	-0.5221821055	-0.1379601459	 0.365078
C	-1.8716260521	-1.2860623793	-1.140955898	-0.27852
C	-3.2325575695	-1.788942168	-1.0771093945	 0.285673
N	-3.729639872	-2.5323240813	-2.0066948952	-0.552509
C	-3.9394698796	-1.3419708921	 0.133233444	-0.059451
N	-3.4533074072	-0.5951057382	 1.0720243298	-0.184646
N	-2.1718132303	-0.2081743569	 0.9346790786	-0.276194
H	-0.2984238459	 1.9257558778	-0.0349885033	 0.296335
H	 0.4819922199	-0.0001969651	-1.0558962373	 0.1233
H	 0.635277406	-0.6528266836	 0.5809107537	 0.14375
H	-1.2581676095	-1.5406868188	-1.9968625813	 0.110093
H	-4.696666655	-2.7775434227	-1.7820259201	 0.201456
H	-4.9743013076	-1.646491766	 0.2742979136	 0.119377
H	-1.8283549837	 0.4316824368	 1.6334192549	 0.276591
72.0446	142.1952	160.5758	242.7086	342.6318	383.5597	441.7396	461.5515	532.3151	536.3825	599.1571	654.0812	744.5341	758.6894	833.3941	892.3369	925.4504	942.2765	976.6038	1041.4903	1068.7321	1122.4435	1157.6943	1187.8141	1210.0184	1337.5061	1369.233	1381.6173	1405.7983	1410.2181	1488.942	1506.4743	1618.1887	1651.7795	1694.9177	3028.2177	3072.7616	3157.4555	3206.9002	3435.1967	3643.0137	3806.3734
OCC1=CC(=N)C=NN1	OC[C@H]1C=C([NH])C=NN1	
InChI=1S/C5H7N3O/c6-4-1-5(3-9)8-7-2-4/h1-2,9H,3H2,(H2,6,8)	InChI=1S/C5H8N3O/c6-4-1-5(3-9)8-7-2-4/h1-2,5-6,8-9H,3H2/t5-/m1/s1
