23
gdb 56158	3.46277	0.74734	0.69638	2.5686	86.6	-0.2412	-0.0072	0.234	1739.3162	0.202681	-388.310318	-388.299577	-388.298633	-388.347415	38.868	
C	 0.017771532	 1.4784013115	-0.2323802873	-0.472984
C	 0.1069944776	-0.0277146931	-0.0493423609	 0.380627
O	 1.1685097242	-0.5880423179	 0.1029642058	-0.291947
C	-1.2150966212	-0.7857211843	-0.0711680931	-0.302774
C	-1.0813361625	-2.2679664047	 0.2885969523	-0.261762
C	-2.3598550143	-3.0694375362	 0.0946026689	 0.385481
C	-3.5263675715	-2.6810172673	 0.9854505506	-0.462892
C	-2.6732346552	-3.5549717566	-1.3027846001	-0.296945
C	-2.2081268536	-4.5320296351	-0.2472132426	-0.314062
H	 1.0181702327	 1.9007280897	-0.334336929	 0.141668
H	-0.5881398309	 1.7323653644	-1.1087642751	 0.133368
H	-0.4772407482	 1.9282180733	 0.6363989036	 0.139938
H	-1.9190409301	-0.2660318454	 0.5917758276	 0.115158
H	-1.6403365368	-0.6724057365	-1.0795933251	 0.123146
H	-0.2789055363	-2.697292086	-0.3193788804	 0.111992
H	-0.7430324807	-2.3554296481	 1.3289302651	 0.102363
H	-3.8586530572	-1.6528657425	 0.8013867184	 0.112124
H	-4.3868134518	-3.3357077244	 0.8155961562	 0.112831
H	-3.2554740584	-2.7576195772	 2.0455255597	 0.114108
H	-3.7117810256	-3.5949237988	-1.6146656151	 0.105943
H	-1.9817822647	-3.3052535426	-2.1014029146	 0.10698
H	-1.2055061146	-4.937134961	-0.3352642052	 0.111142
H	-2.9337653028	-5.2306426712	 0.1563400102	 0.106498
29.5213	60.1453	103.0194	120.1115	126.7289	221.8385	233.968	303.6051	338.9804	361.4133	400.8276	471.38	491.0739	583.3303	715.0283	743.5897	788.0853	829.4258	870.5317	905.9953	920.0643	948.3465	954.3556	976.8171	1024.2317	1049.0384	1074.1369	1079.0141	1092.0206	1125.0473	1174.6048	1185.7983	1189.0154	1285.8553	1305.7988	1334.7913	1363.3028	1382.7486	1397.2813	1419.3176	1450.067	1465.0257	1468.672	1478.1101	1481.5965	1496.0138	1500.5417	1511.3804	1811.0387	3010.2967	3021.4649	3031.2777	3036.2933	3047.0008	3080.0902	3083.6328	3096.9159	3097.4784	3122.9455	3128.9891	3151.111	3200.7015	3215.8923
CC(=O)CCC1(C)CC1	CC(=O)CCC1(C)CC1	
InChI=1S/C8H14O/c1-7(9)3-4-8(2)5-6-8/h3-6H2,1-2H3	InChI=1S/C8H14O/c1-7(9)3-4-8(2)5-6-8/h3-6H2,1-2H3
