14
gdb 45119	2.99367	1.73092	1.1701	4.2404	63.44	-0.2766	-0.062	0.2146	982.0894	0.101681	-473.82992	-473.822812	-473.821868	-473.862149	26.67	
N	-0.1449063611	 1.114938701	 0.7708728135	-0.451475
C	-0.0374870003	 0.091701786	 0.043033112	 0.24887
O	-1.1158125661	-0.3322199372	-0.6627241671	-0.21645
C	-1.152273888	-1.6766547591	-1.0627429781	 0.058078
C	-0.6562589156	-2.0249795198	-2.4438999836	-0.330277
C	 0.1411610775	-2.4023999274	-1.2236528345	 0.060327
O	 1.3401383236	-1.709060891	-0.9521656002	-0.214524
C	 1.3042861045	-0.6109059759	-0.1683553029	 0.34784
O	 2.3140294871	-0.1645014314	 0.2978246953	-0.307997
H	 0.7753704846	 1.3319950183	 1.1577995726	 0.257459
H	-2.0102179813	-2.196242914	-0.6486894452	 0.129489
H	-1.157372916	-2.8093210411	-2.9987824788	 0.136792
H	-0.2725509545	-1.2013495562	-3.0357142527	 0.149148
H	 0.2228018256	-3.4417778723	-0.9263229002	 0.13272
64.0762	93.7899	288.331	363.7268	420.7521	448.6485	495.6157	513.4942	554.4321	716.6914	742.5783	786.9485	820.3126	847.984	934.1655	940.2573	1008.8437	1046.2948	1073.6363	1086.707	1128.11	1149.7736	1185.4473	1210.1702	1273.7283	1367.8881	1387.4206	1416.0443	1474.7603	1736.6106	1843.9822	3145.4118	3162.0473	3176.6597	3241.3805	3486.1419
N=C1OC2CC2OC1=O	[NH][C]1O[C@H]2C[C@H]2OC1=O	
InChI=1S/C5H5NO3/c6-4-5(7)9-3-1-2(3)8-4/h2-3,6H,1H2	InChI=1S/C5H5NO3/c6-4-5(7)9-3-1-2(3)8-4/h2-3,6H,1H2/t2-,3+/m0/s1
