18
gdb 10405	2.49799	2.01153	1.41398	1.67	73.55	-0.251	0.0278	0.2789	965.4135	0.151694	-347.755619	-347.746913	-347.745968	-347.789015	31.835	
C	 0.1875247225	 1.5044908765	-0.1229908381	-0.389065
C	 0.0095093688	-0.0003667096	 0.0878510193	-0.223867
C	 0.6672886307	-0.5089306333	 1.3747113509	 0.234716
C	 0.8713899881	-2.0514962258	 1.4707143805	-0.336498
C	 2.3735065812	-1.7182062808	 1.4764498969	-0.064292
O	 2.1134995331	-0.3057989387	 1.3352293836	-0.307289
C	 0.0760784415	 0.0930961634	 2.5681944374	 0.345555
C	-0.4211470347	 0.570052089	 3.5536859903	-0.483717
H	 1.249976574	 1.7631343722	-0.129419078	 0.136972
H	-0.2481083509	 1.8166821739	-1.0765269516	 0.109976
H	-0.2962769459	 2.0736140178	 0.6759740589	 0.128733
H	-1.0545365547	-0.2659789841	 0.1172456726	 0.10409
H	 0.4591284927	-0.5517946318	-0.7460915955	 0.096766
H	 0.4811352213	-2.5146653301	 2.3761201881	 0.1221
H	 0.5138649905	-2.5958489681	 0.5950379701	 0.113452
H	 2.8980384537	-1.9424117989	 2.4127912363	 0.108575
H	 2.9605942148	-2.1097360928	 0.6378752641	 0.105089
H	-0.8521175566	 0.9975786112	 4.4252652141	 0.198701
59.8569	103.5896	158.6922	184.2857	209.1056	253.1959	374.8063	406.9623	521.8567	547.7824	623.2123	639.3894	660.6029	772.9492	789.3431	857.914	908.9747	934.4687	983.035	1013.3991	1022.6767	1047.3359	1126.5324	1157.6927	1164.4782	1207.7878	1244.1689	1257.8023	1314.2903	1346.4499	1364.5427	1407.3506	1472.0036	1484.3366	1495.657	1509.028	1530.7673	2228.2692	3022.9815	3027.6549	3045.3401	3063.1344	3068.4751	3085.3931	3115.2553	3124.3791	3149.3314	3499.592
CCC1(CCO1)C#C	CC[C@]1(CCO1)C#C	
InChI=1S/C7H10O/c1-3-7(4-2)5-6-8-7/h1H,4-6H2,2H3	InChI=1S/C7H10O/c1-3-7(4-2)5-6-8-7/h1H,4-6H2,2H3/t7-/m0/s1
