17
gdb 33686	3.89835	1.44756	1.34799	1.0651	83.	-0.2137	0.0403	0.254	989.1687	0.137017	-347.481217	-347.474447	-347.473503	-347.512063	28.52	
C	-0.0296886519	-1.1860672331	-0.0954584686	-0.362083
C	-0.0143079695	 0.0164234833	-0.0241148837	 0.047853
C	 0.0244436847	 1.4294194383	 0.0555416875	 0.287211
C	-1.0343156914	 2.3126814275	 0.7251796462	-0.132018
C	-0.3671418305	 3.4022738207	 1.5409669075	-0.236295
C	 0.8543527885	 3.6283751457	 0.670190769	-0.077072
C	 0.5260187887	 3.3718804871	-0.7901384796	-0.084233
C	 1.2886096159	 2.3371897867	 0.0078613923	-0.157381
C	-0.7431061278	 2.4893510529	-0.7451003697	-0.146016
H	-0.0470133673	-2.2453076251	-0.1589745509	 0.173856
H	-1.9619173721	 1.8445784112	 1.0301213813	 0.100119
H	-0.9941781422	 4.2975024024	 1.6218225779	 0.103381
H	-0.1063723011	 3.0657793945	 2.5502047452	 0.106453
H	 1.60561452	 4.3683076007	 0.9193034674	 0.089255
H	 0.8549415805	 3.9855427879	-1.6164161918	 0.091306
H	 2.3078645548	 1.9920664631	-0.0896228223	 0.094782
H	-1.4567782594	 2.3293263961	-1.5407379376	 0.100882
138.2161	154.762	381.2425	451.9696	486.2296	504.7186	545.5466	587.3665	651.231	700.3546	731.805	747.3948	771.6259	840.9379	851.8768	877.4093	884.6377	919.64	952.9464	976.9338	990.4887	1009.2782	1031.2671	1038.9483	1070.1963	1075.1768	1135.8875	1187.8532	1201.942	1237.6161	1255.2096	1276.3112	1305.2383	1372.1345	1411.9253	1488.8642	2228.7691	3039.0693	3082.1418	3189.622	3200.6625	3209.6857	3218.8735	3224.715	3504.9666
C#CC12C3CC4C(C14)C23	C#C[C@@]12[C@H]3C[C@@H]4[C@@H]([C@H]14)[C@@H]23	
InChI=1S/C9H8/c1-2-9-5-3-4-6(7(4)9)8(5)9/h1,4-8H,3H2	InChI=1S/C9H8/c1-2-9-5-3-4-6(7(4)9)8(5)9/h1,4-8H,3H2/t4-,5+,6+,7-,8+,9-/m1/s1
