15
gdb 9538	2.88374	1.99658	1.57411	3.3444	57.68	-0.241	0.0194	0.2604	843.9689	0.118775	-436.947081	-436.939233	-436.938289	-436.979181	28.839	
O	-0.0316069731	 1.4180268942	-0.015983213	-0.431679
C	 0.0378671155	-0.0007602925	-0.0645658665	-0.13152
C	-1.3900312777	-0.5385377303	-0.0853109059	 0.259131
O	-2.0990056069	-0.0265144353	-1.1789268269	-0.472801
C	-1.6304383249	-2.0580340073	 0.1394600915	-0.216057
N	-2.2255516597	-1.7047859139	 1.4375851727	-0.33251
C	-2.0527007831	-0.3540524253	 1.3180547618	 0.389123
O	-2.2580856945	 0.5899963326	 2.0423402326	-0.385205
H	-0.5029389438	 1.6475726553	 0.7982977554	 0.304947
H	 0.5577256083	-0.2582958118	-0.9932358551	 0.118887
H	 0.6043001497	-0.4176453315	 0.781123292	 0.100597
H	-1.815814005	 0.8954568429	-1.2604488616	 0.293139
H	-2.3339486086	-2.4877836061	-0.5774112666	 0.132535
H	-0.7311543445	-2.6782544372	 0.2120911047	 0.115983
H	-2.5445777818	-2.275986454	 2.2063754149	 0.255429
109.0801	127.9711	186.6055	228.5816	292.3691	341.9927	437.8692	453.619	498.3344	555.3711	592.6604	738.8685	770.7967	782.8415	927.9213	933.9416	982.1388	1031.416	1060.1901	1141.6069	1154.4444	1188.485	1216.2841	1259.1617	1306.6846	1355.9344	1381.0059	1430.9334	1441.2098	1496.8706	1515.9808	1869.6052	2999.0445	3047.4149	3079.4111	3109.8583	3607.8813	3734.8823	3746.8519
OCC1(O)CNC1=O	OC[C@@]1(O)CNC1=O	
InChI=1S/C4H7NO3/c6-2-4(8)1-5-3(4)7/h6,8H,1-2H2,(H,5,7)	InChI=1S/C4H7NO3/c6-2-4(8)1-5-3(4)7/h6,8H,1-2H2,(H,5,7)/t4-/m0/s1
