17
gdb 43162	2.17023	1.94093	1.81311	2.1976	72.53	-0.232	-0.0212	0.2108	900.5794	0.138291	-421.851593	-421.844656	-421.843712	-421.882807	27.592	
O	-0.0043833374	 0.0665055482	-0.0362374334	-0.325343
C	-0.0101160821	 1.2657636099	-0.0172829499	 0.406322
C	-1.2015508908	 2.2220413996	 0.0362870877	 0.001881
C	-1.3415547853	 2.6970639086	 1.4986613062	-0.271458
C	 0.0168241533	 3.0445791661	 2.0621942792	-0.047004
C	 1.1562356531	 2.8314351282	 1.3991959806	-0.075531
C	 1.1566820912	 2.2538793115	-0.0108957304	-0.193384
C	 0.6144713424	 3.2797819982	-1.018756106	-0.073896
O	-0.8086596352	 3.3159233533	-0.792193719	-0.281956
H	-2.1236305773	 1.7819156834	-0.349421817	 0.100513
H	-2.0117381018	 3.5654109303	 1.5263269659	 0.12232
H	-1.8176568493	 1.9119267259	 2.1029099289	 0.122051
H	 0.0443145942	 3.4761491723	 3.0592359893	 0.099558
H	 2.116519406	 3.0768238629	 1.8419944228	 0.100747
H	 2.109208965	 1.8069491686	-0.2922040165	 0.096378
H	 1.0121101594	 4.2875281498	-0.8667587896	 0.113173
H	 0.8212393546	 2.966490913	-2.0519137389	 0.105631
144.7582	149.8066	260.8359	313.2062	439.1935	468.4488	481.6077	562.7151	688.1024	702.7903	761.0926	793.3551	845.6611	866.7764	890.9246	968.1834	977.9387	986.5701	997.7272	1016.3598	1061.4726	1081.8162	1131.5342	1183.4995	1191.0903	1206.7215	1230.7447	1272.9203	1304.6048	1313.5543	1357.8533	1382.6126	1401.642	1462.2576	1519.3127	1697.217	1876.6987	3003.3126	3012.7934	3050.0087	3078.5058	3095.0508	3129.04	3158.863	3183.3448
O=C1C2CC=CC1CO2	O=C1[C@H]2CC=C[C@@H]1CO2	
InChI=1S/C7H8O2/c8-7-5-2-1-3-6(7)9-4-5/h1-2,5-6H,3-4H2	InChI=1S/C7H8O2/c8-7-5-2-1-3-6(7)9-4-5/h1-2,5-6H,3-4H2/t5-,6-/m1/s1
