17
gdb 66009	2.84881	1.32149	1.16991	2.2543	68.98	-0.2423	0.0129	0.2553	1099.4327	0.136285	-455.127097	-455.118489	-455.117545	-455.160664	31.704	
O	 0.0167548952	 1.4049514703	-0.0609720725	-0.480277
C	 0.0020448312	-0.0064326373	-0.0191694948	 0.225171
C	 0.9082487942	-0.6671767492	-1.1104375384	-0.201515
N	 1.6891080792	-1.2493797805	-0.0072064312	-0.331726
C	 1.0303876028	-0.5932335419	 0.9963798262	 0.370849
O	 1.2140881006	-0.4591051482	 2.1776076925	-0.366577
C	-1.4025859882	-0.5614994263	 0.0712186245	-0.018815
C	-2.4366679084	 0.1407074565	 0.8651744984	-0.243505
N	-2.5010464506	 0.1392663112	-0.6080328052	-0.332667
H	 0.1848000757	 1.7172751676	 0.8362989543	 0.304658
H	 0.4242779862	-1.4034663429	-1.7571295148	 0.123339
H	 1.4524503268	 0.0716923382	-1.704179756	 0.127099
H	 2.5778163414	-1.7289709238	-0.0032727153	 0.256769
H	-1.4504807219	-1.6461515357	-0.0033429184	 0.095922
H	-3.2130633628	-0.4311631334	 1.3640736951	 0.122282
H	-2.1567857417	 1.0643827365	 1.3629531074	 0.10761
H	-2.1434556797	 1.0349783789	-0.9375297918	 0.241384
68.9925	106.7034	145.1605	226.5521	264.7247	277.7711	321.3835	396.9056	448.0522	500.0184	621.5702	692.198	739.1865	800.018	854.2954	878.489	924.7849	943.2814	971.72	992.5074	1023.6627	1101.4636	1144.5169	1150.494	1155.4999	1179.9641	1191.0715	1248.3706	1281.7604	1290.53	1306.1124	1350.1306	1389.8866	1417.8702	1505.7491	1518.0753	1891.2406	3057.1434	3115.0696	3117.7585	3127.7217	3203.8535	3483.0518	3604.2851	3792.4457
OC1(CNC1=O)C1CN1	O[C@]1(CNC1=O)[C@H]1CN1	
InChI=1S/C5H8N2O2/c8-4-5(9,2-7-4)3-1-6-3/h3,6,9H,1-2H2,(H,7,8)	InChI=1S/C5H8N2O2/c8-4-5(9,2-7-4)3-1-6-3/h3,6,9H,1-2H2,(H,7,8)/t3-,5-/m1/s1
