17
gdb 43401	2.81122	1.42632	0.98094	3.8582	81.41	-0.2414	-0.0535	0.1879	1170.5413	0.135905	-384.692773	-384.684584	-384.68364	-384.725636	31.255	
O	-0.0822892583	-0.0579573849	-0.0616925501	-0.317032
C	-0.0580294969	 1.1480481111	 0.0368710225	 0.387634
C	-1.2949729024	 1.9573684431	 0.0700914171	-0.144013
C	-1.2972224122	 3.2825495425	 0.2609401985	-0.039406
C	-0.0518726581	 4.0833322975	 0.5106816786	-0.28251
C	 1.1147589277	 3.2031606209	 0.9704139563	-0.213148
C	 1.2624099926	 1.9542152358	 0.0702217736	-0.326423
C	 2.4073061509	 1.1374946626	 0.4433699047	 0.330882
C	 3.368035518	 0.5003184394	 0.7803675306	-0.423703
H	-2.2126250256	 1.3984120399	-0.0844891513	 0.110804
H	-2.2398185293	 3.8253433476	 0.2355562745	 0.110941
H	 0.2152612678	 4.6217909876	-0.4120864833	 0.12509
H	-0.2564906648	 4.8634359066	 1.2531315227	 0.118128
H	 2.051191652	 3.7672430307	 0.9693336823	 0.117388
H	 0.9415110209	 2.8710687866	 2.0002140474	 0.122614
H	 1.4016958805	 2.3040612008	-0.9662824025	 0.128176
H	 4.207899677	-0.0827091877	 1.0669179783	 0.194578
72.6015	139.1299	162.1604	256.7622	311.2973	371.3454	408.4603	449.5714	516.5972	555.034	631.1283	632.8056	644.1258	724.0696	729.9931	833.6835	879.8484	899.4116	998.7288	1024.097	1042.9892	1056.6475	1080.0961	1133.3753	1170.8451	1224.0895	1243.3581	1292.1407	1316.0185	1367.4101	1382.3254	1407.8891	1467.4093	1494.5598	1685.7871	1788.1173	2244.2911	2973.7218	2995.0869	3045.5765	3058.9956	3098.4246	3151.0752	3188.74	3505.712
O=C1C=CCCC1C#C	O=C1C=CCC[C@H]1C#C	
InChI=1S/C8H8O/c1-2-7-5-3-4-6-8(7)9/h1,4,6-7H,3,5H2	InChI=1S/C8H8O/c1-2-7-5-3-4-6-8(7)9/h1,4,6-7H,3,5H2/t7-/m1/s1
