17
gdb 51524	5.62983	0.72258	0.68001	3.4221	76.23	-0.2493	-0.0264	0.223	1599.0622	0.132975	-421.777045	-421.767781	-421.766837	-421.812844	32.462	
O	-0.3005432852	 0.3704746947	 0.8540086837	-0.237832
C	 0.2422600001	 0.807602476	-0.1283643386	 0.154223
C	 1.4336329354	 1.745046797	-0.1012147967	-0.296624
C	 1.1857248041	 3.0083415556	-0.9220550687	 0.145746
C	 2.39854841	 3.9032749145	-1.2486588306	-0.32067
C	 2.0568461287	 3.5915103756	-2.7325746839	-0.03332
O	 0.973011846	 2.7134205409	-2.3257511675	-0.299622
C	 1.6185150584	 4.7083057004	-3.5528603266	 0.334653
C	 1.2668219747	 5.6388833857	-4.2273527622	-0.455224
H	-0.1077463335	 0.5434536659	-1.1493186172	 0.100582
H	 1.6605970447	 1.997979241	 0.9393332811	 0.123226
H	 2.2930201026	 1.212696716	-0.5321420783	 0.120181
H	 0.3286269309	 3.5591715492	-0.5133353508	 0.097965
H	 2.3105811565	 4.9506328394	-0.9633109419	 0.129684
H	 3.361159881	 3.5087139783	-0.9196324352	 0.118258
H	 2.8290484757	 3.0232623263	-3.2651518999	 0.112075
H	 0.9528751098	 6.4564727431	-4.8284808067	 0.206698
30.8557	66.0638	75.7742	133.065	210.486	222.2637	335.9618	408.6994	500.3555	510.354	554.1791	625.235	675.7391	752.5737	781.8722	832.7216	904.3018	943.9368	972.1734	990.8047	1021.2799	1086.4581	1095.6005	1117.8494	1161.0008	1229.1515	1253.7143	1259.8286	1280.877	1330.1756	1360.4225	1395.8622	1423.7592	1449.5152	1489.9963	1831.0331	2235.7944	2908.2996	3014.0067	3025.7884	3029.0714	3089.1477	3097.0242	3154.6856	3501.4625
O=CCC1CC(O1)C#C	O=CC[C@H]1C[C@@H](O1)C#C	
InChI=1S/C7H8O2/c1-2-6-5-7(9-6)3-4-8/h1,4,6-7H,3,5H2	InChI=1S/C7H8O2/c1-2-6-5-7(9-6)3-4-8/h1,4,6-7H,3,5H2/t6-,7-/m0/s1
