16
gdb 29185	3.09067	1.35667	0.94829	4.7868	76.64	-0.1976	-0.0323	0.1654	1173.5275	0.125101	-437.959437	-437.951257	-437.950313	-437.991918	31.24	
C	-0.0327023418	 1.512842645	 0.0659159765	-0.480779
C	-0.0044970271	 0.0109032361	 0.0119651293	 0.281109
C	-0.0224700764	-0.6795804014	-1.1635988478	-0.342728
C	 0.003722013	-2.1291673974	-1.2470845111	 0.433208
O	-0.0104440384	-2.8039789857	-2.2666099287	-0.412241
N	 0.049540754	-2.7399147692	 0.0125807114	-0.373632
C	 0.0687743178	-2.0786387292	 1.2134855065	-0.092563
C	 0.0430059774	-0.7212244995	 1.2473592723	 0.22994
O	 0.0592907815	 0.0213452252	 2.3997689968	-0.442959
H	 0.8491705674	 1.899846047	 0.5872551505	 0.143511
H	-0.0654468183	 1.9398919161	-0.9381367542	 0.128341
H	-0.9030517408	 1.8653368107	 0.6294764456	 0.143501
H	-0.0580989538	-0.1586229328	-2.1133883866	 0.111162
H	 0.0687839515	-3.7492434287	-0.0087851091	 0.259087
H	 0.1048164737	-2.6947110132	 2.1047435061	 0.117678
H	 0.0913094102	-0.566501053	 3.1611282624	 0.297365
122.9559	150.8369	196.8154	282.8119	285.7072	357.8093	365.8227	407.7323	449.7367	522.6455	574.6353	593.7509	681.5737	749.6045	749.6706	789.2093	815.2707	893.35	913.4574	1027.1896	1064.3819	1141.9674	1176.1753	1210.9292	1240.5534	1298.8402	1360.4722	1411.2223	1430.0954	1474.1655	1481.8776	1520.394	1590.2396	1692.6129	1777.8669	3040.9064	3095.2042	3134.4207	3191.0177	3202.3634	3618.0729	3828.6871
CC1=CC(=O)NC=C1O	Cc1cc(=O)[nH]cc1O	
InChI=1S/C6H7NO2/c1-4-2-6(9)7-3-5(4)8/h2-3,8H,1H3,(H,7,9)	InChI=1S/C6H7NO2/c1-4-2-6(9)7-3-5(4)8/h2-3,8H,1H3,(H,7,9)
