17
gdb 64673	3.3631	1.05271	0.96449	3.6075	74.3	-0.2759	0.0118	0.2877	1251.4257	0.134911	-418.031824	-418.023046	-418.022101	-418.065691	32.355	
C	-0.289925675	 1.733460372	-0.2448340551	-0.447968
C	-0.0039716833	 0.2482577868	-0.1345125322	 0.395875
C	-1.2344276399	-0.5922420873	 0.2428594753	-0.384286
C	-1.8718635437	-0.1568924321	 1.4841662513	 0.276829
N	-2.3782425112	 0.1980837183	 2.4598150372	-0.303668
C	 0.8632629986	-0.3827382748	-1.2537386922	-0.421474
C	 1.8770665333	-0.5761609653	-0.1475721032	 0.437261
N	 3.0275055221	-1.0651807781	-0.0812726525	-0.536728
O	 1.0817490314	-0.0065094224	 0.8287571313	-0.277439
H	 0.6245737627	 2.2763180569	-0.4961390342	 0.136203
H	-1.0323312894	 1.923099076	-1.0271675033	 0.128497
H	-0.6769407193	 2.1240980742	 0.7000799844	 0.161311
H	-1.9698960311	-0.5386647305	-0.5684282851	 0.159028
H	-0.9391105518	-1.6412690596	 0.347494425	 0.16173
H	 0.4842005231	-1.3056381907	-1.6970001162	 0.137633
H	 1.1725815243	 0.3006572863	-2.0458733106	 0.143098
H	 3.402028939	-1.0136391097	 0.86758762	 0.234096
58.3149	94.342	141.9183	232.3564	300.3888	319.1184	343.0067	392.8961	406.907	479.2194	501.6036	527.3896	686.4046	800.7571	862.3255	871.1334	890.4943	921.3742	955.0634	967.681	989.1356	1016.8128	1085.6244	1117.66	1182.0818	1223.127	1251.2062	1284.0394	1311.4045	1349.9062	1418.7804	1452.7281	1464.4848	1485.6495	1496.6866	1832.4095	2366.3557	3043.5059	3047.5409	3085.1568	3092.0117	3118.2383	3131.6036	3140.6252	3479.7441
CC1(CC#N)CC(=N)O1	C[C@@]1(CC#N)C[C]([NH])O1	
InChI=1S/C6H8N2O/c1-6(2-3-7)4-5(8)9-6/h8H,2,4H2,1H3	InChI=1S/C6H8N2O/c1-6(2-3-7)4-5(8)9-6/h8H,2,4H2,1H3/t6-/m1/s1
