17
gdb 112164	3.20148	1.13488	0.88119	1.8441	72.26	-0.245	-0.0622	0.1828	1272.7935	0.136568	-455.184292	-455.175582	-455.174638	-455.218013	32.484	
N	-0.0721506684	 1.3059713649	-0.09005915	-0.568417
C	-0.1012985416	-0.0459218702	-0.0561142389	 0.290382
N	-1.1316733174	-0.8090646276	-0.1078629149	-0.309996
C	-0.7054743541	-2.224929127	-0.0891876335	 0.012294
C	-1.3470761487	-2.9290789578	-1.2900030751	-0.05108
O	-2.7471184763	-2.7749626628	-1.2825367736	-0.42321
C	 0.8359352854	-2.2532731875	-0.0800321309	-0.380837
C	 1.2119976887	-0.7851613911	 0.02609251	 0.352484
O	 2.2929345909	-0.2664855206	 0.1551835333	-0.319207
H	 0.8051717302	 1.742604587	 0.1447067315	 0.27331
H	-0.9209159478	 1.8258547588	 0.0551500492	 0.267265
H	-1.1158502095	-2.6823151315	 0.8195887183	 0.095299
H	-0.8956144833	-2.5282437199	-2.2153162025	 0.07798
H	-1.135676569	-4.0038424922	-1.2561754119	 0.104671
H	-2.9006156003	-1.8409632589	-1.0869568617	 0.292316
H	 1.2699121229	-2.824326706	 0.7445859845	 0.142931
H	 1.2549506883	-2.6593544076	-1.0085604637	 0.143816
53.5243	126.6454	157.9555	232.2261	277.0585	316.2121	369.4022	403.8693	461.1633	490.81	522.4595	578.5785	626.7926	656.333	713.2032	756.6142	851.2723	901.7985	1015.2654	1041.1365	1079.8925	1094.5667	1108.6592	1159.1399	1179.8064	1231.7833	1258.7488	1309.6815	1332.7297	1380.402	1420.0515	1440.9932	1445.682	1506.8246	1607.2137	1727.8242	1834.0955	2944.6949	3029.8851	3049.3669	3064.8193	3105.7932	3596.8234	3723.5954	3761.1408
NC1=NC(CO)CC1=O	NC1=N[C@@H](CO)CC1=O	
InChI=1S/C5H8N2O2/c6-5-4(9)1-3(2-8)7-5/h3,8H,1-2H2,(H2,6,7)	InChI=1S/C5H8N2O2/c6-5-4(9)1-3(2-8)7-5/h3,8H,1-2H2,(H2,6,7)/t3-/m1/s1
