19
gdb 28426	3.05756	1.29548	0.92037	1.2836	87.77	-0.2106	0.0079	0.2185	1281.4679	0.159171	-385.97495	-385.965868	-385.964924	-386.009336	33.966	
C	-0.0288208889	 1.5444815045	 0.0016004152	-0.491207
C	-0.0159167986	 0.0353848877	-0.0053812595	 0.31961
C	-0.0651867324	-0.6805229724	-1.2043783255	-0.21263
C	-0.023748457	-2.0707518032	-1.1956639496	-0.172755
C	 0.0648901143	-2.7963773938	-0.0078334445	 0.172873
C	 0.105262432	-4.3041125724	 0.0050289601	-0.537299
C	 0.1105922677	-2.0699769619	 1.1920756894	 0.311441
O	 0.1925701365	-2.6845356276	 2.4097057186	-0.440507
C	 0.0694780173	-0.6777931049	 1.1897111391	-0.279366
H	 0.9902796925	 1.9507289783	 0.0128917139	 0.132439
H	-0.5272577697	 1.9422915051	-0.8870186206	 0.122655
H	-0.5419795476	 1.9370690283	 0.8845576447	 0.125328
H	-0.1377854438	-0.1486044124	-2.1476574734	 0.082851
H	-0.0653988955	-2.613954692	-2.1357120429	 0.086149
H	 1.0262910731	-4.6913107268	 0.4624844069	 0.129116
H	-0.7402654474	-4.7381201368	 0.5566473515	 0.129141
H	 0.0616579329	-4.7023388668	-1.0113752379	 0.134054
H	 0.2098765641	-3.6380745306	 2.2837635755	 0.295447
H	 0.1038532206	-0.1634906922	 2.1447740487	 0.09266
26.8429	132.409	155.8635	222.9757	284.602	297.0032	304.4006	338.3336	444.1038	459.779	498.6444	571.8787	602.6155	728.5694	730.2741	764.8166	814.7302	890.8651	924.4665	944.6528	1008.6195	1026.6234	1055.5967	1060.3752	1139.492	1176.4055	1195.5086	1252.4194	1305.5724	1321.0376	1355.8228	1408.7653	1411.7667	1464.168	1487.7678	1488.4881	1490.0937	1511.9334	1542.2561	1617.1324	1668.7201	3001.8475	3027.0716	3044.5527	3084.9003	3112.9653	3114.3677	3159.8682	3179.9533	3182.4351	3833.8178
CC1=CC=C(C)C(O)=C1	Cc1ccc(C)c(O)c1	
InChI=1S/C8H10O/c1-6-3-4-7(2)8(9)5-6/h3-5,9H,1-2H3	InChI=1S/C8H10O/c1-6-3-4-7(2)8(9)5-6/h3-5,9H,1-2H3
