20
gdb 68747	2.4503	1.70305	1.22572	3.1412	80.65	-0.2494	0.0308	0.2802	1087.5134	0.17107	-403.172698	-403.16387	-403.162926	-403.205681	33.866	
C	-0.0012126794	 1.5046601905	-0.0760491431	-0.48873
C	-0.0005658406	 0.0001625704	 0.0261839899	 0.265141
C	 1.2391431294	-0.8113286241	-0.2229789913	-0.366327
C	 0.6233323317	-0.7866134202	 1.1704768715	 0.207439
C	 1.3635673996	-0.2170234704	 2.3528466715	-0.477443
C	-0.2983235042	-1.9340157529	 1.406312466	 0.375159
N	-0.2206965731	-2.7523176415	 2.3657837838	-0.555019
O	-1.2532924601	-1.9778474092	 0.4225085417	-0.252817
C	-1.2892794181	-0.7376659828	-0.3016887861	-0.148006
H	 0.9521474198	 1.9255628446	 0.2548847072	 0.126248
H	-0.1593754774	 1.8280945211	-1.1114714201	 0.125396
H	-0.7950360855	 1.9464181381	 0.5367854429	 0.123226
H	 1.1741644672	-1.7220878745	-0.8106812997	 0.123054
H	 2.1715507542	-0.2672191998	-0.3341981321	 0.115359
H	 2.0161833856	 0.6086360312	 2.0552637014	 0.109149
H	 0.6700363841	 0.1490552368	 3.1161641858	 0.125876
H	 1.9786915373	-0.9937951654	 2.815389905	 0.147506
H	-0.9879894845	-3.4250616383	 2.3252418231	 0.220549
H	-2.1663036049	-0.1613955172	 0.0221330763	 0.108271
H	-1.4010635311	-0.9742695763	-1.3652377739	 0.115967
120.2245	159.0803	181.0107	191.2305	217.2348	269.7069	313.8696	376.0484	428.4568	490.0941	531.0501	649.8466	677.201	703.945	761.437	843.0731	889.0719	916.6124	941.258	970.557	978.4862	1011.3285	1031.9793	1056.1384	1080.5187	1109.1492	1127.5577	1188.4888	1226.2175	1235.2649	1266.096	1370.8809	1375.2962	1417.0313	1419.5253	1426.6458	1479.7179	1489.379	1493.1699	1494.3677	1505.5778	1522.1362	1772.0019	3014.2046	3027.7379	3042.0503	3069.2185	3085.3848	3107.9681	3111.3315	3118.5387	3121.6816	3209.6651	3475.3006
CC12CC1(C)C(=N)OC2	C[C@@]12C[C@]1(C)[C]([NH])OC2	
InChI=1S/C7H11NO/c1-6-3-7(6,2)5(8)9-4-6/h8H,3-4H2,1-2H3	InChI=1S/C7H11NO/c1-6-3-7(6,2)5(8)9-4-6/h8H,3-4H2,1-2H3/t6-,7+/m0/s1
