16
gdb 88342	4.14031	0.85837	0.80583	1.2073	69.48	-0.2508	-0.0365	0.2142	1403.6875	0.122706	-475.029181	-475.020581	-475.019637	-475.063296	31.324	
O	 0.019140893	 1.3958339349	-0.211141525	-0.41582
C	-0.0906560546	 0.029123067	-0.1003482107	 0.148046
C	-0.3485900968	-0.6622069694	 1.188999414	-0.324515
C	-1.4656874853	-0.6520682116	 0.1393056271	-0.174991
C	-2.6202498741	 0.2273008244	 0.3371059819	 0.455859
N	-2.5341738724	 1.3785662976	 0.8715979271	-0.555523
O	-3.7946419105	-0.3498562858	-0.128647617	-0.205402
C	-4.6907841052	 0.4235372368	-0.8153001758	 0.15335
O	-5.7718728105	 0.0225925496	-1.1046901384	-0.24242
H	-0.7130204832	 1.7898573736	 0.299433167	 0.307274
H	 0.5377306504	-0.4711205639	-0.8304317832	 0.120251
H	 0.1214331965	-1.6193908323	 1.3863455865	 0.126904
H	-0.5224755737	-0.0381388888	 2.05919961	 0.141537
H	-1.6814633331	-1.5713144381	-0.3888800332	 0.11522
H	-3.4232138187	 1.8617295477	 0.970398302	 0.238974
H	-4.2786209117	 1.4118001982	-1.0788377123	 0.111255
47.7522	100.4006	141.1902	224.5954	238.4377	283.266	342.6118	447.6746	478.8639	553.1481	572.0211	710.1396	727.1736	755.1762	801.3557	844.5467	886.1904	939.2931	1025.5991	1041.164	1054.6718	1065.7258	1103.7834	1118.2443	1127.0678	1149.318	1240.4353	1248.8367	1374.928	1404.7804	1424.9034	1460.3794	1498.3223	1705.9045	1879.3899	3006.4293	3134.2935	3167.749	3201.8892	3230.803	3528.7019	3574.3672
OC1CC1C(=N)OC=O	O[C@H]1C[C@H]1[C]([NH])OC=O	
InChI=1S/C5H7NO3/c6-5(9-2-7)3-1-4(3)8/h2-4,6,8H,1H2	InChI=1S/C5H7NO3/c6-5(9-2-7)3-1-4(3)8/h2-4,6,8H,1H2/t3-,4+/m1/s1
