18
gdb 70026	3.35224	1.55353	1.36477	2.9235	70.91	-0.2198	0.0706	0.2904	992.3872	0.14907	-439.034831	-439.027427	-439.026483	-439.066482	29.098	
C	-0.1391462054	 1.493761128	 0.0697206899	-0.52218
C	 0.0976585786	 0.0194254458	-0.0244738798	 0.328935
N	-0.8165830047	-0.9718277473	 0.5824216605	-0.377388
C	 0.6144789326	-0.9799274271	 0.9720719607	-0.148422
C	 1.3659297865	-1.7520961092	-0.1314069028	 0.090554
O	 0.8923523427	-3.0048884843	-0.5612114859	-0.269729
C	-0.0993448654	-2.7810745182	-1.5548732016	 0.041751
O	 0.1020269332	-1.4836779631	-2.103106872	-0.269055
C	 0.8315454256	-0.7300002803	-1.1685873074	 0.02829
H	 0.7598770174	 2.0562073863	-0.2043493963	 0.127291
H	-0.945807303	 1.8065840584	-0.6034092895	 0.137673
H	-0.4194196429	 1.7856007521	 1.0881126582	 0.118704
H	-1.3257138295	-0.4936772168	 1.3256691092	 0.228104
H	 0.9103086994	-0.8428017229	 2.0054578474	 0.092107
H	 2.4469207025	-1.7992183439	 0.015682953	 0.088923
H	 0.0360563906	-3.5197918386	-2.3541269464	 0.101392
H	-1.0983187991	-2.8520294504	-1.1132809245	 0.116669
H	 1.568287871	-0.1127233283	-1.6887214326	 0.086382
128.5699	200.6961	237.4388	240.3072	265.5832	343.8648	504.6834	552.8272	630.8376	695.9896	736.724	808.1554	821.4312	888.53	899.3963	927.5351	949.0021	958.7032	1007.6743	1032.2167	1056.2664	1081.1915	1109.8476	1130.178	1139.203	1168.304	1211.3917	1219.832	1235.3647	1287.4614	1314.398	1339.7274	1365.799	1411.2027	1440.6736	1444.1388	1481.4178	1497.8775	1534.6465	3023.163	3025.0819	3079.1254	3080.1091	3087.4232	3093.1682	3094.7904	3185.2605	3467.0705
CC12NC1C1OCOC21	C[C@]12N[C@H]1[C@H]1OCO[C@@H]21	
InChI=1S/C6H9NO2/c1-6-4(7-6)3-5(6)9-2-8-3/h3-5,7H,2H2,1H3	InChI=1S/C6H9NO2/c1-6-4(7-6)3-5(6)9-2-8-3/h3-5,7H,2H2,1H3/t3-,4+,5-,6+/m1/s1
