19
gdb 73569	2.19233	2.08991	1.55755	2.2396	73.2	-0.2313	0.0762	0.3075	952.247	0.160085	-422.990499	-422.982979	-422.982034	-423.022102	30.123	
C	 0.1208179961	 1.5955391406	-0.0939684064	-0.485332
C	-0.0053556784	 0.0821033927	-0.0038240399	 0.276483
C	-1.3888222383	-0.4909109004	-0.3603347327	-0.293802
C	-1.6369626374	-1.6004490585	 0.6900066627	-0.071775
O	-0.8128310521	-1.2962464646	 1.8246512398	-0.263996
C	 0.2991832927	-0.5627231535	 1.3967521435	 0.047326
C	 1.5040387261	-1.3015980273	 0.761446126	-0.010573
O	 1.0163358862	-2.0768838323	-0.3433952251	-0.245267
C	 1.2288989715	-0.6792766418	-0.5471149484	-0.026125
H	 1.1154131972	 1.9336962967	 0.2180149871	 0.116449
H	-0.0396960964	 1.9451078898	-1.1203152752	 0.120527
H	-0.6175828381	 2.0880619042	 0.5471867022	 0.124795
H	-2.1439551758	 0.2966468255	-0.2725259149	 0.102095
H	-1.4342866988	-0.8874638294	-1.3778444235	 0.109794
H	-2.672612002	-1.6277102242	 1.0435253662	 0.097388
H	-1.3736517874	-2.5828233758	 0.2876875479	 0.117181
H	 0.6020421053	 0.1343414413	 2.1841886039	 0.080557
H	 2.4346144433	-1.6261462613	 1.21338025	 0.103967
H	 1.9057019761	-0.3865017319	-1.3427376934	 0.100307
133.2674	220.5768	238.7138	262.3955	268.7117	315.7877	462.7502	546.4329	615.0769	650.5853	714.3689	795.5597	813.4219	857.0856	888.9206	896.2173	919.7072	934.8102	968.0105	985.7815	1002.7283	1042.5461	1049.7229	1121.8587	1148.8702	1167.8542	1201.2844	1223.7987	1233.2181	1253.7844	1255.5505	1281.8607	1325.4829	1354.3592	1378.5282	1401.7132	1415.213	1482.7451	1493.9962	1499.7089	1520.7062	3023.9512	3044.7513	3052.3267	3066.8439	3085.9546	3087.8507	3098.2258	3108.6487	3170.5234	3186.5054
CC12CCOC1C1OC21	C[C@]12CCO[C@H]1[C@H]1O[C@@H]21	
InChI=1S/C7H10O2/c1-7-2-3-8-5(7)4-6(7)9-4/h4-6H,2-3H2,1H3	InChI=1S/C7H10O2/c1-7-2-3-8-5(7)4-6(7)9-4/h4-6H,2-3H2,1H3/t4-,5+,6-,7+/m1/s1
