15
gdb 7123	3.25594	1.29129	1.09642	2.4381	60.01	-0.2738	-0.0335	0.2403	1095.6886	0.116272	-436.940172	-436.931288	-436.930344	-436.975455	29.198	
C	-0.7661932051	 0.2455845657	-0.2661600471	-0.239516
O	 0.0728223086	 0.1217959853	-1.3988768877	-0.22457
C	 1.3645248994	-0.3463983234	-1.0934283866	-0.123696
C	 1.3889455099	-1.8290616424	-0.7891654418	 0.365048
N	 1.8260391642	-2.2986632364	 0.297064932	-0.467448
O	 0.9137145163	-2.5616219852	-1.8698732065	-0.187914
C	 0.0875577596	-3.624494789	-1.643847426	 0.160408
O	-0.2271138332	-4.3755408162	-2.5104913125	-0.24602
H	-0.9421356743	-0.7187467162	 0.2322983737	 0.109854
H	-0.3421985747	 0.9401191626	 0.4739739476	 0.11675
H	-1.7205799548	 0.6389121812	-0.6218744055	 0.138018
H	 1.9768718735	-0.1650970973	-1.9833773435	 0.137121
H	 1.8086194198	 0.1783721954	-0.2380390019	 0.123128
H	 1.8358149019	-3.3195624785	 0.3163125732	 0.23553
H	-0.255908721	-3.6742964355	-0.5964012273	 0.103308
30.0904	59.7566	109.9731	150.411	176.6299	234.5342	269.6976	407.7954	415.0139	554.2661	598.7091	689.0469	908.7348	918.9739	954.2082	1028.8896	1044.3491	1081.2383	1124.5109	1148.5531	1181.7982	1221.296	1289.3766	1319.7527	1392.5485	1415.6334	1468.1979	1483.6065	1487.9189	1508.914	1747.7697	1879.2991	2985.9386	2996.0902	3027.8309	3036.5417	3087.5774	3127.3935	3474.5602
COCC(=N)OC=O	COC[C]([NH])OC=O	
InChI=1S/C4H7NO3/c1-7-2-4(5)8-3-6/h3,5H,2H2,1H3	InChI=1S/C4H7NO3/c1-7-2-4(5)8-3-6/h3,5H,2H2,1H3
