21
gdb 38898	2.57711	1.74377	1.48241	1.7514	80.25	-0.2421	0.0772	0.3193	1001.4066	0.186303	-387.073471	-387.06622	-387.065276	-387.104814	29.955	
C	-0.0069435771	 1.6055179165	 0.3387723848	-0.305216
C	 1.2794773671	 0.8682684496	 0.0364347823	-0.014899
C	 2.3491213482	 0.5388753487	 1.0668777944	-0.247803
C	 1.848624948	 0.0233538364	 2.4234619735	-0.063566
C	 1.2195777285	 1.0472496527	 3.3907633973	-0.085964
O	-0.0944379066	 0.4744032932	 3.2253966795	-0.291298
C	 0.4397445857	-0.6366545379	 2.4569694899	 0.125604
C	-0.2982076875	-0.8872146132	 1.1481777252	-0.242576
C	-0.0342270039	 0.1240413251	 0.045643252	-0.019154
H	-0.2324318024	 1.9150120803	 1.3505756134	 0.140051
H	-0.3783332755	 2.2793812963	-0.4263600304	 0.101289
H	 1.6989680967	 1.0741932894	-0.9448855841	 0.078238
H	 3.0017094475	-0.2267351346	 0.6266508287	 0.098544
H	 2.992566635	 1.4128930735	 1.2379244429	 0.099378
H	 2.6285725497	-0.5845124816	 2.8869530135	 0.074437
H	 1.5658494333	 0.9720274299	 4.4297974439	 0.097498
H	 1.2549805725	 2.0984555229	 3.0796205162	 0.100539
H	 0.41324579	-1.5511233394	 3.0653695392	 0.07038
H	-0.007819546	-1.8856058947	 0.7921789174	 0.095955
H	-1.3710857713	-0.942124916	 1.3749252389	 0.112223
H	-0.4363259718	-0.170502967	-0.9197111085	 0.07634
150.5952	169.4207	274.125	309.9513	350.2458	364.8056	468.9855	576.2331	665.7716	727.7263	755.2222	816.1509	822.2801	831.4812	865.9956	888.1248	947.9131	971.226	989.1323	1022.5348	1033.6335	1063.3498	1081.1986	1108.216	1119.2287	1126.7314	1136.2682	1146.1701	1172.5029	1216.1629	1239.168	1246.4438	1297.9846	1299.7534	1317.996	1347.7363	1360.9112	1383.3369	1399.4076	1410.8697	1430.8348	1468.4293	1487.6587	1501.6782	1526.3035	2993.4892	3005.444	3008.1293	3015.5829	3033.2848	3045.6137	3050.9395	3080.7847	3130.0003	3136.8758	3146.5316	3240.9425
C1C2CC3COC3CC12	C1[C@H]2C[C@H]3CO[C@H]3C[C@@H]12	
InChI=1S/C8H12O/c1-5-2-7-4-9-8(7)3-6(1)5/h5-8H,1-4H2	InChI=1S/C8H12O/c1-5-2-7-4-9-8(7)3-6(1)5/h5-8H,1-4H2/t5-,6+,7-,8-/m0/s1
