16
gdb 28605	5.55982	0.96049	0.86945	3.4624	73.22	-0.1947	0.0317	0.2265	1293.1359	0.126547	-434.072389	-434.064406	-434.063462	-434.105454	29.692	
O	 0.1465146926	 1.3281460039	 0.2216314657	-0.435772
C	 0.0814450513	-0.006921539	 0.0040724541	 0.354915
C	 0.0282104466	-0.8157689268	-1.0980618448	-0.229079
N	-0.0199165727	-2.1387380201	-0.6951658877	-0.317547
C	-0.00129094	-2.1272088722	 0.6152634103	 0.383064
N	 0.0643798429	-0.840597084	 1.0949737604	-0.359557
C	-0.0407638557	-3.3192499545	 1.4829485643	-0.121099
C	-1.0053868846	-4.414569995	 1.167502683	-0.226622
N	 0.4283039064	-4.5949715006	 0.9204251145	-0.311524
H	 0.1608766189	 1.7757652472	-0.6299527449	 0.312405
H	 0.029414198	-0.5331639939	-2.1392840833	 0.101449
H	 0.091751495	-0.5408076542	 2.0555344384	 0.271406
H	 0.2408926995	-3.1499722625	 2.5202078617	 0.084074
H	-1.4157272864	-5.0205609682	 1.9712289506	 0.115289
H	-1.662100848	-4.250896654	 0.3180834251	 0.12861
H	 0.6147527163	-4.4316670362	-0.0690320172	 0.249989
48.2997	152.3717	171.9423	228.1619	299.873	333.7458	433.865	471.3601	493.4368	662.9048	666.4596	720.7502	739.2092	772.2744	829.8311	886.2798	975.4402	992.1153	1017.9195	1055.9438	1108.3416	1131.5482	1151.0238	1178.9922	1201.443	1207.9146	1278.3555	1289.2255	1318.0879	1379.8933	1473.2075	1497.1256	1510.2598	1563.2149	1641.6167	3106.8919	3125.7889	3202.0645	3249.1561	3474.7688	3661.4791	3844.9876
OC1=CN=C(N1)C1CN1	Oc1cnc([nH]1)[C@H]1CN1	
InChI=1S/C5H7N3O/c9-4-2-7-5(8-4)3-1-6-3/h2-3,6,9H,1H2,(H,7,8)	InChI=1S/C5H7N3O/c9-4-2-7-5(8-4)3-1-6-3/h2-3,6,9H,1H2,(H,7,8)/t3-/m1/s1
