19
gdb 33466	2.80361	1.26936	0.99807	2.9156	80.28	-0.2677	0.0177	0.2853	1223.3203	0.160613	-382.047661	-382.039176	-382.038232	-382.081188	31.878	
N	-0.3936477422	-1.1011259716	 0.7727756959	-0.339416
C	-0.2423664127	 0.0032257363	 0.4621682612	 0.236648
C	-0.0630918984	 1.3781105093	 0.044806618	 0.15525
C	 0.7492783001	 2.2416423059	 0.9588875959	-0.26686
N	 1.3111663653	 1.7909547895	-0.3161901579	-0.335524
C	-1.1890628815	 1.9308020496	-0.8070879534	-0.0324
C	-1.0756577261	 3.3772219746	-1.3618507087	-0.248448
C	-1.6977475728	 2.8674723899	-2.69084152	-0.218887
C	-1.3237586746	 1.4208769494	-2.2708571923	-0.224382
H	 0.5138178467	 3.3007956307	 1.0045820548	 0.137221
H	 1.1155491994	 1.8063647753	 1.8836056568	 0.138019
H	 1.9628720848	 1.0243510327	-0.170080427	 0.25267
H	-2.1311588135	 1.7964266776	-0.265651172	 0.088228
H	-1.6003058035	 4.1667633953	-0.818968761	 0.096994
H	-0.0287288154	 3.6611766172	-1.4945584629	 0.12946
H	-2.7808777758	 3.01575663	-2.7159680104	 0.105433
H	-1.2721892193	 3.2481493872	-3.6213478929	 0.103475
H	-0.3482819875	 1.127726889	-2.6689189136	 0.114369
H	-2.042915973	 0.6228231019	-2.4649755205	 0.108148
66.787	120.2079	133.7668	211.8819	233.9878	273.6626	397.5135	441.2787	535.1278	588.2536	615.3078	716.2867	786.0213	819.2588	845.6684	899.3966	916.721	936.7604	960.0833	963.2299	985.2714	1033.0823	1053.6567	1100.5349	1137.68	1142.1264	1202.8514	1240.8611	1258.8306	1260.7726	1265.7537	1272.7137	1287.6328	1298.1449	1343.426	1386.5867	1475.7496	1486.2091	1502.1007	1510.3464	2345.6836	3055.1112	3061.1354	3063.1132	3067.0231	3108.4734	3118.6566	3120.2787	3130.5891	3210.8394	3514.6399
N#CC1(CN1)C1CCC1	N#C[C@]1(CN1)C1CCC1	
InChI=1S/C7H10N2/c8-4-7(5-9-7)6-2-1-3-6/h6,9H,1-3,5H2	InChI=1S/C7H10N2/c8-4-7(5-9-7)6-2-1-3-6/h6,9H,1-3,5H2/t7-/m0/s1
