17
gdb 47007	2.66336	1.84476	1.45569	4.1297	66.73	-0.2483	0.0072	0.2555	933.125	0.13902	-459.008265	-459.001291	-459.000347	-459.039879	27.111	
O	-0.0368517587	 0.0626259356	-0.4301001161	-0.328074
C	-0.0295448407	 1.1809463749	 0.0032736395	 0.42376
O	-1.1875794145	 1.7610165898	 0.4083378751	-0.240522
C	-1.1905595683	 3.058755404	 1.0390230087	-0.0703
C	 0.0954593819	 3.8315628097	 0.7807025302	 0.065374
C	 0.341024701	 4.154422451	-0.7162698125	-0.243568
C	 1.2426578381	 2.9828151041	-1.1857065513	-0.229673
C	 1.2211895903	 2.0584786914	 0.0521857118	-0.064917
O	 1.1683404913	 2.9611330399	 1.1528408886	-0.252917
H	-2.0688844209	 3.5866795837	 0.6545428837	 0.120162
H	-1.3177482336	 2.8994305612	 2.1152201784	 0.126054
H	 0.1298959108	 4.7113123578	 1.4279357677	 0.094923
H	-0.5962415118	 4.2083626938	-1.2753921745	 0.11757
H	 0.8468644764	 5.1154277815	-0.8244778505	 0.117724
H	 0.8798139453	 2.4861520901	-2.0876605011	 0.130742
H	 2.2661271634	 3.3172193993	-1.3677934925	 0.118364
H	 2.0939799199	 1.4152796221	 0.1572474148	 0.115299
95.7469	149.1646	219.1121	340.8648	423.1827	441.3281	506.3256	628.0261	683.9857	736.51	798.1138	822.4941	832.3828	889.0587	903.7736	937.8798	987.144	1023.5003	1041.6451	1058.0297	1083.9273	1094.5905	1173.1127	1218.6184	1234.5305	1250.2583	1262.6419	1286.3236	1316.049	1333.0065	1352.0515	1372.5807	1421.7819	1484.8821	1501.9759	1507.0572	1854.608	3042.4808	3071.15	3078.258	3089.8962	3092.0772	3114.4227	3131.481	3136.8914
O=C1OCC2CCC1O2	O=C1OC[C@@H]2CC[C@H]1O2	
InChI=1S/C6H8O3/c7-6-5-2-1-4(9-5)3-8-6/h4-5H,1-3H2	InChI=1S/C6H8O3/c7-6-5-2-1-4(9-5)3-8-6/h4-5H,1-3H2/t4-,5+/m0/s1
