16
gdb 26429	3.23175	1.16964	0.9586	2.1647	71.99	-0.2435	-0.0369	0.2066	1214.9906	0.123638	-437.928381	-437.919873	-437.918928	-437.963511	29.66	
C	 0.0235463276	 1.5337311377	-0.1003504849	-0.40276
C	-0.0491994507	 0.0121735182	 0.1189581184	-0.176876
C	 0.5059812885	-0.6942474911	-1.1229102953	 0.160199
O	-0.1513108631	-1.3534371091	-1.8809138151	-0.237195
C	 0.7398698201	-0.4040099767	 1.3176051267	 0.381002
N	 1.7381456888	 0.1995608359	 1.8833625066	-0.304363
C	 2.1241668521	-0.6497384169	 2.9130737124	-0.112797
C	 1.3250358538	-1.7407511187	 2.9077844618	-0.042165
O	 0.4304929298	-1.6006426998	 1.8847522847	-0.173671
H	 1.057163634	 1.8535432562	-0.2533756237	 0.147957
H	-0.5712031563	 1.8180462882	-0.9722323579	 0.130515
H	-0.3592938825	 2.0608363465	 0.7765036341	 0.139165
H	-1.0846096443	-0.3204084745	 0.2343452489	 0.118606
H	 1.5948193167	-0.5226551626	-1.282472459	 0.092084
H	 2.9402562919	-0.407898908	 3.5748429502	 0.129095
H	 1.2429557535	-2.6345035954	 3.501533632	 0.151203
20.0169	59.1687	144.486	196.9767	203.3862	297.8124	373.0662	423.6137	468.2756	632.1673	730.0049	760.8378	776.5479	867.7563	889.2436	929.3706	946.3211	966.2321	1068.3601	1078.0959	1113.99	1141.827	1149.4381	1169.5538	1203.453	1276.8509	1330.4499	1399.2169	1405.1707	1417.6944	1490.0234	1494.3065	1550.5726	1606.0137	1839.3855	2879.41	3053.2771	3081.7565	3131.9246	3134.6168	3266.8225	3303.1284
CC(C=O)C1=NC=CO1	C[C@@H](C=O)c1ncco1	
InChI=1S/C6H7NO2/c1-5(4-8)6-7-2-3-9-6/h2-5H,1H3	InChI=1S/C6H7NO2/c1-5(4-8)6-7-2-3-9-6/h2-5H,1H3/t5-/m0/s1
