16
gdb 132556	3.04421	1.36938	0.95082	2.1144	77.12	-0.2057	-0.0164	0.1893	1168.6116	0.124577	-442.106923	-442.09871	-442.097765	-442.139969	31.04	
C	-0.030445059	 1.4968736057	-0.0209821549	-0.484223
C	 0.0088433475	-0.0066447495	-0.0068022725	 0.201872
N	 0.0200820027	-0.6534529144	-1.1779262825	-0.376948
C	 0.0613121006	-1.9905102459	-1.1923683026	 0.36614
N	 0.1373537905	-2.5852425396	-2.4439161311	-0.568304
C	 0.0816400701	-2.7579533091	-0.0167599175	-0.188188
C	 0.0609931936	-2.0945490722	 1.1995485184	-0.184383
C	 0.0276412434	-0.7096515941	 1.1936340523	 0.202115
F	 0.0081918961	-0.0306436947	 2.3534555283	-0.085603
H	 0.8603837231	 1.9192362004	 0.4568366998	 0.136909
H	-0.0812305114	 1.8483463185	-1.0519975481	 0.135787
H	-0.895438532	 1.8761855138	 0.5333276475	 0.135228
H	-0.1425850453	-1.9673168154	-3.1917503234	 0.252683
H	-0.2514361542	-3.5124557505	-2.5206505515	 0.247718
H	 0.1189807435	-3.8407114739	-0.0609563339	 0.093668
H	 0.0726350607	-2.6294535292	 2.1425363716	 0.115529
55.5211	133.8636	218.03	267.6552	327.2902	358.5624	373.9724	459.4518	478.3722	507.9093	566.8867	589.3192	643.542	737.7359	774.5874	785.1868	838.3054	954.0159	954.1761	1006.7443	1056.9595	1119.8013	1133.8649	1193.4599	1284.2884	1324.8944	1366.7106	1403.0497	1452.2824	1481.0827	1483.6846	1513.4127	1628.2768	1633.3869	1653.614	3039.3678	3091.911	3149.0169	3184.1581	3203.69	3571.7801	3682.9936
CC1=NC(N)=CC=C1F	Cc1nc(N)ccc1F	
InChI=1S/C6H7FN2/c1-4-5(7)2-3-6(8)9-4/h2-3H,1H3,(H2,8,9)	InChI=1S/C6H7FN2/c1-4-5(7)2-3-6(8)9-4/h2-3H,1H3,(H2,8,9)
