16
gdb 11013	4.27345	1.77589	1.50999	3.107	66.65	-0.2573	0.0121	0.2693	865.1676	0.132223	-379.92042	-379.913396	-379.912452	-379.951433	26.89	
C	 0.015639441	 1.5024804837	-0.0571277064	-0.475138
C	-0.0251942213	 0.0029994851	 0.0678683539	 0.313337
C	-1.304961808	-0.7422753881	-0.2827244635	-0.154227
O	-1.2406727145	-2.0047270861	 0.4005001958	-0.253568
C	-0.295764152	-1.9578051275	 1.4021595846	 0.419834
N	-0.2100704412	-2.7834684084	 2.3524028238	-0.543405
C	 0.6003609755	-0.7962614708	 1.1632382183	-0.156745
N	 1.2088158277	-0.7363940473	-0.185049853	-0.366449
H	 0.9926452206	 1.8789581423	 0.2531646495	 0.142675
H	-0.1473779641	 1.8113363525	-1.095898648	 0.127502
H	-0.7563882785	 1.9710624113	 0.5617716571	 0.124725
H	-2.1886291799	-0.1896053592	 0.0603733747	 0.118346
H	-1.4117242671	-0.941180548	-1.3548494985	 0.120975
H	-0.968699164	-3.4660620518	 2.3041316732	 0.22518
H	 1.1827091052	-0.3974005141	 1.9836935859	 0.116341
H	 1.0342897106	-1.6024331937	-0.6928349675	 0.24062
136.3822	194.3673	201.4747	282.872	377.1176	404.4126	449.6484	562.3847	667.3486	707.6435	768.9998	825.1649	875.3641	898.7319	932.9241	988.3968	1000.0536	1022.1417	1063.7454	1085.368	1112.4859	1144.854	1179.5388	1230.9149	1268.6817	1280.0705	1338.7362	1377.6459	1416.2544	1449.824	1487.6896	1495.0934	1516.9093	1780.2166	3024.4202	3036.3165	3072.2359	3097.7358	3131.7319	3206.0411	3472.6192	3474.4427
CC12COC(=N)C1N2	C[C@]12CO[C]([NH])[C@H]1N2	
InChI=1S/C5H8N2O/c1-5-2-8-4(6)3(5)7-5/h3,6-7H,2H2,1H3	InChI=1S/C5H8N2O/c1-5-2-8-4(6)3(5)7-5/h3,6-7H,2H2,1H3/t3-,5+/m1/s1
