23
gdb 119062	2.12638	1.05746	0.8757	0.4951	82.52	-0.2452	0.081	0.3262	1478.1116	0.202829	-425.400114	-425.389052	-425.388108	-425.436564	39.701	
C	-0.7610053594	 1.0614150556	 0.5826680517	-0.249005
O	 0.0680687547	 0.0259718151	 0.0907394934	-0.287407
C	 0.8931550004	-0.5770292988	 1.0555351725	 0.422862
C	 2.073266011	 0.2648209032	 1.5007841791	-0.249833
C	 2.9940291086	 0.6413466486	 0.3443893592	-0.070114
O	 4.0448133632	 1.4395274045	 0.871651368	-0.423954
C	 0.2290336712	-1.5232720371	 2.0302136576	-0.366554
C	 1.0671902631	-2.0648741297	 0.8861982002	-0.048828
C	 0.4148868443	-2.816267115	-0.2525978267	-0.403176
H	-0.1844478062	 1.9338353507	 0.9197875373	 0.111637
H	-1.4055684886	 1.3692037941	-0.2443773366	 0.124189
H	-1.3875976133	 0.7167942425	 1.4171155398	 0.108097
H	 1.7330613402	 1.1848493646	 1.9914607265	 0.103769
H	 2.6499008376	-0.287304279	 2.2505541332	 0.104644
H	 3.3846688718	-0.2741014675	-0.1281411631	 0.085583
H	 2.4193278271	 1.1828083441	-0.4207082029	 0.0977
H	 4.6106660348	 1.7077793978	 0.1421583267	 0.284208
H	 0.6050299056	-1.5872704438	 3.0459152475	 0.108395
H	-0.8459772142	-1.6409574691	 1.9378937337	 0.112165
H	 2.049904686	-2.4371948893	 1.1668262402	 0.082549
H	-0.5276310735	-2.3456081302	-0.5399927135	 0.127132
H	 1.0602528837	-2.8307680834	-1.137747171	 0.114557
H	 0.212402922	-3.854751258	 0.0311870173	 0.111385
65.9297	83.6511	107.9055	129.5481	169.7482	185.0459	212.8074	262.669	267.4188	305.949	328.4536	401.4728	435.4775	507.9137	580.9652	733.3006	790.5825	807.5711	888.2672	910.9771	942.508	998.2746	1024.0305	1043.4015	1049.9671	1086.3845	1104.1038	1123.7911	1139.1591	1181.9308	1190.2678	1207.783	1219.4082	1246.1178	1261.0685	1288.5226	1333.1282	1343.7181	1404.1138	1424.3364	1457.6883	1472.9684	1480.1818	1484.3253	1493.1732	1499.918	1503.6564	1509.8945	1530.0395	2972.9589	2994.604	3014.3762	3033.6096	3036.3997	3047.7864	3081.0552	3089.4288	3114.2006	3120.4409	3125.6768	3137.5649	3212.6158	3831.2534
COC1(CCO)CC1C	CO[C@@]1(CCO)C[C@H]1C	
InChI=1S/C7H14O2/c1-6-5-7(6,9-2)3-4-8/h6,8H,3-5H2,1-2H3	InChI=1S/C7H14O2/c1-6-5-7(6,9-2)3-4-8/h6,8H,3-5H2,1-2H3/t6-,7+/m1/s1
