20
gdb 89250	2.46676	1.79393	1.31732	2.9167	77.92	-0.2172	0.0557	0.273	1034.6801	0.170973	-403.071653	-403.063498	-403.062554	-403.10363	32.908	
C	-0.0442739679	 1.4947480921	 0.0244901491	-0.498837
C	 0.000276028	-0.0157921575	-0.0042263068	 0.36558
C	-1.3254845564	-0.8118494651	 0.2002166477	-0.362636
C	-0.646369606	-1.5947744977	 1.3788176775	 0.11912
O	-0.6046152078	-3.0031995783	 1.3524153974	-0.420921
C	 0.6965728127	-0.8677688816	 1.0928776262	-0.047781
N	 1.7259229581	-1.4130455284	 0.1240984513	-0.146559
C	 1.0486556404	-2.1099941351	-0.9881639826	-0.250646
C	 1.0160261674	-0.637289546	-0.9861596318	-0.084463
H	 0.9645888012	 1.9187197389	 0.0780931198	 0.124391
H	-0.5242055198	 1.8916838608	-0.8787084315	 0.118148
H	-0.6100200763	 1.8607671924	 0.8881134879	 0.113202
H	-2.1732037482	-0.1948252632	 0.5116469703	 0.095635
H	-1.634717477	-1.4303784927	-0.6459169156	 0.102219
H	-1.0382290855	-1.2398477397	 2.3430113864	 0.074638
H	-1.4780276867	-3.3333250108	 1.5860559995	 0.28632
H	 1.2071638445	-0.43264397	 1.953195354	 0.074686
H	 1.7686578603	-2.5733110533	-1.657923886	 0.115893
H	 0.1716837598	-2.7121132827	-0.7904847362	 0.13543
H	 1.584733349	-0.0470239722	-1.7008060364	 0.086583
163.2438	214.0862	226.2071	240.917	271.2726	293.2279	341.7862	440.4896	468.2403	537.7757	626.7088	672.3374	715.8043	740.5799	816.5337	862.9325	894.0401	913.4968	947.5303	968.3985	997.3236	1023.5273	1054.8212	1067.0964	1108.9018	1135.4487	1158.074	1173.812	1185.7798	1211.7883	1221.6699	1228.3008	1250.5161	1281.108	1317.9008	1320.7154	1386.1734	1411.8914	1427.11	1475.0357	1491.2597	1494.6946	1521.5545	2987.0818	3019.1102	3053.2781	3081.6166	3094.182	3095.4899	3110.451	3124.6379	3136.4385	3229.9054	3816.0251
CC12CC(O)C1N1CC21	C[C@]12C[C@@H](O)[C@H]1N1C[C@@H]21	
InChI=1S/C7H11NO/c1-7-2-4(9)6(7)8-3-5(7)8/h4-6,9H,2-3H2,1H3	InChI=1S/C7H11NO/c1-7-2-4(9)6(7)8-3-5(7)8/h4-6,9H,2-3H2,1H3/t4-,5+,6-,7-,8?/m1/s1
