20
gdb 32907	4.24249	0.79063	0.6995	0.8187	83.67	-0.1739	0.061	0.2349	1649.0217	0.170933	-403.192499	-403.182871	-403.181927	-403.227574	35.5	
C	-0.1439186682	 1.5726935062	-0.0743972667	-0.379305
C	-0.1333883364	 0.0425637114	-0.094216481	-0.151592
C	 0.8441567537	-0.5356027138	-1.1377521963	-0.308572
C	 0.8930820837	-2.027906796	-1.1803323197	 0.300532
C	 1.8657980968	-2.9196493841	-0.804006344	-0.216248
C	 1.3866954723	-4.2488375027	-1.0396604495	-0.292441
C	 0.1234977166	-4.1118002866	-1.5581121149	 0.362038
O	-0.8199194503	-4.9957773495	-1.9787856621	-0.438577
N	-0.1787242147	-2.7833728343	-1.643002904	-0.340879
H	 0.8485974846	 1.971381282	 0.1640538006	 0.115126
H	-0.4361300114	 1.9811692764	-1.0485735681	 0.111755
H	-0.8453133472	 1.9582263901	 0.6720056709	 0.111827
H	 0.1377647843	-0.3463464477	 0.8942616738	 0.104306
H	-1.1460094023	-0.3298481644	-0.2971828342	 0.08678
H	 0.5846024559	-0.1294444143	-2.1273894042	 0.093972
H	 1.8552604565	-0.1728867058	-0.9207139969	 0.109238
H	 2.8307767561	-2.6525414598	-0.3995465767	 0.085346
H	 1.9063056293	-5.1765131037	-0.8559039167	 0.081559
H	-0.4687454283	-5.8837676309	-1.8652855663	 0.305845
H	-1.0471842012	-2.4277025026	-2.0034864641	 0.25929
52.5999	78.4826	97.4721	227.3929	240.5517	248.5699	284.8959	311.8779	378.801	424.2714	447.442	630.8184	652.5989	679.8945	729.7744	741.3381	742.6171	799.9096	869.5854	893.1592	995.2482	1022.1575	1041.7877	1050.6726	1092.1816	1109.4456	1170.9488	1214.2868	1243.1284	1285.9536	1300.1864	1317.1132	1330.3575	1382.3809	1411.5007	1430.3133	1475.2026	1490.6171	1499.2744	1508.7817	1532.3988	1573.7567	1646.7108	2988.2505	3020.3567	3028.0697	3053.0104	3070.0609	3095.3275	3101.9012	3236.1254	3250.8182	3679.4294	3850.9814
CCCC1=CC=C(O)N1	CCCc1ccc(O)[nH]1	
InChI=1S/C7H11NO/c1-2-3-6-4-5-7(9)8-6/h4-5,8-9H,2-3H2,1H3	InChI=1S/C7H11NO/c1-2-3-6-4-5-7(9)8-6/h4-5,8-9H,2-3H2,1H3
