16
gdb 18325	3.41371	2.18105	1.59892	3.8362	63.53	-0.2323	-0.0314	0.2008	813.2931	0.132064	-383.746046	-383.739404	-383.73846	-383.777127	25.162	
O	-0.0743810447	 0.0789489663	-0.2611321539	-0.306115
C	-0.0293810564	 1.2651040275	-0.0694756291	 0.408799
C	-1.1902115821	 2.1834147421	 0.3197711335	-0.326958
C	-0.8386970095	 3.533571267	-0.3375116522	-0.237234
C	 0.7040300668	 3.6042496069	-0.3520160428	-0.077049
C	 1.3845066951	 3.8285640668	 1.0136025759	-0.075835
O	 1.7516212112	 2.4324595326	 1.115150848	-0.294364
C	 1.2181699463	 2.1514939429	-0.204382713	 0.026893
H	-2.1483480464	 1.7609533033	 0.013738584	 0.128257
H	-1.1984400369	 2.2651990281	 1.4140420134	 0.140502
H	-1.2119314911	 3.5485211964	-1.3673563762	 0.113643
H	-1.2831332303	 4.389991251	 0.1779907166	 0.109243
H	 1.0963544669	 4.2028557123	-1.1737460168	 0.086633
H	 2.2712874271	 4.4733198335	 0.9971516854	 0.108487
H	 0.7288337951	 4.1448135276	 1.834869028	 0.103994
H	 1.9688606189	 1.7420101655	-0.8852866708	 0.091105
89.3374	148.0729	229.2445	344.7088	430.8561	516.9783	577.1562	672.3327	758.2757	797.7549	850.0408	878.6307	886.1998	951.3703	962.8721	986.8992	1024.3096	1071.7829	1084.0801	1155.7227	1166.186	1173.4733	1189.1771	1242.0859	1265.2045	1283.16	1299.1683	1328.4336	1339.3709	1367.8684	1455.0558	1496.5381	1524.6585	1852.6402	3014.0118	3040.5914	3045.9875	3058.1345	3081.2456	3089.9031	3114.2571	3125.8294
O=C1CCC2COC12	O=C1CC[C@H]2CO[C@@H]12	
InChI=1S/C6H8O2/c7-5-2-1-4-3-8-6(4)5/h4,6H,1-3H2	InChI=1S/C6H8O2/c7-5-2-1-4-3-8-6(4)5/h4,6H,1-3H2/t4-,6+/m0/s1
