14
gdb 44113	3.38369	1.82703	1.58862	3.6318	66.29	-0.2528	-0.0533	0.1995	838.7049	0.1034	-432.815186	-432.80909	-432.808146	-432.845568	24.581	
O	-0.162141019	 0.0432255165	 0.1889184636	-0.308711
C	-0.0955150717	 1.2226926722	 0.0289587208	 0.428764
N	-1.2355250771	 2.1041631738	-0.2014010771	-0.357506
C	-0.6359225122	 3.2562163972	 0.3963836734	 0.146665
N	-0.6785864116	 3.516397785	 1.6450265178	-0.197706
C	 0.7366566839	 3.6873806165	 2.0518605642	-0.193502
C	 1.5589949476	 3.1907815769	 0.853986675	-0.034572
C	 0.6956204252	 3.3722589413	-0.3086043493	-0.086648
N	 1.1330117912	 1.9927281411	-0.0586897329	-0.192606
H	-2.0576038375	 1.7443818278	 0.2724572265	 0.265131
H	 1.0379296395	 4.719192712	 2.2824381149	 0.132107
H	 0.8627367465	 3.0957482249	 2.9640767324	 0.146596
H	 2.6343213041	 3.3185989634	 0.825757351	 0.129441
H	 0.8753318609	 3.8529062115	-1.2632536801	 0.122547
131.1887	271.3021	371.9184	428.8457	484.1105	578.975	586.8111	687.5486	743.6325	785.1175	789.391	843.5624	860.7592	886.8734	916.3835	923.5049	955.7167	998.7893	1016.9122	1038.8248	1101.9542	1176.1049	1223.2307	1247.4427	1287.231	1308.9072	1330.5411	1369.1487	1470.399	1640.6131	1888.8935	3016.1119	3083.4739	3179.9255	3204.3563	3558.8828
O=C1NC2=NCC3C2N13	O=C1N[C]2[N]C[C@@H]3[C@H]2N13	
InChI=1S/C5H5N3O/c9-5-7-4-3-2(1-6-4)8(3)5/h2-3H,1H2,(H,6,7,9)	InChI=1S/C5H5N3O/c9-5-7-4-3-2(1-6-4)8(3)5/h2-3H,1H2,(H,6,7,9)/t2-,3-,8?/m1/s1
