19
gdb 102780	1.74367	1.5108	0.90326	2.3686	73.28	-0.2402	0.0066	0.2467	1314.726	0.158744	-456.414623	-456.404589	-456.403645	-456.450085	35.924	
C	 0.1122410905	 1.6202440542	-0.3538353159	-0.395806
C	 0.1178758255	 0.0896996705	-0.3726237304	-0.195274
C	-1.2246708197	-0.5339823858	 0.0073900023	-0.066066
N	-2.2574371532	-0.1803040154	-0.9721281574	-0.264271
C	-3.5760138998	-0.1306043666	-0.6824977144	 0.157942
O	-4.0630777229	-0.4102290706	 0.4014436295	-0.343512
C	-1.11354281	-2.0753889738	 0.1420855509	 0.388198
N	-2.1818005256	-2.6380604821	 0.7626353688	-0.524979
O	-0.1508925601	-2.6978927729	-0.2642493365	-0.364445
H	 1.0939627903	 2.0132277093	-0.6331553914	 0.122191
H	-0.6225347816	 2.0360368588	-1.0508053997	 0.110338
H	-0.1297408873	 2.0032438648	 0.6434447682	 0.122784
H	 0.417694161	-0.2919798093	-1.3558103831	 0.113858
H	 0.8674104301	-0.2966634489	 0.3234656895	 0.127612
H	-1.5714938336	-0.1359288674	 0.9677134526	 0.119951
H	-1.967777292	-0.0070825187	-1.922680395	 0.257383
H	-4.1874385304	 0.2016940149	-1.5416732524	 0.094637
H	-3.004966715	-2.0832090711	 0.9639548229	 0.283749
H	-2.2288626661	-3.6435863099	 0.8019976515	 0.255711
55.1182	93.8337	98.9562	190.2587	194.6617	201.3246	252.418	319.0005	344.7633	366.8142	466.3281	490.7039	537.412	612.934	660.7091	732.0574	768.6004	806.5641	881.4018	953.1113	967.992	1028.8598	1058.8566	1115.4605	1142.1576	1165.6471	1216.9837	1263.5087	1302.1718	1342.9719	1368.9143	1396.4987	1415.9331	1423.0133	1477.2167	1498.459	1506.8135	1522.3365	1627.9792	1769.9518	1801.6515	2966.8374	3036.5864	3044.3914	3057.8043	3087.7501	3108.8771	3112.3157	3515.1331	3623.8229	3686.6825
CCC(NC=O)C(N)=O	CC[C@@H](NC=O)C(=O)N	
InChI=1S/C5H10N2O2/c1-2-4(5(6)9)7-3-8/h3-4H,2H2,1H3,(H2,6,9)(H,7,8)	InChI=1S/C5H10N2O2/c1-2-4(5(6)9)7-3-8/h3-4H,2H2,1H3,(H2,6,9)(H,7,8)/t4-/m1/s1
