19
gdb 86017	2.87315	1.14777	1.09376	3.001	81.77	-0.2652	-0.006	0.2591	1226.9481	0.159936	-382.09372	-382.084692	-382.083748	-382.127387	34.141	
C	-0.0034703257	 1.6276393778	 0.0055016398	-0.401171
C	 0.0264979482	 0.0954718862	 0.0287593	-0.02314
C	 0.7698375825	-0.5323002309	-1.177690603	-0.258988
C	 1.5046609124	-1.7925648387	-0.6338078199	 0.097353
N	 2.8453828199	-1.9191653381	-1.2236497663	-0.536555
C	 1.5669588864	-1.5043339642	 0.8591495083	-0.09094
C	 0.7705517286	-0.4978982494	 1.2035685128	-0.058555
C	 0.6969076295	-3.0178086255	-0.8649738724	 0.234654
N	 0.1019297296	-3.990951991	-1.0607387949	-0.348393
H	 1.0117252442	 2.0387782286	 0.0032394584	 0.122696
H	-0.5198693946	 1.9954534116	-0.8870407999	 0.12019
H	-0.5276865847	 2.0256707606	 0.8804415992	 0.117954
H	-1.0128683767	-0.2635500265	 0.0527284198	 0.098064
H	 0.1138520287	-0.7565335834	-2.0215654385	 0.11435
H	 1.5538639848	 0.1501290073	-1.5201470283	 0.12128
H	 3.3102434005	-2.7410905051	-0.8452529834	 0.238996
H	 2.7617827146	-2.0839781508	-2.2243128066	 0.239689
H	 2.171960328	-2.1095966461	 1.5240327127	 0.107901
H	 0.6335055238	-0.1356410126	 2.2172337822	 0.104615
60.5597	140.6542	180.1885	227.1079	238.8303	259.7915	303.8418	377.2805	398.9743	477.6268	520.3007	586.59	645.4482	672.7332	784.3707	793.7217	852.7101	890.0343	903.3036	939.0927	974.497	994.5639	1014.1717	1081.2913	1105.007	1128.2171	1159.7625	1182.8593	1239.3816	1293.1159	1308.289	1333.2022	1342.8073	1385.5346	1410.9679	1484.075	1497.728	1499.2435	1659.0346	1690.5225	2331.8158	2996.2068	3030.9813	3058.8402	3102.4463	3103.1063	3116.9985	3183.535	3211.7765	3476.5977	3553.9522
CC1CC(N)(C=C1)C#N	C[C@H]1C[C@@](N)(C=C1)C#N	
InChI=1S/C7H10N2/c1-6-2-3-7(9,4-6)5-8/h2-3,6H,4,9H2,1H3	InChI=1S/C7H10N2/c1-6-2-3-7(9,4-6)5-8/h2-3,6H,4,9H2,1H3/t6-,7+/m1/s1
