15
gdb 49884	2.71775	1.43118	0.94299	2.1005	72.14	-0.2448	-0.0185	0.2263	1158.535	0.114949	-450.191067	-450.183211	-450.182266	-450.223833	28.989	
N	 0.8905960899	-0.1198425125	 0.342052227	-0.472151
C	-0.2516216461	 0.3550944193	 0.0430197783	 0.085678
N	-1.358341385	-0.4665271859	 0.0293446555	-0.098513
C	-1.3035372947	-1.8834365634	 0.3440750386	-0.299625
C	-2.7560207273	-2.3251841209	 0.1874145728	 0.422258
O	-3.2220653288	-3.423460845	 0.3421981332	-0.345931
N	-3.447925466	-1.1817131056	-0.177431306	-0.407894
C	-2.6470457266	-0.0391549633	-0.2858756179	 0.48408
N	-2.9482760908	 1.1533801615	-0.5966334007	-0.573303
H	 1.5958267764	 0.6131603507	 0.3059485835	 0.232556
H	-0.5018649939	 1.3841294073	-0.2216274052	 0.146777
H	-0.6491091546	-2.432409034	-0.3403099657	 0.165773
H	-0.9436224938	-2.0655120106	 1.3615617871	 0.165725
H	-4.439992775	-1.180328103	-0.3532634471	 0.271403
H	-3.9399731937	 1.2597734053	-0.7912474036	 0.223168
90.1933	141.9303	169.4604	199.7874	280.4189	359.6665	470.7939	506.3049	585.8973	594.8958	659.0798	676.6492	719.1901	764.8256	824.8369	853.8155	892.3551	1012.5088	1073.3296	1076.2583	1159.7596	1171.3436	1189.4059	1237.6285	1327.519	1352.9434	1376.5391	1399.0638	1456.0387	1497.3345	1713.4533	1772.1891	1869.7603	3059.6879	3094.949	3124.3505	3513.766	3534.4068	3654.5107
N=CN1CC(=O)NC1=N	[NH][CH]N1CC(=O)N[C]1[NH]	
InChI=1S/C4H6N4O/c5-2-8-1-3(9)7-4(8)6/h2,5H,1H2,(H2,6,7,9)	InChI=1S/C4H6N4O/c5-2-8-1-3(9)7-4(8)6/h2,5H,1H2,(H2,6,7,9)
