18
gdb 87921	4.08575	1.07505	0.97196	5.1895	72.8	-0.2419	0.0545	0.2964	1242.8165	0.14814	-439.124426	-439.116032	-439.115088	-439.1576	31.556	
C	 0.0237420358	 1.5670068346	-0.1133459599	-0.410661
C	 0.0129899451	 0.0578807912	 0.0040405391	-0.067611
C	 1.2924476932	-0.7520937246	-0.155708173	-0.349088
C	 0.6110893448	-0.6449103274	 1.1847741311	 0.343128
C	 1.2205367869	 0.0716018008	 2.3883360387	-0.143366
O	 1.2898261206	-0.9270964568	 3.4134562525	-0.240624
C	 0.5282845135	-2.0103204744	 3.0655189472	 0.471381
O	 0.3820966573	-2.9718944007	 3.7655449974	-0.390462
N	-0.0200633566	-1.7680799329	 1.82233697	-0.424505
H	 0.942493091	 1.9966319977	 0.2992500435	 0.118717
H	-0.0386654167	 1.8758720033	-1.1619770995	 0.127417
H	-0.8220483128	 2.016118279	 0.4182614224	 0.128097
H	-0.8804782997	-0.4154787962	-0.3974892528	 0.093537
H	 1.2405336185	-1.6987637199	-0.6842536458	 0.116477
H	 2.2239529606	-0.211289347	-0.2984382261	 0.11882
H	 2.2269350184	 0.4524616893	 2.2022227321	 0.126873
H	 0.5841662556	 0.8930963751	 2.7392788351	 0.121729
H	-0.3595179156	-2.562214161	 1.3042902079	 0.260142
73.9223	138.9627	174.9398	191.6346	237.3235	324.9763	407.9377	441.2806	477.596	534.5116	545.1828	710.7304	764.4343	774.8816	861.9482	880.7161	911.8998	937.7184	938.9867	1013.6316	1039.227	1073.315	1082.9487	1106.1536	1130.8155	1182.8862	1222.1293	1234.0227	1263.7268	1314.192	1389.2559	1398.3519	1419.1809	1449.5949	1489.3603	1493.7408	1509.6046	1519.9812	1894.9885	3028.3608	3032.9742	3096.3385	3097.5793	3103.0911	3118.0992	3132.9306	3206.3772	3653.347
CC1CC11COC(=O)N1	C[C@H]1C[C@]21COC(=O)N2	
InChI=1S/C6H9NO2/c1-4-2-6(4)3-9-5(8)7-6/h4H,2-3H2,1H3,(H,7,8)	InChI=1S/C6H9NO2/c1-4-2-6(4)3-9-5(8)7-6/h4H,2-3H2,1H3,(H,7,8)/t4-,6+/m0/s1
