21
gdb 75386	2.89737	1.24599	0.98077	0.2437	95.34	-0.2106	-0.0232	0.1874	1301.5438	0.183	-349.988252	-349.979316	-349.978372	-350.021327	34.704	
C	 0.0221595043	 1.5398433192	-0.1695571449	-0.4839
C	-0.0380598196	 0.0364290534	-0.0178850068	 0.31256
C	-1.2138006817	-0.6115654479	 0.0970088764	-0.164279
C	-1.3059648922	-2.1161352778	 0.1220776359	-0.30863
C	-0.6539540786	-2.6314105586	 1.3799434437	-0.164279
C	 0.6697440897	-2.517224587	 1.6041057331	 0.31256
C	 1.3228079174	-3.152707074	 2.8109839029	-0.4839
C	 1.5496537959	-1.7724117515	 0.7163636987	-0.145859
C	 1.240605092	-0.657408895	 0.0081533526	-0.145859
H	 0.5657541716	 2.0090525064	 0.6590184637	 0.126071
H	 0.5507706479	 1.817386585	-1.090261405	 0.123014
H	-0.9781166202	 1.9781147022	-0.2118463629	 0.119597
H	-2.1352470757	-0.03783442	 0.1623919087	 0.081854
H	-2.3483006409	-2.4395883096	 0.0676890978	 0.096106
H	-0.7863379847	-2.5289979432	-0.7546857117	 0.111909
H	-1.2804494426	-3.1218198566	 2.1212314921	 0.081854
H	 2.1194801657	-3.8423373354	 2.5045857483	 0.123015
H	 1.7886173097	-2.4028159544	 3.4612720813	 0.126071
H	 0.6005452058	-3.7174669018	 3.4057994311	 0.119597
H	 2.5951850658	-2.0782396461	 0.7213717347	 0.081249
H	 2.0618895206	-0.1541865371	-0.5007184998	 0.081249
109.8654	162.9909	173.2458	242.6287	268.3113	279.2594	298.0828	353.8125	377.3513	453.4219	481.2692	609.7212	657.828	703.9161	758.3704	808.9081	844.9361	865.0173	924.1141	939.9877	1003.6875	1004.0021	1030.6633	1062.3811	1069.3627	1071.2147	1112.5536	1160.6034	1193.6641	1253.2515	1260.2042	1330.3034	1340.3278	1367.3251	1411.132	1412.1674	1471.2586	1472.8401	1480.9649	1482.3029	1494.9945	1496.4759	1591.4203	1682.0369	1693.7468	2994.6456	3020.7958	3021.1021	3070.036	3070.2268	3090.4224	3114.4144	3114.8233	3120.2913	3141.5169	3151.7574	3155.7803
CC1=CCC=C(C)C=C1	CC1=CCC=C(C)C=C1	
InChI=1S/C9H12/c1-8-4-3-5-9(2)7-6-8/h4-7H,3H2,1-2H3	InChI=1S/C9H12/c1-8-4-3-5-9(2)7-6-8/h4-7H,3H2,1-2H3
