21
gdb 102556	2.13999	1.28842	1.05933	3.0762	74.76	-0.2524	0.0647	0.3171	1266.8177	0.179621	-461.325868	-461.315474	-461.31453	-461.361552	37.423	
C	 0.1803292005	 1.2053410711	 0.380727771	-0.241174
O	 0.2043915006	-0.1981491055	 0.2054143263	-0.260384
C	 0.5838352408	-0.6262675397	-1.1031303971	 0.016656
C	 2.1166518107	-0.6863779374	-1.2066967446	-0.079449
O	 2.6970877841	-1.362077915	-0.1080252736	-0.418043
C	-0.0964627204	-1.9666610461	-1.3665173923	 0.424573
C	 0.1144314481	-3.0806405796	-0.3670365175	-0.480146
C	-1.2884976613	-1.9686194329	-2.2270375449	-0.234387
O	-0.0081778774	-2.3412001414	-2.749767545	-0.282909
H	 1.1670497054	 1.6658186542	 0.2323027572	 0.116659
H	-0.5314187241	 1.6809584574	-0.3095428734	 0.114595
H	-0.1423921015	 1.39385415	 1.4074226658	 0.133258
H	 0.2171884096	 0.0854635606	-1.8571011783	 0.070587
H	 2.3943599293	-1.2225136796	-2.1190962647	 0.130725
H	 2.5137321924	 0.3384165702	-1.2915623429	 0.084744
H	 2.2075154133	-1.0630854946	 0.6689878239	 0.28706
H	-0.2627228858	-2.7777262298	 0.6142074005	 0.129873
H	-0.419056078	-3.9785603678	-0.6888313641	 0.116772
H	 1.1770911865	-3.310163731	-0.2648320681	 0.150186
H	-2.008923628	-2.7809537388	-2.1410910356	 0.113582
H	-1.6936804949	-1.0305891144	-2.6052502827	 0.107222
58.5252	68.5129	132.7234	162.7474	190.5898	223.6658	234.4683	294.7603	328.6726	332.5559	375.0574	463.6955	472.051	500.808	666.7325	771.8033	836.1958	874.6719	923.2694	924.4027	986.0245	1039.3806	1058.8942	1094.5039	1121.1988	1127.6336	1137.8721	1165.2461	1182.2857	1208.7541	1228.8465	1300.4074	1304.5826	1353.2402	1377.9471	1404.3701	1429.7091	1437.497	1478.3079	1481.4549	1488.2216	1506.9489	1509.6516	1515.0526	1533.797	2966.0378	2989.1408	3003.4176	3043.2374	3050.3149	3079.641	3089.4823	3117.9326	3122.5487	3138.7291	3165.703	3770.7552
COC(CO)C1(C)CO1	CO[C@@H](CO)[C@@]1(C)CO1	
InChI=1S/C6H12O3/c1-6(4-9-6)5(3-7)8-2/h5,7H,3-4H2,1-2H3	InChI=1S/C6H12O3/c1-6(4-9-6)5(3-7)8-2/h5,7H,3-4H2,1-2H3/t5-,6+/m0/s1
