23
gdb 94234	2.93014	0.9794	0.8946	2.8587	86.16	-0.2433	-0.0192	0.2241	1425.4838	0.203515	-388.299412	-388.289246	-388.288302	-388.334718	37.805	
C	-0.1094075658	 1.5601820767	-0.1872692592	-0.41877
C	 0.0571469176	 0.0596719894	 0.0009304536	 0.016382
C	 1.0540782634	-0.7209658033	-0.897864142	-0.24176
C	 1.4091686956	-1.608952034	 0.3219958844	-0.257742
C	 0.7925161485	-0.5223910965	 1.2637141088	 0.309455
C	 1.8659832485	 0.4122048847	 1.8320838345	-0.446984
C	-0.1384159773	-1.0208717764	 2.3832713252	-0.341399
C	 0.5807260459	-1.8344284245	 3.4351687286	 0.160067
O	 0.5749080513	-1.6020982149	 4.6174570523	-0.245484
H	 0.8507845519	 2.0847080536	-0.1569221698	 0.115753
H	-0.5703374918	 1.7749730619	-1.1578651614	 0.116407
H	-0.7536319733	 1.9953537488	 0.5851221918	 0.116273
H	-0.9279566301	-0.4183337884	-0.0655627911	 0.06737
H	 0.6492406468	-1.2169290755	-1.7830889579	 0.097135
H	 1.8955079512	-0.0957861721	-1.2119055909	 0.101774
H	 0.8298717653	-2.5374094096	 0.33135011	 0.095428
H	 2.462214765	-1.8581428447	 0.4775106438	 0.09801
H	 2.5414364588	 0.7749500575	 1.0515287208	 0.116113
H	 1.41940303	 1.2842703165	 2.3216610632	 0.121426
H	 2.4778577997	-0.1053787911	 2.579085785	 0.123223
H	-0.646255432	-0.1870941217	 2.8800232389	 0.114883
H	-0.9056892509	-1.6723890585	 1.9401078256	 0.108957
H	 1.1455715818	-2.7080175879	 3.0322087859	 0.073483
59.1155	73.7943	124.2061	177.696	222.8079	257.7371	266.4169	275.2906	332.5674	354.3371	417.4453	476.2048	512.8094	612.378	702.9496	782.7603	830.7841	884.3356	894.4387	908.9001	946.2365	958.1207	967.2762	1021.9563	1043.9026	1081.3162	1111.0499	1153.9078	1173.5543	1180.2346	1215.1253	1233.033	1260.8569	1267.4406	1291.9098	1305.6634	1324.3871	1378.9342	1411.8243	1419.2057	1431.9469	1457.9605	1480.7087	1489.9089	1492.596	1501.6119	1503.0168	1506.6084	1830.1083	2853.388	3005.1492	3023.5722	3027.9305	3031.7512	3048.6085	3055.8131	3080.1017	3089.689	3093.8318	3095.2146	3101.9913	3105.2605	3113.0707
CC1CCC1(C)CC=O	C[C@H]1CC[C@]1(C)CC=O	
InChI=1S/C8H14O/c1-7-3-4-8(7,2)5-6-9/h6-7H,3-5H2,1-2H3	InChI=1S/C8H14O/c1-7-3-4-8(7,2)5-6-9/h6-7H,3-5H2,1-2H3/t7-,8+/m0/s1
