17
gdb 123427	4.83829	0.90825	0.87225	3.7389	74.71	-0.2515	-0.0121	0.2393	1348.3087	0.137495	-417.973211	-417.965391	-417.964447	-418.007068	28.594	
C	-0.0665253043	 1.5686906688	 0.151633702	-0.363742
C	-0.1470021409	 0.0580045305	 0.3085574695	 0.039929
C	-1.366766581	-0.6665334911	-0.1199805942	-0.247471
N	-0.1051388044	-0.8185669353	-0.8687338845	-0.306075
C	 1.3252866949	 2.0577839508	-0.0828644613	 0.45071
C	 1.9648702653	 2.602601686	-1.1540610383	-0.342343
C	 3.2881466279	 2.8093786402	-0.6815112842	 0.040339
N	 3.4376195132	 2.4265839798	 0.5614711924	-0.138195
O	 2.1859975259	 1.947082908	 0.9460995411	-0.210401
H	-0.6939740612	 1.8887851313	-0.6872251127	 0.113829
H	-0.4663648624	 2.0462702048	 1.0550154675	 0.13674
H	 0.4189033975	-0.3293833499	 1.1525613336	 0.114977
H	-1.6935744088	-1.5541367081	 0.4138544522	 0.125075
H	-2.1722961894	-0.0854155389	-0.5633398474	 0.110218
H	-0.1361530861	-0.2608890067	-1.7196457411	 0.226197
H	 1.5575891534	 2.8257885569	-2.1258905853	 0.116941
H	 4.1366951403	 3.226518053	-1.2055234094	 0.133272
43.6805	61.9939	114.6283	267.9682	320.561	361.6299	434.1555	647.4221	654.983	752.186	790.5936	811.9823	827.0453	904.9742	917.5658	933.2001	936.1029	947.5615	977.6775	1017.7288	1051.3627	1054.2855	1122.5011	1134.4458	1165.3582	1213.5489	1239.0261	1252.6177	1275.9103	1308.8457	1323.7804	1382.8845	1421.6741	1462.545	1512.9705	1514.7972	1635.3674	3029.8474	3079.048	3105.5933	3140.6938	3191.5669	3243.7423	3279.3662	3487.9747
C(C1CN1)C1=CC=NO1	C([C@H]1CN1)c1ccno1	
InChI=1S/C6H8N2O/c1-2-8-9-6(1)3-5-4-7-5/h1-2,5,7H,3-4H2	InChI=1S/C6H8N2O/c1-2-8-9-6(1)3-5-4-7-5/h1-2,5,7H,3-4H2/t5-/m0/s1
