13
gdb 9472	3.32332	1.74777	1.57246	2.737	56.47	-0.2777	-0.058	0.2197	836.0531	0.094142	-435.731087	-435.723769	-435.722825	-435.762882	26.367	
O	 0.1191709444	 1.4702367756	 0.0225378346	-0.460866
C	 0.0103711636	 0.0978943118	-0.0270200003	 0.197553
C	-1.4125900439	-0.5113349378	-0.1946958922	-0.132572
O	-0.9700525754	-1.2420570992	-1.3761338376	-0.248444
C	 0.2614156802	-0.6208746347	-1.3674651879	 0.379088
N	 1.2193928437	-0.6544169984	-2.1684976969	-0.527515
C	 0.809760954	-0.5515494531	 1.0908736285	 0.125798
O	 1.4612843215	 0.1166647972	 1.8524106694	-0.265071
H	 0.7565326235	 1.6624759186	 0.7309404989	 0.302509
H	-1.7802266623	-1.1908018985	 0.5781014979	 0.126457
H	-2.1576433201	 0.2470848501	-0.4427487352	 0.146023
H	 1.0179607492	-1.2336527291	-2.9854251331	 0.238464
H	 0.7589178218	-1.6551754625	 1.1595880539	 0.118577
96.7822	126.7281	206.4755	278.861	314.5001	354.3351	462.1838	518.9642	571.1772	663.6355	746.3682	841.7903	862.5697	904.2495	920.9344	978.4597	997.8394	1076.1909	1113.7172	1153.8632	1212.4327	1280.3484	1349.8669	1386.423	1448.0408	1505.8443	1810.5309	1833.9685	2957.32	3066.0325	3135.5111	3479.7224	3667.9918
OC1(COC1=N)C=O	O[C@]1(CO[C]1[NH])C=O	
InChI=1S/C4H5NO3/c5-3-4(7,1-6)2-8-3/h1,5,7H,2H2	InChI=1S/C4H5NO3/c5-3-4(7,1-6)2-8-3/h1,5,7H,2H2/t4-/m0/s1
