19
gdb 36414	4.48615	0.96898	0.87276	1.9701	80.97	-0.2392	0.0557	0.2949	1349.2101	0.158829	-385.843436	-385.835043	-385.834099	-385.876884	32.349	
C	-0.0842596085	-1.1994732952	 0.0017335281	-0.440348
C	-0.0423194066	 0.0000239661	 0.0564016386	 0.308758
C	 0.010933517	 1.4557421105	 0.1011581007	-0.373304
C	 1.4296212603	 2.0255661637	-0.000446817	 0.154665
C	 1.4958304626	 3.5693961639	-0.0630440597	-0.27746
C	 2.7839984025	 3.8885183264	 0.6932796301	-0.066248
C	 2.7396512445	 3.8128417082	 2.208480358	-0.301935
C	 3.1592506217	 2.6164795106	 1.400826014	 0.102826
O	 2.1643462811	 1.6521104958	 1.1707884557	-0.268296
H	-0.1194960531	-2.2598149427	-0.0349514987	 0.19353
H	-0.5854807642	 1.8702059612	-0.721977019	 0.129047
H	-0.4370641416	 1.8208245474	 1.0337554998	 0.13301
H	 1.9249566706	 1.5980962712	-0.8856289033	 0.080707
H	 1.5291744908	 3.9252984304	-1.0962673377	 0.107567
H	 0.6171756941	 4.0198040546	 0.4140129758	 0.102808
H	 3.5298352844	 4.5176691146	 0.2231634126	 0.092569
H	 3.5037567178	 4.3521057712	 2.7590939968	 0.111064
H	 1.7703211501	 3.7643761791	 2.6939918938	 0.11525
H	 4.1707553465	 2.2252518128	 1.4458153015	 0.095789
63.6736	82.9868	140.6644	295.3522	299.9271	346.3941	404.1125	436.104	490.4412	614.3794	634.6263	650.016	702.8063	774.4467	809.7679	837.2354	886.5257	925.5154	954.1236	961.7813	1012.1647	1024.5848	1052.6606	1071.8132	1098.8911	1104.5464	1109.209	1146.6135	1200.3236	1212.3336	1257.2615	1278.5737	1313.9755	1325.6748	1368.11	1384.6059	1398.1665	1454.7991	1472.0529	1494.2989	2242.6873	2984.2733	3021.9172	3034.1272	3061.4593	3093.7801	3124.7176	3156.1374	3182.7285	3216.886	3507.6734
C#CCC1CC2CC2O1	C#CC[C@H]1C[C@H]2C[C@H]2O1	
InChI=1S/C8H10O/c1-2-3-7-4-6-5-8(6)9-7/h1,6-8H,3-5H2	InChI=1S/C8H10O/c1-2-3-7-4-6-5-8(6)9-7/h1,6-8H,3-5H2/t6-,7-,8+/m0/s1
