17
gdb 73223	2.23333	1.92098	1.42154	3.4344	67.16	-0.2666	0.0028	0.2693	969.1188	0.136582	-458.990925	-458.983132	-458.982187	-459.023314	29.158	
C	-0.0691757632	 1.5485831364	-0.0255579233	-0.482936
C	 0.0108032937	 0.0345446117	 0.0311401402	 0.08845
C	-1.2371916781	-0.7706717065	 0.4760775953	-0.110243
O	-0.4443540315	-1.5552221381	 1.3936530213	-0.292271
C	 0.7185029582	-0.7336097329	 1.1648811892	 0.066518
C	 1.8561796528	-1.4953762459	 0.4952008444	-0.10684
O	 1.5862896582	-1.469677626	-0.9169316488	-0.226938
C	 0.6194739604	-0.5679399886	-1.2352686236	 0.429008
O	 0.3157019809	-0.3239709766	-2.3672126275	-0.351345
H	 0.9260050933	 1.998702478	-0.1001971154	 0.129213
H	-0.6370673453	 1.8548737328	-0.9088605074	 0.152269
H	-0.5599569178	 1.9491017457	 0.8661283824	 0.123069
H	-1.9825189506	-0.1596224415	 1.0009077601	 0.108419
H	-1.7352123061	-1.3837694983	-0.2819695025	 0.128377
H	 1.0259782983	-0.1924935926	 2.0655638323	 0.088111
H	 2.8286166669	-1.0221512046	 0.6724152561	 0.11822
H	 1.8914282498	-2.537058423	 0.8228288872	 0.13892
89.7785	168.3181	206.5008	221.3438	263.9496	288.5718	382.9048	497.524	598.2422	647.7649	736.1096	761.1215	799.4398	864.239	902.1992	929.1181	996.6275	1005.6486	1013.2116	1072.1807	1085.9767	1122.1438	1152.9438	1181.6914	1192.94	1240.7014	1253.8708	1288.7294	1344.5281	1361.3364	1398.7012	1415.8453	1490.8283	1495.7813	1500.1551	1526.4079	1873.7121	3017.4884	3039.5454	3041.1172	3061.3053	3079.9163	3108.5073	3112.7912	3120.7007
CC12COC1COC2=O	C[C@]12CO[C@H]1COC2=O	
InChI=1S/C6H8O3/c1-6-3-9-4(6)2-8-5(6)7/h4H,2-3H2,1H3	InChI=1S/C6H8O3/c1-6-3-9-4(6)2-8-5(6)7/h4H,2-3H2,1H3/t4-,6-/m0/s1
