17
gdb 41015	3.07984	1.97663	1.45414	3.348	71.02	-0.229	0.0572	0.2862	896.1764	0.137367	-421.70712	-421.700891	-421.699947	-421.737431	26.336	
C	 0.0100442533	 1.484692929	 0.3183000753	-0.160624
O	 1.4189766537	 1.5426765846	-0.1112883804	-0.352971
C	 1.1658265047	 0.3761128581	-0.8798738957	 0.506059
C	-0.0304344653	-0.0212566049	-0.0703848233	-0.066987
C	-0.7903489403	-0.9049966126	-1.0851315688	-0.313121
C	 0.3557673553	-1.0507636496	-2.1177062001	-0.038204
C	 0.8665590666	 0.3656734759	-2.4297318592	-0.015171
O	 2.2184329326	-0.122529917	-2.733868554	-0.313642
C	 1.8464068998	-0.8456857017	-1.5236492711	-0.075504
H	-0.0931974441	 1.7403243394	 1.3748781937	 0.118221
H	-0.6099079048	 2.1456998839	-0.2993644506	 0.110094
H	 0.2719058898	-0.6029365511	 0.8054327981	 0.095104
H	-1.13296819	-1.8489214736	-0.6546988769	 0.109764
H	-1.6537922616	-0.4189075672	-1.552808707	 0.112944
H	 0.2800757936	-1.7524895833	-2.9465783881	 0.092175
H	 0.4391573055	 1.1310852201	-3.0773160049	 0.095839
H	 2.5403540513	-1.58493339	-1.1235108872	 0.096024
183.2794	306.401	339.6341	347.718	471.2015	579.3188	617.5703	657.5101	703.0848	762.0805	796.7472	852.3067	892.5174	898.4062	910.0887	926.3205	950.6495	956.8299	1031.7323	1071.4475	1076.2701	1111.3042	1126.515	1148.736	1159.372	1169.5001	1185.4117	1213.6121	1221.4969	1251.3632	1278.1405	1285.7716	1328.1468	1357.2486	1382.0186	1490.2428	1510.3061	3030.8957	3047.7728	3060.6281	3102.313	3114.5573	3119.9927	3123.8954	3146.7663
C1OC23C1CC1C2OC31	C1O[C@@]23[C@@H]1C[C@H]1[C@@H]2O[C@@H]31	
InChI=1S/C7H8O2/c1-3-2-8-7(3)5-4(1)6(7)9-5/h3-6H,1-2H2	InChI=1S/C7H8O2/c1-3-2-8-7(3)5-4(1)6(7)9-5/h3-6H,1-2H2/t3-,4-,5-,6+,7-/m1/s1
