15
gdb 46848	2.88777	1.89697	1.52992	4.1482	64.63	-0.2444	-0.0249	0.2196	873.6268	0.114812	-457.788187	-457.781674	-457.780729	-457.819081	25.719	
O	 0.0198894664	 0.0233294923	 0.3805611136	-0.325874
C	 0.0167932533	 1.1614335264	 0.0062017822	 0.443652
O	-1.1535265431	 1.773570157	-0.3161900267	-0.245333
C	-1.2019163973	 3.1054765862	-0.8746708486	-0.063216
C	 0.1330222414	 3.8442801221	-0.7459368145	 0.001393
O	 1.1273417599	 2.9198016029	-1.1980044708	-0.24109
C	 1.2601517537	 2.0552161251	-0.0732508899	-0.123219
C	 1.1891944577	 3.0070245171	 1.1189482849	-0.086067
C	 0.5116744376	 4.0750927858	 0.7119693074	-0.084606
H	-1.4631472286	 3.0009965829	-1.9328784262	 0.129749
H	-2.01455861	 3.627359955	-0.3583819618	 0.122016
H	 0.1464367678	 4.7333613345	-1.3820091126	 0.100318
H	 2.1590061691	 1.4469127645	-0.1680264769	 0.117653
H	 1.5586999021	 2.7713865985	 2.1068178837	 0.133401
H	 0.20628797	 4.9349382595	 1.2923425862	 0.121224
126.6054	190.8262	308.4206	394.5805	427.2891	445.9513	594.8712	664.9118	710.91	750.7259	781.3862	845.3373	852.8653	894.6002	919.8263	939.1684	956.5323	1005.2306	1044.5181	1083.4914	1095.3745	1130.832	1197.4044	1244.1071	1250.1194	1286.7289	1305.9623	1333.9627	1353.2389	1417.1632	1497.8577	1663.4316	1856.5866	3042.0617	3083.679	3092.2033	3132.2998	3224.8198	3250.6709
O=C1OCC2OC1C=C2	O=C1OC[C@@H]2O[C@H]1C=C2	
InChI=1S/C6H6O3/c7-6-5-2-1-4(9-5)3-8-6/h1-2,4-5H,3H2	InChI=1S/C6H6O3/c7-6-5-2-1-4(9-5)3-8-6/h1-2,4-5H,3H2/t4-,5+/m1/s1
