23
gdb 118269	5.08587	0.53993	0.50703	1.4044	89.38	-0.2532	0.06	0.3132	2209.8526	0.202435	-388.267265	-388.255889	-388.254945	-388.304575	40.871	
C	-0.121734237	 1.5873487898	 0.0168789897	-0.38274
C	-0.0422009355	 0.0589267171	 0.0020045688	-0.163084
C	 0.7380395047	-0.4904732578	-1.1969686938	-0.191422
C	 0.7673500608	-2.0220352317	-1.2602325414	 0.119504
O	-0.5512383776	-2.5716482688	-1.3068676333	-0.428774
C	 1.6248562523	-2.5386998678	-2.4214584354	-0.197353
C	 1.7008946711	-4.0777311704	-2.4583128301	-0.356593
C	 2.4620351226	-4.582861957	-3.5935073588	 0.293055
C	 3.0936651217	-4.9723363884	-4.5394684154	-0.441355
H	 0.8762689116	 2.0387403899	 0.0523924336	 0.112451
H	-0.6220869656	 1.9677674198	-0.8809531557	 0.111516
H	-0.6807204061	 1.9484019108	 0.8857609838	 0.113061
H	 0.4306656871	-0.2939841826	 0.9280844169	 0.094525
H	-1.0491643153	-0.3716473872	-0.0053873934	 0.108193
H	 0.298877759	-0.1083918492	-2.131895446	 0.082745
H	 1.7699783798	-0.1157150083	-1.1745328584	 0.095856
H	 1.1803612606	-2.4069470215	-0.3175696943	 0.085901
H	-0.9804732563	-2.2271173494	-2.0988799832	 0.27733
H	 1.2097773845	-2.1738850103	-3.3706284079	 0.098451
H	 2.635451741	-2.1222222741	-2.3451990738	 0.108998
H	 2.1508537446	-4.4411094491	-1.5247571711	 0.127117
H	 0.6819120913	-4.4798740402	-2.4772700853	 0.141537
H	 3.6493662107	-5.3310548837	-5.3697673255	 0.191082
50.9672	73.7403	80.3038	105.434	141.2417	175.4581	252.3874	257.8256	305.552	322.6926	348.0541	362.7642	455.7942	517.3122	580.1422	612.92	633.2524	745.8503	771.7304	850.2021	894.2895	908.3913	961.0631	995.4526	1026.5068	1042.2855	1069.1923	1092.5862	1113.5804	1145.7412	1172.5138	1242.1417	1259.8822	1290.0125	1305.9774	1316.1604	1355.9932	1362.6344	1387.6447	1397.3012	1414.6296	1419.2693	1471.1344	1478.5162	1490.312	1494.7268	1501.0002	1511.2597	2238.0244	2989.2585	3013.9588	3019.5409	3023.3446	3028.1156	3031.246	3040.7052	3062.4513	3070.7444	3082.8517	3096.5633	3101.8816	3508.1256	3787.8828
CCCC(O)CCC#C	CCC[C@@H](O)CCC#C	
InChI=1S/C8H14O/c1-3-5-7-8(9)6-4-2/h1,8-9H,4-7H2,2H3	InChI=1S/C8H14O/c1-3-5-7-8(9)6-4-2/h1,8-9H,4-7H2,2H3/t8-/m1/s1
