21
gdb 80555	2.74485	1.39602	1.23438	1.0313	84.56	-0.2288	0.0131	0.2419	1146.6356	0.182628	-387.086248	-387.077524	-387.07658	-387.119422	33.842	
C	 0.0181930264	 1.6034591495	-0.1126884903	-0.401472
C	 0.0429572783	 0.0984179352	 0.0088175867	-0.041885
C	 1.3268686544	-0.6846234221	-0.1296699754	 0.073005
O	 2.506884395	 0.0495513949	-0.2877368926	-0.271347
C	 3.4080025233	 0.027563306	 0.8237573892	 0.097039
C	 4.5111330162	 1.0286753984	 0.5001297673	-0.398542
C	 2.6987426427	 0.3439138717	 2.1218940393	-0.067762
C	 1.4048435945	 0.0707983638	 2.2823635382	-0.095171
C	 0.6487179542	-0.6264473947	 1.2134369824	-0.13078
H	 0.9224228909	 2.0508259283	 0.3027843848	 0.12885
H	-0.0493675263	 1.9033618325	-1.1639528901	 0.117246
H	-0.8459940734	 2.0243042619	 0.4124606376	 0.110135
H	-0.8317855314	-0.3997471602	-0.4028235907	 0.082464
H	 1.3165990245	-1.6163486165	-0.6937553498	 0.082156
H	 3.8570099433	-0.9789708753	 0.8997615103	 0.079176
H	 4.1012171284	 2.0408321255	 0.4338373485	 0.126227
H	 5.2804195957	 1.0132944439	 1.2781983088	 0.112941
H	 4.9764414784	 0.7802049095	-0.4570819624	 0.124241
H	 3.2858971189	 0.806062119	 2.9105804785	 0.090353
H	 0.8887816155	 0.318241787	 3.2063718072	 0.091454
H	 0.1132473803	-1.5147533682	 1.5390817726	 0.091673
83.8121	138.095	151.0812	225.2369	235.5	301.9069	336.6658	425.7202	480.9825	527.3131	553.5179	628.0415	723.5634	763.7826	782.4666	819.0512	862.6476	904.8014	928.4381	958.408	985.9653	1010.2389	1055.1678	1074.0366	1099.8433	1111.6568	1118.8222	1145.9859	1166.9597	1181.1059	1202.2094	1247.6156	1320.2436	1342.4885	1360.2023	1374.7224	1405.1255	1415.8047	1420.835	1431.8578	1484.4758	1490.6879	1497.7453	1498.3102	1706.1131	2937.9829	3036.5625	3043.12	3091.8532	3101.8497	3117.2035	3124.3839	3125.6057	3134.448	3143.947	3151.9687	3176.3257
CC1C2OC(C)C=CC12	C[C@H]1[C@H]2O[C@@H](C)C=C[C@@H]12	
InChI=1S/C8H12O/c1-5-3-4-7-6(2)8(7)9-5/h3-8H,1-2H3	InChI=1S/C8H12O/c1-5-3-4-7-6(2)8(7)9-5/h3-8H,1-2H3/t5-,6+,7-,8+/m0/s1
