19
gdb 111019	2.66141	1.21762	0.97921	2.1501	83.22	-0.2382	0.0151	0.2533	1277.3008	0.157341	-385.787905	-385.779105	-385.778161	-385.821549	33.72	
C	-0.0134075012	 1.6420098556	 0.0301139918	-0.374514
C	-0.1974350532	 0.1202117425	-0.0386833693	-0.240113
C	 0.5869178675	-0.501312928	-1.1831054769	 0.014591
C	 2.1138099047	-0.799572605	-1.1420749712	 0.007291
C	 1.8866925298	-1.991435139	-0.1863569594	-0.270081
C	 0.8254010186	-2.0444924633	-1.3244191914	 0.322011
O	 1.9224161092	-1.7243212305	-2.2847653665	-0.338794
C	-0.1169953666	-3.0746777014	-1.6395168034	 0.075968
C	-0.9318184216	-3.92713195	-1.8741169609	-0.358242
H	 1.0326619944	 1.9085566536	 0.215396207	 0.117813
H	-0.3149534872	 2.1201271949	-0.9079604041	 0.120721
H	-0.6151856674	 2.0753202834	 0.8344622088	 0.116515
H	 0.0792889531	-0.3245164478	 0.9227394267	 0.100533
H	-1.2594985494	-0.1130351786	-0.1869229736	 0.111227
H	 0.2997740388	-0.0728672147	-2.1479546439	 0.088981
H	 2.9574284238	-0.1131358436	-1.1987822724	 0.098057
H	 2.6415199004	-2.7754191041	-0.2462581787	 0.116638
H	 1.5474332352	-1.8058948835	 0.8336180458	 0.103108
H	-1.6464204287	-4.6832945506	-2.0884488985	 0.18829
68.3404	107.6888	168.7207	204.3972	215.6209	325.7154	344.2928	482.2393	500.9366	560.7681	579.1175	618.8994	628.0647	685.0153	723.2296	761.012	837.9499	880.5729	910.4313	940.5579	964.6331	983.4746	1021.0549	1083.0703	1088.6083	1099.6151	1160.8908	1173.7453	1212.1453	1226.0622	1245.053	1281.8409	1296.4817	1342.823	1406.8094	1416.9934	1482.1214	1495.9751	1501.0825	1509.2116	2237.6136	3030.6111	3034.4066	3062.8597	3077.1338	3084.2852	3103.5228	3108.2328	3132.2457	3159.0304	3499.6973
CCC1C2CC1(O2)C#C	CC[C@H]1[C@H]2C[C@@]1(O2)C#C	
InChI=1S/C8H10O/c1-3-6-7-5-8(6,4-2)9-7/h2,6-7H,3,5H2,1H3	InChI=1S/C8H10O/c1-3-6-7-5-8(6,4-2)9-7/h2,6-7H,3,5H2,1H3/t6-,7+,8-/m0/s1
