17
gdb 55545	4.62491	0.87291	0.77724	1.8643	74.44	-0.233	-0.0202	0.2128	1440.5114	0.137573	-451.345132	-451.336277	-451.335333	-451.379347	32.679	
N	 1.2172715382	-0.4764771211	-0.3729719133	-0.522023
C	 0.0861323714	 0.0929415141	 0.1266671353	 0.443049
N	 0.0746501717	 1.2695228771	 0.624546272	-0.556241
N	-1.0833299874	-0.710931325	 0.0028259872	-0.404755
C	-1.1976519887	-2.0281057518	-0.3591712838	 0.474152
O	-0.2539215982	-2.7550523566	-0.642498948	-0.404087
C	-2.6031516463	-2.5481753465	-0.3825033453	-0.134443
C	-2.9722484989	-3.3995636926	-1.5559286757	-0.21826
N	-2.7710383124	-3.9993946151	-0.2428581107	-0.299925
H	 2.0708203767	-0.0035217221	-0.1282402198	 0.262844
H	 1.2184507957	-1.4761742692	-0.5182768045	 0.28323
H	-0.8561490863	 1.5571767833	 0.9153241837	 0.202687
H	-1.935519072	-0.2357282124	 0.256052442	 0.255747
H	-3.3676786274	-1.9443404619	 0.0998084294	 0.097018
H	-3.9983314924	-3.3824099663	-1.9110430017	 0.129723
H	-2.2084164322	-3.5404995904	-2.3148397852	 0.138946
H	-1.8342979913	-4.4034151934	-0.2111035615	 0.252338
60.4325	77.331	131.4381	172.3716	290.3612	336.521	339.3286	427.8681	458.4552	487.087	562.8205	597.299	717.0531	726.5139	763.2724	764.114	838.3389	872.3778	939.7405	952.42	991.3317	1025.8195	1120.6006	1129.8472	1136.0796	1164.2245	1182.5276	1221.3024	1289.136	1319.6274	1402.4203	1411.6621	1496.8585	1509.2184	1603.8536	1751.938	1763.812	3117.4845	3139.2734	3212.2815	3468.7148	3519.1168	3551.4855	3634.403	3709.4088
NC(=N)NC(=O)C1CN1	NC(=N)NC(=O)[C@H]1CN1	
InChI=1S/C4H8N4O/c5-4(6)8-3(9)2-1-7-2/h2,7H,1H2,(H4,5,6,8,9)	InChI=1S/C4H8N4O/c5-4(6)8-3(9)2-1-7-2/h2,7H,1H2,(H4,5,6,8,9)/t2-/m1/s1
