18
gdb 87296	2.12202	1.3086	0.95711	4.3694	82.63	-0.272	0.0288	0.3008	1283.0985	0.145405	-364.78434	-364.774664	-364.77372	-364.819177	35.222	
C	 0.0582530245	 1.5068751023	-0.1229796148	-0.419604
C	 0.134058454	 0.0001201836	-0.0149087053	-0.042266
C	 1.4405138398	-0.7375045156	-0.000141538	-0.306593
C	 0.5873177662	-0.7185221615	 1.2605271898	 0.152174
C	 1.0718207267	 0.0609101315	 2.4887950141	-0.447399
C	 2.0962976052	-0.6518961688	 3.2443404255	 0.317876
C	 2.9418758509	-1.2485512562	 3.8538964641	-0.431533
C	-0.1265849051	-1.930824184	 1.5788955747	 0.259152
N	-0.7172453837	-2.8934744572	 1.830280698	-0.346467
H	 0.926662659	 2.0028961335	 0.318451808	 0.124255
H	 0.0230776658	 1.7988319333	-1.1777376994	 0.132464
H	-0.8419084807	 1.8997915882	 0.3608378049	 0.132237
H	-0.6762167287	-0.5144215306	-0.523317158	 0.117464
H	 1.5294598456	-1.6721104481	-0.5404160095	 0.14035
H	 2.3541959414	-0.153512752	 0.0471892105	 0.129541
H	 1.467393674	 1.0285650257	 2.1651343671	 0.135844
H	 0.2162374388	 0.2796167534	 3.1392010003	 0.148997
H	 3.6828577363	-1.7784208076	 4.3996687679	 0.203507
48.7362	108.2278	138.2764	170.1531	179.4061	240.3859	301.4546	332.5174	381.8768	415.6207	490.5001	569.253	580.455	629.4416	652.4713	705.1493	799.454	887.3251	904.0124	929.7303	951.7447	971.2224	1032.5383	1077.9285	1089.6481	1129.8558	1185.8426	1208.7152	1287.3345	1306.522	1340.6638	1408.3257	1427.2934	1464.3026	1489.4802	1492.2439	1502.9682	2244.4171	2349.1872	3035.7419	3039.4471	3081.3399	3100.0672	3112.7801	3138.6856	3155.7533	3230.984	3505.9446
CC1CC1(CC#C)C#N	C[C@H]1C[C@]1(CC#C)C#N	
InChI=1S/C8H9N/c1-3-4-8(6-9)5-7(8)2/h1,7H,4-5H2,2H3	InChI=1S/C8H9N/c1-3-4-8(6-9)5-7(8)2/h1,7H,4-5H2,2H3/t7-,8+/m0/s1
