14
gdb 67084	2.76678	1.59149	1.3589	4.0598	66.72	-0.258	-0.0107	0.2473	953.6807	0.100558	-436.615693	-436.608543	-436.607599	-436.647209	27.831	
O	-0.2008636029	 1.4478081351	 0.0480452201	-0.428039
C	-0.0274270535	 0.1048546336	 0.0151168554	 0.283585
C	-1.0455154654	-1.0052673002	-0.0350471171	-0.16885
C	-0.4513245932	-1.6126868591	-1.3003347535	-0.260886
C	 0.8743350867	-0.9245052442	-0.8671044314	 0.227533
O	 1.2540691066	-1.6205944137	 0.3459225483	-0.30692
C	 0.1377248288	-1.0134136343	 0.9879430342	-0.005455
C	 1.9528060276	-0.6319842351	-1.7700567421	 0.186029
N	 2.7958751672	-0.3465808058	-2.5081519688	-0.334131
H	 0.5780848927	 1.8591491377	 0.4435823047	 0.307794
H	-2.0767151307	-0.9748106313	 0.2894494397	 0.114358
H	-0.392983149	-2.6996267131	-1.3977687278	 0.122083
H	-0.8654541392	-1.1563065645	-2.2011988098	 0.133348
H	 0.0298514541	-1.102605475	 2.0596585882	 0.129552
116.372	162.2313	263.027	318.4992	408.6135	438.7782	521.9141	540.3331	544.6142	571.5051	664.7322	743.3261	768.3108	860.9031	891.8995	936.35	968.27	979.9932	1022.2387	1037.2533	1056.2722	1092.2792	1131.3571	1213.7183	1249.3281	1264.7882	1288.6748	1322.205	1474.9836	1504.0745	2354.9293	3069.3955	3138.0423	3217.6178	3229.5544	3773.4934
OC12C3CC1(OC23)C#N	O[C@@]12[C@H]3C[C@@]1(O[C@@H]23)C#N	
InChI=1S/C6H5NO2/c7-2-5-1-3-4(9-5)6(3,5)8/h3-4,8H,1H2	InChI=1S/C6H5NO2/c7-2-5-1-3-4(9-5)6(3,5)8/h3-4,8H,1H2/t3-,4+,5+,6+/m0/s1
