18
gdb 124762	3.98904	1.01061	0.83072	1.7731	75.28	-0.1993	0.0278	0.2271	1365.1395	0.148963	-435.288619	-435.279568	-435.278624	-435.32245	34.072	
C	 0.2447083908	 1.3600265206	-0.4684077673	-0.401555
C	 0.0292790118	-0.0113835136	 0.1695281461	 0.010726
O	 0.3708260579	-0.0176423848	 1.5579492364	-0.429356
C	-1.3704310421	-0.5322028083	-0.0227339439	 0.384524
C	-2.3273383753	-0.3539842386	-1.0051741306	-0.41287
C	-3.4192497641	-1.1591668716	-0.5916280232	 0.378044
N	-4.6679727807	-1.2712311942	-1.2065279946	-0.590208
N	-3.16562499	-1.7878912978	 0.5531752044	-0.310197
N	-1.911852916	-1.3838004641	 0.8771224878	-0.253279
H	 1.2686546951	 1.6955456247	-0.2855475581	 0.126575
H	 0.0792584696	 1.3199468454	-1.5490843574	 0.128091
H	-0.4502153709	 2.0964574842	-0.0500135552	 0.119322
H	 0.7407340296	-0.7201564393	-0.2741146625	 0.112624
H	-0.1741920825	 0.6507055481	 1.9903438473	 0.281813
H	-2.2610255665	 0.2692364211	-1.8819492407	 0.093878
H	-4.6102334357	-1.336441018	-2.213963409	 0.242972
H	-5.1899524406	-2.0545610329	-0.8339688908	 0.248255
H	-1.4758491703	-1.7005422808	 1.7257283411	 0.270642
53.2972	137.4707	166.435	248.0054	256.9469	303.6741	337.1336	354.8045	374.01	461.4414	497.1487	532.5734	624.687	681.8856	712.3194	749.3819	772.3848	797.8032	895.5673	999.8916	1013.284	1044.3333	1082.9335	1103.7233	1114.583	1189.5305	1206.5065	1285.4027	1291.0194	1354.8798	1403.1316	1415.0315	1439.8202	1490.6347	1492.9926	1508.0224	1529.3182	1606.5057	1647.668	3023.4984	3038.0322	3109.8699	3126.5434	3263.9815	3540.7124	3635.6216	3685.3315	3787.5553
CC(O)C1=CC(N)=NN1	C[C@@H](O)c1cc(N)n[nH]1	
InChI=1S/C5H9N3O/c1-3(9)4-2-5(6)8-7-4/h2-3,9H,1H3,(H3,6,7,8)	InChI=1S/C5H9N3O/c1-3(9)4-2-5(6)8-7-4/h2-3,9H,1H3,(H3,6,7,8)/t3-/m1/s1
