16
gdb 71922	2.53436	2.13709	1.50068	3.6415	68.58	-0.2334	-0.0225	0.211	899.7331	0.124348	-437.841286	-437.83413	-437.833185	-437.872667	27.839	
C	-0.0813000186	 1.5472144041	 0.0537468335	-0.509601
C	 0.1165094744	 0.0644755823	 0.0875913864	 0.292769
O	-1.1444243548	-0.6981718205	 0.1132789244	-0.330147
C	-0.6031252303	-1.7010430089	 1.0060160061	 0.087767
C	 0.2377716125	-2.745009701	 0.2356176778	-0.203131
N	 1.355889251	-1.7257047439	 0.1006767273	-0.198198
C	 0.6905712516	-0.880312352	 1.1751323877	-0.095509
C	 0.9863875562	-0.7427854048	-0.9068790378	 0.386985
O	 1.2259663399	-0.709691471	-2.0736191143	-0.310305
H	 0.8830944253	 2.0628593699	 0.088011293	 0.135187
H	-0.5858394404	 1.8286992111	-0.8757999185	 0.152903
H	-0.694482489	 1.8778244057	 0.8965918852	 0.132558
H	-1.3262067624	-2.0058664831	 1.7640751914	 0.094965
H	 0.5667561752	-3.5792672899	 0.8624701073	 0.124084
H	-0.1555136374	-3.1165719576	-0.7135655964	 0.139607
H	 1.2445412068	-0.6214203705	 2.0729554368	 0.100065
148.1183	180.98	219.6024	261.4872	290.9744	430.1537	481.0388	633.4163	667.3284	711.635	778.9236	816.2276	828.218	848.5937	876.1897	929.4945	940.898	980.1089	995.6902	1032.2619	1047.9985	1116.8442	1142.4923	1169.8843	1180.9932	1201.5864	1241.8377	1297.2407	1304.1461	1341.7977	1412.4094	1475.7358	1483.2744	1486.3302	1903.8985	3042.7584	3054.6828	3103.4138	3117.7483	3122.336	3123.5499	3160.1929
CC12OC3CN(C13)C2=O	C[C@]12O[C@H]3CN([C@@H]13)C2=O	
InChI=1S/C6H7NO2/c1-6-4-3(9-6)2-7(4)5(6)8/h3-4H,2H2,1H3	InChI=1S/C6H7NO2/c1-6-4-3(9-6)2-7(4)5(6)8/h3-4H,2H2,1H3/t3-,4+,6-/m0/s1
