18
gdb 86019	2.97267	1.1328	1.09074	3.4151	78.23	-0.27	-0.0133	0.2567	1212.1651	0.147033	-401.973281	-401.964369	-401.963424	-402.006948	33.45	
C	 0.0790785461	 1.6532314526	-0.0070961338	-0.401211
C	 0.0370738333	 0.1215712991	 0.0395404253	-0.026423
C	 0.7263066529	-0.5619422637	-1.1678614601	-0.27074
C	 1.4596192464	-1.8110218751	-0.6102379282	 0.23829
O	 2.7288240323	-1.9023997271	-1.2476417088	-0.453897
C	 1.5255692662	-1.5232884057	 0.8810844568	-0.142929
C	 0.7665229447	-0.4844851797	 1.2164032966	-0.051243
C	 0.7024033733	-3.0617173547	-0.8534500635	 0.224118
N	 0.1349411196	-4.0545647412	-1.0251758147	-0.340406
H	 1.1123176928	 2.0155895597	-0.0323909433	 0.12318
H	-0.4341433532	 2.0314930471	-0.8969211079	 0.122568
H	-0.4109038657	 2.0882878678	 0.8700424928	 0.118535
H	-1.0172610686	-0.1871567435	 0.0852724946	 0.099103
H	 0.0424322961	-0.8053540676	-1.9822600991	 0.123507
H	 1.512981341	 0.0851541873	-1.5667597468	 0.12982
H	 3.1588580839	-2.7175393179	-0.9646172671	 0.29111
H	 2.1097677919	-2.144826782	 1.5497954118	 0.108688
H	 0.6475051371	-0.1036680356	 2.2257232254	 0.107932
55.0306	138.8698	175.4437	230.2661	254.079	280.7718	308.3718	382.9179	400.2917	479.2147	529.2954	585.4451	652.2739	673.8159	786.1577	800.8602	851.7686	893.4984	936.5948	976.4896	1000.4865	1037.6282	1066.0225	1117.8817	1122.6272	1150.2452	1162.0127	1249.203	1295.1641	1313.7279	1337.0239	1356.9123	1386.3473	1411.4545	1482.368	1497.817	1499.1071	1685.5459	2343.5013	3000.2457	3031.8469	3068.7735	3103.3249	3104.7578	3128.7834	3181.6574	3210.0406	3803.8996
CC1CC(O)(C=C1)C#N	C[C@H]1C[C@@](O)(C=C1)C#N	
InChI=1S/C7H9NO/c1-6-2-3-7(9,4-6)5-8/h2-3,6,9H,4H2,1H3	InChI=1S/C7H9NO/c1-6-2-3-7(9,4-6)5-8/h2-3,6,9H,4H2,1H3/t6-,7+/m1/s1
