19
gdb 117512	2.24727	1.0411	0.74815	0.5061	77.08	-0.2661	0.0109	0.277	1523.8509	0.158108	-419.267847	-419.257483	-419.256539	-419.304267	36.445	
C	-0.120404463	 1.5986168414	-0.1069635121	-0.383331
C	 0.0070747792	 0.0762388611	-0.0052455312	-0.189011
C	 0.6692497879	-0.5349198315	-1.2425006096	-0.168139
C	 0.8259551281	-2.0727360389	-1.1649771382	-0.287325
C	-0.4650713714	-2.7569599431	-1.1269952888	 0.295261
N	-1.4775035269	-3.3167772484	-1.1379184353	-0.342564
C	 1.7547057285	-2.5764432617	-2.3047478003	 0.432362
N	 1.3041031706	-3.6253887062	-3.0327275671	-0.540121
O	 2.8263128215	-2.0363422758	-2.4837081158	-0.358763
H	 0.8604667748	 2.071629876	-0.2247008257	 0.120602
H	-0.7334387471	 1.8875203142	-0.9675457119	 0.120092
H	-0.5879138229	 2.015891128	 0.7896556135	 0.118722
H	 0.5946644918	-0.1859724944	 0.8845959659	 0.100698
H	-0.9856134571	-0.3674401892	 0.1400311058	 0.118692
H	 0.094820168	-0.2821983492	-2.1416855285	 0.1134
H	 1.6773000024	-0.1354687066	-1.3830117653	 0.139367
H	 1.3574842133	-2.3165788654	-0.2357138829	 0.155204
H	 0.3991365561	-4.0388654419	-2.8828300694	 0.285186
H	 1.889313536	-3.9710703385	-3.7756110332	 0.269669
35.978	84.4419	91.7524	138.7435	160.451	233.6522	250.8085	302.6226	306.9548	348.1877	419.6711	512.3652	527.6778	598.8342	614.4141	723.2733	751.0931	834.5202	879.1219	914.331	959.4265	1036.3134	1070.1774	1108.4321	1117.0427	1141.6198	1235.2465	1258.5063	1322.704	1323.0964	1343.811	1352.1779	1393.4182	1414.9477	1486.8028	1495.2527	1500.5486	1511.05	1620.2416	1806.7212	2344.7645	3018.5491	3032.2246	3034.2005	3046.8059	3054.7834	3099.2529	3108.8489	3110.4266	3596.215	3728.7761
CCCC(C#N)C(N)=O	CCC[C@@H](C#N)C(=O)N	
InChI=1S/C6H10N2O/c1-2-3-5(4-7)6(8)9/h5H,2-3H2,1H3,(H2,8,9)	InChI=1S/C6H10N2O/c1-2-3-5(4-7)6(8)9/h5H,2-3H2,1H3,(H2,8,9)/t5-/m0/s1
