23
gdb 60114	3.71992	0.83638	0.78382	1.9023	88.69	-0.2231	0.02	0.2432	1585.8676	0.204932	-388.302679	-388.292684	-388.29174	-388.338412	36.503	
C	-0.2495457787	 1.4814587916	-0.1192425058	-0.386008
C	 0.0213795978	-0.0263220745	-0.0539466449	 0.057366
C	 0.8347887865	-0.4920755063	-1.267946001	-0.388601
C	 0.731908404	-0.4461152589	 1.257166403	-0.318602
C	-0.0223664115	-0.1191795011	 2.5158534778	 0.306712
C	-1.0347229487	-0.7771513602	 3.0777598256	-0.20735
C	-1.4763310375	-0.086889869	 4.3356753468	-0.101048
O	-0.6378124059	 1.0615943063	 4.444567296	-0.264693
C	 0.3065262316	 1.0735377931	 3.3820803305	-0.152645
H	 0.685807103	 2.0521954493	-0.0655979125	 0.109691
H	-0.7444205228	 1.747722619	-1.0590068137	 0.111174
H	-0.8944329757	 1.8111801693	 0.7001726779	 0.123027
H	-0.9478990076	-0.5430235316	-0.0725180393	 0.077171
H	 1.8165055224	-0.0037496588	-1.2937203233	 0.112491
H	 1.0027827231	-1.5741439089	-1.2476890609	 0.109571
H	 0.3205908816	-0.2490827014	-2.2035412104	 0.111234
H	 0.9127923488	-1.5266685496	 1.2146603742	 0.106855
H	 1.7217066679	 0.0299818719	 1.2871738331	 0.096775
H	-1.489822587	-1.6916288422	 2.7162993721	 0.09383
H	-2.5314898804	 0.2286635509	 4.3039954163	 0.101922
H	-1.3603482295	-0.7252774459	 5.2274360273	 0.099905
H	 1.3335791187	 1.0076730112	 3.781526512	 0.09739
H	 0.23960722	 2.0281187957	 2.8370359392	 0.103833
46.0739	70.3446	97.9136	137.152	231.1936	251.7032	265.397	304.1064	321.3866	385.1866	412.309	499.4266	679.871	775.463	795.8379	847.6161	872.341	914.5431	926.3528	930.3971	957.8182	968.4499	979.8196	1027.0413	1062.5155	1095.1738	1119.1435	1138.6003	1172.7203	1189.7962	1201.6674	1223.6886	1243.3276	1309.4155	1320.3884	1360.9516	1367.9329	1378.6838	1395.5787	1400.9783	1420.7659	1480.8659	1488.2342	1496.042	1504.3793	1508.5161	1518.6261	1530.6852	1722.1427	2950.6666	2963.2403	2979.3982	2986.3436	3006.5016	3015.8559	3022.8053	3028.8922	3057.3946	3087.3644	3093.5004	3099.1926	3109.5379	3205.3495
CC(C)CC1=CCOC1	CC(C)CC1=CCOC1	
InChI=1S/C8H14O/c1-7(2)5-8-3-4-9-6-8/h3,7H,4-6H2,1-2H3	InChI=1S/C8H14O/c1-7(2)5-8-3-4-9-6-8/h3,7H,4-6H2,1-2H3
