15
gdb 13851	4.26168	1.62674	1.33711	5.3327	62.26	-0.2365	-0.0026	0.2339	904.207	0.120892	-399.836649	-399.829745	-399.828801	-399.868313	25.569	
O	-0.1855748208	-0.027450775	-0.3983086465	-0.363269
C	-0.0349092218	 1.2542246543	-0.0549072496	 0.422445
O	 1.0130982687	 1.7507758147	 0.2599300701	-0.348687
C	-1.3598059678	 2.0515736605	-0.0772962299	-0.171202
N	-2.4706494704	 1.2342739996	-0.6119349296	-0.33883
H	-2.7279640833	 1.5167140958	-1.5481214792	 0.238707
H	-1.1469511344	-0.1097624177	-0.6022111033	 0.301666
C	-3.6238916501	 1.2952013746	 0.3183357304	-0.209132
C	-3.0523911167	 1.9655046753	 1.5379676298	-0.067974
C	-1.8133357485	 2.3921782524	 1.3207643891	-0.054468
H	-1.1630889282	 2.9580708508	-0.6667042661	 0.1119
H	-4.4638341034	 1.8685434178	-0.1025747786	 0.112711
H	-4.0065869287	 0.2887619111	 0.5341557114	 0.122119
H	-3.6123699517	 2.0698071142	 2.458635043	 0.112984
H	-1.1596329931	 2.9000457917	 2.0165901089	 0.13103
70.6206	126.7446	203.8814	305.3924	410.3503	461.258	602.9485	667.7277	702.6786	752.7983	806.0341	847.225	894.5198	918.4265	938.5485	965.2862	973.4839	1024.3242	1047.8641	1113.1009	1126.4078	1205.5315	1220.7207	1256.3556	1293.1173	1335.908	1368.1501	1432.5795	1445.0955	1518.0569	1691.5114	1870.7079	2988.2113	3007.9755	3023.7187	3213.9561	3242.888	3415.7508	3575.7415
[O-]C(=O)C1[NH2+]CC=C1	OC(=O)[C@H]1NCC=C1	
InChI=1S/C5H7NO2/c7-5(8)4-2-1-3-6-4/h1-2,4,6H,3H2,(H,7,8)	InChI=1S/C5H7NO2/c7-5(8)4-2-1-3-6-4/h1-2,4,6H,3H2,(H,7,8)/t4-/m0/s1
