23
gdb 80672	3.00823	1.10697	1.00748	0.1806	89.93	-0.2458	0.0863	0.3322	1329.6056	0.206696	-351.111258	-351.102461	-351.101517	-351.14482	34.669	
C	-0.2133537077	 1.4405083534	-0.2538392516	-0.419488
C	 0.0544085577	-0.023728561	 0.0328319438	 0.017373
C	 1.3499153555	-0.7473541576	-0.2056749673	-0.072962
C	 2.561268396	 0.1046547956	 0.2021751582	-0.276325
C	 2.0241853456	 0.1361256078	 1.6774109479	 0.028996
C	 1.904398077	 1.4306187347	 2.4411644542	 0.01407
C	 1.8260073032	 1.4043513656	 3.9490249595	-0.269875
C	 3.0681353053	 1.9225045487	 3.268543419	-0.271448
C	 0.7706834929	-0.6283697864	 1.2157478812	-0.102291
H	 0.6757844622	 2.0650634269	-0.1458513626	 0.122037
H	-0.5703695022	 1.563849231	-1.2827058785	 0.110641
H	-0.9843937219	 1.8408265447	 0.4139141659	 0.115186
H	-0.7944121402	-0.6511061839	-0.23845822	 0.081872
H	 1.4063986842	-1.6243779328	-0.8398574541	 0.078606
H	 3.5133670844	-0.4228594514	 0.1150147161	 0.098717
H	 2.6625069058	 1.0713377725	-0.3018195402	 0.094202
H	 2.6396635316	-0.5483662409	 2.2731556616	 0.066019
H	 1.3143390682	 2.2037856867	 1.9605672106	 0.079402
H	 1.1745417642	 2.1151507873	 4.4454020362	 0.1081
H	 1.8832846672	 0.4391162864	 4.4423424159	 0.107372
H	 3.9597454452	 1.3042716292	 3.3033962444	 0.107206
H	 3.2679678232	 2.9879114908	 3.3007146229	 0.107528
H	 0.2843701626	-1.3941601772	 1.8108023467	 0.075061
69.0617	114.7117	156.455	213.4185	254.756	283.2391	329.6058	415.4422	452.3028	577.8861	696.9725	713.2352	774.0456	787.3384	815.3004	831.252	877.5506	912.6151	915.6982	969.7188	974.6417	993.2932	1015.5262	1033.0029	1054.8976	1057.2279	1068.8986	1071.307	1077.6376	1124.9908	1134.5101	1151.3649	1197.5837	1213.7428	1218.5522	1233.1469	1244.5005	1265.5441	1300.5171	1316.0257	1354.0216	1409.8975	1432.1067	1448.5241	1471.6624	1490.2252	1498.8802	1504.8756	1506.9947	3025.5445	3030.419	3048.0925	3084.7303	3103.8362	3105.6076	3124.0846	3126.3999	3131.3549	3158.6973	3165.45	3176.8627	3203.6092	3219.4463
CC1C2CC(C3CC3)C12	C[C@H]1[C@H]2C[C@@H](C3CC3)[C@@H]12	
InChI=1S/C9H14/c1-5-7-4-8(9(5)7)6-2-3-6/h5-9H,2-4H2,1H3	InChI=1S/C9H14/c1-5-7-4-8(9(5)7)6-2-3-6/h5-9H,2-4H2,1H3/t5-,7+,8-,9-/m0/s1
