23
gdb 63465	2.64911	1.34275	1.04175	1.6938	85.93	-0.2555	0.0875	0.343	1267.2723	0.202607	-388.275487	-388.265075	-388.264131	-388.310446	39.1	
C	 0.0107864881	 1.4431558424	-0.1575512733	-0.455824
C	 0.0301029209	-0.0491859032	 0.1211441177	 0.34607
C	-1.0245753644	-0.8004080152	-0.6688956374	-0.462752
O	 1.3466179111	-0.641018389	 0.1410143572	-0.329025
C	 0.6066893823	-0.6059205731	 1.3738500962	 0.307781
C	 1.1666628207	 0.2911340933	 2.4627040872	-0.458008
C	 0.1823736741	-1.9541813069	 1.9097862372	-0.066592
C	 0.4167985717	-3.2299606572	 1.1452978788	-0.258721
C	 1.2461279516	-2.9286978975	 2.3648337352	-0.27842
H	 0.879926349	 1.9519182991	 0.2583949922	 0.128521
H	 0.0119554801	 1.6152412698	-1.2396855645	 0.12158
H	-0.8964932214	 1.9042537531	 0.2482938839	 0.117936
H	-0.8174175877	-0.7101441354	-1.7411645259	 0.120539
H	-1.065104131	-1.8570111692	-0.4121713012	 0.137614
H	-2.0121064595	-0.3614158282	-0.4874078181	 0.115127
H	 1.4795780547	 1.2657529223	 2.0894029912	 0.120811
H	 0.4158388422	 0.445803705	 3.2459043169	 0.116794
H	 2.0325058022	-0.188763327	 2.9294024428	 0.126818
H	-0.7118895412	-1.9124921084	 2.527252583	 0.084541
H	-0.3348958601	-4.0097211704	 1.205990276	 0.106022
H	 0.9071409705	-3.1378515894	 0.1836571508	 0.131218
H	 2.281345016	-2.6492872311	 2.1991785823	 0.119735
H	 1.0739554802	-3.4973153738	 3.2718762418	 0.108234
77.0604	117.9802	142.9905	150.1094	166.952	184.9285	254.3738	301.6406	330.3933	386.8775	389.4976	476.3921	511.9892	562.8082	657.1057	702.845	797.5155	820.1542	840.5492	885.5639	928.5845	942.6057	954.0399	994.7841	1012.7083	1050.1562	1064.6356	1090.0879	1112.9989	1132.8345	1151.9676	1165.3596	1199.2068	1206.1395	1231.4043	1248.0318	1393.5919	1403.2051	1407.4875	1419.6867	1433.9991	1460.5978	1472.8832	1481.3459	1484.471	1492.6642	1500.9801	1507.6715	1520.4187	3033.7513	3038.8443	3042.354	3088.5501	3094.3906	3099.4267	3130.3529	3132.0004	3138.9003	3141.7598	3157.137	3168.7323	3213.6449	3232.2486
CC1(C)OC1(C)C1CC1	CC1(C)O[C@]1(C)C1CC1	
InChI=1S/C8H14O/c1-7(2)8(3,9-7)6-4-5-6/h6H,4-5H2,1-3H3	InChI=1S/C8H14O/c1-7(2)8(3,9-7)6-4-5-6/h6H,4-5H2,1-3H3/t8-/m1/s1
