20
gdb 124483	2.48724	1.27344	1.03865	4.7113	81.28	-0.2366	0.0066	0.2432	1262.2195	0.170741	-399.349707	-399.339951	-399.339007	-399.386123	34.689	
C	 0.0303722664	 1.5738782516	 0.0594715	-0.383621
C	 0.0290060848	 0.0331473083	 0.0775149121	-0.095583
C	 0.7843787775	-0.5108817186	 1.3054583849	-0.383302
C	-1.3603263786	-0.5265127264	-0.017401754	 0.289475
C	-1.9855424674	-1.3231201921	-0.9571814548	 0.201739
C	-1.4565587411	-1.9048274906	-2.2290204772	-0.504131
N	-3.2725950282	-1.5425929496	-0.5520990761	-0.247174
N	-3.4859451839	-0.9342456902	 0.5779056472	-0.129181
N	-2.3347255241	-0.3184422007	 0.9071321181	-0.238886
H	 1.0557778213	 1.9563662633	 0.0585442124	 0.120084
H	-0.4825542159	 1.9611653857	-0.8251259648	 0.128996
H	-0.4728045252	 1.9823446703	 0.9434347618	 0.109667
H	 0.5565015277	-0.3120906518	-0.8191597769	 0.096036
H	 0.3108479832	-0.1863627481	 2.2391795863	 0.109835
H	 0.8071414226	-1.6040785993	 1.3053896751	 0.128947
H	 1.8156437614	-0.1445645639	 1.3145544092	 0.11997
H	-0.626002142	-2.5971451684	-2.0520577953	 0.127278
H	-2.2564734167	-2.4576533954	-2.7259899636	 0.14941
H	-1.0987129199	-1.132207939	-2.9182716414	 0.126573
H	-2.2939901321	 0.215139485	 1.7606514171	 0.273866
17.0124	42.5741	140.6423	162.9614	224.8327	247.589	263.7574	278.2496	370.7161	417.1077	499.4406	576.126	615.8317	714.409	729.1485	742.8519	886.5358	929.6746	962.7986	981.8364	1033.0538	1067.3826	1070.3492	1092.7416	1121.6164	1150.2839	1208.1328	1247.9178	1313.6782	1338.1144	1368.0327	1370.7875	1400.2819	1414.1165	1424.4796	1484.0917	1484.2562	1488.4997	1490.3154	1499.0578	1504.9908	1510.852	1617.9483	3030.3199	3032.2378	3033.7256	3042.4216	3083.6105	3095.2804	3102.5605	3115.9925	3117.9394	3132.2681	3655.3094
CC(C)C1=C(C)N=NN1	CC(C)c1c(C)nn[nH]1	
InChI=1S/C6H11N3/c1-4(2)6-5(3)7-9-8-6/h4H,1-3H3,(H,7,8,9)	InChI=1S/C6H11N3/c1-4(2)6-5(3)7-9-8-6/h4H,1-3H3,(H,7,8,9)
