21
gdb 107648	3.07571	1.32735	1.08835	0.8523	84.53	-0.231	0.0166	0.2476	1198.608	0.183166	-387.078442	-387.069806	-387.068861	-387.111601	33.434	
C	 0.2758610946	 1.3064397889	-0.29797453	-0.249832
O	-0.1841815171	 0.0513762111	 0.1616813032	-0.286338
C	 0.5644421834	-0.4891259183	 1.2222290041	 0.430375
C	 1.9001527899	-1.1048431708	 0.8616335405	-0.353222
C	 0.7046757643	-1.9818361465	 1.1936655418	-0.100425
C	 0.6402753128	-2.7387493636	 2.5193081003	-0.230811
C	-0.2944499694	-2.0594353901	 3.5373818564	-0.256311
C	-0.0593624169	-0.5686117496	 3.6053222012	-0.049739
C	 0.3469451629	 0.1424891199	 2.5534243786	-0.144172
H	 1.3336192202	 1.2686258137	-0.595953699	 0.105194
H	-0.3301644493	 1.5653301734	-1.1697746051	 0.124478
H	 0.1561762841	 2.0986306147	 0.4546513424	 0.107944
H	 2.2045801369	-1.0458077924	-0.1780675411	 0.111297
H	 2.7088379646	-1.0497042047	 1.5835819426	 0.109901
H	 0.2301630861	-2.4560089375	 0.3410468552	 0.094928
H	 0.3179825643	-3.7703190306	 2.3439215791	 0.098575
H	 1.6434834027	-2.8001051308	 2.957300196	 0.101539
H	-1.3446689968	-2.2456576286	 3.2686560032	 0.115444
H	-0.1565013004	-2.508974157	 4.5269645783	 0.099075
H	-0.2391035761	-0.0731729254	 4.5563572587	 0.087865
H	 0.5072184092	 1.2140755444	 2.6397675137	 0.084235
91.4911	120.8593	163.4473	186.2566	262.0255	321.0533	375.6364	421.6553	469.2375	506.873	571.3146	652.7333	721.2943	778.2368	798.5629	882.8109	903.5431	932.9077	942.5598	983.2788	999.3935	1004.0106	1039.1422	1054.722	1074.3646	1114.4486	1127.5658	1180.2458	1191.5028	1205.9567	1220.2064	1230.6165	1272.0461	1302.8082	1350.8776	1375.6965	1397.4107	1425.529	1466.4992	1477.0041	1481.4493	1490.0496	1494.0821	1508.4217	1710.1955	2988.1067	3002.6758	3030.0343	3037.8185	3059.5389	3073.9507	3112.6274	3122.9411	3145.2243	3164.2131	3168.1508	3215.3454
COC12CC1CCC=C2	CO[C@]12C[C@H]1CCC=C2	
InChI=1S/C8H12O/c1-9-8-5-3-2-4-7(8)6-8/h3,5,7H,2,4,6H2,1H3	InChI=1S/C8H12O/c1-9-8-5-3-2-4-7(8)6-8/h3,5,7H,2,4,6H2,1H3/t7-,8-/m1/s1
