18
gdb 55311	2.43442	1.56324	1.10031	4.9318	71.89	-0.261	0.0173	0.2783	1110.1682	0.148428	-439.083054	-439.07486	-439.073916	-439.116154	31.136	
O	 0.2402732025	 0.1690630653	 0.1756569798	-0.319794
C	 0.0002544311	 1.2944825129	-0.1604510533	 0.402832
O	 0.9449529142	 2.0635736488	-0.764692822	-0.382824
C	-1.3098977277	 2.0168446522	 0.033114853	-0.178316
C	-2.393133678	 1.5072778329	 1.0147219524	-0.239586
C	-2.6519327622	 2.9890625562	 1.4408319986	-0.318753
C	-1.2829310802	 3.3252588142	 0.8361904389	 0.328906
C	-0.1369504799	 3.9240421019	 1.5583860605	-0.297865
N	-0.6849483992	 4.5475776099	 0.3306032668	-0.387964
H	 0.598121873	 2.9597151753	-0.9091731966	 0.31511
H	-1.2384134345	 5.3733154797	 0.5437192605	 0.239517
H	-1.7402381165	 2.2219478855	-0.9554593596	 0.109878
H	-3.2311043483	 0.9587154755	 0.5846194987	 0.112543
H	-1.9472018197	 0.9145350323	 1.8153194461	 0.132225
H	-3.4750515331	 3.435533919	 0.8733704776	 0.111453
H	-2.7966390799	 3.1965564875	 2.5033025338	 0.111557
H	-0.3476112277	 4.3971765665	 2.5142555939	 0.120531
H	 0.867440756	 3.5234915043	 1.4598266809	 0.140548
82.5634	101.7978	156.6363	219.354	300.6998	352.6954	379.083	464.7914	552.1393	589.1571	664.7654	717.3491	757.4964	802.6612	841.648	894.1866	916.1425	945.245	963.1484	977.9763	1000.706	1045.9661	1095.8929	1117.6999	1140.7138	1188.7319	1195.4501	1212.9002	1230.9861	1253.2468	1268.575	1289.4172	1337.0856	1379.3682	1407.9123	1483.1592	1500.1311	1517.6039	1875.584	3032.2649	3052.0745	3088.605	3110.3158	3112.0434	3147.3019	3200.9744	3505.4713	3682.8612
[O-]C(=O)C1CCC11C[NH2+]1	O=C(O)[C@H]1CC[C@]21CN2	
InChI=1S/C6H9NO2/c8-5(9)4-1-2-6(4)3-7-6/h4,7H,1-3H2,(H,8,9)	InChI=1S/C6H9NO2/c8-5(9)4-1-2-6(4)3-7-6/h4,7H,1-3H2,(H,8,9)/t4-,6-/m1/s1
