19
gdb 65882	4.11488	0.75158	0.71037	1.3621	99.91	-0.2363	-0.01	0.2263	1643.9361	0.157423	-348.697924	-348.688456	-348.687512	-348.732238	35.701	
C	-0.0715308147	 1.5381147838	-0.0026802839	-0.44004
C	-0.0200533959	 0.0013889162	-0.0031994302	 0.079776
C	 1.150579292	-0.5545124136	-0.895803944	-0.242228
C	 2.0291704282	-0.6914817197	 0.3744381373	-0.218002
C	 0.751442023	-0.568603133	 1.2442164282	-0.242228
C	-1.3318447395	-0.5616314661	-0.2515779617	 0.40256
C	-2.4246608952	-1.0433523501	-0.4584449352	-0.257345
C	-3.6519226973	-1.5821661819	-0.6905003156	 0.294693
C	-4.7416179841	-2.0611811091	-0.896618896	-0.585794
H	 0.9238559298	 1.9531786444	 0.1856820909	 0.116154
H	-0.4234983094	 1.9149305436	-0.9674956945	 0.127601
H	-0.7484818871	 1.9034472334	 0.7751431176	 0.127602
H	 0.8948136474	-1.52279073	-1.3303698011	 0.115157
H	 1.4976938812	 0.109941903	-1.6909399976	 0.104146
H	 2.6055338151	-1.6127731658	 0.4758667051	 0.104278
H	 2.7094499624	 0.1534206099	 0.5068814841	 0.107026
H	 0.7870327357	 0.0848741695	 2.119392155	 0.104147
H	 0.3585208322	-1.5417127823	 1.5450370608	 0.115159
H	-5.6998205037	-2.4802990523	-1.0778354792	 0.18734
73.1839	84.8058	152.0974	224.1259	229.2739	261.2688	322.6875	328.177	460.5461	488.5	499.8181	535.3934	538.0366	591.7289	597.6334	691.4655	795.8978	833.4521	871.2241	901.9769	922.2424	946.2844	991.0598	1046.6812	1080.8227	1151.8551	1170.6191	1211.2488	1236.5313	1258.1942	1273.864	1275.3699	1322.4218	1409.5728	1475.5699	1484.5666	1491.1791	1499.3975	1508.1508	2177.3659	2351.7484	3036.0442	3064.1729	3065.0015	3072.6958	3108.6409	3109.4063	3114.7959	3123.7902	3134.1539	3506.1305
CC1(CCC1)C#CC#C	CC1(CCC1)C#CC#C	
InChI=1S/C9H10/c1-3-4-6-9(2)7-5-8-9/h1H,5,7-8H2,2H3	InChI=1S/C9H10/c1-3-4-6-9(2)7-5-8-9/h1H,5,7-8H2,2H3
