21
gdb 71615	2.86087	1.71882	1.576	1.4241	80.82	-0.2303	0.0929	0.3232	976.5828	0.185832	-387.092751	-387.085677	-387.084733	-387.123683	30.013	
C	-0.0375379648	 1.533433821	 0.0229932607	-0.509464
C	 0.0146361949	 0.0246170236	 0.0027156419	 0.306831
C	 0.9594867936	-0.7765953904	-0.9435262194	-0.288184
C	 0.7437844506	-1.9168617384	 0.0731614078	-0.065978
C	 0.6531212178	-0.8327990521	 1.1688747536	 0.115771
O	-0.1971070256	-1.259647613	 2.2164576567	-0.284894
C	-0.9782304281	-2.3386805397	 1.6715730332	-0.080615
C	-0.7911003094	-2.1801626574	 0.1588228104	-0.060303
C	-1.3048787108	-0.7530142172	-0.2047859114	-0.24795
H	 0.9594056057	 1.9667911276	 0.1579527847	 0.111211
H	-0.4491136667	 1.9306827957	-0.9125714188	 0.113702
H	-0.6722283151	 1.8909788268	 0.8418261991	 0.122352
H	 0.6340450537	-0.9247610965	-1.9769304076	 0.091599
H	 1.9882669429	-0.4051960722	-0.9299061281	 0.095045
H	 1.4048659903	-2.7797289119	 0.1526151093	 0.063485
H	 1.5822330297	-0.4318594823	 1.5767988841	 0.075117
H	-0.6003290378	-3.3022756149	 2.0454664359	 0.087998
H	-2.018899396	-2.2233892428	 1.9935193876	 0.102056
H	-1.1892389516	-3.0009367669	-0.4387001548	 0.065037
H	-2.1065862923	-0.4202753	 0.4614525638	 0.096908
H	-1.660503001	-0.6707576889	-1.2365194287	 0.090275
200.4907	218.2421	245.2111	311.0625	389.2049	441.563	471.0441	552.1685	627.0592	720.4029	767.8625	823.9677	825.9997	842.2769	880.8207	906.2125	929.7091	950.5765	970.3645	987.5883	990.5123	1005.679	1053.8103	1079.7841	1084.4807	1118.2177	1147.0734	1162.1512	1191.6611	1210.2178	1229.9404	1236.3004	1252.7832	1266.2113	1279.1754	1316.586	1323.7719	1362.0661	1391.2641	1411.9978	1489.91	1493.2857	1495.6014	1515.5066	1525.5284	2988.7002	3021.0259	3045.2269	3051.8979	3063.9962	3083.837	3089.5627	3092.0857	3104.723	3105.8876	3108.2206	3120.3411
CC12CC3C1OCC3C2	C[C@@]12C[C@H]3[C@@H]1OC[C@H]3C2	
InChI=1S/C8H12O/c1-8-2-5-4-9-7(8)6(5)3-8/h5-7H,2-4H2,1H3	InChI=1S/C8H12O/c1-8-2-5-4-9-7(8)6(5)3-8/h5-7H,2-4H2,1H3/t5-,6-,7+,8-/m1/s1
