18
gdb 102208	3.29245	0.87226	0.73042	5.0457	78.59	-0.2698	0.011	0.2807	1499.0111	0.145353	-401.925958	-401.915929	-401.914985	-401.961513	35.818	
O	 0.2049903641	 1.4019430767	 0.3082675639	-0.419091
C	 0.0917704073	 0.0311039165	 0.0053036073	-0.068023
C	-1.3574097777	-0.4917886973	 0.042488044	-0.017284
C	-2.182959819	-0.0683561049	-1.1979751258	-0.376029
C	-2.2804434573	 1.3721693907	-1.4135378165	 0.269048
C	-2.3729879499	 2.5559935491	-1.607567274	-0.409339
C	-1.3860905738	-2.0366035462	 0.1285920396	-0.356875
C	-0.8132010344	-2.5564616356	 1.3679976207	 0.264979
N	-0.3623636494	-2.9600820189	 2.3524262302	-0.304357
H	-0.3071237176	 1.8974417178	-0.3419637503	 0.287819
H	 0.5370583428	-0.2144603789	-0.9757129334	 0.083604
H	 0.6803428769	-0.4928755273	 0.765341148	 0.133656
H	-1.8306240603	-0.0797747441	 0.9399833668	 0.119056
H	-1.7419977757	-0.5319883534	-2.0918304625	 0.137392
H	-3.1980669055	-0.4769891454	-1.1125303971	 0.139446
H	-2.4679042334	 3.6006647629	-1.7766162583	 0.209876
H	-2.4169594217	-2.4004090759	 0.0506324777	 0.153017
H	-0.8370591856	-2.4717665257	-0.7164360304	 0.153106
50.0426	87.1444	98.5396	151.3783	184.3099	258.8919	293.6048	345.9209	371.9169	395.456	422.5686	439.0668	481.6612	616.5697	632.4034	652.1709	824.5715	875.6197	888.9373	936.0123	992.7855	1051.7125	1082.6626	1099.478	1104.2367	1199.8239	1212.1575	1279.904	1287.4493	1342.9799	1346.8639	1380.4558	1405.2133	1451.7396	1460.7671	1472.6311	1506.1727	2230.0387	2363.0294	2944.5573	3008.3775	3031.8206	3043.1411	3064.0964	3076.1232	3080.4061	3499.904	3777.2227
OCC(CC#C)CC#N	OC[C@@H](CC#C)CC#N	
InChI=1S/C7H9NO/c1-2-3-7(6-9)4-5-8/h1,7,9H,3-4,6H2	InChI=1S/C7H9NO/c1-2-3-7(6-9)4-5-8/h1,7,9H,3-4,6H2/t7-/m0/s1
