18
gdb 15015	4.28359	1.38413	1.1144	3.0302	63.68	-0.2569	0.0668	0.3236	1052.2742	0.15523	-422.067467	-422.059724	-422.05878	-422.099636	28.795	
O	-0.0635408533	 1.4262363696	-0.0222590619	-0.421648
C	 0.0083657285	 0.0090268427	 0.0353302125	-0.097239
C	-1.414316068	-0.5337694749	 0.0166899206	 0.001246
C	-2.1657847458	-0.1365742178	-1.262062681	-0.084626
O	-3.4513541617	-0.742386227	-1.2982821459	-0.234957
C	-3.3580073847	-2.1353095918	-1.1917962325	 0.0162
O	-2.7699140093	-2.5532993667	 0.012818352	-0.236058
C	-1.4426566431	-2.0635870196	 0.1321497959	-0.101808
H	 0.8320969777	 1.7750471584	-0.0456021654	 0.289967
H	 0.5726315729	-0.3947601987	-0.8223158295	 0.086461
H	 0.5214739665	-0.3285183851	 0.9506364824	 0.090081
H	-1.9589759509	-0.1165197687	 0.8715598711	 0.09992
H	-2.3175852603	 0.942018029	-1.3133667154	 0.130263
H	-1.5799450637	-0.4455460507	-2.1468711199	 0.079872
H	-4.3758399872	-2.5298643457	-1.2036172647	 0.116909
H	-2.7792060229	-2.5388685209	-2.0467849858	 0.069768
H	-0.8062238094	-2.5114934047	-0.652557288	 0.083883
H	-1.0706759154	-2.4034014972	 1.1030452855	 0.111764
95.9865	145.2981	207.9484	260.612	264.2871	365.4031	399.3695	444.072	475.0594	523.9456	670.5626	867.919	916.1333	939.7773	959.3958	982.8911	1055.6277	1070.4536	1082.7437	1107.7167	1143.2229	1186.0392	1210.6168	1234.4558	1246.6812	1258.3189	1311.2168	1326.2348	1334.8246	1360.2539	1389.0942	1423.7653	1444.4826	1461.1944	1495.9535	1496.8434	1511.4713	1522.47	2903.5319	2941.7206	2947.7764	2958.516	2983.2692	3053.1614	3084.0738	3114.0698	3126.6195	3833.201
OCC1COCOC1	OCC1COCOC1	
InChI=1S/C5H10O3/c6-1-5-2-7-4-8-3-5/h5-6H,1-4H2	InChI=1S/C5H10O3/c6-1-5-2-7-4-8-3-5/h5-6H,1-4H2
