18
gdb 54174	3.14824	1.09388	0.93864	1.0002	74.65	-0.2501	-0.0347	0.2154	1270.8898	0.144216	-439.103136	-439.093322	-439.092378	-439.138387	34.563	
C	-0.6207726798	 1.0891674729	 0.5885968274	-0.48514
C	 0.3945911266	 0.2472800626	-0.1557570245	 0.34479
O	 1.5716118904	 0.2531674241	 0.1258083527	-0.293961
C	-0.0912542817	-0.6202654734	-1.3044815982	 0.168849
C	 0.9876237521	-1.0592750177	-2.2721366154	-0.463662
C	-1.2574133817	-1.5608492545	-1.0456073704	-0.270745
N	-1.4454302743	-0.3445649571	-1.7842623111	-0.092485
C	-1.8471423784	-0.2914041916	-3.1117120107	 0.13975
O	-2.6825936048	-1.0074734766	-3.6034099332	-0.280937
H	-1.0251715201	 1.8549363745	-0.081027848	 0.153702
H	-1.4751915209	 0.4972630517	 0.9296290545	 0.143577
H	-0.1309034658	 1.5618886813	 1.4400694286	 0.144253
H	 1.7755736248	-1.584116605	-1.7287810126	 0.15445
H	 0.5776311629	-1.7214524384	-3.0394343956	 0.129526
H	 1.4507934561	-0.1978034973	-2.7620508397	 0.136546
H	-1.2678878978	-2.491892802	-1.6068771691	 0.146682
H	-1.7169338524	-1.6078606625	-0.0625957369	 0.132348
H	-1.3602492252	 0.5404290592	-3.6541429779	 0.092456
52.1411	85.8461	117.7336	153.2981	195.8656	224.2267	254.8299	301.4083	355.2012	402.8643	448.2727	502.1892	583.5449	644.2946	705.7104	822.1114	880.1572	948.2237	956.9177	1001.0849	1035.9011	1041.0679	1099.2254	1124.3142	1132.6516	1151.7563	1209.4461	1312.2565	1389.6408	1400.6267	1416.4574	1420.5502	1454.1196	1469.8645	1478.0524	1499.4221	1514.7082	1799.3339	1804.6304	2963.0382	3051.1736	3051.757	3111.4853	3114.2778	3119.7332	3140.8468	3159.7102	3201.6153
CC(=O)C1(C)CN1C=O	CC(=O)[C@@]1(C)CN1C=O	
InChI=1S/C6H9NO2/c1-5(9)6(2)3-7(6)4-8/h4H,3H2,1-2H3	InChI=1S/C6H9NO2/c1-5(9)6(2)3-7(6)4-8/h4H,3H2,1-2H3/t6-,7?/m1/s1
