21
gdb 57004	2.99449	1.13604	0.85728	0.5424	89.01	-0.2372	0.0272	0.2644	1366.0781	0.181956	-349.938538	-349.929277	-349.928333	-349.972637	35.384	
C	-0.035966571	 1.554569396	-0.010667111	-0.394497
C	 0.028997795	 0.0135004172	-0.0224781258	-0.182738
C	 0.7110782182	-0.4560706096	-1.229281677	 0.334044
C	 1.2902783708	-0.8238475207	-2.2170171868	-0.472811
C	 0.6976583031	-0.5532006584	 1.2496704846	 0.051213
C	-0.0302973372	-0.1789822848	 2.5719568727	-0.279039
C	 0.1821999367	-1.3951105834	 3.4415974076	-0.066625
C	 0.6372507339	-2.4339663114	 2.744171476	-0.06605
C	 0.812982288	-2.1026297736	 1.282583103	-0.271602
H	 0.9709061318	 1.9807897095	 0.0385338604	 0.124594
H	-0.5163151338	 1.9293097417	-0.9181423613	 0.124352
H	-0.6046851126	 1.9112984446	 0.852478764	 0.119203
H	-1.0021373591	-0.3698368451	-0.0484420586	 0.100961
H	 1.7914291117	-1.1567269113	-3.0918565854	 0.191731
H	 1.713657797	-0.1435619101	 1.2984167726	 0.083046
H	 0.3596771427	 0.7422210874	 3.0188676942	 0.104405
H	-1.1055067355	-0.0071196101	 2.4062849531	 0.101602
H	-0.0541144723	-1.4029730025	 4.500097899	 0.08975
H	 0.8298726157	-3.4226345705	 3.1464627976	 0.090427
H	 0.0260152641	-2.5789059556	 0.6787200634	 0.10676
H	 1.7628855926	-2.4535146492	 0.8668555478	 0.111272
72.4845	96.841	125.9249	208.0651	238.6366	251.9798	374.5544	382.3704	397.5522	462.8351	554.3258	620.5016	631.6749	637.1521	724.5525	781.6477	819.1353	867.0848	921.2818	950.1011	966.3312	976.0891	981.1451	1017.3656	1051.9982	1089.0234	1107.1242	1130.5565	1143.5019	1159.362	1213.8982	1282.7465	1293.2403	1324.382	1326.572	1333.8022	1370.8449	1374.6652	1409.2246	1483.9626	1491.3483	1494.9239	1500.5909	1690.8256	2231.4231	2985.7996	2991.612	2999.2141	3031.6099	3042.9106	3056.5439	3070.5608	3116.0054	3122.3409	3179.5366	3205.2174	3504.5394
CC(C#C)C1CC=CC1	C[C@@H](C#C)[C@H]1CC=CC1	
InChI=1S/C9H12/c1-3-8(2)9-6-4-5-7-9/h1,4-5,8-9H,6-7H2,2H3	InChI=1S/C9H12/c1-3-8(2)9-6-4-5-7-9/h1,4-5,8-9H,6-7H2,2H3/t8-/m0/s1
