21
gdb 92617	3.74944	1.14398	0.95685	2.1102	84.74	-0.2334	0.0152	0.2487	1272.3887	0.185166	-387.116307	-387.108289	-387.107345	-387.148889	32.071	
O	 0.1638563735	 1.4053398313	 0.1699678029	-0.434179
C	 0.0831274736	-0.0079800931	 0.0465342323	 0.12916
C	-1.3743327272	-0.5599593324	 0.0085654109	-0.284501
C	-1.2939326439	-1.8039706992	-0.8949232138	-0.040752
C	-2.3554761186	-2.1253988903	-1.9610531854	-0.23186
C	-1.5554984355	-2.9445362579	-3.0056519044	-0.202689
C	-0.1176355116	-2.3352386268	-3.0132270591	-0.336002
C	-0.0651640003	-1.534182158	-1.7385274464	 0.392044
C	 0.6860648961	-0.5574445286	-1.2354226381	-0.324713
H	-0.2277787098	 1.7818504676	-0.6264313751	 0.269826
H	 0.6182123547	-0.3773608946	 0.9318296056	 0.090062
H	-1.7818067099	-0.7504384202	 1.0046110861	 0.097657
H	-2.0062085639	 0.2024771833	-0.4654158474	 0.089281
H	-1.1328172441	-2.7048644429	-0.2821663386	 0.077076
H	-3.2254839932	-2.6678944867	-1.5802353235	 0.094366
H	-2.7170979728	-1.1910030861	-2.4090595404	 0.094413
H	-1.5093341943	-3.9920546827	-2.6882404793	 0.10276
H	-2.0197870916	-2.9336271169	-3.9951693347	 0.098678
H	 0.6493278892	-3.1164924289	-3.0555769685	 0.11389
H	 0.0486334491	-1.692395426	-3.8845693927	 0.115169
H	 1.6085217203	-0.1594789311	-1.6445949105	 0.090314
78.441	145.6642	184.4686	294.2908	332.3299	349.7525	434.7294	462.8383	546.6318	599.7428	627.2896	658.1284	783.0021	830.7435	851.1133	863.4641	892.0848	906.2617	957.3567	974.6232	997.8266	1033.19	1057.8915	1070.0518	1088.4709	1129.6227	1172.0175	1181.118	1205.9771	1225.309	1248.9298	1255.2572	1289.2504	1293.1502	1309.0516	1317.7558	1339.3592	1349.8522	1360.6572	1429.4599	1474.5082	1483.4678	1492.0646	1505.4386	1727.294	2976.8384	3014.6455	3026.3093	3030.7061	3037.1759	3046.3468	3067.9729	3088.2119	3099.1145	3100.7216	3189.5243	3790.9576
OC1CC2CCCC2=C1	O[C@H]1C[C@H]2CCCC2=C1	
InChI=1S/C8H12O/c9-8-4-6-2-1-3-7(6)5-8/h4,7-9H,1-3,5H2	InChI=1S/C8H12O/c9-8-4-6-2-1-3-7(6)5-8/h4,7-9H,1-3,5H2/t7-,8-/m1/s1
