17
gdb 31035	2.41794	1.33888	0.91159	3.6493	71.68	-0.2119	0.0278	0.2397	1271.2241	0.135967	-455.18509	-455.176064	-455.17512	-455.218988	33.153	
C	 0.251801962	 1.5579153544	 0.262864616	-0.370014
C	-0.0967181948	 0.0949470008	-0.0542825668	-0.291727
C	 0.5839991524	-0.4071779861	-1.2844555608	 0.274665
C	 0.0267334611	-0.8492547387	-2.4353494667	 0.161138
N	-1.2809071267	-0.9986475787	-2.8680729953	-0.595809
O	 1.0996414155	-1.2056535067	-3.2943666823	-0.232152
C	 2.18901538	-0.9334383351	-2.5562047194	 0.458427
O	 3.3792788673	-1.1718447405	-3.1108146491	-0.403385
N	 1.981975849	-0.465809033	-1.3748139509	-0.395203
H	 1.33296888	 1.6798742057	 0.3693112776	 0.139526
H	-0.0853260106	 2.2234481052	-0.5383002025	 0.112157
H	-0.2259405148	 1.8773182026	 1.1940649985	 0.108023
H	 0.1994863974	-0.5350554291	 0.7940525827	 0.112755
H	-1.1767893178	-0.0234479088	-0.1837826994	 0.114203
H	-1.510603371	-0.4265500746	-3.6738523923	 0.246968
H	-1.5364954296	-1.9601463977	-3.0672367436	 0.246981
H	 3.2353072305	-1.5205718597	-3.9985014257	 0.313446
62.3364	135.6566	189.5882	213.4148	227.3832	282.6603	300.7876	340.1343	347.64	430.9852	556.5939	609.4521	661.1203	695.222	738.6456	752.8509	795.976	826.1921	953.765	993.8716	1054.0118	1074.9697	1091.7583	1210.9856	1218.623	1232.7707	1307.2216	1326.4144	1380.6495	1405.4856	1431.0423	1477.9203	1495.1301	1509.1633	1654.9238	1694.6258	1736.995	3028.2903	3039.2838	3085.2227	3107.4279	3124.3132	3497.4568	3563.6839	3819.9986
CCC1=C(N)OC(O)=N1	CCc1c(N)oc(O)n1	
InChI=1S/C5H8N2O2/c1-2-3-4(6)9-5(8)7-3/h2,6H2,1H3,(H,7,8)	InChI=1S/C5H8N2O2/c1-2-3-4(6)9-5(8)7-3/h2,6H2,1H3,(H,7,8)
