21
gdb 119105	1.86371	1.0266	0.72033	1.922	88.69	-0.244	0.0348	0.2788	1667.5397	0.179275	-387.054162	-387.043286	-387.042342	-387.092212	37.743	
C	 0.139605377	 1.6532041378	-0.0687262276	-0.383289
C	 0.2807031278	 0.1320399594	 0.0222085341	-0.160827
C	 0.4641989552	-0.5284095996	-1.3497150837	-0.267691
C	 0.6155455863	-2.0382875832	-1.265639508	 0.205382
C	 1.5821181465	-2.7346585526	-2.1406622409	-0.219763
O	 1.9013333201	-2.4849152874	-0.7766689457	-0.267607
C	-0.5259764155	-2.7709091865	-0.7656876378	 0.043707
C	-1.4969827892	-3.3529519816	-0.3537648427	 0.10967
C	-2.6605764031	-4.0690092982	 0.1473629109	-0.503427
H	 1.0246547739	 2.1088937195	-0.5269919949	 0.11385
H	-0.7283214825	 1.9365345536	-0.6750044593	 0.112145
H	 0.0125501439	 2.0994933723	 0.9223822662	 0.112728
H	 1.1393572925	-0.127233628	 0.652453377	 0.112516
H	-0.6027858474	-0.2954353185	 0.5105551606	 0.107173
H	-0.392287501	-0.296598356	-1.995694639	 0.102312
H	 1.3577499231	-0.123661558	-1.838999876	 0.100287
H	 1.4107859634	-3.7779902713	-2.400039369	 0.116454
H	 2.1442392379	-2.1545258201	-2.8725114718	 0.110751
H	-2.9281479041	-4.9051549993	-0.5079711834	 0.15039
H	-2.4720041787	-4.4765669765	 1.1466505897	 0.154467
H	-3.5318870961	-3.4087994058	 0.2175964115	 0.150772
18.9643	58.7787	80.812	107.6836	127.4069	184.5893	248.8476	286.9715	318.9137	331.701	355.1603	422.7461	532.8697	568.3183	654.5724	743.7292	790.9257	881.4913	891.9584	915.3207	962.0342	1038.454	1051.62	1054.3605	1056.1045	1113.03	1119.5113	1138.3871	1168.0513	1251.0433	1281.003	1311.2687	1328.1745	1377.4495	1401.5349	1412.5767	1413.9652	1468.9819	1476.2125	1477.6552	1493.4142	1500.6529	1509.4328	1519.3038	2367.391	3023.2803	3027.7103	3028.3003	3037.4552	3058.6256	3076.3369	3077.3916	3089.5734	3091.1314	3098.251	3102.1947	3169.0308
CCCC1(CO1)C#CC	CCC[C@]1(CO1)C#CC	
InChI=1S/C8H12O/c1-3-5-8(6-4-2)7-9-8/h3,5,7H2,1-2H3	InChI=1S/C8H12O/c1-3-5-8(6-4-2)7-9-8/h3,5,7H2,1-2H3/t8-/m1/s1
