18
gdb 98791	4.15153	1.08787	0.87608	2.5098	74.98	-0.2304	0.0127	0.2431	1305.5954	0.148	-439.133484	-439.124559	-439.123615	-439.168097	31.285	
C	-0.029008004	 1.297662259	-0.0303300049	-0.231311
O	 0.0326854957	-0.1284547479	 0.0196875594	-0.262764
C	 0.6853179036	-0.6249495902	 1.1053764444	 0.521983
O	 1.1843830189	 0.0585590717	 1.9752936739	-0.433113
N	 0.6995079848	-1.9794357438	 1.0787997312	-0.162326
C	 0.1060571309	-2.8268142079	 0.0438744296	-0.195398
C	 0.4352872596	-4.2056039741	 0.5496806142	-0.082384
C	 1.1109998581	-4.1597424692	 1.6940523473	-0.079538
C	 1.3460361377	-2.7442096169	 2.1440308071	-0.190229
H	 0.9739992365	 1.7313088926	-0.0617404836	 0.137072
H	-0.574584399	 1.5380694984	-0.9436971058	 0.1262
H	-0.5536811756	 1.6969035502	 0.8416795596	 0.137075
H	-0.9759893377	-2.6574954656	-0.0486105273	 0.122376
H	 0.5403718604	-2.6243351811	-0.9452702434	 0.122386
H	 0.1383082029	-5.0984541221	 0.0144071839	 0.107838
H	 1.4660022001	-5.0094086684	 2.2629479518	 0.108711
H	 2.4125441844	-2.4926426071	 2.2276728442	 0.12671
H	 0.8976271226	-2.5258995077	 3.1233242586	 0.126712
49.0583	96.6213	124.4548	158.8722	163.7617	215.7252	323.2815	404.4014	406.9131	538.9282	691.594	760.7284	776.6942	808.5816	849.0701	947.5537	965.1092	988.3956	1007.1402	1027.6253	1042.9805	1132.085	1154.3964	1182.5835	1189.3618	1201.6251	1211.6148	1241.0346	1325.3704	1362.8196	1385.1601	1420.6857	1480.6016	1485.5969	1506.1921	1513.1313	1523.5838	1695.865	1802.3468	2999.1663	3004.6272	3017.2582	3022.0683	3048.0116	3120.8103	3149.9753	3208.666	3232.3241
COC(=O)N1CC=CC1	COC(=O)N1CC=CC1	
InChI=1S/C6H9NO2/c1-9-6(8)7-4-2-3-5-7/h2-3H,4-5H2,1H3	InChI=1S/C6H9NO2/c1-9-6(8)7-4-2-3-5-7/h2-3H,4-5H2,1H3
