16
gdb 54471	3.6088	1.36385	1.13639	4.1437	68.88	-0.2397	-0.0006	0.2392	1064.5941	0.12362	-437.833883	-437.8261	-437.825155	-437.866434	30.254	
N	 0.1199782288	 1.2733464859	 0.3686971371	-0.540311
C	-0.0503161595	 0.1329985582	-0.3690958646	 0.291984
O	 0.7636481987	-0.2788470387	-1.1682250055	-0.349231
C	-1.3668037251	-0.5445960867	-0.1434903189	 0.331673
O	-1.3602264873	-1.9769971932	-0.0498447738	-0.262599
C	-2.1453533758	-1.3706154495	-1.0699835843	-0.044145
C	-3.4842096188	-0.8501256779	-0.4600767458	-0.087535
C	-3.5563828761	-1.1099650089	 1.0211323914	-0.288414
C	-2.6824746171	 0.0051144256	 0.5128797191	-0.165351
H	 1.0282900366	 1.708765336	 0.3313492933	 0.265166
H	-0.4504212885	 1.4499738182	 1.1785860762	 0.263558
H	-1.9387854483	-1.6457538039	-2.0966579139	 0.128754
H	-4.3354855169	-0.5544906709	-1.0575527384	 0.101566
H	-4.478131223	-0.7832863039	 1.4917588371	 0.116758
H	-3.112378192	-2.0031126441	 1.4416027465	 0.14122
H	-2.8420550156	 1.0489101637	 0.7489247343	 0.096908
54.6001	152.4495	182.3364	345.6048	356.5156	391.3133	425.7997	478.8224	571.0667	598.237	652.6554	730.4622	734.1606	782.5386	821.3918	847.5574	902.1919	913.0034	943.0166	998.4467	1010.0657	1053.0666	1054.961	1082.0476	1100.0747	1117.7996	1171.8475	1245.7469	1268.4693	1304.4478	1332.8957	1444.9447	1467.7419	1616.7915	1805.6877	3142.4615	3197.314	3202.6475	3214.1548	3235.4373	3590.58	3721.5728
NC(=O)C12OC1C1CC21	NC(=O)[C@]12O[C@H]1[C@H]1C[C@@H]21	
InChI=1S/C6H7NO2/c7-5(8)6-3-1-2(3)4(6)9-6/h2-4H,1H2,(H2,7,8)	InChI=1S/C6H7NO2/c7-5(8)6-3-1-2(3)4(6)9-6/h2-4H,1H2,(H2,7,8)/t2-,3+,4-,6+/m0/s1
