24
gdb 101778	4.12071	0.65468	0.64696	3.4425	87.67	-0.2402	0.0381	0.2783	1896.8646	0.215055	-405.599833	-405.58807	-405.587126	-405.63892	41.015	
C	 0.1458443792	 1.5658223272	 0.1044207692	-0.391391
C	-0.0289841474	 0.0524682321	-0.0553095255	-0.162566
C	 0.6324575931	-0.5424964719	-1.3120009087	 0.032885
C	 2.158797034	-0.3949866451	-1.304247292	-0.383087
C	 0.2138050779	-2.0185872209	-1.4567083507	-0.168567
N	 0.6552794403	-2.6379142425	-2.6942950906	-0.314221
C	 1.5504936487	-3.6704860756	-2.7359413277	 0.407005
C	 1.8723225476	-4.1897112357	-4.130260111	-0.482406
O	 2.0561494713	-4.1522549983	-1.7380479284	-0.375112
H	 1.1960833705	 1.8454097767	 0.2295755496	 0.121293
H	-0.2394506418	 2.1029846164	-0.7698628182	 0.111539
H	-0.3969396558	 1.9300571609	 0.9822226099	 0.113589
H	 0.3697245407	-0.4587423037	 0.8316873025	 0.099911
H	-1.1020597538	-0.1792033058	-0.0800750411	 0.089969
H	 0.2377763171	 0.0021658954	-2.1849028783	 0.057698
H	 2.5921630163	-0.8866766316	-0.4258394845	 0.12405
H	 2.6017541929	-0.8553493208	-2.191623287	 0.11498
H	 2.462339967	 0.6553817342	-1.2894768995	 0.111204
H	 0.6460158746	-2.6182827229	-0.6509217635	 0.146544
H	-0.8790345738	-2.0962557478	-1.3824957226	 0.096221
H	 0.2772634051	-2.2932735003	-3.5611895495	 0.239496
H	 2.9555242708	-4.1624763253	-4.2724264272	 0.151922
H	 1.5620732839	-5.236245184	-4.1954715752	 0.151931
H	 1.3919657618	-3.6273560508	-4.9355212899	 0.107112
31.9832	38.8831	53.0765	79.6166	91.0047	209.6359	222.8342	239.3626	283.4221	302.3205	329.5713	419.7893	443.2774	463.6193	507.2939	626.6593	635.9646	774.0109	828.0344	858.6777	912.4859	953.4196	977.4905	995.0458	1015.5893	1046.0252	1050.2229	1111.7977	1154.6449	1165.5543	1191.7215	1250.7533	1283.0155	1302.397	1317.8528	1378.3848	1381.9226	1390.8815	1397.6404	1412.4852	1416.6216	1470.4997	1478.3346	1486.5747	1488.0284	1495.593	1498.2878	1508.0357	1511.5698	1541.3568	1779.9616	2972.7254	3008.6368	3016.5796	3032.3765	3038.0817	3043.7399	3048.5738	3097.7143	3103.5026	3107.8343	3108.9449	3116.279	3124.7564	3130.4419	3644.8771
CCC(C)CNC(C)=O	CC[C@@H](C)CNC(=O)C	
InChI=1S/C7H15NO/c1-4-6(2)5-8-7(3)9/h6H,4-5H2,1-3H3,(H,8,9)	InChI=1S/C7H15NO/c1-4-6(2)5-8-7(3)9/h6H,4-5H2,1-3H3,(H,8,9)/t6-/m1/s1
