18
gdb 71480	4.03075	1.23998	1.1379	3.9607	77.52	-0.2469	-0.0364	0.2105	1117.3507	0.146848	-401.909153	-401.901089	-401.900144	-401.941687	30.728	
C	 0.0319253944	 1.5426057704	 0.0720636113	-0.495625
C	 0.0203197104	 0.0440512153	 0.0179616797	 0.343276
C	-1.2672586749	-0.7867094559	 0.2532360565	-0.286675
C	-0.318135762	-1.7936326144	 0.8680687483	-0.060309
N	 0.7252274789	-0.7800311333	 1.1633739055	-0.196866
C	 0.9458697865	-1.801037229	 0.0472857548	 0.23547
C	 0.8226186115	-0.7482840348	-1.037875979	-0.35564
C	 1.9567990903	-2.869609375	 0.2041927403	 0.05756
O	 2.0104853469	-3.6147927167	 1.1524608633	-0.254821
H	 1.056604451	 1.9266782873	 0.0561752132	 0.13041
H	-0.5029274222	 1.9595999265	-0.7892396025	 0.125282
H	-0.4538995361	 1.9050363414	 0.9833201322	 0.130506
H	-1.9003758515	-0.3293789546	 1.0182649092	 0.116453
H	-1.8733667297	-1.0686896176	-0.6135915355	 0.102155
H	-0.5145879872	-2.6065415277	 1.5568285816	 0.119745
H	 0.326620312	-1.0020194457	-1.9804611675	 0.102114
H	 1.7881650696	-0.275513152	-1.2406749193	 0.113243
H	 2.6865583522	-2.944884964	-0.6335570721	 0.073722
88.4552	167.6037	180.1295	198.1169	288.267	322.4613	415.4764	427.2811	493.2329	621.0436	701.7634	733.4534	747.9466	792.7746	836.4678	907.158	956.5584	964.2849	998.2676	1027.1824	1032.2949	1041.3485	1107.7267	1121.7978	1142.3392	1177.991	1214.1385	1246.1381	1269.7884	1286.5159	1343.9726	1376.8478	1416.2652	1433.908	1479.2053	1488.2592	1491.1716	1506.9177	1808.1476	2874.9848	3030.9705	3040.289	3047.6566	3097.6353	3099.7412	3106.1514	3110.9504	3197.8381
CC12CC3N1C3(C2)C=O	C[C@]12C[C@@H]3N1[C@@]3(C2)C=O	
InChI=1S/C7H9NO/c1-6-2-5-7(3-6,4-9)8(5)6/h4-5H,2-3H2,1H3	InChI=1S/C7H9NO/c1-6-2-5-7(3-6,4-9)8(5)6/h4-5H,2-3H2,1H3/t5-,6+,7-,8?/m0/s1
