15
gdb 129930	3.14463	1.29022	0.99204	4.0941	71.57	-0.2082	0.0105	0.2186	1141.2638	0.114942	-413.019512	-413.011275	-413.010331	-413.052709	30.209	
N	 0.183621599	 1.3867214024	-0.2695199908	-0.623164
C	 0.0582333419	-0.0014025311	-0.1181098854	 0.131876
C	-1.082624215	-0.7658931837	 0.0401370107	-0.100987
N	-0.6587498587	-2.0471890349	 0.2321574941	-0.189205
N	 0.6713910173	-2.1747359255	 0.1986296344	-0.286772
C	 1.1201229335	-0.9364450985	-0.0036878198	 0.315841
C	 2.5992508365	-0.6720874948	-0.0604351808	-0.43953
C	 2.9809995065	 0.1109458794	-1.2394028504	 0.263159
N	 3.236801733	 0.7626631899	-2.159443901	-0.324651
H	 0.8976537017	 1.6431047706	-0.9424129735	 0.26378
H	-0.6869775199	 1.8323084978	-0.5278172669	 0.244346
H	-2.1283313575	-0.5037064567	 0.0314902302	 0.128005
H	-1.2241694399	-2.8647244815	 0.3810122236	 0.277516
H	 2.9373548606	-0.1207079303	 0.8268506143	 0.165861
H	 3.1295610009	-1.6287387731	-0.0702160087	 0.173923
58.6559	109.566	210.7164	255.1812	265.1804	339.3485	382.3315	431.8998	456.7716	491.8294	652.7651	670.3202	711.9419	739.6248	765.9303	800.1091	927.4304	942.844	955.3736	1075.6696	1113.799	1185.8386	1236.0003	1249.916	1325.9734	1346.2501	1423.6902	1449.3654	1475.23	1536.1255	1629.4949	1667.9969	2355.9396	3028.5574	3098.7155	3263.8314	3523.4219	3616.9678	3683.1625
NC1=CNN=C1CC#N	Nc1c[nH]nc1CC#N	
InChI=1S/C5H6N4/c6-2-1-5-4(7)3-8-9-5/h3H,1,7H2,(H,8,9)	InChI=1S/C5H6N4/c6-2-1-5-4(7)3-8-9-5/h3H,1,7H2,(H,8,9)
