21
gdb 52786	2.97599	0.84616	0.74288	1.6214	88.32	-0.2386	0.0579	0.2965	1621.0174	0.180001	-387.060496	-387.050007	-387.049063	-387.097133	38.031	
C	 0.388424532	 1.664229715	-0.5178695295	-0.501104
C	 0.2315721112	 0.2332082903	-0.2973944997	 0.10387
C	 0.1021113292	-0.9513008275	-0.1153330024	-0.010614
C	-0.0582718812	-2.3791936453	 0.1087484989	 0.142137
C	 0.8572414621	-3.1881296265	-0.8252618714	-0.442348
C	 0.0423196534	-2.856930418	 1.6022643845	-0.298169
C	-1.2043017768	-3.7493654434	 1.3696968583	 0.167568
O	-2.1641508542	-3.8799038276	 2.3866256727	-0.435912
C	-1.5355420299	-2.9145900716	 0.1055585975	-0.298167
H	 1.1246657548	 1.8688203574	-1.3032427643	 0.146687
H	-0.5565354961	 2.1275695798	-0.8234282561	 0.145518
H	 0.7264305705	 2.1741195561	 0.3913955032	 0.145519
H	 1.9065528764	-2.929756922	-0.6543283403	 0.123395
H	 0.738869742	-4.2636767719	-0.6589757878	 0.114405
H	 0.6220706642	-2.9767485886	-1.8726591527	 0.123396
H	 0.974892022	-3.3344141942	 1.9131185417	 0.103169
H	-0.1857798409	-2.0379355979	 2.290762881	 0.098816
H	-0.9216624252	-4.7733964557	 1.1111741409	 0.093747
H	-2.4431300728	-2.9953891547	 2.6468178237	 0.2761
H	-2.242228682	-2.1130919643	 0.3400808434	 0.098819
H	-1.8758600387	-3.4386078093	-0.7910450716	 0.103168
23.3705	64.331	106.8219	138.7497	244.1051	267.751	282.494	289.1676	321.4195	333.5641	404.5619	427.819	475.4517	545.7674	552.9345	699.8697	826.1751	854.4802	888.0283	891.7298	955.5083	1012.3897	1045.3687	1053.3486	1054.4208	1066.4804	1101.0308	1122.5603	1153.8309	1205.5541	1217.0416	1262.6924	1282.7037	1315.3038	1336.9716	1407.7195	1415.0614	1442.5782	1463.9573	1479.0202	1479.3477	1488.1745	1488.9265	1499.3577	2363.2732	3024.0906	3034.605	3051.5227	3057.6748	3073.853	3083.1092	3084.3684	3106.5784	3110.4909	3113.6555	3117.3827	3802.7351
CC#CC1(C)CC(O)C1	CC#C[C@@]1(C)C[C@@H](O)C1	
InChI=1S/C8H12O/c1-3-4-8(2)5-7(9)6-8/h7,9H,5-6H2,1-2H3	InChI=1S/C8H12O/c1-3-4-8(2)5-7(9)6-8/h7,9H,5-6H2,1-2H3/t7-,8+
