17
gdb 99063	3.62607	0.85172	0.71207	3.6731	71.37	-0.255	-0.0077	0.2472	1522.2702	0.134686	-455.182879	-455.172796	-455.171852	-455.219163	34.527	
C	-0.6085948491	 1.3582884907	-0.560343311	-0.335475
N	-0.95437733	-0.0479051391	-0.4732984781	-0.306456
C	-0.9227434582	-0.7304518061	 0.7018386883	 0.380123
O	-0.6114355824	-0.2371810377	 1.7707593453	-0.37029
C	-1.2879303895	-2.2216033864	 0.6184899378	-0.313464
C	-2.3774170123	-2.600091752	-0.4027817779	-0.059028
O	-1.9819473855	-2.3989587754	-1.7583291774	-0.405773
C	-2.8109761244	-3.9952042505	-0.2009855284	 0.272416
N	-3.1143064821	-5.1004276652	-0.054511458	-0.303675
H	 0.29734713	 1.5110190189	-1.1579355383	 0.127166
H	-1.4234950043	 1.9355002908	-1.0097425887	 0.128372
H	-0.428597637	 1.7178627367	 0.4530092391	 0.171729
H	-1.1982773775	-0.5577043044	-1.3102122274	 0.259726
H	-0.3797847685	-2.7978246938	 0.3997642348	 0.134698
H	-1.6086252718	-2.5115446955	 1.6213458932	 0.159076
H	-3.2489265422	-1.9515143065	-0.2644023573	 0.157955
H	-1.2939500852	-3.0414543241	-1.971475596	 0.302902
53.6544	61.148	76.702	123.2666	175.2222	206.4764	262.1555	298.8256	347.3536	388.8881	440.9366	511.2156	594.3924	617.8425	678.0384	724.1198	850.0972	891.2782	945.956	1015.9533	1084.6843	1101.4891	1152.3863	1178.5538	1184.5148	1270.612	1290.269	1309.2566	1356.5372	1416.7504	1438.4007	1458.1651	1497.2384	1501.4726	1584.9961	1784.3381	2357.7978	3030.062	3039.7225	3072.163	3083.0236	3120.641	3156.9495	3594.2175	3792.5043
CNC(=O)CC(O)C#N	CNC(=O)C[C@@H](O)C#N	
InChI=1S/C5H8N2O2/c1-7-5(9)2-4(8)3-6/h4,8H,2H2,1H3,(H,7,9)	InChI=1S/C5H8N2O2/c1-7-5(9)2-4(8)3-6/h4,8H,2H2,1H3,(H,7,9)/t4-/m1/s1
