15
gdb 56472	2.81878	1.09904	0.81271	4.5671	69.99	-0.2492	-0.0405	0.2087	1329.8436	0.110553	-453.944216	-453.934643	-453.933699	-453.97946	33.339	
N	-0.2627808871	 1.6041564808	 0.0194183934	-0.498459
C	 0.0130291316	 0.1714783885	-0.0123410774	-0.254862
C	-1.1958628383	-0.61816446	 0.2040784365	 0.307415
C	-2.1820159589	-1.2902088851	 0.3518411916	-0.439042
C	 0.7975039819	-0.2555338156	-1.2998610663	 0.421558
O	 1.4432048131	 0.5533654313	-1.9135780503	-0.308995
N	 0.7271401129	-1.6119408336	-1.5953680753	-0.356784
C	 1.4145233141	-2.3060866777	-2.5921682357	 0.167019
O	 2.2254563282	-1.8500369895	-3.346976213	-0.24622
H	 0.5493357458	 2.0688864609	-0.3839996192	 0.251848
H	-1.0338439961	 1.8029850881	-0.6129514866	 0.238248
H	 0.7132246371	-0.0515700743	 0.8094700981	 0.148507
H	-3.0631728586	-1.8652225321	 0.5011477816	 0.213982
H	 0.064274584	-2.146702126	-1.0489338531	 0.263841
H	 1.1072292701	-3.3714843858	-2.5914600544	 0.091945
51.7931	67.6272	126.4643	186.1357	206.4093	230.7652	251.2335	303.1337	353.6972	475.847	520.6344	558.257	627.2658	640.5264	677.4758	680.9103	832.2014	915.4389	955.16	958.4462	1029.6057	1077.4727	1158.035	1180.9158	1222.8355	1284.8095	1399.9218	1444.022	1515.3578	1666.1306	1808.7482	1874.2602	2233.5001	2930.2033	2977.9475	3474.4538	3497.7126	3552.9231	3578.7891
NC(C#C)C(=O)NC=O	N[C@@H](C#C)C(=O)NC=O	
InChI=1S/C5H6N2O2/c1-2-4(6)5(9)7-3-8/h1,3-4H,6H2,(H,7,8,9)	InChI=1S/C5H6N2O2/c1-2-4(6)5(9)7-3-8/h1,3-4H,6H2,(H,7,8,9)/t4-/m0/s1
