21
gdb 74914	3.33787	1.46101	1.22864	0.2665	87.43	-0.2222	0.0287	0.2509	1102.301	0.185052	-349.946362	-349.938806	-349.937862	-349.978001	31.156	
C	-0.1703580184	 1.5842811073	 0.0607311343	-0.475809
C	 0.0003123842	 0.0952072815	-0.049812647	 0.322753
C	-0.0674865923	-0.5642003181	-1.2092568846	-0.161515
C	 0.1441684557	-2.0501313047	-1.2745214214	-0.066699
C	 1.5730099495	-2.5466719037	-0.8233088984	-0.240132
C	 0.9460358644	-3.1465910391	 0.4347964298	-0.068773
C	 0.0607609561	-2.1589854322	 1.1678072866	-0.020377
C	 0.2636995813	-0.6466880265	 1.2444599475	-0.333614
C	-0.4552631519	-2.8200342997	-0.0740991375	-0.083944
H	 0.7131075195	 2.054927606	 0.5123971639	 0.119005
H	-0.3360318095	 2.0450577494	-0.9170227815	 0.117752
H	-1.0202066002	 1.8403727591	 0.7074598438	 0.118864
H	-0.2452737466	-0.0212119469	-2.1344989492	 0.072117
H	-0.1441640961	-2.457210796	-2.2443888727	 0.066687
H	 1.9592763519	-3.3188163278	-1.4941107025	 0.09824
H	 2.3385517136	-1.7750256052	-0.6930277302	 0.09088
H	 1.2926210907	-4.0442325423	 0.9341470256	 0.076764
H	-0.3370823875	-2.5896222285	 2.0832806563	 0.082018
H	 1.279027603	-0.4135603658	 1.5992432122	 0.108966
H	-0.4038694768	-0.2407855069	 2.0174828848	 0.099509
H	-1.3522174108	-3.42661062	-0.1031314099	 0.077308
122.5226	174.0059	212.5667	318.5441	373.7226	395.1222	452.1396	478.1969	582.3911	699.404	722.7585	749.015	788.1881	826.8682	845.9677	863.4444	922.3485	957.2713	969.0205	977.6027	1007.1209	1016.7976	1026.519	1062.1942	1067.8851	1083.4618	1096.284	1147.0768	1168.281	1188.5458	1214.3271	1236.3453	1254.4496	1284.5403	1320.3535	1325.1906	1352.2608	1381.4385	1411.4606	1432.4936	1471.8888	1478.3546	1489.1952	1495.2134	1731.1135	2992.1171	3009.4647	3017.8123	3042.7753	3053.1642	3088.8345	3102.417	3106.533	3138.4691	3150.085	3168.5559	3184.1615
CC1=CC2CC3C(C1)C23	CC1=C[C@H]2C[C@H]3[C@@H](C1)[C@@H]23	
InChI=1S/C9H12/c1-5-2-6-4-8-7(3-5)9(6)8/h2,6-9H,3-4H2,1H3	InChI=1S/C9H12/c1-5-2-6-4-8-7(3-5)9(6)8/h2,6-9H,3-4H2,1H3/t6-,7+,8-,9+/m0/s1
