17
gdb 63903	2.44444	1.72422	1.39338	1.8892	67.45	-0.2495	-0.0438	0.2057	979.1226	0.134837	-458.971026	-458.962906	-458.961961	-459.003329	31.452	
C	 0.5840511537	 1.3960332076	-0.0738907602	-0.437311
C	-0.0610344759	 0.0041101952	-0.0339975492	 0.299198
O	-1.4717107102	 0.1081855913	 0.0348046711	-0.477353
C	 0.3431893769	-0.9002059315	-1.2257857592	-0.293105
C	 1.4371855501	-1.8090489801	-0.6891582345	 0.044434
O	 2.4906416616	-1.0998873882	-0.0440458114	-0.239334
C	 1.5048352371	-1.7406265247	 0.7887241647	-0.08691
C	 0.4240406332	-0.7906883642	 1.2068699345	 0.371278
O	-0.1101073537	-0.7198024604	 2.2861172678	-0.341246
H	 1.6694935924	 1.3275904767	-0.1757847375	 0.138942
H	 0.1756200077	 1.953131806	-0.9223264023	 0.126676
H	 0.3486539958	 1.9448940163	 0.843425927	 0.122591
H	-1.6866003703	 0.1995561092	 0.9744201958	 0.287489
H	-0.5260043956	-1.4940284389	-1.5227762819	 0.130342
H	 0.6842155748	-0.3314013231	-2.0954928068	 0.119072
H	 1.7372573269	-2.7072391068	-1.2224915436	 0.113605
H	 1.8517194255	-2.5358829645	 1.4399437456	 0.121633
94.7314	198.8416	227.448	254.5914	302.8569	347.7139	359.315	390.2685	439.1474	500.6686	619.5301	635.2865	707.341	792.4692	823.7714	848.0452	907.8176	919.3387	955.9924	988.7428	1009.3794	1082.1125	1123.6385	1140.3162	1149.9294	1219.942	1231.4138	1252.7505	1305.7918	1327.3431	1384.8214	1394.8877	1412.6155	1477.1064	1489.7302	1500.3285	1837.9806	3040.1102	3061.5712	3110.3169	3113.4858	3135.7496	3153.6228	3182.9907	3734.8825
CC1(O)CC2OC2C1=O	C[C@@]1(O)C[C@H]2O[C@H]2C1=O	
InChI=1S/C6H8O3/c1-6(8)2-3-4(9-3)5(6)7/h3-4,8H,2H2,1H3	InChI=1S/C6H8O3/c1-6(8)2-3-4(9-3)5(6)7/h3-4,8H,2H2,1H3/t3-,4-,6-/m1/s1
