17
gdb 32655	2.04532	1.63689	0.97525	5.2029	78.48	-0.2427	-0.0534	0.1892	1194.3077	0.137027	-418.060621	-418.052214	-418.05127	-418.094191	30.161	
C	-0.0071123627	 1.5468983372	-0.0687837711	-0.377665
C	-0.0271189192	 0.0200880704	 0.0260726337	-0.172483
N	-1.3759252353	-0.5392896236	 0.0076512775	-0.056194
C	-2.0769552729	-0.9381141093	 1.0951822348	 0.015537
N	-3.2990186574	-1.3529234588	 0.800473061	-0.26997
C	-3.3976773655	-1.2126791257	-0.5472574288	-0.119374
C	-2.2245517805	-0.7066217147	-1.0846638211	 0.168529
C	-1.8780056871	-0.4194291346	-2.4643886622	 0.069355
O	-2.6354066798	-0.5701696481	-3.4003709019	-0.276757
H	 1.0244508065	 1.9084495519	-0.026145755	 0.131629
H	-0.4513159657	 1.8931411343	-1.0057454316	 0.140642
H	-0.5649216456	 1.9942359485	 0.7585946627	 0.137593
H	 0.5479280798	-0.427784435	-0.7894527238	 0.137132
H	 0.4381053449	-0.3090067303	 0.9595449713	 0.131383
H	-1.6471729792	-0.9114588209	 2.0867012971	 0.137841
H	-4.2895323634	-1.4816874966	-1.0923498571	 0.143572
H	-0.843187527	-0.0432733646	-2.6294649855	 0.059231
73.3996	119.7665	166.8112	183.8172	225.7582	241.1611	335.1939	400.1752	534.6998	627.4932	660.582	672.5648	794.1013	804.2756	844.2322	901.3792	934.4904	972.5765	1021.3789	1094.386	1118.3983	1160.3619	1197.2365	1249.8042	1283.8988	1324.4979	1365.7237	1386.6385	1413.398	1415.6196	1459.758	1481.8096	1489.4205	1499.9253	1515.2358	1569.6391	1776.5603	2866.8914	3047.6191	3061.8579	3099.062	3123.7634	3130.5314	3241.0298	3260.7878
CCN1C=NC=C1C=O	CCn1cncc1C=O	
InChI=1S/C6H8N2O/c1-2-8-5-7-3-6(8)4-9/h3-5H,2H2,1H3	InChI=1S/C6H8N2O/c1-2-8-5-7-3-6(8)4-9/h3-5H,2H2,1H3
