19
gdb 7145	5.73649	0.89495	0.78947	1.4112	70.64	-0.2533	0.0639	0.3172	1488.4609	0.163542	-402.217281	-402.207607	-402.206663	-402.252679	33.228	
C	 0.1001296356	 1.5011600093	-0.2118361661	-0.390365
C	 0.0185074749	-0.0016746467	-0.0229241321	-0.023504
O	 0.6584359408	-0.6107992658	-1.1552293753	-0.245931
C	 0.6862127253	-1.9471089861	-1.1682876317	 0.49837
N	 0.1830190974	-2.6600853436	-0.2456956255	-0.610349
O	 1.324858149	-2.3083121846	-2.302222125	-0.233335
C	 1.4820075524	-3.7045707545	-2.549215128	-0.05891
C	 2.2166609967	-3.8584977213	-3.8684681788	-0.391289
H	 1.1410107169	 1.8319765404	-0.2690741039	 0.128319
H	-0.408600172	 1.8080679525	-1.1300628148	 0.128296
H	-0.377162142	 2.0063472713	 0.6331739104	 0.119284
H	 0.5230629743	-0.3294654347	 0.8917505854	 0.119807
H	-1.0165759762	-0.3536847853	 0.0345887013	 0.119865
H	 0.2944216135	-3.6536375466	-0.4163422635	 0.220785
H	 2.0485149052	-4.1628677509	-1.7273030763	 0.112523
H	 0.4951346045	-4.1850956968	-2.5896583958	 0.112556
H	 1.6476351707	-3.4009791277	-4.6820544084	 0.135912
H	 3.1978135486	-3.3787326088	-3.8214745512	 0.135918
H	 2.3579397445	-4.9191604802	-4.0954825907	 0.122046
57.1865	64.1787	110.2381	128.7565	141.3631	252.65	256.4648	258.938	356.4053	396.049	503.8009	692.8458	747.2557	756.3752	809.9279	832.0569	881.9315	907.3722	1006.1869	1048.2439	1109.0044	1134.5457	1138.515	1168.0281	1184.5656	1187.0105	1289.1729	1294.8694	1340.0371	1391.2973	1407.1804	1417.308	1445.0737	1484.1703	1484.6752	1496.921	1499.3159	1522.2434	1527.8259	1724.0689	3003.0325	3042.2966	3045.4795	3048.4965	3049.6424	3085.327	3120.0807	3124.7781	3124.8009	3129.7769	3559.0296
CCOC(=N)OCC	CCO[C]([NH])OCC	
InChI=1S/C5H11NO2/c1-3-7-5(6)8-4-2/h6H,3-4H2,1-2H3	InChI=1S/C5H11NO2/c1-3-7-5(6)8-4-2/h6H,3-4H2,1-2H3
