18
gdb 88489	2.32288	1.4592	1.13486	5.0349	76.4	-0.2621	0.0209	0.283	1137.0644	0.148303	-398.09078	-398.082017	-398.081073	-398.124375	32.507	
C	 0.41447811	 1.4619479586	-0.4315972055	-0.416847
C	 0.0763180936	 0.0546928323	-0.0038122342	 0.023563
N	 1.1806504756	-0.9171195892	 0.1289402598	-0.351776
C	 0.4231530275	-0.5265345145	 1.3225967497	-0.136641
C	 1.2220154985	 0.2239687603	 2.3644473042	 0.16107
C	 2.4078908116	-0.4507024938	 2.9792214882	-0.263044
N	 2.5940627879	 0.6609140282	 2.0481646237	-0.331131
C	 0.4385613045	 1.1408804995	 3.1668686402	 0.275457
N	-0.2241722645	 1.8402081653	 3.8057916493	-0.33807
H	 1.314330671	 1.8339116307	 0.0617196562	 0.147702
H	 0.57490836	 1.5031483456	-1.5138583596	 0.125074
H	-0.4102714293	 2.1383520256	-0.1853485036	 0.136526
H	-0.8441200729	-0.3338748337	-0.4376110543	 0.096396
H	 0.9110888565	-1.8412558732	-0.193442257	 0.24205
H	-0.2828332277	-1.2397861378	 1.7436501193	 0.104935
H	 2.6666718525	-0.2418709388	 4.0123209016	 0.140903
H	 2.6167368947	-1.460414965	 2.6349146935	 0.12658
H	 2.8017478103	 0.2786158399	 1.1235376384	 0.257255
66.5917	131.1765	168.9697	187.6245	234.3135	260.9004	318.6196	389.8751	479.083	501.1566	579.0474	594.3269	703.8729	794.9341	833.1759	885.3715	909.052	939.7434	957.4162	1010.7674	1011.7006	1032.3603	1069.8779	1100.4826	1128.901	1156.9193	1199.6474	1249.0466	1260.5961	1286.8752	1322.0638	1358.3121	1405.3992	1430.5154	1460.7892	1493.0318	1500.1919	1502.4108	2357.388	3043.9947	3106.1574	3112.4084	3113.0641	3127.9642	3142.4774	3208.863	3446.5156	3523.4805
CC1NC1C1(CN1)C#N	C[C@H]1N[C@H]1[C@]1(CN1)C#N	
InChI=1S/C6H9N3/c1-4-5(9-4)6(2-7)3-8-6/h4-5,8-9H,3H2,1H3	InChI=1S/C6H9N3/c1-4-5(9-4)6(2-7)3-8-6/h4-5,8-9H,3H2,1H3/t4-,5-,6-/m1/s1
