19
gdb 66102	2.61164	1.4729	1.31636	1.3885	80.01	-0.2325	0.0534	0.2859	1070.8975	0.158448	-385.841912	-385.833456	-385.832512	-385.874462	33.411	
C	-0.0139621802	 1.5298042588	-0.0251664478	-0.430308
C	-0.000993399	-0.0096255646	 0.0086229035	 0.050127
C	 0.8406653198	-0.6037850577	-1.1705299323	-0.122307
O	 1.4143878998	-1.818587874	-0.7130002836	-0.252315
C	 1.5592606224	-1.7320295222	 0.6811325394	 0.123496
C	 2.2392431273	-0.5172955964	 1.2592458161	-0.357109
C	 0.7218456239	-0.6141538131	 1.2226709968	-0.082879
C	-1.3719003394	-0.5249923064	-0.0270273054	 0.338368
C	-2.5018062221	-0.9349695414	-0.0536149749	-0.487158
H	 1.0039256134	 1.9208115962	 0.0620299734	 0.116557
H	-0.4493133774	 1.8951084906	-0.9603640788	 0.125811
H	-0.6095216273	 1.9288526488	 0.7998426383	 0.12894
H	 0.2360825149	-0.8204837837	-2.0534511254	 0.123711
H	 1.62256269	 0.1157890235	-1.4530781711	 0.092696
H	 1.6537279802	-2.7080534723	 1.1407421599	 0.104151
H	 2.7081590818	-0.6242563372	 2.2314081082	 0.116327
H	 2.7529170309	 0.1672203151	 0.5928628338	 0.118108
H	 0.1673521689	-0.6985854638	 2.1487754204	 0.099224
H	-3.4972364781	-1.30381775	-0.0806419905	 0.19456
110.6389	147.2047	203.1338	233.2783	258.9258	323.9543	390.3289	448.4299	481.9253	520.9999	612.5525	627.7153	631.9656	709.1828	738.9789	797.348	830.8968	887.8015	917.237	960.5131	979.4242	1005.6006	1032.6924	1052.3765	1063.5122	1101.5227	1130.5249	1171.829	1192.2061	1197.8077	1208.5847	1257.8299	1323.6926	1366.2907	1394.9952	1411.0664	1476.9132	1486.7965	1497.8201	1520.1187	2232.0748	2996.5381	3040.4982	3106.9506	3112.8838	3121.8778	3133.7003	3186.4955	3194.742	3219.1778	3501.0655
CC1(COC2CC12)C#C	C[C@]1(CO[C@H]2C[C@@H]12)C#C	
InChI=1S/C8H10O/c1-3-8(2)5-9-7-4-6(7)8/h1,6-7H,4-5H2,2H3	InChI=1S/C8H10O/c1-3-8(2)5-9-7-4-6(7)8/h1,6-7H,4-5H2,2H3/t6-,7+,8-/m1/s1
