20
gdb 78812	2.34088	1.69098	1.43312	1.2406	77.65	-0.2289	0.0662	0.2951	1034.6942	0.170164	-403.083922	-403.075342	-403.074398	-403.116399	33.787	
C	-0.0499189143	 1.5635328061	 0.0382282995	-0.425681
C	 0.1039182261	 0.0524715747	 0.0695665086	 0.048144
N	 1.1462237776	-0.5555828909	-0.8389055278	-0.157724
C	 2.40214122	-0.6026238071	-0.0242154428	-0.091171
C	 1.3542603558	-1.6473710822	 0.1462978956	-0.138144
C	 0.7265319126	-0.7041149366	 1.2647942488	 0.247083
C	-0.0365389923	-1.0805165805	 2.5041948786	-0.515438
C	 2.1471733237	-0.0648448237	 1.3840175677	 0.102765
O	 2.9689092159	-0.6657915359	 2.3632357515	-0.444186
H	 0.8894533814	 2.0868390606	 0.2326670697	 0.125794
H	-0.407530041	 1.8793855747	-0.9469330614	 0.129162
H	-0.7840541927	 1.8908471426	 0.7827045152	 0.119106
H	-0.8455457411	-0.4177249145	-0.2130507825	 0.078452
H	 3.3370476638	-0.6425290175	-0.5690806066	 0.099308
H	 1.2981664094	-2.6999490457	-0.1001880226	 0.098185
H	 0.6116053535	-1.5959657309	 3.2200343696	 0.123725
H	-0.4257571027	-0.1850421275	 3.0030215336	 0.123722
H	-0.886868729	-1.7307621597	 2.2733120927	 0.117875
H	 2.2101348573	 1.0091495692	 1.5764776138	 0.079648
H	 3.056578346	-1.6004135052	 2.1386779188	 0.279373
155.6015	183.8673	198.6653	208.0773	234.9245	268.9686	350.1487	359.7007	416.4469	548.2705	564.2649	642.4372	692.0048	772.9098	799.2401	836.1844	864.2777	866.5459	912.4632	944.796	970.1476	1027.2717	1033.358	1095.311	1107.9342	1113.5928	1144.4393	1160.8084	1192.0043	1214.4303	1215.7379	1256.7976	1280.7012	1320.2962	1345.0916	1396.1772	1408.6109	1417.9758	1438.3237	1486.0329	1487.5014	1492.2518	1500.9945	3027.0444	3032.2163	3038.7619	3080.0373	3090.215	3102.6987	3103.0753	3122.2525	3189.366	3203.3863	3778.6056
CC1N2C3C2C1(C)C3O	C[C@H]1N2[C@@H]3[C@H]2[C@@]1(C)[C@H]3O	
InChI=1S/C7H11NO/c1-3-7(2)5-4(6(7)9)8(3)5/h3-6,9H,1-2H3	InChI=1S/C7H11NO/c1-3-7(2)5-4(6(7)9)8(3)5/h3-6,9H,1-2H3/t3-,4-,5+,6+,7+,8?/m1/s1
