16
gdb 38016	3.47781	2.18578	1.79924	3.7367	71.16	-0.2089	-0.0532	0.1556	782.8235	0.125695	-400.607597	-400.601866	-400.600922	-400.637193	25.106	
C	-0.0748736535	 1.5949567561	 0.0166453199	-0.24286
C	 1.4767713536	 1.5492541759	 0.0437558346	-0.008015
N	 2.1348865349	 1.3897498657	 1.3630075751	-0.219452
C	 1.761377063	 0.2446806008	 1.7438492192	 0.240415
O	 2.6719664017	-0.8337183566	 1.6596723081	-0.270677
C	 1.7801647297	-1.1163822936	 0.4884078313	 0.090967
C	 1.4284376788	 0.0503282581	-0.5868402796	-0.11095
C	-0.0484428624	 0.0658702442	-0.0443525713	-0.041102
C	 0.5529276443	-0.5867951106	 1.2188609388	-0.122623
H	-0.5615678217	 2.0797974049	 0.8656795135	 0.110003
H	-0.4451367685	 2.0296736412	-0.9162359411	 0.106311
H	 2.0155536336	 2.3135882109	-0.5151723961	 0.096406
H	 1.9272264678	-2.1341980747	 0.1274700813	 0.114401
H	 1.6906325745	-0.0722716043	-1.6356453596	 0.080501
H	-0.8488899776	-0.5074592078	-0.5133498994	 0.075897
H	 0.0066626819	-1.1816642003	 1.9481960255	 0.100776
267.4128	363.833	390.3392	484.9138	569.8628	623.7733	632.3641	706.3328	707.8436	775.7938	806.0187	829.8661	855.5091	876.3584	896.0516	937.1712	959.6612	993.2141	1011.1454	1031.2132	1051.8203	1090.9878	1101.1006	1117.9767	1173.621	1178.1868	1192.3172	1224.2876	1237.0683	1261.7094	1289.4076	1303.6754	1326.4442	1480.5845	1631.5458	3057.152	3101.043	3112.6831	3117.6666	3122.8215	3138.6419	3144.2675
C1C2N=C3OC4C2C1C34	C1[C@H]2[N][C]3O[C@@H]4[C@H]2[C@H]1[C@H]34	
InChI=1S/C7H7NO/c1-2-4-3(1)8-7-5(2)6(4)9-7/h2-6H,1H2	InChI=1S/C7H7NO/c1-2-4-3(1)8-7-5(2)6(4)9-7/h2-6H,1H2/t2-,3+,4-,5-,6+/m0/s1
