21
gdb 26114	2.43586	1.29301	1.02715	1.7576	86.58	-0.1686	0.0551	0.2237	1276.7185	0.182894	-383.309824	-383.299788	-383.298844	-383.345977	37.23	
C	 0.0217872084	 1.5170031562	-0.081596129	-0.373605
C	 0.0058773439	-0.017390231	 0.0804968041	-0.092465
C	 0.7423255275	-0.4409252569	 1.3662001421	-0.38122
C	-1.3821032249	-0.5833670102	-0.0014198159	 0.257312
C	-2.0232742907	-1.2755619617	-1.0132248806	 0.151101
N	-1.5051789832	-1.5957923267	-2.2889502658	-0.610776
C	-3.3564265425	-1.5428889467	-0.5836409805	-0.206849
C	-3.4975918501	-1.0063585066	 0.6747559122	-0.089536
N	-2.3100860353	-0.4248372922	 1.0177685527	-0.304062
H	 1.0463557778	 1.9053096983	-0.0705722565	 0.105142
H	-0.4518477796	 1.8143435859	-1.021046824	 0.126485
H	-0.5266602555	 2.001747943	 0.7343683954	 0.104046
H	 0.5656617157	-0.4378982674	-0.7655745997	 0.07141
H	 0.7654524773	-1.5294664563	 1.4693889675	 0.119241
H	 1.7728387433	-0.0705620198	 1.3652426692	 0.110942
H	 0.2558689056	-0.0319770875	 2.2601306089	 0.100785
H	-0.4931845914	-1.6404292591	-2.2921615918	 0.231818
H	-1.8575322066	-2.4867822356	-2.6180278877	 0.236371
H	-4.1180179828	-2.0628048697	-1.1452554698	 0.081191
H	-4.3397498188	-0.9975107188	 1.3477950144	 0.109705
H	-2.1248735581	 0.0327696029	 1.8917959748	 0.252963
11.2939	101.2749	144.5573	180.0286	227.9542	251.3754	275.6993	285.5926	379.1939	386.2708	419.0447	511.5718	604.7329	639.3933	679.9998	708.6121	717.6232	788.3396	811.2819	878.842	916.2687	922.0681	954.3409	1032.5237	1064.5878	1091.9018	1120.0567	1136.9406	1174.2813	1225.3739	1271.3746	1323.8261	1328.2119	1363.9724	1396.2412	1417.4269	1452.3779	1484.7342	1489.3194	1495.868	1502.8052	1511.7209	1519.0343	1635.9545	1657.0501	3011.1646	3023.8594	3028.6452	3084.7126	3092.5448	3111.0369	3114.6984	3239.2843	3267.0246	3518.4489	3604.3406	3694.3213
CC(C)C1=C(N)C=CN1	CC(C)c1c(N)cc[nH]1	
InChI=1S/C7H12N2/c1-5(2)7-6(8)3-4-9-7/h3-5,9H,8H2,1-2H3	InChI=1S/C7H12N2/c1-5(2)7-6(8)3-4-9-7/h3-5,9H,8H2,1-2H3
