19
gdb 113097	2.31351	1.27697	0.9139	2.6286	73.28	-0.2416	-0.0003	0.2413	1288.067	0.158816	-460.15469	-460.145598	-460.144654	-460.189207	33.537	
O	-0.0412657698	 1.3216913278	-0.5172558597	-0.419213
C	-0.0442975042	-0.071642159	-0.2867014816	-0.057006
C	-1.436762199	-0.5650961758	 0.1157025849	 0.052416
O	-2.363430652	-0.241384888	-0.9375355178	-0.315992
C	-3.0266937522	-1.4272951914	-1.413468877	 0.052416
C	-2.7815686397	-1.5560280207	-2.919365573	-0.057006
O	-3.2624092993	-0.4250917991	-3.6152952391	-0.419213
C	-2.4521952547	-2.5368875797	-0.5794007998	-0.107106
C	-1.5607210898	-2.053452675	 0.278005618	-0.107106
H	-0.7604167583	 1.4913368459	-1.1366595591	 0.286164
H	 0.2896583658	-0.6353098122	-1.172695882	 0.086994
H	 0.6673782338	-0.2621314993	 0.5243991293	 0.106475
H	-1.7412814146	-0.0183310209	 1.0220357952	 0.094033
H	-4.1096185617	-1.3026495859	-1.2557934293	 0.094033
H	-1.7051062404	-1.7170400066	-3.0912310818	 0.086994
H	-3.3212774851	-2.4251307917	-3.311828832	 0.106475
H	-2.8794183555	 0.3422342115	-3.1746737545	 0.286164
H	-2.7512488984	-3.5713913227	-0.6916166997	 0.115239
H	-0.9873695949	-2.6148627572	 1.0048551789	 0.115239
57.7528	96.4963	114.9362	157.6125	234.6947	285.3573	397.2287	406.3645	440.3929	464.6139	473.0118	536.2159	691.4509	773.508	804.4541	814.8595	898.3985	955.9584	986.802	1013.3364	1035.9622	1068.5951	1081.8881	1085.7084	1089.9205	1110.1537	1141.0076	1214.7525	1221.5624	1273.6497	1300.4601	1341.5868	1360.6109	1362.7672	1384.6564	1393.2992	1425.5471	1434.1567	1493.8741	1499.3747	1687.8849	2970.7676	2975.1665	2986.3938	2989.8944	3070.8471	3071.8394	3206.6714	3230.3182	3797.8192	3801.5615
OCC1OC(CO)C=C1	OC[C@H]1O[C@@H](CO)C=C1	
InChI=1S/C6H10O3/c7-3-5-1-2-6(4-8)9-5/h1-2,5-8H,3-4H2	InChI=1S/C6H10O3/c7-3-5-1-2-6(4-8)9-5/h1-2,5-8H,3-4H2/t5-,6+
