18
gdb 80736	4.14854	1.11098	1.08934	4.1495	75.44	-0.2626	0.0159	0.2786	1167.1647	0.14844	-401.948373	-401.940157	-401.939212	-401.981522	30.742	
C	 0.064596449	 1.6586080712	 0.0330078918	-0.414391
C	 0.0079982077	 0.1495036096	-0.0188238283	-0.034839
C	 0.5633216692	-0.6811503536	-1.1710283458	-0.087935
C	 1.5708521956	-0.041963258	-2.1247898777	-0.276926
C	 2.8778813511	-0.032266097	-1.2838995341	-0.028642
O	 2.4760789737	-0.054515964	 0.0825872674	-0.250505
C	 1.2280512483	-0.7131429636	 0.1771440114	 0.06697
C	 3.7365296082	-1.1966848373	-1.5924225859	 0.275629
N	 4.4030126294	-2.1079030541	-1.8390702387	-0.317909
H	 1.0580212124	 2.0366624308	-0.2182826262	 0.128365
H	-0.660697761	 2.1083828053	-0.6533938103	 0.12002
H	-0.1681605016	 2.0116635649	 1.0427105181	 0.126761
H	-0.8979436919	-0.2756003838	 0.4075749778	 0.093263
H	-0.0166350854	-1.5222143069	-1.5300811393	 0.102724
H	 1.6844576149	-0.6227497688	-3.0416250698	 0.134993
H	 1.3027236818	 0.9801888581	-2.4049457103	 0.120631
H	 3.4714394601	 0.874167528	-1.4366015806	 0.132705
H	 1.2339413285	-1.5753614707	 0.8350206107	 0.109087
63.7134	127.8647	155.0878	201.8335	243.0833	301.4688	439.009	469.5863	558.8094	603.3828	719.0475	739.8552	777.3495	778.5138	830.4361	887.5683	942.2708	967.5607	989.1419	1003.8795	1036.6612	1071.315	1101.0578	1111.8975	1135.753	1143.5511	1213.649	1218.9101	1264.9636	1301.3015	1339.6908	1344.7151	1373.2784	1416.7965	1427.8841	1486.0446	1497.7407	1504.4944	2353.5943	3039.188	3065.7493	3076.604	3097.7808	3119.5166	3123.5887	3137.1751	3167.7479	3187.5766
CC1C2CC(OC12)C#N	C[C@H]1[C@H]2C[C@@H](O[C@@H]12)C#N	
InChI=1S/C7H9NO/c1-4-6-2-5(3-8)9-7(4)6/h4-7H,2H2,1H3	InChI=1S/C7H9NO/c1-4-6-2-5(3-8)9-7(4)6/h4-7H,2H2,1H3/t4-,5+,6+,7-/m0/s1
