18
gdb 56593	3.08259	1.09958	0.8617	5.6616	72.36	-0.2831	0.0196	0.3026	1309.6255	0.145908	-439.069711	-439.060294	-439.059349	-439.104304	34.088	
C	-0.0890405553	 1.7701896762	 0.3648467717	-0.425345
C	-0.0682262613	 0.2732663072	 0.0313760053	-0.05642
C	 0.7954228092	-0.5601607882	 1.0192525473	 0.005669
O	 0.96953605	-1.8911688196	 0.5892268925	-0.435873
C	 2.1362249097	 0.0346863246	 1.1715165093	 0.28965
N	 3.1705332233	 0.5333884224	 1.2956129482	-0.32581
C	-1.4857243563	-0.2706936772	 0.0259172205	 0.073264
C	-2.1714495282	-0.6629158275	-1.2111358864	-0.182163
O	-1.6562951063	-1.6591873409	-0.31936883	-0.25401
H	 0.9137420112	 2.1984316163	 0.3083920622	 0.15798
H	-0.7325377701	 2.309644612	-0.3364453407	 0.126667
H	-0.4751179134	 1.9461329458	 1.3752522799	 0.127309
H	 0.3731285699	 0.1210073627	-0.9603752787	 0.104942
H	 0.3173469771	-0.5205123637	 2.0144773469	 0.112037
H	 0.1316047389	-2.1713379768	 0.191775178	 0.309195
H	-2.1006631474	 0.0342913057	 0.8743057559	 0.109485
H	-3.2570579568	-0.6227175855	-1.2671747209	 0.132139
H	-1.6486742541	-0.5736151034	-2.1615647709	 0.131284
57.9926	86.8345	146.01	215.66	225.5523	245.0744	280.8072	329.2274	375.5471	437.3669	467.7988	523.1129	555.1794	613.3273	819.4235	854.7423	862.7641	944.8169	951.4302	984.3605	1069.4027	1092.7949	1114.7998	1131.8803	1160.2766	1165.9118	1194.7468	1267.0053	1295.6798	1313.323	1321.0853	1360.0154	1414.4077	1443.6443	1459.7757	1499.9485	1501.5312	1524.8076	2364.6217	2945.6009	3038.9824	3048.0197	3096.1824	3102.7549	3106.7019	3134.6223	3188.5961	3712.1539
CC(C(O)C#N)C1CO1	C[C@@H]([C@@H](O)C#N)[C@H]1CO1	
InChI=1S/C6H9NO2/c1-4(5(8)2-7)6-3-9-6/h4-6,8H,3H2,1H3	InChI=1S/C6H9NO2/c1-4(5(8)2-7)6-3-9-6/h4-6,8H,3H2,1H3/t4-,5-,6+/m0/s1
