20
gdb 55695	3.24033	1.08029	1.0559	2.2436	75.31	-0.2602	0.0582	0.3185	1258.5707	0.170073	-440.330813	-440.321406	-440.320462	-440.364881	35.626	
C	-0.2799409107	 1.7025380144	-0.5595875196	-0.449539
C	-0.1001745345	 0.2512896051	-0.1351560086	 0.45215
C	 0.9469840853	-0.5258229875	-0.9687534382	-0.266941
C	 1.9761323388	-0.2898343454	 0.1717659825	-0.229414
C	 0.7913100621	 0.0458578771	 1.1188842988	-0.242489
O	-1.3691864542	-0.436763378	-0.148931478	-0.31536
C	-2.2561126385	-0.1311675744	 0.8272699976	 0.476103
N	-3.4211395476	-0.8210206151	 0.6239586519	-0.557726
O	-2.0665008069	 0.6494761267	 1.7326674604	-0.405301
H	 0.6938225098	 2.1962011928	-0.6365949636	 0.115505
H	-0.7655037894	 1.7525804739	-1.5395561366	 0.116119
H	-0.8861313437	 2.2417538925	 0.170593051	 0.150006
H	 0.6628150297	-1.5777610536	-1.0493158952	 0.106451
H	 1.1755226455	-0.1388839782	-1.9649702575	 0.09688
H	 2.6098236377	-1.1345543481	 0.4474846001	 0.101312
H	 2.6178893997	 0.5741489195	-0.0186793268	 0.105923
H	 0.8864019974	 0.8919282598	 1.8003513482	 0.111165
H	 0.466517924	-0.8287416574	 1.6865954549	 0.106838
H	-3.4147768931	-1.6055471855	-0.0053892584	 0.262121
H	-4.0609372812	-0.8430092285	 1.399304357	 0.266195
78.4649	99.3773	150.2847	176.079	254.2867	293.7922	333.7991	348.5748	385.484	415.9596	457.5683	510.325	605.6925	698.6118	741.2229	784.7818	796.0608	869.6826	890.7036	923.1236	927.1405	940.9294	991.3998	1036.2274	1055.9009	1113.6634	1176.0806	1191.7673	1193.2583	1221.5031	1248.998	1276.5519	1280.9352	1304.9094	1373.9226	1403.5519	1467.6654	1480.113	1486.0606	1505.1631	1508.3207	1609.0245	1819.8146	3041.004	3061.6693	3068.1084	3079.172	3107.8279	3109.7591	3124.4185	3138.984	3139.7534	3612.8633	3742.8795
CC1(CCC1)OC(N)=O	CC1(CCC1)OC(=O)N	
InChI=1S/C6H11NO2/c1-6(3-2-4-6)9-5(7)8/h2-4H2,1H3,(H2,7,8)	InChI=1S/C6H11NO2/c1-6(3-2-4-6)9-5(7)8/h2-4H2,1H3,(H2,7,8)
