20
gdb 47799	2.18109	1.89111	1.17896	3.5129	79.41	-0.2386	0.0109	0.2496	1087.1696	0.173707	-403.173304	-403.165493	-403.164549	-403.205498	30.874	
O	 0.0966806507	 0.1092834999	 0.8716756567	-0.340409
C	 0.013605967	 1.1297073326	 0.225020202	 0.347626
C	-1.3043245509	 1.7976418363	-0.1421528423	-0.277556
C	-1.6563328115	 2.9735040129	 0.7948572197	-0.198673
C	-0.7175047071	 4.1880132206	 0.7200101992	-0.188215
C	 0.7383733742	 3.8818182214	 1.1211900601	-0.223221
C	 1.5138125986	 3.1389661654	 0.0518531967	-0.007757
C	 2.3716055522	 1.9540872628	 0.4016536365	-0.255909
N	 1.1266678686	 1.7822103312	-0.3080401163	-0.073513
H	-1.2542780507	 2.1542921567	-1.1769982272	 0.112179
H	-2.0819873172	 1.0333447608	-0.074719802	 0.122265
H	-2.6739755023	 3.3009484338	 0.5546878959	 0.103532
H	-1.6872529169	 2.6037950585	 1.8278968607	 0.112841
H	-0.7363607753	 4.6110153486	-0.2937880822	 0.097963
H	-1.1103343205	 4.9663836772	 1.3838944257	 0.100215
H	 1.2685565174	 4.8164024668	 1.3382656156	 0.10521
H	 0.7408999807	 3.2981803234	 2.0507305921	 0.109452
H	 1.8152889148	 3.7495700614	-0.79939662	 0.0968
H	 3.2747597946	 1.7494992579	-0.166685029	 0.123411
H	 2.3955596838	 1.6322455619	 1.4400989283	 0.133759
100.2334	161.2679	207.4016	297.8609	310.8885	374.3914	389.5935	459.3244	515.501	590.6964	672.3918	731.0421	788.6528	844.5888	874.9111	893.1017	940.561	949.213	970.874	1000.8659	1059.3287	1087.7688	1100.371	1115.2377	1129.3315	1157.5385	1167.5406	1210.5945	1232.5051	1271.9627	1282.8982	1347.8596	1357.3917	1370.6351	1383.706	1392.6464	1428.6801	1474.2229	1478.9519	1488.2738	1494.9965	1510.8443	1792.572	3016.2452	3024.5578	3026.0266	3045.8005	3064.2542	3065.9896	3073.077	3105.9208	3108.4109	3112.8642	3195.9815
O=C1CCCCC2CN12	O=C1CCCC[C@H]2CN12	
InChI=1S/C7H11NO/c9-7-4-2-1-3-6-5-8(6)7/h6H,1-5H2	InChI=1S/C7H11NO/c9-7-4-2-1-3-6-5-8(6)7/h6H,1-5H2/t6-,8?/m0/s1
