18
gdb 89043	3.08692	1.12705	0.97577	5.9281	69.1	-0.2146	0.0106	0.2252	1243.911	0.145866	-476.216652	-476.207226	-476.206282	-476.251324	34.686	
N	 0.3192348473	 0.5857274115	-0.2897969785	-0.511352
C	-0.1497299505	-0.6174076347	 0.1284731505	 0.397401
O	 0.5881353739	-1.5319099584	 0.453479188	-0.348728
C	-1.6830315867	-0.7441896609	 0.1271629895	-0.191219
O	-2.0934674789	-1.8594844998	 0.8615464673	-0.230947
C	-2.4655800536	-3.0169182982	 0.1618141193	 0.040799
C	-1.614851793	-3.5714767611	-0.9699976588	-0.388088
C	-1.6009482834	-4.2294643804	 0.3945109216	 0.148891
O	-0.4870698551	-4.1397884662	 1.2083587009	-0.434695
H	 1.3147558034	 0.7358958445	-0.3108886451	 0.27143
H	-0.2896293173	 1.3589135166	-0.4944970061	 0.26638
H	-2.1175892038	 0.1525439137	 0.589255891	 0.119973
H	-2.025681243	-0.7801358602	-0.9161703264	 0.129525
H	-3.5453402213	-3.1355071271	 0.085562518	 0.087239
H	-2.1288908028	-4.046669671	-1.7991827137	 0.108383
H	-0.7112959211	-3.036327036	-1.2386431637	 0.130248
H	-2.0927972172	-5.1900870622	 0.5110260094	 0.097503
H	-0.1276035667	-3.2390522502	 1.1293910967	 0.307257
53.6928	89.8376	115.3568	201.8325	215.2186	251.0621	299.7507	381.6751	432.5344	478.556	520.957	533.0201	608.8033	638.9743	683.8297	735.4939	793.0853	817.0987	879.0372	991.7657	1022.8493	1037.0715	1076.4685	1090.9773	1100.3001	1121.7804	1143.568	1195.6537	1255.1883	1298.4089	1315.6674	1368.7947	1373.0935	1415.1418	1459.909	1468.9633	1496.3753	1622.1857	1784.4232	3005.3398	3048.9229	3106.4172	3132.0703	3162.1142	3227.5434	3601.335	3641.6014	3734.185
NC(=O)COC1CC1O	NC(=O)CO[C@H]1C[C@H]1O	
InChI=1S/C5H9NO3/c6-5(8)2-9-4-1-3(4)7/h3-4,7H,1-2H2,(H2,6,8)	InChI=1S/C5H9NO3/c6-5(8)2-9-4-1-3(4)7/h3-4,7H,1-2H2,(H2,6,8)/t3-,4+/m1/s1
