14
gdb 49038	2.73594	1.40699	1.12704	3.9481	68.3	-0.271	-0.0649	0.2062	1061.2824	0.099738	-436.657338	-436.64949	-436.648546	-436.690123	28.154	
O	-0.2739090045	 0.3278305378	-0.6033915016	-0.257731
C	 0.0812464267	 1.1359724126	 0.2188290677	 0.085521
C	 1.3092580586	 1.9500605924	 0.0747681893	 0.334268
O	 1.6957888872	 2.8693577725	 1.0761650637	-0.310492
C	 2.1005603581	 3.8351753123	 0.0586223611	-0.113641
C	 1.7776501105	 2.8502490716	-1.0621664378	-0.170911
C	 2.4759543128	 1.5313675766	-0.8121380877	-0.25536
C	 3.8130164544	 1.455423532	-0.2910896192	 0.322969
N	 4.8912629833	 1.4099039907	 0.1237102801	-0.334742
H	-0.4937738374	 1.349535335	 1.1434949113	 0.109416
H	 1.4356275114	 4.7027689048	 0.0750907345	 0.134925
H	 3.1433810493	 4.1429461233	 0.1748697406	 0.148001
H	 1.2942379039	 3.0662577085	-2.0046417415	 0.139281
H	 2.1978626558	 0.7519058396	-1.5150467304	 0.168494
100.278	138.0354	146.3257	193.4625	228.8008	373.3755	383.6712	493.7593	581.7385	619.9593	715.619	761.0908	804.5746	881.6872	954.2801	964.9497	988.9032	1001.5295	1055.8857	1074.6133	1096.92	1159.5795	1172.9658	1229.6116	1310.1396	1333.8644	1405.8659	1431.6108	1510.0998	1808.9276	2359.1584	2928.3073	3058.4226	3118.0147	3175.0441	3219.0372
O=CC12OCC1C2C#N	O=C[C@]12OC[C@H]1[C@H]2C#N	
InChI=1S/C6H5NO2/c7-1-4-5-2-9-6(4,5)3-8/h3-5H,2H2	InChI=1S/C6H5NO2/c7-1-4-5-2-9-6(4,5)3-8/h3-5H,2H2/t4-,5+,6-/m1/s1
