17
gdb 127334	5.61144	0.99114	0.90133	4.3072	76.8	-0.2286	0.0054	0.234	1300.0538	0.138832	-414.190115	-414.182065	-414.181121	-414.223468	28.918	
C	 0.2556416608	 1.3840071693	 0.0352547393	-0.320555
N	 0.0090434622	-0.0408188518	 0.0045610452	 0.056622
C	-0.3948351891	-0.8215227898	-1.0153514418	 0.006079
N	-0.493523028	-2.0781075067	-0.6271714986	-0.339974
C	-0.1276517112	-2.0164162529	 0.6885646039	 0.37565
N	 0.1907006989	-0.8011604064	 1.114593334	-0.325842
C	-0.0746989472	-3.2083127554	 1.5525838018	-0.093893
C	-1.1162289673	-4.2634648819	 1.3947556326	-0.233459
N	 0.2550905973	-4.5104081895	 0.9408899285	-0.321719
H	 1.2952747262	 1.580049174	 0.309145538	 0.158029
H	 0.0578743352	 1.7962652303	-0.9557988422	 0.144098
H	-0.4003009832	 1.8643730457	 0.7655587706	 0.157202
H	-0.5984432073	-0.4359183289	-2.0035078565	 0.142988
H	 0.365102468	-3.0338403267	 2.5290950216	 0.103821
H	-1.4270870203	-4.8376982428	 2.263160486	 0.118345
H	-1.8854712075	-4.0870481015	 0.6486234565	 0.126956
H	 0.2926353526	-4.376483295	-0.0687703386	 0.245653
63.719	102.0468	150.3819	171.6805	234.0177	316.6269	436.1662	457.8078	645.5103	668.1662	730.6682	784.7732	832.5552	855.7321	889.6606	976.3496	1003.8584	1022.9837	1041.9977	1077.1612	1107.6054	1140.7947	1153.9644	1182.0805	1231.3438	1273.2111	1309.617	1319.5604	1353.3565	1371.2358	1450.9501	1459.1088	1472.8151	1497.5966	1507.178	1528.9815	1574.766	3053.9471	3111.2888	3124.5481	3147.0928	3167.5608	3203.9406	3251.8437	3483.9879
CN1C=NC(=N1)C1CN1	Cn1cnc(n1)[C@H]1CN1	
InChI=1S/C5H8N4/c1-9-3-7-5(8-9)4-2-6-4/h3-4,6H,2H2,1H3	InChI=1S/C5H8N4/c1-9-3-7-5(8-9)4-2-6-4/h3-4,6H,2H2,1H3/t4-/m1/s1
