21
gdb 121028	3.14836	0.92239	0.76748	2.7737	79.77	-0.2512	0.0109	0.2622	1499.7156	0.182454	-424.227335	-424.217764	-424.21682	-424.262278	35.418	
O	 0.2177645106	 1.3484821596	-0.5186297228	-0.420924
C	 0.1487921418	-0.0071522761	-0.1011000633	-0.079341
C	-1.2980706419	-0.4643253736	-0.2370166706	-0.173133
C	-1.5095780533	-1.9213094504	 0.1745242009	-0.027985
C	-1.2587500252	-2.2430186308	 1.6735781305	-0.273243
C	-2.2843307637	-3.3079639022	 1.9773245106	-0.064523
C	-3.1691897655	-3.4586759775	 0.9916827769	-0.108781
C	-2.9446968706	-2.4634596223	-0.1219389122	 0.07332
O	-3.9719909516	-1.4701365809	-0.1470693357	-0.424644
H	 1.1289651829	 1.6432780398	-0.4334048419	 0.283768
H	 0.7998434023	-0.6479849051	-0.7195367732	 0.081151
H	 0.4860454438	-0.1160313286	 0.9427008731	 0.083172
H	-1.9335568231	 0.1956325711	 0.3638583719	 0.097861
H	-1.6108089374	-0.3207184846	-1.2771971536	 0.111099
H	-0.8251181123	-2.5524904508	-0.4073319974	 0.075988
H	-0.2346570023	-2.5860908142	 1.8597259976	 0.10707
H	-1.4036614647	-1.3635786398	 2.3184209194	 0.104897
H	-2.2855422212	-3.8650546665	 2.908714566	 0.09683
H	-4.0133802322	-4.1390554723	 0.9922239002	 0.097366
H	-2.989898683	-2.9103157368	-1.1204402806	 0.08515
H	-4.1244462734	-1.190362708	 0.7624156843	 0.274903
67.3973	91.6534	107.9858	135.0807	264.0224	267.2523	277.2178	339.3148	345.7269	399.3691	506.2961	553.8313	720.8131	746.3332	787.7411	798.0269	811.1193	916.9659	952.0406	969.5633	983.827	1007.2515	1021.8586	1070.2933	1078.8666	1109.555	1130.7077	1136.481	1183.3422	1215.809	1242.2885	1255.6411	1281.5255	1306.7835	1310.8758	1317.6488	1343.3246	1374.1752	1380.7436	1431.8552	1461.7116	1481.7681	1489.5313	1526.1963	1679.6449	2954.7547	2980.3159	3001.044	3014.0162	3044.1324	3053.9711	3060.0632	3085.7018	3178.378	3206.5952	3799.1762	3830.5833
OCCC1CC=CC1O	OCC[C@H]1CC=C[C@H]1O	
InChI=1S/C7H12O2/c8-5-4-6-2-1-3-7(6)9/h1,3,6-9H,2,4-5H2	InChI=1S/C7H12O2/c8-5-4-6-2-1-3-7(6)9/h1,3,6-9H,2,4-5H2/t6-,7-/m1/s1
