16
gdb 19824	3.67037	2.26612	1.92943	2.6737	63.15	-0.2458	0.0543	0.3	752.2733	0.130369	-383.664251	-383.657757	-383.656813	-383.694585	25.672	
C	-0.1493931591	 1.5827620932	-0.0636760514	-0.419213
C	 0.0692213355	 0.0890420189	 0.0524685086	 0.158491
O	 1.1112084293	-0.4364498451	-0.8305148089	-0.306792
C	 1.7240164792	-1.1596695711	 0.2429213831	 0.093872
C	 2.9091630194	-0.446771895	 0.9655518106	-0.005904
O	 2.6301731289	 0.9501386043	 0.9818478276	-0.21782
C	 1.9677084235	 0.1362835992	 1.9492477383	 0.013588
C	 0.7531349116	-0.5641979179	 1.2848866591	-0.159685
H	 0.7667313569	 2.1355579112	 0.1396517626	 0.151864
H	-0.4930243657	 1.8284120097	-1.0739013107	 0.124476
H	-0.9286019335	 1.8981066133	 0.6396404305	 0.110266
H	-0.8697195636	-0.4389524415	-0.167546696	 0.076007
H	 1.8438679792	-2.2301833228	 0.0575182923	 0.081104
H	 3.9489579348	-0.74325907	 1.0495945368	 0.106066
H	 2.1041260896	 0.4004686646	 2.9918295387	 0.10878
H	 0.1532940439	-1.186376851	 1.9469975988	 0.084898
178.2813	207.7748	218.9918	327.6473	400.4295	512.4455	646.7383	677.0762	771.2895	790.7168	823.6549	856.0363	877.1738	892.109	931.5811	959.4251	995.4632	1020.7875	1048.6907	1069.7943	1093.2672	1149.4802	1168.1067	1201.9203	1229.6193	1251.8407	1277.4346	1287.7375	1336.708	1366.6519	1396.5651	1406.9687	1479.7086	1507.353	2993.0387	3040.035	3078.146	3099.0882	3129.4772	3164.8689	3172.7894	3188.25
CC1OC2C3OC3C12	C[C@H]1O[C@H]2[C@H]3O[C@H]3[C@@H]12	
InChI=1S/C6H8O2/c1-2-3-4(7-2)6-5(3)8-6/h2-6H,1H3	InChI=1S/C6H8O2/c1-2-3-4(7-2)6-5(3)8-6/h2-6H,1H3/t2-,3+,4-,5+,6-/m1/s1
