13
gdb 21018	5.57868	1.72437	1.35988	5.5643	66.5	-0.2469	-0.0702	0.1766	859.0839	0.096409	-390.927246	-390.920226	-390.919282	-390.959358	24.623	
C	 0.0027958559	 1.4205785141	-0.1185107788	-0.331597
N	-0.0447632601	-0.0295522858	-0.0270601952	-0.026629
C	-1.2012992413	-0.7398302518	 0.1472250358	 0.111135
N	-1.2440631373	-2.0182229751	 0.2188992555	-0.263595
C	-0.0182252693	-2.6618183823	 0.0362769891	 0.396392
N	 0.0539511874	-3.8784992562	-0.317554123	-0.480802
N	 1.1788461772	-1.9016600513	 0.3070952714	-0.204729
N	 1.1615229114	-0.6545329703	 0.2317998408	-0.051888
H	 1.0323189924	 1.7247855314	 0.070300176	 0.172752
H	-0.2967434495	 1.7558021897	-1.1157333112	 0.154158
H	-0.6520349003	 1.8801808735	 0.6281188505	 0.149291
H	-2.1069336435	-0.1455811979	 0.2676472998	 0.143818
H	 1.0383967469	-4.1499627279	-0.3593266507	 0.231694
51.6125	78.1334	199.4601	333.1417	421.4057	438.5492	509.1255	537.0997	674.3039	745.9893	803.8537	825.0446	905.7078	916.9555	960.2307	1041.3377	1091.2489	1153.7002	1229.7578	1295.9523	1341.974	1427.4931	1458.5835	1486.8603	1505.5506	1555.2193	1685.7563	1726.8844	3043.0746	3107.9941	3134.4195	3160.1506	3472.3003
CN1C=NC(=N)N=N1	CN1C=N[C@H]([NH])N=N1	
InChI=1S/C3H5N5/c1-8-2-5-3(4)6-7-8/h2,4H,1H3	InChI=1S/C3H6N5/c1-8-2-5-3(4)6-7-8/h2-4H,1H3/t3-/m0/s1
