23
gdb 117638	2.61853	0.92732	0.86295	1.9021	82.34	-0.232	-0.0128	0.2192	1529.0056	0.201233	-425.457526	-425.445969	-425.445024	-425.494661	41.634	
C	 0.1899526059	 1.6218354068	-0.0227642164	-0.383452
C	 0.008440409	 0.1011154736	-0.0011272794	-0.182365
C	 0.6744276343	-0.5468776951	 1.2174445999	-0.199489
C	 0.6907385112	-2.0890312798	 1.2162497397	 0.22757
C	-0.7111713104	-2.7080113726	 1.1246743237	-0.400066
O	 1.4113431464	-2.5981817167	 0.0920917592	-0.459443
C	 1.3078227096	-2.5808989962	 2.5503497302	 0.355712
C	 2.3614881626	-3.668577877	 2.4794107662	-0.476441
O	 0.9303436102	-2.1175927259	 3.6028599882	-0.317855
H	 1.2504575278	 1.8956841151	-0.0599777756	 0.111277
H	-0.2994045414	 2.0677254551	-0.8941553842	 0.113146
H	-0.237299823	 2.084827235	 0.8735126539	 0.118027
H	-1.0621994554	-0.1328123762	-0.0060991117	 0.102892
H	 0.4221880188	-0.3380900223	-0.9164490082	 0.101203
H	 1.7188676286	-0.2015435448	 1.2805777728	 0.079417
H	 0.1995038385	-0.2140968277	 2.1453162431	 0.126268
H	-1.1881273438	-2.4261308087	 0.1837806487	 0.128692
H	-0.6446779862	-3.7998693939	 1.1514620702	 0.122337
H	-1.3264148254	-2.374828799	 1.9631543933	 0.136208
H	 2.2200557539	-2.0844179198	-0.0061328369	 0.27861
H	 2.0306924276	-4.4935971762	 1.8428250707	 0.150219
H	 3.2765958529	-3.2779665276	 2.019422852	 0.13062
H	 2.5866414482	-4.0182522563	 3.4875573605	 0.136911
34.9942	83.2433	103.9364	132.6109	146.4548	232.268	248.0844	252.8915	280.3287	308.9516	322.3316	334.3775	370.7816	429.2919	525.4118	572.9371	605.0618	727.9013	749.7186	835.3956	873.5444	920.0332	959.6022	974.049	995.4762	1043.6344	1048.4864	1095.458	1132.57	1141.1313	1214.2676	1242.1046	1265.9646	1318.9157	1320.7614	1365.4657	1380.1633	1391.9876	1400.4799	1414.3875	1452.7166	1468.194	1479.3162	1488.9896	1495.3004	1499.7364	1502.0557	1513.3995	1802.0785	2983.2274	3029.1979	3034.3756	3042.7425	3051.0047	3063.0033	3088.484	3099.9315	3103.6179	3106.817	3121.6481	3145.2213	3157.0087	3807.5355
CCCC(C)(O)C(C)=O	CCC[C@@](C)(O)C(=O)C	
InChI=1S/C7H14O2/c1-4-5-7(3,9)6(2)8/h9H,4-5H2,1-3H3	InChI=1S/C7H14O2/c1-4-5-7(3,9)6(2)8/h9H,4-5H2,1-3H3/t7-/m1/s1
