19
gdb 56028	3.79978	0.94543	0.92367	3.1898	72.34	-0.2634	0.0173	0.2806	1368.448	0.158896	-460.216756	-460.207525	-460.206581	-460.252875	32.201	
C	 0.4401557136	 1.333867505	-0.2442999152	-0.479594
C	-0.0670171451	-0.0625135383	 0.0246117566	 0.431314
O	-0.6556930366	-0.411690659	 1.0138186722	-0.344565
O	 0.2282499195	-0.8782528309	-1.020594021	-0.266968
C	-0.1031993302	-2.2792937775	-0.874671111	 0.231588
C	-0.3306691285	-2.8477263454	-2.2909351654	-0.27266
C	 0.8367959467	-3.8419180212	-2.4831509276	-0.212241
C	 1.8145194323	-3.4138673689	-1.3834256533	-0.087121
O	 0.9734181298	-2.9689146256	-0.3161583228	-0.238181
H	 1.5336126372	 1.3253657991	-0.284902154	 0.151063
H	 0.0816172495	 1.6884943473	-1.2142146251	 0.145833
H	 0.1073160314	 2.0011495283	 0.5497866411	 0.147436
H	-0.942857151	-2.3515904566	-0.1853696314	 0.11836
H	-1.3062568989	-3.3312858027	-2.3684208397	 0.116586
H	-0.3006724513	-2.0319804934	-3.0157247193	 0.122436
H	 0.5032309475	-4.8683341821	-2.3071352806	 0.113851
H	 1.2761547218	-3.7953575617	-3.4820626069	 0.107288
H	 2.4383118376	-4.2219342526	-0.9956062544	 0.113716
H	 2.4667976347	-2.596328154	-1.7220284821	 0.101857
43.2394	44.7046	63.8931	96.5912	200.4268	223.1536	326.1678	414.1141	524.8398	602.1847	611.2618	649.5731	749.2748	816.1875	864.6679	911.2363	927.8213	937.3839	973.0763	986.5025	1019.0021	1053.4622	1063.5102	1106.1318	1140.4365	1208.2535	1229.4682	1253.1089	1258.4904	1311.3824	1322.0005	1357.074	1380.0716	1394.9911	1416.1976	1468.6925	1475.7159	1482.7044	1498.0973	1520.6941	1832.6859	3006.411	3056.4897	3063.7942	3080.9915	3105.4531	3113.2597	3121.9251	3129.5363	3142.1667	3168.6038
CC(=O)OC1CCCO1	CC(=O)O[C@H]1CCCO1	
InChI=1S/C6H10O3/c1-5(7)9-6-3-2-4-8-6/h6H,2-4H2,1H3	InChI=1S/C6H10O3/c1-5(7)9-6-3-2-4-8-6/h6H,2-4H2,1H3/t6-/m0/s1
