14
gdb 29844	4.03448	1.11373	0.87764	6.8575	72.34	-0.23	-0.017	0.213	1228.572	0.10215	-432.926548	-432.918244	-432.9173	-432.961105	29.212	
C	-0.0205192853	 1.4862322303	 0.0060772931	-0.351048
N	 0.0110400638	 0.0339604439	-0.0185978099	-0.053133
C	-0.0060876175	-0.7828969272	-1.1307965252	-0.193212
C	 0.0485103027	-2.066421196	-0.6494914039	 0.166639
N	 0.1007907247	-2.0680510169	 0.7394952811	-0.418678
C	 0.0768991791	-0.8040612376	 1.0564411673	 0.447322
O	 0.1093700087	-0.2873818516	 2.292581523	-0.426533
C	 0.0524533814	-3.2595548148	-1.4163319911	 0.217196
N	 0.0547490305	-4.2215860629	-2.0609942455	-0.346259
H	 0.8846436719	 1.9012818074	-0.4466216376	 0.153307
H	-0.8947483136	 1.8565965562	-0.5358306879	 0.15311
H	-0.0805349577	 1.8129929208	 1.043685059	 0.173585
H	-0.0555557551	-0.3892108168	-2.1316152046	 0.154161
H	 0.1469067064	-1.0346777048	 2.9033180823	 0.323541
15.2491	122.2057	150.5967	197.3177	287.3652	321.5043	407.2151	445.2412	512.4742	525.1781	612.6346	666.3202	674.7242	733.5305	757.7529	833.8431	1007.214	1077.2893	1153.8438	1172.088	1196.7649	1285.1541	1323.4992	1380.0746	1454.6718	1491.6229	1508.4814	1545.1012	1589.2668	1623.4068	2349.0876	3050.1826	3113.9823	3165.6573	3284.9069	3803.1324
CN1C=C(N=C1O)C#N	Cn1cc(nc1O)C#N	
InChI=1S/C5H5N3O/c1-8-3-4(2-6)7-5(8)9/h3H,1H3,(H,7,9)	InChI=1S/C5H5N3O/c1-8-3-4(2-6)7-5(8)9/h3H,1H3,(H,7,9)
