21
gdb 57366	2.09859	1.55322	1.19441	1.7198	84.48	-0.2389	0.0571	0.296	1164.7534	0.1784	-387.045498	-387.035119	-387.034175	-387.080484	39.942	
C	 0.2183327529	 1.5455836657	 0.1391448159	-0.427303
C	 0.0148752948	 0.0272395926	 0.0158008454	 0.253211
C	 0.4665637761	-0.6631145405	 1.3124750599	-0.434358
O	-1.3688119168	-0.2694802094	-0.2073139729	-0.45731
C	 0.7205362793	-0.4971554793	-1.2514843741	 0.18289
C	 2.1635337007	-0.9843282418	-1.2042642974	-0.3117
C	 1.054305606	-1.9743107049	-1.4022702167	-0.303956
C	 0.3281629291	 0.1702073122	-2.4693629236	 0.279044
C	 0.0310655924	 0.715724069	-3.4996993017	-0.442015
H	 1.2773302905	 1.7920448227	 0.2647978602	 0.117705
H	-0.1533905325	 2.0543382466	-0.7521808039	 0.141182
H	-0.3190573505	 1.9300083605	 1.0142019466	 0.09786
H	-0.1214287208	-0.2626094259	 2.1453329309	 0.106789
H	 0.2881553488	-1.7398352874	 1.276363344	 0.126687
H	 1.5193835333	-0.4797751445	 1.5443219672	 0.117859
H	-1.8799850935	 0.2062332586	 0.4559821539	 0.275187
H	 2.790499044	-0.7325908415	-2.0509525665	 0.126128
H	 2.6721640987	-0.9704234841	-0.2479120563	 0.116173
H	 0.801417598	-2.6365207979	-0.5839224916	 0.121433
H	 0.915651962	-2.4034716477	-2.3868567261	 0.128734
H	-0.2476285726	 1.1941626672	-4.4053556832	 0.185761
27.6712	149.8488	188.5651	211.6433	243.3402	263.3483	277.8129	288.2207	324.5429	376.9368	393.2884	440.2214	475.8402	552.0707	566.8216	592.8192	618.5408	648.8869	773.1619	826.6884	895.8708	911.4577	919.7057	946.0384	972.4711	977.8264	1018.6882	1064.4256	1084.9616	1134.5971	1184.7541	1188.8469	1205.9764	1264.9366	1301.2319	1379.2365	1397.6324	1416.3012	1459.5828	1480.6948	1485.7979	1496.4678	1505.4896	1513.3034	2231.6789	3029.5363	3042.4935	3094.2281	3104.0046	3131.2441	3137.9722	3148.622	3154.478	3230.504	3245.3459	3504.2567	3807.6326
CC(C)(O)C1(CC1)C#C	CC(C)(O)C1(CC1)C#C	
InChI=1S/C8H12O/c1-4-8(5-6-8)7(2,3)9/h1,9H,5-6H2,2-3H3	InChI=1S/C8H12O/c1-4-8(5-6-8)7(2,3)9/h1,9H,5-6H2,2-3H3
