19
gdb 122759	5.24061	0.5696	0.52038	3.3133	80.41	-0.294	-0.0518	0.2422	2081.9671	0.157974	-419.2277	-419.217495	-419.216551	-419.264243	35.126	
C	-0.1354207915	 1.5726725883	 0.0119986708	-0.381901
C	-0.0522497247	 0.0440643822	 0.0029877195	-0.169631
C	-1.4328497301	-0.6227982816	 0.0125381903	-0.18728
C	-1.3324642686	-2.1380027927	 0.0034291871	-0.067247
O	-2.6786632182	-2.6629134974	 0.013485075	-0.232857
C	-2.7962330586	-3.9907081889	 0.0072807078	 0.325875
N	-1.815583766	-4.7958589583	-0.0069715461	-0.518172
C	-4.1940506811	-4.392731446	 0.0178973785	 0.253792
N	-5.2827721646	-4.7803009071	 0.0260406535	-0.317016
H	 0.8611509833	 2.0239765074	 0.0049541031	 0.116924
H	-0.6768908735	 1.9443057062	-0.864664752	 0.118856
H	-0.6600924105	 1.9347993078	 0.9027420069	 0.118855
H	 0.5070512121	-0.2881500769	-0.8812893054	 0.102429
H	 0.5237390262	-0.2975814265	 0.8728413639	 0.102428
H	-1.9960646129	-0.307179148	 0.8990087144	 0.11203
H	-2.012805816	-0.297712614	-0.8596012737	 0.11203
H	-0.8163883166	-2.5142681462	-0.8862852865	 0.129304
H	-0.7995225284	-2.5237626924	 0.8790255952	 0.129289
H	-2.1277345505	-5.7639899259	-0.0097552924	 0.252292
50.6241	67.0795	83.0885	128.5035	160.1481	180.6478	248.6661	255.3099	344.9896	351.7547	424.607	548.7465	611.5021	733.231	745.5816	807.1188	855.7444	880.5814	927.7777	949.7573	987.8998	1040.6686	1072.5159	1116.2666	1147.6676	1190.3854	1252.147	1294.1918	1308.1456	1327.8246	1359.027	1389.9831	1415.8854	1429.9308	1488.816	1494.9685	1500.6487	1506.9671	1518.8388	1701.5002	2356.24	3017.4073	3031.3878	3035.2294	3044.4039	3047.7156	3069.7403	3096.466	3102.6758	3107.6933	3533.9556
CCCCOC(=N)C#N	CCCCO[C]([NH])C#N	
InChI=1S/C6H10N2O/c1-2-3-4-9-6(8)5-7/h8H,2-4H2,1H3	InChI=1S/C6H10N2O/c1-2-3-4-9-6(8)5-7/h8H,2-4H2,1H3
