17
gdb 9009	6.24266	0.82345	0.75578	4.4378	77.9	-0.2603	0.0284	0.2887	1479.2196	0.140144	-326.728182	-326.718508	-326.717564	-326.76391	32.662	
C	 0.0333994672	 1.4911612153	 0.0259654451	-0.498567
C	 0.0332845636	 0.0357646741	-0.0192712606	 0.107975
C	 0.0507935109	-1.1677997535	-0.0562396547	 0.028334
C	 0.0494024067	-2.6246362365	-0.0895669276	-0.354048
C	-1.3895435959	-3.2183743374	-0.0419231422	-0.132419
C	-2.2354676772	-2.8165866969	-1.2629367653	-0.388302
C	-1.3138807232	-4.6774542996	 0.0825348443	 0.264471
N	-1.2427981855	-5.8276118587	 0.1727900859	-0.321984
H	 0.8684343258	 1.8680617384	 0.6264918923	 0.15308
H	 0.1246146497	 1.9215831909	-0.9772025057	 0.151123
H	-0.8920253097	 1.8748953864	 0.4690811277	 0.150624
H	 0.5480092453	-2.9872784347	-0.9970996198	 0.143478
H	 0.6234573069	-3.0207369412	 0.7558961925	 0.147054
H	-1.8752608943	-2.8401050564	 0.8653276947	 0.136829
H	-2.2808477523	-1.7272466184	-1.3277510511	 0.140558
H	-1.791788394	-3.2031709299	-2.1850854263	 0.135326
H	-3.2512176638	-3.210193412	-1.1807539293	 0.136467
32.2165	56.4011	84.5105	171.509	214.4957	223.2871	251.1839	297.4188	351.8644	386.4135	478.3848	537.3098	564.7882	773.0766	824.2231	891.7956	920.3042	1052.2039	1052.9777	1064.0077	1096.3976	1130.8536	1170.642	1243.0497	1296.1782	1333.202	1366.191	1410.5814	1415.4102	1473.6959	1477.6506	1478.5775	1496.3102	1499.0609	2356.2485	2373.0738	3028.9056	3029.3813	3044.8268	3051.7869	3068.1103	3090.9318	3091.499	3126.5193	3138.7209
CC#CCC(C)C#N	CC#CC[C@@H](C)C#N	
InChI=1S/C7H9N/c1-3-4-5-7(2)6-8/h7H,5H2,1-2H3	InChI=1S/C7H9N/c1-3-4-5-7(2)6-8/h7H,5H2,1-2H3/t7-/m1/s1
