24
gdb 10225	3.10496	0.97758	0.79539	1.4413	82.41	-0.2628	0.0764	0.3392	1532.415	0.221543	-351.41203	-351.401132	-351.400187	-351.448574	38.557	
C	-0.5724562314	 1.0861307494	 1.0464795292	-0.378817
C	-0.3909582574	-0.3802297419	 0.6439494482	-0.171324
C	 0.4945573442	-0.5530655701	-0.5961274344	-0.182085
C	 0.6848653453	-2.0165085247	-1.0482241845	 0.036558
C	-0.5786269982	-2.5621675875	-1.7523660128	-0.165863
C	-0.7430087678	-4.0859607591	-1.7202557518	-0.384586
C	 1.9333648923	-2.1030468506	-1.9302236837	-0.084642
O	 2.2043721121	-3.4576241683	-2.2655517212	-0.418758
H	 0.3915625671	 1.5606730834	 1.2618604071	 0.112183
H	-1.0499394769	 1.6607841947	 0.2448783767	 0.11304
H	-1.1967364475	 1.1808997796	 1.9405454001	 0.110595
H	 0.0532345327	-0.9373739692	 1.479285747	 0.095248
H	-1.3752290079	-0.8313594833	 0.4696064361	 0.100727
H	 0.0755561011	 0.0303727573	-1.4286497894	 0.090112
H	 1.4755842389	-0.1074517604	-0.3808981421	 0.084576
H	 0.8793867038	-2.6281292554	-0.1551299915	 0.074124
H	-1.4634940814	-2.1078788745	-1.2908604275	 0.089903
H	-0.5746027589	-2.2119557978	-2.7941035482	 0.087835
H	-1.667524799	-4.3868670574	-2.2247225707	 0.098592
H	 0.0982038323	-4.5826139936	-2.2050179725	 0.140621
H	-0.7977886885	-4.4494485286	-0.6875935628	 0.105303
H	 1.7742686399	-1.4969332086	-2.8386459363	 0.081042
H	 2.786937664	-1.6621949008	-1.390439501	 0.080575
H	 2.9622705911	-3.4739614425	-2.856838274	 0.28504
51.6619	66.6794	87.9212	118.0655	175.9854	223.9839	244.2736	254.0606	262.9686	316.4081	325.2208	366.4851	448.7726	559.3696	737.6022	767.1623	814.0711	879.8687	899.0098	979.6272	983.9168	1015.513	1047.4453	1052.9292	1071.3093	1082.8138	1127.7392	1169.2737	1186.9573	1238.0415	1261.4815	1265.1736	1298.9865	1314.8974	1326.889	1342.6946	1363.7183	1391.0363	1400.4206	1409.6662	1413.0108	1460.8227	1482.8741	1487.7722	1493.6645	1495.6803	1499.9093	1510.669	1516.4705	1519.9352	2951.4274	2980.1445	2999.4001	3002.6216	3014.5863	3020.4406	3028.235	3031.9144	3032.5792	3050.2445	3060.1758	3089.8562	3095.2562	3100.5021	3147.1735	3830.4737
CCCC(CC)CO	CCC[C@@H](CC)CO	
InChI=1S/C7H16O/c1-3-5-7(4-2)6-8/h7-8H,3-6H2,1-2H3	InChI=1S/C7H16O/c1-3-5-7(4-2)6-8/h7-8H,3-6H2,1-2H3/t7-/m1/s1
