15
gdb 126067	4.01157	1.14982	1.02378	4.0277	69.52	-0.2689	-0.0492	0.2197	1150.6829	0.111575	-453.901506	-453.893699	-453.892755	-453.934608	28.23	
C	 0.0621843614	 1.5439386277	-0.3083668034	-0.440311
C	-0.0236353387	 0.0791650685	 0.024624085	 0.081728
O	 1.1788337459	-0.6900455003	 0.0050671821	-0.240289
C	 0.5110852522	-0.5485202093	 1.2584742239	-0.084354
C	 1.2062002216	 0.1721888744	 2.3369185016	 0.432155
C	 1.1300138393	 0.0326098253	 3.6919345929	-0.204038
N	 1.9765494341	 0.9640471931	 4.2387907684	-0.105936
N	 2.5472756391	 1.6321616446	 3.3442150854	-0.005381
O	 2.07215897	 1.1465106204	 2.0687687317	-0.220343
H	 0.9150061361	 2.0185451921	 0.1769296808	 0.16086
H	 0.1626833071	 1.6687126892	-1.3913443295	 0.137832
H	-0.8560165178	 2.0530247059	 0.0029175236	 0.129091
H	-0.8745205272	-0.4441199784	-0.4177340631	 0.103025
H	 0.0161716831	-1.4511913253	 1.6171072687	 0.111679
H	 0.5527820338	-0.6452535978	 4.2966778619	 0.144282
52.8929	132.191	163.1891	191.4034	280.4075	379.4053	430.2111	494.8645	601.7778	694.1949	720.0455	746.4174	798.1706	822.1138	859.3877	976.4893	986.5967	1020.3331	1055.0594	1086.6089	1123.2823	1161.4985	1169.596	1250.4028	1294.2415	1360.23	1394.7837	1419.5247	1444.6161	1471.317	1490.435	1501.4705	1601.8568	3045.5435	3084.2818	3105.6415	3112.572	3160.6268	3292.2215
CC1OC1C1=CN=NO1	C[C@H]1O[C@H]1c1cnno1	
InChI=1S/C5H6N2O2/c1-3-5(8-3)4-2-6-7-9-4/h2-3,5H,1H3	InChI=1S/C5H6N2O2/c1-3-5(8-3)4-2-6-7-9-4/h2-3,5H,1H3/t3-,5-/m1/s1
