16
gdb 128119	1.97008	1.71629	0.95563	4.0084	70.72	-0.216	-0.0133	0.2027	1188.3182	0.123247	-471.177557	-471.168378	-471.167434	-471.211936	32.114	
C	 0.0298328717	 1.3371655764	 0.2436689085	-0.332319
N	-0.0337252688	-0.1008159385	 0.0450059176	-0.380225
C	-1.2032671962	-0.7727241727	-0.0011700385	 0.455657
C	-1.4099404674	-2.1513480369	-0.0058378456	 0.098151
C	-0.3811998047	-3.2291984397	 0.0352249824	-0.200773
O	 0.6564521987	-2.9279146238	 0.9793678921	-0.417195
N	-2.7549892143	-2.3231922705	-0.0661734516	-0.135008
N	-3.4074859424	-1.26886745	-0.1100505395	-0.067206
O	-2.3468663923	-0.1368864984	-0.0588798099	-0.259188
H	 1.0472040388	 1.6749627535	 0.0371828553	 0.136765
H	-0.6502064099	 1.8333657653	-0.4517627528	 0.160134
H	-0.2434751343	 1.6378157758	 1.2638528363	 0.13421
H	 0.7451116136	-0.6697575375	 0.3473338704	 0.267073
H	-0.8648043143	-4.1915892566	 0.2454472843	 0.126377
H	 0.148023971	-3.3296764612	-0.9197717553	 0.125936
H	 0.2454850109	-2.8919929853	 1.8507210761	 0.28761
92.3157	109.0736	113.8496	138.9627	188.4888	258.6439	291.0467	333.3529	399.8209	442.1596	528.6705	606.9848	654.018	681.8121	756.2547	810.3552	951.0185	969.4552	1025.1578	1075.9034	1148.4894	1168.9482	1183.7368	1245.4291	1309.3806	1376.5992	1409.9524	1448.987	1461.6633	1486.3156	1496.4618	1503.8718	1516.1524	1527.7281	1650.9564	3016.9475	3023.5318	3061.5581	3101.8107	3142.8305	3593.2596	3797.4076
CNC1=C(CO)N=NO1	CNc1c(CO)nno1	
InChI=1S/C4H7N3O2/c1-5-4-3(2-8)6-7-9-4/h5,8H,2H2,1H3	InChI=1S/C4H7N3O2/c1-5-4-3(2-8)6-7-9-4/h5,8H,2H2,1H3
