19
gdb 84779	2.19979	1.58144	1.25736	2.1286	76.4	-0.2505	-0.0231	0.2273	1085.5562	0.157981	-423.045959	-423.03695	-423.036006	-423.079746	33.885	
C	-0.3458778421	 1.7298943004	 0.3317956218	-0.439822
C	 0.0298737871	 0.2553105274	 0.1276237539	 0.14621
C	 0.9569102826	-0.0161284994	-1.0805804573	-0.313854
C	 1.9064403026	-1.0708127368	-0.573082163	-0.052755
C	 1.7853122247	-1.2860929173	 0.7364708703	-0.113126
C	 0.7867759499	-0.3545620212	 1.3755317932	 0.051732
O	 1.4174585622	 0.6049869009	 2.2183410934	-0.426812
C	-1.2714032716	-0.5284447256	-0.012646087	 0.143927
O	-1.59369147	-1.2155291045	-0.9460510249	-0.252162
H	 0.5400484655	 2.3186763736	 0.5781407504	 0.120509
H	-0.8011008145	 2.1425682928	-0.5740583802	 0.122583
H	-1.0539662755	 1.8519791732	 1.1579489685	 0.124988
H	 0.3744622138	-0.3673984021	-1.9379897313	 0.136488
H	 1.4931416867	 0.886236108	-1.4018457919	 0.101433
H	 2.602291261	-1.5855580419	-1.2272158733	 0.10385
H	 2.3672028567	-1.9847730734	 1.3266451293	 0.102246
H	 0.0818419452	-0.8657665766	 2.0422217344	 0.085685
H	 2.224185852	 0.8895680282	 1.7741354445	 0.278363
H	-1.9484111761	-0.4086100456	 0.8661392191	 0.080519
69.7353	77.2739	194.7503	230.9687	264.7857	302.6637	331.9916	359.561	376.981	413.7911	517.1552	575.875	672.7439	748.3092	777.0274	800.8925	873.1856	928.782	961.6341	971.2672	985.9644	997.5167	1009.4289	1060.3164	1128.0414	1133.7071	1156.4257	1209.3032	1247.214	1256.3329	1306.3488	1344.6124	1368.5073	1404.8953	1421.9143	1441.2438	1472.7352	1488.4417	1492.8031	1682.5807	1829.0844	2852.6012	3024.3174	3034.2801	3039.6378	3082.7039	3105.2206	3127.0865	3183.8485	3210.2527	3798.7115
CC1(CC=CC1O)C=O	C[C@]1(CC=C[C@H]1O)C=O	
InChI=1S/C7H10O2/c1-7(5-8)4-2-3-6(7)9/h2-3,5-6,9H,4H2,1H3	InChI=1S/C7H10O2/c1-7(5-8)4-2-3-6(7)9/h2-3,5-6,9H,4H2,1H3/t6-,7+/m1/s1
