15
gdb 75627	2.07295	1.83385	1.12874	1.0195	61.55	-0.2492	-0.0556	0.1936	1043.437	0.109251	-494.857156	-494.848183	-494.847239	-494.891064	31.751	
O	 0.6351824496	 0.724206508	-0.8185400143	-0.426577
C	 0.1294864425	-0.3665625639	-0.1145908072	-0.027215
C	 0.0752016374	-0.2615696343	 1.4155355607	 0.277858
O	 0.5874956219	 0.5251095947	 2.1661479839	-0.311096
C	-1.2582912261	-1.0151005598	 1.5116515031	-0.027217
O	-2.1730225555	-0.5886661977	 2.4720546683	-0.426469
C	-1.3974161931	-0.601461582	 0.0232428323	 0.34289
C	-2.4769713079	 0.1573975441	-0.5953478913	-0.254682
O	-2.2219705078	-1.2238337347	-0.9285379448	-0.273008
H	 0.7934997387	 1.4323986111	-0.1811392849	 0.298832
H	 0.6140569535	-1.2891547156	-0.4605383676	 0.127576
H	-1.1277272531	-2.1031407823	 1.5805352911	 0.127682
H	-1.817937713	 0.2143850986	 2.8743932346	 0.298815
H	-3.3898993842	 0.3350127284	-0.0312464025	 0.136281
H	-2.2393280631	 0.8727211952	-1.3795834414	 0.136331
86.2499	105.0252	164.4066	192.7474	197.6446	248.8007	253.2121	298.6162	412.155	531.6901	534.734	634.4779	652.2814	782.6781	832.7915	876.7733	918.6193	951.6959	1042.3837	1060.6952	1071.8527	1127.224	1150.2587	1176.7678	1216.1441	1228.1018	1308.9736	1355.561	1397.9958	1411.6609	1438.8025	1528.4158	1864.2679	3025.8501	3036.7473	3099.7393	3197.2542	3770.1581	3772.3634
OC1C(=O)C(O)C11CO1	O[C@H]1C(=O)[C@@H](O)[C@]21CO2	
InChI=1S/C5H6O4/c6-2-3(7)5(1-9-5)4(2)8/h3-4,7-8H,1H2	InChI=1S/C5H6O4/c6-2-3(7)5(1-9-5)4(2)8/h3-4,7-8H,1H2/t3-,4+,5+
