21
gdb 119016	1.83099	1.20348	0.83077	1.2272	83.86	-0.2585	0.0468	0.3053	1472.4122	0.179563	-387.044115	-387.033855	-387.032911	-387.080258	37.46	
C	 0.8102372474	 1.2798127744	-0.1592225742	-0.382521
C	 0.1474413284	-0.0708878569	 0.1235435469	-0.170057
C	 0.9836062547	-0.9493104236	 1.0657257141	-0.252928
C	 0.3013705616	-2.2451905752	 1.4602682673	 0.418146
C	 0.033943486	-3.2655515341	 0.3512445732	-0.428225
C	 1.2517748298	-3.7577882204	-0.282119123	 0.313028
C	 2.2659979741	-4.1521552797	-0.7926182913	-0.460777
C	 0.3911027774	-2.733329218	 2.842612979	-0.227774
O	-0.8017702284	-2.0998574519	 2.3643267305	-0.282449
H	 1.7913449624	 1.1503279784	-0.6296407282	 0.115323
H	 0.1975414606	 1.8902075794	-0.8297050754	 0.113055
H	 0.9595728802	 1.8481851515	 0.7654875139	 0.115611
H	-0.840597854	 0.0860662303	 0.5723767582	 0.113527
H	-0.0197428765	-0.5945165938	-0.8255924642	 0.100264
H	 1.9475820308	-1.1866867423	 0.5992063289	 0.114398
H	 1.2003795564	-0.3867030163	 1.9808933437	 0.099062
H	-0.5327478911	-4.0982710354	 0.7821210472	 0.138451
H	-0.6178501813	-2.8111617205	-0.4051670655	 0.139207
H	 3.1568952109	-4.5080023061	-1.2477289605	 0.198348
H	 0.3034255789	-3.7992875467	 3.0495686123	 0.112937
H	 0.9578209817	-2.1645105732	 3.5782896972	 0.113372
33.7797	80.8158	99.0816	142.5821	174.8738	250.3751	298.2597	336.0097	348.2653	379.089	408.9552	448.6793	563.2709	625.3092	646.8078	740.7242	763.3297	836.4185	887.5228	892.3386	914.0242	947.1294	972.0808	1010.605	1050.6348	1098.6457	1118.6356	1136.6279	1165.0744	1196.0352	1248.0179	1292.9172	1307.1295	1326.6174	1340.512	1384.7588	1413.1018	1430.8518	1472.2391	1472.9886	1492.8107	1500.2979	1509.2952	1531.4855	2238.5953	3025.1441	3029.1487	3033.774	3036.5136	3057.0431	3071.4484	3079.4427	3081.7065	3099.6006	3103.7922	3168.0563	3505.7513
CCCC1(CC#C)CO1	CCC[C@@]1(CC#C)CO1	
InChI=1S/C8H12O/c1-3-5-8(6-4-2)7-9-8/h1H,4-7H2,2H3	InChI=1S/C8H12O/c1-3-5-8(6-4-2)7-9-8/h1H,4-7H2,2H3/t8-/m0/s1
