16
gdb 22791	2.69575	1.47145	1.06297	2.5954	74.61	-0.2384	-0.0524	0.186	1114.2048	0.123764	-437.865813	-437.857619	-437.856675	-437.899215	30.447	
O	-0.0181355623	 1.330300946	 0.0404011225	-0.369551
N	 0.0310866211	-0.0560368391	 0.0366628533	-0.174889
C	-1.1177772298	-0.6183327321	 0.0376295595	 0.268283
C	-1.1450039019	-2.1290495406	 0.012392996	-0.340555
C	-2.2413471758	-2.6624983108	-0.8729037134	-0.059835
C	-3.25032449	-1.9243916911	-1.3298743516	-0.059013
C	-3.4400151319	-0.4655874588	-1.0102478937	-0.367313
C	-2.453282205	 0.0889139684	 0.0127039836	 0.333375
O	-2.7269022885	 1.0136000662	 0.7381473443	-0.292254
H	 0.9150082636	 1.5664518114	-0.0069146478	 0.312191
H	-0.1621599945	-2.4930218393	-0.3047014491	 0.133896
H	-1.2891036204	-2.5110860593	 1.0357205355	 0.13508
H	-2.1834581777	-3.717078169	-1.1282242149	 0.098915
H	-4.0065159643	-2.3782098139	-1.9651745598	 0.097988
H	-3.3260879928	 0.1408179835	-1.9232266431	 0.1457
H	-4.4522692397	-0.2558092817	-0.6459375113	 0.137983
50.7655	82.2536	209.2094	267.6043	292.6099	379.8438	431.2056	448.4127	451.7936	531.3783	608.4772	636.9808	666.4553	689.092	886.4671	922.4908	936.3528	973.3318	987.0904	1007.7806	1024.5009	1107.8447	1166.4045	1194.7478	1205.0408	1272.8753	1331.0789	1342.5925	1407.2606	1415.2355	1441.3168	1465.9436	1700.7745	1734.0363	1809.1907	2984.1111	2992.9422	3061.7723	3070.0918	3152.9529	3175.7944	3809.8955
ON=C1CC=CCC1=O	ON=C1CC=CCC1=O	
InChI=1S/C6H7NO2/c8-6-4-2-1-3-5(6)7-9/h1-2,9H,3-4H2	InChI=1S/C6H7NO2/c8-6-4-2-1-3-5(6)7-9/h1-2,9H,3-4H2
