14
gdb 7235	5.0268	1.12147	0.93688	4.7495	60.96	-0.2526	-0.0683	0.1843	1155.6276	0.104758	-415.889306	-415.880626	-415.879682	-415.923825	29.753	
N	-0.0092907618	 1.3539642843	-0.0921643764	-0.535488
C	 0.0763938496	-0.0033141789	-0.0160766916	 0.269548
N	 1.0979144922	-0.7573339526	 0.1528889631	-0.507338
C	-1.2796062077	-0.6758792899	-0.1843853063	 0.371667
O	-2.2891329235	-0.0038321682	-0.2060616377	-0.318016
C	-1.2999151335	-2.1819638783	-0.3214253771	-0.387481
C	-2.6702185545	-2.7694309829	-0.0459866794	 0.174039
O	-3.1716427411	-3.640354466	-0.7061848655	-0.240333
H	 0.7631769705	 1.9284502677	 0.1977366183	 0.257903
H	-0.9373337345	 1.7486842967	-0.0665215792	 0.274789
H	 1.9583098074	-0.217184041	 0.2656869617	 0.212636
H	-0.9758472953	-2.4626651003	-1.3298627875	 0.163368
H	-0.5557335912	-2.6105869072	 0.360503535	 0.174415
H	-3.1832897366	-2.3503989734	 0.8459270427	 0.090293
40.3508	63.1652	85.5083	183.2489	290.2786	299.7754	368.8431	397.9491	468.9552	526.1191	542.3022	611.406	686.2105	757.8166	844.7568	879.2032	1022.1934	1053.3039	1077.2627	1108.291	1142.3505	1182.8272	1316.4419	1411.194	1431.2854	1436.579	1603.1188	1718.2082	1786.2943	1840.2499	2905.4181	3053.5639	3092.6153	3451.0299	3585.858	3719.3116
NC(=N)C(=O)CC=O	NC(=N)C(=O)CC=O	
InChI=1S/C4H6N2O2/c5-4(6)3(8)1-2-7/h2H,1H2,(H3,5,6)	InChI=1S/C4H6N2O2/c5-4(6)3(8)1-2-7/h2H,1H2,(H3,5,6)
