17
gdb 81555	4.39459	1.23127	1.09063	2.8011	68.13	-0.2426	0.0553	0.2979	1104.4926	0.135414	-458.861627	-458.854183	-458.853239	-458.893728	29.093	
O	-0.027038865	 1.470935021	-0.2042971222	-0.453398
C	 0.0469430744	 0.089925978	-0.1097609096	 0.199441
C	 0.0581590878	-0.5398303814	 1.3165542503	-0.106917
O	-1.3572205141	-0.0892501568	 1.4570317436	-0.342126
C	-1.28432626	-0.6953291846	 0.0956306525	-0.106912
C	-0.4684040746	-1.8546167124	 0.7045700804	 0.547138
C	 0.3313487369	-2.9382224523	-0.0368611051	-0.387976
C	-0.4139945793	-3.9035426391	 0.9053457572	-0.084519
O	-1.115441284	-2.8071434942	 1.5373372635	-0.316801
H	-0.671408592	 1.7323960236	 0.4709234412	 0.289626
H	 0.7618981611	-0.2769429227	-0.8491763283	 0.09438
H	 0.7252741986	-0.3693838311	 2.1616547115	 0.100748
H	-2.1987637177	-0.7080716377	-0.4976072121	 0.100749
H	 0.1018558819	-3.0436010187	-1.0986289632	 0.122044
H	 1.4137720186	-2.891819346	 0.0947918463	 0.122047
H	-1.106477892	-4.6023269665	 0.4233822419	 0.111235
H	 0.2100684196	-4.4502317092	 1.6207419622	 0.111239
77.6509	154.8913	223.9973	283.3462	324.4849	430.3972	468.3948	563.7292	584.8329	723.1046	733.9262	774.2475	797.1104	853.6621	870.3791	903.9535	910.8815	966.3055	1019.6816	1048.2927	1079.7165	1096.61	1123.2973	1146.8877	1164.0922	1164.9799	1182.5205	1183.2012	1219.2803	1236.801	1253.7866	1316.5183	1342.8843	1355.6269	1454.4332	1483.7165	1531.4843	3031.0827	3074.1007	3078.2229	3098.4463	3121.9905	3128.577	3132.9397	3725.6067
OC1C2OC1C21CCO1	O[C@H]1[C@H]2O[C@@H]1[C@]12CCO1	
InChI=1S/C6H8O3/c7-3-4-6(1-2-8-6)5(3)9-4/h3-5,7H,1-2H2	InChI=1S/C6H8O3/c7-3-4-6(1-2-8-6)5(3)9-4/h3-5,7H,1-2H2/t3-,4+,5-,6+
