18
gdb 11235	5.15963	1.24244	1.05479	0.9136	80.46	-0.2326	0.0273	0.2599	1132.4152	0.153196	-310.658209	-310.650032	-310.649088	-310.690672	30.904	
C	-0.0046899244	 1.5028043819	 0.0451259428	-0.493207
C	 0.0252326102	 0.0086041103	-0.0173420444	 0.33204
C	-0.0069994501	-0.7603130179	-1.10789142	-0.168131
C	-0.0235612644	-2.2334069752	-0.7878674832	-0.25997
C	 0.3898819182	-2.2592585196	 0.7175412177	-0.156809
C	 0.0388051311	-0.8344134284	 1.2415390874	-0.305606
C	-0.1912597368	-3.3489805366	 1.4867557372	 0.310261
C	-0.6842496314	-4.2452816498	 2.1192311867	-0.461672
H	 0.8754622058	 1.8970040298	 0.5690744294	 0.124356
H	-0.0351028972	 1.9480508616	-0.9530373361	 0.12326
H	-0.8809571832	 1.858011631	 0.6028985125	 0.126194
H	-0.0629637477	-0.3854800768	-2.124790806	 0.085604
H	-1.0250217734	-2.6621690862	-0.9265579473	 0.116202
H	 0.6589003436	-2.8281596085	-1.4041912117	 0.108182
H	 1.4821087543	-2.3554958445	 0.749712146	 0.107014
H	 0.7592184807	-0.4856948267	 1.9900494716	 0.105789
H	-0.946004296	-0.822885329	 1.7281499146	 0.115567
H	-1.1141726994	-5.0387284753	 2.6783482528	 0.190924
72.9267	143.2332	180.9193	232.4123	260.5552	314.602	445.903	476.3165	522.1238	551.6222	618.9743	626.3931	641.8896	822.569	838.494	878.6128	921.3286	958.8769	1013.0274	1033.3409	1043.3571	1062.1041	1075.0021	1147.9642	1194.0325	1200.573	1279.1094	1297.1362	1308.1773	1338.6976	1358.1156	1414.3228	1478.3596	1485.5246	1489.3283	1495.6666	1724.6354	2234.5121	3013.9312	3017.4323	3019.388	3026.378	3059.6844	3061.2595	3067.6332	3109.549	3183.3202	3505.8309
CC1=CCC(C1)C#C	CC1=CC[C@@H](C1)C#C	
InChI=1S/C8H10/c1-3-8-5-4-7(2)6-8/h1,4,8H,5-6H2,2H3	InChI=1S/C8H10/c1-3-8-5-4-7(2)6-8/h1,4,8H,5-6H2,2H3/t8-/m0/s1
