23
gdb 108481	2.01372	1.64642	1.23319	0.9794	85.05	-0.2344	0.0784	0.3128	1176.5399	0.204923	-388.261249	-388.251746	-388.250802	-388.295723	36.08	
C	 0.0894744903	 1.3712082483	-0.0900562216	-0.262291
O	 0.0513306435	-0.0404723226	-0.0693867286	-0.29177
C	-1.2372063673	-0.5730899593	 0.0467500433	 0.436767
C	-1.9024887408	-0.4794566535	 1.4569670825	-0.297836
C	-1.979877096	-2.0376120134	 1.513810614	-0.221639
C	-1.4158841983	-2.1242240684	 0.0746829248	-0.084162
C	-2.4848659488	-1.9971285468	-1.0472466338	-0.258242
C	-2.1757131088	-0.4724670197	-1.1963535192	-0.015987
C	-3.3428264165	 0.5041372542	-1.2415548046	-0.420904
H	 1.1412641	 1.6653220913	-0.1266225102	 0.124732
H	-0.4208687817	 1.7840247472	-0.9725640974	 0.107858
H	-0.3678033292	 1.809088543	 0.8098185269	 0.106085
H	-1.2246182746	-0.0508341204	 2.1986519994	 0.106717
H	-2.8561698954	 0.0508514258	 1.5136566115	 0.093894
H	-1.3146143347	-2.4660705292	 2.2672607756	 0.10227
H	-2.9763649092	-2.4659805003	 1.6538709452	 0.093685
H	-0.5827888397	-2.801212846	-0.1132971323	 0.068523
H	-2.2966878062	-2.5919785362	-1.9436571097	 0.100598
H	-3.5030303529	-2.2109846822	-0.7057986124	 0.092118
H	-1.5284596107	-0.3176108292	-2.0669584841	 0.076665
H	-4.020662305	 0.3642879867	-0.3925485329	 0.114656
H	-3.0053938765	 1.5463111301	-1.2294146077	 0.113015
H	-3.9327058316	 0.3584112608	-2.153684259	 0.11525
44.4498	104.9814	173.3549	189.2393	198.4269	241.1934	306.2348	329.5047	402.7718	430.1689	473.105	588.5933	627.616	741.1914	771.182	823.0474	870.8248	877.663	927.58	946.1311	979.0268	1001.6955	1025.3579	1052.6535	1098.3391	1128.6321	1136.5381	1160.2634	1175.9659	1179.7232	1185.1576	1214.0835	1231.3722	1240.5327	1244.9756	1269.079	1283.9299	1300.4662	1318.8504	1367.4399	1406.552	1464.365	1480.4557	1481.6823	1488.399	1491.0852	1497.3849	1500.9529	1507.6456	2982.7034	3024.0692	3030.3017	3039.419	3046.1963	3054.1048	3064.6651	3088.272	3092.5351	3097.4345	3101.2438	3112.38	3115.035	3122.3675
COC12CCC1CC2C	CO[C@]12CC[C@H]1C[C@H]2C	
InChI=1S/C8H14O/c1-6-5-7-3-4-8(6,7)9-2/h6-7H,3-5H2,1-2H3	InChI=1S/C8H14O/c1-6-5-7-3-4-8(6,7)9-2/h6-7H,3-5H2,1-2H3/t6-,7+,8+/m1/s1
