13
gdb 43523	2.61814	1.48758	1.05794	2.9048	65.74	-0.2838	-0.0135	0.2703	1075.1406	0.089255	-452.763164	-452.755389	-452.754444	-452.796021	28.524	
N	-0.0238575293	 1.2709572035	-0.0866878136	-0.507204
C	 0.0001420737	 0.0207033639	-0.0204708504	 0.415176
O	 1.1188164674	-0.7744413548	 0.0153085418	-0.225928
C	 0.7619526319	-2.1261707808	 0.0132442294	 0.48461
O	 1.5619438206	-3.0063404704	 0.0922903842	-0.358627
N	-0.598130534	-2.1890648815	-0.1221105671	-0.354647
C	-1.2361222798	-0.8877353577	 0.0191719498	-0.248369
C	-2.0167339786	-0.7454223618	 1.2457810413	 0.347493
C	-2.6712484038	-0.6629174032	 2.2486513292	-0.44821
H	 0.9183663367	 1.6629641996	-0.1054358767	 0.244769
H	-1.0702577119	-3.0484830291	 0.1071441161	 0.278559
H	-1.8674625559	-0.6562097154	-0.8465650585	 0.155771
H	-3.2443184671	-0.5743383523	 3.1391200646	 0.216607
64.1687	137.6349	140.9569	246.2569	359.9215	419.2107	451.6225	490.4099	575.3444	634.2289	651.4718	667.3171	680.3366	747.394	767.7671	878.3766	903.7434	942.4483	999.9123	1074.8071	1105.933	1182.5606	1263.4342	1332.0119	1369.8838	1411.9147	1803.7476	1933.6665	2245.6068	3041.839	3492.336	3499.8612	3662.361
N=C1OC(=O)NC1C#C	[NH][C]1OC(=O)N[C@H]1C#C	
InChI=1S/C5H4N2O2/c1-2-3-4(6)9-5(8)7-3/h1,3,6H,(H,7,8)	InChI=1S/C5H4N2O2/c1-2-3-4(6)9-5(8)7-3/h1,3,6H,(H,7,8)/t3-/m0/s1
