19
gdb 106478	2.65939	1.64084	1.25153	2.4077	75.27	-0.2082	-0.0128	0.1954	1054.8954	0.160837	-419.17319	-419.165171	-419.164227	-419.205607	31.299	
C	-0.0597031416	 1.4768902255	-0.0901300159	-0.348335
N	 0.0858998536	 0.0210628523	-0.0255820212	-0.393904
C	 0.6811577795	-0.5004119584	 1.1497622042	 0.231713
C	 0.0968804215	-0.567240462	 2.6304252232	-0.24453
N	 1.0876288226	-1.6869163935	 2.848350787	-0.121803
C	 0.8697805297	-2.028327819	 1.389652358	-0.234007
C	 2.3658489125	-0.9266115243	 2.7548866169	-0.280684
C	 2.096863781	-0.0478838456	 1.5169160558	 0.415007
O	 2.8045320303	 0.7657706348	 0.9864310941	-0.337549
H	 0.9288487074	 1.9370192503	-0.0604289149	 0.164721
H	-0.5339676185	 1.7418556763	-1.0387535635	 0.119964
H	-0.6677947392	 1.9016601056	 0.7264145609	 0.095522
H	-0.8056652524	-0.4307999779	-0.1956696706	 0.219025
H	 0.2042633598	 0.2853319746	 3.3063053947	 0.111215
H	-0.9270555338	-0.9493911163	 2.6552594871	 0.110577
H	-0.0581601062	-2.5944530232	 1.2689780903	 0.111729
H	 1.6962526951	-2.5467669035	 0.8956681787	 0.117185
H	 2.5424504269	-0.3352694606	 3.6579588349	 0.131273
H	 3.2172102418	-1.5967762051	 2.6051279702	 0.132882
104.0455	142.4138	183.8134	213.8381	304.3026	408.7933	441.3008	455.5478	510.8444	617.4329	626.5538	640.4377	717.1506	789.1816	836.2985	862.3459	922.9619	961.9695	974.3905	1006.6661	1019.9189	1043.0784	1077.1682	1087.5315	1132.4936	1163.0621	1204.1339	1212.1712	1224.3656	1228.9994	1254.5558	1295.0824	1378.2908	1460.5819	1467.2299	1483.7601	1496.4726	1503.5172	1524.3827	1531.3803	1864.23	2961.0674	3049.0941	3053.2677	3061.9416	3087.8441	3109.9436	3113.6405	3118.1632	3146.3529	3525.3993
CNC12CN(C1)CC2=O	CN[C@@]12CN(C1)CC2=O	
InChI=1S/C6H10N2O/c1-7-6-3-8(4-6)2-5(6)9/h7H,2-4H2,1H3	InChI=1S/C6H10N2O/c1-7-6-3-8(4-6)2-5(6)9/h7H,2-4H2,1H3
