21
gdb 67024	2.10264	2.04802	1.60042	0.5323	86.51	-0.2157	0.0226	0.2384	997.8094	0.182884	-349.94067	-349.932549	-349.931604	-349.972481	33.256	
C	-0.0527506194	 1.5399237466	-0.0619082857	-0.519652
C	-0.0230269077	 0.0435764237	 0.0133032201	 0.312087
C	 0.4594264451	-1.0101258129	-0.9557513263	-0.128431
C	 1.2894168201	-1.6886937702	 0.1211639941	-0.256966
C	 0.4906213972	-0.8587801412	 1.2103275595	 0.230744
C	 1.2880117282	-0.2418737234	 2.3415554575	-0.49875
C	-0.7096669782	-1.7058755815	 1.5819269188	-0.14075
C	-1.5471370643	-1.7762285206	 0.5420777664	-0.091844
C	-1.0413971532	-0.9091233662	-0.5563079073	-0.129692
H	 0.9331613796	 1.9768772287	 0.1349096935	 0.117376
H	-0.3648509625	 1.8680588011	-1.0592534586	 0.118896
H	-0.7563182836	 1.9658656616	 0.6633199789	 0.122023
H	 0.7348012221	-0.9004192739	-1.9989478275	 0.079885
H	 1.2654881889	-2.7803564014	 0.2101896703	 0.086701
H	 2.3275505514	-1.3464965437	 0.0706712286	 0.096242
H	 2.1320603746	 0.3453940368	 1.964671999	 0.11221
H	 0.6650086051	 0.4189002267	 2.9547240278	 0.117337
H	 1.6949969539	-1.0182792945	 2.999605117	 0.116213
H	-0.7674569256	-2.2795191208	 2.5001382231	 0.087853
H	-2.4347707529	-2.3924772936	 0.4666590532	 0.091996
H	-1.6950455886	-0.5659134214	-1.3512645022	 0.076522
176.9459	193.6568	203.9352	215.9623	292.041	334.2405	384.9699	435.7671	525.0668	586.8649	618.5079	702.9568	729.3948	763.6178	781.639	830.869	865.0311	886.7416	904.0273	932.8933	968.3288	971.1938	1004.5143	1026.4276	1051.5664	1087.714	1104.6536	1124.6635	1142.085	1181.1842	1211.4896	1220.5779	1248.6776	1270.3117	1315.1851	1370.2573	1403.3689	1412.8083	1443.5563	1481.0375	1486.4455	1492.7829	1493.5337	1499.7741	1644.6603	3018.4006	3023.7314	3033.487	3077.2321	3087.7462	3089.3117	3091.6445	3094.5031	3163.6957	3173.57	3186.8926	3214.5475
CC12C3CC1(C)C=CC23	C[C@@]12[C@H]3C[C@]1(C)C=C[C@@H]23	
InChI=1S/C9H12/c1-8-4-3-6-7(5-8)9(6,8)2/h3-4,6-7H,5H2,1-2H3	InChI=1S/C9H12/c1-8-4-3-6-7(5-8)9(6,8)2/h3-4,6-7H,5H2,1-2H3/t6-,7+,8+,9-/m1/s1
