16
gdb 12638	2.58314	2.48159	1.75423	1.4302	60.69	-0.2601	-0.0099	0.2502	794.2801	0.131971	-420.877636	-420.870516	-420.869572	-420.908719	28.075	
O	-0.4100075313	 1.3244243582	 0.8027990513	-0.447993
C	-0.0306803031	 0.1385116433	 0.0893489722	 0.047369
C	 0.8596949309	-0.7654643723	 0.9062351016	-0.098182
C	 0.1569369309	-1.7444191111	 1.4797273352	-0.061706
C	-1.3061689713	-1.6585514168	 1.1176481177	 0.043077
O	-2.0112548745	-0.9902444614	 2.1641722889	-0.449807
C	-1.2792254698	-0.7522557415	-0.1452229565	 0.083985
O	-2.4629718192	 0.0022586025	-0.2846848908	-0.450024
H	-0.6821000546	 1.0261989594	 1.6832335689	 0.288099
H	 0.4187398956	 0.4966972003	-0.8403361894	 0.092307
H	 1.9196081641	-0.5801295706	 1.0363629134	 0.109006
H	 0.5495637441	-2.4965303934	 2.154160656	 0.1107
H	-1.7606549843	-2.6397282884	 0.9217738796	 0.070882
H	-2.8018501813	-0.6369146636	 1.7277400607	 0.283778
H	-1.1370191027	-1.3693165789	-1.039327309	 0.087922
H	-2.2195039434	 0.8988152145	-0.0015950297	 0.290588
98.7943	228.4151	273.0921	304.2485	377.8778	450.0018	471.7234	529.3834	576.8625	583.5819	714.3012	781.6153	790.2816	804.1534	866.4706	909.4408	977.065	987.892	1006.2832	1072.8724	1102.781	1123.0204	1134.1024	1209.3572	1267.4692	1286.3823	1295.6919	1332.1199	1347.2907	1375.2039	1420.1989	1436.8563	1451.2392	1670.5859	3004.1476	3050.6788	3085.461	3192.2224	3215.9193	3673.2276	3711.7479	3738.6461
OC1C=CC(O)C1O	O[C@H]1C=C[C@@H](O)[C@H]1O	
InChI=1S/C5H8O3/c6-3-1-2-4(7)5(3)8/h1-8H	InChI=1S/C5H8O3/c6-3-1-2-4(7)5(3)8/h1-8H/t3-,4+,5-
