17
gdb 92796	4.49483	0.96118	0.84399	4.5751	72.47	-0.2402	-0.0082	0.232	1358.8134	0.136314	-455.192457	-455.183715	-455.182771	-455.227253	30.843	
C	-0.3441990941	 1.5358292489	 0.0224447746	-0.396734
C	 0.0431052078	 0.0671433048	 0.0547168223	 0.101139
C	 0.8344462222	-0.4315138875	-1.1909924552	-0.195142
N	 2.1558370631	-0.8253708993	-0.6915354475	-0.314563
C	 2.1124426714	-0.6427509068	 0.560801162	 0.530049
N	 3.100511272	-0.8662890194	 1.5048266826	-0.403609
C	 4.3795513058	-1.3584165767	 1.3048621846	 0.157917
O	 4.8676271304	-1.6787197498	 0.2565307588	-0.255969
O	 0.9780700314	-0.1642162895	 1.1467713334	-0.284705
H	 0.5332046223	 2.1603439306	-0.1734611686	 0.130723
H	-1.0737931442	 1.7096723662	-0.7752493882	 0.125909
H	-0.7909306605	 1.848136227	 0.9704349049	 0.128155
H	-0.8333627913	-0.5550696582	 0.2603088126	 0.094917
H	 0.3476736433	-1.2836916739	-1.6775895997	 0.117037
H	 0.9359304608	 0.3577240574	-1.9454921326	 0.114003
H	 2.8335813254	-0.6422950312	 2.4515035679	 0.266623
H	 4.9117217741	-1.4190798026	 2.2755701382	 0.08425
36.2158	57.423	152.4259	173.9602	239.72	277.0326	326.0597	384.4016	447.1439	571.5062	621.4239	710.6413	726.3303	821.86	875.584	916.3668	939.9543	956.6953	1023.5543	1045.5267	1077.9109	1120.3991	1141.375	1164.9347	1231.9955	1243.8582	1335.156	1341.4957	1388.1607	1411.0152	1445.5765	1485.2495	1494.7986	1507.1993	1548.1193	1753.166	1854.4205	2931.7713	3030.6452	3038.8097	3051.5153	3069.2476	3112.532	3120.1873	3631.5339
CC1CN=C(NC=O)O1	C[C@H]1CN=C(NC=O)O1	
InChI=1S/C5H8N2O2/c1-4-2-6-5(9-4)7-3-8/h3-4H,2H2,1H3,(H,6,7,8)	InChI=1S/C5H8N2O2/c1-4-2-6-5(9-4)7-3-8/h3-4H,2H2,1H3,(H,6,7,8)/t4-/m0/s1
