18
gdb 78072	3.79119	1.03059	0.87133	4.2128	75.11	-0.2429	0.0024	0.2453	1319.6128	0.145866	-439.052037	-439.043104	-439.04216	-439.085741	32.823	
C	 0.0368166641	 1.5804205477	-0.1299622293	-0.411645
C	-0.0343186682	 0.0639310088	-0.0149822261	-0.049766
C	 0.6410042896	-0.6990849861	-1.1691448888	-0.058247
C	 1.6645252764	-1.2991699294	-0.2401864158	-0.043514
C	 1.0459184546	-0.5788533799	 0.9641414089	 0.091374
O	 1.9846122157	 0.3217447152	 1.5020396693	-0.42471
N	 0.6165762082	-2.11671202	-0.8191773775	-0.086643
C	 0.8614928199	-3.150188224	-1.7058808923	 0.136177
O	 1.7452087453	-3.9656081667	-1.5981916759	-0.294099
H	 1.0599073441	 1.9193715816	-0.3104196382	 0.135667
H	-0.5961766019	 1.9318601852	-0.951358098	 0.118192
H	-0.3187211138	 2.0627356453	 0.7868321255	 0.111014
H	-1.0596733355	-0.2674212125	 0.1749112334	 0.081175
H	 0.7513031317	-0.3936483472	-2.2042926757	 0.108732
H	 2.7059837688	-1.5475057106	-0.3991384592	 0.128107
H	 0.63560346	-1.2470544758	 1.7316233721	 0.083427
H	 1.5690695967	 0.7985652019	 2.2272419358	 0.291204
H	 0.088902364	-3.1934303434	-2.4977527782	 0.083553
85.9564	133.8049	148.3574	210.2033	237.601	256.0454	276.2018	348.3842	364.7814	429.2981	545.11	680.897	753.806	804.1648	823.1341	880.7098	896.7179	956.6557	987.1422	1027.8776	1032.6818	1040.5813	1099.9849	1111.3744	1144.6952	1170.1952	1203.9251	1237.8803	1245.3432	1266.7227	1310.7557	1347.1329	1402.7273	1416.0953	1424.0951	1432.7953	1494.6477	1497.9338	1795.0562	2949.0981	3023.0593	3036.2452	3062.6911	3096.5128	3123.9405	3175.2796	3214.2809	3824.9982
CC1C2C(C1O)N2C=O	C[C@H]1[C@H]2[C@@H]([C@H]1O)N2C=O	
InChI=1S/C6H9NO2/c1-3-4-5(6(3)9)7(4)2-8/h2-6,9H,1H3	InChI=1S/C6H9NO2/c1-3-4-5(6(3)9)7(4)2-8/h2-6,9H,1H3/t3-,4-,5-,6-,7?/m0/s1
