18
gdb 85194	2.5338	1.22551	0.88316	4.1004	78.62	-0.2428	0.0318	0.2746	1307.6337	0.145814	-401.939639	-401.930173	-401.929229	-401.974453	34.472	
C	-0.0819865987	 1.5819259091	-0.1470443256	-0.396984
C	 0.0362086278	 0.0703021553	-0.0132927852	 0.039712
N	 1.0971793258	-0.551455816	-0.8176854554	-0.334684
C	 1.7609521179	-1.1456240027	 0.229656648	 0.433331
O	 2.7316725234	-1.849958401	 0.2850819555	-0.355148
C	 0.7521885265	-0.5417886216	 1.2441094148	-0.171529
C	 1.320020988	 0.4067475181	 2.3102411934	-0.382817
C	 1.977750678	-0.3082811186	 3.3972325487	 0.303782
C	 2.5012769264	-0.9059382701	 4.2980730913	-0.422244
H	 0.8807321008	 2.0769520621	 0.0060643603	 0.126407
H	-0.4411836903	 1.8495282277	-1.1463057557	 0.118993
H	-0.800483896	 1.9797694321	 0.5771783886	 0.125323
H	-0.9435834022	-0.3926138572	-0.1854653563	 0.087026
H	 1.2046582169	-0.6614798839	-1.8158241011	 0.247172
H	 0.1550647908	-1.3205312777	 1.724799357	 0.113028
H	 2.0285022764	 1.1076957426	 1.8533337261	 0.138464
H	 0.5043177859	 1.0167575025	 2.7203480999	 0.133072
H	 2.9797945826	-1.4356338207	 5.0839530157	 0.197098
59.4743	70.4098	117.4979	197.571	213.3368	245.1156	339.7656	341.7353	409.3318	471.0755	499.4563	511.6093	622.101	644.0008	697.8328	733.0692	800.256	870.3672	906.6028	958.103	997.8555	1037.2931	1075.2248	1129.4355	1140.3531	1171.3893	1183.9504	1230.0909	1288.8875	1318.8621	1370.0034	1384.6819	1395.4841	1413.9776	1469.6923	1490.7359	1500.8303	1895.6559	2244.3343	3018.7481	3021.1919	3037.7161	3055.6876	3091.1385	3101.2822	3121.4263	3508.159	3602.1281
CC1NC(=O)C1CC#C	C[C@H]1NC(=O)[C@H]1CC#C	
InChI=1S/C7H9NO/c1-3-4-6-5(2)8-7(6)9/h1,5-6H,4H2,2H3,(H,8,9)	InChI=1S/C7H9NO/c1-3-4-6-5(2)8-7(6)9/h1,5-6H,4H2,2H3,(H,8,9)/t5-,6+/m1/s1
