18
gdb 128473	3.79722	0.99765	0.9037	2.4087	74.17	-0.2573	-0.0077	0.2496	1333.7702	0.146499	-439.070333	-439.061286	-439.060342	-439.105672	32.005	
C	-0.1337257747	 1.4656423955	 0.0252947352	-0.234296
O	-0.0919250213	 0.0796143729	 0.2790999934	-0.251765
C	-1.3087211592	-0.606526844	 0.0228258669	 0.030075
C	-1.5541871991	-0.8259264276	-1.4770519173	-0.405264
C	-1.2101012182	-1.9191108847	 0.7523157621	 0.376702
N	-2.290761377	-2.5179368634	 1.1913505737	-0.214708
O	-1.8547230999	-3.7073228002	 1.7696045818	-0.16558
C	-0.5198426783	-3.7744144771	 1.6614072144	 0.075392
C	-0.0359954473	-2.6785756042	 1.0269655658	-0.318131
H	 0.8216372173	 1.878601985	 0.3578411892	 0.130706
H	-0.2608038632	 1.6987317916	-1.0414461483	 0.110268
H	-0.9453435977	 1.9545808336	 0.5858362239	 0.109828
H	-2.1538837994	-0.0422029488	 0.4454101184	 0.091096
H	-1.6538625997	 0.1269503551	-2.0042848758	 0.118348
H	-0.7240490992	-1.3850738314	-1.9185835215	 0.126269
H	-2.4768545947	-1.3940881751	-1.6222833868	 0.139287
H	-0.0592571187	-4.6534575586	 2.0852098283	 0.1501
H	 0.9833398403	-2.4230275585	 0.7972240466	 0.131673
23.3513	69.5568	135.759	175.6137	204.6354	249.1129	326.4041	363.1086	407.9424	494.7025	614.3277	712.5576	737.7765	809.4117	864.7591	873.7891	914.0762	945.6363	989.152	1014.6029	1064.678	1088.0273	1112.3243	1152.9542	1158.727	1182.8115	1224.3355	1292.5801	1350.3207	1364.6349	1397.3453	1448.0738	1475.9484	1478.4654	1484.5797	1498.2512	1502.0925	1513.1929	1609.7703	2980.6674	2992.4762	3031.6136	3045.6838	3115.2165	3120.7056	3127.6639	3264.0887	3302.1148
COC(C)C1=NOC=C1	CO[C@@H](C)c1nocc1	
InChI=1S/C6H9NO2/c1-5(8-2)6-3-4-9-7-6/h3-5H,1-2H3	InChI=1S/C6H9NO2/c1-5(8-2)6-3-4-9-7-6/h3-5H,1-2H3/t5-/m0/s1
