19
gdb 65251	3.47615	1.18032	1.13434	1.4026	75.06	-0.2428	0.0212	0.264	1153.9639	0.160798	-419.194864	-419.186504	-419.18556	-419.228445	31.262	
C	-0.0316895856	 1.4622599061	-0.5219457825	-0.483583
C	 0.0048855475	-0.0076088807	-0.1621508258	 0.329248
C	 1.2517971773	-0.7722169026	-0.4078072509	-0.279849
N	 0.8375091836	-0.4528850449	 0.9745963888	-0.356935
C	-1.3230436225	-0.7538750498	-0.2194110775	-0.021505
C	-2.3642774701	-0.2815583839	 0.8345902299	-0.12406
O	-3.4970800704	 0.1584702366	 0.0426896027	-0.221667
C	-3.1414466261	-0.067445071	-1.2423630539	 0.119042
N	-2.0063633903	-0.5595006639	-1.5163242925	-0.273715
H	 0.9678989508	 1.9030650883	-0.4535962648	 0.111273
H	-0.39742215	 1.5971454012	-1.5437015755	 0.144951
H	-0.6921700564	 2.0278074273	 0.1460101266	 0.120084
H	 1.2047938536	-1.8260922511	-0.6679958081	 0.120261
H	 2.0996545347	-0.2409711697	-0.8319823346	 0.110893
H	 1.3890758905	 0.3274741442	 1.3234084146	 0.226909
H	-1.1055129053	-1.8180540257	-0.0891356144	 0.09194
H	-2.7023741661	-1.0831471595	 1.4945222173	 0.125464
H	-2.0224593494	 0.558553903	 1.4442459109	 0.120916
H	-3.8994667759	 0.2067242862	-1.9683225403	 0.140333
61.7316	66.4657	203.0519	227.3059	262.318	319.4439	359.8884	408.2879	492.2595	539.1268	729.4739	754.9963	844.8419	861.5635	890.1259	935.4008	957.741	967.3914	968.709	979.8787	1007.6141	1039.8936	1057.3731	1071.034	1119.208	1138.2383	1154.9333	1210.7044	1264.5374	1278.194	1312.205	1324.0601	1354.6772	1373.9596	1405.0968	1425.6435	1484.2487	1504.2507	1516.0906	1520.7542	1701.5766	3030.566	3056.7634	3068.1052	3092.302	3108.432	3115.6747	3116.5963	3192.6968	3212.1304	3494.6614
CC1(CN1)C1COC=N1	C[C@]1(CN1)[C@H]1COC=N1	
InChI=1S/C6H10N2O/c1-6(3-8-6)5-2-9-4-7-5/h4-5,8H,2-3H2,1H3	InChI=1S/C6H10N2O/c1-6(3-8-6)5-2-9-4-7-5/h4-5,8H,2-3H2,1H3/t5-,6+/m1/s1
