22
gdb 105103	2.72149	1.16343	1.00813	1.5744	81.86	-0.2395	0.0728	0.3122	1310.5982	0.194534	-404.303259	-404.293899	-404.292955	-404.338098	34.811	
C	 0.1686529708	 1.5215774143	-0.2604102916	-0.40662
C	 0.1094668407	 0.0147981618	 0.0062902956	-0.272408
C	 0.7673100247	-0.4826402386	 1.2869754912	 0.304064
C	 1.7585218534	 0.3493455702	 2.0216570268	-0.277106
N	 0.4213184339	 0.1088340922	 2.5955960641	-0.355237
C	 0.9325363423	-1.9848157021	 1.3905790675	 0.134538
C	-0.267813471	-2.9285116313	 1.1337659111	-0.305419
C	 0.6593470125	-3.5823313581	 0.0918952739	-0.061071
O	 1.654911942	-2.5512508674	 0.2668548083	-0.29893
H	 1.1920676187	 1.8620364843	-0.4421418624	 0.127476
H	-0.4232221661	 1.7694425984	-1.1462456582	 0.11914
H	-0.2391961205	 2.1091834062	 0.5706940853	 0.110294
H	-0.9432419694	-0.298663754	 0.0152452116	 0.100453
H	 0.5805444704	-0.5192939147	-0.8259240783	 0.125
H	 2.5772310565	-0.1293143329	 2.5525490032	 0.116095
H	 1.9885881101	 1.3398584275	 1.6430305259	 0.111833
H	-0.1608817444	 0.9320118131	 2.4587666072	 0.22738
H	 1.4423377319	-2.2081283909	 2.3367676628	 0.074627
H	-0.5748852058	-3.5472584798	 1.9773424057	 0.112923
H	-1.1460151731	-2.4409098996	 0.7085451727	 0.109812
H	 1.0451304041	-4.5702561025	 0.3755723677	 0.100552
H	 0.2947009082	-3.6280038261	-0.9406146801	 0.102605
53.3262	82.9277	92.7883	200.6046	213.8464	258.0841	305.2906	350.341	353.8915	503.1809	527.9461	662.2279	763.0269	786.7486	825.2104	868.311	880.4304	917.1259	951.4829	966.3112	995.5155	1012.5658	1024.0081	1033.6559	1076.3854	1080.6369	1107.7312	1128.5113	1154.3675	1168.9745	1213.7959	1252.4291	1262.3008	1273.3725	1294.7169	1319.8939	1337.7728	1356.3493	1399.8046	1409.625	1432.6178	1488.9682	1495.2906	1501.9286	1502.4356	1519.3154	1530.7611	3010.3662	3015.3089	3018.3676	3031.8249	3057.1384	3069.7044	3089.594	3097.2302	3111.5314	3115.9097	3143.2795	3200.0235	3493.3792
CCC1(CN1)C1CCO1	CC[C@]1(CN1)[C@H]1CCO1	
InChI=1S/C7H13NO/c1-2-7(5-8-7)6-3-4-9-6/h6,8H,2-5H2,1H3	InChI=1S/C7H13NO/c1-2-7(5-8-7)6-3-4-9-6/h6,8H,2-5H2,1H3/t6-,7+/m1/s1
