21
gdb 108817	3.18289	1.00344	0.82865	3.2084	81.18	-0.239	0.0176	0.2566	1433.3485	0.18171	-424.234706	-424.22488	-424.223935	-424.269445	36.448	
C	-0.7820325433	 1.2149508068	 0.0944082709	-0.391676
C	 0.1319359207	-0.0034054496	 0.0000199415	 0.000988
C	 1.2195778067	 0.0725665288	-1.1019884323	-0.330682
C	 2.3753231875	-0.703379726	-0.5076684337	 0.309848
C	 3.5565906941	-1.0856332113	-1.3379518528	-0.177746
O	 4.528309823	-1.7279924918	-0.5347685473	-0.412273
C	 2.1878207984	-0.9590359796	 0.7897494251	-0.207039
C	 0.9171240132	-0.3332106364	 1.3073485995	 0.083317
O	 1.1918141872	 0.8010549893	 2.1368458614	-0.430573
H	-0.2143332846	 2.1141590728	 0.3501212698	 0.112931
H	-1.2965203443	 1.3925249581	-0.8560016629	 0.104127
H	-1.5426181836	 1.0802135078	 0.8698716944	 0.116633
H	-0.4800370027	-0.8880548369	-0.2155727624	 0.076351
H	 0.8728595609	-0.3473307456	-2.0543855747	 0.100875
H	 1.5160874302	 1.1093693847	-1.320638868	 0.100172
H	 3.2171524808	-1.7387038819	-2.1620375721	 0.097772
H	 3.9647935174	-0.1785226208	-1.8198967122	 0.094915
H	 5.2535835991	-2.0021407577	-1.1028160831	 0.290476
H	 2.8951390782	-1.4728335695	 1.4280703374	 0.109263
H	 0.3340239689	-0.9981060306	 1.9535307323	 0.079239
H	 1.9337070522	 1.2695060095	 1.7388474293	 0.273083
67.0007	106.8646	139.2949	181.4153	218.5436	238.1075	257.6128	327.5225	333.2847	396.6571	429.3085	496.7559	530.6015	641.8561	711.9292	803.734	855.6527	879.9492	917.9216	942.887	990.3184	1013.3188	1028.1534	1061.7718	1084.5384	1121.3993	1139.6715	1175.4261	1203.406	1214.8837	1247.4941	1254.1022	1283.406	1303.651	1326.0672	1349.1766	1368.2321	1410.3521	1429.0004	1466.3509	1488.2344	1491.9063	1497.4526	1504.8603	1714.8239	2936.7549	2949.1671	2998.3373	3020.7227	3035.7617	3045.0103	3055.1294	3100.7029	3112.136	3221.7097	3801.7867	3839.4101
CC1CC(CO)=CC1O	C[C@H]1CC(=C[C@H]1O)CO	
InChI=1S/C7H12O2/c1-5-2-6(4-8)3-7(5)9/h3,5,7-9H,2,4H2,1H3	InChI=1S/C7H12O2/c1-5-2-6(4-8)3-7(5)9/h3,5,7-9H,2,4H2,1H3/t5-,7+/m0/s1
