20
gdb 27144	2.83811	1.3028	0.96693	1.6604	88.3	-0.1838	0.0481	0.2318	1267.0573	0.171879	-366.042571	-366.033584	-366.03264	-366.077845	33.536	
C	 0.1359951381	 1.5470703892	 0.0948690986	-0.50976
C	-0.001291337	 0.0544121302	 0.032771675	 0.180274
C	-0.1252477946	-0.7317826187	-1.0995941017	 0.246471
N	-0.2235739207	-2.0423770491	-0.6794349292	-0.321605
C	-0.1650560482	-2.1067602858	 0.69093878	-0.092926
C	-0.0276738805	-0.8251538631	 1.1586562906	-0.219845
C	-0.1585122859	-0.3575679853	-2.5262357452	-0.076814
C	 0.4694600174	-1.2234301116	-3.6016014226	-0.274511
C	-1.0280365297	-1.0885118515	-3.5312872743	-0.274507
H	 0.1312818291	 2.0014670175	-0.8998317216	 0.116741
H	-0.681793124	 2.0052941775	 0.6641724746	 0.121998
H	 1.0706981681	 1.8473811294	 0.5837243818	 0.121996
H	-0.3235443537	-2.8367453869	-1.2859773039	 0.253358
H	-0.2260204161	-3.0520798986	 1.2056526982	 0.11107
H	 0.0472439806	-0.534018744	 2.1959918051	 0.084964
H	-0.069606165	 0.7112084004	-2.6833223546	 0.08791
H	 0.9964453041	-0.7320238626	-4.4121053476	 0.116156
H	 0.9190703326	-2.1615851581	-3.2921324323	 0.106435
H	-1.6070124981	-1.9339936308	-3.1735127999	 0.106437
H	-1.5319488666	-0.5042293078	-4.293387231	 0.116156
22.3859	45.8886	156.9851	172.0289	250.0072	279.0071	386.1461	450.0213	456.2514	584.9962	631.7034	684.1228	690.0824	712.6324	790.1467	809.4551	819.565	902.3333	902.9534	925.201	982.5805	1056.1367	1060.1143	1060.442	1069.0612	1071.1375	1110.3013	1124.4481	1173.5026	1199.6919	1219.3041	1272.9574	1307.9151	1373.1091	1419.1748	1435.9385	1473.8025	1481.9003	1492.7034	1498.7566	1504.0296	1523.6649	1634.116	3020.5005	3064.6119	3103.0695	3125.7471	3130.7084	3172.8787	3203.1249	3220.3276	3236.7191	3266.9978	3684.6098
CC1=C(NC=C1)C1CC1	Cc1c([nH]cc1)C1CC1	
InChI=1S/C8H11N/c1-6-4-5-9-8(6)7-2-3-7/h4-5,7,9H,2-3H2,1H3	InChI=1S/C8H11N/c1-6-4-5-9-8(6)7-2-3-7/h4-5,7,9H,2-3H2,1H3
