15
gdb 51155	3.17097	1.26243	1.06408	3.7142	67.85	-0.2412	-0.003	0.2382	1112.1954	0.113033	-453.953676	-453.945785	-453.944841	-453.98682	29.079	
O	-0.0764409048	 0.4118341893	 1.1853125768	-0.30307
C	-0.0853285232	 1.2064992703	 0.2757714782	 0.142656
N	 1.0081828449	 1.6105486714	-0.4502896012	-0.402485
C	 2.2992083656	 1.0603155243	-0.3427000682	 0.247501
C	 2.9267940878	 0.6759609517	 0.9957766846	-0.290312
C	 3.6324564852	 1.6604276325	 0.1226413004	-0.074815
N	 4.3023837654	 1.0034056016	-1.0033479199	-0.34619
C	 3.111001421	 0.3879800066	-1.4517278837	 0.35551
O	 2.8849581501	-0.3474073582	-2.3672838795	-0.329328
H	-0.9997405258	 1.7291534379	-0.0676508337	 0.08431
H	 0.8325736611	 2.2352819247	-1.2234518588	 0.257821
H	 2.3893755636	 1.0687295309	 1.8515410995	 0.152807
H	 3.3252716708	-0.3247366422	 1.1315829312	 0.132566
H	 3.8454992574	 2.6908550015	 0.3723918646	 0.12525
H	 5.1649793808	 0.4805899777	-0.8990215804	 0.247781
44.9844	149.7523	171.3521	220.4881	299.3238	349.1683	445.7879	508.7755	551.1049	605.3721	667.2173	716.0795	760.7076	824.8629	859.2653	901.8162	952.8161	982.5011	1027.8822	1036.871	1061.3729	1107.3824	1124.7068	1162.6989	1227.8638	1290.4857	1318.0067	1393.5804	1439.654	1488.1957	1528.0092	1818.5315	1902.2471	2942.3251	3134.0903	3213.3598	3231.2021	3548.8573	3607.2671
O=CNC12CC1NC2=O	O=CN[C@]12C[C@H]1NC2=O	
InChI=1S/C5H6N2O2/c8-2-6-5-1-3(5)7-4(5)9/h2-3H,1H2,(H,6,8)(H,7,9)	InChI=1S/C5H6N2O2/c8-2-6-5-1-3(5)7-4(5)9/h2-3H,1H2,(H,6,8)(H,7,9)/t3-,5-/m1/s1
