18
gdb 85034	2.54437	1.61834	1.00803	0.742	76.31	-0.2352	0.0083	0.2435	1162.6612	0.148505	-435.335108	-435.325849	-435.324904	-435.369505	32.464	
C	-0.0578443102	 1.394247129	 0.1122703576	-0.34092
N	-0.014011345	-0.0452483467	 0.0607280886	-0.132506
C	-1.1821462672	-0.8987482619	 0.0162336023	-0.251107
C	-0.5832904827	-2.2970980236	-0.0265783251	 0.374856
N	-1.2772272602	-3.3599305011	-0.0732196446	-0.553086
N	 0.7888878461	-2.1205645166	-0.0033918484	-0.163056
C	 1.7682799195	-3.1807294364	-0.0298473598	-0.364599
C	 1.152306348	-0.7602250719	 0.049533952	 0.494348
O	 2.2878435032	-0.3383658532	 0.0784923869	-0.424862
H	 0.9711160184	 1.7562809566	 0.1380657128	 0.168551
H	-0.5620935891	 1.810110807	-0.7691382345	 0.12595
H	-0.5840426863	 1.7457512156	 1.0087412734	 0.125932
H	-1.8215541519	-0.7785794515	 0.8998120959	 0.139603
H	-1.8003414374	-0.7153079096	-0.8715534607	 0.139623
H	-0.6902996022	-4.194334088	-0.0959340016	 0.216444
H	 1.6773514026	-3.7784824877	-0.9438444431	 0.136065
H	 2.7525615806	-2.7116054324	-0.0011826335	 0.172693
H	 1.6560802538	-3.8425571476	 0.8363821619	 0.136071
73.4856	115.632	141.6013	149.4573	172.1379	203.304	268.7537	294.4514	375.3545	561.6149	561.8076	594.9338	629.6327	755.4163	762.8828	852.5874	911.184	1010.3518	1025.6152	1066.7752	1095.9708	1153.0168	1160.2357	1199.5264	1242.4482	1269.1167	1291.6979	1321.2378	1419.9977	1431.2512	1446.7721	1476.6904	1490.3855	1491.6443	1502.1419	1517.0286	1538.7685	1748.0424	1838.3344	3011.745	3022.0134	3025.8958	3051.2095	3059.8539	3080.3343	3145.669	3151.5091	3476.7995
CN1CC(=N)N(C)C1=O	CN1C[C]([NH])N(C)C1=O	
InChI=1S/C5H9N3O/c1-7-3-4(6)8(2)5(7)9/h6H,3H2,1-2H3	InChI=1S/C5H9N3O/c1-7-3-4(6)8(2)5(7)9/h6H,3H2,1-2H3
