21
gdb 87140	2.78475	1.2613	1.09741	1.6117	78.83	-0.2391	0.0781	0.3173	1221.5031	0.180175	-424.19804	-424.188468	-424.187524	-424.231901	36.96	
C	-0.056143365	 1.5110000326	-0.0481194077	-0.412284
C	 0.0899708847	 0.0067687852	-0.0763173965	-0.066453
C	 1.457814984	-0.6346309154	-0.2246777329	-0.344578
C	 0.7383400111	-0.7242031351	 1.0886884082	 0.359451
O	 1.301178535	 0.0559076079	 2.1067486841	-0.469299
C	 0.1864196665	-2.0334033717	 1.6106365114	 0.341239
C	-0.6645976773	-2.8854702004	 0.6984591504	-0.484498
C	 0.8715299937	-2.6564064168	 2.754003132	-0.222118
O	-0.3353557424	-1.8992547555	 2.9531229581	-0.297127
H	 0.7342622287	 1.9633274541	 0.5550523615	 0.133763
H	-0.0045893652	 1.9303947112	-1.0587108248	 0.113648
H	-1.0179084333	 1.8060989769	 0.3862307932	 0.113826
H	-0.7194491085	-0.5171957347	-0.5763792442	 0.080916
H	 1.5627657291	-1.5231759653	-0.8375793932	 0.109246
H	 2.3187514242	 0.0258474364	-0.2349992249	 0.12374
H	 0.6668957956	 0.0190227884	 2.8368130348	 0.290115
H	-0.126054879	-3.1533561953	-0.2159815661	 0.127626
H	-0.9514545028	-3.8072826088	 1.2092261448	 0.12873
H	-1.5799887091	-2.358618863	 0.4141231815	 0.136059
H	 0.7716253973	-3.7282960773	 2.917217769	 0.111563
H	 1.7718886224	-2.1966023433	 3.1525568614	 0.126433
71.0048	151.6447	179.7133	197.4026	219.2327	284.6567	323.8255	342.6502	380.8636	408.2266	443.8788	489.1566	529.8681	568.346	637.011	781.9493	804.1088	847.2686	889.7795	919.4649	929.4318	953.0062	1013.2533	1023.4492	1043.8556	1091.1552	1101.1069	1131.1032	1135.2016	1168.0342	1183.1717	1193.9164	1256.8151	1327.2606	1368.6606	1376.2151	1408.7366	1419.2349	1439.7233	1484.6123	1488.981	1496.3448	1501.4089	1507.0821	1515.8707	3032.3262	3044.9539	3088.2071	3094.7892	3111.3749	3123.9264	3127.8969	3131.0747	3151.8888	3191.3161	3218.7346	3743.5026
CC1CC1(O)C1(C)CO1	C[C@H]1C[C@]1(O)[C@@]1(C)CO1	
InChI=1S/C7H12O2/c1-5-3-7(5,8)6(2)4-9-6/h5,8H,3-4H2,1-2H3	InChI=1S/C7H12O2/c1-5-3-7(5,8)6(2)4-9-6/h5,8H,3-4H2,1-2H3/t5-,6+,7+/m0/s1
