14
gdb 33310	7.92123	0.64289	0.5991	4.3608	91.22	-0.2535	-0.0777	0.1757	1716.7679	0.101287	-399.540528	-399.532355	-399.531411	-399.574572	28.234	
N	 0.1177653239	-3.7022706693	-0.0546142141	-0.333036
C	 0.0707732828	-2.5406521623	-0.0324333228	 0.173803
C	 0.0147307316	-1.1798931591	-0.0064742823	 0.220441
C	-0.0538037587	 0.0303693542	 0.0160822792	-0.095744
C	-0.0636780307	 1.4350139828	 0.0441581979	 0.160587
C	-1.124713171	 2.2525427791	 0.032428518	-0.211518
C	-0.6667814424	 3.6771746036	 0.0733635648	-0.107265
O	 0.7541206388	 3.6179209971	 0.1098537518	-0.261726
C	 1.2041585521	 2.2716549183	 0.0947800635	-0.172871
H	-2.16313135	 1.9513297697	-0.0012650035	 0.130303
H	-1.0007739935	 4.2446615744	-0.8099445157	 0.123511
H	-1.0477439709	 4.2088759084	 0.9599274091	 0.123505
H	 1.7981937047	 2.0566616619	 0.9946824031	 0.125002
H	 1.8455042931	 2.0923767312	-0.780121649	 0.125008
66.2007	74.1474	85.9363	210.5733	223.1418	375.1852	406.1901	502.1565	523.4915	585.2433	593.0142	767.504	841.939	851.1579	920.2455	971.8246	980.8113	1022.6105	1061.6785	1125.0219	1173.2639	1225.0897	1271.1328	1291.0496	1359.0341	1391.8891	1510.4584	1527.5166	1674.9162	2254.1938	2375.6398	2975.0473	2991.6056	2996.1535	3022.1136	3232.6257
N#CC#CC1=CCOC1	N#CC#CC1=CCOC1	
InChI=1S/C7H5NO/c8-4-1-2-7-3-5-9-6-7/h3H,5-6H2	InChI=1S/C7H5NO/c8-4-1-2-7-3-5-9-6-7/h3H,5-6H2
