23
gdb 101334	3.07302	0.7751	0.74994	1.0204	83.02	-0.2561	0.0675	0.3236	1707.7382	0.202921	-425.413273	-425.402257	-425.401313	-425.450329	39.391	
C	-0.3591537886	 1.4650385913	-0.1660045445	-0.385491
C	-0.1681235725	-0.0470038683	-0.3019639739	-0.190059
C	 1.1337576133	-0.4280053428	-1.0162046974	 0.09841
O	 2.289179172	 0.0710376659	-0.3451756642	-0.430987
C	 1.2440364948	-1.9318625779	-1.1825569657	 0.028589
O	 0.3576338254	-2.5579963642	-2.1141310467	-0.269975
C	 1.7724008894	-2.6215891372	-2.3686682149	 0.078633
C	 2.2857738476	-1.9569146124	-3.6225657864	-0.213372
C	 1.9470956711	-2.772750334	-4.8765566114	-0.377359
H	 0.488721753	 1.9189628266	 0.3542368252	 0.124446
H	-0.4363055295	 1.9404479347	-1.1499686874	 0.11687
H	-1.2711093915	 1.6997129167	 0.3907197376	 0.11121
H	-0.1721174802	-0.5189117739	 0.6924472059	 0.082187
H	-1.0017083176	-0.4944548007	-0.8554391096	 0.11999
H	 1.1498736308	 0.0510938244	-1.9998504171	 0.091672
H	 2.2675420763	-0.2581775519	 0.5607414403	 0.278689
H	 1.3234456584	-2.4618074171	-0.2265554593	 0.074514
H	 2.1874970334	-3.6188324863	-2.1978428035	 0.08463
H	 1.8666242438	-0.9509496086	-3.7136140929	 0.107719
H	 3.373182724	-1.8411350634	-3.5297158525	 0.107255
H	 2.3281295859	-2.2848558632	-5.7783598814	 0.114092
H	 2.3850458468	-3.7757524614	-4.8278448942	 0.115078
H	 0.863801874	-2.8855393462	-4.980467936	 0.13326
38.376	67.1122	92.9203	125.4151	171.7508	215.784	227.7568	253.5333	274.7974	281.4468	399.6784	419.5665	468.9366	523.3023	574.8829	753.0685	778.2601	822.8253	855.2595	893.7283	953.4995	985.9858	1015.5338	1035.8139	1051.6421	1088.0273	1093.9526	1121.1841	1143.5557	1179.8211	1182.541	1247.1263	1281.2402	1290.5028	1302.8572	1332.6356	1344.2118	1384.1463	1402.7308	1409.6059	1412.7338	1423.3268	1472.1824	1482.8873	1495.3569	1498.4814	1500.2636	1508.3476	1510.7997	2997.2509	3033.7188	3036.4814	3038.1134	3039.4124	3062.4696	3068.7748	3074.6729	3089.224	3103.9305	3109.2275	3116.5819	3119.3066	3793.4704
CCC(O)C1OC1CC	CC[C@@H](O)[C@H]1O[C@H]1CC	
InChI=1S/C7H14O2/c1-3-5(8)7-6(4-2)9-7/h5-8H,3-4H2,1-2H3	InChI=1S/C7H14O2/c1-3-5(8)7-6(4-2)9-7/h5-8H,3-4H2,1-2H3/t5-,6+,7-/m1/s1
