19
gdb 101152	3.96544	0.89227	0.77097	1.5967	74.	-0.2387	-0.0016	0.2371	1458.7412	0.158781	-460.151349	-460.14211	-460.141166	-460.186288	33.396	
O	-0.3635730191	 1.5736510922	 0.268627894	-0.423093
C	-0.4632645245	 0.2274384353	 0.6749495324	-0.066756
C	-1.2202610338	-0.5920654731	-0.3730956127	-0.018967
O	-0.6085341962	-0.3813251447	-1.6608641971	-0.439305
C	-1.3465246913	-2.0538357011	-0.0734471408	 0.273457
C	-0.8779853747	-2.7574852819	 0.9556607243	-0.222533
C	-1.2738882086	-4.1996384221	 0.8175991964	-0.104514
O	-1.9556532117	-4.2832115799	-0.4298040271	-0.265155
C	-2.0976347713	-2.9854677605	-0.9965060968	-0.142362
H	-0.1532404963	 1.5409798923	-0.6740778757	 0.285827
H	 0.5330292229	-0.222015114	 0.8353273041	 0.076228
H	-0.9943121491	 0.2080396394	 1.632257199	 0.112812
H	-2.2193201997	-0.151563577	-0.4881941456	 0.105887
H	 0.2125647199	-0.8885187265	-1.6719710817	 0.285218
H	-0.30982349	-2.3840698817	 1.79813055	 0.110393
H	-0.40744589	-4.8790077609	 0.8114942043	 0.108821
H	-1.9327263696	-4.5275552912	 1.6389717749	 0.107173
H	-3.1633726109	-2.7100236687	-1.0688676427	 0.104241
H	-1.6947535561	-2.9785234658	-2.0189546392	 0.112628
43.688	97.5224	122.3235	143.6243	192.0962	290.3826	342.6399	358.3365	379.4489	477.6326	524.9556	547.2612	731.0915	777.5754	844.2557	864.0231	923.9996	940.8517	971.5831	1027.6355	1042.7746	1062.976	1069.6132	1100.6932	1118.5966	1172.3282	1190.0195	1204.6889	1221.8717	1269.7785	1283.44	1323.2377	1365.0669	1390.2216	1392.9878	1417.8991	1443.7568	1509.6224	1516.0143	1529.4022	1720.7382	2945.0995	2960.7994	2967.0879	2990.8072	3014.6609	3032.2805	3075.5278	3218.4239	3762.3529	3783.3009
OCC(O)C1=CCOC1	OC[C@@H](O)C1=CCOC1	
InChI=1S/C6H10O3/c7-3-6(8)5-1-2-9-4-5/h1,6-8H,2-4H2	InChI=1S/C6H10O3/c7-3-6(8)5-1-2-9-4-5/h1,6-8H,2-4H2/t6-/m1/s1
