18
gdb 122770	3.26219	0.74302	0.61899	4.2275	78.19	-0.2487	-0.0375	0.2112	1756.2975	0.14686	-435.268044	-435.25793	-435.256985	-435.304597	34.617	
C	-0.0591602709	 1.3468471502	 0.2754242478	-0.230273
O	-0.001041089	-0.0544484603	 0.1239016756	-0.241885
C	-1.2655482327	-0.6469349483	-0.0950080803	-0.078559
C	-1.0627558709	-2.151655652	-0.1616290966	-0.151018
N	-0.408915365	-2.5989607985	 1.0546235402	-0.31736
C	-0.3686522598	-3.9160099201	 1.3975413739	 0.304537
N	-1.0140491762	-4.823127055	 0.7622406217	-0.527223
C	 0.4503976162	-4.1929880533	 2.5705181435	 0.227576
N	 1.0966061816	-4.4578175772	 3.4921224226	-0.323366
H	 0.9601794402	 1.6985114166	 0.4490471919	 0.134986
H	-0.4558308465	 1.8342998761	-0.6278643673	 0.112401
H	-0.6892801147	 1.6372688914	 1.12997047	 0.112043
H	-1.9549691951	-0.3903205375	 0.7257612721	 0.100808
H	-1.7112795376	-0.2885812598	-1.0361973638	 0.100844
H	-2.0233366315	-2.6641751171	-0.2543584859	 0.1448
H	-0.4667971326	-2.4117783803	-1.0475458419	 0.124023
H	 0.2939397398	-1.9783052505	 1.4256328481	 0.268844
H	-0.8993971653	-5.7313292743	 1.2041809184	 0.238821
40.9578	65.705	93.6334	119.0047	168.6217	228.7048	249.0361	270.5067	331.9725	353.4788	492.7489	522.578	534.8597	610.8097	725.5543	813.8361	838.4494	912.7149	935.489	1046.287	1109.0389	1124.5226	1156.0042	1179.9368	1189.6284	1215.9855	1258.6968	1270.9613	1324.1563	1388.7452	1423.2208	1480.495	1487.0466	1499.399	1502.1977	1523.7515	1537.8019	1685.0359	2347.8702	2969.0272	2982.6242	3002.2878	3021.9822	3029.2362	3108.1639	3122.4812	3534.6422	3634.0224
COCCNC(=N)C#N	COCCNC(=N)C#N	
InChI=1S/C5H9N3O/c1-9-3-2-8-5(7)4-6/h2-3H2,1H3,(H2,7,8)	InChI=1S/C5H9N3O/c1-9-3-2-8-5(7)4-6/h2-3H2,1H3,(H2,7,8)
