18
gdb 65488	2.96821	1.22148	1.02103	2.3852	76.9	-0.2532	0.0238	0.277	1196.5813	0.148412	-398.096167	-398.087561	-398.086617	-398.129539	32.816	
N	 0.3473039325	 1.5223550549	-0.4510221251	-0.544363
C	-0.0395285032	 0.2012882482	 0.0279663274	 0.138765
C	 0.0851638255	 0.0095301691	 1.5802627671	-0.34511
C	-1.3491415564	-0.5275164503	 1.5833924937	 0.388606
C	-1.8131868269	-1.7922068993	 2.1920982366	-0.299544
N	-2.3296216515	-0.4846870605	 2.6537769332	-0.364394
C	-1.5867619049	-0.0155723516	 0.1616735155	-0.320205
C	 0.6092818194	-0.8934254156	-0.7111132098	 0.234006
N	 1.1427305227	-1.72222377	-1.3172431699	-0.345491
H	 1.3589036913	 1.6240340474	-0.4128309029	 0.241805
H	 0.0887785207	 1.624336501	-1.4296375585	 0.243084
H	 0.8817204203	-0.645241066	 1.9388546941	 0.122185
H	 0.167684747	 0.9940326713	 2.0497438783	 0.123462
H	-2.5409822053	-2.4122688557	 1.6756660653	 0.126111
H	-1.1196318559	-2.3379800035	 2.8271893078	 0.117671
H	-1.8884586788	-0.2193236931	 3.5314968907	 0.23258
H	-2.0923216268	 0.9530874353	 0.1498845963	 0.127547
H	-2.0546699696	-0.6931969518	-0.5540370599	 0.123284
51.4672	164.0118	185.8331	223.6298	290.3953	318.4805	333.4195	412.2329	422.1131	451.388	592.8313	603.4829	682.6959	788.0709	844.7902	875.0488	899.5455	908.8765	910.5734	945.9054	963.7493	983.5031	1030.4781	1094.3875	1124.848	1133.7659	1190.8006	1230.3945	1249.3567	1266.8599	1270.5824	1289.1583	1314.9909	1424.0069	1461.5883	1483.7564	1517.4288	1656.8225	2337.4716	3060.0555	3072.6001	3104.7432	3125.4532	3136.8615	3191.0935	3477.3057	3493.0558	3555.2538
NC1(CC2(CN2)C1)C#N	N[C@]1(C[C@]2(CN2)C1)C#N	
InChI=1S/C6H9N3/c7-3-5(8)1-6(2-5)4-9-6/h9H,1-2,4,8H2	InChI=1S/C6H9N3/c7-3-5(8)1-6(2-5)4-9-6/h9H,1-2,4,8H2/t5-,6+
