19
gdb 9387	5.38957	0.85643	0.7709	3.9682	73.51	-0.2709	0.0369	0.3079	1479.1196	0.163523	-365.079495	-365.069729	-365.068785	-365.114809	33.468	
C	 0.0026353359	 1.5069532762	-0.072621722	-0.386497
C	 0.014230631	-0.0104557939	-0.0147335362	-0.034844
O	 0.677379568	-0.5002483485	-1.1674246218	-0.247794
C	 0.7457254823	-1.9028273556	-1.2185477373	-0.051676
C	 1.5136225396	-2.2792020674	-2.4984748362	-0.14999
C	 2.9601088703	-1.7509002461	-2.4871662613	-0.388454
C	 1.4793317022	-3.7323535708	-2.6819352178	 0.256127
N	 1.4565304625	-4.8804664735	-2.8126120566	-0.320398
H	 1.0233820424	 1.8987724651	-0.0964123613	 0.12836
H	-0.5193740179	 1.8530723061	-0.9690510234	 0.129568
H	-0.5058796416	 1.9159122668	 0.8052788719	 0.120268
H	 0.5302976352	-0.3622672095	 0.8937707557	 0.09283
H	-1.01392056	-0.4065118193	 0.0238012376	 0.09327
H	 1.2687056595	-2.3092286469	-0.3368579592	 0.103383
H	-0.2615704572	-2.3478957451	-1.2392643798	 0.107246
H	 0.9759554525	-1.8269444866	-3.3408996605	 0.136883
H	 2.9419905341	-0.6708893222	-2.3332887837	 0.144561
H	 3.5324962739	-2.2118904816	-1.6769177212	 0.132778
H	 3.4639513273	-1.9710692571	-3.4310438369	 0.134378
51.7885	76.9076	106.2976	145.4514	186.6141	217.449	245.8211	262.1596	324.8355	401.3578	449.6975	555.4419	579.289	820.4088	823.2347	905.4729	932.7164	939.8757	1044.0373	1080.4189	1120.4645	1153.5892	1160.5126	1168.7704	1194.4422	1262.619	1297.6594	1306.4991	1341.2626	1386.1843	1401.8771	1409.8453	1448.961	1483.7281	1493.4639	1498.8518	1500.8137	1514.0795	1536.6326	2358.7613	2959.0418	2970.5125	2990.6109	3000.4682	3044.9761	3046.8751	3054.734	3122.2875	3123.6183	3127.3495	3149.3277
CCOCC(C)C#N	CCOC[C@@H](C)C#N	
InChI=1S/C6H11NO/c1-3-8-5-6(2)4-7/h6H,3,5H2,1-2H3	InChI=1S/C6H11NO/c1-3-8-5-6(2)4-7/h6H,3,5H2,1-2H3/t6-/m0/s1
