18
gdb 6229	2.16939	2.10588	1.62258	2.3756	64.52	-0.2263	0.0633	0.2896	917.7734	0.149211	-422.046951	-422.037236	-422.036291	-422.080125	36.103	
C	-0.041972195	 1.549546153	-0.0521657636	-0.449177
C	 0.0159176605	 0.0400395238	 0.035556735	 0.328883
O	-1.1509011135	-0.5994502244	-0.4016981122	-0.449615
C	 1.323977409	-0.688984872	-0.2098407424	-0.071582
O	 2.4481106368	 0.0806478055	-0.5319822629	-0.415619
C	 0.7086421314	-0.6581421057	 1.1896977453	 0.296979
C	 1.3754608357	 0.126878282	 2.2978829539	-0.458939
O	 0.0667059207	-1.8253604392	 1.6224513748	-0.444155
H	 0.9133182261	 2.0142173123	 0.1931933436	 0.134437
H	-0.2912378615	 1.8461722088	-1.0783487604	 0.108374
H	-0.8193338186	 1.9435148062	 0.6095011112	 0.124466
H	-1.235368922	-0.4284384667	-1.3466729587	 0.278488
H	 1.2233964785	-1.6404851507	-0.7337389238	 0.090252
H	 3.2216014595	-0.3314171846	-0.1324492117	 0.288874
H	 1.9470333628	 0.9743376818	 1.9159574714	 0.129556
H	 0.6341087261	 0.4923564301	 3.0148403215	 0.131805
H	 2.0725880047	-0.5219099807	 2.8444786604	 0.100691
H	 0.7439064288	-2.4228226494	 1.9595084486	 0.276281
158.0872	171.4835	179.6774	214.0712	227.7925	252.9538	273.5106	277.5647	317.9186	331.674	412.6314	417.1255	438.8222	538.1334	588.8314	692.478	725.9076	880.61	950.3944	995.919	1001.5707	1064.1113	1076.8194	1143.1739	1177.2295	1193.7912	1263.9047	1282.7268	1290.4836	1329.0858	1359.3343	1402.6724	1414.0964	1462.2501	1480.8315	1486.4556	1500.5327	1525.7851	3021.9968	3032.0888	3088.6085	3093.9667	3098.1525	3136.0355	3149.8603	3787.9723	3789.4237	3797.643
CC1(O)C(O)C1(C)O	C[C@@]1(O)[C@@H](O)[C@]1(C)O	
InChI=1S/C5H10O3/c1-4(7)3(6)5(4,2)8/h3,6-8H,1-2H3	InChI=1S/C5H10O3/c1-4(7)3(6)5(4,2)8/h3,6-8H,1-2H3/t3-,4-,5+
