16
gdb 9140	3.79068	0.87543	0.73757	2.4922	71.4	-0.2515	-0.0325	0.219	1485.7008	0.127239	-383.713029	-383.703333	-383.702389	-383.749856	32.121	
C	 0.0276996286	 1.5157165613	 0.0782655055	-0.397786
C	-0.0531459498	-0.0236804294	-0.06597712	-0.21405
C	 0.7054011725	-0.6644070278	 1.1019659979	 0.172772
O	 1.780242042	-1.1890503881	 0.998924076	-0.240324
C	-1.43251377	-0.4976813858	-0.0683067831	 0.047942
C	-2.5708802749	-0.8907371276	-0.0126399292	 0.045671
C	-3.9353050574	-1.4196604321	 0.0080321959	-0.19161
O	-4.008528832	-2.7836113767	 0.3955370959	-0.399284
H	 1.0700392442	 1.8432193442	 0.0371987455	 0.135574
H	-0.5267390998	 1.9972407015	-0.7304285004	 0.139247
H	-0.4073883376	 1.8399528699	 1.0281658403	 0.134263
H	 0.4638082727	-0.3289039858	-0.9824609433	 0.12402
H	 0.1778406778	-0.5822751679	 2.0782363236	 0.091182
H	-4.5407079538	-0.8707120417	 0.7377542609	 0.14226
H	-4.4008249563	-1.2544279328	-0.976953219	 0.120744
H	-3.4054514963	-3.2780239114	-0.1694305864	 0.289376
15.8881	49.0661	100.0412	123.8551	190.0418	224.7428	269.2598	307.8911	344.4129	428.2048	464.3159	523.4527	584.7282	774.5174	884.8359	929.5937	984.5657	1031.569	1061.2085	1084.2064	1122.5916	1173.5978	1215.694	1270.0124	1325.4272	1359.4682	1398.3223	1415.8941	1418.7922	1490.7294	1492.4216	1497.3703	1840.1616	2353.9638	2889.4603	2976.313	3045.8833	3053.3479	3063.8901	3123.4586	3131.7167	3816.4117
CC(C=O)C#CCO	C[C@@H](C=O)C#CCO	
InChI=1S/C6H8O2/c1-6(5-8)3-2-4-7/h5-7H,4H2,1H3	InChI=1S/C6H8O2/c1-6(5-8)3-2-4-7/h5-7H,4H2,1H3/t6-/m1/s1
