19
gdb 76978	2.27074	1.18835	0.9082	2.7791	78.14	-0.2395	-0.0171	0.2224	1327.4381	0.15774	-422.998567	-422.989382	-422.988438	-423.033323	33.775	
O	-0.1185179176	 1.2691762811	-0.204494361	-0.40972
C	-0.1401050297	-0.108837457	 0.0065959598	 0.057038
C	-0.4378602974	-0.6603194723	 1.4092654236	-0.182613
C	-0.6273195808	 0.2596623718	 2.5489495783	 0.160974
O	-0.3081447644	-0.0067294083	 3.6850156392	-0.280208
C	-1.4702816778	-0.7181216192	 0.2584190883	-0.066118
C	-2.7220012148	 0.1029516191	 0.2585430192	 0.016115
C	-3.8473139645	-0.272333404	-0.6762226428	-0.276041
C	-4.0033625691	-0.4731736617	 0.8099528064	-0.269547
H	 0.726111685	 1.6120301104	 0.1063964684	 0.297884
H	 0.5853317304	-0.6746732915	-0.5774421937	 0.101951
H	 0.0415740765	-1.5942766357	 1.6834431478	 0.103807
H	-1.0821059086	 1.2409467889	 2.3011945629	 0.079237
H	-1.6034059446	-1.7239638565	-0.131648408	 0.100171
H	-2.5662165257	 1.1654017678	 0.4010319077	 0.106825
H	-4.4017291989	 0.5275875087	-1.1538115416	 0.116836
H	-3.7192742763	-1.1538250685	-1.2962627574	 0.111681
H	-3.9777692382	-1.4895171122	 1.188960101	 0.115136
H	-4.6682393134	 0.1865512393	 1.356106112	 0.116592
46.0631	88.8775	137.5649	169.004	205.3704	279.7571	314.6019	354.7489	432.0722	464.9889	556.3381	614.852	742.398	778.5256	824.8467	842.0292	869.3081	934.0447	941.771	997.6418	1007.1362	1038.504	1049.8831	1063.7058	1081.326	1129.1383	1141.7678	1177.4163	1198.753	1212.3179	1221.0928	1238.425	1289.7915	1314.3531	1334.438	1424.8648	1444.2893	1471.1632	1475.6891	1508.5334	1802.2298	2914.4974	3101.6281	3130.4884	3135.2061	3139.7627	3171.3605	3184.3661	3209.5038	3225.5582	3807.9209
OC1C(C=O)C1C1CC1	O[C@H]1[C@@H](C=O)[C@H]1C1CC1	
InChI=1S/C7H10O2/c8-3-5-6(7(5)9)4-1-2-4/h3-7,9H,1-2H2	InChI=1S/C7H10O2/c8-3-5-6(7(5)9)4-1-2-4/h3-7,9H,1-2H2/t5-,6+,7-/m0/s1
