18
gdb 38787	2.94259	1.96954	1.64165	0.982	72.94	-0.2246	0.0674	0.292	879.1485	0.150872	-401.871731	-401.865394	-401.864449	-401.90205	27.093	
C	 0.0175832678	 1.553401013	-0.1323550505	-0.348889
C	 1.3169116108	 0.7884635318	-0.0434215232	 0.1136
O	 2.1584130972	 0.835281022	 1.0746086628	-0.26788
C	 1.6738674492	 0.2952371597	 2.2947788805	 0.083685
C	 0.4143768775	 0.9312997394	 2.9412098836	-0.191579
N	-0.4132723657	-0.2960052535	 2.6988534527	-0.162014
C	-0.2639008745	-0.7417081149	 1.2880266274	-0.033395
C	 0.0127856364	 0.0408323197	 0.0291287274	-0.067407
C	 0.8499904253	-0.9986837153	 2.2239958696	-0.081281
H	-0.2982509361	 2.1852464166	 0.6841711472	 0.127564
H	-0.2595525939	 1.9312153909	-1.111020694	 0.114267
H	 1.91840122	 0.707497112	-0.9423943579	 0.1024
H	 2.5438309187	 0.261033728	 2.9506306046	 0.094858
H	 0.5404314798	 1.0349595182	 4.02242868	 0.11441
H	 0.0227006749	 1.8688315309	 2.5478516733	 0.110539
H	-0.9366021584	-1.5786865833	 1.1259674379	 0.102005
H	-0.274079813	-0.5203175876	-0.854833937	 0.09429
H	 1.153785384	-1.9765017477	 2.5802544054	 0.094828
193.4988	234.8226	358.3439	432.705	457.5737	514.74	585.132	687.915	732.2832	753.5685	766.393	805.9611	851.4981	862.7731	882.4978	934.4654	971.1731	972.3554	1014.5573	1027.2832	1041.2325	1067.5295	1080.2824	1097.2394	1116.0312	1128.4697	1174.7147	1183.4212	1232.3895	1243.2423	1252.9308	1294.4632	1339.3649	1361.5633	1386.9842	1418.0354	1421.9251	1475.3423	1512.7891	3068.7839	3112.3143	3133.1769	3140.5802	3148.6311	3155.88	3167.379	3176.1369	3254.585
C1C2OC3CN4C(C12)C34	C1[C@H]2O[C@H]3CN4[C@@H]([C@@H]12)[C@@H]34	
InChI=1S/C7H9NO/c1-3-4(1)9-5-2-8-6(3)7(5)8/h3-7H,1-2H2	InChI=1S/C7H9NO/c1-3-4(1)9-5-2-8-6(3)7(5)8/h3-7H,1-2H2/t3-,4+,5-,6-,7+,8?/m0/s1
