14
gdb 34517	5.21006	1.17965	1.07202	3.2958	73.5	-0.2558	-0.0661	0.1896	1064.6487	0.102003	-399.484291	-399.477886	-399.476942	-399.515194	25.396	
N	 0.0266157249	-1.1622612347	-0.0390481476	-0.340868
C	-0.027035161	-0.0044433977	-0.015964892	 0.20161
C	-0.0511856729	 1.407308205	 0.0124337924	 0.185385
C	-1.1054593972	 2.2447489108	 0.0180215947	-0.19885
C	-0.495173176	 3.6209975768	 0.052580202	-0.095958
C	 0.808936896	 3.5820208581	-0.8279083341	 0.080102
O	 1.5153881491	 4.475756931	 0.0916895849	-0.313875
C	 0.7896062473	 3.5457353436	 0.9587564724	 0.080102
C	 1.1605195626	 2.3282817145	 0.0442400137	-0.160416
H	-2.1566549059	 1.9953273153	 0.0015765921	 0.141841
H	-1.1077732662	 4.51917137	 0.0641931822	 0.096681
H	 0.9274747613	 3.7446358365	-1.9010686874	 0.110146
H	 0.8848380084	 3.6645990594	 2.0399457364	 0.110146
H	 2.1722728696	 1.9311078514	 0.0471208403	 0.103953
127.8005	153.7531	378.9858	459.2464	470.4501	492.1776	593.9993	598.0348	694.9237	709.3035	806.4901	855.9427	872.0432	885.4919	895.9321	944.0299	970.4713	990.0622	1018.8841	1115.2478	1141.1501	1164.9896	1170.0374	1170.7781	1194.3773	1246.4603	1265.3482	1305.2366	1326.0834	1637.7513	2333.3011	3103.7931	3107.2291	3162.2517	3168.487	3243.5955
N#CC1=CC2C3OC2C13	N#CC1=C[C@@H]2[C@H]3O[C@@H]2[C@@H]13	
InChI=1S/C7H5NO/c8-2-3-1-4-6-5(3)7(4)9-6/h1,4-7H	InChI=1S/C7H5NO/c8-2-3-1-4-6-5(3)7(4)9-6/h1,4-7H/t4-,5+,6-,7+
