15
gdb 21944	6.98328	1.03425	0.9646	4.5081	62.85	-0.2529	0.0002	0.2531	1158.3738	0.120332	-395.973372	-395.965728	-395.964784	-396.006485	26.655	
O	-0.091294653	 1.4707396971	 0.0602974837	-0.414316
C	 0.0303864845	 0.0609643731	 0.0414278272	-0.062597
C	-1.3849156259	-0.5107545986	-0.1040158016	-0.308207
C	-1.4110625466	-2.00312795	-0.1217603877	 0.32187
C	-1.4729352211	-2.9339961018	-1.1349701231	-0.148469
N	-1.4341492022	-4.1872780443	-0.6022324259	-0.184302
N	-1.3508932458	-4.0957089488	 0.6927236255	-0.117187
N	-1.333431681	-2.7803814138	 0.9898021183	-0.229586
H	 0.7905914013	 1.8522601127	 0.0979465196	 0.292163
H	 0.651449373	-0.2871486265	-0.7976347258	 0.103306
H	 0.4914312228	-0.3186183426	 0.9678080226	 0.087528
H	-2.0016593944	-0.118978344	 0.7131484868	 0.123322
H	-1.8179063774	-0.130667501	-1.0335392138	 0.136069
H	-1.5477329933	-2.7719254557	-2.1983947914	 0.122276
H	-1.2867265509	-2.496328426	 1.9557563155	 0.278129
46.782	90.479	119.7749	251.9119	321.7783	344.6629	371.1053	584.1197	687.1526	730.0928	769.6767	795.1172	852.5693	994.9965	1003.4104	1041.9543	1071.0891	1077.4466	1086.3515	1139.3243	1207.3631	1239.0811	1240.9964	1303.7279	1315.2294	1350.1193	1385.1688	1439.9927	1455.8245	1491.3065	1527.4021	1609.9476	2968.4209	3005.6779	3046.0918	3100.8095	3267.8942	3651.2346	3833.5056
OCCC1=CN=NN1	OCCc1cnn[nH]1	
InChI=1S/C4H7N3O/c8-2-1-4-3-5-7-6-4/h3,8H,1-2H2,(H,5,6,7)	InChI=1S/C4H7N3O/c8-2-1-4-3-5-7-6-4/h3,8H,1-2H2,(H,5,6,7)
