18
gdb 108699	3.4117	1.51091	1.21206	0.4829	78.8	-0.2107	-0.0491	0.1617	1031.9216	0.147494	-401.815227	-401.807608	-401.806664	-401.847175	30.036	
O	-0.1818534031	 1.4895356539	-0.192749575	-0.411009
C	-0.1698271447	 0.0783840317	-0.1946038312	-0.132568
C	-1.4259968654	-0.5385114052	 0.3314154369	 0.206824
C	-2.5746253293	 0.1420340467	 0.5743369345	-0.11579
C	-3.1912463119	 0.7059480153	-0.7346981828	-0.264782
C	-3.9136590484	-0.6957324303	-0.7680813782	-0.042894
C	-3.7281522284	-0.8854220336	 0.6851106923	-0.081187
N	-3.2539254136	-1.9445381398	-0.1814181866	-0.116255
C	-1.7875212612	-1.9942139668	 0.0559834778	-0.232012
H	-0.6900721884	 1.760425647	 0.5824194057	 0.284196
H	-0.0036034844	-0.2377224561	-1.2361936182	 0.121338
H	 0.6916973814	-0.3189981258	 0.3746624581	 0.105932
H	-3.959848355	 1.4780756422	-0.6184322703	 0.112863
H	-2.4926048571	 0.991762992	-1.5228120977	 0.123523
H	-4.7914258407	-0.9190069655	-1.3655713343	 0.107101
H	-4.4362284731	-1.0390922635	 1.491066759	 0.091471
H	-1.2375932869	-2.3461809338	-0.8251364189	 0.121079
H	-1.6148624598	-2.7194668784	 0.8614670793	 0.122169
108.2262	164.0917	176.7383	295.8757	316.3414	403.2811	437.8601	480.5073	598.2766	647.0858	756.6504	769.6068	777.0846	841.1427	865.1809	917.9972	925.5828	949.7366	987.7463	1007.1259	1030.7331	1051.1002	1073.1762	1083.7535	1103.8192	1160.6338	1201.3875	1210.834	1213.1805	1228.5202	1231.1754	1294.9513	1326.6647	1344.3175	1426.8619	1472.5462	1482.9462	1508.5241	1585.9204	2926.2328	2997.6444	3021.6548	3039.6522	3063.8592	3119.2135	3167.7337	3183.4094	3765.9238
OCC1=C2CC3C2N3C1	OC[C]1[C]2C[C@@H]3[C@H]2N3C1	
InChI=1S/C7H9NO/c9-3-4-2-8-6-1-5(4)7(6)8/h6-7,9H,1-3H2	InChI=1S/C7H9NO/c9-3-4-2-8-6-1-5(4)7(6)8/h6-7,9H,1-3H2/t6-,7+,8?/m1/s1
