17
gdb 45539	4.29557	1.20308	0.98285	2.2961	75.94	-0.2427	-0.0483	0.1944	1153.5519	0.137976	-421.861147	-421.853956	-421.853012	-421.893021	27.816	
O	 0.0635754915	-0.0162952082	-0.1544217384	-0.325916
C	 0.0170852612	 1.1843971355	-0.045014094	 0.396658
C	-1.2746741788	 2.0344675041	 0.0743984189	-0.378015
C	-0.7942417259	 3.4751744006	-0.115870692	-0.075078
C	-1.0907202032	 4.6167731268	 0.8623474398	-0.102687
O	 0.0208017171	 5.5076238761	 0.7032452836	-0.264313
C	 1.2018182194	 4.7482954725	 0.4200310736	-0.170431
C	 0.7048260534	 3.3814578763	 0.0676624248	 0.331398
C	 1.1638727247	 2.1272794765	 0.0721632117	-0.368
H	-2.0301315632	 1.7010061444	-0.639404681	 0.130045
H	-1.6808532436	 1.8758869183	 1.0808706125	 0.134522
H	-1.0126893533	 3.8317678287	-1.1313830978	 0.10664
H	-1.9956572627	 5.1870930708	 0.6416448562	 0.118277
H	-1.1517779639	 4.2391576498	 1.8961335036	 0.095824
H	 1.7423272883	 5.2401115131	-0.3984857924	 0.13074
H	 1.869118845	 4.7186627193	 1.2934033799	 0.123386
H	 2.183429484	 1.7870713555	 0.2000418011	 0.116951
92.6422	168.3147	198.9009	314.5577	331.3253	493.8991	507.4783	543.3816	638.7604	653.7094	733.7068	813.991	828.5826	867.7569	914.5793	923.6723	998.6629	1012.3364	1057.4001	1060.1623	1107.3255	1127.5283	1161.942	1190.2437	1203.2794	1220.3182	1246.3673	1270.5034	1297.3996	1318.5407	1350.5676	1390.8551	1457.3523	1493.521	1517.1271	1704.4983	1821.7723	2973.4996	3003.0726	3019.9922	3041.5133	3048.0705	3104.8531	3119.5586	3221.0008
O=C1CC2COCC2=C1	O=C1C[C@H]2COCC2=C1	
InChI=1S/C7H8O2/c8-7-1-5-3-9-4-6(5)2-7/h1,6H,2-4H2	InChI=1S/C7H8O2/c8-7-1-5-3-9-4-6(5)2-7/h1,6H,2-4H2/t6-/m0/s1
