17
gdb 43881	4.48342	1.08981	1.03356	2.9567	72.18	-0.2449	-0.0241	0.2208	1159.3617	0.134377	-421.788988	-421.78136	-421.780416	-421.821774	29.544	
O	 0.0104366986	-0.0040659746	-0.3356718136	-0.285705
C	-0.01597087	 1.1512171597	-0.0288834545	 0.407767
C	-1.134192712	 2.1360311863	 0.344982694	-0.411022
C	-0.0339293003	 3.1464821884	 0.7748805586	 0.336387
C	-0.0601093107	 4.6708944808	 0.4113512277	-0.346237
C	 0.0371690023	 4.9821796679	 1.910894473	 0.042463
O	-1.0823794398	 4.3512772372	 2.5461203775	-0.246536
C	 0.0686858573	 3.5528458783	 2.2535914957	-0.0444
C	 1.0746384753	 2.2153623347	 0.2016269841	-0.430979
H	-1.7103509395	 2.4539986937	-0.5310769722	 0.133843
H	-1.8366443956	 1.8063911086	 1.1152961221	 0.140795
H	 0.8260163268	 4.9751899234	-0.1523340933	 0.11063
H	-0.9597369935	 5.0459730432	-0.0833893013	 0.114208
H	 0.4706999118	 5.8408263878	 2.4093252841	 0.109385
H	 0.5326244806	 3.0191347134	 3.0764967706	 0.106034
H	 1.8877818016	 1.9252379695	 0.8743596193	 0.130699
H	 1.5141266471	 2.5671390416	-0.7380931218	 0.132669
39.5734	126.7352	234.4053	319.5863	379.9989	396.6229	431.8723	480.4549	564.6082	662.9279	712.7237	785.0938	822.605	846.7582	861.0475	885.3304	907.5632	957.258	982.6781	1013.9408	1043.4041	1061.6004	1103.7734	1117.0252	1132.7735	1179.7388	1211.1967	1215.6565	1233.1029	1233.3857	1269.4471	1305.3507	1384.9062	1422.9203	1441.5738	1469.2865	1897.119	3046.0366	3052.6625	3058.7293	3099.792	3108.9929	3116.4656	3172.2223	3195.71
O=C1CC2(CC3OC23)C1	O=C1CC2(C[C@H]3O[C@@H]23)C1	
InChI=1S/C7H8O2/c8-4-1-7(2-4)3-5-6(7)9-5/h5-6H,1-3H2	InChI=1S/C7H8O2/c8-4-1-7(2-4)3-5-6(7)9-5/h5-6H,1-3H2/t5-,6-/m1/s1
