23
gdb 82914	2.37793	1.71782	1.34436	0.1207	88.21	-0.2424	0.0894	0.3319	1093.3749	0.207351	-351.152986	-351.144455	-351.143511	-351.185368	34.638	
C	 1.3537196328	 2.5390800942	-0.0915402872	-0.417716
C	 1.0070406187	 1.0855601016	-0.3377022506	-0.01514
C	 2.0373169352	-0.0238955587	-0.3993506462	-0.056742
C	 3.4289430743	 0.2445613444	 0.180974275	-0.252757
C	 3.2141595409	 0.373976829	 1.6883591156	-0.058613
C	 2.6936752791	-0.8482262803	 2.4092517166	-0.344396
C	 1.7354975881	 0.2551228916	 2.0204036542	 0.366942
C	 1.0619637054	 1.0708153815	 3.1013424173	-0.482923
C	 1.0121750058	 0.002772682	 0.7212290569	-0.130862
H	 2.1346363133	 2.6619716089	 0.6618096114	 0.126409
H	 1.7048349665	 3.0157962703	-1.0141284254	 0.111397
H	 0.4748753974	 3.0972082116	 0.2503975241	 0.114065
H	 0.2054736756	 0.9630315131	-1.0633541406	 0.078653
H	 1.9536333468	-0.7434498541	-1.2063666916	 0.075724
H	 4.1132559389	-0.5774020545	-0.0602364046	 0.095812
H	 3.8777293595	 1.1555467619	-0.2335592213	 0.095534
H	 3.8445568234	 1.0587145632	 2.2467456692	 0.074372
H	 2.6566791164	-1.7898366786	 1.8688545295	 0.103947
H	 2.9370072344	-0.9464546879	 3.4623499019	 0.102487
H	 1.7267833056	 1.2166745817	 3.9590287173	 0.109978
H	 0.7627946458	 2.0588041763	 2.7358133407	 0.116997
H	 0.1589725673	 0.568086596	 3.4680956696	 0.113752
H	 0.1834977889	-0.7008018931	 0.7312153484	 0.07308
153.1697	161.6649	199.688	209.2931	262.1271	294.7828	341.2005	422.6761	469.6536	533.8954	565.7178	700.554	732.8459	767.9451	791.7703	828.0801	862.4281	897.964	938.2795	948.6471	964.5452	982.6415	1008.5946	1034.6146	1056.9314	1080.8901	1090.0622	1106.3059	1111.2821	1124.9229	1136.9637	1144.6641	1223.9803	1226.6944	1252.5653	1276.9009	1323.0977	1350.5739	1375.1747	1396.3015	1415.6578	1419.2247	1432.5016	1487.8743	1489.8225	1492.8256	1503.2853	1504.8446	1508.0544	3023.3662	3023.9913	3029.8079	3053.4904	3080.7638	3083.4885	3098.6556	3112.6627	3117.8473	3128.1679	3135.3798	3156.4605	3165.172	3203.2942
CC1C2CC3CC3(C)C12	C[C@H]1[C@H]2C[C@@H]3C[C@]3(C)[C@@H]12	
InChI=1S/C9H14/c1-5-7-3-6-4-9(6,2)8(5)7/h5-8H,3-4H2,1-2H3	InChI=1S/C9H14/c1-5-7-3-6-4-9(6,2)8(5)7/h5-8H,3-4H2,1-2H3/t5-,6+,7+,8-,9-/m0/s1
