21
gdb 89730	2.43657	1.42512	1.21368	1.194	78.86	-0.2488	0.0732	0.322	1143.1707	0.180165	-424.201407	-424.191732	-424.190788	-424.23508	37.466	
C	-0.1013896008	 1.5122279155	-0.0092335244	-0.442715
C	-0.0106361031	-0.0104557954	-0.0018193903	 0.296455
O	-1.2841116469	-0.6007820724	-0.1810234512	-0.478224
C	 1.1399392555	-0.5700938372	-0.8913828889	 0.091293
O	 1.5407356497	 0.2769922804	-1.9430700129	-0.440714
C	 2.0339292186	-0.7003846029	 0.3777375183	-0.376992
C	 0.7489540137	-0.5866927843	 1.2051154864	 0.36049
C	 0.559300173	-0.2777209979	 2.6584586051	-0.341707
C	 0.1960665124	-1.6414140528	 2.1155283605	-0.315834
H	 0.8713290447	 1.9745158044	 0.1743179447	 0.126345
H	-0.4512671583	 1.872159899	-0.9832089843	 0.116534
H	-0.7988712011	 1.8449088899	 0.7652991318	 0.115324
H	-1.7574455903	-0.0948880153	-0.8498384425	 0.277221
H	 0.8399626671	-1.5613445458	-1.2562131191	 0.075387
H	 2.2538505285	-0.1526485128	-2.4253471085	 0.284636
H	 2.6238765377	-1.6143116471	 0.484605229	 0.095942
H	 2.6903358895	 0.1692476659	 0.4857638876	 0.102787
H	 1.4443626475	-0.1883784834	 3.2804685294	 0.107514
H	-0.2509670014	 0.3883373359	 2.938645567	 0.112015
H	-0.8554116615	-1.8835222607	 2.0111941763	 0.129758
H	 0.8358793356	-2.4809132931	 2.369653096	 0.104485
85.1312	191.6964	214.2687	224.2139	230.4664	243.1978	256.5474	270.9185	335.3586	401.0169	424.1789	491.3244	513.5931	586.3439	681.552	771.3886	790.8529	876.3729	879.2528	916.8376	929.0804	964.285	986.2408	1037.0161	1053.256	1072.6966	1077.6376	1123.7815	1143.2408	1154.4047	1186.4865	1190.9569	1224.8129	1240.3187	1259.0391	1303.662	1351.6535	1399.3757	1405.858	1428.7824	1461.5771	1486.3655	1488.0691	1490.6747	1504.5473	3016.9167	3035.3982	3045.8319	3101.7056	3103.4892	3121.2525	3126.1505	3128.7655	3201.396	3222.8122	3811.0767	3820.1336
CC1(O)C(O)CC11CC1	C[C@@]1(O)[C@@H](O)CC21CC2	
InChI=1S/C7H12O2/c1-6(9)5(8)4-7(6)2-3-7/h5,8-9H,2-4H2,1H3	InChI=1S/C7H12O2/c1-6(9)5(8)4-7(6)2-3-7/h5,8-9H,2-4H2,1H3/t5-,6+/m0/s1
