21
gdb 85517	2.32378	1.55319	1.04596	2.8818	81.89	-0.2336	-0.0109	0.2227	1194.2113	0.183601	-387.118464	-387.110002	-387.109057	-387.152074	33.121	
C	-0.1823037932	 1.5305440077	 0.038432588	-0.391041
C	 0.0315523151	 0.0115926776	 0.074344744	-0.004669
C	 0.645065109	-0.490491334	-1.2464584393	-0.319477
C	 0.9639163159	-1.9770587812	-1.2551878583	 0.377222
O	 0.7414701888	-2.6699663571	-2.2210348219	-0.311822
C	 1.5926110603	-2.5817948113	 0.0035900017	-0.326262
C	 1.6396905172	-1.7011379676	 1.2410793916	-0.047516
C	 2.3694470164	-0.3782088839	 1.2476884406	-0.298007
C	 0.8587246843	-0.4095930826	 1.2799784723	-0.005605
H	 0.7746271124	 2.055773279	-0.0565031407	 0.117015
H	-0.813719978	 1.8220795371	-0.8073278546	 0.113898
H	-0.6659890742	 1.8814151509	 0.9559566965	 0.112624
H	-0.9550934153	-0.463688191	 0.1770512156	 0.082095
H	-0.0129704533	-0.2851756038	-2.0949075379	 0.120058
H	 1.5840036597	 0.0479959198	-1.440749353	 0.121886
H	 1.0219120231	-3.4942056583	 0.2105894742	 0.134408
H	 2.5973895325	-2.9264622813	-0.2762866371	 0.133094
H	 1.6886640449	-2.2623148762	 2.1695304213	 0.088273
H	 2.8938831625	-0.0905945164	 2.1520941656	 0.111183
H	 2.86891062	-0.061441336	 0.3379326927	 0.110032
H	 0.4015105116	-0.1498456816	 2.2312997685	 0.082612
31.915	132.5591	227.6097	256.0498	279.7571	331.4974	402.2575	427.6063	480.9421	517.0403	556.2562	628.5508	748.9199	762.1193	825.9996	847.9166	862.6529	900.967	936.7809	987.4807	997.2082	1040.0459	1065.5273	1079.8927	1094.0971	1108.5853	1141.6955	1165.6063	1190.4675	1232.656	1244.9272	1251.3155	1292.4721	1329.8685	1352.4998	1365.2537	1386.4724	1408.5306	1420.8577	1446.0955	1466.1391	1495.5996	1499.0506	1505.3673	1808.4582	2991.9902	3019.3969	3024.5611	3028.645	3067.3687	3096.4241	3099.2595	3101.542	3132.6096	3134.6814	3147.6679	3213.9408
CC1CC(=O)CC2CC12	C[C@H]1CC(=O)C[C@H]2C[C@@H]12	
InChI=1S/C8H12O/c1-5-2-7(9)3-6-4-8(5)6/h5-6,8H,2-4H2,1H3	InChI=1S/C8H12O/c1-5-2-7(9)3-6-4-8(5)6/h5-6,8H,2-4H2,1H3/t5-,6-,8-/m0/s1
