20
gdb 113247	4.44833	0.79476	0.75472	5.0023	80.43	-0.2764	0.0295	0.3058	1567.4634	0.168351	-403.158463	-403.148253	-403.147309	-403.194257	36.38	
C	-0.3824169889	 1.4796217865	 0.4864755828	-0.373646
C	 0.2159661582	 0.2044836706	-0.1218381906	-0.225214
C	 1.0425640218	-0.5556522691	 0.8870052149	 0.02238
O	 0.3440240756	-1.2591395463	 1.9278887192	-0.28609
C	 1.1299203655	-2.023644402	 1.0095445415	 0.372873
C	 0.3817467724	-2.9824014743	 0.111476329	-0.472222
C	 2.4158687704	-2.5855657345	 1.6262286774	-0.401337
C	 2.1898880914	-3.8054495567	 2.4020344115	 0.273888
N	 2.0033193745	-4.7747316471	 3.0025438611	-0.31023
H	 0.4016532919	 2.1522031549	 0.8507747114	 0.117625
H	-0.974702704	 2.0255078335	-0.2531960275	 0.117863
H	-1.0320456508	 1.2328474727	 1.3311794152	 0.138776
H	-0.5854757217	-0.4299178395	-0.509535304	 0.10856
H	 0.8611969986	 0.4610477568	-0.9721560103	 0.10456
H	 1.9008905486	 0.0118288245	 1.2598962317	 0.083156
H	-0.54945451	-2.5441095418	-0.2472219258	 0.13713
H	 0.9941824588	-3.2625714945	-0.7525146234	 0.124111
H	 0.1365325478	-3.8967797574	 0.6605511065	 0.155774
H	 3.1417433282	-2.808961936	 0.8350137994	 0.153087
H	 2.8638264319	-1.8325319402	 2.2812357801	 0.158956
48.7342	67.8265	120.4338	140.3787	187.8754	208.9264	259.8346	306.8951	357.0777	388.1564	400.2952	438.8704	484.6376	629.2138	723.9876	770.6211	834.7397	888.1927	911.2327	929.5794	961.9513	1001.1179	1038.9651	1088.4236	1106.7598	1149.0499	1159.2316	1212.96	1260.6147	1290.0641	1316.3306	1344.8248	1379.9987	1408.5038	1420.6749	1448.9094	1467.2278	1474.1079	1494.391	1498.6727	1505.0254	1516.2845	2363.0177	3030.6587	3038.3865	3042.523	3045.8549	3056.6165	3090.3083	3097.1822	3107.3041	3111.8007	3120.3737	3151.7385
CCC1OC1(C)CC#N	CC[C@H]1O[C@]1(C)CC#N	
InChI=1S/C7H11NO/c1-3-6-7(2,9-6)4-5-8/h6H,3-4H2,1-2H3	InChI=1S/C7H11NO/c1-3-6-7(2,9-6)4-5-8/h6H,3-4H2,1-2H3/t6-,7-/m1/s1
