19
gdb 76269	2.3261	1.51435	1.06056	1.7915	74.99	-0.2396	-0.0404	0.1992	1164.5532	0.157299	-423.085012	-423.075782	-423.074838	-423.119518	34.019	
C	 0.0419108182	 1.6048193968	 0.2379935861	-0.401253
C	-0.0099869093	 0.0878105132	-0.0253387809	-0.117024
C	 0.8033542493	-0.3842892627	-1.2575961809	-0.108777
C	 0.8255562476	 0.4995728995	-2.5004856898	-0.408734
C	 2.1981527496	-0.6826846461	-0.689549929	 0.385243
O	 3.2384081612	-0.5629747823	-1.2832116326	-0.308682
C	 2.0320386166	-1.128696418	 0.7597104154	-0.43742
C	 0.6447845106	-0.6309474964	 1.1679312207	 0.393918
O	 0.1468565523	-0.7510993675	 2.2567027097	-0.312164
H	 1.0726734674	 1.9711494619	 0.3065267369	 0.125483
H	-0.4564981088	 2.1579499995	-0.5620839399	 0.129388
H	-0.4609501303	 1.8306690273	 1.1815707379	 0.142632
H	-1.0585594316	-0.2183011071	-0.0845762007	 0.102778
H	 0.4077725935	-1.3742695033	-1.537976656	 0.108389
H	 1.2261431308	 1.4922859424	-2.2791055486	 0.129104
H	 1.4689506763	 0.0523353947	-3.2618432624	 0.138889
H	-0.1777318313	 0.6193548569	-2.9198737909	 0.115529
H	 2.0590418584	-2.2243356972	 0.8182570804	 0.16266
H	 2.8251338295	-0.7589591416	 1.4147591647	 0.160039
45.4523	69.7502	184.1315	226.177	235.7906	250.8328	275.1495	372.7416	407.9902	488.3828	519.4438	569.4643	602.2247	674.6133	720.5737	774.3007	855.1228	872.2214	964.2902	993.9615	1011.4427	1048.1914	1071.2002	1158.4073	1163.8169	1165.8169	1202.8813	1224.4114	1249.3372	1290.2234	1335.2037	1352.7802	1399.426	1402.4103	1414.8486	1489.8911	1491.8936	1499.4196	1506.5394	1829.3741	1863.9959	2979.5943	3036.1734	3046.3078	3049.2752	3067.1387	3108.1975	3109.6628	3118.7676	3127.0854	3129.9077
CC1C(C)C(=O)CC1=O	C[C@H]1[C@@H](C)C(=O)CC1=O	
InChI=1S/C7H10O2/c1-4-5(2)7(9)3-6(4)8/h4-5H,3H2,1-2H3	InChI=1S/C7H10O2/c1-4-5(2)7(9)3-6(4)8/h4-5H,3H2,1-2H3/t4-,5+
