19
gdb 58065	1.75435	1.66267	1.10886	4.527	81.29	-0.2663	0.0017	0.268	1192.6523	0.156181	-382.039165	-382.02862	-382.027676	-382.074023	38.887	
C	 0.0431807764	 1.5598571733	 0.011341807	-0.418932
C	 0.0088531849	 0.0280815439	 0.0399754805	 0.027293
C	 0.8203499629	-0.5228061789	 1.2186314032	-0.427565
C	-1.4782356111	-0.5109238945	 0.0470193286	-0.142731
N	-2.2917454556	-0.1365067233	 1.2158357516	-0.521401
C	-2.1727476516	-0.0559306901	-1.1672637349	 0.382459
C	-2.7209783027	 0.3379874953	-2.1597361399	-0.43552
C	-1.4275120733	-1.994529007	 0.0074892073	 0.327576
N	-1.3456876682	-3.1464185361	-0.010847805	-0.347688
H	 1.0777297153	 1.9056844756	-0.0688759353	 0.124098
H	-0.516496442	 1.9619557353	-0.8364692448	 0.135053
H	-0.370511385	 1.9858144992	 0.9322840926	 0.110029
H	 0.4520135311	-0.3469226693	-0.8902272942	 0.104339
H	 0.4413070953	-0.1503459391	 2.1773785347	 0.1114
H	 0.813979184	-1.6155729812	 1.2461246897	 0.148739
H	 1.8603112111	-0.1941286296	 1.1369101584	 0.124566
H	-1.8017656149	-0.3782933264	 2.0718393782	 0.243534
H	-2.4427671151	 0.8668200666	 1.2103942787	 0.244772
H	-3.2177847816	 0.6716197562	-3.0377919663	 0.209976
73.2405	132.6918	146.9583	174.4654	208.4728	218.6546	244.7537	285.7817	297.0388	345.4508	367.1075	481.9886	489.949	517.5908	571.9632	576.1943	647.9589	671.0338	684.5236	823.4571	890.2047	931.026	958.6689	991.943	998.061	1051.9224	1139.2023	1180.097	1197.444	1320.1715	1348.8908	1350.2542	1402.2018	1422.0103	1489.7569	1493.6999	1506.9065	1511.8909	1641.5429	2244.4773	2361.2067	3033.8059	3036.4881	3042.7017	3098.8671	3105.931	3123.3713	3126.8754	3497.9651	3501.6196	3597.0306
CC(C)C(N)(C#C)C#N	CC(C)[C@@](N)(C#C)C#N	
InChI=1S/C7H10N2/c1-4-7(9,5-8)6(2)3/h1,6H,9H2,2-3H3	InChI=1S/C7H10N2/c1-4-7(9,5-8)6(2)3/h1,6H,9H2,2-3H3/t7-/m1/s1
