21
gdb 116954	4.47724	0.52499	0.48391	1.4049	85.95	-0.2432	0.0364	0.2796	2283.0799	0.178928	-424.184649	-424.17329	-424.172346	-424.223464	38.987	
C	 1.0265726467	 0.814512569	 0.6295365997	-0.218379
O	 0.8656584203	-0.5071062629	 0.1707198937	-0.228693
C	 0.1396636213	-0.5623065876	-1.043667365	-0.203688
C	-0.0058806433	-1.9444256742	-1.4788923225	 0.027788
C	-0.1466224197	-3.0802626719	-1.8528707905	 0.115516
C	-0.2605467612	-4.4607467348	-2.3031193083	-0.370576
C	 1.0952299749	-5.2073636191	-2.3671970575	 0.139135
C	 1.7611627297	-5.3367508454	-1.0004637457	-0.40284
O	 0.9176387734	-6.4708742176	-2.9939669152	-0.423539
H	 1.5839739824	 1.4348481702	-0.0908301765	 0.104318
H	 0.0577619777	 1.3028346527	 0.8226539884	 0.104272
H	 1.5901819256	 0.7661080947	 1.5638752139	 0.130398
H	-0.8564973763	-0.1029428341	-0.9147956647	 0.113292
H	 0.654882024	 0.0259250389	-1.8236246399	 0.112512
H	-0.9390396727	-5.0181181799	-1.6409166742	 0.114231
H	-0.7060887958	-4.4950139898	-3.3040553548	 0.136992
H	 1.7541637037	-4.649548981	-3.0416064194	 0.101015
H	 2.7171338115	-5.858935143	-1.0928043124	 0.123581
H	 1.9336939633	-4.3536287099	-0.5545265631	 0.144579
H	 1.1223593998	-5.9075920623	-0.3132230541	 0.103097
H	 0.4739439747	-7.0510052722	-2.3651901418	 0.276989
16.0812	52.8395	67.236	100.0254	140.8966	230.0883	241.0008	266.9862	284.5458	315.0606	336.6343	371.8413	411.3748	452.9273	462.9873	572.9094	830.6501	836.5013	892.0815	951.7133	976.7697	1029.9504	1066.1844	1111.1041	1128.8487	1136.8657	1176.3118	1183.0826	1218.8485	1220.7737	1253.1562	1279.2119	1340.3258	1370.5024	1404.2699	1412.2823	1424.2971	1467.4195	1478.4279	1484.4701	1493.8376	1495.839	1496.3347	1517.0248	2370.9254	2941.8107	2958.4218	2967.5158	3004.1063	3009.4183	3021.5761	3052.3872	3065.6	3100.1698	3119.5747	3129.8399	3798.6491
COCC#CCC(C)O	COCC#CC[C@@H](C)O	
InChI=1S/C7H12O2/c1-7(8)5-3-4-6-9-2/h7-8H,5-6H2,1-2H3	InChI=1S/C7H12O2/c1-7(8)5-3-4-6-9-2/h7-8H,5-6H2,1-2H3/t7-/m1/s1
