18
gdb 43010	2.24761	2.02041	1.3318	3.3325	76.17	-0.2301	-0.0199	0.2103	989.1937	0.150033	-401.929339	-401.922137	-401.921193	-401.960806	28.959	
O	-0.0065375454	 0.6044991325	-1.3137602562	-0.342578
C	-0.0092945864	 1.3142556684	-0.327840466	 0.402754
C	-1.2837927991	 1.8209465127	 0.2559080366	-0.135821
C	-1.6292079818	 1.6548383535	 1.734493843	-0.309448
C	-1.2284486294	 2.9991490279	 1.21562506	-0.032501
C	 0.1167673075	 3.6618684102	 1.4957855491	-0.181643
N	 1.3537851492	 2.9542387153	 1.1498041092	-0.095083
C	 1.6423966445	 1.6460398294	 1.6939854878	-0.257059
C	 1.2906454765	 1.8030105993	 0.239715545	-0.120732
H	-2.110959768	 1.7379088425	-0.4398676805	 0.11203
H	-2.6803732449	 1.4941209896	 1.9484180447	 0.126718
H	-0.9699358576	 1.0863969181	 2.3754023063	 0.129278
H	-2.0352212543	 3.7208978535	 1.1179652671	 0.100849
H	 0.1390903337	 4.5982164922	 0.9257538008	 0.121085
H	 0.18780433	 3.9389930876	 2.5541554344	 0.11748
H	 2.6848263626	 1.4718094534	 1.949904126	 0.127875
H	 0.9383902765	 1.1558555534	 2.3566420404	 0.121588
H	 2.0960004664	 1.7357068505	-0.4871779676	 0.115209
115.2478	189.4001	254.3667	332.9087	360.0239	417.2388	470.725	518.4749	622.2802	682.8738	740.5503	766.4409	813.901	851.7828	893.929	907.495	927.2896	982.75	998.3051	1045.5404	1051.4499	1074.8241	1101.7692	1116.9962	1130.0058	1134.6184	1163.1004	1218.7648	1274.211	1288.9783	1324.0795	1355.9833	1368.223	1389.4731	1415.412	1486.2464	1488.4083	1528.9353	1776.2628	3028.3185	3063.6907	3115.8885	3139.7603	3146.98	3151.3427	3180.0533	3206.13	3245.3405
O=C1C2CC2CN2CC12	O=C1[C@H]2C[C@H]2CN2C[C@@H]12	
InChI=1S/C7H9NO/c9-7-5-1-4(5)2-8-3-6(7)8/h4-6H,1-3H2	InChI=1S/C7H9NO/c9-7-5-1-4(5)2-8-3-6(7)8/h4-6H,1-3H2/t4-,5-,6-,8?/m0/s1
