19
gdb 6116	2.79671	1.85425	1.47721	2.932	72.72	-0.2555	0.0326	0.2881	961.0049	0.163798	-365.084107	-365.075305	-365.074361	-365.116953	32.914	
C	-0.3350030907	 1.4377380679	-0.095927097	-0.413765
C	-0.0083051891	-0.049032988	-0.0447802977	-0.176038
C	 1.2275280676	-0.5199506491	-0.7815528833	 0.430755
N	 1.64007158	-0.4015083543	-1.9614959138	-0.553657
O	 1.7969722774	-1.1317165376	 0.3097138919	-0.29662
C	 0.688695793	-0.6949055301	 1.1971468021	 0.407206
C	 1.2293070708	 0.2408952971	 2.2647126168	-0.43219
C	-0.0137824757	-1.9087191895	 1.7807629398	-0.43353
H	 0.5258186854	 2.0572935344	 0.1678699672	 0.125671
H	-0.6356911346	 1.7093520215	-1.1115488836	 0.143321
H	-1.1589995842	 1.6857738755	 0.5807972985	 0.117047
H	-0.88687333	-0.6303701121	-0.342729543	 0.10141
H	 2.549234203	-0.8520769942	-2.081729779	 0.22305
H	 1.7996924491	 1.0624310405	 1.8256736412	 0.129245
H	 0.4111447746	 0.6633200507	 2.8568745819	 0.122554
H	 1.8913627199	-0.3073716072	 2.9419049761	 0.128309
H	 0.6570636768	-2.4600781921	 2.4469219076	 0.128111
H	-0.8906860312	-1.5995616936	 2.3595938883	 0.122241
H	-0.3439645121	-2.5859153498	 0.9881944261	 0.126882
75.8109	189.7157	193.0222	204.5236	232.1254	264.7745	318.0782	345.1964	371.9285	453.8067	530.6159	617.9616	656.0419	765.2454	828.579	840.6253	869.4304	936.5301	972.0055	999.836	1021.1576	1052.3279	1078.3141	1135.7095	1153.8123	1205.629	1272.8698	1276.816	1315.1363	1367.9026	1404.63	1409.5489	1419.2182	1473.026	1481.4091	1488.5374	1498.2404	1499.5178	1510.0785	1818.1877	3035.7907	3041.622	3045.0938	3058.3595	3106.0146	3111.961	3113.5417	3117.115	3122.0866	3129.7604	3469.7656
CC1C(=N)OC1(C)C	C[C@H]1[C]([NH])OC1(C)C	
InChI=1S/C6H11NO/c1-4-5(7)8-6(4,2)3/h4,7H,1-3H3	InChI=1S/C6H11NO/c1-4-5(7)8-6(4,2)3/h4,7H,1-3H3/t4-/m0/s1
