19
gdb 63547	2.99235	1.37254	1.26237	1.2327	76.19	-0.2246	0.0701	0.2947	1090.6674	0.156877	-422.960179	-422.951564	-422.95062	-422.992944	33.773	
C	-0.0920886274	 1.5152130147	 0.1039506771	-0.449687
C	-0.027933457	 0.0065682986	 0.0537401327	 0.300851
O	-1.1628504548	-0.6268625808	-0.4770873498	-0.461424
C	 1.3211075673	-0.6834293251	-0.1638364846	-0.443821
C	 0.6202863611	-0.7485976473	 1.1618135174	 0.450146
O	 1.1655771782	-0.107503561	 2.3284349832	-0.322586
C	 0.832838561	-1.269471057	 3.1058816707	 0.092151
C	-0.6446856473	-1.49690704	 3.1268238984	-0.296835
C	 0.1735622073	-1.9609507881	 1.9348800261	-0.198552
H	 0.7558107665	 1.9254052008	 0.6574836844	 0.137544
H	-0.0827372932	 1.9423056304	-0.9064893434	 0.104826
H	-1.0128435477	 1.8349430815	 0.6016448654	 0.126936
H	-1.1920431152	-0.4343945861	-1.4214657291	 0.280072
H	 1.330684795	-1.5867922491	-0.7657854596	 0.11456
H	 2.2083413684	-0.0622634441	-0.2329923341	 0.120178
H	 1.5479015642	-1.5951591777	 3.851189027	 0.105887
H	-0.9835669805	-2.2975521899	 3.7774831279	 0.113346
H	-1.3220538928	-0.6531500563	 3.0364178791	 0.122355
H	 0.216547957	-2.9855884634	 1.5945790011	 0.104054
116.2313	146.7417	161.8167	214.377	296.8127	317.6321	381.5147	405.9845	429.02	487.7236	491.7481	611.3214	742.1625	772.0255	803.3635	863.6993	896.9811	908.9553	935.3072	968.9036	969.4894	981.9769	1017.2482	1044.1263	1046.0127	1054.5573	1082.9839	1091.9455	1152.0627	1156.5509	1208.0373	1258.5813	1277.0399	1326.8407	1346.4054	1406.4283	1419.4868	1468.4764	1482.2888	1485.5206	1525.2886	3026.166	3093.1009	3119.7944	3121.4869	3128.6064	3189.0952	3209.0131	3217.4892	3218.7006	3783.9162
CC1(O)CC11OC2CC12	C[C@@]1(O)C[C@]21O[C@H]1C[C@@H]21	
InChI=1S/C7H10O2/c1-6(8)3-7(6)4-2-5(4)9-7/h4-5,8H,2-3H2,1H3	InChI=1S/C7H10O2/c1-6(8)3-7(6)4-2-5(4)9-7/h4-5,8H,2-3H2,1H3/t4-,5+,6-,7+/m1/s1
