16
gdb 69880	2.74161	1.66141	1.20119	2.4372	74.65	-0.2328	0.0029	0.2357	1016.0727	0.125133	-396.849789	-396.842095	-396.841151	-396.881686	30.411	
N	-0.1384237334	 1.4410763971	-0.1877222748	-0.589295
C	-0.0526356744	 0.0368008383	-0.0520145369	 0.269614
C	-0.3007985601	-0.9007568899	-1.1963498567	-0.315489
C	-1.1864679825	-0.9761832998	 0.0267836278	-0.099735
C	-0.4789738919	-1.6815029686	 1.212337751	-0.109892
N	 0.853251366	-2.1558622829	 0.8019034036	-0.369332
C	 0.6573104372	-0.7179198711	 1.1520811784	 0.15691
C	 1.355730928	-0.0759869706	 2.2071087979	 0.174245
N	 1.9196486678	 0.4872509998	 3.0487135859	-0.350531
H	-0.3501528254	 1.8970995623	 0.6945181215	 0.241821
H	 0.7283713318	 1.8369423551	-0.5397096079	 0.241734
H	-0.7733240168	-0.4094491791	-2.0400909501	 0.126787
H	 0.3857361498	-1.7017331221	-1.4360443575	 0.146821
H	-2.2522200398	-0.7968576397	-0.0039932193	 0.105706
H	-0.9700085841	-2.0748807778	 2.0926228412	 0.121567
H	 1.2894644977	-2.6126846511	 1.603724716	 0.249071
126.6748	129.1598	245.9169	317.7646	326.9813	408.9033	443.4129	494.6506	535.6225	567.2864	587.9967	649.4595	765.5425	818.7236	833.0013	847.0083	879.1355	905.1984	927.14	980.5782	988.1234	1026.0919	1044.1292	1099.563	1126.4308	1182.8061	1228.8551	1257.1626	1268.4971	1324.5198	1366.0261	1408.7643	1479.7268	1662.9287	2331.5282	3149.2077	3205.766	3216.4839	3244.9626	3468.8634	3490.5477	3565.8615
NC12CC1C1NC21C#N	N[C@]12C[C@H]1[C@H]1N[C@@]21C#N	
InChI=1S/C6H7N3/c7-2-6-4(9-6)3-1-5(3,6)8/h3-4,9H,1,8H2	InChI=1S/C6H7N3/c7-2-6-4(9-6)3-1-5(3,6)8/h3-4,9H,1,8H2/t3-,4+,5+,6+/m0/s1
