18
gdb 38797	3.0955	2.18677	1.80119	1.3297	72.71	-0.2163	0.0593	0.2756	820.6858	0.152026	-401.874977	-401.869348	-401.868404	-401.904607	24.924	
C	-0.0058979409	 1.5092957374	 0.0540362031	-0.165057
C	 1.5404321078	 1.4439995049	-0.0235331906	-0.05606
C	 2.0665234447	 1.3787222401	 1.4211748074	-0.219921
C	 1.7104272559	-0.0107713091	 1.9440336905	 0.082743
O	 2.6620325586	-0.9301783849	 1.3222025424	-0.303365
C	 1.6897325384	-1.2045940921	 0.3197261477	 0.113047
C	 1.3216855911	-0.0040173498	-0.6149754671	-0.035643
N	-0.0813157781	 0.019832887	-0.0228799953	-0.14032
C	 0.5090136927	-0.6929611221	 1.1541312853	-0.078964
H	-0.4462571538	 1.9670072376	 0.9472088204	 0.096915
H	-0.4835771761	 1.9326742375	-0.8349156917	 0.106554
H	 2.0627700505	 2.1770619126	-0.6415902036	 0.069329
H	 3.1540886386	 1.4808131739	 1.4837916265	 0.112888
H	 1.6166957214	 2.1821682977	 2.016087038	 0.094893
H	 1.7156503121	-0.1103963057	 3.0321343263	 0.079608
H	 1.7856524401	-2.1873516019	-0.1440468875	 0.088405
H	 1.4067102491	-0.1023680542	-1.6996507535	 0.071823
H	-0.1762481719	-1.300275529	 1.7454280319	 0.083126
253.7789	367.0077	426.0908	471.3765	608.5924	633.8887	679.1379	724.9607	792.846	816.2331	831.3599	845.9838	894.8573	900.1866	905.7388	962.865	979.3492	1002.6353	1005.9332	1042.7138	1074.8543	1078.74	1098.6027	1130.8396	1166.9656	1188.1259	1203.042	1214.4773	1256.456	1260.3313	1266.6915	1280.6764	1300.5174	1306.3909	1350.802	1355.1057	1367.9827	1483.211	1507.1089	3030.5312	3035.1615	3074.692	3078.6725	3083.3236	3083.9095	3092.2582	3102.3113	3114.4215
C1C2CC3OC4C2N1C34	C1[C@H]2C[C@@H]3O[C@@H]4[C@H]2N1[C@H]34	
InChI=1S/C7H9NO/c1-3-2-8-5(3)7-6(8)4(1)9-7/h3-7H,1-2H2	InChI=1S/C7H9NO/c1-3-2-8-5(3)7-6(8)4(1)9-7/h3-7H,1-2H2/t3-,4+,5+,6-,7-/m1/s1
