20
gdb 81125	3.2048	1.12036	0.98752	4.09	83.73	-0.2981	0.037	0.335	1265.2184	0.17152	-365.98587	-365.977289	-365.976345	-366.019459	32.732	
C	-0.153385231	 1.5823706369	-0.0070577782	-0.447446
C	 0.0238615496	 0.0716935644	 0.0146347178	 0.008132
C	 1.1910643811	-0.6422038718	-0.7432435859	-0.060665
C	 2.1655594864	-0.157538467	 0.3694566051	-0.26573
C	 0.8851384961	-0.6512378238	 1.1078449087	 0.339469
C	 0.6187905656	-0.6464742642	 2.6048854394	-0.47832
C	 1.6165141093	-1.4115979844	 3.3516699261	 0.26429
N	 2.4174947622	-2.0206582114	 3.9199324907	-0.312987
C	 0.9118963589	-1.881712114	 0.1548078121	-0.256461
H	 0.7775915299	 2.1347992597	 0.1413951474	 0.121666
H	-0.5742224921	 1.8989975457	-0.9676086903	 0.124211
H	-0.8558743467	 1.9004315837	 0.7718719406	 0.117218
H	-0.9469062126	-0.4138121708	-0.1450791904	 0.06416
H	 1.3703761743	-0.6413544267	-1.8184457081	 0.076235
H	 3.0647334851	-0.7595457673	 0.5209346387	 0.108373
H	 2.3999239426	 0.9066890095	 0.4162248424	 0.095742
H	 0.6129568585	 0.3824323199	 2.9848281274	 0.152985
H	-0.3726911729	-1.0667551631	 2.8129372438	 0.151616
H	-0.0389356985	-2.3996815691	-0.0013045709	 0.090899
H	 1.7379238941	-2.5831220161	 0.2929107336	 0.106614
56.7348	103.3857	171.4257	192.2716	287.1785	344.1354	368.0121	391.5456	476.7099	546.7548	578.5835	683.7279	765.5008	784.9174	813.696	885.76	923.4609	927.9138	966.5509	987.6098	1001.5773	1010.1186	1050.6801	1093.864	1119.5361	1143.515	1148.6856	1154.9851	1172.9929	1210.6702	1229.3372	1243.1874	1270.5933	1294.9519	1331.4423	1406.1057	1423.1894	1458.3977	1491.481	1495.5114	1512.3	1546.3608	2361.459	3024.6133	3033.2637	3034.6818	3052.1907	3070.2387	3071.1426	3088.8009	3113.5961	3115.5785	3122.7661	3134.7445
CC1C2CC1(CC#N)C2	C[C@H]1[C@H]2C[C@]1(CC#N)C2	
InChI=1S/C8H11N/c1-6-7-4-8(6,5-7)2-3-9/h6-7H,2,4-5H2,1H3	InChI=1S/C8H11N/c1-6-7-4-8(6,5-7)2-3-9/h6-7H,2,4-5H2,1H3/t6-,7-,8+/m0/s1
