18
gdb 117320	2.52206	1.0347	0.79968	5.332	70.83	-0.2402	-0.0239	0.2162	1447.1069	0.144853	-476.2693	-476.258951	-476.258007	-476.306124	34.915	
C	-0.6462083751	 0.2605006038	 1.230345883	-0.250403
O	 0.7465206544	 0.0539684209	 1.40879662	-0.237406
C	 1.3773300792	-0.5103495422	 0.2772435933	-0.188845
C	 1.290997212	-2.0464128993	 0.1935212127	 0.368493
O	 1.490160331	-2.6336821452	-0.8382922475	-0.306773
N	 1.0168119566	-2.6228660456	 1.4299176982	-0.372646
C	 0.9054040351	-3.985868376	 1.7484837611	 0.412476
C	 0.6384138359	-4.2171237997	 3.2280523703	-0.49945
O	 1.0092695473	-4.8710599434	 0.9405691368	-0.292754
H	-1.181192059	-0.6814902965	 1.0435933516	 0.120679
H	-1.0235079399	 0.7091561247	 2.1517257061	 0.137077
H	-0.8388475697	 0.944469882	 0.3926031939	 0.126749
H	 0.9848301233	-0.1059617443	-0.6636584126	 0.131866
H	 2.4393758368	-0.2465300844	 0.3381369931	 0.144959
H	 0.9017472581	-1.9491774945	 2.1760096139	 0.26306
H	 1.4585524711	-3.8210060317	 3.8364943966	 0.14511
H	-0.2817719107	-3.7133090534	 3.5429493736	 0.140533
H	 0.5432226138	-5.2880130754	 3.4026110659	 0.157274
51.1895	71.4428	86.8361	99.3051	139.9657	148.5077	192.3611	266.3039	360.0604	401.2006	492.3411	512.9332	573.2473	607.5907	662.2786	747.3902	889.8056	937.7055	955.8953	1027.6539	1035.9786	1052.5858	1125.1806	1180.3925	1203.143	1217.0457	1230.9465	1300.6575	1364.019	1386.3821	1460.9862	1467.0171	1482.3402	1483.2263	1490.363	1502.6426	1517.1828	1809.3564	1866.8535	2994.5447	3032.9662	3041.3051	3051.7516	3083.8654	3103.7156	3126.5774	3166.6064	3581.4799
COCC(=O)NC(C)=O	COCC(=O)NC(=O)C	
InChI=1S/C5H9NO3/c1-4(7)6-5(8)3-9-2/h3H2,1-2H3,(H,6,7,8)	InChI=1S/C5H9NO3/c1-4(7)6-5(8)3-9-2/h3H2,1-2H3,(H,6,7,8)
