21
gdb 63350	2.45601	1.42625	1.14291	2.7393	84.35	-0.2354	-0.0113	0.2241	1176.4855	0.181854	-387.135348	-387.126305	-387.125361	-387.168803	35.154	
C	-0.0336145791	 1.543544465	-0.0360182332	-0.423558
C	-0.0287236503	 0.0045333541	 0.0266607385	 0.216656
C	-1.4853262975	-0.5040276177	 0.1163682613	-0.405645
C	 0.652184115	-0.5575602217	-1.2492464847	-0.323431
C	 0.9927332298	-2.0303193135	-1.1190305535	 0.377781
O	 0.6254860982	-2.867345696	-1.9099454121	-0.314333
C	 1.8483888356	-2.3788797084	 0.0935358565	-0.354231
C	 1.5723318255	-1.4913423568	 1.2794602923	-0.086996
C	 0.7400781947	-0.4521471537	 1.2496085713	-0.05768
H	 0.9855313969	 1.9428969664	-0.058253578	 0.115464
H	-0.5565108423	 1.8946485499	-0.9320115643	 0.115593
H	-0.5426908206	 1.9674608354	 0.8364621556	 0.113232
H	-2.0792522788	-0.1267329561	-0.7235853136	 0.115422
H	-1.5278941526	-1.5970949907	 0.0977995053	 0.126866
H	-1.9589232939	-0.1652848889	 1.0435929627	 0.113436
H	 0.0250493308	-0.4152381957	-2.1333205243	 0.113063
H	 1.5949790429	-0.0150038823	-1.4050350652	 0.112018
H	 1.6915019192	-3.4367008928	 0.3315090522	 0.133407
H	 2.9052781564	-2.2960076234	-0.2058342248	 0.133154
H	 2.0803840831	-1.7500531075	 2.2053454873	 0.094119
H	 0.5697687771	 0.1216711843	 2.1586887507	 0.085662
77.2477	97.6287	231.4336	244.7897	263.348	309.3633	323.6573	377.3039	403.3473	469.8311	485.1597	511.7738	584.379	667.0965	731.6576	781.5867	836.6334	909.0076	924.7953	934.7468	954.2986	974.489	997.4307	1011.0573	1039.6746	1100.3015	1162.7796	1185.9197	1194.1523	1237.3966	1266.6449	1289.0078	1313.6879	1333.9487	1397.2964	1403.8654	1426.8218	1444.0269	1464.3816	1482.4899	1488.4775	1501.6836	1507.1439	1722.6064	1819.1327	2993.6158	3018.058	3025.6668	3030.4637	3067.4635	3095.1976	3098.8468	3099.5779	3103.7299	3108.6921	3137.1895	3162.5454
CC1(C)CC(=O)CC=C1	CC1(C)CC(=O)CC=C1	
InChI=1S/C8H12O/c1-8(2)5-3-4-7(9)6-8/h3,5H,4,6H2,1-2H3	InChI=1S/C8H12O/c1-8(2)5-3-4-7(9)6-8/h3,5H,4,6H2,1-2H3
