12
gdb 25137	3.84633	1.23373	0.93411	4.0447	73.36	-0.2648	-0.1004	0.1644	1128.3476	0.079201	-431.707055	-431.700046	-431.699101	-431.7389	25.623	
N	-0.0062535829	 1.3385255448	 0.0103709199	-0.516487
C	-0.0238106738	 0.0756469644	 0.0034981291	 0.406558
O	 1.172165414	-0.6696904176	-0.0071401466	-0.217395
C	 1.1302241533	-2.0141533952	-0.0143221515	 0.140964
N	 0.0936420182	-2.7562489774	-0.0127593037	-0.322173
C	-1.1285927561	-2.0799329582	-0.0023533979	 0.194902
C	-1.225821464	-0.7310916525	 0.0056166894	-0.193713
C	-2.3013853868	-2.906063349	-0.0005065527	 0.255612
N	-3.2566427452	-3.5580075814	 0.0011144105	-0.311777
H	 0.9465945431	 1.7025033891	 0.0071757461	 0.23918
H	 2.1295440011	-2.4382780329	-0.0221281495	 0.163221
H	-2.1742248108	-0.211892304	 0.0136592868	 0.161108
125.4056	139.8194	156.8908	343.4767	415.3851	446.7784	473.8493	556.0819	591.6938	676.1899	750.0947	765.0542	843.4633	862.2229	921.9335	955.5361	969.7501	1064.6931	1135.8191	1191.9021	1285.1	1347.0648	1413.1802	1622.2035	1661.4025	1752.8457	2354.7705	3200.7223	3240.9148	3501.1015
N=C1OC=NC(=C1)C#N	[NH]C1=C[C@H](N=CO1)C#N	
InChI=1S/C5H3N3O/c6-2-4-1-5(7)9-3-8-4/h1,3,7H	InChI=1S/C5H4N3O/c6-2-4-1-5(7)9-3-8-4/h1,3-4,7H/t4-/m0/s1
