16
gdb 132759	2.27507	1.77696	1.00397	1.0482	75.19	-0.2216	0.0011	0.2227	1106.167	0.124042	-445.928568	-445.920577	-445.919633	-445.960882	30.731	
C	 0.0656291633	 1.5196710482	 0.0308947379	-0.546676
C	 0.0534436058	 0.0125814238	 0.0174585219	 0.012159
C	 0.1515560067	-0.7107845753	-1.1692586253	 0.257117
F	 0.2590426554	-0.0273694071	-2.3209200626	-0.088473
C	 0.1441291417	-2.0959222243	-1.2235036216	-0.264137
C	 0.0325383073	-2.7989354214	-0.0267086067	-0.097227
C	-0.0682424728	-2.1268960443	 1.1847819569	-0.201268
C	-0.0575246743	-0.7321625121	 1.2023005381	 0.331844
O	-0.1592705134	-0.1240514262	 2.417472042	-0.437171
H	 0.1584443709	 1.9106632223	-0.9822935435	 0.153638
H	-0.857973569	 1.9319232712	 0.4584001165	 0.133542
H	 0.9073744267	 1.9160552784	 0.6140604191	 0.13355
H	 0.2241858291	-2.5924342416	-2.1821710552	 0.105555
H	 0.0242225858	-3.8833220839	-0.0407447213	 0.104411
H	-0.1557130356	-2.6584465355	 2.1246003548	 0.104366
H	-0.1407422576	 0.8310431676	 2.301093189	 0.298769
121.1305	151.8126	245.9217	274.9682	300.7832	338.5257	343.6119	490.0558	509.8833	514.9506	555.9066	620.4946	691.5694	722.1831	791.4859	820.0865	873.5692	929.9748	946.8015	1056.9928	1078.2587	1100.973	1176.1806	1184.7084	1235.0907	1289.3652	1335.6873	1371.2517	1411.6928	1487.6524	1498.4128	1508.3316	1524.4178	1630.9288	1666.5465	3009.9081	3054.0482	3147.1668	3185.1886	3206.849	3215.1216	3829.8526
CC1=C(F)C=CC=C1O	Cc1c(F)cccc1O	
InChI=1S/C7H7FO/c1-5-6(8)3-2-4-7(5)9/h2-4,9H,1H3	InChI=1S/C7H7FO/c1-5-6(8)3-2-4-7(5)9/h2-4,9H,1H3
