19
gdb 98403	3.2184	0.99731	0.88185	3.6108	73.31	-0.2635	-0.0246	0.2389	1353.841	0.156113	-460.162928	-460.152981	-460.152037	-460.197883	36.365	
C	 0.1903226639	 1.5103704704	-0.240147981	-0.488372
C	 0.0578339371	 0.0057068483	-0.1136897402	 0.192165
C	 1.3358681458	-0.8404994592	-0.0498997542	-0.348703
C	 0.5211273791	-0.665902169	 1.1837844571	 0.10134
O	 0.946948617	 0.1862409925	 2.2003175334	-0.421506
C	-1.1007956382	-0.6803833519	-0.7514382388	 0.297231
O	-1.2222949854	-1.8945573165	-0.7419707807	-0.35591
C	-2.1887877351	 0.1449310206	-1.4284118751	-0.143746
O	-3.1784127533	-0.6768505312	-1.9673207979	-0.421899
H	 1.0085314321	 1.8655564633	 0.3875466382	 0.137487
H	 0.3927834237	 1.8094677708	-1.2737180855	 0.123309
H	-0.7156830062	 2.0267982509	 0.092511618	 0.128839
H	 1.305819826	-1.8021826515	-0.5486237794	 0.140424
H	 2.266286801	-0.287013426	-0.1199666096	 0.119881
H	-0.0853554887	-1.5117070094	 1.5025755725	 0.115682
H	 1.7344934782	-0.1967602842	 2.6005098136	 0.295608
H	-2.6073110542	 0.8435177525	-0.6843657451	 0.118369
H	-1.7214902702	 0.7721246099	-2.2052485423	 0.116511
H	-2.9002062127	-1.5793890005	-1.7383002729	 0.293291
49.4658	115.4954	163.0268	185.7365	196.7616	225.7436	268.6689	307.8583	344.4332	378.877	448.4118	462.1739	491.7824	576.1847	619.6737	769.0152	784.8621	851.3719	910.7053	962.4211	998.877	1033.6465	1057.6987	1077.5738	1104.1763	1135.0162	1156.7184	1192.2881	1246.7954	1270.8456	1296.4818	1308.4904	1340.7951	1404.3714	1417.5783	1452.1154	1464.8493	1487.4835	1493.6117	1504.8487	1754.4134	2970.3685	2987.5096	3041.2424	3099.6362	3126.9946	3135.7944	3140.8501	3236.6816	3664.7607	3810.6419
CC1(CC1O)C(=O)CO	C[C@]1(C[C@H]1O)C(=O)CO	
InChI=1S/C6H10O3/c1-6(2-4(6)8)5(9)3-7/h4,7-8H,2-3H2,1H3	InChI=1S/C6H10O3/c1-6(2-4(6)8)5(9)3-7/h4,7-8H,2-3H2,1H3/t4-,6-/m1/s1
