23
gdb 90713	3.13734	1.17172	1.12415	1.2734	85.48	-0.2481	0.0736	0.3216	1250.1617	0.204929	-388.273927	-388.264606	-388.263662	-388.307377	36.994	
C	 0.2281282362	 1.6223775266	-0.1557874648	-0.411054
C	 0.1138170493	 0.1120992489	-0.0096156424	 0.048997
C	 1.0110901767	-0.8190322534	-0.882433615	-0.273158
C	 1.2760053015	-1.7252019537	 0.3545396683	-0.044241
C	 0.6405970329	-0.6082497526	 1.2606013014	-0.030165
C	 2.0740588011	-0.2280798699	 1.7356175163	-0.315065
C	 2.6396323639	-1.5170377082	 1.0487953268	 0.422295
C	 2.9658304905	-2.6271043094	 2.0436987818	-0.45075
O	 3.7000623843	-1.3390813797	 0.1259990845	-0.472992
H	 1.2618602271	 1.9661284357	-0.0442237505	 0.115017
H	-0.1157806017	 1.943393389	-1.1455738512	 0.113117
H	-0.3803219418	 2.1437714705	 0.5922196502	 0.109611
H	-0.934731255	-0.1783248001	-0.145957256	 0.067227
H	 0.510109201	-1.3038348404	-1.72311509	 0.092886
H	 1.9220256276	-0.3437044492	-1.2533781936	 0.116458
H	 0.8962334425	-2.7470509319	 0.296570783	 0.05309
H	-0.0747639053	-0.8192925862	 2.0571386818	 0.054709
H	 2.4669962347	 0.6886098702	 1.289689527	 0.098231
H	 2.214611338	-0.1754879755	 2.8186637593	 0.090616
H	 2.1241647522	-2.8196617234	 2.716764617	 0.1194
H	 3.2045372957	-3.5537319997	 1.5121339223	 0.121539
H	 3.82753039	-2.3514134683	 2.6655065473	 0.101127
H	 4.5129875885	-1.2061523392	 0.6251561065	 0.273103
70.6725	179.9084	207.0452	234.9831	247.288	264.7434	321.9903	328.3062	358.1134	420.4307	487.0462	504.8649	566.812	706.1844	744.3375	773.0096	843.6649	867.6859	891.8149	901.9835	936.8718	959.0974	970.1107	1008.5015	1029.8739	1067.2761	1109.4347	1120.0081	1132.2765	1137.1235	1180.8914	1200.037	1212.1988	1244.2437	1256.2954	1261.3124	1291.8723	1300.4641	1328.9902	1365.6421	1385.6462	1403.2415	1410.3399	1471.4474	1488.723	1488.9906	1493.1464	1496.6355	1501.448	3016.7238	3024.1642	3027.5855	3056.5526	3067.012	3079.6391	3084.8057	3087.8586	3091.8299	3095.9817	3108.4279	3114.289	3121.5689	3804.075
CC1CC2C1CC2(C)O	C[C@H]1C[C@@H]2[C@H]1C[C@]2(C)O	
InChI=1S/C8H14O/c1-5-3-7-6(5)4-8(7,2)9/h5-7,9H,3-4H2,1-2H3	InChI=1S/C8H14O/c1-5-3-7-6(5)4-8(7,2)9/h5-7,9H,3-4H2,1-2H3/t5-,6-,7+,8-/m0/s1
