16
gdb 66032	2.62948	1.25916	1.13411	4.0627	75.4	-0.2805	-0.0055	0.275	1136.6241	0.121846	-400.70763	-400.698555	-400.697611	-400.741913	32.807	
C	-0.2586876093	 1.5860110346	 0.0139707022	-0.432357
C	-0.0165406195	 0.0850449855	 0.0346712241	 0.25842
O	 1.1155204664	-0.2971625293	-0.7749556247	-0.297023
C	 1.8319728265	-0.8492889014	 0.3483459202	-0.080125
C	 0.6609283132	-0.5408777537	 1.3196202255	-0.303787
C	 0.922923726	 0.3289468789	 2.4428259932	 0.337433
C	 1.1549923407	 1.0513344841	 3.3753035052	-0.443959
C	-1.2240531731	-0.64988085	-0.3773942991	 0.267178
N	-2.1741443516	-1.2332326741	-0.6817201904	-0.335039
H	 0.6354117422	 2.1071603561	 0.3609040687	 0.14049
H	-0.4873476756	 1.903030678	-1.0067514145	 0.147046
H	-1.0976629936	 1.8509460714	 0.6631897875	 0.144303
H	 2.0536608638	-1.9122882801	 0.2122885758	 0.12561
H	 2.7549662957	-0.2991164028	 0.5536686105	 0.123629
H	 0.1393543911	-1.4420937651	 1.6481064447	 0.13811
H	 1.355314367	 1.6840260377	 4.2048522209	 0.210071
39.0635	134.8136	143.855	190.6872	217.8171	231.986	319.1204	377.8397	467.6895	491.5544	557.8489	582.5861	633.0514	644.5187	660.7692	778.4477	890.6711	899.7279	926.0676	1020.333	1055.9921	1081.566	1127.3189	1160.2047	1168.6197	1189.6398	1250.6466	1337.9164	1358.3326	1408.241	1476.6162	1481.5369	1523.5148	2238.2577	2352.7147	3044.6306	3053.782	3086.4441	3102.4799	3132.2622	3145.1323	3499.9792
CC1(OCC1C#C)C#N	C[C@]1(OC[C@H]1C#C)C#N	
InChI=1S/C7H7NO/c1-3-6-4-9-7(6,2)5-8/h1,6H,4H2,2H3	InChI=1S/C7H7NO/c1-3-6-4-9-7(6,2)5-8/h1,6H,4H2,2H3/t6-,7+/m1/s1
