21
gdb 52774	2.42358	1.21467	0.93577	0.0801	92.24	-0.225	0.0614	0.2864	1367.0017	0.181316	-349.909599	-349.899887	-349.898943	-349.945355	35.712	
C	-0.0338423286	 1.4636656927	-0.0148847614	-0.502941
C	-0.0403664108	 0.0073524366	 0.0095265572	 0.100237
C	-0.0430005528	-1.1983653097	 0.0283934223	-0.016949
C	-0.0167647149	-2.6404203886	 0.0290419203	 0.170178
C	 1.1310140668	-3.2490960869	-0.7686005466	-0.465118
C	-0.4243401307	-3.438635731	 1.2577649915	-0.087175
C	-1.5283092233	-2.7278178084	 2.0474098757	-0.241482
C	-2.4276170253	-2.743592492	 0.7657481486	-0.241408
C	-1.3013935877	-3.4544360213	 0.008178596	-0.087154
H	 0.9892267692	 1.8561526608	-0.0321176365	 0.146093
H	-0.5520220733	 1.8539291191	-0.8982758097	 0.144996
H	-0.530124023	 1.8792951136	 0.8692235566	 0.146079
H	 2.0973728093	-2.9261455638	-0.3692359858	 0.124072
H	 1.0933742136	-4.3425841319	-0.7287465883	 0.112778
H	 1.0808897345	-2.9438488715	-1.8183252803	 0.124165
H	 0.2393344711	-4.2043809239	 1.6440030509	 0.081565
H	-1.9389583502	-3.3475383502	 2.8473751729	 0.099226
H	-1.2673730957	-1.7465214959	 2.4529824263	 0.106045
H	-3.3126263753	-3.3712076306	 0.8901022007	 0.099158
H	-2.7307831933	-1.7719930746	 0.366279034	 0.106047
H	-1.4298804495	-4.2343682625	-0.7342496346	 0.081586
19.016	86.0204	111.6176	216.0046	226.686	238.2008	283.1457	302.1291	342.1626	420.5244	530.9542	549.8424	587.6533	739.9334	776.8934	818.9557	837.5466	897.8508	937.5805	974.8535	987.63	1020.5937	1042.6299	1051.8229	1053.3616	1061.617	1089.6318	1115.5626	1127.726	1182.1277	1226.4247	1250.2605	1254.4174	1293.3496	1323.0377	1386.7994	1413.0357	1416.8981	1473.922	1478.1293	1480.1057	1487.4001	1494.4834	1503.1673	2359.6876	3023.4893	3033.1378	3057.7043	3063.9076	3081.7844	3084.3412	3104.0702	3104.8294	3104.9947	3121.6174	3162.4239	3174.6598
CC#CC1(C)C2CCC12	CC#C[C@@]1(C)[C@H]2CC[C@@H]12	
InChI=1S/C9H12/c1-3-6-9(2)7-4-5-8(7)9/h7-8H,4-5H2,1-2H3	InChI=1S/C9H12/c1-3-6-9(2)7-4-5-8(7)9/h7-8H,4-5H2,1-2H3/t7-,8+,9-
