24
gdb 61169	2.74688	0.93688	0.85493	4.2271	89.53	-0.3085	0.037	0.3455	1496.269	0.214831	-368.445236	-368.434077	-368.433133	-368.48137	41.564	
C	-0.1338815887	 1.5812860735	-0.0089828463	-0.428961
C	 0.0610083172	 0.0564893847	-0.0115907475	 0.034574
C	 0.7594904853	-0.3697748701	-1.3325310731	-0.368673
C	-0.0622970436	-0.1005597058	-2.5105746116	 0.268802
N	-0.7254642171	 0.112782836	-3.4330726721	-0.316116
C	 0.7888343819	-0.5108170215	 1.2534445739	 0.256526
C	 0.0682767126	-0.008963777	 2.5219713632	-0.417827
C	 0.7130262604	-2.0520596712	 1.255451042	-0.416653
C	 2.2675252588	-0.0815072418	 1.3176734332	-0.414213
H	 0.8220011563	 2.112142903	 0.057966607	 0.118253
H	-0.6245647796	 1.9018230865	-0.9326614674	 0.142305
H	-0.7605799866	 1.9081556096	 0.8228192396	 0.124627
H	-0.9361328272	-0.4029764677	-0.0219897601	 0.091052
H	 1.7087262276	 0.1648271014	-1.4512034018	 0.149815
H	 0.9951743707	-1.4376189808	-1.3307805459	 0.147763
H	-1.0038119637	-0.2332484308	 2.4865253776	 0.112558
H	 0.4805094963	-0.5007766799	 3.4090576299	 0.111995
H	 0.1834886836	 1.068852004	 2.6628534419	 0.117659
H	 1.2727483799	-2.5051467758	 0.4316208993	 0.111848
H	 1.136837331	-2.4505848707	 2.1828992685	 0.115259
H	-0.3241691284	-2.3983190851	 1.1893759802	 0.115348
H	 2.3798330036	 1.0070040884	 1.3164366555	 0.117077
H	 2.7273484028	-0.4542970741	 2.238977141	 0.115595
H	 2.8508535468	-0.4829039547	 0.4827180629	 0.111384
45.8834	63.4346	140.8718	202.8679	228.0599	246.0182	257.2177	277.5534	290.8176	336.0301	363.073	381.0304	394.9313	413.6382	448.7517	511.7097	548.8945	733.0372	839.9369	879.5838	907.6444	931.5785	935.6649	958.5851	964.7126	1006.9812	1027.852	1073.3105	1110.0783	1128.5345	1209.6524	1240.7494	1255.2485	1263.5587	1311.1409	1361.2083	1369.2597	1401.4633	1402.1408	1413.7882	1436.9058	1464.7369	1481.2338	1485.6796	1486.9947	1499.3962	1507.2532	1511.0696	1514.4205	1522.788	2358.121	3017.5013	3028.4867	3030.7122	3037.0256	3043.3497	3052.1296	3092.8492	3093.7898	3097.931	3102.0396	3102.7131	3104.0157	3109.0673	3112.1135	3131.2951
CC(CC#N)C(C)(C)C	C[C@@H](CC#N)C(C)(C)C	
InChI=1S/C8H15N/c1-7(5-6-9)8(2,3)4/h7H,5H2,1-4H3	InChI=1S/C8H15N/c1-7(5-6-9)8(2,3)4/h7H,5H2,1-4H3/t7-/m0/s1
