16
gdb 78980	3.46907	1.91955	1.77709	1.5469	64.4	-0.248	0.0648	0.3128	806.8779	0.127885	-437.836573	-437.830874	-437.82993	-437.86635	24.718	
O	 0.1064765949	 1.3894910231	 0.1565109172	-0.452844
C	 0.0318316272	-0.0046890009	 0.0321191522	 0.191629
C	-1.3530711416	-0.5889272486	-0.2811056929	-0.091948
C	-1.4452652477	-0.4506236654	-1.8527096879	 0.036735
O	-0.1935551268	 0.1191243875	-2.2486961907	-0.273626
C	 0.6362083563	-0.5636556691	-1.2799648089	-0.018919
C	 0.1125403308	-2.0117593761	-1.2796871698	-0.059753
C	-1.2359492076	-1.9716825119	-1.886904079	-0.048027
N	-1.1159667085	-2.0788360526	-0.3996618793	-0.157507
H	-0.0610217095	 1.7426262223	-0.7273858367	 0.287489
H	 0.4609232989	-0.4581080255	 0.9290426643	 0.103767
H	-2.1945690034	-0.3149719333	 0.3492127908	 0.08885
H	-2.2799437382	 0.0336300342	-2.3517719327	 0.094437
H	 1.6892664516	-0.3930970838	-1.4894733347	 0.089982
H	 0.7473378052	-2.8868623867	-1.2927326929	 0.107069
H	-1.6887234115	-2.7338970431	-2.5090563588	 0.102665
215.1748	322.159	485.1546	500.7211	539.8585	607.3887	694.1215	740.043	764.5724	809.8647	828.7749	842.764	873.354	890.2814	921.21	936.136	954.4225	984.6317	1008.5281	1021.6202	1036.7406	1055.4419	1118.8392	1157.9037	1163.5628	1200.259	1223.8629	1238.5124	1250.007	1264.3898	1297.3776	1309.9455	1328.1264	1356.1195	1434.926	3097.1213	3159.7831	3160.4732	3167.5733	3189.5422	3217.1475	3766.4398
OC1C2C3OC1C1C3N21	O[C@H]1[C@H]2[C@H]3O[C@@H]1[C@@H]1[C@H]3N21	
InChI=1S/C6H7NO2/c8-4-3-5-1-2(7(1)3)6(4)9-5/h1-6,8H	InChI=1S/C6H7NO2/c8-4-3-5-1-2(7(1)3)6(4)9-5/h1-6,8H/t1-,2+,3+,4+,5+,6-,7?/m1/s1
