17
gdb 53461	4.83483	0.4854	0.46943	0.8031	90.89	-0.2443	0.0368	0.2811	2331.2751	0.131766	-347.463645	-347.452713	-347.451769	-347.503934	36.486	
C	 0.0297091446	 1.4249313948	 0.5281565211	-0.495877
C	 0.0044771015	 0.0312586045	 0.108139163	 0.064114
C	-0.0191849006	-1.1205064586	-0.2373385389	 0.08509
C	-0.0408045858	-2.522821839	-0.6601653148	-0.496393
C	-1.3643243298	-3.1451737649	-0.5713585587	 0.092368
C	-2.4461707192	-3.6633494969	-0.498468225	 0.087004
C	-3.7689851684	-4.2851986483	-0.4116371175	-0.490388
C	-3.789923822	-5.5135873602	 0.3854401574	 0.318228
C	-3.8198087519	-6.5222867456	 1.035654488	-0.445791
H	 0.7179444826	 1.5761746806	 1.3670210683	 0.14804
H	 0.3514518532	 2.0817911674	-0.2874904603	 0.147548
H	-0.9628728445	 1.758599724	 0.8501229602	 0.1501
H	 0.3284388625	-2.6010311234	-1.6924716576	 0.155482
H	 0.6688361235	-3.1011445086	-0.0518214797	 0.158572
H	-4.4826240455	-3.5662609069	 0.0142212995	 0.16226
H	-4.1402586884	-4.504555643	-1.422341182	 0.159858
H	-3.8410474617	-7.4134000359	 1.6124918873	 0.199786
6.5327	17.3289	57.0998	89.1994	182.8455	196.9359	224.7464	291.7541	321.3465	362.9906	377.868	389.7307	480.3968	566.1942	621.7114	648.1386	767.6063	795.5229	929.1783	936.6286	946.5355	1053.1235	1054.6032	1137.1562	1175.4387	1228.7107	1232.7873	1334.0718	1340.3851	1415.0979	1453.091	1454.6287	1478.4015	1479.004	2247.1854	2380.0373	2386.2184	3002.9174	3007.3687	3025.4922	3027.2356	3031.4238	3087.8344	3088.7149	3507.333
CC#CCC#CCC#C	CC#CCC#CCC#C	
InChI=1S/C9H8/c1-3-5-7-9-8-6-4-2/h1H,5,8H2,2H3	InChI=1S/C9H8/c1-3-5-7-9-8-6-4-2/h1H,5,8H2,2H3
