17
gdb 79803	2.63739	1.75367	1.38057	1.8743	75.41	-0.2117	-0.0362	0.1755	967.1997	0.134837	-421.713402	-421.705556	-421.704612	-421.745248	31.001	
O	 0.0522006065	 1.3993165725	-0.4948395479	-0.418849
C	 0.1525891172	 0.0481967245	-0.1535276075	 0.104407
C	-1.1667195408	-0.7720704446	-0.0455495304	-0.186186
C	-1.7260096977	-1.5266022972	-1.346499269	-0.08734
C	-1.3282700998	-1.1515795229	-2.7856484798	-0.269899
C	 0.077075763	-0.6229685413	-2.515664597	-0.071145
C	 0.4764262488	-0.9811420783	-1.2781040976	-0.131036
C	-0.515993826	-1.9868057265	-0.6552066345	 0.369055
O	-0.2697267848	-3.2567887972	-0.1810368192	-0.465684
H	 0.8548028228	 1.8502009921	-0.2170578202	 0.288835
H	 0.7165527303	-0.0773984373	 0.7825677465	 0.071259
H	-1.8284185527	-0.7359529091	 0.8163973696	 0.091226
H	-2.6804381039	-2.0075743155	-1.141295281	 0.086237
H	-1.4354860551	-2.019707004	-3.4511519277	 0.114725
H	-1.9163934725	-0.3368334979	-3.2248977656	 0.116059
H	 0.3947105142	 0.3092788735	-2.9728378913	 0.103028
H	 0.4810009904	-3.2167530308	 0.4220430826	 0.285307
158.5739	174.3289	223.8657	240.2459	284.5451	310.9208	395.2189	515.2254	544.8608	596.0667	610.155	710.0398	752.4105	790.9264	867.5335	887.6513	901.7841	924.499	941.5829	967.0101	989.7152	1001.6045	1056.5984	1113.8369	1131.2086	1153.8868	1178.6342	1222.1448	1254.0467	1267.2122	1285.4302	1294.5363	1345.7173	1429.9903	1463.1723	1488.9573	1582.8242	2983.8225	3006.7342	3055.8498	3137.0707	3147.2356	3172.1796	3793.8071	3832.8645
OC1C2C3CC=C1C23O	O[C@H]1[C@H]2[C@H]3C[CH][C]1[C@@]23O	
InChI=1S/C7H8O2/c8-6-4-2-1-3-5(6)7(3,4)9/h2-3,5-6,8-9H,1H2	InChI=1S/C7H8O2/c8-6-4-2-1-3-5(6)7(3,4)9/h2-3,5-6,8-9H,1H2/t3-,5-,6-,7-/m1/s1
