17
gdb 54771	3.85929	1.11274	1.004	2.3509	73.7	-0.2468	-0.0296	0.2172	1195.6013	0.13456	-421.80704	-421.798713	-421.797769	-421.840758	30.577	
C	 0.3956801908	 0.7501255389	 1.303162884	-0.481753
C	 0.1276806454	-0.0179409775	 0.0207648802	 0.352539
O	 0.8798420644	 0.0303367798	-0.9259510437	-0.294176
C	-1.1631701963	-0.8209476011	 0.0110554981	-0.090249
C	-1.5373784416	-1.6778140584	-1.2464914648	-0.182184
C	-0.42203109	-2.693527024	-0.7987269224	-0.240563
C	-1.1219727714	-2.3154260824	 0.549124252	-0.192391
C	-2.4244959923	-2.4560018047	-0.2614614336	 0.447929
O	-3.5145970807	-2.9255678147	-0.169745786	-0.319847
H	 1.3804719148	 1.2157820639	 1.2553889443	 0.147096
H	-0.3664832515	 1.5262492502	 1.4394459635	 0.146658
H	 0.3331378715	 0.0888722501	 2.1741818327	 0.1416
H	-1.9700382631	-0.21947129	 0.442948632	 0.099731
H	-1.7487106358	-1.3137675275	-2.2481850034	 0.104823
H	-0.5327285863	-3.7261089873	-1.1331412547	 0.117033
H	 0.5940360029	-2.3291041831	-0.9238198978	 0.144967
H	-0.8842527008	-2.6495997022	 1.5567562298	 0.098788
49.9178	116.6891	130.8406	150.3308	249.5538	359.786	421.1563	461.7616	570.3591	603.4194	697.0955	728.8661	758.4555	781.8514	870.3765	894.9411	944.4524	963.8314	987.2548	1021.884	1027.316	1047.4165	1073.0241	1121.7587	1139.171	1176.5541	1183.7233	1197.1893	1216.3907	1236.8115	1377.2672	1390.6868	1462.515	1474.5298	1522.1242	1801.4028	1921.8616	3036.2748	3055.8165	3092.3742	3097.5931	3146.3144	3154.9566	3163.9985	3185.0641
CC(=O)C1C2CC1C2=O	CC(=O)[C@H]1[C@H]2C[C@@H]1C2=O	
InChI=1S/C7H8O2/c1-3(8)6-4-2-5(6)7(4)9/h4-6H,2H2,1H3	InChI=1S/C7H8O2/c1-3(8)6-4-2-5(6)7(4)9/h4-6H,2H2,1H3/t4-,5+,6+
