18
gdb 59624	3.17199	1.15468	1.03209	3.3678	69.4	-0.2566	0.0531	0.3097	1214.9918	0.147753	-476.246298	-476.237538	-476.236594	-476.280323	32.199	
C	 0.0187099272	 1.5366711469	 0.1072489529	-0.411516
C	-0.0506030894	 0.015344889	-0.0281346809	 0.106099
O	-1.3856311155	-0.4610562653	-0.0301709499	-0.433846
C	 0.6858324703	-0.4869628606	-1.2761442067	 0.091639
C	 0.6789785604	-2.0118896749	-1.4506599064	-0.133102
O	 0.3872915976	-2.1911197539	-2.8414219018	-0.249415
C	-0.1182663314	-1.0350713823	-3.349200459	 0.488801
N	-0.6073876767	-0.8517947021	-4.4918113858	-0.573854
O	-0.0304542059	-0.0339594682	-2.4361695146	-0.256888
H	 1.0541469722	 1.8769096999	 0.2125452828	 0.117956
H	-0.4082405842	 2.0208839773	-0.7766999631	 0.138986
H	-0.5440145816	 1.8554343805	 0.9877131688	 0.130772
H	 0.4241441786	-0.4510871553	 0.8446672958	 0.096688
H	-1.808230489	-0.1000954935	-0.8196989972	 0.294285
H	 1.7026212115	-0.0767920737	-1.3138626758	 0.095616
H	 1.6418910672	-2.4772298987	-1.232482355	 0.126524
H	-0.1104408158	-2.4748067908	-0.8509082914	 0.138079
H	-0.6141259755	-1.7254067143	-5.0126415526	 0.233177
60.8272	86.888	143.8521	201.4307	240.1742	272.8087	341.8155	415.5204	461.9918	503.7387	627.9987	677.8086	717.9364	730.3164	806.3197	846.5255	899.9237	939.863	992.6747	1003.7186	1039.2176	1056.6363	1084.5945	1104.4246	1133.5608	1163.5241	1239.7619	1266.7707	1296.0285	1327.9372	1361.1054	1394.5114	1405.9719	1415.8852	1429.4536	1492.1166	1498.2878	1517.9814	1801.1232	3029.8564	3037.7307	3041.3647	3061.1118	3111.0475	3122.8518	3129.6785	3538.5162	3782.8196
CC(O)C1COC(=N)O1	C[C@@H](O)[C@H]1CO[C]([NH])O1	
InChI=1S/C5H9NO3/c1-3(7)4-2-8-5(6)9-4/h3-4,6-7H,2H2,1H3	InChI=1S/C5H9NO3/c1-3(7)4-2-8-5(6)9-4/h3-4,6-7H,2H2,1H3/t3-,4-/m1/s1
