19
gdb 81569	3.29686	1.14844	1.00435	1.7601	76.34	-0.2363	-0.0251	0.2113	1254.8148	0.15678	-422.974127	-422.965159	-422.964215	-423.008477	33.119	
C	-0.0796811665	 1.6850642638	 0.5192822258	-0.434292
C	-0.1138960135	 0.1790678116	 0.3428901336	 0.030218
C	 1.0700832815	-0.5216217199	-0.3868352691	 0.021953
O	 1.9417615991	-0.2118991196	 0.7804040615	-0.312227
C	 0.6732016502	-0.7083497135	 1.3463197267	 0.013031
C	 0.7272746055	-1.8702654644	 0.2921079349	-0.080652
C	-0.4886649173	-2.6951628995	-0.074879529	 0.353011
C	-0.649618709	-3.9918646782	 0.6985047101	-0.480148
O	-1.2758618829	-2.3595329233	-0.9328909508	-0.30504
H	 0.9236724578	 2.0221393201	 0.7864163241	 0.137486
H	-0.3843475632	 2.1874789308	-0.4048825418	 0.119612
H	-0.7753809345	 1.9986362549	 1.3051821228	 0.115119
H	-1.099672288	-0.1911883917	 0.0594296843	 0.103767
H	 1.4798216012	-0.3465686391	-1.3815615412	 0.099858
H	 0.6014235879	-0.7830254617	 2.4328154684	 0.094524
H	 1.6055556849	-2.4985949478	 0.4622176865	 0.095636
H	-0.5884000195	-3.8114713089	 1.777599798	 0.138527
H	-1.6036057779	-4.4577307796	 0.4491889329	 0.143905
H	 0.1673906341	-4.678424504	 0.4471122623	 0.145713
38.2375	115.6576	151.8792	167.7983	222.7608	280.2341	300.3622	358.4643	443.7993	560.7434	605.3739	666.86	731.8987	783.7053	792.1285	861.0537	876.5961	900.8186	958.4942	987.9002	1012.9306	1039.7971	1060.3843	1079.111	1129.2011	1143.4428	1147.8674	1188.0451	1191.4437	1213.6776	1247.785	1273.066	1369.4927	1384.8445	1399.2297	1420.8679	1461.711	1473.0611	1494.7714	1506.2143	1798.2331	3034.1717	3038.0556	3083.599	3094.6844	3094.8063	3103.2921	3114.4923	3124.2196	3138.7575	3152.5214
CC1C2OC1C2C(C)=O	C[C@H]1[C@H]2O[C@@H]1[C@H]2C(=O)C	
InChI=1S/C7H10O2/c1-3-6-5(4(2)8)7(3)9-6/h3,5-7H,1-2H3	InChI=1S/C7H10O2/c1-3-6-5(4(2)8)7(3)9-6/h3,5-7H,1-2H3/t3-,5-,6+,7-
