17
gdb 28951	3.16344	1.1631	0.92013	1.6702	75.14	-0.224	-0.0483	0.1756	1241.9755	0.135643	-418.052347	-418.043587	-418.042642	-418.087088	30.78	
C	-0.1199238831	 1.4861338153	 0.209708054	-0.509499
C	-0.0291025669	 0.011380334	 0.0058408094	 0.262433
C	 0.0174991416	-0.7567747461	-1.1294494778	-0.157109
N	 0.1211853398	-2.095085136	-0.8261175988	-0.270976
C	 0.1370723956	-2.1452005714	 0.4818653101	-0.006579
N	 0.0540162078	-0.9007855727	 1.0505561951	-0.043679
C	-0.0062419576	-0.6041329879	 2.4618664841	-0.267474
C	-1.4209704616	-0.2683088265	 2.9369875139	 0.150608
O	-1.6515246992	 0.4323405365	 3.883857825	-0.221573
H	 0.7538678448	 1.8892685564	 0.7367802751	 0.13498
H	-0.1739327431	 1.9819954599	-0.7620446816	 0.145828
H	-1.0083867441	 1.783256824	 0.7801734671	 0.137821
H	-0.0139100881	-0.4118499431	-2.1524909391	 0.108761
H	 0.2146203609	-3.0376114321	 1.0868144577	 0.126504
H	 0.3258227841	-1.4903935061	 3.0161081142	 0.154471
H	 0.6622885079	 0.2182128394	 2.7317789941	 0.152165
H	-2.2264229488	-0.7443922634	 2.3338418276	 0.103319
43.6382	62.0974	122.2452	161.493	241.8251	255.9872	356.6804	387.9478	443.9677	640.1941	671.0539	679.1319	705.9894	797.5716	807.5993	844.3292	927.3313	1007.7683	1035.7336	1059.6474	1065.8333	1147.212	1180.6393	1231.1089	1267.5711	1296.6049	1328.5205	1389.068	1405.859	1420.1648	1426.3276	1452.1684	1483.081	1486.8287	1528.3496	1604.5317	1843.7641	2890.1591	3019.9593	3046.1375	3065.2949	3103.0103	3124.7903	3237.1683	3244.039
CC1=CN=CN1CC=O	Cc1cncn1CC=O	
InChI=1S/C6H8N2O/c1-6-4-7-5-8(6)2-3-9/h3-5H,2H2,1H3	InChI=1S/C6H8N2O/c1-6-4-7-5-8(6)2-3-9/h3-5H,2H2,1H3
