15
gdb 24226	3.9631	1.67242	1.28498	2.9539	69.79	-0.217	-0.0018	0.2153	932.0687	0.116254	-416.796959	-416.790863	-416.789919	-416.827357	24.54	
C	 0.0266427352	 1.4525818503	 0.007517817	-0.243688
C	 1.2740782367	 0.6499221168	 0.0621269905	-0.017695
C	 1.9676676113	 0.3615288795	 1.4241243013	-0.384247
C	 0.8491433503	-0.3859809899	 2.0654797562	 0.284547
C	-0.2136654253	-0.562794543	 1.2614479795	 0.271629
N	-1.2138086378	-1.2458565725	 1.9186634287	-0.335124
C	-0.6919807445	-1.4440530992	 3.0926358817	 0.037933
O	 0.5715399379	-0.9479983554	 3.2739099003	-0.195108
N	-0.0700682359	-0.0273927006	-0.0465336006	-0.185791
H	-0.3188066295	 1.936932995	 0.9173381641	 0.124056
H	-0.2389531948	 1.9587970947	-0.9158166587	 0.125847
H	 1.8885454633	 0.5836485815	-0.828796968	 0.107803
H	 2.8733355606	-0.2394347282	 1.2777660061	 0.128723
H	 2.2645097645	 1.2777204165	 1.9474387071	 0.130497
H	-1.126094002	-1.9541252855	 3.9376511149	 0.150616
165.3172	224.4443	341.1024	433.8354	458.419	601.3416	645.008	696.7707	741.4974	767.8138	779.7872	803.1438	825.0363	916.8971	946.7275	963.4206	1054.6213	1074.4979	1092.4865	1102.6478	1118.3955	1162.6306	1168.3958	1227.0481	1275.8701	1287.6566	1351.5428	1366.4202	1413.7212	1489.7968	1499.0598	1515.263	1666.2656	3027.3738	3058.6364	3109.9603	3173.2753	3202.3289	3281.0941
C1C2CC3=C(N=CO3)N12	C1[C@H]2Cc3c(nco3)N12	
InChI=1S/C6H6N2O/c1-4-2-8(4)6-5(1)9-3-7-6/h3-4H,1-2H2	InChI=1S/C6H6N2O/c1-4-2-8(4)6-5(1)9-3-7-6/h3-4H,1-2H2/t4-,8?/m1/s1
