23
gdb 118589	2.00542	0.92468	0.66587	0.9095	81.09	-0.2427	0.0832	0.3259	1764.5213	0.201934	-462.524195	-462.512417	-462.511472	-462.562446	39.585	
C	 0.969177308	 1.2733560254	 0.1845413816	-0.224339
O	 1.0453225298	-0.1281588894	 0.2889211782	-0.23395
C	-0.0879551699	-0.6951177432	 0.9071718192	-0.080735
C	 0.0901257942	-2.2123341313	 0.9810016346	 0.070903
C	 1.306278643	-2.5854775087	 1.8239644271	-0.056404
O	 1.6020287705	-3.9570993611	 1.6471372723	-0.236112
C	 2.7160138791	-4.3739488539	 2.3990529663	-0.22788
O	-1.1232650554	-2.7035783629	 1.5212935238	-0.258941
C	-1.4439642432	-4.037020738	 1.1730595717	-0.235515
H	 0.8934086699	 1.753105382	 1.1732424573	 0.105099
H	 1.8836781807	 1.6157204689	-0.3057866433	 0.1272
H	 0.1025829763	 1.5907581562	-0.4164930318	 0.106233
H	-0.2297469653	-0.2879518207	 1.9228556	 0.093029
H	-1.0039089811	-0.4776268774	 0.337022682	 0.097105
H	 0.2450164785	-2.5998844881	-0.0378444502	 0.082361
H	 2.1602113466	-1.9627723632	 1.5169790532	 0.105006
H	 1.0859042798	-2.36936286	 2.883151556	 0.086425
H	 3.6239872419	-3.8138410281	 2.124539969	 0.104822
H	 2.5510301335	-4.2473695545	 3.4808962773	 0.104207
H	 2.8773665198	-5.4340451678	 2.1882030665	 0.125183
H	-0.7173718775	-4.7518453079	 1.5727108354	 0.128447
H	-2.4319628313	-4.2426488798	 1.5937753467	 0.11714
H	-1.4928592682	-4.1643596564	 0.0804446772	 0.100717
59.9727	77.7321	85.1408	89.2938	111.7534	163.8599	182.0975	193.656	233.7795	237.2038	328.4934	337.7941	356.6283	416.6071	504.5959	584.2356	863.8526	924.789	986.032	993.446	1070.4079	1109.1211	1133.1882	1150.9496	1169.0904	1170.7932	1185.0429	1185.5311	1189.5863	1218.1734	1224.6538	1238.3058	1248.2091	1281.6808	1329.8046	1368.2017	1419.0669	1428.0824	1475.9921	1480.1101	1482.7342	1484.3406	1484.9195	1485.6216	1499.4306	1504.8509	1517.9561	1524.0608	1528.6497	2958.7232	2962.0329	2971.9807	2974.1069	2985.6799	2992.6822	3010.0117	3013.0679	3016.3787	3019.4446	3072.4993	3112.3325	3114.6634	3115.7652
COCC(COC)OC	COCC(COC)OC	
InChI=1S/C6H14O3/c1-7-4-6(9-3)5-8-2/h6H,4-5H2,1-3H3	InChI=1S/C6H14O3/c1-7-4-6(9-3)5-8-2/h6H,4-5H2,1-3H3
