15
gdb 43574	3.2702	1.38224	1.10286	3.2519	71.25	-0.2788	-0.0043	0.2745	1064.7907	0.11423	-416.821358	-416.814027	-416.813083	-416.853496	27.728	
N	-0.0061126542	 1.1820006871	 0.3626527235	-0.538584
C	-0.010833003	-0.0288647161	 0.0207656587	 0.423333
O	 1.1179811047	-0.7275280977	-0.3767822473	-0.251299
C	 0.7528371082	-1.9496586978	-1.035922462	-0.053225
C	 1.6633563966	-3.019251877	-0.6026680129	 0.289619
N	 2.3607887168	-3.8821876803	-0.2829331298	-0.3129
C	-0.7121655911	-2.2058690924	-0.6923277537	-0.066011
C	-1.0441082177	-2.2160660578	 0.7666198027	-0.29144
C	-1.1870803428	-0.9328303702	-0.029694959	-0.113118
H	 0.9278181443	 1.5847859357	 0.2741178647	 0.233188
H	 0.8731757562	-1.8153143673	-2.1184246532	 0.141402
H	-1.3111146962	-2.7541560731	-1.4071148761	 0.122502
H	-1.9651735238	-2.7057442945	 1.0588085871	 0.13661
H	-0.238344754	-2.2922318832	 1.4891879206	 0.150009
H	-2.161230004	-0.4953812654	-0.1949721234	 0.129914
85.7551	135.0192	194.188	275.5613	361.7174	416.4994	509.7491	560.1043	596.7653	711.0137	739.7406	800.05	837.8359	847.4575	888.6374	935.193	980.8147	985.7496	1012.5658	1036.3897	1079.4955	1100.6399	1103.3556	1112.2293	1196.1505	1262.7633	1319.9795	1345.2644	1360.5388	1376.1311	1487.7211	1793.7895	2367.5916	3032.0419	3141.636	3205.7259	3224.7337	3235.401	3484.9927
N=C1OC(C#N)C2CC12	[NH][C]1O[C@@H](C#N)[C@H]2C[C@@H]12	
InChI=1S/C6H6N2O/c7-2-5-3-1-4(3)6(8)9-5/h3-5,8H,1H2	InChI=1S/C6H6N2O/c7-2-5-3-1-4(3)6(8)9-5/h3-5,8H,1H2/t3-,4+,5-/m0/s1
