19
gdb 11526	4.66116	1.05771	0.9192	3.2361	73.05	-0.2398	-0.0222	0.2176	1260.4403	0.163415	-365.037348	-365.028298	-365.027354	-365.0722	31.81	
C	-0.0021404907	 1.573013723	 0.1188251953	-0.411749
C	-0.0140095864	 0.0398114491	 0.0137127757	-0.059236
C	 0.7542949465	-0.6486786582	 1.1611758764	-0.151306
N	 2.1555765669	-0.2454331761	 1.1897440648	-0.066612
C	 2.5399206901	 0.7640245213	 2.1739875341	-0.219762
C	 2.911301093	-0.6628743274	 2.3667418059	-0.222009
C	-1.4453424857	-0.4619376427	 0.0300581306	 0.155447
O	-1.9360734484	-1.1938422849	-0.7896741115	-0.245698
H	 1.0224397779	 1.9486163202	 0.0855639744	 0.143159
H	-0.5560402133	 2.0260339939	-0.7091033205	 0.126888
H	-0.4602538208	 1.9122267651	 1.0554288908	 0.114637
H	 0.4319655284	-0.2755444215	-0.9342239063	 0.105931
H	 0.246935754	-0.4499379236	 2.1247936685	 0.080431
H	 0.7240464008	-1.7325490026	 0.9999906598	 0.11914
H	 3.2784778276	 1.4894189065	 1.8450501275	 0.120379
H	 1.7633684175	 1.1664351694	 2.8227681981	 0.111599
H	 2.3820498118	-1.2120935505	 3.1441452792	 0.11114
H	 3.9256083893	-1.0029623872	 2.179297876	 0.121026
H	-2.0451708884	-0.0939420439	 0.8985053713	 0.066594
41.2915	57.8145	100.9003	167.4837	237.0827	286.1559	299.731	364.5791	385.6043	435.3105	575.237	765.3955	835.8066	860.5871	894.9024	918.4876	931.4992	968.826	1029.2757	1038.0926	1111.4863	1120.9305	1125.5562	1145.1885	1153.0516	1177.6974	1193.2723	1265.9945	1297.1721	1319.295	1361.3125	1389.5055	1406.2456	1428.9605	1483.9495	1492.2509	1496.9286	1504.1219	1521.5737	1836.1124	2830.6019	2919.3797	3033.7099	3053.5195	3075.7533	3093.1464	3097.5407	3101.7318	3131.7125	3177.3191	3191.5961
CC(CN1CC1)C=O	C[C@@H](CN1CC1)C=O	
InChI=1S/C6H11NO/c1-6(5-8)4-7-2-3-7/h5-6H,2-4H2,1H3	InChI=1S/C6H11NO/c1-6(5-8)4-7-2-3-7/h5-6H,2-4H2,1H3/t6-/m0/s1
