15
gdb 18655	3.40599	2.32175	1.54545	5.5214	68.34	-0.2083	-0.0231	0.1852	801.776	0.121533	-362.684816	-362.678368	-362.677424	-362.715206	25.461	
O	 0.0650115354	-0.0365881477	-0.1514694808	-0.370761
C	-0.0072390686	 1.1732346613	-0.0036618826	 0.386319
C	-1.2566278801	 1.9082393566	 0.1110415962	-0.250138
C	-1.2900615614	 3.2643873013	 0.064326991	 0.029763
N	-0.1963420865	 4.0572643524	-0.098060225	-0.294574
C	 1.127684128	 3.5204548465	 0.0132484105	 0.004544
C	 1.5633405612	 2.8291149158	 1.2768109124	-0.308523
C	 1.2488048066	 2.008188214	 0.0373799526	-0.14993
H	-2.1774862921	 1.3430184125	 0.1669855492	 0.099741
H	-2.230790661	 3.8044550917	 0.1200029614	 0.123005
H	-0.3043207965	 5.0457692325	 0.0592684315	 0.253384
H	 1.864967705	 4.0873011981	-0.5454088084	 0.109373
H	 2.6034254217	 2.9145169067	 1.5687825287	 0.125861
H	 0.8562225981	 2.7842329324	 2.0976887779	 0.130615
H	 2.0859032602	 1.5505655659	-0.4770533546	 0.111319
129.2361	237.3894	302.09	419.4069	431.6613	491.2457	530.4819	536.4562	722.8771	741.5172	792.8774	810.3289	828.3461	903.5114	961.9571	981.5828	998.2185	1033.6033	1057.9516	1078.3919	1121.9651	1160.0571	1204.6007	1247.937	1276.9214	1353.277	1404.7651	1423.6755	1473.308	1531.9557	1659.7239	1748.1691	3139.654	3160.3181	3175.6366	3182.4264	3223.0004	3231.9119	3638.3664
O=C1C=CNC2CC12	O=C1C=CN[C@H]2C[C@@H]12	
InChI=1S/C6H7NO/c8-6-1-2-7-5-3-4(5)6/h1-2,4-5,7H,3H2	InChI=1S/C6H7NO/c8-6-1-2-7-5-3-4(5)6/h1-2,4-5,7H,3H2/t4-,5+/m1/s1
