20
gdb 106119	3.14703	1.37493	1.18606	0.4928	79.45	-0.2056	0.0901	0.2957	1133.8682	0.170406	-403.058413	-403.049935	-403.048991	-403.091367	32.549	
C	 0.0640910786	 1.3521130568	-0.2221655782	-0.256137
O	 0.0050884067	-0.0112060199	 0.182513822	-0.283362
C	-1.246217336	-0.5369289521	 0.1281655797	 0.424898
C	-1.704304586	-1.9638201672	 0.0236821155	-0.167498
C	-2.5742454562	-1.8282940632	 1.2691428944	-0.247689
C	-2.5964911408	-0.2980758307	 0.9608028996	-0.11272
N	-3.2929438529	-0.1053318096	-0.3411332523	-0.068868
C	-4.6598749177	-0.5837683197	-0.4950727084	-0.327504
C	-2.2080036801	-0.8424957273	-0.9717530463	-0.125747
H	 1.1107651328	 1.6555212723	-0.1564157829	 0.127455
H	-0.292035858	 1.4738539885	-1.2527870618	 0.12125
H	-0.540449815	 1.989035978	 0.4365248369	 0.120676
H	-1.1406391525	-2.8162166381	-0.333226891	 0.089624
H	-3.530141854	-2.3583272878	 1.3277488564	 0.091087
H	-1.9926047983	-2.0220887157	 2.1740351391	 0.10766
H	-2.8033841678	 0.4342569323	 1.7402928223	 0.074356
H	-5.3129438988	-0.0289563237	 0.1870136989	 0.117288
H	-4.992874666	-0.376524859	-1.517843638	 0.118263
H	-4.7974988931	-1.6604530878	-0.3100485512	 0.102316
H	-2.0687964949	-0.918747936	-2.0431669946	 0.094654
97.6727	131.2152	166.329	201.4572	248.6795	290.2056	352.1846	415.6627	512.8584	570.4191	621.5091	668.6171	726.0713	789.1113	859.6072	900.6489	939.3506	956.5783	960.8861	992.2963	1041.218	1055.3883	1068.1532	1095.4621	1109.063	1129.5156	1157.5198	1165.817	1179.7038	1207.6965	1218.4551	1236.087	1245.6207	1268.881	1322.7231	1438.3965	1445.8735	1480.6359	1486.1843	1493.3594	1502.4703	1512.2971	1520.981	2980.9676	3007.9317	3048.4777	3061.3603	3067.7103	3096.3183	3105.5479	3122.3778	3130.0425	3191.2145	3204.8898
COC12C3CC1N(C)C23	CO[C@@]12[C@H]3C[C@@H]1N(C)[C@@H]23	
InChI=1S/C7H11NO/c1-8-5-3-4-6(8)7(4,5)9-2/h4-6H,3H2,1-2H3	InChI=1S/C7H11NO/c1-8-5-3-4-6(8)7(4,5)9-2/h4-6H,3H2,1-2H3/t4-,5-,6+,7-/m0/s1
