17
gdb 40933	3.87392	1.34294	1.21206	2.4769	67.46	-0.2492	0.0484	0.2975	1040.5995	0.136069	-458.88781	-458.880512	-458.879568	-458.919982	27.636	
C	 0.3117637352	 1.5268301991	-0.2870795409	-0.097882
O	 1.6404373846	 1.3448730743	 0.2769380172	-0.288833
C	 1.3296791506	 0.0052498319	 0.6968922917	-0.026268
C	-0.0681786321	 0.078994463	 0.0574737718	 0.058817
O	 0.3133500111	-0.8677536239	-0.9592077165	-0.325957
C	 1.6261293066	-1.0428167646	-0.3880686473	 0.352199
C	 2.875813478	-0.9608572951	-1.2706535913	-0.131772
O	 3.3673983786	-2.2099251426	-0.7308003296	-0.274428
C	 2.1141029266	-2.4645621208	-0.0648491183	-0.13608
H	-0.2447379569	 2.2956177865	 0.2626647948	 0.110154
H	 0.3300991853	 1.7636722505	-1.3556185916	 0.119684
H	 1.5961916877	-0.1997959238	 1.7351980059	 0.094135
H	-1.0334442419	-0.1439597299	 0.5124497451	 0.097142
H	 2.6492726664	-1.0303560891	-2.3423829352	 0.110389
H	 3.5510088529	-0.1199881136	-1.0837266851	 0.123517
H	 2.2462297027	-2.7264364049	 0.991976132	 0.104949
H	 1.5186211147	-3.2387612372	-0.5665732827	 0.110234
97.861	103.4331	193.0706	273.3236	349.5629	404.3287	472.2831	535.5945	770.0414	803.5895	821.6436	871.0939	903.0397	930.21	950.0647	980.4265	986.2739	1003.7738	1021.8417	1065.7128	1071.4519	1111.7869	1142.021	1148.7414	1158.4989	1185.5501	1190.3174	1231.766	1261.6126	1291.674	1309.3728	1329.2149	1356.4815	1376.1627	1495.4377	1502.6572	1523.0584	3007.5917	3023.2946	3025.6588	3060.8021	3086.683	3088.6496	3096.8876	3114.7847
C1OC2C1OC21COC1	C1O[C@H]2[C@@H]1OC12COC1	
InChI=1S/C6H8O3/c1-4-5(8-1)6(9-4)2-7-3-6/h4-5H,1-3H2	InChI=1S/C6H8O3/c1-4-5(8-1)6(9-4)2-7-3-6/h4-5H,1-3H2/t4-,5+/m1/s1
