21
gdb 113977	4.01104	0.63596	0.59193	5.0957	84.74	-0.2594	0.0398	0.2991	1905.6629	0.182392	-383.270495	-383.260397	-383.259453	-383.306964	35.829	
C	-0.112069275	 1.4771895198	-0.5659718586	-0.377454
C	-0.0148153336	 0.1975983353	 0.2728382436	-0.185715
C	-1.341107841	-0.5250739244	 0.3508491658	-0.002469
N	-1.7120977191	-1.3850232327	-0.7882901738	-0.338958
C	-1.5164877686	-1.991416971	 0.5416591798	-0.039644
C	-0.3850666764	-2.9862981871	 0.6701636346	-0.196804
C	-0.744905312	-4.3104401063	-0.0372045716	-0.329345
C	 0.3140528862	-5.3109011762	 0.0643264969	 0.254489
N	 1.1622284099	-6.0903528572	 0.157917818	-0.307181
H	 0.8526746875	 1.990135565	-0.6186397043	 0.115385
H	-0.4291757156	 1.2430324447	-1.5869004053	 0.129935
H	-0.8392033137	 2.1777650717	-0.1401237118	 0.111507
H	 0.7402275597	-0.4637072788	-0.1621606693	 0.108228
H	 0.3193459749	 0.4396790523	 1.2899949117	 0.099347
H	-2.141210547	 0.0851654055	 0.7725487935	 0.082467
H	-2.7005355217	-1.2969064063	-1.0052489178	 0.232434
H	-2.4178513504	-2.2863528193	 1.0807163061	 0.083905
H	 0.5291991576	-2.5888265314	 0.2244875105	 0.128217
H	-0.1753153476	-3.1775750031	 1.7282792624	 0.119689
H	-1.6633912271	-4.7341116954	 0.3864018457	 0.14468
H	-0.9445459569	-4.1066152753	-1.0947633863	 0.167287
45.4472	68.5783	79.4754	103.7583	181.0476	219.1601	246.5796	283.5259	392.3537	415.1249	472.7342	525.4057	571.7367	746.4639	775.3892	819.0602	833.3346	896.7085	948.8765	958.8243	998.3347	1004.528	1028.853	1053.8852	1073.9467	1111.9661	1154.9001	1175.6614	1236.2483	1262.7925	1274.2517	1284.9352	1304.6958	1317.8752	1343.9422	1369.9767	1408.2891	1428.5339	1467.6841	1474.6523	1483.9178	1487.8278	1500.0328	1508.6511	2361.4294	3029.5517	3034.0619	3040.1345	3055.0737	3076.8217	3084.5379	3088.6342	3097.7974	3106.4616	3113.8127	3121.8689	3510.7957
CCC1NC1CCC#N	CC[C@H]1N[C@H]1CCC#N	
InChI=1S/C7H12N2/c1-2-6-7(9-6)4-3-5-8/h6-7,9H,2-4H2,1H3	InChI=1S/C7H12N2/c1-2-6-7(9-6)4-3-5-8/h6-7,9H,2-4H2,1H3/t6-,7+/m1/s1
