20
gdb 93941	2.84514	1.23209	1.04271	15.8888	77.22	-0.1519	-0.036	0.1159	1205.0539	0.173209	-440.254716	-440.245869	-440.244925	-440.288747	33.097	
N	 0.0599178467	 1.3940927097	 0.2096533848	-0.439185
H	-0.0123558458	 0.4726805484	-0.2302959786	 0.316405
H	 1.0516014065	 1.6209111345	 0.3140654543	 0.333871
H	-0.3644955373	 2.0833933932	-0.4147734013	 0.325903
C	-0.6142425189	 1.3893714348	 1.5843646438	-0.001666
C	-2.1082192738	 1.054444339	 1.4943224038	-0.236019
C	-2.4091875399	 0.4093106943	 2.8847351852	-0.194024
C	-1.058562004	 0.439888489	 3.6436819921	-0.121023
C	-0.0059695133	 0.3601108787	 2.5252730509	-0.23545
C	-0.9374410188	 1.8133404001	 4.450956441	 0.345031
O	-1.7617441442	 1.9228146318	 5.3638055874	-0.456306
O	-0.0586445306	 2.612401087	 4.0321844842	-0.492415
H	-0.4177028776	 2.3673472247	 2.0380031389	 0.177506
H	-2.7158327985	 1.9400860345	 1.2887565385	 0.121675
H	-2.2932108423	 0.3366633646	 0.6816714376	 0.076461
H	-3.155785539	 0.9645316745	 3.4539923992	 0.140836
H	-2.7850934149	-0.6089576919	 2.7393135271	 0.083458
H	-0.9772766513	-0.3806627003	 4.3584851875	 0.075647
H	 0.0374137456	-0.6359287098	 2.0534123439	 0.057646
H	 0.9810304115	 0.6637062632	 2.8793101296	 0.12165
59.0082	87.7762	149.3255	207.1569	242.0431	289.4005	316.1705	402.8465	431.2079	533.965	588.0175	665.6103	795.5603	804.8125	808.884	829.6354	892.8695	908.5578	924.5254	954.6099	958.4523	1001.629	1023.862	1079.6785	1114.5611	1165.6958	1196.9671	1216.5346	1253.8037	1267.9214	1288.7366	1295.9728	1310.3023	1336.8834	1360.5271	1423.0259	1438.9032	1458.2463	1489.2429	1513.7315	1645.3922	1650.3746	1761.2995	2964.3456	2996.0687	3042.3522	3059.3665	3086.3535	3096.6516	3115.742	3126.2205	3398.7251	3492.7783	3507.4759
[NH3+]C1CCC(C1)C([O-])=O	[NH3][C@H]1CC[C@@H](C1)C(=O)[O]	
InChI=1S/C6H11NO2/c7-5-2-1-4(3-5)6(8)9/h4-5H,1-3,7H2,(H,8,9)	InChI=1S/C6H11NO2/c7-5-2-1-4(3-5)6(8)9/h4-5H,1-3H2,7H3/t4-,5-/m0/s1
