16
gdb 46663	2.96449	1.80995	1.37756	4.0735	70.56	-0.2544	0.007	0.2614	929.7803	0.125804	-437.787905	-437.781322	-437.780378	-437.818747	26.807	
N	-0.1291876105	 1.2417741785	 0.1101612782	-0.54205
C	-0.0585182463	-0.0093277788	-0.0006003343	 0.305713
O	 1.1096961933	-0.7519002424	-0.0545679463	-0.271166
C	 0.8774003607	-2.1837292976	-0.3171298032	-0.134568
C	-0.5415429694	-2.197895887	-0.8697934713	-0.046296
C	-1.9314147598	-2.6065286577	-0.2792557751	-0.004652
C	-1.5708395138	-1.9917559566	 1.0770115782	-0.270014
C	-1.1307852526	-1.0365362352	-0.075519163	 0.382707
O	-2.441605898	-1.251977188	-0.7118122157	-0.360979
H	 0.8041921607	 1.6577884299	 0.1267275675	 0.230062
H	 1.6391355568	-2.4914666645	-1.0352011034	 0.128998
H	 1.023457741	-2.7346290746	 0.6150897367	 0.125558
H	-0.5823024739	-2.0322630513	-1.9476123198	 0.108975
H	-2.5712925043	-3.4519798234	-0.5307953504	 0.107995
H	-2.4155395646	-1.6248330338	 1.6579256595	 0.128286
H	-0.8072110492	-2.4708185774	 1.6909492424	 0.11143
145.421	207.3763	303.6838	341.7145	478.7413	549.0283	574.0987	611.6465	659.5327	698.848	713.7848	826.8385	873.3212	883.9078	900.2526	930.9205	959.5851	989.8958	1011.5398	1018.3625	1071.7027	1107.2671	1116.4999	1145.4833	1188.3861	1200.0843	1212.0102	1224.3415	1241.0279	1327.0255	1356.9653	1390.7723	1489.4017	1522.021	1797.0593	3069.0492	3089.2623	3103.2423	3124.8809	3128.1526	3169.9919	3468.5865
N=C1OCC2C3CC12O3	[NH][C]1OC[C@H]2[C@H]3C[C@@]12O3	
InChI=1S/C6H7NO2/c7-5-6-1-4(9-6)3(6)2-8-5/h3-4,7H,1-2H2	InChI=1S/C6H7NO2/c7-5-6-1-4(9-6)3(6)2-8-5/h3-4,7H,1-2H2/t3-,4+,6-/m0/s1
