15
gdb 131093	3.45712	1.20363	0.9215	2.2105	72.21	-0.2432	0.0023	0.2455	1195.9952	0.113282	-416.781761	-416.773569	-416.772625	-416.815127	30.317	
O	-0.9347969104	 0.5192768827	 0.0780817261	-0.416405
C	 0.084872677	-0.4622255315	-0.1273399265	-0.187116
C	 0.9440619794	-0.1464374325	-1.2707232172	 0.314632
C	 1.6394980414	 0.1431434815	-2.2064758217	-0.436959
C	 0.8842604882	-0.6739330463	 1.1347719815	 0.368821
C	 2.1864069915	-1.0537774853	 1.3891429009	-0.316332
C	 2.2680880471	-1.1128929359	 2.7971831531	-0.003239
N	 1.1147792267	-0.7912976893	 3.3782258252	-0.228117
N	 0.2894414472	-0.5374619147	 2.3467494194	-0.243125
H	-0.4980842457	 1.3778201572	 0.1355664246	 0.291507
H	-0.4782595286	-1.3770477654	-0.3564687195	 0.143561
H	 2.2513886251	 0.3920287428	-3.0386097654	 0.208288
H	 2.9546875435	-1.2529160724	 0.6607519694	 0.113815
H	 3.1206573519	-1.3694025792	 3.4087932271	 0.113581
H	-0.6540790344	-0.2279251218	 2.512041903	 0.277087
48.659	118.0945	170.6383	215.8487	285.4372	359.0535	424.371	469.8691	560.8806	582.4122	635.1654	650.1174	684.9819	702.6859	791.51	825.5667	895.8095	931.6331	943.2385	1045.9479	1053.7213	1062.0083	1134.9345	1229.4097	1254.6969	1278.02	1324.5842	1361.5502	1414.3909	1439.4213	1490.0134	1594.3558	2240.0788	3018.9102	3245.4404	3278.5429	3501.1472	3669.7422	3792.3714
OC(C#C)C1=CC=NN1	O[C@@H](C#C)c1ccn[nH]1	
InChI=1S/C6H6N2O/c1-2-6(9)5-3-4-7-8-5/h1,3-4,6,9H,(H,7,8)	InChI=1S/C6H6N2O/c1-2-6(9)5-3-4-7-8-5/h1,3-4,6,9H,(H,7,8)/t6-/m0/s1
