18
gdb 113597	3.21373	0.72573	0.62607	5.8024	93.63	-0.2629	-0.037	0.2259	1762.8614	0.146998	-364.799055	-364.789622	-364.788678	-364.83424	33.782	
C	 0.2311391155	 1.568970968	 0.0809376102	-0.376968
C	-0.2037848886	 0.124059583	-0.1897488505	-0.205645
C	 0.594376717	-0.5154692652	-1.305244838	 0.020372
C	 1.9101964592	-1.1758332487	-1.0370175639	-0.283632
C	 0.7122240904	-2.0369384201	-1.4373255323	-0.237389
C	 0.1067504509	-2.9074290816	-0.4864722722	 0.139205
C	-0.4151551915	-3.6588050132	 0.3070496175	 0.007381
C	-0.9976883924	-4.5017021975	 1.206265631	 0.200346
N	-1.4945844036	-5.2191814767	 1.9744563094	-0.343242
H	 1.2848888197	 1.616041506	 0.374239238	 0.120989
H	 0.1058877996	 2.1946977817	-0.809418455	 0.11767
H	-0.3632405588	 2.0117856659	 0.8853675371	 0.121092
H	-0.0983852618	-0.4738655059	 0.7224534995	 0.112673
H	-1.2694963838	 0.1000567133	-0.4483433857	 0.110867
H	 0.508123139	-0.0125842144	-2.2655772899	 0.100995
H	 2.7122997827	-1.090741926	-1.7610392709	 0.129491
H	 2.2348145609	-1.2523799173	-0.0050557172	 0.136071
H	 0.7214416156	-2.4256925814	-2.4514312368	 0.129724
59.2416	78.803	107.2948	164.4594	211.2518	242.2376	256.6234	363.9733	397.2991	494.0919	551.2237	579.8457	601.5481	689.2176	760.2817	795.958	844.5515	894.6397	926.0618	968.7258	1020.9672	1073.7606	1075.4208	1100.4123	1136.206	1188.163	1199.6983	1246.866	1296.2913	1345.3151	1387.3145	1409.9774	1422.5811	1479.8911	1491.6359	1498.5371	1507.6892	2258.4626	2386.8346	3032.3887	3035.5772	3067.7962	3103.6445	3111.5882	3137.3264	3140.3533	3151.7961	3230.9894
CCC1CC1C#CC#N	CC[C@H]1C[C@H]1C#CC#N	
InChI=1S/C8H9N/c1-2-7-6-8(7)4-3-5-9/h7-8H,2,6H2,1H3	InChI=1S/C8H9N/c1-2-7-6-8(7)4-3-5-9/h7-8H,2,6H2,1H3/t7-,8+/m0/s1
