16
gdb 35602	2.6272	1.66439	1.27493	3.4739	74.09	-0.2527	0.0078	0.2605	1002.3084	0.124936	-400.685117	-400.677653	-400.676709	-400.717108	28.879	
C	-0.1522223463	-1.2690490469	 0.011385194	-0.47264
C	-0.1185141769	-0.0671386466	-0.0010959807	 0.35322
C	-0.0694621764	 1.3870940624	-0.0062681486	-0.247215
C	-0.4609585136	 2.0057201	 1.4170571698	-0.166355
N	 0.7967818192	 2.0869940945	 2.2097620894	-0.30144
C	 1.6867322577	 2.0917187549	 1.3176872853	 0.441546
O	 3.0103475609	 1.7638216765	 1.2479875073	-0.273367
C	 2.7562078788	 1.2662424525	-0.1335816198	-0.127535
C	 1.3658417425	 1.9635789459	-0.1296112007	-0.149417
H	-0.1934248317	-2.3302432504	 0.0240903423	 0.203605
H	-0.7300559571	 1.7707149912	-0.7899115476	 0.108924
H	-0.9192336609	 2.9946831279	 1.2880817756	 0.109792
H	-1.1748393693	 1.3660538227	 1.9391665271	 0.131022
H	 3.5015250156	 1.657749148	-0.8263752167	 0.129375
H	 2.7308449405	 0.175243917	-0.1311215997	 0.146887
H	 1.381485067	 2.9016575502	-0.6880771469	 0.113596
94.1242	137.2735	223.6796	284.1197	328.5644	440.4341	477.3948	556.7892	626.6052	640.3465	684.5259	704.0908	758.0082	794.8614	815.1735	906.3425	930.0105	955.5135	990.2254	1013.939	1068.2606	1114.8716	1142.3292	1149.8367	1196.8411	1216.6509	1227.0443	1298.4697	1311.1257	1342.736	1374.9185	1490.7607	1496.4408	1777.9313	2233.5698	3026.7337	3061.3137	3080.9755	3093.692	3115.2152	3156.7208	3502.2381
C#CC1CN=C2OCC12	C#C[C@H]1C[N][C]2OC[C@@H]12	
InChI=1S/C7H7NO/c1-2-5-3-8-7-6(5)4-9-7/h1,5-6H,3-4H2	InChI=1S/C7H7NO/c1-2-5-3-8-7-6(5)4-9-7/h1,5-6H,3-4H2/t5-,6-/m0/s1
