17
gdb 97288	1.99075	1.14178	0.7821	3.5435	81.72	-0.2443	-0.0226	0.2217	1456.3203	0.135267	-414.19876	-414.189005	-414.188061	-414.234919	33.319	
C	-0.1258440784	 1.3983537789	-0.1286478054	-0.315324
N	 0.0283688564	-0.0389921411	-0.0536613991	-0.233567
C	-1.018305793	-0.7460275326	-0.0690219253	 0.12429
N	-1.0006589221	-2.1389572354	-0.0042735857	-0.086534
C	-2.2601338726	-2.8692164613	-0.0044578209	-0.315992
C	-2.9568051332	-2.809040451	-1.2969714705	 0.269411
N	-3.5158647826	-2.7407588899	-2.3054603832	-0.299279
C	 0.1919387299	-2.8508249578	 0.0424284082	 0.100479
N	 0.2001352785	-4.1204982318	 0.1093943609	-0.474377
H	 0.3382043522	 1.8643559486	 0.7480191209	 0.131744
H	 0.4034823759	 1.7789828786	-1.0094402771	 0.135175
H	-1.1752405603	 1.7286282732	-0.1850219946	 0.103774
H	-2.0370181745	-0.3413877527	-0.1351902671	 0.104454
H	-2.0195840628	-3.9098592878	 0.2289737022	 0.206636
H	-2.9284125743	-2.4848809708	 0.7738531794	 0.16156
H	 1.052791826	-2.1826668358	 0.0182870394	 0.149835
H	 1.154612005	-4.4702579014	 0.1393684679	 0.237716
25.0009	75.8696	127.8436	167.3823	193.898	196.0747	273.6178	306.107	367.4553	374.1073	405.2464	455.7139	608.0785	734.0249	818.7599	887.2073	940.0418	976.3215	982.1414	1044.7338	1078.6963	1141.4891	1148.6747	1161.2642	1243.6473	1323.6979	1360.0776	1390.7517	1419.6974	1434.1622	1450.1439	1464.6547	1478.4065	1504.7039	1710.689	1763.3683	2363.5145	2976.7403	3030.7361	3050.7459	3063.4164	3080.6745	3109.2527	3141.8966	3524.5252
CN=CN(CC#N)C=N	CN=CN(CC#N)C=N	
InChI=1S/C5H8N4/c1-8-5-9(4-7)3-2-6/h4-5,7H,3H2,1H3	InChI=1S/C5H8N4/c1-8-5-9(4-7)3-2-6/h4-5,7H,3H2,1H3
