18
gdb 124698	3.80629	0.91297	0.87927	1.5516	73.58	-0.2636	-0.011	0.2526	1364.4219	0.147308	-439.078894	-439.069982	-439.069038	-439.113451	32.259	
C	-0.2334327106	 1.496874916	 0.0025422092	-0.39417
C	 0.0598577512	-0.0100977463	-0.0337550625	-0.121099
C	 0.8619128444	-0.3961094897	-1.2963510864	-0.067636
O	 0.204377075	-0.0285153401	-2.4960544741	-0.41325
C	 0.7814029013	-0.4817073269	 1.1963260259	 0.385615
N	 0.2987003519	-1.4817442842	 1.8983196287	-0.209168
O	 1.1971086062	-1.6889599806	 2.9431394376	-0.163745
C	 2.1955436777	-0.803351908	 2.83340676	 0.084058
C	 2.0072958082	-0.0042417004	 1.7548201349	-0.336391
H	 0.6906024126	 2.0765882021	 0.1054593536	 0.114653
H	-0.7138557119	 1.8004120217	-0.9302395581	 0.132539
H	-0.8881773046	 1.7527952878	 0.8399159643	 0.123282
H	-0.889949752	-0.559177204	-0.0664452762	 0.091416
H	 1.8185486289	 0.1387753436	-1.306035095	 0.110913
H	 1.0866668107	-1.4722443566	-1.2718462403	 0.103247
H	-0.5796361702	-0.580331677	-2.5844678511	 0.285908
H	 2.9613902317	-0.861142794	 3.5915956272	 0.151333
H	 2.6340283594	 0.8007180666	 1.4095029523	 0.122493
38.4792	105.9772	117.3946	209.327	224.0126	277.3054	320.2511	373.6459	392.2097	488.0113	616.3533	710.6891	741.8661	800.3764	872.9845	877.1473	907.2048	912.7323	943.8277	990.2643	1022.7479	1065.661	1087.3358	1114.8315	1118.8899	1160.526	1228.7659	1292.8127	1312.4856	1356.9219	1390.6165	1403.6024	1418.5503	1445.3956	1476.8466	1494.2158	1501.4758	1503.8635	1606.534	3000.3631	3027.677	3040.3158	3069.8893	3108.253	3132.5864	3260.1232	3285.7452	3813.7089
CC(CO)C1=NOC=C1	C[C@@H](CO)c1nocc1	
InChI=1S/C6H9NO2/c1-5(4-8)6-2-3-9-7-6/h2-3,5,8H,4H2,1H3	InChI=1S/C6H9NO2/c1-5(4-8)6-2-3-9-7-6/h2-3,5,8H,4H2,1H3/t5-/m0/s1
