17
gdb 130091	3.14337	1.50984	1.04886	2.8096	78.17	-0.1847	0.0316	0.2163	1115.5881	0.138939	-414.162461	-414.154248	-414.153304	-414.195208	30.953	
N	-0.0107723757	 1.3598062	 0.3037141995	-0.588827
C	-0.0129892581	-0.0108463648	 0.0632646643	 0.367797
N	-1.1406222877	-0.7218141951	-0.0128650219	-0.371049
N	-0.6671747044	-1.9941971825	-0.0501109162	 0.041832
C	-0.92227587	-3.2400773538	-0.7992036564	-0.158512
C	 0.6297688952	-3.49365694	-0.6997350798	-0.361654
C	 0.6876233179	-2.0840764953	-0.1213563125	 0.269212
C	 1.1851723123	-0.8018017885	-0.0405479601	-0.049151
N	 2.4826342357	-0.2407634281	-0.0845182442	-0.628082
H	 0.7476460288	 1.824089328	-0.1816593354	 0.249446
H	-0.9025577293	 1.7862072481	 0.0871299715	 0.250058
H	-1.5928279802	-3.9418733646	-0.296426304	 0.120754
H	-1.2610178542	-3.0655595662	-1.8249424598	 0.127354
H	 0.9286284675	-4.3057293445	-0.032499522	 0.123005
H	 1.1211170021	-3.6225250502	-1.6664792459	 0.12566
H	 3.1797992324	-0.9265531366	-0.3473288508	 0.237774
H	 2.7554574177	 0.1453367443	 0.815204444	 0.244384
99.3073	119.5742	177.266	234.6031	290.0018	333.1279	357.3871	382.4176	575.3918	597.9753	632.3723	668.208	699.1028	773.5364	800.1534	830.9139	835.6534	886.4172	956.2461	1035.1931	1056.5379	1114.6345	1138.3829	1175.7934	1211.5411	1215.8715	1273.684	1296.4043	1304.448	1417.7783	1451.0909	1483.9642	1516.4045	1529.1435	1627.8193	1644.6883	1665.1143	3050.5327	3067.9116	3102.7228	3121.6196	3486.8792	3527.957	3590.2736	3631.2431
NC1=NN2CCC2=C1N	Nc1nn2CCc2c1N	
InChI=1S/C5H8N4/c6-4-3-1-2-9(3)8-5(4)7/h1-2,6H2,(H2,7,8)	InChI=1S/C5H8N4/c6-4-3-1-2-9(3)8-5(4)7/h1-2,6H2,(H2,7,8)
