17
gdb 111718	2.38579	1.48428	1.14354	1.4053	76.97	-0.2246	0.0113	0.236	1121.896	0.133444	-421.728205	-421.719412	-421.718468	-421.761855	32.365	
C	-0.4288354458	 0.9439631294	-0.1542821919	-0.237485
O	 0.6146356966	 0.0091287552	 0.0738244499	-0.233317
C	 1.0132602893	-0.6525872247	-1.07034613	 0.036729
C	 1.4538621078	-2.0777483181	-0.9745764271	-0.256614
C	 0.5234436395	-2.8179142558	-0.0204590937	-0.090715
O	-0.6604447657	-2.3637154837	-0.7305720919	-0.320563
C	 0.1478015591	-1.7191387226	-1.7198378746	 0.251303
C	-0.235195341	-1.7586226025	-3.0856109692	 0.239168
C	-0.5573655704	-1.7710056977	-4.2452167251	-0.406185
H	-0.1236206511	 1.7200812067	-0.8708932403	 0.108493
H	-1.3303595064	 0.4448280351	-0.5299309638	 0.132995
H	-0.6475997155	 1.4137859172	 0.8068377951	 0.130015
H	 1.5663353908	-0.0518090677	-1.7957452112	 0.099455
H	 2.398031819	-2.4408202253	-1.3570078411	 0.115095
H	 0.6113833629	-3.9067235172	-0.0884251568	 0.114556
H	 0.5269853179	-2.4936500814	 1.0235083274	 0.123264
H	-0.8442988669	-1.7888539169	-5.2675118159	 0.193805
80.7377	106.9928	153.5641	178.3939	212.5167	266.0239	340.4771	458.0185	485.38	525.3293	550.2836	568.9331	691.0728	711.265	792.0073	817.0134	892.4235	965.4744	986.4861	998.6167	1033.2906	1046.0495	1113.7632	1121.7221	1166.8988	1175.7631	1198.9592	1236.0124	1267.3334	1311.4471	1338.8658	1427.8148	1487.0199	1487.6618	1501.2007	1510.4203	2229.7931	2997.0977	3047.7374	3064.2379	3087.8442	3106.2041	3127.8114	3208.099	3501.2246
COC1C2COC12C#C	CO[C@H]1[C@H]2CO[C@@]12C#C	
InChI=1S/C7H8O2/c1-3-7-5(4-9-7)6(7)8-2/h1,5-6H,4H2,2H3	InChI=1S/C7H8O2/c1-3-7-5(4-9-7)6(7)8-2/h1,5-6H,4H2,2H3/t5-,6+,7-/m1/s1
