22
gdb 8082	3.2902	2.03797	1.63454	0.1006	80.89	-0.2716	0.0793	0.3509	911.2146	0.203232	-313.08212	-313.074789	-313.073844	-313.112941	30.522	
C	-0.041535577	 1.5501441041	 0.0221075394	-0.478005
C	 0.0317596541	 0.033398384	-0.0178332177	 0.35529
C	 1.1325955198	-0.6481583544	-0.8938716263	-0.262417
C	 1.1492292494	-1.7817254706	 0.1742443684	-0.005535
C	 0.6710807542	-0.71249352	 1.1913755273	-0.241373
C	 0.0177378695	-2.7928736551	-0.0741480339	-0.197959
C	-1.2000075332	-2.0972400275	-0.7260190333	-0.206797
C	-1.3397435602	-0.6151973196	-0.306376105	-0.231819
H	 0.9299372338	 1.9879135184	 0.2766370638	 0.105257
H	-0.3506266798	 1.9587279553	-0.9474966252	 0.109523
H	-0.7678643695	 1.8922145699	 0.7695448722	 0.110008
H	 0.8987741495	-0.9015195459	-1.932158493	 0.085378
H	 2.0609028972	-0.0693838205	-0.8731908457	 0.088251
H	 2.1004440227	-2.2808791409	 0.3747961409	 0.054383
H	 1.5078043564	-0.1463865079	 1.6129419557	 0.084772
H	 0.0096946724	-1.0349411138	 2.0031408932	 0.07979
H	 0.3613172704	-3.6072869101	-0.7226248022	 0.088919
H	-0.2591874146	-3.2541037692	 0.882395771	 0.092433
H	-1.0743671916	-2.1346119357	-1.8131588924	 0.102095
H	-2.122673744	-2.6472503151	-0.5154663288	 0.090105
H	-1.9636337742	-0.5186454899	 0.5919150525	 0.091506
H	-1.8582157152	-0.0631015755	-1.1003150709	 0.086197
189.053	212.5913	236.9241	294.7294	368.7253	408.8343	434.474	446.1662	563.4639	644.6843	764.6153	812.8149	831.3555	853.2586	875.759	904.7556	925.6362	927.7937	940.3297	1016.1545	1020.7927	1043.7752	1064.906	1077.512	1115.5849	1126.2934	1198.6205	1210.2379	1227.0111	1232.8245	1252.3671	1282.2669	1291.9708	1309.7424	1334.289	1362.7274	1369.5587	1384.5399	1410.0699	1476.7701	1488.7921	1492.6165	1492.9114	1496.5033	1500.2338	1523.1357	3011.0344	3016.7732	3018.9278	3031.4039	3034.4929	3046.5974	3050.4067	3055.4727	3072.2107	3078.7986	3080.7127	3085.8861	3089.6029	3097.9218
CC12CC(C1)CCC2	C[C@@]12C[C@@H](C1)CCC2	
InChI=1S/C8H14/c1-8-4-2-3-7(5-8)6-8/h7H,2-6H2,1H3	InChI=1S/C8H14/c1-8-4-2-3-7(5-8)6-8/h7H,2-6H2,1H3/t7-,8+
