16
gdb 7082	2.88484	1.20439	0.90011	3.517	63.33	-0.2598	-0.0353	0.2245	1232.0311	0.126875	-420.910174	-420.901015	-420.900071	-420.945689	30.45	
C	-0.0829908391	 1.6016758361	 0.0359610229	-0.391624
C	-0.0132895223	 0.0799417065	-0.0242289299	 0.093176
C	 0.7291927846	-0.5242927587	 1.1737001747	-0.277657
C	 0.8810098201	-2.0307078579	 1.0874297589	 0.144489
O	 1.9376372781	-2.6037070317	 1.1589419219	-0.232256
O	-1.351387022	-0.4646042818	-0.007029697	-0.193839
C	-1.9419950338	-0.737426567	-1.1879102384	 0.171018
O	-3.0662826159	-1.12824149	-1.2711493893	-0.268586
H	 0.9232093976	 2.0308469895	 0.0366769478	 0.131748
H	-0.6245554193	 1.9981452644	-0.8278795677	 0.130356
H	-0.6017172531	 1.9232820008	 0.9437385381	 0.140454
H	 0.4786845985	-0.2326799922	-0.9557737235	 0.103405
H	 1.7243895552	-0.0813087905	 1.2631100898	 0.128754
H	 0.1574644067	-0.2868662596	 2.0810246691	 0.137575
H	-0.0701695124	-2.5885402943	 0.9529882671	 0.101086
H	-1.2711574329	-0.5709547437	-2.0536643246	 0.0819
35.5709	64.0122	87.8894	149.3362	207.8452	226.1506	254.7	344.9984	423.7164	466.4515	530.2712	617.6436	808.6155	895.4752	947.2755	975.4144	1014.9065	1046.4852	1114.0102	1129.7504	1154.9405	1182.881	1256.2659	1296.4925	1370.4349	1375.6626	1411.9457	1426.239	1439.3722	1452.0319	1487.7794	1494.5645	1832.5541	1868.619	2911.1153	2945.1922	3012.6133	3032.8656	3043.5139	3111.7601	3119.1043	3125.4362
CC(CC=O)OC=O	C[C@@H](CC=O)OC=O	
InChI=1S/C5H8O3/c1-5(2-3-6)8-4-7/h3-5H,2H2,1H3	InChI=1S/C5H8O3/c1-5(2-3-6)8-4-7/h3-5H,2H2,1H3/t5-/m0/s1
