19
gdb 109156	2.94865	1.21132	0.93311	2.9087	78.94	-0.2442	-0.0498	0.1944	1286.9386	0.158792	-423.069891	-423.060763	-423.059819	-423.10436	33.492	
C	-0.0212335003	 1.5646988314	 0.2643170395	-0.381067
C	-0.0261921758	 0.0829153118	-0.150387724	-0.294057
C	-1.3982453882	-0.5177224244	-0.1344243307	 0.223812
C	-2.1291339422	-1.012678296	-1.1488925919	-0.169544
C	-3.4538727213	-1.6036991825	-0.7283792525	-0.291819
C	-3.5838701489	-1.161070767	 0.7385599542	 0.061617
O	-4.0808839205	-2.1500103031	 1.6033887406	-0.440057
C	-2.1587095374	-0.7376323666	 1.1167376901	 0.294179
O	-1.7638395095	-0.6722861477	 2.2626423739	-0.358943
H	 0.9979398142	 1.9619298946	 0.2609718902	 0.117287
H	-0.6234703196	 2.1679705046	-0.4223626686	 0.115667
H	-0.4285690487	 1.6835686754	 1.2719073013	 0.142726
H	 0.4167988807	-0.0333210479	-1.14538115	 0.102617
H	 0.6032652524	-0.4794910473	 0.550383723	 0.125339
H	-1.8047889201	-1.0223446775	-2.1854373198	 0.110983
H	-4.2810085268	-1.2713297039	-1.3638253271	 0.11697
H	-3.4314405457	-2.6991383234	-0.7768953027	 0.139317
H	-4.206231535	-0.2490158403	 0.7811424935	 0.093242
H	-3.6378150271	-1.9979877503	 2.4509903511	 0.291732
53.1413	70.8073	155.8286	192.1379	246.0271	272.4373	294.8097	377.428	409.8644	493.3119	524.7782	570.4926	668.5902	721.6215	791.2615	824.4686	867.2672	923.1752	947.728	980.3835	1030.665	1041.7473	1089.5552	1100.9219	1136.6538	1181.5432	1220.7046	1248.549	1277.0596	1304.6331	1349.916	1352.838	1377.0506	1405.472	1415.6692	1474.3827	1476.3523	1497.9945	1509.1016	1679.8418	1797.5887	2940.5453	3030.3111	3040.5469	3041.4257	3071.6605	3079.5099	3111.2903	3124.3916	3178.1039	3730.0653
CCC1=CCC(O)C1=O	CCC1=CC[C@@H](O)C1=O	
InChI=1S/C7H10O2/c1-2-5-3-4-6(8)7(5)9/h3,6,8H,2,4H2,1H3	InChI=1S/C7H10O2/c1-2-5-3-4-6(8)7(5)9/h3,6,8H,2,4H2,1H3/t6-/m1/s1
