16
gdb 52358	9.90897	0.41202	0.39948	1.1188	79.32	-0.2591	-0.0681	0.191	2505.0832	0.120608	-437.847294	-437.837007	-437.836062	-437.885137	33.055	
O	-0.1546168412	-0.0278909133	 0.2594799177	-0.231053
C	-0.0076694486	 1.1152126369	-0.081996971	 0.147503
C	 1.3395750437	 1.8154263498	-0.166199585	-0.218821
N	 1.331508736	 2.8145996775	-1.2237395867	-0.30782
C	 2.5064239323	 3.6862809148	-1.2056641384	-0.28826
C	 2.5042602471	 4.6270711597	-2.3165481162	 0.037145
C	 2.5276093524	 5.3998594149	-3.2441668083	 0.099129
C	 2.520447703	 6.3128207967	-4.3587565278	 0.019097
O	 3.3415673414	 7.1828308376	-4.5348446666	-0.225212
H	-0.8647438315	 1.7694784396	-0.3571633628	 0.093219
H	 1.4761288337	 2.3371661011	 0.79381807	 0.137126
H	 2.1350334247	 1.0553384659	-0.2320665502	 0.117179
H	 1.2664580585	 2.3654262494	-2.1316557818	 0.232933
H	 2.5020617705	 4.2493310742	-0.2619388221	 0.153055
H	 3.465765749	 3.1349434815	-1.2222510203	 0.131931
H	 1.680801869	 6.1552692336	-5.0657476506	 0.10285
37.5076	48.3948	64.565	95.5346	102.7627	164.7943	191.1602	236.5477	351.1621	403.6233	462.1954	550.558	620.4187	737.7873	795.2852	849.898	979.3855	1003.8973	1021.2414	1075.4932	1134.4927	1137.1251	1166.3813	1215.3283	1283.3202	1314.6815	1385.0434	1410.2161	1421.8674	1471.0912	1486.1693	1496.7485	1769.6216	1841.8466	2332.8437	2893.8048	2921.6834	2926.1791	2974.9335	3019.751	3025.1321	3520.2898
O=CCNCC#CC=O	O=CCNCC#CC=O	
InChI=1S/C6H7NO2/c8-5-2-1-3-7-4-6-9/h5-7H,3-4H2	InChI=1S/C6H7NO2/c8-5-2-1-3-7-4-6-9/h5-7H,3-4H2
