15
gdb 17932	3.30655	2.48902	2.02509	3.8759	65.69	-0.2154	-0.0545	0.1608	732.4331	0.117532	-362.525854	-362.519212	-362.518268	-362.556224	25.938	
C	 0.0279501467	 1.6291686738	-0.1269401684	-0.518467
C	 0.0534596311	 0.1340766799	-0.0929145331	 0.210667
C	 0.7496492248	-0.925457639	-0.8813022506	-0.146443
C	 1.7858291101	-1.5401164576	 0.0934411501	-0.173423
N	 1.0197204894	-1.614762206	 1.3917799361	-0.232607
C	 0.0354928848	-0.8653965704	 1.1223754755	 0.228597
O	-1.2389762543	-1.3816042794	 0.8418981952	-0.265721
C	-0.8355289165	-0.9338831189	-0.5353482935	 0.02601
H	 0.9528104998	 2.0482987478	 0.2825529066	 0.136031
H	-0.0749734586	 1.9886229717	-1.1559566657	 0.129298
H	-0.8102642533	 2.0245705404	 0.4557970857	 0.137756
H	 0.9791275144	-0.7928629141	-1.9375717099	 0.09384
H	 2.046451113	-2.5774754598	-0.1363364199	 0.135211
H	 2.7141747881	-0.949640673	 0.1193763465	 0.110835
H	-1.6227121397	-0.9960487454	-1.2779449245	 0.128417
185.4115	197.9976	232.4626	270.8993	435.9542	509.5025	557.6297	611.5254	666.9797	707.1355	760.2547	866.917	879.3534	911.6512	929.5464	957.1442	974.3389	1002.6012	1028.9431	1051.8148	1144.7994	1170.9001	1182.5177	1200.2551	1258.1703	1293.5598	1411.7568	1469.3197	1485.0207	1489.0147	1495.6793	1619.6396	2989.5562	3033.181	3081.3349	3101.6808	3103.1636	3132.8126	3190.2525
CC12C3CN=C1OC23	C[C@@]12[C@H]3C[N][C]1O[C@@H]23	
InChI=1S/C6H7NO/c1-6-3-2-7-5(6)8-4(3)6/h3-4H,2H2,1H3	InChI=1S/C6H7NO/c1-6-3-2-7-5(6)8-4(3)6/h3-4H,2H2,1H3/t3-,4+,6-/m0/s1
