16
gdb 10133	3.38924	1.27594	0.94328	3.3319	70.47	-0.2765	-0.0462	0.2303	1219.2417	0.128567	-379.935544	-379.926391	-379.925447	-379.969829	31.032	
C	 0.0598466584	 1.5005203175	-0.0913267223	-0.39288
C	 0.0384716543	-0.0108710188	 0.0235257159	-0.042843
O	 0.6447880479	-0.5407141615	-1.1724632271	-0.25024
C	 0.7192409359	-1.8767952824	-1.2590112904	 0.343958
N	 0.2970540941	-2.6695421376	-0.3707808142	-0.303249
C	 0.4084213892	-4.1052113845	-0.526575792	-0.34281
C	 1.3507479065	-2.269221317	-2.5119221532	 0.253032
N	 1.8444844696	-2.641382612	-3.4884222724	-0.331344
H	 1.0846505374	 1.8714423169	-0.1781546852	 0.135208
H	-0.5036947424	 1.8339593123	-0.966875392	 0.135208
H	-0.393543922	 1.9425123372	 0.8007155102	 0.126348
H	 0.6006068711	-0.3695361915	 0.8919866377	 0.125412
H	-0.9788838292	-0.4067931619	 0.1077539573	 0.125411
H	 0.9826641025	-4.5086325355	 0.3144295204	 0.140754
H	-0.5926871935	-4.5458843875	-0.4683495991	 0.140755
H	 0.8814167503	-4.4271279738	-1.4631904736	 0.137279
68.4668	115.5924	131.9955	135.9447	180.7116	247.4971	259.1462	347.6429	356.8012	368.8461	522.0917	645.9722	724.9252	794.5053	811.3757	911.1893	1049.4805	1085.1651	1134.5049	1149.9547	1163.6938	1181.3967	1288.2475	1295.6967	1396.3539	1422.2342	1447.1613	1485.0306	1485.2449	1495.7092	1502.5225	1517.806	1734.6613	2352.0315	3012.1956	3048.2503	3049.3107	3085.0516	3086.9059	3088.8788	3124.1475	3130.1665
CCOC(=NC)C#N	CCOC(=NC)C#N	
InChI=1S/C5H8N2O/c1-3-8-5(4-6)7-2/h3H2,1-2H3	InChI=1S/C5H8N2O/c1-3-8-5(4-6)7-2/h3H2,1-2H3
