14
gdb 35311	5.76189	1.00036	0.93661	1.5235	72.19	-0.2867	-0.0358	0.2509	1180.9857	0.101713	-395.702501	-395.694864	-395.69392	-395.73491	27.994	
N	-0.034734406	-1.1555987455	-0.2752772988	-0.313395
C	-0.0141770765	-0.0091248924	-0.1295256638	 0.29627
C	 0.0209504303	 1.4318466211	 0.0848896036	-0.10471
C	-0.2471271451	 1.9575738934	 1.5278870482	-0.325382
C	 1.1727413616	 2.5290580235	 1.4826888972	 0.210379
C	 2.1643916386	 1.4773683959	 1.1531561075	-0.271705
N	 1.4029208851	 2.0586716722	 0.0378351731	-0.147388
C	 1.5328093539	 3.8370753304	 1.9386237402	 0.210387
N	 1.8011485013	 4.8886621852	 2.3384761376	-0.322228
H	-0.6042640911	 1.923813844	-0.6619471659	 0.153229
H	-1.0221629508	 2.7226751552	 1.5452859188	 0.153154
H	-0.4398811344	 1.2192854751	 2.3076902025	 0.14594
H	 3.2075891457	 1.7728698515	 1.1338326023	 0.161319
H	 1.9762305276	 0.4509181105	 1.4586280776	 0.15413
87.6198	118.3543	188.3539	218.7397	312.6791	416.4872	470.2224	524.8557	563.9458	595.4014	621.1471	728.7359	792.8964	825.3064	872.0358	956.2265	985.8267	1034.5351	1063.9662	1112.2907	1138.1268	1160.6521	1228.8823	1247.6766	1282.4877	1335.8448	1368.7088	1486.2235	1502.9664	2354.3633	2356.2716	3091.5242	3103.0379	3120.1681	3157.7511	3222.5076
N#CC1CC2(CN12)C#N	N#C[C@H]1C[C@]2(CN12)C#N	
InChI=1S/C6H5N3/c7-2-5-1-6(3-8)4-9(5)6/h5H,1,4H2	InChI=1S/C6H5N3/c7-2-5-1-6(3-8)4-9(5)6/h5H,1,4H2/t5-,6-,9?/m1/s1
