15
gdb 129372	2.81226	1.57278	1.01118	6.3214	76.51	-0.1875	-0.0414	0.1461	1091.1017	0.114488	-450.151498	-450.143419	-450.142475	-450.183888	30.846	
N	 0.0584381867	 1.401523933	-0.0583708167	-0.569794
C	-0.0061832796	 0.027877692	-0.0208244797	 0.309206
N	 1.1461880934	-0.6738845204	 0.0203478755	-0.551204
H	 2.0075565354	-0.2509742296	-0.281383755	 0.256113
H	 1.0126646335	-1.6928343262	-0.0423187266	 0.299033
C	-1.195485235	-0.6760149986	-0.0459610473	 0.181719
C	-1.2793305126	-2.1155229008	 0.0226300834	 0.271153
O	-0.3390187527	-2.9328349087	 0.0519212584	-0.463001
C	-2.7269871252	-2.3262977755	 0.067488529	-0.101185
N	-3.3990925896	-1.2061383135	 0.006501622	-0.183307
N	-2.5038947297	-0.1745528269	 0.0306068992	-0.353365
H	 0.9000814154	 1.8086560127	 0.3245234062	 0.260826
H	-0.7737875974	 1.8761978763	 0.2596619545	 0.268444
H	-3.241988538	-3.2750201737	 0.1201769108	 0.12018
H	-2.8155557545	 0.6265711	-0.4996166837	 0.255182
114.0644	155.8862	192.8162	268.2478	308.997	375.5648	393.2286	444.8041	478.3956	563.4933	566.6272	603.7292	656.4473	705.9674	743.3452	755.438	791.7554	865.6532	909.063	1059.754	1105.7684	1116.3153	1122.4301	1274.5271	1285.0523	1336.136	1407.6142	1477.1246	1541.0415	1570.0004	1658.0368	1691.9652	1721.0825	3240.0214	3250.9732	3565.8418	3594.8905	3667.5577	3674.9718
NC(=[NH2+])C1=C([O-])C=NN1	[NH2]=C(N)[C]1C(=O)C=NN1	
InChI=1S/C4H6N4O/c5-4(6)3-2(9)1-7-8-3/h1,9H,(H3,5,6)(H,7,8)	InChI=1S/C4H6N4O/c5-4(6)3-2(9)1-7-8-3/h1,8H,5-6H2
