19
gdb 93932	3.37314	1.16153	0.99789	1.8277	72.02	-0.2311	-0.0184	0.2127	1256.5186	0.157208	-460.184765	-460.175287	-460.174342	-460.219839	33.595	
C	-0.009137231	 1.4966411112	 0.0860613066	-0.416061
C	 0.1324052276	-0.0119884412	 0.072792433	 0.106066
C	 0.6033246544	-0.6256739847	-1.2528549421	-0.091274
O	 1.3619070795	-1.7708658255	-0.8645449951	-0.285974
C	 1.6149493667	-1.6575173167	 0.5409670226	 0.107517
O	 1.1956601739	-0.4006097536	 0.9548451938	-0.246609
C	 0.8352817567	-2.8202025839	 1.2075505778	 0.366002
C	 1.4009063081	-4.1989376865	 0.9481809391	-0.486396
O	-0.16508928	-2.6149385593	 1.8501214174	-0.294289
H	 0.9297045277	 1.9739662608	-0.2100555407	 0.126336
H	-0.7969004648	 1.8096518651	-0.6063899657	 0.122021
H	-0.2766905365	 1.8463639613	 1.0863472657	 0.137735
H	-0.7969268509	-0.4928786016	 0.401830746	 0.102967
H	-0.2215770001	-0.9435412768	-1.8970636643	 0.114884
H	 1.2444544435	 0.0741480341	-1.8065076223	 0.100683
H	 2.6935424795	-1.7483506612	 0.7321305304	 0.093497
H	 2.3886425774	-4.2906760366	 1.4158339938	 0.141065
H	 0.7342718143	-4.9612778657	 1.3524910786	 0.142982
H	 1.5408245738	-4.3445519692	-0.1276615544	 0.158847
51.8353	82.0847	111.7473	135.316	213.653	223.6168	285.6243	291.7272	370.7973	474.4416	575.1267	592.9501	631.5283	777.5658	818.6857	863.5802	908.9743	938.0816	955.785	962.9812	1047.881	1051.9936	1103.933	1150.252	1154.8068	1169.2868	1220.9447	1231.0055	1307.778	1345.3527	1357.9471	1373.9144	1393.5585	1409.1008	1421.9889	1464.2155	1473.7665	1485.0376	1499.4968	1520.7596	1829.4997	3006.0188	3011.331	3037.8333	3038.1927	3044.2734	3087.4225	3103.2639	3117.2269	3126.534	3155.8112
CC1COC(O1)C(C)=O	C[C@H]1CO[C@@H](O1)C(=O)C	
InChI=1S/C6H10O3/c1-4-3-8-6(9-4)5(2)7/h4,6H,3H2,1-2H3	InChI=1S/C6H10O3/c1-4-3-8-6(9-4)5(2)7/h4,6H,3H2,1-2H3/t4-,6-/m0/s1
