18
gdb 126374	2.75969	1.27672	0.94251	3.5427	74.72	-0.2235	0.0156	0.2391	1262.1302	0.14856	-435.308752	-435.2996	-435.298656	-435.343361	32.655	
C	-0.034133419	 1.5110168834	 0.1009322541	-0.376326
C	-0.0358642351	-0.0203551073	-0.0573845075	-0.298805
C	 0.690289951	-0.4809421068	-1.2811721679	 0.35798
N	 0.1235952786	-0.6856800974	-2.4671189458	-0.40885
C	 1.176598541	-1.0458872256	-3.2422219972	 0.416773
O	 1.0428597221	-1.3511997767	-4.5408124456	-0.411938
N	 2.3519537649	-1.0853100742	-2.6450884959	-0.333859
N	 2.0170685055	-0.7135883176	-1.3696109784	-0.006991
C	 3.0601054237	-0.6197220328	-0.3737165559	-0.323331
H	 0.9823992905	 1.900268499	 0.2157441497	 0.120179
H	-0.4786703368	 1.9864726011	-0.7774805631	 0.140468
H	-0.6112819982	 1.8063931871	 0.9819744953	 0.120582
H	 0.3879672981	-0.4900961072	 0.8368024077	 0.111816
H	-1.0647522533	-0.3790065752	-0.1462188007	 0.137347
H	 0.105375543	-1.2544930638	-4.7463224669	 0.308549
H	 3.7799152603	 0.1557678595	-0.6507520293	 0.151518
H	 2.6190817626	-0.3708882211	 0.5917269622	 0.140882
H	 3.586454991	-1.5746088343	-0.2966794549	 0.154005
51.3735	81.2734	136.8848	175.4722	212.612	292.1747	319.4542	323.2342	411.3169	429.3208	534.9972	625.5386	656.7142	723.1894	777.8034	782.0555	836.9695	974.5803	1037.7072	1070.8961	1082.4298	1093.2798	1153.6736	1196.0152	1230.8367	1285.8349	1321.9588	1351.5098	1409.668	1431.3123	1454.3589	1472.6571	1482.1302	1494.7442	1498.9952	1505.6394	1521.6909	1564.1176	1638.244	3042.0226	3049.1865	3052.7186	3096.0849	3114.8323	3115.4878	3125.6842	3156.1991	3815.3623
CCC1=NC(O)=NN1C	CCc1nc(O)nn1C	
InChI=1S/C5H9N3O/c1-3-4-6-5(9)7-8(4)2/h3H2,1-2H3,(H,7,9)	InChI=1S/C5H9N3O/c1-3-4-6-5(9)7-8(4)2/h3H2,1-2H3,(H,7,9)
