18
gdb 124454	3.14348	1.25029	1.11544	2.9186	72.84	-0.3124	-0.0664	0.2459	1155.7928	0.145421	-435.228336	-435.219414	-435.21847	-435.262033	33.042	
C	-0.0010940337	 1.5281838682	-0.0259362913	-0.411653
C	-0.02359084	-0.016566102	-0.0025572618	 0.13548
C	 0.7711609606	-0.5287079231	 1.2193881587	-0.411701
C	-1.472679323	-0.5268021047	 0.0531512727	-0.405912
C	 0.6524054319	-0.5172944773	-1.2494582839	 0.429973
N	 0.1208665758	-1.2694539546	-2.1700747476	-0.169617
O	 1.1057736421	-1.4552169082	-3.0832894115	-0.14618
N	 2.2424753957	-0.7740208994	-2.658999149	 0.043314
N	 1.9717186487	-0.2167756778	-1.5679228701	-0.210673
H	 1.0220749449	 1.9074898093	-0.0916452096	 0.139629
H	-0.5673399122	 1.9182923441	-0.8772086157	 0.124923
H	-0.4542279012	 1.9170904606	 0.891064475	 0.121089
H	 0.3198332144	-0.1450058028	 2.1394641386	 0.121099
H	 0.7619977469	-1.6219686851	 1.266238719	 0.12489
H	 1.8116995567	-0.1956865794	 1.1817931196	 0.139687
H	-2.0513471608	-0.1804670224	-0.8074244946	 0.130342
H	-1.5110960122	-1.6194272821	 0.0636399398	 0.130227
H	-1.9549218846	-0.1571192633	 0.9629591517	 0.115082
48.9369	153.6798	193.1006	218.8136	274.7178	275.0612	323.775	332.7412	339.0059	450.0606	480.2657	594.8995	676.0775	696.6595	796.2874	835.162	937.7072	943.4645	960.9451	967.6321	1044.2394	1050.2187	1061.3328	1077.9874	1200.0488	1228.6956	1245.505	1321.2815	1397.4396	1401.4254	1431.4724	1476.2191	1480.9223	1485.6369	1488.1887	1500.9241	1502.0759	1523.4649	1586.4143	3037.8155	3039.4711	3045.9506	3109.8221	3111.4493	3118.2068	3120.2516	3122.1406	3124.6361
CC(C)(C)C1=NON=N1	CC(C)(C)c1nonn1	
InChI=1S/C5H9N3O/c1-5(2,3)4-6-8-9-7-4/h1-3H3	InChI=1S/C5H9N3O/c1-5(2,3)4-6-8-9-7-4/h1-3H3
