17
gdb 34269	3.72441	1.50071	1.21672	0.5883	86.8	-0.2154	-0.0378	0.1776	1020.0665	0.135392	-347.418432	-347.411176	-347.410232	-347.449651	29.872	
C	 0.0605316688	-1.1248572345	 0.2082835842	-0.389362
C	 0.0018177904	 0.0670838062	 0.049708227	 0.168856
C	-0.1068707514	 1.4878924916	-0.1118017868	 0.194123
C	-1.3764676428	 2.2106439828	 0.4089558746	-0.325805
C	-1.054456298	 3.6266932844	-0.0393777549	-0.114608
C	-0.0525696776	 3.6045166129	-0.9404145325	 0.029541
C	 1.3650612324	 3.7977898545	-0.3772985311	-0.269654
C	 1.3106553506	 2.2281559923	-0.3232049169	-0.098522
C	 0.268441373	 2.167712739	-1.392659959	-0.138545
H	 0.116144196	-2.1764665999	 0.3429683537	 0.186256
H	-2.2706358004	 1.7238960804	-0.0040292823	 0.119505
H	-1.4803928382	 2.1967031619	 1.5000326466	 0.118867
H	-1.1857672164	 4.4542812825	 0.6524210934	 0.098988
H	 2.1465687973	 4.0901764541	-1.0886986622	 0.110227
H	 1.4571594896	 4.3754121071	 0.5462055782	 0.105791
H	 2.1874836029	 1.5912333764	-0.2432008156	 0.103909
H	 0.2983307541	 1.7553027281	-2.3923229365	 0.100435
147.4535	150.8824	277.1267	372.8818	400.3759	476.9835	507.7136	530.4132	586.2623	604.1192	651.0526	672.4173	752.9857	802.1945	832.1208	850.5215	873.018	918.6172	930.5338	993.9798	1001.7873	1017.6092	1060.7069	1066.954	1084.2353	1143.4262	1163.0165	1193.8641	1215.2236	1227.9408	1271.4923	1297.5559	1342.5834	1474.4845	1499.7552	1596.2438	2226.5918	3009.8845	3027.2324	3062.1347	3098.4625	3149.5349	3161.7471	3202.3387	3503.5591
C#CC12CC=C3CC1C23	C#C[C@@]12C[CH][C]3C[C@@H]1[C@@H]23	
InChI=1S/C9H8/c1-2-9-4-3-6-5-7(9)8(6)9/h1,3,7-8H,4-5H2	InChI=1S/C9H8/c1-2-9-4-3-6-5-7(9)8(6)9/h1,3,7-8H,4-5H2/t7-,8+,9-/m1/s1
