23
gdb 115901	3.17989	1.2411	1.07806	1.0233	85.3	-0.2438	0.0825	0.3263	1238.2096	0.208276	-388.282511	-388.274143	-388.273199	-388.3154	33.216	
C	-0.4293790491	 1.6123890057	 0.1575457173	-0.23733
O	-0.2067724119	 0.2660142019	 0.5026890844	-0.25277
C	-1.1643521663	-0.6418278184	-0.0259680419	 0.149637
C	-1.0142471701	-0.8007835116	-1.5602791749	-0.22503
C	-1.4073496085	-2.2074796857	-2.0756642452	-0.219015
C	-1.1695848828	-3.2781956882	-0.9996864998	 0.003435
C	-2.0715440577	-2.9690980284	 0.2264177708	-0.22841
C	-0.9586263312	-1.9866074114	 0.6785937012	-0.026175
C	 0.0412364222	-2.8906018093	-0.0978712277	-0.230115
H	 0.3036996975	 2.212185323	 0.7033453929	 0.123758
H	-0.3009303667	 1.8017854243	-0.9183854354	 0.103788
H	-1.440663271	 1.9435078809	 0.4450855738	 0.099299
H	-2.1741117374	-0.2701677473	 0.2228380159	 0.056287
H	-1.5697449956	-0.0261752142	-2.0972375023	 0.091797
H	 0.045386514	-0.6262014464	-1.7747858052	 0.114026
H	-2.4626943523	-2.2334861693	-2.3740792273	 0.094877
H	-0.8259918626	-2.4309334615	-2.9775031273	 0.094314
H	-1.2039814216	-4.2865813921	-1.4196803778	 0.055941
H	-3.0712487882	-2.5631163179	 0.0354631518	 0.082858
H	-2.1544528973	-3.8224540596	 0.9046846229	 0.093446
H	-0.7997904957	-1.8233927038	 1.746278787	 0.065059
H	 0.3651635663	-3.7342766297	 0.5170315458	 0.093804
H	 0.9185851763	-2.4281730408	-0.5570528389	 0.096521
90.6108	115.3896	203.6501	219.2316	288.324	358.8743	392.2934	410.95	460.0815	538.664	579.0246	772.9599	821.1156	827.2413	831.2115	897.1913	915.5898	942.4561	946.5013	965.0905	986.3897	1033.9096	1061.9762	1098.1611	1100.4327	1108.0979	1128.4115	1143.5534	1167.8196	1182.5494	1213.4791	1232.0216	1240.7158	1251.0094	1275.3042	1288.7132	1325.8056	1331.4313	1351.6746	1359.4225	1378.5597	1401.7767	1477.3899	1478.7835	1489.0318	1494.496	1499.1177	1511.2439	1519.217	2939.6798	2970.1943	3019.6972	3023.0494	3036.3293	3043.6619	3057.6943	3059.0639	3073.5041	3087.2686	3088.8091	3098.931	3106.7656	3111.0291
COC1CCC2CC1C2	CO[C@H]1CC[C@@H]2C[C@H]1C2	
InChI=1S/C8H14O/c1-9-8-3-2-6-4-7(8)5-6/h6-8H,2-5H2,1H3	InChI=1S/C8H14O/c1-9-8-3-2-6-4-7(8)5-6/h6-8H,2-5H2,1H3/t6-,7+,8-/m0/s1
