16
gdb 10662	2.72587	2.08683	1.31119	2.011	72.07	-0.245	-0.0166	0.2285	936.6215	0.12759	-346.584283	-346.575811	-346.574867	-346.617216	31.265	
C	-0.4306689866	 1.4108200898	 0.0643966331	-0.504533
C	 0.1210339833	 0.0057265633	-0.0059528156	 0.336555
O	 0.6327738188	-0.539396029	 0.9480462219	-0.315582
C	 0.0163437713	-0.7216544404	-1.3296879458	 0.063649
C	 1.1646842795	-1.7082529008	-1.6082706149	-0.277096
C	-0.15628736	-2.2465077812	-1.2079328674	-0.277086
C	-0.5923916722	-0.0590831891	-2.4473844298	 0.195849
C	-1.1024136429	 0.4940475521	-3.3866908316	-0.415092
H	 0.0683741739	 2.0507329251	-0.670921378	 0.150565
H	-1.4939055125	 1.4136879786	-0.1977752882	 0.150546
H	-0.2880475797	 1.8077042722	 1.0695714594	 0.138647
H	 1.4757081434	-1.7929333242	-2.6421426512	 0.134228
H	 1.9528089719	-1.703762702	-0.8647698524	 0.146645
H	-0.2659265029	-2.607836043	-0.192366484	 0.146634
H	-0.7831442836	-2.7132914626	-1.9575740693	 0.134233
H	-1.5526142017	 0.9823534213	-4.2151539663	 0.191839
53.9032	150.818	163.4861	207.3991	261.1027	270.1385	369.473	511.9528	516.5397	531.2994	578.2672	618.467	636.3281	659.0211	794.7333	817.2339	872.622	954.3105	975.2839	1000.9315	1053.5643	1070.8644	1104.6404	1163.4639	1210.4792	1293.8104	1301.4813	1385.7182	1446.549	1456.038	1470.0291	1476.9834	1790.9351	2231.6586	3044.2957	3105.3165	3148.9298	3149.4642	3158.9792	3241.6971	3255.4957	3501.7931
CC(=O)C1(CC1)C#C	CC(=O)C1(CC1)C#C	
InChI=1S/C7H8O/c1-3-7(4-5-7)6(2)8/h1H,4-5H2,2H3	InChI=1S/C7H8O/c1-3-7(4-5-7)6(2)8/h1H,4-5H2,2H3
