27
gdb 57519	2.37108	1.01664	1.00488	1.44	92.16	-0.2589	0.0605	0.3194	1466.7704	0.247946	-390.70632	-390.694414	-390.69347	-390.742247	46.026	
C	-0.6721340239	 1.6510749181	-1.5438897082	-0.403289
C	-0.4486165653	 0.2154970378	-1.0259842554	 0.244934
C	-0.3577594693	 0.22356021	 0.510976885	-0.387023
C	-1.6833669227	-0.6193294065	-1.4329373269	-0.393504
C	 0.7745226978	-0.471173381	-1.7003292216	-0.17875
C	 2.2397877375	-0.1370150963	-1.3361468255	 0.312106
C	 3.1568050464	-0.9412903489	-2.2767824139	-0.401393
C	 2.6111700639	 1.3514579444	-1.4175971971	-0.417291
O	 2.4314907554	-0.6078426376	 0.0061047762	-0.452948
H	 0.1138799739	 2.3407816554	-1.2306349348	 0.108879
H	-0.722510578	 1.6739509425	-2.6387597704	 0.101867
H	-1.6206819669	 2.0464906748	-1.1632816102	 0.10528
H	-1.2873644383	 0.6170941668	 0.9387280848	 0.092668
H	-0.2029700752	-0.7860901449	 0.9023566943	 0.113457
H	 0.4712667535	 0.8353438861	 0.8713823336	 0.114262
H	-1.7920472554	-0.6673021425	-2.5226134555	 0.102963
H	-1.6088055043	-1.6459720009	-1.0584249755	 0.108141
H	-2.6005190523	-0.1801435452	-1.0257718623	 0.104539
H	 0.6814259708	-1.549167992	-1.5197514272	 0.097643
H	 0.6704992633	-0.3361580254	-2.7846401356	 0.084581
H	 3.0565333809	-0.6128381331	-3.3164213948	 0.112083
H	 4.2066052708	-0.8108404916	-1.987929009	 0.097038
H	 2.9204715319	-2.0077111868	-2.2237403079	 0.119478
H	 2.1057707643	 1.9282913011	-0.6415207458	 0.129149
H	 3.6918572747	 1.4751685832	-1.2741211991	 0.097267
H	 2.3582858745	 1.7793205354	-2.3924589015	 0.11585
H	 3.3478266319	-0.4350214229	 0.247505974	 0.272011
46.6289	125.6739	192.6098	215.0525	237.6766	246.1651	267.3699	275.3397	281.8261	290.9193	302.4443	320.0485	366.2833	383.1967	407.5359	418.2645	439.2747	482.4964	565.8197	739.7961	777.5567	867.7785	888.743	915.8152	931.5255	938.1651	959.4916	962.3883	985.6852	1013.5463	1048.9799	1056.662	1142.4996	1164.8166	1172.3777	1238.7292	1250.3211	1270.649	1337.6285	1370.034	1390.7725	1394.3778	1398.6458	1405.2567	1417.1265	1434.989	1462.0033	1476.0113	1479.0171	1481.1032	1484.2138	1489.8434	1498.6005	1502.4713	1508.417	1515.2364	1520.1114	3015.5677	3021.6172	3023.4546	3027.3621	3030.2006	3035.6123	3058.6298	3083.2507	3088.2717	3091.2392	3094.1902	3096.1519	3101.5524	3115.1675	3126.3459	3128.069	3139.5092	3803.666
CC(C)(C)CC(C)(C)O	CC(C)(C)CC(C)(C)O	
InChI=1S/C8H18O/c1-7(2,3)6-8(4,5)9/h9H,6H2,1-5H3	InChI=1S/C8H18O/c1-7(2,3)6-8(4,5)9/h9H,6H2,1-5H3
