16
gdb 53913	2.35657	1.39342	1.06325	3.8188	68.96	-0.2675	-0.0077	0.2598	1141.6459	0.124781	-434.078653	-434.069692	-434.068748	-434.113109	32.059	
N	 0.6699026861	-0.0687723039	-0.9688155546	-0.51735
C	-0.0978905959	 0.1423442639	 0.1299236395	 0.392328
O	 0.0696046114	 1.0398060793	 0.9232237684	-0.344283
C	-1.2718891451	-0.8739424844	 0.3100800925	-0.24571
C	-2.4778270536	-0.3205892253	-0.306065582	 0.275129
N	-3.4240082338	 0.0803314298	-0.8358830705	-0.326989
C	-0.9505482054	-2.2626100949	-0.2325937656	-0.018876
C	-1.9766306505	-3.2230280199	-0.6912326036	-0.256934
N	-1.0864600978	-2.5636985076	-1.6707935799	-0.330391
H	 1.4466035327	 0.5532829772	-1.1246685857	 0.272311
H	 0.5531660466	-0.8697291726	-1.5682762957	 0.289017
H	-1.4307442889	-0.9212301177	 1.3925355886	 0.161834
H	-0.0391624844	-2.66666607	 0.202227441	 0.119811
H	-1.8068274015	-4.2866403054	-0.556425088	 0.133166
H	-3.0173496416	-2.9139614827	-0.6705366053	 0.146354
H	-1.6195516583	-1.8227718059	-2.1260349889	 0.250582
42.3792	105.1444	137.7974	166.8733	178.0439	347.8057	364.1488	371.4426	423.2744	446.9126	562.1272	624.9159	646.2317	746.8188	789.1669	854.8219	873.906	941.9801	967.0809	998.3712	1055.1023	1115.6801	1134.4216	1154.0007	1198.4839	1240.8296	1278.2391	1309.3871	1319.3818	1347.1198	1409.1094	1507.1005	1626.3983	1823.3596	2352.8258	3068.8191	3122.3283	3137.12	3212.8128	3467.8654	3584.5983	3718.4909
NC(=O)C(C#N)C1CN1	NC(=O)[C@@H](C#N)[C@H]1CN1	
InChI=1S/C5H7N3O/c6-1-3(5(7)9)4-2-8-4/h3-4,8H,2H2,(H2,7,9)	InChI=1S/C5H7N3O/c6-1-3(5(7)9)4-2-8-4/h3-4,8H,2H2,(H2,7,9)/t3-,4+/m0/s1
