25
gdb 118232	3.77653	0.60805	0.57311	1.3991	89.89	-0.261	0.0806	0.3416	2034.1284	0.227643	-389.477422	-389.466372	-389.465428	-389.514627	40.161	
C	-0.2787767435	 1.6143632375	 0.0041795731	-0.393197
C	 0.0424244259	 0.112162297	 0.0389664861	 0.03078
C	 0.7572745087	-0.3582406319	-1.2399246263	-0.164304
C	-0.0591175807	-0.227122186	-2.5205757739	-0.087026
O	 0.6871183187	-0.8346406304	-3.5672513751	-0.421526
C	 0.8891667659	-0.2619383079	 1.2734500283	-0.209786
C	 0.2144174035	-0.0314012262	 2.6104090541	 0.024411
C	-0.7690955827	-1.0431788574	 3.1469690314	-0.254608
C	 0.5816336472	-0.8808017874	 3.8008898373	-0.277305
H	 0.6406422311	 2.2071192186	-0.0785902276	 0.111178
H	-0.9184644524	 1.8748782796	-0.8440591839	 0.111784
H	-0.8012374837	 1.933623665	 0.9103905289	 0.114916
H	-0.9081740936	-0.4361381195	 0.1169917861	 0.070891
H	 1.6991059671	 0.1920528026	-1.366398823	 0.098609
H	 1.0298916851	-1.4157031296	-1.1366712495	 0.100659
H	-1.0355794706	-0.7235414942	-2.3894126312	 0.081164
H	-0.259577972	 0.8306793816	-2.7479015934	 0.085644
H	 0.2004695645	-0.7186675842	-4.3883466502	 0.283667
H	 1.1609958992	-1.3235050873	 1.200846813	 0.08696
H	 1.8364260124	 0.2956704578	 1.238740862	 0.091862
H	-0.0114381159	 1.0063014568	 2.839136418	 0.082231
H	-1.6461437682	-0.6895628144	 3.6778938841	 0.10773
H	-0.9400890317	-1.9400581989	 2.5598551894	 0.108006
H	 1.3131253264	-1.6688376069	 3.6531707539	 0.108985
H	 0.6283730793	-0.4120213144	 4.7777590083	 0.108275
43.4474	69.1635	88.7537	118.2967	124.5816	214.7131	243.2398	268.8693	297.8412	327.6617	373.3529	385.8233	452.9633	539.8708	774.8956	791.0074	807.8317	825.0108	851.9322	891.6688	934.441	939.2295	970.4224	1003.8273	1024.1866	1052.7334	1064.692	1076.6744	1080.2464	1123.3158	1143.5881	1174.1469	1195.5882	1199.0977	1225.7393	1233.5917	1243.9814	1282.4583	1299.5175	1319.4676	1347.8082	1375.358	1379.4261	1411.7195	1421.2094	1461.0452	1468.5156	1476.9035	1491.6128	1499.1494	1505.2771	1511.1463	1529.7482	2957.6757	2992.1054	2996.7149	3001.7702	3021.7204	3030.4474	3039.683	3065.8884	3097.05	3109.2371	3125.9837	3131.0011	3145.5874	3203.5676	3219.1617	3829.4677
CC(CCO)CC1CC1	C[C@@H](CCO)CC1CC1	
InChI=1S/C8H16O/c1-7(4-5-9)6-8-2-3-8/h7-9H,2-6H2,1H3	InChI=1S/C8H16O/c1-7(4-5-9)6-8-2-3-8/h7-9H,2-6H2,1H3/t7-/m0/s1
