13
gdb 24181	4.19666	1.80725	1.26325	3.996	73.61	-0.2395	-0.065	0.1745	890.4948	0.094231	-411.85753	-411.851869	-411.850925	-411.88751	22.474	
C	 0.0009012397	 1.3057238026	 0.0095205282	-0.068781
C	 1.2788195169	 1.8147593502	-0.0001238955	-0.141534
N	 2.0966892993	 0.7085314883	-0.0140680546	-0.060029
C	 3.440293419	 0.5149530761	-0.0281672717	 0.098065
N	 3.9610401735	-0.675439195	-0.0396785414	-0.266044
C	 3.0829136874	-1.7247885269	-0.0368374417	 0.045866
N	 1.7747905353	-1.6613579452	-0.0237889934	-0.299471
C	 1.2399464189	-0.4295785398	-0.011915466	 0.476393
N	-0.0238508289	-0.0614658047	 0.0023457941	-0.343612
H	-0.9168606318	 1.8756062898	 0.0215208484	 0.129969
H	 1.6678484341	 2.8190734621	 0.0015449473	 0.145571
H	 4.0717994166	 1.3995760904	-0.029505134	 0.149908
H	 3.5357169199	-2.7115459481	-0.0465862932	 0.133699
208.7106	237.765	428.9391	458.3864	595.1911	609.3492	638.3923	662.5096	708.2951	786.1084	810.5384	887.0145	909.6195	933.1741	935.0527	986.7283	1095.0819	1109.4214	1174.6284	1233.4303	1258.6128	1338.1012	1377.2835	1422.1503	1450.7036	1493.2696	1505.8855	1571.676	1651.9519	3171.9713	3186.6818	3245.2235	3280.6775
C1=CN2C=NC=NC2=N1	c1cn2cncnc2n1	
InChI=1S/C5H4N4/c1-2-9-4-6-3-8-5(9)7-1/h1-4H	InChI=1S/C5H4N4/c1-2-9-4-6-3-8-5(9)7-1/h1-4H
