20
gdb 89168	2.72787	1.21769	0.97424	3.8617	82.41	-0.2346	0.0072	0.2417	1283.7517	0.169381	-403.136173	-403.126994	-403.126049	-403.169955	34.286	
C	-0.0872609833	 1.5475734319	 0.0858672114	-0.410181
C	-0.0355645247	 0.0320228815	-0.054147764	 0.015029
C	 1.1259373377	-0.4986171788	-0.9736253162	-0.300832
C	 1.7571046184	-1.1878452893	 0.2498234623	 0.324782
C	 3.2156109013	-1.3896420135	 0.5233398121	-0.506302
C	 0.6267748898	-0.6955257485	 1.129596836	-0.09289
N	 0.7314592335	-2.0975143794	 0.7684552262	-0.106614
C	 0.935002502	-3.1114917355	 1.6801572492	 0.127048
O	 0.4097967843	-3.1901209226	 2.7670396687	-0.303404
H	 0.8899850304	 1.954859155	 0.370140943	 0.113801
H	-0.3824450725	 2.0163380328	-0.8585262607	 0.121154
H	-0.8097246914	 1.8496227917	 0.8516317246	 0.122111
H	-1.0233896741	-0.3668554193	-0.3017737459	 0.087037
H	 0.848987837	-1.16141446	-1.7966023108	 0.107187
H	 1.7450904557	 0.3176290519	-1.3561126056	 0.105073
H	 3.7680920788	-0.4628221777	 0.3400240614	 0.131357
H	 3.3875123602	-1.6915819306	 1.5613194908	 0.139109
H	 3.6402650139	-2.1621353054	-0.1284295756	 0.133389
H	 0.6301176417	-0.4191257656	 2.1779545103	 0.114525
H	 1.5805232114	-3.9095837388	 1.264721423	 0.078623
99.9885	117.1594	144.8397	213.1225	238.8736	255.3011	310.3146	312.2037	351.4508	431.5207	476.4144	599.8974	646.0597	749.0053	822.5603	852.9191	892.4418	919.3622	941.8458	958.4206	1023.4087	1033.0385	1035.2352	1078.6358	1111.346	1142.7439	1191.8723	1194.1274	1227.7654	1251.2932	1275.4983	1334.8445	1358.128	1408.0799	1413.306	1419.8572	1445.7903	1477.446	1481.7244	1496.1487	1499.4045	1499.7838	1784.6012	2944.0437	3026.5585	3029.6868	3059.7142	3064.7878	3091.4654	3094.9255	3101.3977	3110.2208	3118.8375	3190.3951
CC1CC2(C)C1N2C=O	C[C@H]1C[C@@]2(C)[C@@H]1N2C=O	
InChI=1S/C7H11NO/c1-5-3-7(2)6(5)8(7)4-9/h4-6H,3H2,1-2H3	InChI=1S/C7H11NO/c1-5-3-7(2)6(5)8(7)4-9/h4-6H,3H2,1-2H3/t5-,6+,7-,8?/m0/s1
