17
gdb 66029	2.80627	1.24204	1.12198	4.4536	79.39	-0.249	0.0052	0.2542	1146.6461	0.134805	-380.828505	-380.819438	-380.818494	-380.862237	33.581	
C	-0.3827887155	 1.6197032149	 0.0930097266	-0.435544
C	-0.0198195678	 0.1381907522	 0.0847519714	 0.104413
N	 1.249592696	-0.167913275	-0.6403640518	-0.324936
C	 1.7048364502	-1.091805442	 0.4185352741	-0.168092
C	 0.6492046661	-0.4822734433	 1.3879699599	-0.213464
C	 1.1698272323	 0.4833848475	 2.3382775654	 0.29539
N	 1.5809839952	 1.2481746848	 3.101967458	-0.333806
C	-1.1469860635	-0.6878381171	-0.3460881974	 0.316886
C	-2.0569375356	-1.3754476511	-0.7284877103	-0.467946
H	 0.4708366384	 2.2114055358	 0.4285791048	 0.147682
H	-0.6540725077	 1.9350770335	-0.9185452563	 0.129216
H	-1.2355419363	 1.8083442928	 0.7515924512	 0.132353
H	 1.1176835638	-0.5853709536	-1.5554664393	 0.228377
H	 1.4994948013	-2.1527287455	 0.2323826126	 0.114631
H	 2.7529891483	-0.9682831484	 0.7010784334	 0.130022
H	 0.0201815101	-1.2029708796	 1.909974109	 0.138493
H	-2.8663981654	-1.975540876	-1.0653058111	 0.206323
69.2572	127.3524	161.5554	185.4265	227.6281	241.5317	324.2159	382.53	479.	481.1979	550.191	576.7779	640.1496	646.693	651.1516	726.3287	823.4794	866.8769	923.3221	966.4966	1005.333	1053.5402	1086.295	1127.4949	1164.2427	1167.3139	1192.0231	1215.7788	1323.9044	1336.3072	1383.1695	1410.7882	1480.4466	1488.2712	1517.1236	2224.5325	2354.3463	3028.558	3048.2471	3097.8602	3119.8874	3121.319	3143.2025	3498.0038	3533.5604
CC1(NCC1C#N)C#C	C[C@]1(NC[C@H]1C#N)C#C	
InChI=1S/C7H8N2/c1-3-7(2)6(4-8)5-9-7/h1,6,9H,5H2,2H3	InChI=1S/C7H8N2/c1-3-7(2)6(4-8)5-9-7/h1,6,9H,5H2,2H3/t6-,7+/m1/s1
