17
gdb 77487	1.9757	1.96149	1.21585	1.403	69.8	-0.2445	-0.0197	0.2248	1059.7218	0.132546	-458.920679	-458.911609	-458.910665	-458.954033	33.571	
C	 0.0655831978	 1.4654889511	-0.0287045626	-0.525162
C	-0.0578440159	-0.0131511947	 0.10647508	 0.205992
O	 0.5570560098	-0.8934601398	-0.9563073356	-0.398419
C	 0.0053848276	-1.9081916555	 0.0176201509	 0.205993
C	 0.2265083712	-3.3562236567	-0.2547639006	-0.525165
C	 0.5751135241	-0.9916413456	 1.1505414854	 0.121624
O	 1.958251412	-0.9516344775	 1.2813476993	-0.45106
C	-1.2413957501	-0.9979566719	-0.0074665575	 0.424621
O	-2.4191162445	-1.0296890307	-0.1686664995	-0.317539
H	 1.1068374712	 1.7794234189	 0.0939232257	 0.139193
H	-0.2926573198	 1.7961781856	-1.0073763007	 0.14863
H	-0.5348996612	 1.9570514956	 0.7428476605	 0.144034
H	 1.2866987698	-3.6102881052	-0.1585806395	 0.139193
H	-0.3376700639	-3.956605583	 0.4654793918	 0.144034
H	-0.1118126569	-3.6170715897	-1.2612363869	 0.14863
H	 0.1261909945	-1.0532341577	 2.1447429372	 0.103764
H	 2.3018668242	-0.8977778131	 0.3773628821	 0.291636
137.1618	161.1175	169.5711	182.1636	188.968	230.2032	252.0421	325.7888	390.4825	558.5492	572.0651	603.71	621.8801	658.5799	717.8943	747.1009	809.0233	834.6185	870.4484	930.9642	1038.0748	1097.4051	1113.1653	1135.8941	1157.5271	1183.5195	1283.7111	1297.4148	1373.9968	1407.2957	1420.9594	1468.9533	1473.9437	1477.4099	1483.6733	1485.666	1926.7355	3042.125	3042.4292	3095.7854	3114.0761	3114.128	3123.2251	3123.3541	3738.1855
CC12OC(C)(C1O)C2=O	C[C@@]12O[C@@](C)([C@H]1O)C2=O	
InChI=1S/C6H8O3/c1-5-3(7)6(2,9-5)4(5)8/h3,7H,1-2H3	InChI=1S/C6H8O3/c1-5-3(7)6(2,9-5)4(5)8/h3,7H,1-2H3/t3-,5+,6-
