19
gdb 14779	15.31354	0.55896	0.54667	4.3399	72.51	-0.2586	0.0219	0.2805	1983.0659	0.163279	-402.181014	-402.170958	-402.170013	-402.21813	32.681	
C	 0.0226622384	 1.3405182266	 0.0088796919	-0.229791
O	-0.0034993354	-0.0663827076	 0.0016595225	-0.22826
C	-1.3105173985	-0.5914574336	 0.0111644817	-0.05204
C	-1.212239416	-2.1116846353	 0.0021990035	-0.211226
C	-2.579802391	-2.7759325521	 0.0117620135	-0.075127
O	-2.3762609626	-4.1904859372	 0.0026293634	-0.181605
C	-3.4870049834	-4.9499591639	 0.0095286191	 0.129984
N	-3.3935137219	-6.2087626283	 0.0023967054	-0.437564
H	 1.0709535849	 1.6481024356	 0.0007046409	 0.130288
H	-0.4790738729	 1.7641286811	-0.8759381802	 0.103757
H	-0.4623818267	 1.7546621489	 0.9073815386	 0.103756
H	-1.8589476323	-0.2427671932	 0.9047519468	 0.084802
H	-1.8755938595	-0.2334151987	-0.8682415139	 0.084805
H	-0.6588442509	-2.4337905127	-0.8854933641	 0.126801
H	-0.6420126481	-2.4431094907	 0.8756904426	 0.12681
H	-3.1486853253	-2.4869530455	 0.9070026782	 0.107613
H	-3.1654824154	-2.4779202882	-0.8695783816	 0.107618
H	-4.4193604752	-4.3668565464	 0.0216382951	 0.081265
H	-4.3227686281	-6.6242328888	 0.0094708764	 0.228113
22.6119	57.122	90.7336	99.6669	110.7322	151.6726	232.063	238.7657	301.549	398.9221	520.9723	637.2574	778.0467	821.8521	889.9849	977.1157	1006.6515	1045.0848	1065.7922	1099.0616	1140.5685	1167.3257	1169.988	1191.9428	1228.1509	1237.6767	1289.7983	1305.2449	1309.2042	1312.3551	1412.5913	1429.8337	1440.4348	1483.0811	1486.1755	1497.8363	1504.9208	1520.7232	1535.8529	1750.6998	2936.2052	2959.7535	2968.8034	2989.6109	3011.1198	3014.9664	3030.9074	3059.0367	3106.9696	3116.7281	3517.0926
COCCCOC=N	COCCCO[CH][NH]	
InChI=1S/C5H11NO2/c1-7-3-2-4-8-5-6/h5-6H,2-4H2,1H3	InChI=1S/C5H11NO2/c1-7-3-2-4-8-5-6/h5-6H,2-4H2,1H3
