21
gdb 52653	3.36414	0.81607	0.68086	0.8651	94.59	-0.2429	0.0457	0.2887	1690.0225	0.178405	-349.908637	-349.897216	-349.896272	-349.946232	40.301	
C	-0.0343009151	 1.4944219801	 0.03526879	-0.499466
C	 0.0002563578	 0.0384038951	 0.0140519972	 0.067242
C	 0.032997774	-1.1660463297	 0.0079947547	 0.065803
C	 0.0313396405	-2.6290812658	-0.010908872	-0.150182
C	-1.4083788134	-3.1677216023	 0.0970842738	-0.396899
C	 0.7669119612	-3.1724849163	-1.2814776623	-0.143873
C	 2.208053696	-2.6384452537	-1.3918789894	-0.396907
C	 0.766906503	-4.634575193	-1.3008269516	 0.329696
C	 0.7998300867	-5.8368628637	-1.3052624164	-0.475378
H	 0.7434052386	 1.9028225377	 0.6901990352	 0.147453
H	 0.12404501	 1.9115588586	-0.9654499821	 0.147017
H	-0.9998319263	 1.8646394229	 0.3975058879	 0.147855
H	 0.5978077762	-2.9906665551	 0.8586310484	 0.107116
H	-1.8867169876	-2.794995401	 1.0062671484	 0.120885
H	-2.0068946455	-2.8375977687	-0.7579268217	 0.120427
H	-1.4067267702	-4.2598938542	 0.1202049762	 0.131068
H	 0.1999873664	-2.8163803334	-2.1525814649	 0.10969
H	 2.2044098327	-1.5464842749	-1.4127222862	 0.130132
H	 2.8064856634	-2.9691221171	-0.5372003333	 0.122805
H	 2.6855815181	-3.0103233399	-2.3018183769	 0.122342
H	 0.8203894336	-6.8983681457	-1.3215954349	 0.193173
29.8788	49.5815	83.8751	148.3878	162.3968	214.6346	229.8926	253.3981	260.1226	304.3635	322.3445	391.5375	464.6528	502.0497	543.8882	563.0347	623.2331	638.9216	750.7464	809.6076	896.7811	976.4989	1007.0338	1051.6238	1053.4491	1061.1222	1094.7362	1109.1907	1149.8857	1198.742	1267.034	1324.7084	1330.1562	1357.3265	1404.8135	1405.7243	1415.151	1478.8858	1479.4254	1494.6262	1494.9037	1497.2033	1498.7381	2230.183	2365.7882	3003.4508	3019.8905	3026.1719	3045.1182	3046.4591	3086.4648	3086.5524	3116.8108	3118.2672	3132.3428	3134.6122	3504.2336
CC#CC(C)C(C)C#C	CC#C[C@@H](C)[C@@H](C)C#C	
InChI=1S/C9H12/c1-5-7-9(4)8(3)6-2/h2,8-9H,1,3-4H3	InChI=1S/C9H12/c1-5-7-9(4)8(3)6-2/h2,8-9H,1,3-4H3/t8-,9+/m0/s1
