16
gdb 62284	3.33936	1.56593	1.34631	4.4193	71.9	-0.2411	0.0273	0.2684	955.7507	0.126314	-396.85837	-396.851162	-396.850218	-396.889705	28.922	
N	-0.0635426382	 1.4581167566	-0.0318872275	-0.578451
C	-0.0337586978	 0.0158020546	-0.0576986023	 0.206317
C	 0.8173519388	-0.5013032233	 1.0158100737	 0.260351
N	 1.5131919092	-0.9069932587	 1.844557349	-0.340395
C	-1.380054473	-0.7205697106	-0.1014699475	-0.086384
C	-1.7564367378	-0.8150958153	-1.5801797123	-0.060274
N	-0.7083524926	-0.0725509883	-2.3245251924	-0.342202
C	 0.2577316275	-0.7670991721	-1.4088170093	-0.099779
C	-0.8262429074	-1.8294697894	-0.9860009367	-0.097127
H	 0.8708334774	 1.8410508717	 0.0754264789	 0.235415
H	-0.4303839196	 1.7663294817	-0.9301674873	 0.249762
H	-2.1124621462	-0.7884223081	 0.691488084	 0.111202
H	-2.784137464	-0.8889045939	-1.9102667307	 0.110226
H	-0.6206652728	-0.5030653283	-3.2438558315	 0.226707
H	 1.2733609832	-0.9299143373	-1.7610581651	 0.093447
H	-0.8364370366	-2.9035841094	-0.8719222829	 0.111186
146.6967	153.6704	262.7841	298.0122	350.1162	489.2095	508.7372	540.5169	568.4821	666.138	763.3295	783.2416	790.3574	815.8171	850.3773	872.9316	923.0405	951.9704	956.6337	1009.0837	1015.7262	1046.8653	1055.7163	1076.5077	1094.3367	1160.0803	1178.0047	1189.824	1228.6824	1280.4378	1338.6203	1360.0687	1386.2182	1653.3518	2358.9919	3154.3338	3206.5806	3213.1219	3228.7331	3472.8622	3476.1455	3569.0357
NC1(C#N)C2C3NC1C23	N[C@@]1(C#N)[C@H]2[C@H]3N[C@@H]1[C@@H]23	
InChI=1S/C6H7N3/c7-1-6(8)3-2-4(3)9-5(2)6/h2-5,9H,8H2	InChI=1S/C6H7N3/c7-1-6(8)3-2-4(3)9-5(2)6/h2-5,9H,8H2/t2-,3+,4-,5+,6-/m0/s1
