20
gdb 111296	3.26293	1.22651	1.07099	2.5558	75.91	-0.2262	0.0701	0.2963	1211.1138	0.169852	-440.230401	-440.221117	-440.220173	-440.264117	34.799	
C	 0.1696430972	 1.350839657	-0.0764204465	-0.243012
O	-0.2458698133	 0.0242389333	 0.1911767716	-0.241395
C	 0.5085832723	-0.5936556361	 1.1890792019	 0.131666
C	 0.118315176	-2.028227665	 1.4981122092	-0.171351
N	 0.4286026836	-2.8285240232	 0.2815798018	-0.386624
C	 1.5082082552	-2.5249995244	 1.2503176167	 0.33125
C	 2.3217331187	-3.5892994195	 1.9168115595	-0.520506
C	 1.9643091336	-1.118800533	 0.8063581306	 0.042685
O	 2.3455677096	-0.983538774	-0.5311616854	-0.438216
H	 1.2018797472	 1.3816184944	-0.4450446731	 0.13012
H	-0.4988515824	 1.7465956994	-0.8447938952	 0.124177
H	 0.0903670687	 1.9849124252	 0.8211968006	 0.097507
H	 0.5449602249	 0.0197516361	 2.1034488105	 0.058857
H	-0.6232183735	-2.3757169348	 2.2074711153	 0.094919
H	 0.1126000056	-3.7813698742	 0.4566132837	 0.22961
H	 1.6885762551	-4.4086713646	 2.2753767901	 0.11752
H	 3.0584256939	-4.010753437	 1.2235016712	 0.137411
H	 2.8670980961	-3.1857204146	 2.7766051776	 0.127671
H	 2.7547605067	-0.6900125341	 1.4266724602	 0.08206
H	 1.6545072246	-1.442455901	-1.0312166405	 0.295651
104.089	125.8613	167.81	199.5987	212.1854	233.0477	260.7877	323.7603	348.1521	496.0338	533.8968	535.0227	630.7331	697.8354	757.2917	807.308	843.8342	914.4054	960.0298	967.3676	1028.4391	1047.7773	1055.4721	1105.902	1121.3118	1132.2144	1164.9419	1178.5472	1197.4484	1233.7922	1242.1174	1277.1067	1313.4574	1346.1823	1394.4332	1405.9972	1435.6307	1466.8579	1479.1825	1482.4926	1485.2464	1498.105	1513.1554	2973.172	2980.2027	3024.5154	3059.017	3089.0627	3090.1001	3094.6845	3118.164	3187.1084	3481.4679	3734.0685
COC1C2NC2(C)C1O	CO[C@H]1[C@H]2N[C@@]2(C)[C@H]1O	
InChI=1S/C6H11NO2/c1-6-4(7-6)3(9-2)5(6)8/h3-5,7-8H,1-2H3	InChI=1S/C6H11NO2/c1-6-4(7-6)3(9-2)5(6)8/h3-5,7-8H,1-2H3/t3-,4+,5-,6+/m0/s1
