12
gdb 25549	6.31301	0.85583	0.77714	1.7416	58.71	-0.2366	-0.0333	0.2033	1328.9641	0.07673	-509.818605	-509.810938	-509.809993	-509.851705	26.913	
O	 0.3358493895	-0.1346163187	-0.1351223783	-0.230697
C	 0.4717340834	 1.0169305786	-0.3778119836	 0.162746
O	 0.4126453214	 1.9743949813	 0.6175221734	-0.218148
C	 0.6815022486	 3.2553944625	 0.2680926457	 0.36396
C	 1.7409151577	 3.8334237913	-0.3117836045	-0.140445
O	 1.4999536217	 5.1897213046	-0.4255202246	-0.203642
C	 0.2565133892	 5.4750994029	 0.112357582	 0.508166
O	-0.2270851255	 6.5675551112	 0.1734734282	-0.384344
N	-0.2488266489	 4.2557006417	 0.5258144696	-0.433069
H	 0.6590765602	 1.4744007821	-1.364029266	 0.11411
H	 2.6871003533	 3.4590983622	-0.6573077097	 0.16909
H	-1.1311717406	 4.1480866702	 0.9956862777	 0.292273
56.1475	120.3983	159.9358	206.0932	348.5048	381.835	424.4754	479.4732	558.6396	637.401	708.7068	738.2793	766.1644	815.458	918.126	1027.6303	1039.1848	1070.2211	1101.4758	1164.8375	1265.1366	1330.0504	1394.975	1440.1143	1714.9616	1894.1372	1915.3483	3006.2783	3307.2484	3689.3379
O=COC1=COC(=O)N1	O=COc1coc(=O)[nH]1	
InChI=1S/C4H3NO4/c6-2-9-3-1-8-4(7)5-3/h1-2H,(H,5,7)	InChI=1S/C4H3NO4/c6-2-9-3-1-8-4(7)5-3/h1-2H,(H,5,7)
