17
gdb 97002	4.97862	1.10749	0.95672	3.5268	82.97	-0.2196	-0.0286	0.191	1226.4135	0.136308	-417.968741	-417.960622	-417.959677	-418.002328	29.86	
C	-0.0088546936	 1.4193292558	-0.080679534	-0.329426
N	-0.0203897604	-0.027744662	-0.2001135322	-0.32564
C	-1.0863090258	-0.6662294105	 0.0078180425	 0.437615
O	-2.3097912072	-0.064170492	 0.3786311653	-0.27574
C	-3.2184951687	-1.1105860089	 0.6391339237	 0.046297
C	-4.4226145549	-1.6225082912	-0.2471695558	-0.212321
N	-3.7691967819	-2.9889271536	-0.3036243802	-0.374944
C	-2.5684500061	-2.3494858691	 0.1683274519	 0.241177
C	-1.3064124979	-2.1148888306	-0.1998356556	-0.311088
H	 0.4147138514	 1.7072823126	 0.8904257481	 0.124132
H	 0.6498860377	 1.8343281428	-0.8503022819	 0.119869
H	-0.9984752516	 1.8826044498	-0.167944249	 0.1216
H	-3.5206696748	-1.0823228784	 1.6929167246	 0.104651
H	-5.4131808913	-1.5901790017	 0.2127766989	 0.118296
H	-4.4436659518	-1.1850209253	-1.2472743699	 0.140356
H	-4.1869531321	-3.6610189511	 0.3329148734	 0.245474
H	-0.590794321	-2.7316163867	-0.7203198696	 0.129693
39.5403	100.0177	138.1547	213.3799	293.5371	359.3284	393.2598	489.2492	613.4475	665.2999	695.6394	708.072	765.8122	820.0736	842.7662	870.2504	929.7868	972.6337	1016.9295	1037.1684	1090.118	1114.5245	1120.2453	1125.4748	1162.0418	1190.5711	1227.843	1253.7321	1315.5447	1325.4231	1375.3357	1437.4357	1487.6904	1489.7894	1497.7473	1690.5984	1781.0711	3010.3205	3034.2602	3064.718	3066.02	3089.8675	3134.9894	3263.5927	3519.2108
CN=C1OC2CNC2=C1	C[N]C1=C[C]2[C@@H](O1)CN2	
InChI=1S/C6H8N2O/c1-7-6-2-4-5(9-6)3-8-4/h2,5,8H,3H2,1H3	InChI=1S/C6H8N2O/c1-7-6-2-4-5(9-6)3-8-4/h2,5,8H,3H2,1H3/t5-/m0/s1
