14
gdb 15446	3.32921	1.94829	1.32801	3.6369	69.73	-0.2388	-0.0521	0.1867	890.2489	0.106742	-345.402975	-345.39579	-345.394846	-345.434812	26.679	
O	-0.0353276	-0.0043415185	 0.2018121669	-0.3168
C	-0.0732557346	 1.1945755124	 0.1011277461	 0.379946
C	-1.2618571012	 2.0562626383	-0.0703218449	-0.172962
C	-0.9132928829	 3.3471211911	-0.0886778653	-0.047326
C	 0.566154069	 3.5746203275	 0.0784134903	-0.282978
C	 1.1714080557	 2.1455806704	 0.097134154	-0.282485
C	 2.0919290064	 1.8832467591	 1.1876758994	 0.332999
C	 2.8400193146	 1.6791284671	 2.1055880873	-0.459111
H	-2.2602438242	 1.6467950934	-0.1522139504	 0.122921
H	-1.6037111307	 4.1768568834	-0.1986448723	 0.121806
H	 0.9762484571	 4.1916111873	-0.728604766	 0.126987
H	 0.7740324937	 4.108054495	 1.0125925116	 0.140831
H	 1.6793774467	 1.9502414504	-0.8565522946	 0.136842
H	 3.5043574304	 1.4847510332	 2.9106977579	 0.199329
55.9867	138.5786	213.9462	307.4783	390.6549	475.3898	512.475	592.8372	622.4551	639.2158	664.7488	752.6194	771.4089	825.8762	921.2896	959.0295	994.3073	1029.2351	1070.602	1112.7914	1160.5462	1172.0672	1213.1177	1295.1812	1328.6743	1363.8597	1472.982	1653.6491	1828.9806	2240.8664	3024.2068	3044.9108	3077.5662	3190.752	3230.3236	3505.5994
O=C1C=CCC1C#C	O=C1C=CC[C@H]1C#C	
InChI=1S/C7H6O/c1-2-6-4-3-5-7(6)8/h1,3,5-6H,4H2	InChI=1S/C7H6O/c1-2-6-4-3-5-7(6)8/h1,3,5-6H,4H2/t6-/m1/s1
