23
gdb 116238	2.09136	1.33564	0.98781	0.6011	90.42	-0.2553	0.05	0.3053	1336.6694	0.205931	-351.146094	-351.136267	-351.135323	-351.181022	36.992	
C	-0.0993394969	 1.6914822792	-0.1299452274	-0.386202
C	-0.1627053052	 0.1605167301	-0.1016034387	-0.199801
C	 0.684599257	-0.50617493	-1.1866557701	 0.053416
C	 2.2085114368	-0.2557704344	-1.0902409618	-0.20842
C	 2.891955359	-1.4661312642	-1.789416743	-0.206396
C	 1.7435859419	-2.4087330805	-2.2194250636	-0.21492
C	 0.5748109609	-2.057688787	-1.265601087	-0.197206
C	 0.7277910888	-2.7093311652	 0.0329354371	 0.362292
C	 0.8719121712	-3.2548971656	 1.0955834044	-0.506024
H	 0.9184581034	 2.05542169	 0.0441064082	 0.118143
H	-0.4306249384	 2.0861752662	-1.0974400542	 0.110222
H	-0.7417733583	 2.125766655	 0.6423928214	 0.11131
H	 0.1616210086	-0.2072732158	 0.8789546219	 0.108834
H	-1.2066394797	-0.1594011334	-0.2169407722	 0.090235
H	 0.3389356323	-0.1413573127	-2.164608418	 0.067692
H	 2.4891444531	 0.6984816401	-1.5434025485	 0.097036
H	 2.5069942104	-0.206700861	-0.0374625685	 0.105221
H	 3.4996530178	-1.1630139025	-2.6462166279	 0.096207
H	 3.561255506	-1.9778799256	-1.0927600826	 0.110068
H	 1.4273110898	-2.1854360218	-3.2443618816	 0.096066
H	 2.0161177383	-3.4655714448	-2.1802503041	 0.104819
H	-0.3902788059	-2.3546339581	-1.6927138263	 0.093878
H	 0.9877758188	-3.7394256681	 2.0332129423	 0.19353
69.6853	98.7184	105.8216	134.7462	202.9703	213.9357	263.9808	367.621	390.584	449.5103	536.5728	622.58	625.2009	651.2948	676.8222	774.4947	804.1374	822.8612	844.0565	899.4443	926.6032	946.7971	989.8104	1011.8178	1030.7169	1050.9862	1070.1271	1132.6323	1153.81	1189.788	1204.4717	1229.2828	1271.2127	1283.22	1302.7255	1317.7414	1327.8795	1337.5514	1362.6893	1377.6412	1397.1957	1411.168	1485.6955	1488.1833	1492.3137	1499.1018	1507.8414	1512.1518	2226.4483	2997.2291	3020.7103	3029.6742	3033.9897	3044.5329	3047.6562	3062.1293	3062.6232	3083.8179	3096.6018	3100.9718	3103.9951	3112.9875	3503.9187
CCC1CCCC1C#C	CC[C@H]1CCC[C@H]1C#C	
InChI=1S/C9H14/c1-3-8-6-5-7-9(8)4-2/h1,8-9H,4-7H2,2H3	InChI=1S/C9H14/c1-3-8-6-5-7-9(8)4-2/h1,8-9H,4-7H2,2H3/t8-,9+/m1/s1
