16
gdb 29235	3.19189	1.39803	0.97804	2.5652	77.	-0.2188	-0.0282	0.1906	1155.4078	0.126681	-434.148989	-434.140871	-434.139927	-434.181708	30.573	
C	-0.2796461342	 1.5382586184	 0.011083357	-0.476102
C	-0.0225921245	 0.0612751476	-0.0227228771	 0.097128
C	 0.036340593	-0.6734434835	-1.1534825253	-0.033946
N	 0.2730338028	-2.0225017843	-1.1588653882	-0.342058
C	 0.4756084313	-2.7785775228	-0.0133526496	 0.466323
N	 0.6869819143	-4.0323837703	-0.1235567253	-0.574838
N	 0.4127487887	-2.0104731448	 1.1413862529	-0.428079
C	 0.1776063796	-0.6297675769	 1.2516948974	 0.385315
O	 0.1530793032	-0.1033544256	 2.3481069426	-0.372391
H	 0.5482739617	 2.0702727213	 0.491339505	 0.142391
H	-0.4120630473	 1.9398252069	-0.9973232488	 0.112638
H	-1.1756695915	 1.7679357877	 0.5972166179	 0.142369
H	-0.1015636208	-0.2331787053	-2.1349449547	 0.1337
H	 0.3094820097	-2.5441762008	-2.0194024929	 0.274888
H	 0.8197680325	-4.4757258559	 0.7815831153	 0.214158
H	 0.5495929313	-2.4813944519	 2.0243987236	 0.258503
100.2653	130.2484	149.1314	271.8775	285.6429	374.7756	392.0049	458.7559	541.2522	545.6018	596.4293	628.6314	719.6346	733.7137	759.2705	784.4544	808.0594	925.1844	958.4886	1020.6213	1071.9639	1111.4723	1169.4734	1220.578	1257.5065	1376.5146	1405.0477	1419.7813	1448.4321	1469.1994	1490.7706	1502.9737	1705.5826	1750.109	1781.8116	3035.9924	3090.9535	3115.8023	3194.6928	3528.4511	3616.8988	3658.5432
CC1=CNC(=N)NC1=O	CC1=CN[C]([NH])NC1=O	
InChI=1S/C5H7N3O/c1-3-2-7-5(6)8-4(3)9/h2H,1H3,(H3,6,7,8,9)	InChI=1S/C5H7N3O/c1-3-2-7-5(6)8-4(3)9/h2H,1H3,(H3,6,7,8,9)
