23
gdb 79397	2.35033	1.50036	1.41928	0.2827	90.53	-0.2679	0.092	0.3599	1132.4961	0.204486	-351.101761	-351.092584	-351.09164	-351.134729	36.239	
C	-0.1623610649	 1.5922763361	-0.0156132745	-0.428056
C	-0.0344738856	 0.0752615886	 0.0031996648	-0.050375
C	 1.1862415976	-0.5954168016	-0.6608413902	-0.08768
C	 2.1257123424	-0.2979241162	 0.555329839	-0.089665
C	 2.5823376296	-1.7638798405	 0.6537273106	-0.326316
C	 1.0906199751	-1.8605208588	 0.2695515186	 0.321471
C	 0.2631897759	-3.0972811215	 0.0422594601	-0.524412
C	 0.7116999724	-0.6154428292	 1.1738079984	 0.325399
C	 0.345062444	-0.6395186738	 2.6335929453	-0.529259
H	 0.7849217	 2.0827886091	 0.2314706319	 0.11225
H	-0.4722134672	 1.9486732748	-1.0045245371	 0.112307
H	-0.9133599358	 1.9359277413	 0.7049510959	 0.111579
H	-0.9966329556	-0.3911819874	-0.2486605003	 0.053653
H	 1.484802608	-0.5997431219	-1.7118475508	 0.057655
H	 2.7125716644	 0.6074895354	 0.7142318906	 0.064377
H	 3.3039716731	-2.105354905	-0.0970443816	 0.084042
H	 2.8665721988	-2.1339825353	 1.6453527787	 0.08465
H	 0.223958362	-3.7169189676	 0.9456708944	 0.116988
H	-0.7667538871	-2.8478375268	-0.2360178826	 0.118638
H	 0.6854555583	-3.7113887828	-0.7612801974	 0.118184
H	 1.0788187137	-1.2030545084	 3.2210413549	 0.118519
H	 0.2978747423	 0.374228811	 3.0476144315	 0.119467
H	-0.6351460215	-1.1054308295	 2.78885982	 0.116584
174.0484	181.8369	194.8271	198.8459	203.9541	209.4319	276.9102	305.2704	375.8001	476.8998	522.1275	627.3022	640.945	710.0023	739.707	832.2912	846.6151	854.2625	895.4924	915.9313	947.1517	999.4564	1009.7322	1023.8592	1048.4748	1078.6043	1094.3126	1137.0695	1152.5481	1153.711	1165.8295	1173.7394	1197.7109	1220.6932	1248.4896	1283.3924	1309.2207	1338.4063	1399.1051	1405.856	1410.7159	1416.1351	1485.0727	1486.9609	1491.087	1493.898	1495.3728	1500.0939	1512.531	3009.4919	3019.7545	3021.7213	3025.3321	3026.8427	3077.2043	3082.3508	3082.8745	3084.8126	3085.0677	3088.2333	3090.8284	3096.7589	3105.8922
CC1C2C3CC2(C)C13C	C[C@H]1[C@H]2[C@@H]3C[C@@]2(C)[C@]13C	
InChI=1S/C9H14/c1-5-7-6-4-8(7,2)9(5,6)3/h5-7H,4H2,1-3H3	InChI=1S/C9H14/c1-5-7-6-4-8(7,2)9(5,6)3/h5-7H,4H2,1-3H3/t5-,6-,7-,8+,9+/m0/s1
