12
gdb 132399	1.96128	1.75363	0.92582	0.5671	60.1	-0.248	-0.0204	0.2276	1095.5569	0.077473	-521.9499	-521.943189	-521.942245	-521.98121	25.929	
O	 0.0932841187	 1.3248552508	-0.0545507771	-0.412055
C	 0.0688116024	-0.0189341782	-0.0484221765	 0.474698
C	 0.0292118039	-0.6938857174	-1.2691986336	-0.381252
C	 0.0054801571	-2.0758835106	-1.1988409489	 0.378649
F	-0.0325154547	-2.7809626804	-2.3233565604	-0.065486
C	 0.0202404705	-2.7507613324	 0.0169929182	-0.443251
C	 0.0601347904	-1.9396189005	 1.1404287009	 0.366309
F	 0.0763346646	-2.5144713235	 2.3360237397	-0.065955
N	 0.0842596742	-0.622283124	 1.1396124716	-0.419724
H	 0.1190311104	 1.6022600765	 0.8719034139	 0.306052
H	 0.017840221	-0.1662055657	-2.2120535882	 0.130311
H	 0.0019327316	-3.8289060147	 0.0807633405	 0.131704
211.5467	216.142	263.3064	338.7889	344.801	512.202	524.8387	533.6999	599.4131	615.6968	655.1648	685.9714	756.4705	828.4801	853.5757	996.3776	1018.3376	1065.8702	1168.5969	1182.4356	1264.1753	1351.1555	1446.3535	1486.6644	1524.4754	1642.4856	1665.5611	3239.4791	3243.0547	3771.3978
OC1=CC(F)=CC(F)=N1	Oc1cc(F)cc(F)n1	
InChI=1S/C5H3F2NO/c6-3-1-4(7)8-5(9)2-3/h1-2H,(H,8,9)	InChI=1S/C5H3F2NO/c6-3-1-4(7)8-5(9)2-3/h1-2H,(H,8,9)
