16
gdb 112400	2.42066	1.50465	1.15466	0.8199	67.77	-0.2372	-0.0068	0.2304	1079.5832	0.125808	-471.255423	-471.246963	-471.246018	-471.288986	31.216	
O	 0.0505708282	 1.4610729127	 0.132447271	-0.416622
C	 0.021920948	 0.0515148778	 0.03875647	-0.092287
C	-1.4079992586	-0.5142988718	 0.0056784209	-0.11283
N	-2.219550726	-0.2176887879	 1.1712471275	-0.312204
C	-3.2543324265	 0.651074629	 0.8898882479	 0.439592
N	-3.997702746	 1.2010633333	 1.7590749899	-0.56997
N	-3.2832460009	 0.7490685512	-0.5164528363	-0.370244
C	-2.2100415929	 0.145916245	-1.1255586999	 0.410692
O	-1.9276082923	 0.1678351977	-2.300265502	-0.375171
H	-0.1188950156	 1.8176143159	-0.7460475507	 0.300346
H	 0.5517096839	-0.3174669105	-0.8494930846	 0.120394
H	 0.5409650484	-0.3339959572	 0.9233798964	 0.117387
H	-1.3471316198	-1.594951698	-0.1853899621	 0.11659
H	-1.8179721207	-0.1611346863	 2.0933093721	 0.262687
H	-4.7049355212	 1.7942677641	 1.3332050594	 0.213489
H	-3.9548630178	 1.305912195	-1.0201282494	 0.268149
63.7387	98.3715	137.8116	214.56	285.9536	370.3831	386.9882	403.3606	518.6508	552.9107	584.4083	634.2243	670.6052	720.6436	757.9925	767.4388	865.0828	924.8221	981.9258	997.2034	1088.3721	1101.924	1138.3848	1203.6965	1235.9891	1299.5195	1328.6775	1352.5373	1390.4326	1408.3644	1426.2375	1435.1492	1489.7106	1784.4913	1846.6832	3007.388	3024.1803	3076.9775	3526.705	3649.4905	3655.3062	3816.1731
OCC1NC(=N)NC1=O	OC[C@H]1N[C]([NH])NC1=O	
InChI=1S/C4H7N3O2/c5-4-6-2(1-8)3(9)7-4/h2,8H,1H2,(H3,5,6,7,9)	InChI=1S/C4H7N3O2/c5-4-6-2(1-8)3(9)7-4/h2,8H,1H2,(H3,5,6,7,9)/t2-/m1/s1
