15
gdb 128903	6.93143	0.71349	0.68064	1.118	71.9	-0.2693	-0.0179	0.2515	1545.691	0.114537	-413.00373	-412.995653	-412.994709	-413.038141	28.118	
N	 0.005337205	-1.2040285244	 0.0853766055	-0.293047
C	-0.0219049502	-0.0490962745	 0.0708667497	 0.256457
C	-0.0230799663	 1.4115866478	 0.053351929	-0.32927
C	 1.4101468925	 1.9937643442	-0.0731449534	-0.32803
C	 1.4153556093	 3.4871085338	-0.0836343799	 0.330842
C	 1.4013914915	 4.4191306349	-1.0971537412	-0.14745
N	 1.3755356606	 5.6698789569	-0.5581619029	-0.177471
N	 1.371991123	 5.5740285006	 0.7387367365	-0.108737
N	 1.3914515309	 4.2591025882	 1.0343424291	-0.232941
H	-0.6396675299	 1.7593619143	-0.7818361978	 0.169126
H	-0.5021889759	 1.7741688047	 0.9693159328	 0.157567
H	 2.0263018307	 1.6104075186	 0.7469078563	 0.13866
H	 1.8609048285	 1.6279719289	-0.9992135673	 0.153415
H	 1.4156300609	 4.2616680432	-2.1638755754	 0.128933
H	 1.4157957494	 3.9756629027	 2.0016533789	 0.281946
40.1728	58.7101	97.1291	187.6738	311.5159	360.4409	400.3981	503.735	584.0475	690.5112	729.1526	753.716	763.6388	854.6672	955.3171	993.5349	1006.0983	1008.0672	1069.0402	1074.6004	1138.6682	1174.2759	1238.4657	1285.8717	1303.5992	1332.5311	1370.2285	1388.8039	1444.2467	1468.4119	1490.7868	1606.8699	2364.9533	3050.1271	3059.1012	3088.7548	3112.4852	3268.3064	3647.41
N#CCCC1=CN=NN1	N#CCCc1cnn[nH]1	
InChI=1S/C5H6N4/c6-3-1-2-5-4-7-9-8-5/h4H,1-2H2,(H,7,8,9)	InChI=1S/C5H6N4/c6-3-1-2-5-4-7-9-8-5/h4H,1-2H2,(H,7,8,9)
