16
gdb 31361	3.8532	1.21413	0.92958	5.2494	78.22	-0.2179	-0.0123	0.2056	1218.6818	0.126148	-434.103858	-434.095528	-434.094584	-434.137437	30.042	
C	-0.0528323613	 1.4696894602	 0.1027868456	-0.323504
N	-0.0702833349	 0.0290732436	-0.0667059682	-0.359146
C	-1.179031695	-0.7471192098	-0.0171845851	 0.509191
N	-1.10891976	-2.0298070267	 0.0171520145	-0.424434
C	-2.2911275899	-2.782786255	 0.0258624413	 0.326812
N	-2.3209143306	-4.0627948028	 0.0520109385	-0.544085
C	-3.5412246017	-2.018606371	 0.0070573533	-0.150785
C	-3.4995776851	-0.6887968324	-0.0171053246	 0.031938
O	-2.3153374584	 0.0093126204	-0.0286867125	-0.228749
H	 0.9465309633	 1.8315072377	-0.1458067048	 0.137069
H	-0.7673493192	 1.9427764773	-0.5739142421	 0.151477
H	-0.2913941443	 1.7803379668	 1.1282052455	 0.133951
H	 0.7851696702	-0.4902265274	 0.0419341814	 0.267301
H	-1.3591031301	-4.4102164905	 0.062112704	 0.208359
H	-4.4846509858	-2.5471182842	 0.0160468948	 0.125734
H	-4.3447881471	-0.0142173562	-0.0300429313	 0.13887
65.2625	99.2835	132.5332	192.0097	213.2348	389.8486	391.7009	482.6508	508.9662	527.5519	631.2356	699.9288	757.1795	772.9824	836.1881	914.6239	924.7312	937.6134	958.828	1039.0396	1072.3707	1145.5335	1156.4277	1214.184	1242.9113	1341.7361	1402.4985	1426.6934	1466.1871	1477.5152	1491.2803	1521.6829	1643.4185	1715.3664	1733.4843	3020.731	3101.7557	3141.301	3225.3237	3245.1287	3452.0483	3659.7987
CNC1=NC(=N)C=CO1	CN[C@@H]1N=C([NH])C=CO1	
InChI=1S/C5H7N3O/c1-7-5-8-4(6)2-3-9-5/h2-3H,1H3,(H2,6,7,8)	InChI=1S/C5H8N3O/c1-7-5-8-4(6)2-3-9-5/h2-3,5-7H,1H3/t5-/m1/s1
