17
gdb 46211	3.01266	1.54436	1.22344	1.3352	73.6	-0.2422	-0.03	0.2123	1037.3987	0.135394	-421.784901	-421.77727	-421.776326	-421.817245	29.132	
O	 0.0021184894	 0.0115282493	-0.3719273743	-0.302112
C	 0.0210558697	 1.1816400008	-0.1254751311	 0.273669
C	-0.989418182	 2.2425363106	 0.3475703569	-0.194331
O	 0.059205037	 3.2389346409	 0.3049233731	-0.333252
C	 1.0364916186	 2.2868963055	-0.137993183	 0.356235
C	 2.4556814464	 2.3979970365	 0.3448602285	-0.138913
C	 3.257875892	 1.1680415611	-0.0970423062	-0.236028
C	 2.8926338109	 1.486869732	-1.5880441879	-0.236022
C	 2.0982741905	 2.7100385632	-1.1142932864	-0.138895
H	-1.8059138988	 2.4585630011	-0.3508106592	 0.135391
H	-1.3895408459	 2.093345188	 1.3568786894	 0.135341
H	 2.6714476144	 3.0727429045	 1.1647325605	 0.105492
H	 4.3265763357	 1.2745141561	 0.0991007302	 0.112059
H	 2.9189282435	 0.2062089992	 0.2952814945	 0.121891
H	 3.7685213843	 1.761633067	-2.1790203853	 0.112054
H	 2.3254999413	 0.7242181205	-2.1271630316	 0.121912
H	 1.991358133	 3.6665450639	-1.6119797981	 0.10551
110.686	115.3358	137.6702	278.6381	335.5285	367.5001	444.908	542.5983	628.2206	694.3928	741.0639	785.2734	847.6408	870.6172	890.2167	944.8258	954.0083	990.7247	996.684	1010.4131	1028.737	1036.7203	1089.0247	1094.686	1137.6723	1165.8112	1222.1403	1239.24	1240.3285	1273.1213	1286.2316	1293.927	1402.4561	1479.599	1480.4516	1500.6268	1902.7258	3032.194	3065.6848	3071.4167	3085.0568	3111.6695	3128.6545	3182.9274	3192.9044
O=C1COC11C2CCC12	O=C1CO[C@]21[C@H]1CC[C@@H]21	
InChI=1S/C7H8O2/c8-6-3-9-7(6)4-1-2-5(4)7/h4-5H,1-3H2	InChI=1S/C7H8O2/c8-6-3-9-7(6)4-1-2-5(4)7/h4-5H,1-3H2/t4-,5+,7+
