19
gdb 119822	4.36113	0.75387	0.67498	2.4257	78.66	-0.2404	-0.0163	0.2241	1632.9079	0.158017	-423.056406	-423.047102	-423.046158	-423.091707	33.511	
O	-0.1218507742	 1.4657883712	-0.071495118	-0.416291
C	 0.0188378574	 0.0563060566	-0.1358744761	-0.067309
C	-1.3570027352	-0.5514804393	 0.1513834158	-0.291163
C	-1.3746409341	-2.049224372	 0.0966265675	 0.31678
C	-1.6150146757	-2.8756712348	 1.1211681298	-0.182
C	-1.5804482751	-4.32902224	 0.7409616862	-0.366203
C	-1.2791949281	-4.2896708941	-0.7663833127	 0.396603
O	-1.1746294763	-5.2420338809	-1.4924573586	-0.301574
C	-1.1334974742	-2.817371516	-1.1833211772	-0.421957
H	 0.7364287588	 1.8634038137	-0.2442525646	 0.287782
H	 0.3737486262	-0.2631591307	-1.1284678898	 0.088381
H	 0.7439376499	-0.3126686251	 0.606630026	 0.091283
H	-1.6851880536	-0.207012948	 1.1376349378	 0.112553
H	-2.0603811743	-0.1364650888	-0.5832174062	 0.113816
H	-1.8261586477	-2.5419177056	 2.1316047091	 0.095436
H	-0.8045802707	-4.9077536387	 1.259771986	 0.136179
H	-2.5241430605	-4.8605323389	 0.9212715546	 0.136556
H	-1.85391741	-2.5765894367	-1.9767122903	 0.135992
H	-0.1401718927	-2.6560780619	-1.6219706292	 0.135136
58.6253	61.7448	82.8732	134.3522	261.1233	275.2921	313.5817	343.4303	453.188	486.267	495.0872	603.563	705.8507	784.9035	798.4301	809.4856	853.8128	890.7837	985.9837	998.5222	1014.7878	1068.2927	1079.5907	1125.9574	1127.81	1178.8412	1186.4791	1224.2885	1238.8634	1274.2165	1286.4489	1308.7033	1341.9124	1359.0936	1440.2183	1446.4723	1456.734	1482.4213	1528.0641	1709.6105	1854.3057	2969.3414	2996.5289	3020.002	3022.2869	3024.9292	3048.5013	3050.3656	3080.5403	3187.2964	3831.8515
OCCC1=CCC(=O)C1	OCCC1=CCC(=O)C1	
InChI=1S/C7H10O2/c8-4-3-6-1-2-7(9)5-6/h1,8H,2-5H2	InChI=1S/C7H10O2/c8-4-3-6-1-2-7(9)5-6/h1,8H,2-5H2
