20
gdb 87634	2.85129	1.22355	1.04601	2.5857	80.39	-0.2319	-0.0222	0.2097	1227.0016	0.168321	-403.127488	-403.1181	-403.117156	-403.161776	34.952	
C	-0.446549552	 1.3592442266	-0.0123920554	-0.409569
C	 0.0603823708	-0.0781852946	-0.0552155791	-0.180407
C	 1.3706544668	-0.325631732	-0.8343328256	 0.398557
O	 1.7636561171	 0.0498259485	-1.9007124364	-0.299367
C	 1.9948429674	-1.131306051	 0.3166285784	-0.429221
C	 0.7754034307	-0.7240969593	 1.1613721908	 0.337884
C	 0.7466926553	-0.2552615277	 2.5690906821	-0.314242
N	 0.2068446465	-1.5648110544	 2.1961454451	-0.126033
C	-1.2409097886	-1.7128571711	 2.2362254527	-0.320653
H	 0.3035886956	 2.028590576	 0.4198589179	 0.123499
H	-0.6636120562	 1.7077798469	-1.0267678087	 0.138335
H	-1.3617823472	 1.4473487938	 0.5811990626	 0.120386
H	-0.7213397759	-0.7451995207	-0.4454715156	 0.106458
H	 2.0483836556	-2.2062675812	 0.112891305	 0.138195
H	 2.9788152997	-0.7877763731	 0.6482602231	 0.13303
H	 1.6495472143	-0.2687438589	 3.1750837914	 0.117113
H	 0.0394217996	 0.5342552581	 2.8231383117	 0.109442
H	-1.7923310745	-0.7992127644	 1.9594184954	 0.103809
H	-1.5441901165	-2.5154823161	 1.5559993348	 0.124572
H	-1.5413243486	-1.9978425854	 3.2491490299	 0.128212
45.949	145.8522	181.9355	196.7918	211.7451	215.1812	245.5836	360.0983	424.935	454.0572	491.6817	513.3595	576.6083	718.5114	749.8937	763.4888	869.2765	886.8731	925.3764	1014.1146	1026.6458	1039.0516	1063.5605	1111.3128	1119.333	1126.572	1155.4423	1165.3116	1192.3949	1208.3418	1223.7617	1246.0055	1323.1621	1398.9992	1409.3403	1434.4217	1449.5129	1490.6156	1491.7415	1493.7348	1497.1107	1512.6741	1893.2173	2968.3933	3014.3117	3036.0248	3051.2861	3067.7884	3084.3394	3103.5345	3105.8844	3106.5357	3112.3066	3170.3753
CC1C(=O)CC11CN1C	C[C@H]1C(=O)C[C@]21CN2C	
InChI=1S/C7H11NO/c1-5-6(9)3-7(5)4-8(7)2/h5H,3-4H2,1-2H3	InChI=1S/C7H11NO/c1-5-6(9)3-7(5)4-8(7)2/h5H,3-4H2,1-2H3/t5-,7+,8?/m0/s1
