21
gdb 110999	2.42996	1.39036	1.17663	1.649	77.69	-0.2418	0.0675	0.3093	1163.3186	0.183045	-424.201979	-424.193262	-424.192318	-424.235273	33.854	
C	-0.0079204851	 1.5145671898	 0.0378910915	-0.505113
C	-0.0260437865	 0.0051247001	 0.0044447337	 0.259596
C	 0.3033636225	-0.8335278775	-1.2772176006	-0.271989
C	-0.3683245531	-1.9407698597	-0.4375018496	 0.076487
O	 0.5390902511	-2.1256138453	 0.6651927584	-0.280162
C	 0.8515010387	-0.7580823513	 1.0121156102	-0.115134
C	-1.3483259015	-0.8506538393	 0.078179405	-0.030736
C	-2.1136172561	-1.0628254436	 1.3735111643	-0.117999
O	-3.2629830354	-1.8806399381	 1.1790095639	-0.42028
H	 1.0030027566	 1.9006436936	-0.1370579358	 0.120438
H	-0.6632675315	 1.9341263267	-0.731736792	 0.121486
H	-0.3438374382	 1.8974415011	 1.0083674883	 0.121004
H	-0.2823824461	-0.5245710501	-2.1448421772	 0.100761
H	 1.3539970292	-0.9786260192	-1.5419736272	 0.097095
H	-0.6692492716	-2.9116271628	-0.8298758898	 0.073688
H	 1.9224177265	-0.5659703564	 0.8704315953	 0.098062
H	 0.5964902728	-0.5635782609	 2.0604464372	 0.098651
H	-2.0435512514	-0.5398585054	-0.7071548992	 0.07901
H	-1.4586155005	-1.4868357144	 2.145527825	 0.103701
H	-2.4937284812	-0.1052766876	 1.7474574263	 0.107045
H	-2.9531434692	-2.7663920399	 0.9654253925	 0.284391
64.225	165.2186	206.4434	222.1307	255.5303	292.924	301.0864	361.1853	451.0155	512.2555	580.5925	592.1466	706.7497	789.0307	842.5939	860.7332	910.0905	925.4113	953.8172	971.6093	983.0917	1019.5492	1036.3974	1060.3336	1093.6427	1114.5103	1134.6825	1165.4635	1189.8979	1206.4311	1219.7049	1247.5059	1249.8886	1272.202	1307.4363	1354.2498	1383.5363	1405.5294	1415.2411	1423.7513	1490.2502	1493.7368	1495.6354	1499.0508	1531.5555	3014.0982	3019.6715	3026.5825	3057.0112	3061.5931	3065.3792	3078.5787	3087.3453	3100.6651	3126.7172	3132.4076	3819.4097
CC12CC(OC1)C2CO	C[C@@]12C[C@@H](OC1)[C@H]2CO	
InChI=1S/C7H12O2/c1-7-2-6(9-4-7)5(7)3-8/h5-6,8H,2-4H2,1H3	InChI=1S/C7H12O2/c1-7-2-6(9-4-7)5(7)3-8/h5-6,8H,2-4H2,1H3/t5-,6-,7-/m1/s1
