18
gdb 93082	2.21052	1.57766	0.96555	3.9752	75.87	-0.2214	-0.005	0.2164	1185.2807	0.14953	-439.127478	-439.11918	-439.118236	-439.160484	31.733	
O	-0.1801818076	 1.4396019975	 0.0364154552	-0.430778
C	 0.0012657601	 0.0286610683	-0.0178572501	 0.105473
C	 0.9921913132	-0.4202152234	 1.0582978089	-0.295636
C	 1.1605856313	-1.900314572	 1.2424502214	-0.078903
C	 0.4593408755	-2.9192909737	 0.7361893532	 0.005231
N	-0.6571983147	-2.9305843079	-0.104827676	-0.323658
C	-1.5735765426	-1.9513526318	-0.4401973008	 0.368574
O	-2.487192463	-2.2182245871	-1.1961146872	-0.353895
C	-1.3936261233	-0.5792317201	 0.1771899323	-0.306152
H	 0.6805527906	 1.8556219851	-0.0781276707	 0.282756
H	 0.3792907007	-0.2631625108	-1.01084022	 0.081385
H	 1.9770910127	 0.0182624025	 0.8377718255	 0.097362
H	 0.6739086721	 0.041072036	 2.0052619228	 0.121222
H	 1.9735676353	-2.190388993	 1.9016501713	 0.094284
H	 0.7695882606	-3.9282849526	 0.9897537276	 0.109892
H	-0.8955086767	-3.8190706956	-0.5221150998	 0.252953
H	-1.6273669162	-0.6293939508	 1.2481712709	 0.124964
H	-2.131363988	 0.0679662895	-0.2975710844	 0.144926
87.2421	124.3755	162.7564	288.0309	302.2249	351.9765	371.7201	441.0724	460.2706	509.1624	570.4761	612.9503	698.0874	738.5408	814.6037	862.4456	896.0396	916.9277	947.6551	970.3681	1055.9234	1072.3272	1080.7296	1129.466	1166.8995	1244.4389	1267.7352	1273.8606	1316.2801	1345.0472	1364.7106	1399.7151	1439.0526	1456.4566	1468.3863	1484.7338	1492.5281	1743.6934	1788.7023	2969.0945	2990.3686	3017.3637	3041.4037	3137.2487	3160.1455	3182.3025	3606.3185	3814.1209
OC1CC=CNC(=O)C1	O[C@H]1CC=CNC(=O)C1	
InChI=1S/C6H9NO2/c8-5-2-1-3-7-6(9)4-5/h1,3,5,8H,2,4H2,(H,7,9)	InChI=1S/C6H9NO2/c8-5-2-1-3-7-6(9)4-5/h1,3,5,8H,2,4H2,(H,7,9)/t5-/m0/s1
