19
gdb 15843	4.63134	0.94517	0.83351	1.5011	68.09	-0.247	0.0698	0.3168	1364.2748	0.164384	-402.157163	-402.147773	-402.146829	-402.191931	33.195	
O	-0.0114062448	 1.2037239114	-0.6885429659	-0.42373
C	 0.0348895628	-0.0616578334	-0.0448779592	-0.078374
C	-1.3667430957	-0.655962049	-0.0921286591	-0.185798
C	-1.4625641652	-2.0230553615	 0.592354983	 0.084569
O	-1.037607535	-1.9667067733	 1.9564196692	-0.431739
C	-2.8521121753	-2.6127096274	 0.4714879555	 0.006537
C	-3.1403425837	-3.653945461	-0.5468731717	-0.241662
N	-3.0942652444	-4.0008035793	 0.8820805929	-0.319637
H	 0.8569112775	 1.6095111843	-0.6122242304	 0.28568
H	 0.7414362446	-0.7408707395	-0.5508978413	 0.082196
H	 0.3592705486	 0.0251993075	 1.0011514591	 0.100253
H	-2.0631414372	 0.0450402539	 0.3877497275	 0.098393
H	-1.6853166622	-0.7476734266	-1.1371335467	 0.111323
H	-0.7497119237	-2.7150211918	 0.1227313574	 0.078491
H	-1.692742731	-1.45762222	 2.4475803307	 0.281319
H	-3.6562840004	-1.9312941232	 0.7526920842	 0.085487
H	-4.1238701028	-3.7147245729	-1.0037650815	 0.120247
H	-2.3235154145	-3.970262724	-1.1915520556	 0.110766
H	-2.2063694478	-4.4419148941	 1.1127094419	 0.235678
58.3585	88.1402	105.0347	134.9725	232.6056	263.5979	281.6215	305.0814	349.7375	395.2597	509.2424	576.2497	797.0535	817.6859	871.4078	909.8684	945.7962	965.2908	1021.7021	1049.0403	1074.4663	1090.2378	1103.9304	1131.2657	1156.7807	1181.5234	1211.0668	1245.4414	1248.1411	1282.5528	1297.8497	1313.5435	1323.2466	1369.9644	1412.9904	1436.8961	1460.8741	1484.4742	1512.6838	1531.0252	2961.8049	3013.8102	3021.9983	3025.743	3074.1282	3097.065	3105.5546	3190.2996	3493.9451	3794.714	3830.6378
OCCC(O)C1CN1	OCC[C@@H](O)[C@H]1CN1	
InChI=1S/C5H11NO2/c7-2-1-5(8)4-3-6-4/h4-8H,1-3H2	InChI=1S/C5H11NO2/c7-2-1-5(8)4-3-6-4/h4-8H,1-3H2/t4-,5-/m1/s1
