20
gdb 109352	2.83124	1.23136	1.02833	2.1074	81.34	-0.2323	-0.0012	0.2311	1246.7091	0.171996	-403.153011	-403.144195	-403.143251	-403.186848	32.831	
C	-0.195245003	 1.6525268476	-0.6372198057	-0.372086
C	 0.2050410578	 0.3264978719	 0.0347414369	-0.284786
C	 0.7864359853	-0.6695819061	-0.9339006529	 0.334194
C	 2.0813714287	-0.9930589052	-0.9539882815	-0.186964
C	 2.6283217134	-1.9621886121	-1.9622725887	-0.128664
O	 2.5426994006	-1.4908786188	-3.3239957972	-0.221536
C	 1.3283784577	-1.1883831563	-3.843071758	 0.141982
N	 0.1674456262	-1.109332151	-3.3535192075	-0.264286
C	-0.1618230482	-1.3031456561	-1.9436128016	-0.267084
H	 0.6821081931	 2.151317283	-1.059690366	 0.124204
H	-0.9086550384	 1.4914217853	-1.4513202396	 0.131781
H	-0.6588699524	 2.329037668	 0.0872072099	 0.114751
H	 0.9268898237	 0.5241614532	 0.8347469766	 0.101475
H	-0.6825170879	-0.1128834453	 0.5113984947	 0.105409
H	 2.7765714433	-0.5413120724	-0.2514342063	 0.089048
H	 3.6944639262	-2.1387798604	-1.8105388851	 0.119742
H	 2.1180424789	-2.9333309371	-1.9034228961	 0.116964
H	 1.4631620387	-0.9797459524	-4.9054486896	 0.118406
H	-0.2555250745	-2.3798468891	-1.7314280045	 0.118338
H	-1.1669510492	-0.893964757	-1.8004168578	 0.109113
72.2331	86.0837	154.7119	212.9678	233.5032	293.8691	338.2948	379.3198	401.5531	528.1928	568.1903	641.6788	752.2418	793.2764	834.2839	855.8635	927.5109	932.8429	953.272	981.3478	1001.6072	1009.3814	1074.9179	1083.9172	1113.743	1162.1023	1202.8328	1253.9232	1276.4672	1287.5388	1344.0031	1358.3829	1385.1632	1402.231	1410.0248	1437.4454	1480.6482	1484.4883	1497.2508	1506.262	1508.3325	1730.2021	1753.5018	2980.2052	3010.1404	3011.1932	3039.113	3059.4358	3064.0605	3110.6395	3113.2858	3114.6277	3128.0552	3161.3035
CCC1=CCOC=NC1	CCC1=CCOC=NC1	
InChI=1S/C7H11NO/c1-2-7-3-4-9-6-8-5-7/h3,6H,2,4-5H2,1H3	InChI=1S/C7H11NO/c1-2-7-3-4-9-6-8-5-7/h3,6H,2,4-5H2,1H3
