18
gdb 118638	2.30596	0.92392	0.69128	2.826	72.5	-0.2564	-0.0424	0.214	1583.094	0.144337	-476.213179	-476.202907	-476.201963	-476.249668	34.918	
O	 0.0583549705	 1.4894862575	-0.2067007711	-0.413676
C	 0.0603865696	 0.0746935948	-0.1423728629	-0.072549
C	-1.3432511627	-0.4902678629	 0.1048305665	-0.230129
C	-1.3718865039	-2.0211880315	 0.1146899142	-0.002038
O	-0.6006276028	-2.4613012384	 1.2160914328	-0.185856
C	-0.3158861705	-3.7837584834	 1.2925825573	 0.147259
N	 0.350334195	-4.2153051599	 2.2703072472	-0.443558
C	-2.807277022	-2.535184369	 0.1699534088	 0.150785
O	-3.2175759229	-3.3230711207	 0.9778454228	-0.229051
H	-0.0517052599	 1.8282923415	 0.6872600986	 0.287516
H	 0.4278878617	-0.270341394	-1.1161365139	 0.11084
H	 0.7523298654	-0.3011685892	 0.6219695212	 0.124065
H	-1.7251955313	-0.1320866106	 1.0687626372	 0.120396
H	-2.0175300275	-0.1190030675	-0.6745606925	 0.117315
H	-0.9428821129	-2.3920845153	-0.8343351323	 0.103691
H	-0.6957670406	-4.3670213107	 0.4454332749	 0.092282
H	 0.4931846638	-5.2187623067	 2.1787336586	 0.232416
H	-3.4597502389	-2.1159090739	-0.6296917273	 0.090292
70.9353	76.9428	86.5293	105.286	148.9057	197.3534	207.5523	292.2712	300.0951	341.5241	364.9373	523.7958	572.3401	748.7048	781.0948	814.9447	852.9471	952.2739	972.3561	1036.594	1041.9739	1074.1958	1081.3112	1110.5416	1166.1867	1194.3858	1262.227	1285.6408	1314.4742	1345.016	1357.6638	1404.1726	1410.478	1419.5387	1428.7532	1475.0098	1513.2409	1749.9349	1843.925	2874.9395	2946.1987	3022.1188	3037.4444	3048.8628	3063.9152	3093.5262	3522.2263	3821.3751
OCCC(OC=N)C=O	OCC[C@@H](O[CH][NH])C=O	
InChI=1S/C5H9NO3/c6-4-9-5(3-8)1-2-7/h3-7H,1-2H2	InChI=1S/C5H9NO3/c6-4-9-5(3-8)1-2-7/h3-7H,1-2H2/t5-/m1/s1
