17
gdb 96979	2.76287	1.49714	1.06355	5.3977	77.42	-0.2361	-0.052	0.1841	1132.8985	0.136525	-418.01613	-418.008006	-418.007062	-418.048983	30.482	
C	 0.0594659281	 1.4015964317	 0.0496653724	-0.339917
N	 0.0660604097	-0.0502004712	 0.0521278259	-0.277426
C	 0.5212603791	-0.6306630639	-0.9818199871	 0.253212
N	 1.0179599328	-0.0823814894	-2.1619018498	-0.346041
C	 1.6433962819	-1.0759614949	-3.0038735484	-0.01396
C	 2.8019433344	-1.8290458465	-2.4226926173	-0.300979
C	 1.388088531	-2.4178646971	-2.3677834744	-0.155453
C	 0.5956145659	-2.1490566111	-1.124347619	 0.36777
O	 0.0773510879	-2.9544897434	-0.3986910679	-0.30056
H	 1.0804748415	 1.8177456099	 0.0577193725	 0.108872
H	-0.4536300235	 1.8129425511	-0.8336785459	 0.117669
H	-0.449536687	 1.7683808217	 0.9437561042	 0.132123
H	 1.436441821	 0.8359564838	-2.1215465758	 0.249476
H	 1.5520801545	-0.9257434731	-4.0735154104	 0.114513
H	 3.4872508114	-2.3291266886	-3.0982216524	 0.13302
H	 3.2483326727	-1.4604508012	-1.5050177764	 0.134144
H	 1.1756895486	-3.3136908078	-2.9351189104	 0.123537
88.0767	134.2323	179.4399	201.1579	232.7199	339.8798	416.5893	502.9106	539.0183	581.5385	619.6885	698.8621	774.283	794.1648	821.9686	844.8795	949.8206	973.5297	994.4614	1044.5986	1055.5196	1094.7061	1096.5101	1132.8018	1144.637	1174.0862	1199.4186	1282.6134	1318.0719	1369.5762	1406.9786	1430.8891	1478.5807	1490.2293	1501.9367	1743.1541	1851.2823	2963.0824	3010.9354	3107.6778	3132.9039	3174.882	3212.9268	3226.662	3595.7883
CN=C1NC2CC2C1=O	CN=C1N[C@H]2C[C@H]2C1=O	
InChI=1S/C6H8N2O/c1-7-6-5(9)3-2-4(3)8-6/h3-4H,2H2,1H3,(H,7,8)	InChI=1S/C6H8N2O/c1-7-6-5(9)3-2-4(3)8-6/h3-4H,2H2,1H3,(H,7,8)/t3-,4+/m1/s1
