16
gdb 43941	3.34351	1.59833	1.49177	1.6962	74.47	-0.2283	-0.0397	0.1886	916.9944	0.124645	-400.623353	-400.616709	-400.615765	-400.654179	27.534	
O	-0.1808887935	-0.1098107902	-0.3397268974	-0.262763
C	-0.0824377401	 1.0598743983	-0.1645113173	 0.334755
C	-1.1608781328	 2.2198920307	 0.1487310091	-0.435592
C	-0.0016227303	 2.8079949759	 0.9744871612	 0.244024
N	 0.9981886207	 4.008826171	 1.1572757309	-0.383437
C	 1.9939758944	 2.8221917739	 1.1435580518	-0.132645
C	 1.5695661793	 2.1302018182	 2.4383025837	-0.030102
C	 0.2423025477	 2.1280688542	 2.3296879932	-0.106464
C	 1.0307503806	 2.1420580674	 0.0775894909	-0.106796
H	-1.4053004719	 2.7702747063	-0.7631264762	 0.133301
H	-2.0752139125	 1.9077432268	 0.6582216454	 0.129882
H	 1.0861111242	 4.4857577438	 0.2530887392	 0.210418
H	 3.041094134	 3.0558483067	 0.9556220713	 0.082931
H	 2.222027658	 1.7960419676	 3.2308192546	 0.117069
H	-0.5260118986	 1.7743578965	 3.0017746235	 0.110381
H	 1.1046800407	 2.687175553	-0.873579624	 0.095037
110.3065	233.7314	356.022	419.51	461.6616	507.1657	552.7814	577.6655	670.5398	712.9647	728.6991	741.2807	824.322	840.3984	862.5639	897.1937	913.3828	923.8961	968.3234	1011.3397	1022.5686	1061.3786	1091.9555	1109.2478	1141.2649	1163.3546	1174.3477	1208.1618	1254.5771	1268.8443	1329.1075	1367.7104	1455.7946	1629.8235	1897.1984	3009.2745	3070.3471	3133.6385	3134.3751	3230.4612	3259.0238	3386.6541
O=C1CC23NC(C=C2)C13	O=C1C[C@@]23N[C@@H](C=C2)[C@@H]13	
InChI=1S/C7H7NO/c9-5-3-7-2-1-4(8-7)6(5)7/h1-2,4,6,8H,3H2	InChI=1S/C7H7NO/c9-5-3-7-2-1-4(8-7)6(5)7/h1-2,4,6,8H,3H2/t4-,6-,7-/m0/s1
