20
gdb 117236	4.09253	0.8119	0.77716	1.4005	78.9	-0.2311	0.0014	0.2326	1580.4154	0.169094	-440.29104	-440.281074	-440.28013	-440.326907	35.245	
C	-2.045486784	 0.116306389	-0.5086307318	-0.39163
C	-0.6584752609	-0.3747122447	-0.1420716781	-0.044785
O	-0.1343201273	-1.0892773074	-1.2795300435	-0.248923
C	 1.1127441301	-1.579964282	-1.1421237571	 0.455688
O	 1.7737847677	-1.4593269225	-0.1360268486	-0.377685
C	 1.5302155721	-2.2798610299	-2.3947022701	-0.127789
C	 2.9992708641	-2.3656254507	-2.6869222199	-0.235576
N	 2.2560360636	-3.5593699809	-2.3630001855	-0.082813
C	 2.5247261227	-4.232620906	-1.0941617958	-0.326224
H	-2.0072332654	 0.7864604398	-1.3719975136	 0.130669
H	-2.7047349304	-0.7214607939	-0.7524840664	 0.131387
H	-2.4797478634	 0.6631833756	 0.3335024438	 0.124
H	 0.0196139437	 0.4493124925	 0.1012079836	 0.123516
H	-0.6752561393	-1.0485687626	 0.7203045343	 0.122941
H	 0.8172441047	-2.1936493542	-3.2081576359	 0.105936
H	 3.3396201893	-2.2712039058	-3.7150413836	 0.119537
H	 3.6564218858	-1.9436348292	-1.9283540231	 0.132237
H	 2.7763485853	-3.5569900618	-0.2693895321	 0.144897
H	 1.6443347312	-4.8195847052	-0.8141128721	 0.121718
H	 3.3545605903	-4.9267780799	-1.2585668345	 0.122899
37.0046	71.9462	131.1724	139.8185	186.9606	240.0051	253.7915	279.9194	344.9648	375.367	421.8564	440.6116	696.5951	724.2838	800.076	811.9592	868.5353	881.0263	929.9487	1020.1393	1036.7291	1056.111	1100.1372	1122.7697	1133.4065	1140.8156	1171.9308	1182.8367	1210.3063	1220.1479	1291.3023	1331.346	1383.1052	1410.4487	1429.6751	1444.9558	1485.9369	1486.8361	1496.3307	1496.7349	1510.2648	1519.6712	1794.2361	3027.1022	3046.8648	3052.0505	3089.837	3093.8824	3100.0979	3105.4741	3121.2807	3126.9481	3162.2818	3186.0283
CCOC(=O)C1CN1C	CCOC(=O)[C@H]1CN1C	
InChI=1S/C6H11NO2/c1-3-9-6(8)5-4-7(5)2/h5H,3-4H2,1-2H3	InChI=1S/C6H11NO2/c1-3-9-6(8)5-4-7(5)2/h5H,3-4H2,1-2H3/t5-,7?/m1/s1
