23
gdb 92881	2.42442	1.2959	1.05872	1.257	87.52	-0.2409	0.0267	0.2677	1270.7635	0.205744	-388.314732	-388.305279	-388.304335	-388.348102	37.52	
C	 0.0367739747	 1.5166106326	-0.0238861422	-0.419735
C	-0.0415357383	-0.0238996398	-0.0007751407	 0.227333
C	-1.5293927023	-0.4359624272	 0.0783065327	-0.40946
C	 0.6209701103	-0.5845321494	-1.2804857145	-0.218136
C	 1.0104519964	-2.0544084672	-1.1564107784	 0.104072
O	 1.5337616021	-2.4570515697	-2.4174208928	-0.440626
C	 2.025978511	-2.239438415	-0.0229854915	-0.278894
C	 1.6030018576	-1.5029888698	 1.2219978103	-0.094303
C	 0.6863050911	-0.5363454744	 1.2252171272	-0.043743
H	 1.0763503708	 1.8590071254	-0.0282177063	 0.114936
H	-0.4562827502	 1.9159450178	-0.9172206783	 0.111141
H	-0.4578636804	 1.9494431295	 0.852738369	 0.107167
H	-2.0930714636	-0.0105185424	-0.7597701053	 0.110272
H	-1.6510187194	-1.5226358805	 0.0548212908	 0.115402
H	-1.9846481715	-0.0732778914	 1.0062857028	 0.109133
H	-0.0459149502	-0.458518374	-2.1403601656	 0.097244
H	 1.5333639879	-0.0166376239	-1.5011084753	 0.097353
H	 0.1120880426	-2.6466832234	-0.9188413846	 0.066101
H	 1.7916710111	-3.3820257646	-2.3498320299	 0.277504
H	 2.1589411751	-3.3075483938	 0.1986619237	 0.089569
H	 3.0044549169	-1.8785282126	-0.3719796531	 0.114636
H	 2.0819664956	-1.792086568	 2.1545820795	 0.084462
H	 0.4199890525	-0.0562103682	 2.1659495226	 0.078573
109.053	144.3838	225.9825	256.5968	261.7287	288.2299	296.8548	322.862	367.077	407.4163	435.231	478.0028	496.7179	523.2101	675.6992	751.5569	800.2966	878.5017	908.8801	919.308	942.162	961.9419	986.8765	1006.5893	1018.3115	1052.303	1080.469	1088.0785	1130.8521	1181.8555	1194.2935	1222.6218	1257.3466	1289.2253	1293.5572	1332.037	1341.2914	1385.2657	1395.6484	1405.0938	1429.645	1442.0052	1475.8532	1482.9096	1486.9863	1499.0141	1501.6854	1509.727	1720.1269	2965.9045	3000.8766	3023.5254	3026.0718	3030.5886	3032.7648	3074.719	3090.4464	3095.5604	3102.1609	3108.1373	3128.2009	3157.5572	3813.3338
CC1(C)CC(O)CC=C1	CC1(C)C[C@@H](O)CC=C1	
InChI=1S/C8H14O/c1-8(2)5-3-4-7(9)6-8/h3,5,7,9H,4,6H2,1-2H3	InChI=1S/C8H14O/c1-8(2)5-3-4-7(9)6-8/h3,5,7,9H,4,6H2,1-2H3/t7-/m0/s1
