17
gdb 96538	2.47842	1.62187	1.11413	3.3803	64.44	-0.2654	-0.0023	0.2631	1074.3303	0.136686	-496.122429	-496.114201	-496.113256	-496.155738	30.342	
O	-0.0038665522	 1.369529969	 0.2341619363	-0.443936
C	-0.0206147018	-0.0175512748	 0.0295060142	 0.018408
C	-1.4756842037	-0.5355433737	-0.002890206	-0.234253
C	-1.5520836419	-2.0533803958	-0.2492114088	-0.102595
O	-0.3160276668	-2.6704968605	 0.1281513082	-0.221702
C	 0.5939759802	-2.7959998885	-0.9014661518	 0.01175
O	 0.8516327322	-1.6113253396	-1.6864419106	-0.237902
C	 0.7216019038	-0.3377268116	-1.272408624	 0.39432
O	 1.1445845616	 0.5518122861	-1.9689235416	-0.337705
H	 0.4183251815	 1.7409103348	-0.5567687131	 0.295894
H	 0.5050521241	-0.5178178545	 0.8526242014	 0.113741
H	-1.9222887841	-0.2724172654	 0.9597420681	 0.12563
H	-2.0293208298	 0.0115248298	-0.7724508529	 0.120398
H	-2.3273050242	-2.5190767743	 0.3637023813	 0.125863
H	-1.7717697525	-2.27952747	-1.3002418338	 0.115996
H	 1.5370481958	-3.1214163334	-0.4523938303	 0.134892
H	 0.2618701878	-3.5172358976	-1.6605224666	 0.121202
63.0207	119.6719	131.292	284.69	302.4326	344.3063	383.0759	417.2582	423.8859	544.2618	609.2369	669.2523	724.8737	771.8158	868.254	902.2145	997.0009	1032.1167	1065.8916	1082.1733	1111.6682	1147.3455	1152.9946	1228.7635	1240.6321	1277.6148	1295.0466	1323.6981	1336.1176	1364.6557	1403.4702	1454.2086	1476.6513	1491.7152	1508.8688	1521.3101	1809.7289	3014.2178	3026.3501	3028.2405	3058.9498	3091.2257	3094.3394	3112.084	3691.446
OC1CCOCOC1=O	O[C@H]1CCOCOC1=O	
InChI=1S/C5H8O4/c6-4-1-2-8-3-9-5(4)7/h4,6H,1-3H2	InChI=1S/C5H8O4/c6-4-1-2-8-3-9-5(4)7/h4,6H,1-3H2/t4-/m0/s1
