19
gdb 83323	2.18661	1.70087	1.45929	2.2777	74.78	-0.2308	-0.0081	0.2227	1021.768	0.15951	-423.034339	-423.025903	-423.024959	-423.06688	32.713	
C	-0.2319493736	 1.5136255686	-0.0185489283	-0.440353
C	 0.0600084708	 0.0228980395	 0.0645507134	-0.031097
C	 1.2240004482	-0.6405642208	-0.7582516052	-0.168394
C	 2.4738921594	 0.1333350987	-0.2710649875	-0.231049
C	 2.1844576288	 0.190793958	 1.2678143884	-0.259037
C	 0.8494230067	-0.5744990667	 1.312131464	 0.297023
O	 0.2980101398	-0.7650933491	 2.5637410403	-0.485251
C	 1.1177033742	-1.7203656233	 0.3294506389	 0.363326
O	 1.00498967	-2.912005631	 0.3885037322	-0.341125
H	 0.6628287804	 2.1319342562	 0.0843109156	 0.123268
H	-0.6990768625	 1.7630924139	-0.9767703155	 0.1228
H	-0.9272043979	 1.8019849164	 0.7767303696	 0.132146
H	-0.8651801631	-0.5455794252	-0.0790322559	 0.086474
H	 1.1277877987	-0.8743501162	-1.8154696377	 0.08557
H	 3.3983436935	-0.4014711316	-0.502490962	 0.114071
H	 2.542261088	 1.1250157059	-0.7239579923	 0.110107
H	 2.9455424536	-0.3143840162	 1.8672931663	 0.115267
H	 2.0791789329	 1.2091447517	 1.6493069593	 0.112474
H	-0.1602841981	-1.6144454688	 2.5582465363	 0.293779
137.1489	166.1877	176.2375	223.7519	266.3939	287.5095	312.0549	383.0995	501.6836	525.5732	601.9776	686.0131	702.5461	755.6437	787.7811	805.9376	866.2229	904.069	960.6329	991.9397	1010.6306	1025.8512	1088.9151	1107.3341	1128.2798	1137.5455	1157.7408	1212.7774	1223.1736	1242.6243	1262.5466	1315.782	1355.6736	1374.1093	1409.8682	1419.0051	1486.2709	1496.1766	1508.0475	1520.3961	1887.6794	3039.0955	3051.6043	3063.669	3071.9979	3100.7327	3101.2832	3116.4528	3122.2048	3154.8551	3782.0411
CC1C2CCC1(O)C2=O	C[C@H]1[C@H]2CC[C@]1(O)C2=O	
InChI=1S/C7H10O2/c1-4-5-2-3-7(4,9)6(5)8/h4-5,9H,2-3H2,1H3	InChI=1S/C7H10O2/c1-4-5-2-3-7(4,9)6(5)8/h4-5,9H,2-3H2,1H3/t4-,5+,7+/m0/s1
