20
gdb 108819	3.04708	1.12731	0.89959	3.391	76.27	-0.2522	0.021	0.2732	1340.3774	0.170221	-440.31187	-440.302257	-440.301313	-440.346901	34.903	
C	-0.4857418883	 1.4588373936	-0.016452167	-0.406627
C	 0.1117222829	 0.0641853384	-0.055561622	 0.096402
O	 1.1509646833	 0.0198204097	-1.0800860372	-0.265466
C	 2.1788410076	-0.6579518457	-0.5286720964	 0.383281
C	 3.3550493073	-0.9534051074	-1.4103166056	-0.130264
O	 4.3737119773	-1.6072746809	-0.7015718975	-0.421884
N	 2.114685311	-1.0064813446	 0.6911075954	-0.34456
C	 0.8434609244	-0.4758318633	 1.2205539745	 0.002537
C	 1.121151284	 0.5356722018	 2.3348414515	-0.388465
H	 0.2619530817	 2.2075213509	 0.2561845095	 0.130918
H	-0.8918521338	 1.7205753922	-0.9972337632	 0.132163
H	-1.3021391063	 1.5018319266	 0.7108173783	 0.125631
H	-0.6545195088	-0.6537089973	-0.3709243887	 0.094742
H	 3.0087957948	-1.5635818132	-2.2593989451	 0.118738
H	 3.7164557812	-0.0050361051	-1.8373129935	 0.119041
H	 4.0370405649	-1.7206254711	 0.1997136406	 0.29555
H	 0.2663015708	-1.3041659039	 1.6453987195	 0.089413
H	 1.7193996722	 1.3769985226	 1.972827735	 0.122766
H	 0.1921090027	 0.9264194272	 2.7610049992	 0.114055
H	 1.685164501	 0.0459728396	 3.1327718527	 0.132028
40.4781	86.615	146.3288	188.9785	231.6759	247.8328	267.869	312.1704	354.3243	403.2372	463.023	506.7785	620.1707	693.9105	727.3898	756.8302	878.8313	930.2401	984.5099	1017.0006	1041.9923	1045.9794	1075.8465	1114.0244	1119.9113	1158.5729	1175.6748	1242.2873	1247.5661	1304.5844	1334.3405	1349.7875	1380.5069	1393.8539	1409.5872	1415.8472	1477.7704	1484.1003	1491.0881	1496.0325	1506.1259	1506.6524	1733.7368	2986.4728	3003.5246	3026.2949	3041.3785	3047.1509	3050.175	3113.1934	3119.7838	3122.739	3130.5323	3712.9703
CC1OC(CO)=NC1C	C[C@H]1OC(=N[C@H]1C)CO	
InChI=1S/C6H11NO2/c1-4-5(2)9-6(3-8)7-4/h4-5,8H,3H2,1-2H3	InChI=1S/C6H11NO2/c1-4-5(2)9-6(3-8)7-4/h4-5,8H,3H2,1-2H3/t4-,5+/m0/s1
