21
gdb 74905	2.55408	1.48871	1.08551	2.3385	83.55	-0.2394	0.0124	0.2519	1179.1613	0.18384	-387.088023	-387.079703	-387.078759	-387.120531	32.938	
C	-0.0671982582	 1.5888281719	-0.0391011963	-0.479899
C	 0.0042759693	 0.0872812644	 0.0048000911	 0.335006
C	 0.0397101154	-0.6587485633	-1.1047314274	-0.193828
C	 0.1186562467	-2.1453349614	-1.0670333949	 0.010525
O	 1.2896501212	-2.7725577355	-1.6217297602	-0.263886
C	 1.1066793651	-2.8130656326	-0.20215325	 0.056345
C	 2.0713633389	-1.9797977752	 0.6202661945	-0.225764
C	 1.3958983997	-1.1963945183	 1.7647107767	-0.197503
C	 0.0342102016	-0.5636230798	 1.3799002899	-0.300691
H	 0.7792401575	 2.0373356313	 0.4974268147	 0.125446
H	-0.0613423827	 1.9684645916	-1.0641864153	 0.122396
H	-0.9750404979	 1.9544566005	 0.4579782407	 0.125395
H	 0.0023875015	-0.1908178904	-2.0864412546	 0.086378
H	-0.7994182767	-2.6842950372	-1.3134312057	 0.090557
H	 0.8589191494	-3.8030683903	 0.1841651757	 0.083381
H	 2.868228763	-2.6137129315	 1.0249345426	 0.096633
H	 2.546726989	-1.2799294021	-0.0713075163	 0.12031
H	 1.2314723843	-1.8488895777	 2.6302218667	 0.099192
H	 2.0893873652	-0.417088865	 2.1010373538	 0.10199
H	-0.2420807627	 0.169195985	 2.1452686289	 0.094793
H	-0.7336003895	-1.3436992644	 1.4176665654	 0.113223
131.1749	156.2617	195.531	218.8644	304.5603	323.6044	355.9004	417.1285	455.0949	506.2214	607.7483	670.5846	735.1051	805.7592	828.2517	850.6638	866.0851	887.7175	952.5072	994.2757	1005.2597	1046.8343	1050.7578	1069.8991	1080.0267	1105.9288	1157.2191	1169.6403	1216.2697	1240.3296	1285.7194	1296.8557	1319.4493	1344.2223	1360.552	1388.6949	1390.7407	1412.5593	1464.1159	1479.3222	1483.0601	1486.6971	1494.6417	1502.1964	1723.1519	3013.8279	3028.5207	3038.4437	3049.1066	3059.5358	3061.4723	3069.5645	3079.9999	3091.5822	3108.8096	3112.7562	3145.5309
CC1=CC2OC2CCC1	CC1=C[C@H]2O[C@H]2CCC1	
InChI=1S/C8H12O/c1-6-3-2-4-7-8(5-6)9-7/h5,7-8H,2-4H2,1H3	InChI=1S/C8H12O/c1-6-3-2-4-7-8(5-6)9-7/h5,7-8H,2-4H2,1H3/t7-,8+/m0/s1
