17
gdb 76276	2.41996	1.61522	1.08827	1.7443	70.81	-0.2601	-0.0149	0.2452	1094.4027	0.136945	-455.204186	-455.195717	-455.194773	-455.237348	31.887	
C	 0.2177220338	 1.559905197	 0.0492678734	-0.387382
C	-0.0344615464	 0.0468262234	-0.0431762212	-0.164174
C	 0.6973722835	-0.6332546664	-1.2237884746	 0.082053
O	 0.9586695694	 0.2061627285	-2.3133383183	-0.430866
C	 1.9762392078	-1.1744713548	-0.5948978592	 0.361944
N	 3.0107728411	-1.4087796802	-1.2890323744	-0.555799
N	 1.7256684061	-1.2985497185	 0.7612978614	-0.363116
C	 0.5610489106	-0.6508312001	 1.1841754248	 0.409714
O	 0.1659619821	-0.6320101784	 2.3211495981	-0.351824
H	 1.2878629841	 1.7834143946	 0.0952594379	 0.124569
H	-0.1867451656	 2.060295904	-0.8319702167	 0.142562
H	-0.2598024544	 1.9604290285	 0.9466779828	 0.134584
H	-1.1104107956	-0.1405565505	-0.0637113037	 0.111141
H	 0.1086630957	-1.5104433057	-1.5428516263	 0.102422
H	 1.8234844571	-0.0681569656	-2.6530729448	 0.299655
H	 3.8012159383	-1.7518328995	-0.7439533716	 0.221657
H	 2.3556110026	-1.7247140963	 1.4261898025	 0.26286
66.5417	137.14	215.0236	244.4568	249.5397	278.1862	366.739	417.4057	476.4883	533.4627	601.4626	617.083	644.2108	728.5308	748.2668	801.0141	855.575	879.884	915.4613	1048.24	1074.5886	1095.5676	1110.4005	1166.4687	1221.4039	1245.2475	1285.74	1335.9736	1351.5755	1364.4259	1393.9053	1408.0782	1430.8237	1492.2372	1495.0622	1770.4188	1859.8022	2955.3805	3051.5039	3087.5612	3124.3033	3144.8859	3484.0671	3612.4631	3725.2145
CC1C(O)C(=N)NC1=O	C[C@H]1[C@@H](O)[C]([NH])NC1=O	
InChI=1S/C5H8N2O2/c1-2-3(8)4(6)7-5(2)9/h2-3,8H,1H3,(H2,6,7,9)	InChI=1S/C5H8N2O2/c1-2-3(8)4(6)7-5(2)9/h2-3,8H,1H3,(H2,6,7,9)/t2-,3+/m0/s1
