23
gdb 89406	2.68572	1.37902	1.15976	1.441	85.33	-0.2522	0.0706	0.3228	1198.4012	0.206	-388.300998	-388.291743	-388.290799	-388.334072	36.8	
C	 0.0254407949	 1.61025155	-0.0416750945	-0.3926
C	 0.1215335289	 0.0830782344	-0.038797077	 0.019766
C	 0.8334151583	-0.5337418761	-1.2387689266	-0.077578
C	 2.3469996511	-0.543623594	-1.2485622832	-0.335908
C	 1.5862887444	-1.7677351699	-0.789774646	 0.355545
C	 1.6417306371	-3.0386383547	-1.6033845146	-0.482469
C	 1.3648528908	-1.8923300896	 0.7163274612	-0.292558
C	 0.8384491898	-0.519697008	 1.1976140214	 0.068632
O	 1.8893444074	 0.3616499228	 1.5957559488	-0.42087
H	 1.017660247	 2.065701969	-0.0496980898	 0.133092
H	-0.5197926076	 1.9555815667	-0.9262220085	 0.102848
H	-0.5043784789	 1.9772158727	 0.8436290723	 0.107007
H	-0.8993118282	-0.3247144687	-0.0285440361	 0.068894
H	 0.3168137283	-0.5184374734	-2.1938821801	 0.070682
H	 2.8260292406	-0.608897879	-2.2207053638	 0.096565
H	 2.8776489263	 0.0544685996	-0.5180641419	 0.127745
H	 1.7137916902	-2.8208877345	-2.6739174325	 0.112445
H	 2.5119122966	-3.6497724375	-1.3336668661	 0.112742
H	 0.7466839839	-3.6535018612	-1.4470887166	 0.108588
H	 0.6068334775	-2.6639737919	 0.9058507977	 0.092577
H	 2.2656018575	-2.1896487732	 1.2692854356	 0.082324
H	 0.1336483956	-0.6360217419	 2.0334524564	 0.061541
H	 2.3591014787	-0.0551468818	 2.3245461138	 0.28099
132.2534	163.5589	217.2524	223.4258	237.1119	276.2245	279.6784	335.9444	377.0159	410.426	448.5826	515.8561	586.1566	664.1095	757.0885	780.0991	846.8763	882.6559	904.3554	931.4188	961.5591	976.5995	991.0359	1022.5635	1040.5797	1072.0211	1084.1044	1089.5085	1107.3784	1130.8311	1174.1115	1208.2398	1234.3726	1250.1652	1291.8472	1315.8383	1341.9857	1346.897	1369.6001	1401.6015	1406.0804	1420.6407	1433.0428	1476.5623	1489.6773	1491.6979	1495.7543	1498.7603	1503.7933	2983.7342	3002.2795	3013.3015	3017.553	3038.0922	3047.9351	3070.6863	3093.9686	3097.5053	3129.9941	3131.6129	3149.6662	3227.252	3822.9598
CC1C2CC2(C)CC1O	C[C@H]1[C@H]2C[C@@]2(C)C[C@H]1O	
InChI=1S/C8H14O/c1-5-6-3-8(6,2)4-7(5)9/h5-7,9H,3-4H2,1-2H3	InChI=1S/C8H14O/c1-5-6-3-8(6,2)4-7(5)9/h5-7,9H,3-4H2,1-2H3/t5-,6+,7+,8-/m0/s1
