19
gdb 86996	6.32696	0.63199	0.61135	2.794	77.62	-0.2402	0.0336	0.2738	1769.4147	0.158928	-419.189672	-419.180378	-419.179434	-419.224783	33.398	
O	 0.0577048185	 1.5014405075	 0.0149420705	-0.4335
C	 0.0854082493	 0.0966592703	-0.0142905541	 0.146559
C	 0.2349625039	-0.5948843231	 1.3668086249	-0.209082
N	-1.2358091625	-0.7599028368	 1.396839296	-0.091207
C	-1.7794482178	-1.9535654646	 2.0013604413	-0.144794
C	-3.3192325423	-1.8926524652	 2.015616492	-0.341564
C	-3.9153226211	-3.0754294795	 2.629498188	 0.258586
N	-4.3679607824	-4.0184489897	 3.1204317787	-0.303288
C	-1.3031108316	-0.5942506189	-0.0746537381	-0.212637
H	-0.566817668	 1.7674551647	 0.6997462006	 0.288579
H	 0.8053503868	-0.1811978261	-0.7840446379	 0.099406
H	 0.7803591824	-1.5498327985	 1.2981639113	 0.093731
H	 0.6549015967	 0.0045483267	 2.1815800005	 0.108713
H	-1.4569570794	-2.8752872385	 1.4809212855	 0.099257
H	-1.4133237925	-2.0207238842	 3.0314592	 0.127095
H	-3.6425272279	-0.9984318932	 2.5583699889	 0.159587
H	-3.700670244	-1.8008390403	 0.9921061669	 0.155361
H	-2.1369880554	 0.0104114207	-0.4465773476	 0.107052
H	-1.2725973529	-1.5508989314	-0.6223290373	 0.092146
52.2696	76.7024	98.1963	127.7532	226.5777	315.8776	346.8809	386.574	403.4125	428.5576	444.4395	522.0322	737.2938	784.0245	844.3449	857.9759	930.5304	951.4405	1000.1733	1016.6934	1025.7467	1049.2097	1111.8824	1125.246	1139.0475	1175.3252	1219.3144	1241.4597	1254.7138	1272.5121	1306.2711	1317.1445	1322.1597	1333.8527	1405.3278	1441.5706	1468.8745	1489.2722	1495.9183	1520.078	2364.2283	2926.9855	2965.53	2978.343	3047.098	3065.7929	3067.4084	3067.7289	3094.1941	3119.6665	3797.4684
OC1CN(CCC#N)C1	OC1CN(CCC#N)C1	
InChI=1S/C6H10N2O/c7-2-1-3-8-4-6(9)5-8/h6,9H,1,3-5H2	InChI=1S/C6H10N2O/c7-2-1-3-8-4-6(9)5-8/h6,9H,1,3-5H2
