15
gdb 17879	3.2328	2.13358	2.07784	2.1237	61.08	-0.2483	-0.0125	0.2358	742.9138	0.121271	-399.778742	-399.772524	-399.77158	-399.808996	24.224	
O	 0.0008998813	 0.0263405986	-0.0313440027	-0.318412
C	-0.0130671146	 1.2139038285	 0.0873582062	 0.440908
C	-1.0826429453	 2.3261599196	 0.0028991617	-0.15804
C	-1.2153494598	 3.0031341398	 1.3685755158	-0.054871
O	-0.0045881155	 2.8819086973	 2.1062574869	-0.264426
C	 1.1795867425	 3.0349647315	 1.3322308116	-0.054869
C	 1.0235565527	 2.3541249591	-0.0290497663	-0.158041
N	-0.0513367801	 3.1195411571	-0.767815628	-0.320334
H	-2.0387776951	 2.1462080634	-0.491116774	 0.097171
H	-1.4868729412	 4.0575901938	 1.2127867472	 0.108258
H	-1.9862504014	 2.519875102	 1.9759221599	 0.121284
H	 1.4181457243	 4.0961994732	 1.168688451	 0.108259
H	 1.9811258994	 2.5726125542	 1.915720373	 0.121281
H	 1.9687111047	 2.1994162447	-0.5519032544	 0.097171
H	-0.0618872718	 2.8072470272	-1.7377189479	 0.234661
142.4911	226.7678	273.7473	439.4345	459.245	495.3609	535.9085	649.0388	800.6562	838.6076	845.9812	863.36	913.4553	946.6379	1003.4696	1021.5642	1061.4793	1064.6362	1120.6764	1126.3162	1149.5594	1212.7171	1222.8853	1264.4159	1306.7144	1333.6131	1356.4725	1383.8536	1411.6693	1486.7404	1498.0058	1896.4691	2998.2797	3004.3319	3088.9189	3090.7254	3111.7198	3112.3654	3473.3753
O=C1C2COCC1N2	O=C1[C@H]2COC[C@@H]1N2	
InChI=1S/C5H7NO2/c7-5-3-1-8-2-4(5)6-3/h3-4,6H,1-2H2	InChI=1S/C5H7NO2/c7-5-3-1-8-2-4(5)6-3/h3-4,6H,1-2H2/t3-,4+
