14
gdb 67773	3.41312	1.69688	1.40507	3.6495	65.6	-0.2246	-0.0261	0.1985	891.1523	0.10077	-436.647431	-436.640689	-436.639745	-436.678228	27.197	
O	-0.0446008415	 1.3290138734	-0.0139956043	-0.465461
C	-0.0090016787	-0.0459259249	-0.0617079462	 0.389481
C	 0.9304896248	-0.8028140886	-0.9633678582	-0.185739
C	 0.4258953496	-2.0256190994	-1.1200528586	-0.075995
N	-0.7879127613	-2.1926428504	-0.3261256657	-0.212543
C	-1.2663055381	-0.7989802924	-0.0323046956	-0.069642
C	-0.4897237124	-0.7989374266	 1.2830326343	-0.306227
C	-0.3048075801	-2.2505814302	 1.0982009848	 0.440997
O	 0.0331128795	-3.1993288424	 1.7317712685	-0.312905
H	 0.7810729087	 1.6495167039	 0.3655222961	 0.299461
H	 1.8308648409	-0.3865554305	-1.3919046527	 0.117458
H	 0.8272074976	-2.8829700242	-1.6403011709	 0.134716
H	-2.279414893	-0.4786396707	-0.238962285	 0.12507
H	-0.626335016	-0.2150682269	 2.1826805837	 0.121328
150.0312	249.7757	300.1714	370.0535	376.8122	425.8936	546.1661	595.16	617.2913	693.5894	742.2735	801.3704	826.8607	847.8122	866.565	875.7121	901.5433	906.592	955.2755	1000.884	1041.0533	1094.3725	1122.4708	1143.9099	1206.2988	1251.328	1263.6147	1349.4437	1446.0588	1637.5252	1913.8722	3200.1414	3220.7104	3230.9556	3256.7963	3804.3403
OC12C=CN3C1C2C3=O	O[C@]12C=CN3[C@H]1[C@H]2C3=O	
InChI=1S/C6H5NO2/c8-5-3-4-6(3,9)1-2-7(4)5/h1-4,9H	InChI=1S/C6H5NO2/c8-5-3-4-6(3,9)1-2-7(4)5/h1-4,9H/t3-,4-,6-/m0/s1
