19
gdb 106550	1.98664	1.59462	1.16486	0.9735	71.66	-0.2444	0.0624	0.3067	1143.8766	0.157361	-460.088841	-460.079705	-460.078761	-460.122471	34.539	
C	-0.0484458046	 1.585621416	 0.0011173757	-0.435707
C	-0.0265588504	 0.06881476	-0.0119614462	-0.02794
C	 1.2576106956	-0.6621146861	-0.4969873277	 0.003222
O	 1.9582549464	-0.2404149948	 0.7407292683	-0.35901
C	 0.6103778621	-0.695740145	 1.1884587842	 0.325784
C	 0.3632636525	-0.6403035371	 2.6659463856	-0.204352
O	 1.3214217788	-1.4118313734	 3.3687139282	-0.417143
C	 0.832148018	-1.9351904277	 0.2595082667	 0.097218
O	-0.2505078791	-2.6575175464	-0.2534810792	-0.431719
H	 0.8988844403	 1.983911114	 0.3710201965	 0.134058
H	-0.2195147331	 1.9771753432	-1.00735367	 0.117318
H	-0.8572978214	 1.9615155353	 0.6368960827	 0.115655
H	-0.9561095324	-0.3730303363	-0.3769067766	 0.093617
H	 1.8043813495	-0.5629633052	-1.4350436601	 0.09374
H	 0.35840035	 0.4093123396	 3.0006549442	 0.102422
H	-0.6218799309	-1.0641958248	 2.8916586508	 0.114755
H	 2.1850249375	-1.14500934	 3.0314271008	 0.29607
H	 1.6734949985	-2.5613510783	 0.5711663013	 0.087566
H	-0.4489879872	-3.3748589628	 0.3564061349	 0.294446
80.7411	143.8851	203.6125	222.1451	225.2078	242.1052	272.273	352.8793	391.5334	435.0253	462.0303	602.0147	643.7225	698.0116	741.5656	797.3154	829.6403	880.2406	946.1296	988.1426	1017.9854	1057.9954	1076.31	1093.255	1117.4049	1140.5632	1162.2669	1197.9509	1220.8004	1227.1541	1241.3819	1284.9533	1322.7465	1366.673	1393.6479	1410.7322	1429.6194	1445.3754	1493.1794	1496.389	1505.9989	2981.1846	3036.9622	3066.782	3071.9851	3093.4549	3095.6941	3118.9049	3131.3982	3792.5386	3824.0182
CC1C2OC1(CO)C2O	C[C@H]1[C@H]2O[C@]1(CO)[C@H]2O	
InChI=1S/C6H10O3/c1-3-4-5(8)6(3,2-7)9-4/h3-5,7-8H,2H2,1H3	InChI=1S/C6H10O3/c1-3-4-5(8)6(3,2-7)9-4/h3-5,7-8H,2H2,1H3/t3-,4+,5-,6-/m0/s1
