17
gdb 71369	2.99302	2.02458	1.60593	2.554	70.51	-0.2383	0.066	0.3044	862.171	0.139028	-417.907946	-417.901741	-417.900797	-417.938074	26.887	
O	 0.1222510758	 1.3893060194	 0.107288735	-0.475406
C	 0.0635067122	 0.0190780265	 0.0419432152	 0.389463
C	 0.6576111647	-0.9787391641	 1.0298313751	-0.225825
N	 0.0090309517	-1.9056866595	-0.0042611098	-0.166765
C	-1.1878013796	-0.915436981	-0.0224838518	-0.067107
C	-1.7278619741	-0.9174157106	-1.4371428921	-0.055075
N	-1.3047178839	 0.298193293	-2.1887332421	-0.364452
C	-0.4671147043	-0.9344842884	-2.2125793832	-0.055074
C	 0.5518338223	-0.9389865254	-1.0924668262	-0.067106
H	-0.3570991853	 1.6924542803	-0.6787160932	 0.291309
H	 1.7456897983	-1.0723921962	 1.0781025705	 0.102555
H	 0.2082681245	-1.0515797444	 2.0237132011	 0.102555
H	-1.8685729562	-1.0009418761	 0.8245822385	 0.07451
H	-2.6254783082	-1.4477548425	-1.7288947348	 0.103491
H	-1.837153572	 0.3476743453	-3.0554938024	 0.234926
H	-0.3331756566	-1.4787882041	-3.1388016558	 0.10349
H	 1.6129920505	-1.048075372	-1.3167987442	 0.07451
231.0138	265.9467	402.1296	446.929	464.1738	527.0145	550.5265	666.3812	713.4326	734.2367	787.9924	813.6347	819.5316	866.0065	890.6399	917.6122	936.3585	983.1798	995.8305	1021.0839	1031.2424	1037.4862	1091.1248	1109.963	1131.5916	1135.2659	1148.5631	1177.0163	1224.7161	1250.2061	1280.2283	1291.5204	1352.1673	1369.5271	1385.5715	1421.0753	1533.012	3055.4391	3117.4467	3120.3502	3122.6956	3191.3234	3201.4042	3487.9661	3725.6844
OC12CN3C1C1NC1C23	O[C@@]12CN3[C@@H]1[C@H]1N[C@H]1[C@@H]23	
InChI=1S/C6H8N2O/c9-6-1-8-4(6)2-3(7-2)5(6)8/h2-5,7,9H,1H2	InChI=1S/C6H8N2O/c9-6-1-8-4(6)2-3(7-2)5(6)8/h2-5,7,9H,1H2/t2-,3+,4+,5-,6-
