15
gdb 48809	2.2402	1.54066	1.13738	5.9104	72.48	-0.2697	-0.0499	0.2198	1080.1297	0.112498	-416.783457	-416.775565	-416.774621	-416.816314	28.844	
O	-0.1396205869	 0.0226953177	 0.171161411	-0.257262
C	-0.0141246449	 1.2126471373	 0.0148499558	 0.05984
C	 1.2769452815	 1.9071897033	-0.0123148575	 0.245674
N	 1.4390485179	 3.3407101862	 0.316978075	-0.344107
C	 1.7374399578	 2.9194247569	-1.0436876833	-0.094997
C	 3.1509536462	 2.3272079368	-1.0375740011	-0.232237
C	 2.671187786	 1.2620404512	 0.0251914456	-0.211455
C	 3.3596976785	 1.2227211363	 1.3063050391	 0.292234
N	 3.9222562446	 1.1887144913	 2.3150116191	-0.326085
H	-0.8906478091	 1.8827151942	-0.1505425758	 0.072159
H	 0.5142036016	 3.772031038	 0.339310499	 0.247248
H	 1.1834357485	 3.3018125615	-1.892139794	 0.124086
H	 3.4337509118	 1.8574795049	-1.9797858279	 0.130424
H	 3.9318957267	 3.012161849	-0.7053278604	 0.143446
H	 2.6343074899	 0.2581208955	-0.4022398047	 0.151034
85.2111	132.9666	145.0014	217.0438	266.2076	354.4948	456.7535	484.1044	528.2797	573.7515	680.2895	759.9716	806.3002	840.6495	906.9913	931.9917	1000.6738	1007.5805	1043.0157	1063.4539	1086.3292	1104.5898	1157.6099	1195.0397	1232.4719	1285.2773	1318.9899	1364.1392	1397.8194	1435.8548	1475.5496	1804.6394	2362.914	2854.344	3090.5809	3104.8193	3155.6867	3198.7387	3470.9968
O=CC12NC1CC2C#N	O=C[C@]12N[C@H]1C[C@H]2C#N	
InChI=1S/C6H6N2O/c7-2-4-1-5-6(4,3-9)8-5/h3-5,8H,1H2	InChI=1S/C6H6N2O/c7-2-4-1-5-6(4,3-9)8-5/h3-5,8H,1H2/t4-,5-,6+/m0/s1
