17
gdb 64567	2.9817	1.5648	1.28943	1.8885	68.63	-0.2408	-0.0471	0.1937	994.9211	0.136236	-458.939291	-458.931891	-458.930946	-458.970991	29.43	
O	-0.0229552242	 1.3987636528	 0.0420707999	-0.50198
C	 0.0249121985	 0.0050324429	 0.0207211907	 0.364758
C	 0.9254849077	-0.4908269244	 1.1206647266	 0.0768
O	 1.4363915461	 0.2844658526	 1.899649694	-0.281828
C	-1.4037123041	-0.652610563	-0.2152463828	-0.13076
C	-1.2279854957	-0.2104134589	-1.7045143046	-0.250238
C	 0.2290289136	-0.6257778461	-1.4092206552	 0.041027
O	 0.1523447855	-2.0343776515	-1.1552706518	-0.279427
C	-1.0464400725	-2.1320410544	-0.3403758167	-0.099431
H	 0.5285314315	 1.6566619135	 0.7991873843	 0.294421
H	 1.125499867	-1.573686353	 1.1704850077	 0.121428
H	-2.2560318437	-0.3637213495	 0.3971875133	 0.089576
H	-1.7570979335	-0.781823253	-2.4706803497	 0.101821
H	-1.3487559179	 0.8615652468	-1.8414981042	 0.140918
H	 1.0864116685	-0.3989456618	-2.0401295564	 0.095241
H	-0.8157486686	-2.6332667516	 0.6053192144	 0.105657
H	-1.8130852882	-2.7136350114	-0.8656946896	 0.112018
101.2899	198.6677	248.0966	343.1614	360.9435	416.2209	429.288	501.715	517.566	532.2299	652.6899	818.2056	833.3114	851.4363	898.5388	913.1608	940.7829	965.4597	1002.2121	1013.1723	1043.7026	1060.544	1106.9013	1116.5417	1149.1581	1182.6189	1215.6839	1227.7205	1257.3026	1269.41	1304.4504	1367.9516	1385.2012	1445.6709	1487.8112	1539.376	1787.3008	3003.7161	3029.7586	3071.2182	3080.8634	3140.441	3147.3321	3175.5764	3666.484
OC1(C=O)C2CC1OC2	O[C@@]1(C=O)[C@H]2C[C@@H]1OC2	
InChI=1S/C6H8O3/c7-3-6(8)4-1-5(6)9-2-4/h3-5,8H,1-2H2	InChI=1S/C6H8O3/c7-3-6(8)4-1-5(6)9-2-4/h3-5,8H,1-2H2/t4-,5-,6-/m0/s1
