23
gdb 119898	2.75919	1.03992	0.95527	3.2573	82.9	-0.2327	0.0607	0.2934	1390.48	0.203734	-425.41537	-425.404705	-425.403761	-425.45053	39.805	
C	-0.1316861612	 1.5949597816	 0.0473037117	-0.45276
C	 0.0495686809	 0.0893394542	 0.0218568149	 0.276455
C	-0.93850342	-0.6406854385	-0.8691210452	-0.450669
C	 1.4526075235	-0.4692081953	 0.1042452034	 0.065182
O	 2.516971805	 0.4212171078	 0.2211084038	-0.435889
C	 0.5073159886	-0.6519875186	 1.275979921	-0.089705
C	 0.7678475678	 0.0290299716	 2.6063802757	-0.236477
C	 1.8292161576	-0.6773855991	 3.4465202528	-0.072989
O	 3.1016754629	-0.5026878054	 2.815529257	-0.410413
H	 0.7246513531	 2.0963342359	 0.499713358	 0.135266
H	-0.2254212185	 1.9765566138	-0.9760290646	 0.110604
H	-1.0406589852	 1.8816635976	 0.5892643532	 0.102954
H	-0.8811861325	-0.2743773785	-1.9011421338	 0.113679
H	-0.7457479062	-1.7183897885	-0.887368706	 0.107365
H	-1.9686268064	-0.4945920631	-0.5216059805	 0.109879
H	 1.667593776	-1.3503151702	-0.5041447912	 0.066846
H	 3.0070329713	 0.1597613438	 1.0162620431	 0.294123
H	 0.0950323347	-1.6541954734	 1.385918517	 0.067905
H	 1.0863293465	 1.0651420251	 2.4646370813	 0.119816
H	-0.1584210831	 0.0631672886	 3.1937983155	 0.09909
H	 1.8522372538	-0.2496167029	 4.4595631851	 0.092681
H	 1.5896125785	-1.7471042212	 3.5383643162	 0.092637
H	 3.7377464727	-1.1024490353	 3.2142297816	 0.294419
72.469	132.0979	165.3889	178.3188	192.6012	213.1079	231.0507	244.8003	283.883	303.8316	361.2084	429.7317	492.3169	515.8176	591.9027	616.6318	705.3943	796.626	842.0687	884.8389	946.9137	972.771	994.4236	1008.0536	1019.1065	1052.8877	1082.5676	1103.2565	1143.9243	1168.0357	1181.5792	1205.2604	1257.3562	1273.3136	1310.9885	1325.4004	1343.921	1380.6558	1406.712	1414.5639	1422.499	1444.3419	1456.3129	1472.3321	1484.3824	1491.7906	1503.2979	1512.6739	1519.6242	2984.1751	3016.532	3017.9715	3026.7896	3036.5042	3066.8892	3075.8065	3079.2485	3091.8102	3097.1692	3113.5931	3140.9842	3683.8806	3844.599
CC1(C)C(O)C1CCO	CC1(C)[C@@H](O)[C@H]1CCO	
InChI=1S/C7H14O2/c1-7(2)5(3-4-8)6(7)9/h5-6,8-9H,3-4H2,1-2H3	InChI=1S/C7H14O2/c1-7(2)5(3-4-8)6(7)9/h5-6,8-9H,3-4H2,1-2H3/t5-,6+/m1/s1
