16
gdb 49085	2.92789	1.79397	1.28138	4.8878	69.49	-0.2365	-0.0276	0.2089	957.9374	0.125353	-437.815253	-437.808442	-437.807498	-437.846553	26.779	
O	-0.0181239515	-0.035808003	 0.1464920321	-0.25232
C	 0.0386186775	 1.15138143	-0.0475849145	 0.063253
C	 1.3062990313	 1.9458333702	-0.0479678032	 0.413229
O	 2.4665988965	 1.2102352643	 0.1987416733	-0.308885
C	 3.5101183224	 2.2044533718	 0.1409878346	-0.114985
C	 2.7012926729	 3.4548645232	-0.1555695054	-0.084492
C	 1.558013878	 3.0466429657	-1.143890966	-0.10827
N	 0.5448443772	 3.9266801206	-0.462885188	-0.337292
C	 1.3678296578	 3.3509267499	 0.6578060651	-0.108271
H	-0.8578502582	 1.7706043295	-0.247229609	 0.112149
H	 4.0397413564	 2.2416197376	 1.0998567809	 0.116096
H	 4.2243851031	 1.9462168448	-0.6492318091	 0.116098
H	 3.2000787791	 4.4185432964	-0.2656703598	 0.083177
H	 1.5984087939	 2.9152047464	-2.2257055902	 0.096703
H	 0.80485212	 4.9065393816	-0.6009236373	 0.217111
H	 1.1831719236	 3.579550751	 1.7079792664	 0.096699
106.5032	200.7088	250.7554	324.4252	385.3223	444.6225	545.2004	650.9371	725.7784	738.6174	783.3917	797.6066	896.1818	903.9418	933.7612	956.3762	989.0901	1024.4444	1042.6475	1045.8644	1094.1877	1115.2873	1133.6963	1155.7492	1178.5316	1217.3978	1241.0553	1259.4552	1285.2913	1314.8828	1333.9301	1371.4541	1423.4096	1519.8448	1826.0515	2948.0305	3031.1095	3072.2988	3111.355	3112.5114	3123.9914	3407.8865
O=CC12OCC3C1NC23	O=C[C@@]12OC[C@H]3[C@@H]1N[C@@H]23	
InChI=1S/C6H7NO2/c8-2-6-4-3(1-9-6)5(6)7-4/h2-5,7H,1H2	InChI=1S/C6H7NO2/c8-2-6-4-3(1-9-6)5(6)7-4/h2-5,7H,1H2/t3-,4-,5+,6+
