17
gdb 34974	4.24579	1.38458	1.32836	4.3216	75.82	-0.248	0.0089	0.2569	982.9752	0.139461	-380.821744	-380.815278	-380.814334	-380.852539	26.484	
N	-0.0666896051	-1.2271234637	-0.2391329583	-0.331542
C	-0.0265735648	-0.0778631761	-0.1194066718	 0.282457
C	-0.0031102849	 1.3706520374	 0.0483351376	-0.114014
C	-0.2239294349	 2.0349614366	 1.4083363179	-0.060682
C	 1.0874500193	 1.8137488395	 2.2889330483	-0.061403
C	 1.3168546587	 3.3481991917	 2.2227206552	-0.240813
C	 0.6412537335	 3.2018683832	 0.8614592181	 0.013074
N	 1.3477441315	 2.080177498	 0.0209395964	-0.161699
C	 2.0319008665	 1.3738533343	 1.1546983408	-0.176585
H	-0.6434534446	 1.8214278891	-0.7159473851	 0.128333
H	-1.1877367115	 2.1403050806	 1.9043768978	 0.087554
H	 1.0720400373	 1.2631459783	 3.2270757296	 0.08334
H	 0.6616637082	 3.9061495701	 2.8977474767	 0.110848
H	 2.3403123767	 3.7258975118	 2.2945876111	 0.107846
H	 0.2795873486	 4.0195218989	 0.2412008009	 0.089368
H	 3.0489764575	 1.7529744794	 1.2758615586	 0.109703
H	 2.0785018279	 0.300271391	 0.9667356362	 0.134215
132.4243	163.7235	367.9211	407.1385	491.8575	515.5761	551.5122	706.131	717.7051	761.5713	828.4285	837.4106	850.8926	912.3071	915.6721	944.9457	964.6424	971.1082	1007.6515	1018.0646	1058.8638	1072.0221	1100.9727	1131.1335	1160.7158	1197.0349	1208.2494	1216.8927	1244.4839	1253.6122	1273.8446	1297.6375	1328.317	1374.7483	1491.8172	1527.3934	2351.9413	3056.494	3070.7645	3077.5021	3113.8374	3125.9666	3129.9833	3140.3474	3145.0223
N#CC1C2C3CC2N1C3	N#C[C@H]1[C@H]2[C@@H]3C[C@H]2N1C3	
InChI=1S/C7H8N2/c8-2-6-7-4-1-5(7)9(6)3-4/h4-7H,1,3H2	InChI=1S/C7H8N2/c8-2-6-7-4-1-5(7)9(6)3-4/h4-7H,1,3H2/t4-,5-,6+,7+/m1/s1
