21
gdb 122382	4.55652	0.7372	0.72417	1.6745	80.04	-0.2357	0.08	0.3156	1674.033	0.181438	-424.167211	-424.157882	-424.156937	-424.202622	33.727	
C	-0.1718786529	 1.4456008147	-0.2113544263	-0.384509
C	 0.0656243617	-0.0419517617	-0.0125734971	-0.02337
O	 0.6935771104	-0.5560936972	-1.1681485932	-0.247024
C	 0.9546879874	-1.9430948366	-1.0876599471	-0.086793
C	 1.5916781274	-2.3701148333	-2.3833985377	-0.044388
C	 1.7573742031	-3.8086921435	-2.8413473059	-0.166943
C	 0.4950071768	-4.613104227	-2.5475466209	-0.092426
O	-0.3461261083	-3.5985206958	-3.1587004979	-0.282579
C	 0.8149037427	-2.8656648602	-3.5630113416	 0.095299
H	 0.7758954828	 1.9674670978	-0.3719001118	 0.124092
H	-0.8091907251	 1.6177665794	-1.0832870776	 0.12762
H	-0.6610202507	 1.8755380178	 0.6679018679	 0.112544
H	 0.6974594706	-0.2173048455	 0.8757288697	 0.081008
H	-0.8890398842	-0.5655076251	 0.1667626249	 0.086347
H	 1.6272968471	-2.156502213	-0.2386709863	 0.08078
H	 0.0202616856	-2.4991248498	-0.9207115923	 0.101688
H	 2.4418992768	-1.7548675833	-2.6704890244	 0.098434
H	 2.7109555721	-4.2229988474	-3.1394748588	 0.098924
H	 0.4410630313	-5.5451399664	-3.1214581114	 0.11081
H	 0.2270482925	-4.809883838	-1.5029081679	 0.106027
H	 0.8156976628	-2.429112746	-4.5550200944	 0.104459
41.7317	72.9355	112.5701	124.4648	224.1578	243.0373	254.4273	366.046	398.3347	501.2138	612.524	748.1546	788.4347	809.2839	821.9585	887.4905	919.8381	961.8374	977.6909	1003.6622	1023.6614	1040.5874	1055.7237	1062.8244	1083.0796	1130.3961	1139.1892	1160.2949	1167.6326	1186.1395	1205.0586	1260.6114	1276.3496	1297.059	1311.6744	1346.6525	1385.8989	1403.3682	1431.465	1468.2401	1483.5313	1499.001	1507.2885	1519.0148	1535.9738	2944.7337	2955.9533	2973.0836	3010.3108	3025.3211	3044.3939	3071.2751	3118.3136	3121.3004	3141.6925	3181.1867	3203.7965
CCOCC1C2COC12	CCOC[C@H]1[C@H]2CO[C@@H]12	
InChI=1S/C7H12O2/c1-2-8-3-5-6-4-9-7(5)6/h5-7H,2-4H2,1H3	InChI=1S/C7H12O2/c1-2-8-3-5-6-4-9-7(5)6/h5-7H,2-4H2,1H3/t5-,6+,7-/m0/s1
