16
gdb 15256	3.30484	1.4381	1.23259	3.7198	63.17	-0.2411	-0.0186	0.2224	1018.6973	0.1278	-420.843974	-420.83528	-420.834336	-420.877499	30.371	
C	 0.062140637	 1.130990796	-0.5101054248	-0.238169
O	-0.1798844097	 0.1300579565	 0.469038131	-0.232513
C	-1.3696964066	-0.5468870099	 0.2651391101	 0.083524
C	-1.4283995207	-1.6567294861	-0.733376443	 0.036644
O	-0.2836578972	-1.8702953082	-1.493525878	-0.404797
C	-1.4252171734	-1.9797462191	 0.7765142112	-0.22419
C	-0.2135914536	-2.5859107418	 1.3839003258	 0.165761
O	-0.26209708	-3.4374030988	 2.2406740082	-0.277201
H	 1.0002187311	 1.6172450678	-0.2348604229	 0.133035
H	 0.1548023416	 0.694289435	-1.5107406639	 0.135216
H	-0.7403979254	 1.8832481777	-0.5164274826	 0.107035
H	-2.2702870706	 0.0556751987	 0.3994137818	 0.099745
H	-2.3743811439	-1.8276653724	-1.2470661158	 0.10353
H	-0.2125329927	-2.8111363565	-1.6869565318	 0.300533
H	-2.3564431325	-2.3247363119	 1.2120109877	 0.110289
H	 0.7497745364	-2.210338087	 0.992167507	 0.101558
77.7136	110.2719	144.9911	176.4179	202.846	268.0858	311.1876	332.0283	440.4499	468.0397	588.7398	677.9404	768.6732	831.628	909.806	985.0369	1039.2105	1065.1451	1078.6046	1128.0893	1162.2903	1169.4135	1185.8416	1220.4132	1254.9803	1292.2721	1321.8929	1375.2306	1435.867	1458.3793	1486.0255	1487.9016	1506.3203	1804.7081	2963.3355	2995.7356	3072.2855	3079.9963	3102.3489	3130.7139	3180.1931	3806.4687
COC1C(O)C1C=O	CO[C@H]1[C@@H](O)[C@H]1C=O	
InChI=1S/C5H8O3/c1-8-5-3(2-6)4(5)7/h2-5,7H,1H3	InChI=1S/C5H8O3/c1-8-5-3(2-6)4(5)7/h2-5,7H,1H3/t3-,4+,5-/m1/s1
