18
gdb 91558	3.12874	1.24565	1.1231	1.1456	71.33	-0.2441	0.0578	0.3019	1137.773	0.147315	-439.004715	-438.996505	-438.995561	-439.037852	31.066	
O	 0.5966442126	 1.1099474833	-0.140053644	-0.427617
C	 0.0013202075	-0.1525297129	 0.014919989	 0.056942
C	-0.0668610268	-0.861272897	 1.3995473808	-0.20469
N	-1.5457680455	-1.1098296721	 1.255247202	-0.162321
C	-2.1498724167	 0.2298635613	 1.2044688669	-0.286068
C	-1.5202761917	-0.2885744703	-0.0316587626	 0.285394
C	-2.2979122482	-0.6515647937	-1.2502118536	-0.052342
C	-2.8525073558	-1.9993273158	-1.446651615	-0.173689
O	-3.6914236995	-0.897909781	-1.0793821042	-0.236035
H	 0.1239484077	 1.7367740112	 0.41788858	 0.280108
H	 0.4798737009	-0.7938690134	-0.729834683	 0.104294
H	 0.483883645	-1.8018315719	 1.452892949	 0.116331
H	 0.1891183239	-0.2418723148	 2.2662602739	 0.105035
H	-3.2341474926	 0.2084431945	 1.2180754394	 0.146484
H	-1.696090942	 1.0353081541	 1.7821410814	 0.097054
H	-2.0458743566	-0.0586227148	-2.1318983604	 0.100916
H	-3.0026889909	-2.3827884465	-2.4546062701	 0.115093
H	-2.6997429114	-2.7390361001	-0.6644944096	 0.135111
63.2509	128.7169	191.3905	195.2727	261.7634	333.9211	419.175	435.449	507.7647	611.0815	636.6029	711.6245	797.996	835.8573	864.4391	879.5402	916.0736	979.2952	1007.1546	1031.1914	1044.6272	1099.3713	1103.6546	1124.2425	1137.255	1160.2244	1170.2124	1195.8715	1208.8564	1251.0982	1278.8669	1297.2838	1305.9451	1366.1331	1432.7792	1451.5775	1482.8499	1505.3248	1517.8157	3044.5275	3081.5333	3085.4053	3088.3622	3095.0701	3121.2257	3191.8208	3207.6322	3806.536
OC1CN2CC12C1CO1	O[C@H]1CN2C[C@@]12[C@H]1CO1	
InChI=1S/C6H9NO2/c8-4-1-7-3-6(4,7)5-2-9-5/h4-5,8H,1-3H2	InChI=1S/C6H9NO2/c8-4-1-7-3-6(4,7)5-2-9-5/h4-5,8H,1-3H2/t4-,5+,6-,7?/m0/s1
