23
gdb 114511	2.37918	1.30992	0.99795	1.2701	85.22	-0.2572	0.0731	0.3303	1289.9871	0.206195	-388.255848	-388.246556	-388.245611	-388.29009	35.686	
C	 0.0413038421	 1.5709857159	-0.2071880715	-0.41885
C	 0.0128417858	 0.0616960344	-0.0022251266	 0.062277
C	 0.7315989484	-0.8890776192	-1.0057616978	-0.258585
C	 1.1826356735	-1.7911194565	 0.1815248035	 0.000288
C	 2.6527740242	-1.6003652552	 0.6180571676	-0.246479
C	 2.2203978775	-0.4270188497	 1.5517109653	 0.051859
C	 2.8972798655	 0.9153775571	 1.3447670618	-0.106443
O	 4.2185324076	 0.789700177	 1.8598908113	-0.425878
C	 0.7159176559	-0.6673204212	 1.1795671879	-0.093736
H	 1.0525934966	 1.9513724872	-0.3721854168	 0.113322
H	-0.5572317527	 1.8488033388	-1.0825803643	 0.110175
H	-0.3781732963	 2.0979593146	 0.6575362632	 0.112024
H	-1.0384970746	-0.2477916453	 0.0522359961	 0.074071
H	 0.0899006044	-1.356260538	-1.7572425	 0.094445
H	 1.5758000334	-0.4235909711	-1.526581807	 0.090399
H	 0.7672573918	-2.7994657922	 0.1996011965	 0.059259
H	 3.0729805646	-2.4502586134	 1.1612828534	 0.097881
H	 3.349524128	-1.3343398553	-0.1835856831	 0.092435
H	 2.3788070727	-0.6881908016	 2.6027239007	 0.083955
H	 2.9250065015	 1.1773623805	 0.2765641965	 0.083323
H	 2.3395684088	 1.7099217911	 1.8667407009	 0.083493
H	 4.6943644438	 1.6027898569	 1.6670435169	 0.28392
H	 0.0822855775	-0.8653365949	 2.0468397454	 0.056843
50.7515	116.6892	155.5509	213.5073	236.2671	262.9653	305.9913	349.017	366.0024	419.9302	559.0974	579.5063	729.6623	745.8146	812.6715	849.9349	871.8246	877.5063	915.8591	943.5812	987.2747	996.5593	1022.5182	1066.8042	1082.2148	1102.7174	1123.0238	1139.7685	1149.0081	1177.6243	1182.7343	1218.7912	1232.9865	1255.6404	1261.2914	1275.5336	1282.2205	1299.2099	1310.2414	1339.847	1361.2264	1381.291	1409.6962	1455.199	1481.9453	1492.6225	1495.3324	1500.555	1522.1432	2964.8503	2999.6813	3014.9258	3028.915	3038.8483	3046.1664	3051.9842	3075.904	3084.8818	3087.572	3096.0823	3107.6715	3116.2089	3827.2613
CC1CC2CC(CO)C12	C[C@H]1C[C@H]2C[C@@H](CO)[C@@H]12	
InChI=1S/C8H14O/c1-5-2-6-3-7(4-9)8(5)6/h5-9H,2-4H2,1H3	InChI=1S/C8H14O/c1-5-2-6-3-7(4-9)8(5)6/h5-9H,2-4H2,1H3/t5-,6-,7-,8-/m0/s1
