16
gdb 79698	2.88165	1.76668	1.42402	3.3024	67.47	-0.2367	-0.0129	0.2239	916.3191	0.126509	-437.840068	-437.833512	-437.832568	-437.870795	27.216	
O	 0.2738141086	 1.4192072684	-0.2625504361	-0.43859
C	 0.0557648422	 0.0720398894	-0.0424444972	 0.155757
C	 0.1863808529	-0.5874227345	 1.3887802452	-0.219436
C	-0.9633381033	 0.0248171596	 2.1916424891	-0.042083
N	-1.4920564204	 1.3152128528	 1.6774212287	-0.369144
C	-2.0725387262	 0.0394909068	 1.1827942625	-0.042082
C	-1.3908028115	-0.5665415718	-0.0457144532	-0.219437
C	-0.6480527304	-1.7231218331	 0.7052447585	 0.425982
O	-0.6557349079	-2.9121483174	 0.6963821872	-0.305078
H	-0.3023778852	 1.8748727848	 0.3775945078	 0.301235
H	 0.6884797721	-0.4769572755	-0.7460884571	 0.106711
H	 1.1448952777	-0.7610310183	 1.8698909396	 0.088661
H	-1.1161274438	-0.2338995443	 3.2319479668	 0.112658
H	-2.1191012349	 1.711780516	 2.3726088427	 0.243526
H	-3.0974008975	-0.2076907838	 1.4299250943	 0.112657
H	-1.9627602723	-0.719887039	-0.9565971788	 0.088661
146.5569	284.5884	300.461	326.6735	468.1367	556.4271	562.1718	674.8544	679.113	703.3706	731.0003	752.481	799.6211	821.2486	855.7984	888.0177	942.9641	953.1631	1025.5873	1028.4313	1054.8496	1080.9467	1104.3616	1117.906	1158.3763	1179.4769	1188.2057	1218.6932	1253.8578	1283.1103	1332.6073	1347.226	1410.8663	1505.0119	1916.3258	3070.6486	3160.9788	3162.7555	3189.5597	3198.1254	3510.8215	3585.7496
OC1C2C3NC3C1C2=O	O[C@H]1[C@H]2[C@H]3N[C@H]3[C@@H]1C2=O	
InChI=1S/C6H7NO2/c8-5-1-3-4(7-3)2(5)6(1)9/h1-5,7-8H	InChI=1S/C6H7NO2/c8-5-1-3-4(7-3)2(5)6(1)9/h1-5,7-8H/t1-,2+,3-,4+,5+
