17
gdb 78634	5.72436	0.94433	0.92148	3.8056	73.84	-0.2415	-0.0232	0.2183	1258.1134	0.135254	-421.749179	-421.74152	-421.740576	-421.781615	29.245	
O	 0.1192831291	 1.4617967382	-0.1060907771	-0.440688
C	 0.0970988183	 0.0577586988	-0.0278836285	 0.107922
C	 0.0088386161	-0.6044362852	 1.3632745633	-0.094016
C	-1.4996671508	-0.2077860389	 1.5245443385	-0.055343
C	-1.9000023253	-1.6642102218	 1.8929960378	-0.1077
C	-3.2925535088	-2.1134864435	 1.5708968692	 0.148896
O	-3.9931846315	-2.7550039637	 2.3148003303	-0.259674
C	-0.8167216696	-1.8035430885	 0.7878794125	-0.074607
C	-1.3115969926	-0.5393404105	-0.0006544468	-0.071297
H	 1.0278448294	 1.7598883991	 0.0013167595	 0.286151
H	 0.8025062566	-0.4042900265	-0.7343446169	 0.066495
H	 0.7457865787	-0.6633238147	 2.1656816999	 0.07674
H	-1.8863890742	 0.719407497	 1.9425048693	 0.094686
H	-1.6155692666	-2.00586442	 2.89270587	 0.083495
H	-3.6619861649	-1.8101182298	 0.5638677709	 0.068056
H	-0.4142808323	-2.7195462971	 0.3545383701	 0.084261
H	-2.0725384615	-0.5055328531	-0.779203842	 0.086625
75.9354	144.9449	192.3259	267.3661	291.1495	360.81	421.135	495.0684	584.0188	749.0788	799.2166	840.3546	849.7338	856.523	911.1058	921.04	946.8858	977.1586	1003.2754	1044.6327	1091.1381	1102.7309	1111.2056	1126.1095	1144.5496	1151.699	1162.588	1186.1905	1207.1265	1218.0058	1261.0826	1292.8893	1315.6013	1334.1837	1436.7559	1440.6468	1821.8055	2862.6916	2994.983	3075.3948	3102.28	3112.0855	3124.2571	3140.8917	3820.8975
OC1C2C3C(C=O)C2C13	O[C@H]1[C@H]2[C@@H]3[C@@H](C=O)[C@H]2[C@H]13	
InChI=1S/C7H8O2/c8-1-2-3-5-4(2)6(3)7(5)9/h1-7,9H	InChI=1S/C7H8O2/c8-1-2-3-5-4(2)6(3)7(5)9/h1-7,9H/t2-,3-,4+,5-,6+,7-/m1/s1
