17
gdb 84645	2.20176	1.85416	1.42156	3.9338	74.02	-0.2331	-0.0335	0.1996	978.9635	0.136832	-421.834569	-421.826718	-421.825774	-421.866811	30.3	
O	 0.0924801181	 1.3397147373	-0.2537938018	-0.428961
C	 0.0494558119	-0.0799327763	-0.0150797926	-0.045161
C	 0.7443428088	-0.4515799059	 1.2717662989	-0.137322
C	 0.0936650842	-0.5331440723	 2.4346568693	-0.041677
C	-1.3645353307	-0.3032208345	 2.5707105047	-0.083456
C	-1.9517956479	 1.0102385396	 2.1181422719	-0.29036
C	-2.1831865383	-0.2340653243	 1.2809199189	-0.133215
C	-1.44290725	-0.4641253263	 0.0126866653	 0.429482
O	-1.9591219388	-0.9863257439	-0.9493460571	-0.330766
H	 0.9862554108	 1.6382444049	-0.0522807054	 0.284509
H	 0.4882631596	-0.61039556	-0.8692607814	 0.094152
H	 1.819074609	-0.6098231264	 1.2288182393	 0.097613
H	 0.6379209138	-0.7667846159	 3.3460993893	 0.102679
H	-1.8458047718	-0.7850105799	 3.4150639704	 0.101569
H	-2.8131486581	 1.3938003464	 2.6532546386	 0.123822
H	-1.2727401958	 1.752390727	 1.719459932	 0.148558
H	-3.1777615649	-0.6639038694	 1.2834241396	 0.108535
98.505	159.6884	189.5016	246.4591	299.2174	347.8388	450.4255	464.6145	535.8927	598.1511	670.0947	753.6066	781.2098	782.6047	835.2535	898.6998	939.0584	953.455	977.9163	995.4278	1018.724	1043.7658	1086.8563	1110.146	1124.9755	1183.7687	1203.1213	1229.8123	1266.8571	1341.882	1367.6824	1382.7923	1403.905	1423.6637	1481.9899	1705.5457	1804.5549	3029.4668	3147.5504	3148.3759	3163.8009	3174.5144	3187.255	3252.086	3801.6836
OC1C=CC2CC2C1=O	O[C@H]1C=C[C@H]2C[C@H]2C1=O	
InChI=1S/C7H8O2/c8-6-2-1-4-3-5(4)7(6)9/h1-2,4-6,8H,3H2	InChI=1S/C7H8O2/c8-6-2-1-4-3-5(4)7(6)9/h1-2,4-6,8H,3H2/t4-,5+,6-/m0/s1
