13
gdb 25547	6.03385	0.85428	0.77353	2.5345	62.78	-0.2118	-0.0215	0.1903	1350.4838	0.089103	-489.949725	-489.941679	-489.940734	-489.983108	28.497	
O	 0.3403226575	-0.1166949557	-0.1790550726	-0.240647
C	 0.4765387911	 1.0426630478	-0.3916235741	 0.159954
O	 0.424336566	 1.9739339341	 0.6211816164	-0.216299
C	 0.6930820528	 3.2668130029	 0.2947184899	 0.380005
C	 1.7931245363	 3.8487295034	-0.2220701764	-0.204824
N	 1.5004303499	 5.2122268756	-0.3224533968	-0.335731
C	 0.2244219194	 5.5025933768	 0.1436495696	 0.460091
O	-0.3320635824	 6.5763155312	 0.2139152493	-0.418652
N	-0.2660742913	 4.2458646333	 0.5095811186	-0.402691
H	 0.664710045	 1.5211757207	-1.36834223	 0.105255
H	 2.7430260467	 3.4274886097	-0.4978981925	 0.154361
H	 2.119559537	 5.9318032916	-0.6507339331	 0.276541
H	-1.1714349881	 4.1073681187	 0.9237592216	 0.282637
55.4046	119.9457	159.7033	179.3309	331.1312	352.7426	389.3827	471.264	489.6484	542.7719	636.9356	702.922	735.4322	757.419	820.4569	971.1984	1028.6851	1038.0737	1076.9262	1101.3996	1181.1365	1260.4195	1355.1748	1389.0983	1396.3278	1441.8607	1695.5038	1856.6486	1889.6246	2997.4446	3296.8244	3692.3212	3698.5822
O=COC1=CNC(=O)N1	O=COc1c[nH]c(=O)[nH]1	
InChI=1S/C4H4N2O3/c7-2-9-3-1-5-4(8)6-3/h1-2H,(H2,5,6,8)	InChI=1S/C4H4N2O3/c7-2-9-3-1-5-4(8)6-3/h1-2H,(H2,5,6,8)
