20
gdb 9608	3.00941	1.45963	1.18703	0.8944	82.31	-0.2374	0.0507	0.2881	1110.8609	0.174594	-311.835529	-311.826181	-311.825236	-311.869085	35.063	
C	-0.3143146506	 1.5014728349	 0.0726847984	-0.382513
C	 0.2442754343	 0.0810854938	-0.0785842962	-0.247374
C	 0.8325850807	-0.4862583406	 1.2047787264	 0.356947
C	 2.0827382284	 0.2061034082	 1.7161980122	-0.459801
C	-0.1137513968	-1.0604322978	 2.222950945	-0.320361
C	 0.7795550721	-2.0020953531	 1.4218022359	-0.259544
C	 0.217507955	-2.8945104637	 0.4519319887	 0.332105
C	-0.2409869238	-3.6566521772	-0.3593169955	-0.458123
H	 0.4647743066	 2.2213683986	 0.3423479056	 0.116038
H	-0.7645291979	 1.8415595132	-0.8649458377	 0.113061
H	-1.0861277843	 1.5407140268	 0.8488510462	 0.116299
H	-0.5481154204	-0.58630053	-0.431609789	 0.110706
H	 1.0169658506	 0.0711578993	-0.8588157647	 0.096638
H	 1.8844043509	 1.2532363084	 1.968879236	 0.12131
H	 2.4669515984	-0.2805761405	 2.6181206802	 0.113771
H	 2.8776469573	 0.1896372006	 0.9616718241	 0.119469
H	 0.1106560209	-0.9411533906	 3.2776807189	 0.112046
H	-1.171623895	-1.0777700495	 1.9851834236	 0.121028
H	 1.626666455	-2.4141977953	 1.9638501843	 0.107077
H	-0.6463776414	-4.3281342954	-1.0745647226	 0.191221
79.8726	124.2274	140.3768	203.5813	221.6004	250.9105	316.4623	357.032	370.2042	418.6345	529.5113	569.8187	601.6933	645.6288	684.1182	780.9838	793.577	862.999	910.1919	938.9601	998.0689	1021.4267	1030.7318	1069.21	1082.8379	1116.6028	1123.7432	1145.7377	1250.2014	1307.0709	1327.2588	1376.9624	1402.8869	1409.4312	1420.6543	1478.3582	1482.6278	1494.4602	1499.2071	1506.0019	1509.8913	2230.9876	3022.244	3026.9033	3035.1183	3074.9404	3089.8426	3097.6218	3103.9629	3107.4383	3131.5806	3137.5791	3221.0408	3505.0085
CCC1(C)CC1C#C	CC[C@@]1(C)C[C@H]1C#C	
InChI=1S/C8H12/c1-4-7-6-8(7,3)5-2/h1,7H,5-6H2,2-3H3	InChI=1S/C8H12/c1-4-7-6-8(7,3)5-2/h1,7H,5-6H2,2-3H3/t7-,8+/m1/s1
