18
gdb 84171	2.98866	1.36443	0.96322	4.4884	77.5	-0.2127	0.004	0.2167	1218.6691	0.147539	-439.140282	-439.131201	-439.130256	-439.174621	32.318	
C	-0.0235474566	 1.4709887494	-0.0545511524	-0.349875
N	 0.0130376671	 0.0212732325	 0.0774508231	-0.169597
C	-1.1893632371	-0.6966627409	 0.0590157831	-0.048255
C	-1.2389310499	-2.0046940611	 0.3054450847	 0.195116
C	-2.4894982477	-2.827818307	 0.2928370562	-0.482924
C	 0.0674507803	-2.6616681305	 0.6443463637	-0.165507
O	 1.1974158633	-1.974352583	 0.082828252	-0.247351
C	 1.2377145672	-0.6225089592	 0.0112681173	 0.478917
O	 2.2898665092	-0.0543799053	-0.1448474956	-0.387001
H	 1.0023568064	 1.8333395461	-0.051843098	 0.17662
H	-0.5053468535	 1.767228703	-0.9940845338	 0.12905
H	-0.5738636477	 1.9176901451	 0.7799396855	 0.129436
H	-2.0662395859	-0.1049749603	-0.1803113787	 0.110477
H	-3.3682913601	-2.2116461665	 0.0841837104	 0.127287
H	-2.443828761	-3.620355171	-0.4654709468	 0.130337
H	-2.6527599093	-3.3266963339	 1.2575710207	 0.128064
H	 0.2087197637	-2.7368000067	 1.7349208128	 0.117752
H	 0.1241484319	-3.6776855708	 0.2406429654	 0.127454
71.9853	78.8269	129.463	173.1601	197.3089	270.6782	298.7949	366.8997	445.0664	466.4917	491.4971	606.5232	648.3413	766.7287	828.2727	869.6446	909.8433	983.2419	1023.4635	1052.782	1083.9973	1105.9432	1137.3106	1159.5574	1208.3587	1258.2615	1294.2061	1353.6121	1395.6065	1419.9925	1436.325	1454.3813	1475.8311	1497.0264	1501.0533	1506.5046	1515.0138	1765.5296	1826.0025	2970.4279	3010.2002	3025.7649	3052.8729	3069.1743	3082.0282	3110.0071	3178.313	3189.7155
CN1C=C(C)COC1=O	CN1C=C(C)COC1=O	
InChI=1S/C6H9NO2/c1-5-3-7(2)6(8)9-4-5/h3H,4H2,1-2H3	InChI=1S/C6H9NO2/c1-5-3-7(2)6(8)9-4-5/h3H,4H2,1-2H3
