23
gdb 115341	3.23118	1.07134	0.90122	1.7588	81.93	-0.2371	0.0646	0.3018	1400.0203	0.205186	-425.439097	-425.42903	-425.428086	-425.474018	37.442	
C	-0.2356469516	 1.73028439	 0.2670235202	-0.389405
C	-0.0320562989	 0.2149060661	 0.3747698012	-0.196386
C	-1.2022049202	-0.5924671165	-0.1903277635	 0.003297
C	-1.4627698865	-0.4237528859	-1.6969330127	-0.070236
O	-2.1599589512	-1.5936197201	-2.1226873815	-0.285069
C	-2.1383751511	-2.5843761187	-1.0918926202	 0.149413
C	-1.9154778877	-3.9521690166	-1.7197975161	-0.430606
C	-1.066655358	-2.1193281132	-0.0865485035	 0.052167
O	 0.2545893931	-2.4681258192	-0.4761357429	-0.431265
H	 0.6055678732	 2.2715564924	 0.7108391187	 0.113013
H	-0.3203145142	 2.0528638528	-0.7761171324	 0.120303
H	-1.1468474209	 2.0487547055	 0.7863680181	 0.111467
H	 0.8854127973	-0.0803070168	-0.1433849993	 0.118727
H	 0.1100692474	-0.0588158275	 1.4277231092	 0.09228
H	-2.1190883763	-0.3191134011	 0.3494663417	 0.07385
H	-2.0737046078	 0.455519748	-1.9284303434	 0.097383
H	-0.514201744	-0.3377897528	-2.2466526967	 0.099002
H	-3.1108626183	-2.5831677686	-0.570040057	 0.06259
H	-0.9507469157	-3.9853814705	-2.233732545	 0.124919
H	-1.9524990669	-4.7437106691	-0.9622910778	 0.105676
H	-2.6957315894	-4.1558453986	-2.4576320552	 0.132182
H	-1.2836345544	-2.487530408	 0.9268155912	 0.05933
H	 0.3295624416	-3.4268569817	-0.4665519231	 0.28737
75.0568	100.458	118.0518	162.539	229.4757	231.7263	271.1075	299.4899	321.3894	341.2366	398.3185	469.8434	551.9266	661.6844	742.1108	782.8302	828.7042	862.4749	892.9013	954.6769	976.4278	986.7198	1018.263	1037.7638	1057.0854	1099.6307	1141.6257	1151.0429	1155.376	1184.8113	1207.9625	1244.6712	1281.5528	1297.8471	1339.1674	1341.6362	1358.1987	1379.5795	1385.5233	1393.6469	1411.84	1414.787	1425.4617	1487.1473	1489.1459	1501.3309	1506.9593	1508.0343	1525.7552	2948.0867	2993.5128	2999.9449	3017.4481	3029.5415	3031.4356	3035.277	3058.7036	3079.0049	3102.0972	3103.3851	3108.0086	3124.3128	3830.4181
CCC1COC(C)C1O	CC[C@H]1CO[C@@H](C)[C@H]1O	
InChI=1S/C7H14O2/c1-3-6-4-9-5(2)7(6)8/h5-8H,3-4H2,1-2H3	InChI=1S/C7H14O2/c1-3-6-4-9-5(2)7(6)8/h5-8H,3-4H2,1-2H3/t5-,6-,7+/m0/s1
