20
gdb 80241	2.26789	1.7744	1.32554	2.4241	79.12	-0.2131	-0.0121	0.2009	1058.9909	0.171175	-403.139075	-403.130694	-403.12975	-403.171677	32.665	
C	-0.1903465347	 1.6041309707	 0.0517226182	-0.44125
C	 0.0536203831	 0.1051715016	 0.0054360024	 0.034156
C	 0.9121008486	-0.5867162936	-1.1016692717	-0.024094
C	 2.2501805625	 0.1795772525	-1.0544891488	-0.356746
C	 2.3980152581	 0.1721353028	 0.4863003749	 0.430579
O	 3.281925129	 0.6191737456	 1.1655658504	-0.335235
C	 1.1293397024	-0.5917060749	 0.9002472797	-0.132857
N	 1.0776718543	-1.6974885173	-0.1054840467	-0.08104
C	 2.1738904271	-2.6518998852	-0.2068917699	-0.341376
H	 0.7281637219	 2.1957595994	 0.0084297767	 0.129531
H	-0.8290749758	 1.9151715798	-0.7818949089	 0.123087
H	-0.7068287694	 1.8745178796	 0.9785456575	 0.127939
H	-0.8797544074	-0.4507403048	 0.1151100631	 0.095841
H	 0.4987007047	-0.8486466285	-2.0767900382	 0.073373
H	 3.0750483549	-0.3462091141	-1.5427127426	 0.126356
H	 2.2194870279	 1.1965050422	-1.4543336063	 0.124984
H	 0.9933259985	-0.8239872406	 1.9559775387	 0.080424
H	 2.1528628338	-3.298837584	 0.6757792435	 0.130313
H	 2.0076778305	-3.2830827566	-1.0858238289	 0.125296
H	 3.1849121199	-2.2216328345	-0.2808306933	 0.110722
111.4371	174.4145	178.5421	203.6271	234.0914	320.2739	375.2926	443.0739	488.6478	531.9803	627.1804	665.3881	711.4092	735.302	783.1804	810.588	902.2719	938.5657	962.8665	970.6442	1036.6741	1068.85	1091.0309	1106.161	1137.3391	1143.1367	1163.6571	1188.2515	1209.6962	1229.9547	1231.9928	1280.2117	1282.2224	1318.8805	1378.7989	1420.3626	1446.63	1465.5288	1493.2621	1496.1942	1501.4535	1508.0552	1865.3128	2979.7272	3037.3765	3066.9767	3069.1411	3087.8835	3099.2964	3103.2551	3104.6855	3109.419	3115.8679	3131.0201
CC1C2CC(=O)C1N2C	C[C@H]1[C@H]2CC(=O)[C@@H]1N2C	
InChI=1S/C7H11NO/c1-4-5-3-6(9)7(4)8(5)2/h4-5,7H,3H2,1-2H3	InChI=1S/C7H11NO/c1-4-5-3-6(9)7(4)8(5)2/h4-5,7H,3H2,1-2H3/t4-,5+,7+/m0/s1
