19
gdb 41601	3.99578	1.29575	1.15559	1.5965	79.78	-0.2286	0.0274	0.256	1100.681	0.160676	-385.852005	-385.844702	-385.843757	-385.883904	29.233	
C	 0.0014530946	 1.4393673511	-0.1034995111	-0.097191
O	 1.4552351248	 1.4408631618	-0.1742716174	-0.287027
C	 1.4742443115	 0.0292730728	 0.04451735	 0.044281
C	-0.0355904725	-0.0792151893	 0.0351910329	-0.207994
C	 0.7896605175	-0.7126588429	-1.066901285	 0.330605
C	 0.85388237	-0.2334068121	-2.5219559574	-0.34305
C	 1.3541530187	-1.4581413376	-3.2490305379	-0.062526
C	 1.3987398806	-2.5349662853	-2.4670111042	-0.06111
C	 0.9327391911	-2.2438619811	-1.0600951552	-0.345718
H	-0.3344743506	 1.97079623	 0.7935942029	 0.109546
H	-0.4595693757	 1.8846833177	-0.9930415619	 0.10617
H	 2.2481569713	-0.3764627149	 0.6879088806	 0.100711
H	-0.7102240691	-0.6454679432	 0.6647284074	 0.093028
H	-0.130339416	 0.0756745512	-2.9042748787	 0.102408
H	 1.5133982635	 0.6353034146	-2.626905516	 0.12398
H	 1.619816632	-1.4385794869	-4.3003355506	 0.091594
H	 1.7039253251	-3.5271953011	-2.7801138888	 0.091233
H	 1.6388172875	-2.5970738556	-0.2966372258	 0.104846
H	-0.0212078244	-2.7493218492	-0.8480530638	 0.106214
70.8856	188.417	209.0964	310.6875	389.8743	401.6878	472.4798	568.3238	695.0336	762.6554	774.9099	795.4956	831.2298	878.0659	941.2476	952.2118	963.071	969.8359	977.1818	980.688	1006.1572	1018.186	1051.8585	1072.7111	1093.8736	1129.236	1146.3492	1159.3214	1165.8007	1214.8231	1242.2877	1253.4921	1291.4678	1315.3343	1342.7751	1367.9195	1420.1673	1486.7093	1492.3786	1516.6147	1691.0748	2993.2892	2995.05	3025.436	3025.5613	3058.65	3074.3911	3164.31	3181.9865	3190.8305	3207.4082
C1OC2C1C21CC=CC1	C1O[C@H]2[C@@H]1[C@]12CC=CC1	
InChI=1S/C8H10O/c1-2-4-8(3-1)6-5-9-7(6)8/h1-2,6-7H,3-5H2	InChI=1S/C8H10O/c1-2-4-8(3-1)6-5-9-7(6)8/h1-2,6-7H,3-5H2/t6-,7+/m1/s1
