19
gdb 56293	4.52468	0.57464	0.56098	5.4718	78.05	-0.253	0.0202	0.2732	1972.344	0.157933	-419.264686	-419.254046	-419.253102	-419.302962	35.783	
C	-0.1966608069	 1.4016304203	-0.1884871121	-0.483029
C	-0.3542487619	-0.103487983	-0.3284105709	 0.407877
O	-1.3980685234	-0.6786975377	-0.0773423389	-0.37422
N	 0.7585525264	-0.7741673538	-0.7584351079	-0.312672
C	 0.7312865669	-2.2060527883	-0.9915915447	-0.168273
C	 0.2345539747	-2.5748150035	-2.3965526076	-0.181486
C	 0.1600153712	-4.1026941014	-2.5815413791	-0.338695
C	-0.2622296788	-4.4837168787	-3.9270400036	 0.258322
N	-0.5914686883	-4.7675735866	-4.9976854782	-0.302457
H	-0.8001783922	 1.8937154361	-0.9570272444	 0.155247
H	-0.5938408311	 1.7050337561	 0.7825139717	 0.156791
H	 0.8368370385	 1.746072517	-0.278985143	 0.112653
H	 1.578483967	-0.2531519466	-1.0197780902	 0.246838
H	 1.7371141168	-2.6069252972	-0.8228627386	 0.105601
H	 0.0628458534	-2.6394246057	-0.2419361238	 0.144727
H	-0.7571587136	-2.1388351135	-2.5452177418	 0.147879
H	 0.8981400886	-2.1462171183	-3.1554042221	 0.11426
H	 1.1368464061	-4.5615292605	-2.3849182165	 0.149216
H	-0.5416415533	-4.536630365	-1.8595705582	 0.161422
30.9973	42.4155	67.1542	80.8113	96.5014	151.1022	280.3139	290.1938	348.4191	397.1465	407.349	474.7674	557.7772	617.7428	654.177	739.6318	821.2391	918.0644	940.2375	994.9255	1031.6346	1047.4914	1054.5294	1109.4247	1126.3417	1214.17	1262.7126	1279.7842	1313.065	1345.0191	1369.2644	1396.3759	1415.9863	1466.0979	1469.2295	1470.4906	1486.6081	1498.1695	1534.216	1779.0964	2363.6181	3035.2434	3040.9786	3050.4002	3053.3685	3072.7741	3095.3716	3116.8067	3122.4648	3138.9389	3653.7167
CC(=O)NCCCC#N	CC(=O)NCCCC#N	
InChI=1S/C6H10N2O/c1-6(9)8-5-3-2-4-7/h2-3,5H2,1H3,(H,8,9)	InChI=1S/C6H10N2O/c1-6(9)8-5-3-2-4-7/h2-3,5H2,1H3,(H,8,9)
