16
gdb 16395	3.29553	2.32316	1.82418	2.3545	59.05	-0.2497	0.0669	0.3166	759.9651	0.132371	-420.846051	-420.839625	-420.838681	-420.876335	26.035	
O	 0.0385275529	 1.3822141646	-0.0400061804	-0.447542
C	 0.031077492	-0.0321355103	 0.00759508	 0.099399
C	-1.385627679	-0.591147468	-0.2241688902	 0.033176
C	-1.1752632226	-2.0329500994	-0.7215008806	-0.247181
C	-0.5890633538	-1.2217258449	-1.8976827946	 0.042726
O	-1.5852347323	-0.1709330536	-1.614184501	-0.31694
C	 0.7052707842	-0.6442307086	-1.2885695391	 0.12937
O	 1.3299977795	 0.3207434728	-2.0863333184	-0.449869
H	-0.610776769	 1.6106845336	-0.7232443562	 0.293966
H	 0.5023153586	-0.3312615839	 0.9451226795	 0.091063
H	-2.1795252211	-0.2803719076	 0.4552609883	 0.090946
H	-0.5190592004	-2.7022450126	-0.1588805901	 0.103912
H	-2.1178201929	-2.517352976	-0.975699978	 0.121918
H	-0.5797199964	-1.5515725668	-2.9350226944	 0.094967
H	 1.4145279875	-1.4462307035	-1.0451223009	 0.073631
H	 1.2796196329	 1.1486647441	-1.5858899341	 0.286457
145.1498	284.7819	318.6648	343.2879	430.2586	455.6401	549.2703	653.8539	703.9975	799.6045	810.7585	815.7806	858.6123	876.2541	901.1581	934.1435	962.1572	1021.2273	1067.051	1082.6098	1111.4881	1161.5751	1186.5966	1194.4502	1226.8351	1253.7403	1271.798	1286.1328	1306.7225	1325.4167	1381.8914	1417.099	1440.8491	1488.9186	3015.7101	3070.1514	3106.1941	3125.2595	3143.7482	3150.2277	3704.0939	3720.9941
OC1C2CC(O2)C1O	O[C@H]1[C@@H]2C[C@@H](O2)[C@H]1O	
InChI=1S/C5H8O3/c6-4-2-1-3(8-2)5(4)7/h2-7H,1H2	InChI=1S/C5H8O3/c6-4-2-1-3(8-2)5(4)7/h2-7H,1H2/t2-,3+,4-,5+
