19
gdb 88471	2.82305	1.23316	1.16233	2.0297	70.85	-0.2531	0.0592	0.3123	1158.9715	0.156788	-460.111431	-460.1021	-460.101156	-460.146299	33.848	
C	 1.279314996	 0.8473114399	-0.6376552774	-0.423182
C	 0.1026234424	 0.1499265943	-0.0061402389	 0.084326
O	 0.3230215713	-1.1093753086	 0.6519316664	-0.259192
C	-0.1112441929	-0.0003991131	 1.4393021649	 0.024862
C	 0.8302833448	 0.5351434178	 2.4961904572	 0.30275
O	 0.6268698675	 1.9333102848	 2.5159867936	-0.47774
C	 0.769088862	-0.1686673391	 3.8783757163	-0.136886
O	 2.1759632002	-0.4659461044	 3.8431367231	-0.274072
C	 2.3045085012	 0.0508807566	 2.5018859999	-0.137366
H	 2.1464784171	 0.8865116622	 0.0227423669	 0.135168
H	 1.5721017369	 0.3346033653	-1.5597964732	 0.127696
H	 1.0016473653	 1.8744751883	-0.8949949284	 0.13251
H	-0.7979743081	 0.1493701801	-0.6234443319	 0.093169
H	-1.1439376937	-0.0743544542	 1.7870456617	 0.095502
H	 1.1140522809	 2.300539551	 3.2619585358	 0.287729
H	 0.4933971468	 0.4863863389	 4.7159518092	 0.095868
H	 0.1540077173	-1.0772153423	 3.914657699	 0.110003
H	 2.5339778588	-0.7383250147	 1.7801618093	 0.123817
H	 3.0452770762	 0.8579318971	 2.4317648365	 0.095037
45.1492	69.2005	143.202	147.7813	226.3955	268.7419	325.2279	369.2326	387.448	422.6369	507.9965	523.5598	696.6948	787.5999	836.7309	863.4654	928.2275	931.4518	985.0754	999.6233	1011.6732	1041.7465	1076.8052	1091.3076	1135.0485	1152.5545	1169.3904	1171.1483	1188.8571	1219.1851	1296.3676	1304.547	1345.7516	1388.2442	1411.6478	1428.312	1469.9837	1483.9099	1501.1179	1509.318	1528.7706	2999.4525	3018.3249	3045.1943	3049.3157	3079.8057	3090.7725	3093.0319	3106.045	3147.1479	3801.6965
CC1OC1C1(O)COC1	C[C@H]1O[C@H]1C1(O)COC1	
InChI=1S/C6H10O3/c1-4-5(9-4)6(7)2-8-3-6/h4-5,7H,2-3H2,1H3	InChI=1S/C6H10O3/c1-4-5(9-4)6(7)2-8-3-6/h4-5,7H,2-3H2,1H3/t4-,5-/m1/s1
