19
gdb 68522	2.92037	1.59431	1.35531	2.894	79.46	-0.223	-0.0179	0.2051	1015.5163	0.160516	-385.925921	-385.918452	-385.917508	-385.957359	30.737	
C	-0.020170594	 1.5170278764	 0.0149946801	-0.486515
C	 0.008654334	-0.0009966434	 0.0027261202	 0.274486
C	 0.7109895699	-0.6962331833	-1.1990354002	-0.252917
C	 0.5384737892	-2.1279250166	-0.6434195653	-0.165411
C	 1.0590753849	-1.9321736237	 0.778120821	-0.100481
C	 0.7509073139	-0.687813791	 1.1543766843	-0.1012
C	-0.9984892399	-2.1533028907	-0.4406038214	 0.427763
O	-1.7344164145	-3.0948011277	-0.5597069529	-0.328171
C	-1.380796244	-0.7071082824	-0.0585652877	-0.353987
H	 0.9950183204	 1.9286198761	 0.0105020847	 0.118057
H	-0.546784021	 1.9102778574	-0.8612785018	 0.115955
H	-0.5308607897	 1.8982171774	 0.906205701	 0.117724
H	 0.1960980087	-0.5253094478	-2.1515259685	 0.097145
H	 1.7625480498	-0.4115160547	-1.2910424714	 0.103633
H	 0.9238358396	-2.9750846585	-1.2068174916	 0.079675
H	 1.4869493504	-2.7227719381	 1.3804040012	 0.10979
H	 0.8939187474	-0.241666139	 2.1313578852	 0.099304
H	-1.944781744	-0.6703822916	 0.8760301484	 0.124023
H	-2.0167333209	-0.2925567785	-0.8500083053	 0.121129
127.3043	219.2076	260.9452	285.7571	365.206	422.9554	453.3277	504.5571	563.6044	614.1705	631.4541	718.3	759.3497	788.6251	825.9764	890.3551	902.0238	923.8502	945.9312	949.8126	979.797	987.665	1075.1581	1089.1682	1105.6907	1117.2202	1178.3863	1194.3231	1220.2389	1241.8077	1250.7403	1281.3674	1292.9891	1360.6084	1416.609	1456.9397	1491.6565	1493.8061	1496.9926	1639.3045	1855.6117	3026.3377	3038.1187	3045.7994	3093.0399	3095.7801	3104.1134	3109.7173	3143.8353	3196.3188	3226.6517
CC12CC(C=C1)C(=O)C2	C[C@@]12C[C@@H](C=C1)C(=O)C2	
InChI=1S/C8H10O/c1-8-3-2-6(4-8)7(9)5-8/h2-3,6H,4-5H2,1H3	InChI=1S/C8H10O/c1-8-3-2-6(4-8)7(9)5-8/h2-3,6H,4-5H2,1H3/t6-,8+/m1/s1
