22
gdb 119620	3.96047	0.95516	0.86646	1.6329	82.87	-0.2398	0.0779	0.3176	1438.0177	0.195596	-404.330457	-404.321482	-404.320538	-404.364438	33.879	
C	 0.1973691427	 1.3744369267	-0.1026624181	-0.218911
O	 0.2070399576	-0.031516607	-0.1024786184	-0.238354
C	 0.5278472491	-0.5777667454	 1.1623338729	-0.140132
C	 0.5090763365	-2.0761436998	 1.0568006556	 0.336616
C	-0.7649422576	-2.7619046265	 0.5766175121	-0.266352
C	-0.5948035786	-4.2478258688	 0.9724661506	-0.243728
C	 0.3411893577	-4.2343350981	 2.2053162973	-0.22667
C	 1.1830324768	-2.979630271	 2.0325035117	-0.065942
N	 1.791039163	-2.7192041184	 0.7179869822	-0.369482
H	 1.1825156332	 1.7906933257	 0.1618574196	 0.104492
H	-0.0634949506	 1.701375544	-1.1123642729	 0.124815
H	-0.5446725113	 1.77986754	 0.6046915457	 0.099036
H	 1.5237901843	-0.2426027787	 1.4905371378	 0.094014
H	-0.2085464668	-0.2418979136	 1.9151028828	 0.07692
H	-1.6211665731	-2.3156688046	 1.0979606772	 0.099504
H	-0.9378358602	-2.6215268132	-0.4942382503	 0.113837
H	-1.5501721184	-4.7354178234	 1.1807679069	 0.103311
H	-0.1376900827	-4.8122557701	 0.1531123361	 0.104356
H	-0.2364125982	-4.1484918668	 3.134117493	 0.103423
H	 0.9436413547	-5.1458023397	 2.2872154132	 0.101912
H	 1.7532975134	-2.6064635355	 2.8792902469	 0.083685
H	 1.6597889382	-3.5041076358	 0.0844290982	 0.22365
72.495	103.7073	124.3345	223.2529	233.8985	266.365	325.8233	352.9766	412.9685	450.9894	639.6943	654.125	734.8715	812.703	867.4627	875.8743	890.444	934.5429	952.6227	988.6956	1020.9819	1034.3387	1047.3589	1078.9324	1112.9127	1153.9573	1162.1736	1180.5965	1187.4381	1215.2042	1227.0763	1247.2145	1266.5753	1292.1076	1313.2324	1321.0151	1339.3799	1358.6852	1403.8141	1457.5641	1481.0985	1485.3234	1489.2507	1497.8581	1498.253	1513.3186	1520.0305	2938.6213	2965.6534	3001.5002	3008.2656	3029.8819	3032.4832	3049.249	3070.643	3087.9061	3102.0752	3110.8754	3142.6333	3493.2968
COCC12CCCC1N2	COC[C@]12CCC[C@H]1N2	
InChI=1S/C7H13NO/c1-9-5-7-4-2-3-6(7)8-7/h6,8H,2-5H2,1H3	InChI=1S/C7H13NO/c1-9-5-7-4-2-3-6(7)8-7/h6,8H,2-5H2,1H3/t6-,7-/m1/s1
