21
gdb 81942	2.24461	1.75623	1.15752	2.6526	81.43	-0.237	-0.0152	0.2217	1134.1211	0.182468	-387.122619	-387.113767	-387.112823	-387.155896	34.167	
C	 0.1621393166	 1.6522243781	 0.0292741461	-0.39341
C	 0.1028694424	 0.125676806	-0.0247533368	-0.098667
C	 0.7691018245	-0.5559381193	-1.2091261509	-0.048712
C	 2.278360659	-0.573725396	-1.2309426125	-0.297574
C	 1.5256662296	-1.778569295	-0.7205922018	-0.048712
C	 1.3573628838	-1.9016265785	 0.7853076383	-0.098667
C	 2.5946272968	-2.2787610547	 1.6000010979	-0.39341
C	 0.7597476636	-0.5434107151	 1.1967137326	 0.364995
O	 0.810317132	-0.069900191	 2.3034333207	-0.322841
H	 1.191253391	 2.0069899758	-0.0842425727	 0.119758
H	-0.4389607719	 2.0987026621	-0.7681129975	 0.110802
H	-0.2113525483	 2.0078515406	 0.9931307922	 0.135472
H	-0.9532259275	-0.1869169903	 0.0057274653	 0.10085
H	 0.2417279713	-0.5785397733	-2.1560379928	 0.085293
H	 2.7656671137	-0.657679827	-2.1957184636	 0.114929
H	 2.8202285516	 0.0455055663	-0.5203836601	 0.11772
H	 1.5455384308	-2.685536915	-1.3141332527	 0.085293
H	 0.5650110854	-2.6404396809	 0.9860947642	 0.10085
H	 3.4338490184	-1.6171236781	 1.3638586031	 0.119758
H	 2.3828862054	-2.1845202346	 2.6683038932	 0.135473
H	 2.9057750421	-3.3065173701	 1.3916877275	 0.110802
72.5934	185.07	191.5347	199.3125	220.8581	235.1386	280.2835	452.4492	472.3117	516.2586	531.0201	593.326	670.5281	784.0553	787.5397	833.0262	861.1395	923.5586	936.072	973.0006	996.9974	1039.1949	1041.8424	1066.3338	1074.1818	1109.9758	1122.9581	1124.7077	1155.4076	1164.7059	1202.7504	1278.7104	1286.2586	1309.5945	1336.6812	1363.8376	1389.3432	1406.3825	1407.8552	1486.7977	1493.5736	1495.3532	1497.1854	1498.2883	1837.3418	2982.2015	2987.5768	3042.1854	3042.6473	3110.4491	3110.5631	3118.4633	3123.663	3123.951	3165.2534	3173.3509	3208.4427
CC1C2CC2C(C)C1=O	C[C@H]1[C@H]2C[C@H]2[C@@H](C)C1=O	
InChI=1S/C8H12O/c1-4-6-3-7(6)5(2)8(4)9/h4-7H,3H2,1-2H3	InChI=1S/C8H12O/c1-4-6-3-7(6)5(2)8(4)9/h4-7H,3H2,1-2H3/t4-,5+,6+,7-
