18
gdb 36363	3.92601	0.91839	0.8531	1.9869	77.87	-0.2495	0.0481	0.2975	1387.0919	0.146523	-401.859937	-401.851033	-401.850089	-401.89434	32.767	
C	 0.0127352303	-0.7968761431	-0.9192301031	-0.436407
C	-0.0042648028	 0.2367254297	-0.3072202923	 0.298742
C	 0.0020869503	 1.4906040011	 0.4394281845	-0.403454
C	 1.3857914624	 2.1175857505	 0.5006115611	 0.074197
O	 1.8718344204	 2.8007547149	-0.6616346186	-0.254013
C	 1.6234768658	 3.5704573889	 0.5206457285	 0.013273
C	 0.5320849756	 4.5968674481	 0.423951563	-0.0323
C	 0.6261278748	 5.6608141691	-0.6070954717	-0.241684
N	-0.3787883937	 4.5890605002	-0.7275813135	-0.316331
H	 0.0182128194	-1.7070013876	-1.4660024701	 0.198844
H	-0.7153985878	 2.195253868	 0.0089940338	 0.162691
H	-0.3276377952	 1.30401668	 1.4708124089	 0.13756
H	 2.1374942252	 1.4788443692	 0.9658958977	 0.10629
H	 2.5277150222	 3.9152582767	 1.0267189134	 0.101032
H	 0.0567921826	 4.8369396589	 1.3735999054	 0.100236
H	 0.2271117173	 6.6504943074	-0.4054755189	 0.121202
H	 1.4808215947	 5.6357144824	-1.2779721045	 0.12436
H	-0.0230251914	 3.9026791256	-1.3923204637	 0.245762
43.6531	99.1468	124.7392	170.8625	232.9006	308.4794	334.8631	366.5788	509.4405	557.2222	620.7121	625.2867	645.7237	749.8223	811.8463	863.9042	877.4937	924.82	954.7849	975.8298	996.9045	1013.4474	1076.1272	1112.8442	1134.221	1150.9387	1157.8726	1194.4555	1243.2554	1281.0065	1295.0846	1312.3912	1325.9911	1384.4471	1420.0431	1465.0236	1478.2155	1508.8765	2242.8901	3022.2433	3084.0474	3088.7324	3111.107	3111.3299	3122.5424	3200.0363	3476.8532	3506.936
C#CCC1OC1C1CN1	C#CC[C@H]1O[C@H]1[C@H]1CN1	
InChI=1S/C7H9NO/c1-2-3-6-7(9-6)5-4-8-5/h1,5-8H,3-4H2	InChI=1S/C7H9NO/c1-2-3-6-7(9-6)5-4-8-5/h1,5-8H,3-4H2/t5-,6-,7+/m1/s1
