20
gdb 86577	2.81944	1.16399	0.91647	5.3327	75.14	-0.2457	0.0189	0.2646	1310.7749	0.171002	-440.313025	-440.303759	-440.302815	-440.347418	34.295	
C	-0.313940435	 1.4969576472	-0.1079264717	-0.408296
C	 0.0449586972	 0.0187686006	-0.0280901727	 0.042113
N	 1.2546661551	-0.3670922788	-0.8186787523	-0.355796
H	 1.9752721011	-2.1625418292	-1.0189172529	 0.301122
H	 1.5529575487	 0.3167858433	-1.5076833153	 0.226399
C	 2.0856074143	-0.4425750834	 0.4081669784	-0.130664
C	 0.7807809377	-0.4652351936	 1.2640314675	 0.012777
C	 0.7435526476	 0.3460601689	 2.5468706459	-0.421007
C	 2.9507124632	-1.6941802834	 0.4886048182	 0.421377
O	 2.6684160897	-2.5903822798	-0.4692376793	-0.372981
O	 3.7701044595	-1.8783482295	 1.3492713259	-0.348767
H	 0.5362656474	 2.1402481839	 0.1418071442	 0.121407
H	-0.643119456	 1.7516880045	-1.1215208366	 0.122509
H	-1.1341869476	 1.7389903832	 0.5755265132	 0.128997
H	-0.8306958212	-0.5801218549	-0.3019101914	 0.083132
H	 2.7076784508	 0.4340667442	 0.6162524442	 0.096591
H	 0.4998709966	-1.5008212325	 1.4771971536	 0.098687
H	 1.0116183326	 1.3937534149	 2.3807759209	 0.118073
H	-0.2516622047	 0.3197217107	 3.0032328996	 0.120878
H	 1.4536239131	-0.0680104262	 3.2695774604	 0.143449
58.2928	99.7989	147.9964	211.3565	235.127	250.1528	266.945	313.2965	388.706	471.2499	516.9606	634.6734	689.5834	719.5897	790.4288	809.1563	863.0062	891.5222	930.332	955.323	994.3545	1023.8777	1050.8166	1102.7786	1113.0996	1140.4296	1150.7446	1231.9776	1242.0894	1268.7635	1303.536	1325.0507	1347.7266	1379.4241	1399.9332	1410.7447	1416.019	1428.3276	1486.2931	1489.7535	1501.0355	1503.8651	1867.8523	3029.8722	3034.1626	3037.421	3056.273	3066.7246	3097.2089	3103.4477	3107.7747	3113.982	3478.6724	3513.6702
CC1[NH2+]C(C1C)C([O-])=O	C[C@H]1N[C@@H]([C@H]1C)C(=O)O	
InChI=1S/C6H11NO2/c1-3-4(2)7-5(3)6(8)9/h3-5,7H,1-2H3,(H,8,9)	InChI=1S/C6H11NO2/c1-3-4(2)7-5(3)6(8)9/h3-5,7H,1-2H3,(H,8,9)/t3-,4+,5-/m0/s1
