18
gdb 48201	2.07963	1.33834	0.85744	3.1159	77.47	-0.2735	-0.0507	0.2228	1318.6083	0.146633	-401.958622	-401.949476	-401.948532	-401.993761	32.199	
O	 0.0391193757	 0.042724349	 0.3396146948	-0.236191
C	 0.0137529208	 1.1818295569	-0.0364225857	 0.168079
C	 1.2739213201	 2.0515056207	-0.1320710971	-0.263686
C	 1.2019882569	 2.9398636822	-1.290611955	 0.268064
N	 1.1169428601	 3.6484582406	-2.199842694	-0.313061
C	 1.4227559715	 2.8581550644	 1.1799053124	 0.039034
C	 1.7150914859	 2.073513714	 2.488165456	-0.237888
C	 2.6931816519	 3.2104682422	 2.8927489379	-0.21849
C	 2.73112169	 3.6644647443	 1.407503599	-0.234258
H	-0.9331943108	 1.702444725	-0.2931793411	 0.108993
H	 2.1307425545	 1.3776532897	-0.2381262145	 0.141572
H	 0.5489435554	 3.506771942	 1.3005617916	 0.096111
H	 0.8714612162	 1.8586488833	 3.1468148825	 0.112428
H	 2.2390900443	 1.1355563256	 2.2825745014	 0.118736
H	 2.2107643223	 3.9538082055	 3.5328105271	 0.112123
H	 3.6393807656	 2.9184250831	 3.3517650941	 0.109063
H	 3.5725838684	 3.2175873951	 0.8691282933	 0.111285
H	 2.706227831	 4.7334948165	 1.1894864173	 0.118086
58.1436	66.2965	115.3227	119.3355	189.0595	224.2389	339.0141	371.2562	481.8687	500.4997	536.6912	656.735	773.5968	785.0211	894.0679	933.5476	941.9867	957.5844	962.0686	1003.7941	1037.4113	1080.0703	1087.5513	1141.6107	1204.6021	1211.3512	1254.7587	1259.0364	1262.6343	1279.1566	1293.0018	1303.0619	1366.5025	1419.2661	1478.2638	1487.156	1508.9265	1836.9175	2356.1423	2911.3271	3051.4976	3059.2822	3063.7428	3067.8683	3070.2304	3112.0539	3119.5639	3131.2047
O=CC(C#N)C1CCC1	O=C[C@@H](C#N)C1CCC1	
InChI=1S/C7H9NO/c8-4-7(5-9)6-2-1-3-6/h5-7H,1-3H2	InChI=1S/C7H9NO/c8-4-7(5-9)6-2-1-3-6/h5-7H,1-3H2/t7-/m1/s1
