20
gdb 56813	2.39264	1.23086	0.94732	5.3252	79.52	-0.2633	0.0429	0.3061	1299.3186	0.169374	-403.149613	-403.139502	-403.138558	-403.184727	36.724	
C	 0.2997796946	 1.0722483017	 0.6113606752	-0.398606
C	 0.1697390235	-0.3010947008	-0.0781045098	-0.152732
C	 1.0793324778	-1.2689154159	 0.5522070783	 0.277458
N	 1.7914633122	-2.0168915129	 1.0711205858	-0.329829
C	-1.2571282818	-0.8378397061	-0.0359601112	-0.037134
C	-2.3315007208	-0.3839482785	-1.0153454409	-0.079551
C	-2.0855023262	 0.622203075	-2.1193420847	-0.422526
C	-1.7510433245	-1.7820993116	-1.095938084	 0.065888
O	-0.8334382662	-2.0780702018	-2.1099056279	-0.412977
H	 1.3334717072	 1.4263058018	 0.5854913092	 0.135183
H	-0.3333359138	 1.8034280449	 0.1029816494	 0.127778
H	-0.0138564785	 1.0124522884	 1.6574117947	 0.134071
H	 0.4860907231	-0.2147460314	-1.12133955	 0.138851
H	-1.6015834297	-1.0418717916	 0.9740205951	 0.10207
H	-3.32608063	-0.3235321649	-0.5802270831	 0.090591
H	-1.1249093617	 0.4605871742	-2.6133745454	 0.130806
H	-2.8646942147	 0.5432673193	-2.8858966114	 0.117842
H	-2.1073063624	 1.6491239356	-1.7403543166	 0.124606
H	-2.3672515902	-2.6236575344	-0.7820296469	 0.094124
H	-1.3225918879	-2.2359178408	-2.9241941557	 0.294086
52.1877	109.1129	164.2527	182.0012	196.1672	220.4342	229.7492	275.0581	301.516	313.6641	476.9358	507.2528	544.248	573.7927	639.2093	771.0939	795.556	834.7928	890.9363	961.2133	994.6291	1007.7299	1057.7615	1088.9034	1113.8311	1124.1185	1152.1696	1177.5853	1189.1546	1249.5472	1273.2987	1297.0619	1324.0925	1380.7638	1391.8716	1410.3507	1420.605	1462.715	1492.5107	1495.5485	1501.8751	1510.2166	2356.156	3036.2136	3049.0609	3080.1765	3089.8558	3105.0117	3121.8966	3125.137	3131.2706	3137.064	3150.4606	3808.7079
CC(C#N)C1C(C)C1O	C[C@@H](C#N)[C@H]1[C@@H](C)[C@H]1O	
InChI=1S/C7H11NO/c1-4(3-8)6-5(2)7(6)9/h4-7,9H,1-2H3	InChI=1S/C7H11NO/c1-4(3-8)6-5(2)7(6)9/h4-7,9H,1-2H3/t4-,5+,6-,7+/m0/s1
