18
gdb 37875	2.99278	2.17877	2.1526	1.0971	71.81	-0.2183	0.0831	0.3014	781.9294	0.153092	-401.90611	-401.900844	-401.8999	-401.935369	24.137	
C	-0.0354481448	 1.5289973959	 0.0503562362	-0.18576
C	 1.5116372245	 1.5027773461	 0.0158506519	-0.073732
C	 1.3506256647	 0.0413990107	 0.5467040814	 0.001261
C	 1.9077389144	-0.7871394878	-0.6142805101	 0.072831
O	 2.881203101	 0.0320621439	-1.2418055041	-0.258351
C	 2.0668942139	 1.2055085069	-1.4186418974	 0.060145
C	 0.9149867245	 0.6259415124	-2.2667109289	-0.223806
C	 0.5164680178	-0.4983548143	-1.3086061678	-0.043971
N	-0.0688575998	 0.0255393812	 0.0068285312	-0.163408
H	-0.4211653153	 1.8418575664	 1.0252627813	 0.109645
H	-0.5894290669	 2.0653518459	-0.7248384058	 0.102291
H	 2.0952924901	 2.239056118	 0.5709945413	 0.07174
H	 1.5205337767	-0.1843820461	 1.6004112266	 0.073073
H	 2.2753919468	-1.8008472128	-0.4756132825	 0.085397
H	 2.6623383587	 1.9977883202	-1.8704043096	 0.078137
H	 0.1057172809	 1.3176780865	-2.5036998769	 0.106729
H	 1.3170415932	 0.2250153434	-3.2009779246	 0.108567
H	-0.0653245603	-1.3157573166	-1.7332448922	 0.079213
383.784	444.8007	471.6285	551.4048	625.6241	652.9302	712.7314	759.7972	792.4758	816.2416	854.1432	868.5219	903.536	919.5518	926.3744	940.4511	966.2865	980.5768	999.6762	1007.904	1053.0427	1056.7358	1093.8273	1124.0726	1148.9601	1184.8075	1202.2196	1209.7668	1228.5588	1243.0468	1257.231	1285.811	1287.302	1296.6884	1327.4075	1334.7847	1347.0357	1476.2384	1525.1194	3050.4345	3073.213	3089.0536	3096.2763	3101.7084	3113.259	3128.3829	3131.3694	3154.7876
C1C2C3C4OC2CC4N13	C1[C@H]2[C@@H]3[C@@H]4O[C@H]2C[C@@H]4N13	
InChI=1S/C7H9NO/c1-4-7-6-3(2-8(4)6)5(1)9-7/h3-7H,1-2H2	InChI=1S/C7H9NO/c1-4-7-6-3(2-8(4)6)5(1)9-7/h3-7H,1-2H2/t3-,4+,5+,6-,7-/m1/s1
