18
gdb 75181	4.86374	0.9916	0.85353	1.2674	80.45	-0.2414	0.025	0.2664	1339.3145	0.14731	-401.939658	-401.930823	-401.929879	-401.973188	32.813	
C	 0.0198145813	 1.4826813677	 0.0752887973	-0.456002
C	-0.0291497784	-0.0091580348	-0.0707700977	 0.397259
N	-0.0568000169	-0.5764282288	-1.2040801722	-0.310241
C	-0.049957167	-2.0279000338	-1.2831104299	-0.16189
C	 0.4411341861	-2.7085944509	 0.0149939759	-0.22397
C	-0.266753221	-2.0136819662	 1.187307798	-0.079288
O	-0.0302481683	-0.6061862555	 1.1582599009	-0.258583
C	 0.2007881147	-4.1425546288	 0.0225461427	 0.303033
C	-0.0321215865	-5.3220850006	 0.0224060442	-0.437694
H	 0.8971660941	 1.7756557601	 0.6607821	 0.138687
H	 0.062119465	 1.9454548816	-0.9095920582	 0.145328
H	-0.862367103	 1.8406299001	 0.615804455	 0.137527
H	-1.0599623839	-2.3841929737	-1.5227145293	 0.120871
H	 0.5872515259	-2.3260186281	-2.1219551152	 0.120406
H	 1.5176389261	-2.518392927	 0.117972322	 0.118415
H	-1.3460916921	-2.2043792291	 1.1365392903	 0.120214
H	 0.103644624	-2.3659884834	 2.1518284595	 0.127711
H	-0.22248836	-6.3668511487	 0.0200751866	 0.198214
82.9871	133.0891	138.2649	164.1477	232.7168	309.2175	339.0331	409.3076	483.6693	508.1399	541.6735	615.0689	634.0094	646.5856	687.7215	811.8125	901.3521	926.24	957.9127	1026.9681	1060.2804	1083.9272	1095.4293	1100.3837	1158.881	1223.1809	1242.0398	1281.1601	1317.3227	1330.8107	1358.3296	1407.5338	1416.0855	1475.0541	1476.5985	1488.273	1511.3655	1755.5216	2236.1393	3018.2596	3026.9728	3038.0656	3048.0844	3070.9457	3104.8142	3113.9945	3168.3185	3503.7574
CC1=NCC(CO1)C#C	CC1=NC[C@@H](CO1)C#C	
InChI=1S/C7H9NO/c1-3-7-4-8-6(2)9-5-7/h1,7H,4-5H2,2H3	InChI=1S/C7H9NO/c1-3-7-4-8-6(2)9-5-7/h1,7H,4-5H2,2H3/t7-/m0/s1
