16
gdb 98112	4.9445	0.80611	0.6991	3.5232	73.07	-0.2453	-0.0801	0.1651	1540.2677	0.122467	-434.097317	-434.087253	-434.086309	-434.134043	33.826	
C	-0.1765858639	 1.4173219908	-0.0011744704	-0.311901
N	-0.0965423745	-0.0197928729	-0.1342753451	-0.295039
C	 0.5725056225	-0.613262501	-1.1478667089	 0.281693
N	 1.1798862454	 0.0639944552	-2.0563433225	-0.541153
C	 0.5005405773	-2.1352628129	-1.054012406	 0.355925
O	-0.0971600264	-2.6785052804	-0.1593500918	-0.28643
C	 1.2250727375	-2.9260324487	-2.1522945331	-0.495695
C	 1.1044676484	-4.3682154117	-1.985524687	 0.296648
N	 1.0243479722	-5.5143855511	-1.8767081131	-0.286823
H	 0.8217682956	 1.8585553125	 0.0947802233	 0.14407
H	-0.6502946566	 1.8671484244	-0.8808955563	 0.143979
H	-0.7634533941	 1.6589516441	 0.8864259224	 0.128204
H	-0.5419125461	-0.6315988453	 0.5294142093	 0.268256
H	 1.6315211664	-0.5335610743	-2.742032991	 0.220236
H	 0.8229908538	-2.6330785243	-3.1296222221	 0.189004
H	 2.2845722226	-2.6429939146	-2.1581447277	 0.189027
33.3966	49.9207	90.6501	116.3042	118.4409	215.463	296.2836	359.8368	369.2274	411.0896	433.015	433.0724	506.8202	681.2301	738.1676	786.5936	837.7675	933.7341	956.3653	997.6112	1120.6006	1160.4039	1178.7349	1194.3208	1202.156	1300.5655	1344.4402	1439.6878	1456.5662	1471.8197	1511.9558	1558.4019	1696.5715	1808.4315	2379.1563	3030.7065	3043.4371	3080.0939	3081.0698	3138.8069	3539.0687	3654.9545
CNC(=N)C(=O)CC#N	CNC(=N)C(=O)CC#N	
InChI=1S/C5H7N3O/c1-8-5(7)4(9)2-3-6/h2H2,1H3,(H2,7,8)	InChI=1S/C5H7N3O/c1-8-5(7)4(9)2-3-6/h2H2,1H3,(H2,7,8)
