19
gdb 64156	3.69469	0.98766	0.94279	3.3249	81.69	-0.2463	-0.0637	0.1826	1324.8822	0.156879	-423.053904	-423.044564	-423.04362	-423.088319	34.119	
C	 0.1303015262	 1.4595295002	-0.0642464381	-0.405516
C	-0.0937271265	-0.0575680709	 0.0370699533	 0.346107
C	-1.5931556551	-0.394844871	 0.0342404484	-0.405514
O	 0.5265491239	-0.6942685386	-1.0970928275	-0.313212
C	 1.5374921047	-1.6123587685	-0.6892137773	-0.174859
C	 1.5437670431	-1.53823693	 0.8153472725	 0.208359
C	 2.434537723	-2.3206608609	 1.6725782014	 0.073796
O	 3.255470761	-3.1060816158	 1.2520546155	-0.264545
C	 0.6219626562	-0.6599841387	 1.2189705848	-0.231611
H	 1.1987544823	 1.6901699269	-0.0709219108	 0.122788
H	-0.3093830774	 1.8333858666	-0.9934000752	 0.130591
H	-0.3365414875	 1.9849496057	 0.7751204308	 0.113344
H	-2.0473565786	-0.0365460252	-0.8940599501	 0.13059
H	-1.7435981706	-1.4756956193	 0.0971708567	 0.122788
H	-2.1067481552	 0.0802199745	 0.8763107131	 0.113344
H	 1.3057144585	-2.6240175904	-1.0507233777	 0.120694
H	 2.5085756791	-1.3300288338	-1.1194990987	 0.120699
H	 2.3072762037	-2.1444029019	 2.7634100776	 0.072944
H	 0.3954129491	-0.394874999	 2.2454348614	 0.119215
49.2007	111.8064	166.132	188.4528	208.6833	248.0673	309.8359	345.1256	367.7632	395.0947	494.3733	521.8974	636.5457	717.4879	823.0309	875.1235	884.647	914.026	924.5047	947.6772	1007.1488	1017.2814	1058.2072	1080.0445	1141.0916	1176.4214	1203.2011	1210.5075	1277.3351	1329.788	1387.2276	1388.9171	1408.3955	1422.3798	1473.8802	1481.1086	1494.1081	1503.3478	1521.2954	1693.1889	1783.7548	2888.1953	3002.4968	3025.0452	3036.8083	3041.6036	3110.4597	3116.8394	3122.3759	3124.5335	3205.5487
CC1(C)OCC(C=O)=C1	CC1(C)OCC(=C1)C=O	
InChI=1S/C7H10O2/c1-7(2)3-6(4-8)5-9-7/h3-4H,5H2,1-2H3	InChI=1S/C7H10O2/c1-7(2)3-6(4-8)5-9-7/h3-4H,5H2,1-2H3
