17
gdb 64830	3.05233	1.15203	1.11179	3.1987	81.36	-0.2419	-0.0516	0.1903	1171.3425	0.134323	-384.693547	-384.684911	-384.683967	-384.726992	32.818	
C	-0.0231778319	 1.5356210302	 0.0194799993	-0.4259
C	-0.0278086616	-0.0125428464	-0.0273351942	 0.064085
C	 0.7806323313	-0.5624756297	-1.239465062	-0.382379
C	 2.0038665373	-1.2756091203	-0.6415353798	 0.380225
O	 2.9124811034	-1.7646926573	-1.2688471344	-0.324263
C	 1.8443593934	-1.244578649	 0.8318959722	-0.197167
C	 0.7402724722	-0.5740140408	 1.167540274	-0.060078
C	-1.4085348818	-0.5008806192	-0.0048702169	 0.316746
C	-2.5441028132	-0.8942840747	 0.027130571	-0.488283
H	 1.0050380163	 1.9087649736	-0.0055593096	 0.124595
H	-0.5677976359	 1.941084477	-0.8373625402	 0.134651
H	-0.5041470356	 1.898842802	 0.931926516	 0.128286
H	 0.2007302505	-1.2812229519	-1.8234811829	 0.146422
H	 1.1017557462	 0.228149811	-1.9224015823	 0.133548
H	 2.555895123	-1.7074402592	 1.5035984611	 0.122328
H	 0.3791230031	-0.3983025746	 2.1751642685	 0.125896
H	-3.5455919767	-1.2473647207	 0.0479967902	 0.201289
47.828	142.3029	171.1808	233.3552	260.8709	330.5992	390.6624	432.418	482.5484	540.9123	557.7236	617.3566	632.8646	638.2421	685.4506	799.8335	829.5477	833.9193	898.1107	950.6678	964.3523	1004.8633	1067.8388	1093.9344	1144.6054	1182.4594	1210.9354	1243.585	1273.2373	1354.7408	1405.7474	1450.7196	1489.0632	1496.0259	1652.8776	1819.8988	2232.3111	3040.2228	3073.5595	3117.5647	3120.6776	3123.2943	3193.5233	3228.2715	3500.4939
CC1(CC(=O)C=C1)C#C	C[C@]1(CC(=O)C=C1)C#C	
InChI=1S/C8H8O/c1-3-8(2)5-4-7(9)6-8/h1,4-5H,6H2,2H3	InChI=1S/C8H8O/c1-3-8(2)5-4-7(9)6-8/h1,4-5H,6H2,2H3/t8-/m0/s1
