17
gdb 38608	3.69732	1.71673	1.46791	2.0573	70.07	-0.2368	0.0764	0.3132	900.8971	0.138063	-421.738522	-421.732406	-421.731462	-421.768733	26.108	
C	-0.0022726143	 1.5526166494	-0.1086278176	-0.323745
C	 1.2930598078	 0.7925200464	 0.005824837	 0.114258
O	 2.0362321012	 0.8064141742	 1.1990553946	-0.266372
C	 1.4916789712	 0.070669376	 2.2534402173	 0.128237
C	-0.0246429403	 0.1532920269	 2.6136133028	-0.025355
O	 0.1318414877	-1.1270290672	 3.3224931955	-0.305305
C	 0.8301619731	-1.3305632476	 2.042045936	-0.005378
C	-0.3415730064	-0.6203228852	 1.3028152966	-0.022637
C	-0.0013845401	 0.0346429711	-0.0114420857	-0.103806
H	-0.3415393524	 2.1139665196	 0.7552951252	 0.122587
H	-0.2351482335	 2.0099406748	-1.0638790489	 0.116664
H	 1.9534965085	 0.7656309962	-0.8539323614	 0.103532
H	 2.1710853754	 0.1357634768	 3.1025460487	 0.102628
H	-0.5920290733	 0.9392033363	 3.1133228135	 0.094426
H	 1.283990848	-2.3047452844	 1.8588864754	 0.093158
H	-1.2904106208	-1.159694604	 1.3250594106	 0.083237
H	-0.2528208918	-0.5328459393	-0.9020970695	 0.093871
178.9975	275.282	419.227	437.0924	472.6666	529.6279	581.4751	719.3768	758.5317	783.5667	816.9233	863.0392	865.6459	890.4329	896.0404	925.5896	987.1937	1003.3938	1026.4687	1031.6606	1049.5221	1096.7547	1113.3845	1125.2854	1143.2154	1146.4305	1186.5274	1188.7265	1208.8745	1224.0744	1257.2058	1280.9374	1317.4895	1370.4364	1389.1677	1413.9049	1482.3376	3097.9438	3112.2542	3118.8698	3134.4341	3138.0127	3152.3133	3168.8717	3223.4064
C1C2OC3C4OC3C4C12	C1[C@H]2O[C@H]3[C@@H]4O[C@H]3[C@@H]4[C@@H]12	
InChI=1S/C7H8O2/c1-2-3(1)8-7-5-4(2)6(7)9-5/h2-7H,1H2	InChI=1S/C7H8O2/c1-2-3(1)8-7-5-4(2)6(7)9-5/h2-7H,1H2/t2-,3+,4-,5-,6+,7+/m0/s1
