20
gdb 38383	3.80834	1.31737	1.2188	1.7792	82.53	-0.224	0.0801	0.3041	1097.7941	0.172733	-365.927966	-365.920636	-365.919692	-365.959619	29.841	
C	 0.1639430604	 1.4651148786	-0.1130586997	-0.237679
C	 1.3985750256	 0.6600232689	-0.013264571	-0.125981
N	 0.0240978882	 0.0072652765	 0.0572103584	-0.126649
C	 0.2821305453	-0.5963131692	-1.3013919725	-0.266979
C	 1.6977974321	-0.0059305765	-1.3390962781	 0.390843
C	 2.4422652783	 0.4740621699	-2.5461841337	-0.133976
C	 3.712005288	 1.2243162253	-2.1247948058	-0.232463
C	 4.188160441	-0.0485930607	-1.3478945307	-0.232241
C	 2.9037762474	-0.774530207	-1.7701356072	-0.144578
H	-0.1532740395	 2.0229547723	 0.7630000676	 0.118723
H	-0.1076512024	 1.9162461583	-1.0659690138	 0.109479
H	 2.0538592527	 0.6888748277	 0.8515855732	 0.095817
H	 0.2538220794	-1.6870482991	-1.2355669483	 0.113799
H	-0.4260226971	-0.2632220082	-2.069078622	 0.101432
H	 1.9595047139	 0.5376039354	-3.5151668989	 0.081474
H	 4.3693904003	 1.4667876826	-2.9621969421	 0.10434
H	 3.5518181499	 2.1327635081	-1.5344179949	 0.098834
H	 5.085037643	-0.4859389375	-1.7914732134	 0.105424
H	 4.3535759629	 0.0564026245	-0.270499711	 0.096967
H	 2.8335989307	-1.8216300899	-2.0451879961	 0.083415
122.4628	164.6269	178.2211	274.5043	422.051	433.7672	489.9466	566.4704	730.4459	760.1799	779.6369	784.2826	813.2199	843.2236	877.5688	923.1163	954.6831	962.6235	978.9711	986.6655	1010.5554	1028.1452	1049.1839	1080.4957	1089.5568	1104.8687	1110.2909	1138.3486	1180.7155	1200.2277	1214.9294	1223.1799	1249.031	1252.4817	1262.5851	1285.3482	1289.6013	1350.5137	1456.9006	1481.7768	1490.7504	1502.7585	1507.0419	3032.5238	3042.4574	3050.1949	3094.9443	3096.8964	3097.6806	3115.1308	3158.0644	3160.9383	3173.1509	3193.1574
C1C2N1CC21C2CCC12	C1[C@H]2N1C[C@]12[C@H]2CC[C@@H]12	
InChI=1S/C8H11N/c1-2-6-5(1)8(6)4-9-3-7(8)9/h5-7H,1-4H2	InChI=1S/C8H11N/c1-2-6-5(1)8(6)4-9-3-7(8)9/h5-7H,1-4H2/t5-,6+,7-,8-,9?/m1/s1
