14
gdb 32308	2.78416	1.57826	1.01378	3.3479	68.28	-0.2391	-0.0553	0.1837	1093.1325	0.101453	-473.864532	-473.856968	-473.856023	-473.896891	27.564	
C	-0.0538931094	 1.3948021603	 0.0787978837	-0.250955
O	 0.011454231	-0.0198470537	-0.0142288824	-0.233625
C	 0.6252455139	-0.5398853247	-1.0898672693	 0.173724
C	 1.2028950824	 0.1338212106	-2.1200304268	-0.132365
N	 1.811063249	-0.5067908217	-3.1847711825	-0.268075
C	 1.8085180903	-1.7819904722	-3.1618968205	 0.129243
O	 1.2712288826	-2.5603324587	-2.2012872885	-0.199257
C	 0.6349958459	-2.0075559506	-1.0841471583	 0.410538
O	 0.1721752647	-2.7381615924	-0.2591675963	-0.321336
H	 0.9496885742	 1.837020318	 0.1145016662	 0.133882
H	-0.6063391066	 1.8231139082	-0.7669899888	 0.133891
H	-0.5818928821	 1.611557035	 1.0074370841	 0.150971
H	 1.216389788	 1.2161168412	-2.1602060592	 0.122489
H	 2.2590291662	-2.3764414191	-3.9493297014	 0.150875
102.4981	133.2161	224.0412	228.6834	293.5274	357.3613	449.7195	501.2366	566.902	579.0517	604.9475	758.3695	788.6409	898.8296	905.5867	933.8847	996.0956	1066.7354	1147.098	1177.4529	1201.4281	1230.5508	1311.9339	1400.6317	1408.0976	1480.1495	1490.9935	1503.9565	1613.866	1666.5809	1865.6526	3010.7614	3073.3913	3150.5759	3202.3768	3207.7305
COC1=CN=COC1=O	COc1cncoc1=O	
InChI=1S/C5H5NO3/c1-8-4-2-6-3-9-5(4)7/h2-3H,1H3	InChI=1S/C5H5NO3/c1-8-4-2-6-3-9-5(4)7/h2-3H,1H3
