19
gdb 47557	2.4547	1.58379	1.09086	2.2293	74.56	-0.2411	-0.0198	0.2213	1116.0994	0.16083	-423.039503	-423.03168	-423.030736	-423.071977	30.496	
O	 0.0099366047	-0.0967236359	-0.0043426677	-0.301071
C	 0.0242532319	 1.1118769665	 0.0258959991	 0.379332
C	-1.2643027428	 1.9303469719	 0.0564208016	-0.286547
C	-1.5369120537	 2.8018094004	-1.1915880713	-0.205399
C	-0.4615141719	 3.8627404911	-1.4879778525	-0.242551
C	 0.7763370017	 3.2651341574	-2.132664554	 0.067434
O	 2.0618781025	 3.6667531493	-1.6442587222	-0.256279
C	 1.644914948	 2.3188999356	-1.4171393684	 0.049993
C	 1.3396185832	 1.8923980942	 0.0126819113	-0.331316
H	-2.0862356449	 1.2238396493	 0.1982407256	 0.121328
H	-1.2261595998	 2.5866582693	 0.9368292024	 0.112412
H	-1.6641433642	 2.1522518924	-2.0667514749	 0.113099
H	-2.5006847536	 3.2993707158	-1.038917919	 0.109186
H	-0.8756823901	 4.6257642132	-2.155871337	 0.107776
H	-0.1721102271	 4.3803690775	-0.5673160614	 0.113566
H	 0.7311043017	 3.1718693925	-3.2189074032	 0.095733
H	 2.1829149057	 1.5773244905	-2.0069016101	 0.107454
H	 1.2687219586	 2.7855294546	 0.6388463081	 0.121389
H	 2.1329764301	 1.2486318243	 0.3988233136	 0.124458
83.9008	129.4682	237.4657	292.1592	301.6858	364.3778	437.9468	457.2526	517.5522	560.9324	657.6665	753.5674	803.0984	839.8851	853.7563	882.9495	933.0442	965.1662	973.909	1011.3312	1071.1078	1080.4234	1119.9259	1127.3483	1158.9134	1190.7699	1218.3505	1246.5633	1271.5976	1289.4466	1307.8545	1345.7342	1358.1275	1378.0264	1393.5784	1469.3809	1473.715	1479.8161	1494.4272	1498.0108	1810.0057	3017.7781	3030.4964	3042.0333	3068.282	3072.8202	3080.5527	3098.5457	3101.9748	3112.2674	3131.3251
O=C1CCCC2OC2C1	O=C1CCC[C@H]2O[C@H]2C1	
InChI=1S/C7H10O2/c8-5-2-1-3-6-7(4-5)9-6/h6-7H,1-4H2	InChI=1S/C7H10O2/c8-5-2-1-3-6-7(4-5)9-6/h6-7H,1-4H2/t6-,7+/m1/s1
