19
gdb 111365	2.03309	1.68477	1.10301	1.8712	80.71	-0.2484	0.0417	0.2901	1157.6134	0.157303	-385.817809	-385.808883	-385.807939	-385.851403	33.773	
C	-0.0040938322	 1.5215822998	 0.1498213318	-0.388839
C	 0.1899212355	 0.0021975136	 0.1154925631	-0.191649
C	 0.7088238303	-0.5096459172	-1.2218084257	-0.020537
C	 0.9235754173	-2.0228927805	-1.3718307445	 0.00408
O	-0.3568729341	-2.6574513084	-1.2547975813	-0.235385
C	 0.0121668882	-2.113111372	-2.5190903056	 0.021702
C	-0.2774039617	-0.5952909269	-2.4818432894	-0.246697
C	-1.6625932479	-0.1934311807	-2.3472880059	 0.358727
C	-2.815433842	 0.1337386153	-2.2437985857	-0.467225
H	 0.9385259194	 2.0469568652	-0.0429899796	 0.106569
H	-0.7294964311	 1.8426421352	-0.6031973854	 0.131512
H	-0.3713406385	 1.8475010936	 1.1278271035	 0.112271
H	 0.9038362092	-0.2953632168	 0.8953202941	 0.092212
H	-0.7516608542	-0.5061369085	 0.34491092	 0.124106
H	 1.6087245655	 0.0379627821	-1.5224707798	 0.078665
H	 1.7937080701	-2.6153803924	-1.1132310632	 0.105875
H	-0.0050415652	-2.7744463875	-3.377342799	 0.110808
H	 0.1814338801	-0.0938364487	-3.3397242221	 0.106991
H	-3.8347917288	 0.4158806649	-2.1499875953	 0.196815
96.6101	114.9773	134.863	178.0036	213.0908	271.0819	355.6886	369.4118	492.9713	553.8596	617.2834	630.6637	644.2437	714.8194	768.0431	804.1264	862.893	872.4118	897.7175	917.5628	977.184	1010.6183	1031.1441	1051.8067	1076.4551	1120.5132	1132.5669	1191.4241	1235.1038	1239.4051	1261.7292	1285.1765	1324.385	1337.845	1382.7076	1404.7988	1412.4447	1484.0348	1500.3584	1508.8532	2231.9132	3020.504	3031.547	3046.4792	3063.464	3080.9838	3101.0397	3115.3102	3179.6236	3195.2733	3503.2296
CCC1C2OC2C1C#C	CC[C@H]1[C@H]2O[C@H]2[C@H]1C#C	
InChI=1S/C8H10O/c1-3-5-6(4-2)8-7(5)9-8/h1,5-8H,4H2,2H3	InChI=1S/C8H10O/c1-3-5-6(4-2)8-7(5)9-8/h1,5-8H,4H2,2H3/t5-,6+,7-,8+/m0/s1
