16
gdb 57121	3.72838	0.77498	0.65862	2.6707	88.5	-0.2417	-0.0245	0.2172	1625.2755	0.121627	-400.735572	-400.725559	-400.724615	-400.771441	35.776	
C	 0.8982086763	 1.9511124809	-0.0056708309	-0.381976
C	 0.3397969347	 0.5119878927	 0.0425175915	-0.361926
C	 0.7446500491	-0.2758058069	-1.1118036176	 0.43702
C	 1.0829625337	-0.9248420047	-2.0779404643	-0.263397
C	 1.4694867958	-1.6534889336	-3.1602948754	 0.292014
C	 1.8117839526	-2.3029135735	-4.1190984215	-0.557413
C	 0.6803035367	-0.1298486192	 1.4178046893	 0.449449
N	 1.1452746781	-1.401563452	 1.3843885276	-0.538776
O	 0.4987409152	 0.4962203348	 2.4422409204	-0.363374
H	 1.9901959897	 1.9394029487	-0.056075898	 0.131117
H	 0.5169391417	 2.4788897444	-0.8824403479	 0.126036
H	 0.5929493507	 2.4734643467	 0.9020445648	 0.152802
H	-0.757693341	 0.5775657169	 0.0439262544	 0.145911
H	 2.1135562748	-2.8695464445	-4.9648396694	 0.19543
H	 1.3238746478	-1.8748096522	 0.5151474105	 0.272698
H	 1.3736861042	-1.8495042485	 2.2563245463	 0.264386
29.744	72.4956	103.8844	218.4226	226.4848	253.7027	273.5306	282.3919	392.2705	425.4479	478.5331	523.2332	548.5764	566.6914	598.6405	609.6117	613.8541	705.1536	762.0026	806.8461	987.5826	1071.7622	1083.5815	1102.5675	1192.5553	1270.7039	1319.0097	1344.207	1399.517	1492.5422	1499.8137	1606.6352	1803.063	2178.9862	2352.8502	3012.9145	3056.5101	3131.3346	3154.1699	3504.0672	3598.2342	3733.9286
CC(C#CC#C)C(N)=O	C[C@@H](C#CC#C)C(=O)N	
InChI=1S/C7H7NO/c1-3-4-5-6(2)7(8)9/h1,6H,2H3,(H2,8,9)	InChI=1S/C7H7NO/c1-3-4-5-6(2)7(8)9/h1,6H,2H3,(H2,8,9)/t6-/m0/s1
