21
gdb 114268	3.99237	1.19814	1.12765	1.2569	85.33	-0.228	0.0717	0.2997	1183.6178	0.18288	-386.957101	-386.949131	-386.948187	-386.989421	31.851	
C	-0.1217195896	 1.6012191676	 0.3181401555	-0.238357
O	 0.3702977251	 0.3481993284	-0.1065343532	-0.226858
C	 0.7767274193	-0.4754555661	 0.9512394283	 0.075113
C	-0.3773331207	-1.2401499678	 1.768151553	-0.37777
C	 0.0095645725	-2.4788324032	 0.9349709391	 0.291906
C	 0.6146683725	-3.9025263059	 0.7250149545	-0.307642
C	 1.1103830844	-2.9930310681	-0.4917789499	-0.086613
C	-0.339434071	-2.4818455401	-0.5921903523	-0.243244
C	 1.3800469562	-1.8885651546	 0.5855036758	-0.024315
H	 0.6354120091	 2.1544410771	 0.8956063744	 0.106143
H	-0.3709510516	 2.1718517708	-0.5794712117	 0.128776
H	-1.0243864586	 1.5032833764	 0.9387697206	 0.109949
H	 1.4566789877	 0.0849240147	 1.6109632996	 0.069764
H	-0.1194794679	-1.3080882938	 2.8289953428	 0.104384
H	-1.3998520867	-0.8650023043	 1.6654737081	 0.102442
H	 1.3779777106	-4.2172271942	 1.4420253404	 0.093447
H	-0.0560225165	-4.726909917	 0.4610697499	 0.090497
H	 1.7566545288	-3.3267740689	-1.309124067	 0.067178
H	-1.0956694333	-3.2101259311	-0.8998832133	 0.078537
H	-0.4865842525	-1.5149551076	-1.0678405205	 0.122439
H	 2.1932912222	-2.1198307121	 1.2802595958	 0.064224
102.0274	158.6332	168.0314	237.1447	328.4267	357.617	417.9313	460.797	551.1185	645.3339	712.7218	760.3949	783.0706	808.9599	842.3392	882.2949	921.1084	933.419	994.3982	1008.6081	1014.9937	1024.9818	1057.5862	1094.2288	1096.7164	1129.8302	1147.1781	1168.4081	1180.9977	1193.1334	1200.1601	1208.9317	1219.7259	1225.5297	1234.3943	1257.358	1277.7256	1362.0281	1391.0149	1464.219	1479.021	1485.523	1496.4682	1508.2728	1538.8577	2972.6029	2980.3674	3027.4482	3036.4124	3047.9414	3051.6848	3053.8986	3068.2983	3108.4538	3110.586	3117.5619	3168.25
COC1CC23CC(C2)C13	CO[C@H]1C[C@@]23C[C@@H](C2)[C@@H]13	
InChI=1S/C8H12O/c1-9-6-4-8-2-5(3-8)7(6)8/h5-7H,2-4H2,1H3	InChI=1S/C8H12O/c1-9-6-4-8-2-5(3-8)7(6)8/h5-7H,2-4H2,1H3/t5-,6-,7-,8+/m0/s1
