19
gdb 111322	2.35462	1.46033	1.21018	1.8759	71.61	-0.2445	0.0696	0.3141	1127.3018	0.155817	-460.105906	-460.096456	-460.095511	-460.140028	34.864	
C	-0.0348708977	 1.3758264335	-0.3310467844	-0.240026
O	-0.0434511197	 0.1117026204	 0.2965106241	-0.234565
C	-1.2592768708	-0.5636340477	 0.1771175828	 0.054558
C	-1.6796287684	-1.1329346932	-1.1925193234	-0.026405
O	-0.7175222574	-2.1302633392	-1.5616299131	-0.240563
C	-1.7425908037	-2.4966477944	-0.6408009884	 0.006898
C	-1.2780460333	-2.0373922931	 0.7550171698	 0.325543
C	 0.041933628	-2.5893395121	 1.2593903472	-0.455328
O	-2.3457964579	-2.2415104809	 1.6608491516	-0.4839
H	 0.9460483998	 1.8211067689	-0.1503916003	 0.130619
H	-0.1920732891	 1.294902947	-1.4164287147	 0.114589
H	-0.810221322	 2.0392693521	 0.083537825	 0.103564
H	-2.0910902654	 0.0025199005	 0.6254923467	 0.070049
H	-2.2523949199	-0.6769945911	-1.9919090357	 0.10538
H	-2.3922910634	-3.3284305849	-0.886113249	 0.109096
H	 0.8075314117	-2.5027683425	 0.4869954688	 0.148978
H	 0.3850347022	-2.0252913661	 2.1341063763	 0.113883
H	-0.0756889781	-3.6400551516	 1.5420310589	 0.116916
H	-2.0651168648	-1.9246857857	 2.5261858478	 0.280715
66.4115	130.2049	167.238	201.8328	214.5303	259.9224	274.7058	305.5232	316.1817	373.183	508.553	535.3302	593.8548	693.7664	799.467	856.6135	873.09	916.0613	927.2108	963.3285	996.3367	1036.0464	1047.9176	1104.5502	1151.813	1169.9828	1179.4776	1184.9562	1223.0257	1238.2616	1247.8571	1265.9858	1361.2671	1380.3791	1394.6701	1404.5902	1480.6063	1484.2552	1487.5831	1494.5041	1507.1193	2975.416	2985.383	3028.9309	3036.4746	3102.3819	3119.0949	3146.1755	3179.1193	3198.061	3806.6844
COC1C2OC2C1(C)O	CO[C@H]1[C@H]2O[C@H]2[C@]1(C)O	
InChI=1S/C6H10O3/c1-6(7)4(8-2)3-5(6)9-3/h3-5,7H,1-2H3	InChI=1S/C6H10O3/c1-6(7)4(8-2)3-5(6)9-3/h3-5,7H,1-2H3/t3-,4+,5-,6-/m1/s1
