16
gdb 42837	2.64253	1.8625	1.66907	1.0717	67.64	-0.2412	-0.0287	0.2125	876.9021	0.125881	-437.843653	-437.837035	-437.836091	-437.8745	26.647	
O	 0.0243658498	-0.01531844	-0.0352618671	-0.311296
C	-0.0152607732	 1.1736922547	 0.041751456	 0.414189
C	-1.0826546407	 2.2743720851	 0.0037739517	-0.03621
C	-1.333310846	 2.8509752751	 1.409144508	-0.181303
N	-0.0924871443	 3.1940982905	 2.1241836992	-0.087202
C	 0.7812273947	 2.1259224006	 2.6019261146	-0.259436
C	 1.1639948508	 2.9316561571	 1.4044475465	-0.027996
C	 0.9844994881	 2.3453137091	 0.0162361731	-0.048786
O	-0.076373424	 3.1050311476	-0.65242316	-0.293218
H	-1.9933349287	 2.1475556879	-0.5861551856	 0.106244
H	-1.9052968018	 3.7771287864	 1.2861105176	 0.130808
H	-1.9344389044	 2.160804197	 2.0115441872	 0.121685
H	 1.2583990278	 2.3205981045	 3.5585694405	 0.123395
H	 0.4931544589	 1.0879198259	 2.4468332932	 0.135093
H	 1.9160966213	 3.7121659206	 1.4912482526	 0.107551
H	 1.9003047817	 2.2784699278	-0.5733871173	 0.106482
139.7531	204.5941	295.2212	401.3888	428.8291	473.9108	531.0496	553.8413	688.2208	734.6423	785.7167	827.3737	863.1058	880.6419	914.1697	932.9548	990.5006	1015.5531	1042.639	1082.4014	1086.6768	1116.4988	1126.8904	1145.9184	1193.5171	1223.9127	1248.0541	1290.9244	1305.3897	1315.5594	1359.5161	1392.5484	1477.7164	1518.2053	1914.6801	3038.5358	3083.4596	3097.5287	3101.5067	3109.3227	3135.8779	3186.7632
O=C1C2CN3CC3C1O2	O=C1[C@H]2CN3C[C@H]3[C@@H]1O2	
InChI=1S/C6H7NO2/c8-5-4-2-7-1-3(7)6(5)9-4/h3-4,6H,1-2H2	InChI=1S/C6H7NO2/c8-5-4-2-7-1-3(7)6(5)9-4/h3-4,6H,1-2H2/t3-,4+,6-,7?/m0/s1
