19
gdb 63708	3.38872	1.20809	1.06723	4.7659	81.31	-0.2573	0.0024	0.2597	1186.7068	0.158488	-382.05025	-382.04148	-382.040536	-382.083184	33.834	
C	-0.2033914247	 1.5724312082	 0.0505017558	-0.44411
C	 0.0509514847	 0.0729633432	-0.0161242062	 0.342829
C	-1.2523747757	-0.698661665	-0.1867225379	-0.424326
C	 1.1731490737	-0.4402058336	-0.973220342	-0.365887
C	 1.8504732349	-1.0244569776	 0.2680427093	 0.215426
C	 2.1144462617	 0.0328180319	 1.2732862403	-0.275756
N	 0.7570507662	-0.5150559882	 1.208425606	-0.175197
C	 2.4008912152	-2.3435491712	 0.3561788404	 0.202477
N	 2.8586004207	-3.4057062244	 0.3918583336	-0.339199
H	 0.7151755213	 2.1575349246	 0.1414241173	 0.116625
H	-0.7139157311	 1.9052959122	-0.8592313184	 0.126828
H	-0.8459047979	 1.8106719109	 0.9045161748	 0.132918
H	-1.736664403	-0.4323122698	-1.131982113	 0.116021
H	-1.0695565281	-1.7768430862	-0.1811513363	 0.129655
H	-1.9393467051	-0.4702765055	 0.6337943612	 0.127449
H	 0.822138159	-1.1947125613	-1.6778268976	 0.130734
H	 1.7631082775	 0.3059131994	-1.5119075944	 0.11381
H	 2.6384990502	-0.2604885809	 2.1771682952	 0.145889
H	 2.3283456602	 1.0405546234	 0.9281306919	 0.123813
100.6432	146.7332	193.9907	247.0281	262.7717	273.6857	350.3308	383.4465	427.4123	471.4993	529.8048	560.8942	593.987	657.7319	791.9245	803.4634	829.215	902.0369	949.9216	957.9566	981.7304	997.1466	1021.6785	1101.3206	1124.0509	1134.5124	1186.9682	1200.9556	1265.2632	1282.1448	1293.6388	1350.8065	1406.1118	1420.6486	1477.0275	1480.8333	1486.8432	1496.6472	1507.5443	1511.0912	2348.2867	3035.2904	3041.2075	3066.1712	3103.9318	3112.1816	3114.7445	3117.2211	3122.9297	3133.6972	3211.1859
CC1(C)CC2(CN12)C#N	CC1(C)C[C@]2(CN12)C#N	
InChI=1S/C7H10N2/c1-6(2)3-7(4-8)5-9(6)7/h3,5H2,1-2H3	InChI=1S/C7H10N2/c1-6(2)3-7(4-8)5-9(6)7/h3,5H2,1-2H3/t7-,9?/m1/s1
