17
gdb 51433	4.70984	0.94929	0.93429	2.8898	69.91	-0.2508	0.0006	0.2514	1268.6879	0.136431	-458.951857	-458.944241	-458.943297	-458.985364	28.297	
O	-0.0689865821	 0.0138776827	 0.0066060178	-0.271154
C	-0.0461007058	 1.2068949454	 0.0111830571	 0.160995
O	 1.1044005601	 1.9104426032	 0.0330563237	-0.2059
C	 1.015012431	 3.32882018	-0.0189754374	 0.151057
C	 2.3239582228	 4.0090922617	 0.4839612757	-0.10993
C	 2.9313009152	 3.6519314467	-0.9135801357	-0.246757
C	 1.4836041809	 3.9749200826	-1.3552330478	 0.066603
O	 1.3307068923	 5.3691474612	-1.0674812771	-0.27883
C	 1.9403070631	 5.4721993549	 0.2480094708	-0.085667
H	-0.945183393	 1.8526425872	 0.0095093735	 0.082991
H	 0.0597562909	 3.6785678826	 0.3860777891	 0.093024
H	 2.7899453182	 3.7383093062	 1.4295886028	 0.090319
H	 3.7223903872	 4.2921038556	-1.3086740735	 0.106397
H	 3.185408353	 2.5972488751	-1.0020083838	 0.13434
H	 1.0596382669	 3.7390720307	-2.3296335164	 0.092594
H	 1.2094606309	 5.8615914636	 0.9656378546	 0.108446
H	 2.8024794385	 6.1474368806	 0.2131283769	 0.111474
26.1056	132.0275	148.7433	312.8659	344.4739	374.4948	408.3195	495.1962	643.7436	722.2835	835.592	854.6321	901.787	914.5231	941.6273	944.2359	994.9883	1003.8652	1040.8421	1044.08	1078.7493	1104.3528	1109.0188	1135.965	1177.9665	1187.9898	1221.9157	1242.4551	1263.1425	1272.2918	1287.5615	1356.5826	1384.635	1437.2562	1487.8903	1528.7863	1868.3922	2955.5295	3029.793	3058.0592	3072.015	3086.9419	3141.3952	3145.8975	3167.4937
O=COC1C2CC1OC2	O=CO[C@H]1[C@H]2C[C@@H]1OC2	
InChI=1S/C6H8O3/c7-3-9-6-4-1-5(6)8-2-4/h3-6H,1-2H2	InChI=1S/C6H8O3/c7-3-9-6-4-1-5(6)8-2-4/h3-6H,1-2H2/t4-,5-,6-/m0/s1
