19
gdb 83714	2.83852	1.59226	1.15271	3.813	76.04	-0.2226	0.0684	0.291	1088.4028	0.161501	-419.250002	-419.241715	-419.24077	-419.283167	31.111	
C	-0.1110055157	 1.4517176757	 0.4202023361	-0.345095
N	-0.0358684933	 0.0410312685	 0.1368241161	-0.086888
C	-1.1615428283	-0.7794175539	-0.2185575982	 0.006881
C	-1.6820546118	-0.7537531878	-1.694983444	-0.242568
C	-1.305839306	-2.2595688395	-1.8336538193	-0.226837
C	-0.5445166034	-2.1894953444	-0.4808930531	-0.002737
N	 0.8677206745	-1.874152891	-0.5738481127	-0.36316
C	 1.1681447966	-0.6023547732	-0.0939332881	 0.444928
O	 2.2773894004	-0.1423921432	 0.0772818807	-0.422394
H	 0.9044211781	 1.7992528325	 0.6199919128	 0.164409
H	-0.5211085133	 2.0232938882	-0.4240111514	 0.11675
H	-0.7371471998	 1.6429539065	 1.3003464421	 0.117505
H	-1.9565610432	-0.7308573498	 0.5318392019	 0.080212
H	-2.7367940486	-0.5052978779	-1.8308660169	 0.103033
H	-1.0814671801	-0.0953001693	-2.3265707148	 0.114375
H	-2.1751742873	-2.9206518432	-1.781743688	 0.103366
H	-0.6991032011	-2.5376941688	-2.6972414623	 0.108989
H	-0.7491327979	-2.9873518475	 0.2405520531	 0.07895
H	 1.5789036203	-2.5788646218	-0.4700285039	 0.250281
87.2067	95.957	151.6373	174.6828	279.6119	350.3942	412.4828	443.19	499.3643	622.6807	660.7886	744.9332	757.5521	769.4268	805.9089	876.4022	917.9561	942.967	961.3218	1029.0696	1081.3956	1092.6554	1136.4927	1163.177	1166.2847	1214.6872	1225.3081	1252.2337	1272.8883	1275.7439	1309.7437	1328.345	1360.0527	1412.0838	1428.8484	1459.4102	1468.5412	1487.2167	1493.0288	1525.0165	1828.0234	3002.3507	3039.7247	3052.0402	3054.901	3064.7634	3071.1318	3115.8427	3132.2536	3138.0248	3654.9163
CN1C2CCC2NC1=O	CN1[C@H]2CC[C@H]2NC1=O	
InChI=1S/C6H10N2O/c1-8-5-3-2-4(5)7-6(8)9/h4-5H,2-3H2,1H3,(H,7,9)	InChI=1S/C6H10N2O/c1-8-5-3-2-4(5)7-6(8)9/h4-5H,2-3H2,1H3,(H,7,9)/t4-,5+/m1/s1
