20
gdb 113395	2.98521	0.94869	0.80811	3.2717	71.9	-0.2482	0.0483	0.2964	1440.4828	0.169876	-477.37259	-477.362361	-477.361416	-477.408239	37.042	
O	-0.1794474212	 1.3010933389	-0.6329000165	-0.419477
C	 0.0087118011	 0.1484891333	 0.1704698549	-0.073684
C	-1.2969593131	-0.5957117305	 0.3450121484	-0.086623
N	-1.7895443594	-1.2776838446	-0.8649224454	-0.367591
C	-1.4348801885	-2.0800029397	 0.3265503165	 0.263338
C	-0.2266042881	-3.0014285318	 0.1772074784	-0.099788
O	-0.5789281938	-4.3720446929	 0.1088316789	-0.432326
C	-2.5938686962	-2.6828172617	 1.0935296384	-0.182115
O	-3.2742620464	-3.575202842	 0.2013256865	-0.419575
H	-0.550723632	 0.9847698839	-1.4652484691	 0.290592
H	 0.7755561753	-0.5126695873	-0.2553101102	 0.095456
H	 0.3745785354	 0.5038924757	 1.1395766642	 0.10945
H	-2.0317113762	-0.049197427	 0.935444029	 0.086576
H	-2.8005434191	-1.2007852978	-0.9469066739	 0.238777
H	 0.3419716271	-2.688606792	-0.7091272589	 0.100331
H	 0.4296640585	-2.8990811997	 1.0513798364	 0.10105
H	-1.4294297419	-4.4304555113	-0.3446008149	 0.289833
H	-2.2200832416	-3.2210160001	 1.9739657987	 0.115642
H	-3.2802981337	-1.8938393999	 1.433431527	 0.093921
H	-3.8578079162	-4.1372427733	 0.7205093817	 0.296212
57.0752	75.0483	110.8639	167.8457	189.5164	237.373	274.5747	330.053	348.3107	384.5699	410.2457	431.9407	451.7385	491.7414	649.0609	742.4689	846.3573	894.9637	958.2629	978.4783	983.6993	1026.0982	1056.1966	1068.011	1079.1758	1104.4833	1115.7466	1191.0055	1225.4981	1259.19	1261.5907	1267.8448	1291.4217	1354.0006	1367.7525	1381.4134	1425.0346	1450.6277	1460.4952	1480.0794	1498.7662	1504.301	1509.6221	2992.6381	3000.6262	3017.0539	3042.4014	3046.4216	3075.5239	3113.6925	3499.9383	3769.3267	3790.2979	3826.6305
OCC1NC1(CO)CO	OC[C@H]1NC1(CO)CO	
InChI=1S/C5H11NO3/c7-1-4-5(2-8,3-9)6-4/h4,6-9H,1-3H2	InChI=1S/C5H11NO3/c7-1-4-5(2-8,3-9)6-4/h4,6-9H,1-3H2/t4-/m1/s1
