15
gdb 46307	3.23133	1.39803	1.26225	3.7181	66.74	-0.2408	0.0056	0.2464	1006.4006	0.114331	-453.972985	-453.965484	-453.96454	-454.005559	27.294	
O	-0.1811628194	 0.0106224014	 0.1033440372	-0.356563
C	-0.1028584173	 1.2049583009	 0.0200948424	 0.400547
N	-1.0220183815	 2.2162209739	-0.0639621077	-0.334824
C	-0.0570328021	 3.319711417	-0.0600668838	-0.207002
C	 1.0709518771	 2.2417932948	 0.0151222667	 0.151869
C	 2.037946812	 2.1889151068	 1.2181865629	-0.18011
O	 3.3516768032	 2.1650368771	 0.6096592431	-0.215468
C	 3.1238570857	 2.1425357413	-0.7201549243	 0.117809
N	 1.9346267884	 2.1833530868	-1.162941672	-0.294387
H	-2.0299082037	 2.2008223163	-0.1014731691	 0.256544
H	-0.0360328106	 3.908840053	-0.9802777441	 0.129975
H	-0.1293561103	 3.9769795927	 0.8134596629	 0.11044
H	 1.978431701	 3.0582355374	 1.8778681371	 0.125847
H	 1.9183945407	 1.2725381721	 1.8026165333	 0.145554
H	 4.0186699968	 2.0989961386	-1.3304697646	 0.149771
79.6771	103.1421	172.3863	248.8024	284.7076	419.1965	466.3668	518.5437	631.5061	725.5892	767.1043	815.949	868.1757	878.3802	944.8584	967.0732	971.2049	998.1665	1098.956	1120.6556	1143.4188	1164.9587	1178.1309	1217.5056	1246.7189	1293.6573	1321.6919	1376.2813	1392.2441	1505.5447	1518.4857	1689.9326	1902.9211	3036.8319	3058.57	3102.5276	3111.0436	3223.1881	3621.2267
O=C1NCC11COC=N1	O=C1NC[C@]21COC=N2	
InChI=1S/C5H6N2O2/c8-4-5(1-6-4)2-9-3-7-5/h3H,1-2H2,(H,6,8)	InChI=1S/C5H6N2O2/c8-4-5(1-6-4)2-9-3-7-5/h3H,1-2H2,(H,6,8)/t5-/m1/s1
