18
gdb 14176	3.91968	1.71161	1.68205	1.1363	67.49	-0.2424	0.0953	0.3376	878.087	0.153181	-384.920441	-384.912612	-384.911668	-384.952233	29.398	
C	-0.0241603023	 1.5795062193	-0.0115880645	-0.4492
C	 0.0460305084	 0.0697159234	-0.0248317272	 0.24898
C	-1.1261916107	-0.6317716436	-0.6856041779	-0.455594
C	 1.3856961663	-0.637997088	-0.1754119782	 0.007433
O	 2.5486354859	 0.1319160941	 0.0415676561	-0.254376
C	 2.7470970164	 0.1183100982	 1.4441877459	 0.019882
O	 1.4630698261	 0.0636857102	 2.0400167259	-0.254317
C	 0.669790062	-0.6830306924	 1.1425905162	 0.007375
H	-0.0761972706	 1.9691201383	-1.0342709039	 0.114802
H	-0.9201141736	 1.9159474853	 0.5217602293	 0.114808
H	 0.8454348702	 2.0204273099	 0.475135458	 0.134392
H	-1.2193322714	-0.3307313146	-1.7350982969	 0.122683
H	-1.014735144	-1.7211790406	-0.6617513179	 0.113391
H	-2.0653130062	-0.3832044642	-0.1786458668	 0.122683
H	 1.5128030959	-1.4845192961	-0.8435287375	 0.09744
H	 3.345578344	-0.7609443822	 1.7392577709	 0.091473
H	 3.2456251123	 1.0433480253	 1.7465877592	 0.120692
H	 0.2033443013	-1.5668430423	 1.5673610693	 0.097455
127.4047	175.4646	187.6005	205.8608	283.3841	291.4294	332.0285	476.7328	505.5677	712.0212	744.6892	747.2569	830.9012	863.9749	956.7688	972.8	980.3157	1022.2811	1030.5191	1079.5855	1080.4503	1092.033	1132.3871	1155.085	1186.9215	1224.9777	1234.3781	1292.2003	1318.7078	1399.9985	1408.1043	1421.138	1428.259	1479.9598	1488.3392	1499.4782	1508.4006	1537.2623	2953.4281	3023.2163	3034.9506	3088.1737	3090.8226	3092.6424	3094.0192	3143.8995	3148.9437	3153.883
CC1(C)C2OCOC12	CC1(C)[C@H]2OCO[C@@H]12	
InChI=1S/C6H10O2/c1-6(2)4-5(6)8-3-7-4/h4-5H,3H2,1-2H3	InChI=1S/C6H10O2/c1-6(2)4-5(6)8-3-7-4/h4-5H,3H2,1-2H3/t4-,5+
