16
gdb 89211	2.55961	1.59688	1.22469	2.6445	64.22	-0.2504	-0.0033	0.2471	1023.6204	0.124519	-475.020598	-475.012526	-475.011582	-475.053187	30.662	
N	-0.1833507222	 1.444955734	-0.3120954329	-0.600514
C	-0.02626421	 0.0574092662	-0.0212502149	 0.138269
C	 0.5248683584	-0.8418636699	-1.1773882174	-0.330462
C	-0.7044935409	-1.8037395729	-1.025548399	 0.160958
O	-0.4894779353	-3.1687710059	-0.8290605659	-0.432994
C	-1.1734361134	-0.987482412	 0.195777125	 0.027802
O	-0.4922224742	-1.47112299	 1.3987718221	-0.280818
C	 0.4745653756	-0.4742605454	 1.3303713942	 0.401144
O	 1.3130614386	-0.2299056509	 2.1342847417	-0.321749
H	-0.3970251343	 1.9841769212	 0.5210255377	 0.244389
H	 0.6686103634	 1.8269663478	-0.7094651866	 0.246404
H	 0.5439167147	-0.3094738471	-2.1307070979	 0.123536
H	 1.5012697877	-1.2943386464	-0.9951241373	 0.123186
H	-1.3919525242	-1.6979158169	-1.868780954	 0.106283
H	-0.147208067	-3.2741451387	 0.0681641697	 0.293903
H	-2.220842307	-0.7669253432	 0.3932627854	 0.100661
89.6678	147.9394	215.6821	251.5784	268.0564	315.6468	407.6126	427.7228	464.9834	603.7982	635.4127	702.1896	746.4428	794.2925	808.5339	855.9839	887.6502	926.3025	965.3438	983.4986	1018.3255	1088.0838	1137.6594	1156.579	1179.0599	1212.1125	1268.2838	1292.7037	1309.2716	1330.6146	1374.8203	1438.2394	1470.4225	1661.29	1933.2304	3072.9463	3082.1116	3135.4168	3138.6154	3504.4599	3583.6546	3771.1519
NC12CC(O)C1OC2=O	N[C@]12C[C@@H](O)[C@H]1OC2=O	
InChI=1S/C5H7NO3/c6-5-1-2(7)3(5)9-4(5)8/h2-3,7H,1,6H2	InChI=1S/C5H7NO3/c6-5-1-2(7)3(5)9-4(5)8/h2-3,7H,1,6H2/t2-,3-,5-/m1/s1
