17
gdb 22724	4.37803	0.90164	0.81846	0.7251	73.96	-0.2411	0.0002	0.2414	1377.5406	0.135406	-455.048936	-455.040254	-455.03931	-455.082687	32.342	
O	 0.1447029758	 1.31717566	-0.317042507	-0.413744
C	 0.0669728698	 0.0064338465	 0.2226554177	-0.163241
C	-1.3495100007	-0.4811294429	 0.2880351137	 0.318057
C	-2.4352321008	-0.0728619556	 1.3127145345	-0.393117
C	-2.9440307502	-1.5108416321	 1.2051867618	 0.437507
N	-3.79011833	-2.2337388759	 1.809947266	-0.257712
O	-4.5311572982	-1.4751647282	 2.7340480585	-0.389917
C	-1.9118300199	-1.8875180551	 0.1945166784	-0.197616
N	-1.9676849023	-0.9536782586	-0.9444255998	-0.362867
H	-0.1918254618	 1.2651122357	-1.2186747607	 0.289879
H	 0.6639843789	-0.7091727988	-0.3607766871	 0.101795
H	 0.4955972884	 0.0661414503	 1.2281632389	 0.114219
H	-2.053505104	 0.1383297643	 2.3162873326	 0.137011
H	-3.1058974017	 0.7376798417	 1.0135321395	 0.122903
H	-5.111185485	-2.1390245671	 3.1223430519	 0.3088
H	-1.4318375717	-2.8479465038	 0.0555814908	 0.110725
H	-2.9051450867	-0.5831475504	-1.0902200096	 0.237319
65.2951	91.5743	158.5389	223.6195	300.3059	330.7014	371.5632	403.1078	415.7048	460.5841	507.0519	601.0818	693.3637	734.0016	830.784	852.0609	922.9916	962.2536	970.364	996.8832	1027.0805	1067.5595	1098.0864	1112.5212	1151.0641	1174.5157	1200.4067	1221.666	1259.7955	1303.7093	1374.2774	1409.8883	1411.3465	1443.3215	1473.021	1491.0367	1785.7475	3003.8001	3056.8074	3082.4577	3105.6274	3202.6543	3468.1433	3803.2904	3816.6546
OCC12CC(=NO)C1N2	OC[C@]12CC(=NO)[C@H]1N2	
InChI=1S/C5H8N2O2/c8-2-5-1-3(7-9)4(5)6-5/h4,6,8-9H,1-2H2	InChI=1S/C5H8N2O2/c8-2-5-1-3(7-9)4(5)6-5/h4,6,8-9H,1-2H2/t4-,5-/m1/s1
