19
gdb 94381	2.99948	1.38733	1.26704	1.9363	74.81	-0.2478	0.0747	0.3226	1071.5556	0.158577	-422.96558	-422.957456	-422.956512	-422.998296	31.653	
O	-0.0354736076	 1.3519720378	-0.1446039769	-0.437734
C	 0.0288871667	-0.0560569226	 0.0056602266	 0.05732
C	 0.2102555444	-0.5154780552	 1.4822756938	-0.24844
C	-1.3343569031	-0.6550657881	 1.594459927	-0.303879
C	-1.4096335554	-0.6158834269	 0.0472788507	 0.364912
C	-2.6116077188	 0.016919146	-0.7234090855	-0.342489
C	-2.8217710447	-1.3374821991	-1.4147119488	 0.036617
O	-1.5982430627	-1.6664177162	-2.0887130028	-0.249007
C	-1.6947059812	-1.9383414543	-0.6866176906	-0.061466
H	 0.8508223316	 1.7046276044	-0.0147961187	 0.282929
H	 0.6953329904	-0.5033664928	-0.7429553482	 0.070632
H	 0.7285741007	-1.4757120265	 1.5567318664	 0.100979
H	 0.6960743551	 0.202381095	 2.1480196503	 0.094277
H	-1.7265296984	-1.5483253232	 2.0887033883	 0.096027
H	-1.796857574	 0.2264901338	 2.0447899021	 0.111999
H	-3.4276352951	 0.2883433966	-0.0476984967	 0.103239
H	-2.3800324138	 0.8564304273	-1.3810201105	 0.12492
H	-3.7307136872	-1.7829030964	-1.8022925962	 0.102231
H	-1.5112427968	-2.9563188595	-0.3586450103	 0.096932
78.5563	128.8088	181.5168	257.6486	285.1996	340.3925	403.3732	456.016	513.5821	555.932	706.8744	779.8431	834.9429	843.8958	861.1635	868.5929	890.5875	920.7477	948.5907	963.314	985.8707	1030.34	1042.049	1097.0487	1138.8332	1148.1877	1162.8643	1176.2768	1216.5824	1223.6629	1228.1371	1251.5493	1255.6732	1270.9062	1296.7765	1328.7399	1382.6129	1418.2596	1464.6011	1469.2616	1485.8946	3016.1112	3053.3719	3059.57	3065.7466	3101.567	3118.7163	3130.1841	3167.4439	3188.6748	3812.2494
OC1CCC11CC2OC12	O[C@H]1CC[C@]21C[C@H]1O[C@@H]21	
InChI=1S/C7H10O2/c8-5-1-2-7(5)3-4-6(7)9-4/h4-6,8H,1-3H2	InChI=1S/C7H10O2/c8-5-1-2-7(5)3-4-6(7)9-4/h4-6,8H,1-3H2/t4-,5+,6-,7-/m1/s1
