14
gdb 132031	2.31953	1.88211	1.03902	5.2196	70.49	-0.1925	-0.0061	0.1864	1046.4002	0.10181	-477.998676	-477.99102	-477.990075	-478.030606	29.396	
O	 0.375086598	 1.3180231768	 0.0045797357	-0.420472
C	 0.2053650591	-0.0208163398	 0.0023257205	 0.372961
C	-0.9941040246	-0.6471848153	-0.0546649153	 0.068377
F	-2.0808683184	 0.1466960489	-0.1122670289	-0.088005
C	-1.1475699292	-2.0895456651	-0.0554266584	 0.206879
N	-2.3197835352	-2.6257567353	-0.1112593421	-0.571151
C	 0.1484126205	-2.7735356952	 0.0122881667	-0.214626
C	 1.3230346349	-2.1117726152	 0.0676777671	 0.010433
N	 1.3707526543	-0.7380282762	 0.0637819544	-0.395628
H	-0.5049668021	 1.7146539093	-0.0409425449	 0.319136
H	-2.2333245036	-3.6435145109	-0.1020758682	 0.198436
H	 0.1535134319	-3.8573728436	 0.017685504	 0.104305
H	 2.2833494851	-2.6086235692	 0.1177659122	 0.134754
H	 2.239929559	-0.2330192992	 0.1040450372	 0.274601
125.2443	190.5842	284.7662	289.0845	313.0319	321.2152	441.77	497.6705	515.989	517.9348	563.7903	618.4328	697.8686	705.5463	780.9222	849.2653	857.6904	928.5826	1033.297	1075.1508	1166.3829	1232.1785	1235.9507	1278.0497	1375.498	1411.542	1446.1109	1566.9143	1625.2717	1679.8953	1737.0951	3196.0776	3221.6169	3450.2638	3669.2613	3789.6802
OC1=C(F)C(=N)C=CN1	O[C@H]1C(=C([NH])C=CN1)F	
InChI=1S/C5H5FN2O/c6-4-3(7)1-2-8-5(4)9/h1-2H,(H3,7,8,9)	InChI=1S/C5H6FN2O/c6-4-3(7)1-2-8-5(4)9/h1-2,5,7-9H/t5-/m0/s1
