18
gdb 71699	3.62456	1.50634	1.38673	2.7506	74.02	-0.2187	0.0733	0.292	988.2182	0.148007	-401.890378	-401.883003	-401.882059	-401.921566	30.286	
C	 0.0063277846	 1.4199836682	 0.0286221438	-0.487015
C	 0.0299916059	-0.0823304498	-0.0499246344	 0.330423
C	-0.3817976875	-0.818295079	-1.3133532935	-0.290954
C	-0.3135414692	-2.2350122866	-0.7897192438	-0.166001
C	-0.6629570756	-2.229386032	 0.6898650604	-0.082425
N	-0.4603453084	-0.810575228	 1.1716454234	-0.186319
C	 0.9775640113	-0.9109197094	 0.7458066176	-0.195079
C	 0.7668731444	-2.3680053697	 0.2790170024	 0.380519
O	 1.6254460412	-3.4289571463	 0.4455966072	-0.462767
H	 0.6983244437	 1.8598215997	-0.6976758306	 0.116606
H	-0.9974904708	 1.8038394074	-0.1821786259	 0.124374
H	 0.2925899314	 1.7589074216	 1.0273519476	 0.132427
H	-1.388949618	-0.5335472538	-1.6382349054	 0.106782
H	 0.3145654881	-0.6274407973	-2.1380256244	 0.100302
H	-0.5631466219	-3.1088525367	-1.3785860929	 0.093784
H	-1.3650229663	-2.8854884273	 1.1856329617	 0.103921
H	 1.7824547648	-0.5419789936	 1.3726875946	 0.093867
H	 2.2228861624	-3.4614958074	-0.310365688	 0.287553
188.0422	219.5406	237.1327	295.9244	325.7506	380.5791	427.6647	543.8906	571.4014	631.9826	706.5295	727.2091	766.003	821.1347	844.2937	885.1631	902.8807	941.8126	981.2941	993.8859	1006.7009	1010.9696	1031.9755	1058.9462	1096.1107	1142.1603	1177.4823	1193.7775	1208.085	1244.0882	1289.2277	1304.8472	1323.1389	1388.3979	1420.6197	1478.498	1486.7006	1490.522	1494.4843	3033.4272	3037.4741	3077.1169	3097.261	3120.6344	3167.8929	3200.1329	3211.1478	3783.6389
CC12CC3C4N1C2C34O	C[C@]12C[C@@H]3[C@@H]4N1[C@H]2[C@]34O	
InChI=1S/C7H9NO/c1-6-2-3-4-7(3,9)5(6)8(4)6/h3-5,9H,2H2,1H3	InChI=1S/C7H9NO/c1-6-2-3-4-7(3,9)5(6)8(4)6/h3-5,9H,2H2,1H3/t3-,4+,5-,6-,7+,8?/m1/s1
