17
gdb 39305	2.68324	2.14234	1.85493	1.1017	65.58	-0.2363	0.0668	0.3031	823.3293	0.139286	-458.936288	-458.930194	-458.92925	-458.966545	25.375	
C	-0.0506808863	 1.5610407667	-0.0563502057	-0.10195
O	 1.3127925358	 2.0222127353	-0.0552579894	-0.272337
C	 2.126172553	 0.9427177283	-0.4440182681	 0.088538
C	 2.5925032097	-0.0816751868	 0.646470709	 0.018768
C	 1.6286035114	-0.0719440787	 1.8257032984	-0.084187
O	 0.3112926702	-0.3862175524	 1.3679971624	-0.264949
C	 0.0380333271	 0.0343895702	 0.0409283137	 0.053866
C	 1.2775578973	-0.2603129553	-0.8639511976	 0.042328
O	 2.1878161787	-1.1743885684	-0.2289098833	-0.285847
H	-0.5742887887	 1.9953396524	 0.7989228309	 0.124083
H	-0.5521615629	 1.8791366966	-0.9824549791	 0.100262
H	 2.9181736431	 1.2786738333	-1.114118295	 0.092836
H	 3.6448803727	-0.1307343571	 0.9352749764	 0.085105
H	 1.8922965671	-0.8465908447	 2.5518135952	 0.117054
H	 1.6546359967	 0.90789233	 2.3244808255	 0.106499
H	-0.8803333275	-0.4719265089	-0.2626441604	 0.09191
H	 1.0498682125	-0.5106402204	-1.9015634429	 0.088021
175.5941	252.5064	393.7229	412.1396	426.4751	569.3588	656.5292	684.0082	747.3197	813.1634	828.4777	854.3658	904.9418	915.8467	938.2848	984.1741	994.0087	1010.0085	1026.1676	1057.5258	1070.2177	1138.2956	1142.8935	1174.891	1213.0932	1228.6123	1246.4375	1265.7887	1281.3474	1317.4775	1330.6697	1343.9958	1354.3842	1389.5001	1406.3501	1496.1889	1506.5958	2998.1478	3004.8029	3082.0167	3091.3325	3094.0929	3100.2126	3103.5374	3113.8326
C1OC2C3COC1C2O3	C1O[C@H]2[C@H]3CO[C@@H]1[C@@H]2O3	
InChI=1S/C6H8O3/c1-3-6-5(8-1)4(9-6)2-7-3/h3-6H,1-2H2	InChI=1S/C6H8O3/c1-3-6-5(8-1)4(9-6)2-7-3/h3-6H,1-2H2/t3-,4+,5-,6-/m0/s1
