14
gdb 19450	5.78522	1.59434	1.58055	1.8236	68.08	-0.2435	-0.0151	0.2284	825.9121	0.106895	-345.311567	-345.30522	-345.304276	-345.341801	25.347	
C	-0.0625230274	-1.2107326409	-0.0829496124	-0.417452
C	-0.025896355	-0.0101423506	-0.0257187793	 0.313577
C	-0.0138124901	 1.4362641814	 0.012041369	-0.195612
C	 0.0601423267	 2.0993734652	 1.445294784	 0.019267
O	 1.4818139983	 1.7656766823	 1.4647164602	-0.276804
C	 1.4089271128	 2.1245269499	 0.0509301784	 0.019252
C	 1.014455292	 3.6085830807	 0.1169035598	-0.089836
C	 0.0861239767	 3.5912661164	 1.0765612902	-0.089849
H	-0.0843525269	-2.2715995696	-0.1230423755	 0.195663
H	-0.7390516427	 1.8680331962	-0.6817043165	 0.103265
H	-0.5093643892	 1.7360646024	 2.2982615648	 0.093335
H	 2.2488166801	 1.7875029787	-0.5531251662	 0.093335
H	 1.3989441266	 4.4146729184	-0.4896034573	 0.11593
H	-0.5216611919	 4.3788470695	 1.4958184409	 0.115929
151.8867	153.5992	379.2901	464.0256	469.7775	546.7066	617.9014	632.1272	637.1692	712.6464	746.0604	847.5615	857.5134	875.4839	903.6059	909.4247	919.6997	962.667	1012.4095	1050.0532	1132.0693	1150.177	1171.3059	1213.5014	1233.992	1296.5262	1299.6972	1341.9687	1611.7018	2233.4891	3082.2627	3149.0598	3152.0779	3236.4715	3263.149	3504.2268
C#CC1C2OC1C=C2	C#C[C@H]1[C@H]2O[C@@H]1C=C2	
InChI=1S/C7H6O/c1-2-5-6-3-4-7(5)8-6/h1,3-7H	InChI=1S/C7H6O/c1-2-5-6-3-4-7(5)8-6/h1,3-7H/t5-,6-,7+
