14
gdb 133022	3.03967	1.3582	0.94421	3.3946	69.69	-0.233	-0.0572	0.1758	1150.7179	0.102312	-474.198404	-474.190768	-474.189824	-474.231203	27.347	
C	 0.1003831056	 1.4285907029	 0.0838581969	-0.331688
N	 0.0043077314	-0.0175505775	 0.1482578191	-0.347759
C	-1.1327271426	-0.5669353133	 0.0509019549	 0.459382
N	-1.1668179092	-1.9885529691	 0.1208834706	-0.312681
C	-2.3123009458	-2.6712938533	 0.0295114605	 0.12347
N	-3.4795688825	-2.1135859498	-0.1286346238	-0.334923
C	-3.3979351747	-0.7507422408	-0.1903037667	 0.339563
F	-4.5730704846	-0.1807054253	-0.3499552904	-0.044905
N	-2.3783674412	 0.025428547	-0.1177152627	-0.365827
H	 0.7632681898	 1.70831754	-0.7435527624	 0.121916
H	-0.8631636351	 1.9318422348	-0.048365835	 0.136676
H	 0.5709740512	 1.7988071526	 1.0024156516	 0.12191
H	-0.275423109	-2.4479423422	 0.2433991424	 0.280059
H	-2.2418406233	-3.754310876	 0.0935018252	 0.154807
84.0906	111.7689	200.6906	210.0493	248.7738	430.0244	442.1193	517.2453	576.4385	604.6578	684.7179	737.8474	785.4119	803.1835	974.6945	988.8457	1003.1666	1072.0319	1136.2935	1151.0737	1189.824	1243.0422	1358.922	1412.5338	1438.1538	1486.6432	1496.7153	1503.2504	1586.7135	1689.8794	1772.7729	3015.818	3068.7164	3094.0972	3174.379	3615.302
CN=C1NC=NC(F)=N1	C[N]C1=NC(=NCN1)F	
InChI=1S/C4H5FN4/c1-6-4-8-2-7-3(5)9-4/h2H,1H3,(H,6,7,8,9)	InChI=1S/C4H6FN4/c1-6-4-8-2-7-3(5)9-4/h2H2,1H3,(H,7,8,9)
