23
gdb 116464	1.94816	1.62817	1.06186	1.3812	82.25	-0.2363	0.0775	0.3138	1248.9988	0.206054	-425.428793	-425.419243	-425.418299	-425.4633	35.796	
C	-0.0072406161	 1.4094750746	-0.152181391	-0.235262
O	-0.017155583	 0.0361040165	 0.1546775652	-0.241819
C	-1.2851266002	-0.5937492024	 0.0678303353	 0.123638
C	-1.743071589	-0.7961959317	-1.3856513579	-0.101512
O	-0.8878876024	-1.6563049663	-2.1082943898	-0.238738
C	-0.8014630863	-2.9460448939	-1.5243233125	-0.078851
C	-0.2851370106	-2.886666877	-0.0858784683	-0.198634
C	-1.169581773	-1.9604496095	 0.7667825737	 0.005107
C	-0.6795840513	-1.8399421979	 2.2112750543	-0.407086
H	 0.9927763906	 1.7832696653	 0.0821545216	 0.127047
H	-0.209743049	 1.6106057821	-1.2138549661	 0.111428
H	-0.7428836423	 1.9655120541	 0.4508467432	 0.100666
H	-2.0402865966	 0.0250765454	 0.5851648381	 0.05201
H	-2.7763588711	-1.1882654654	-1.3708531987	 0.079572
H	-1.7589008844	 0.1504715016	-1.9333139327	 0.103682
H	-1.7931386633	-3.4335492016	-1.5464632776	 0.078404
H	-0.1303446929	-3.5242630597	-2.1661235712	 0.10457
H	-0.2658170777	-3.8964013668	 0.3413474136	 0.087373
H	 0.742109299	-2.5067537395	-0.0876569575	 0.118665
H	-2.1857107041	-2.3815995533	 0.77773383	 0.06662
H	 0.3179643353	-1.3954107836	 2.2446966726	 0.132957
H	-1.3491471199	-1.207146501	 2.8045299394	 0.104342
H	-0.6365440917	-2.8239537298	 2.6897825964	 0.105821
49.4985	117.8668	171.2821	201.4077	211.4985	237.3988	290.7445	316.5808	357.423	410.6175	438.0061	518.26	596.2101	700.129	798.0709	849.38	864.9743	903.6515	966.9724	989.008	997.5276	1013.5444	1055.3521	1092.7541	1129.8357	1144.5896	1166.5139	1181.4104	1192.7222	1216.6921	1244.3275	1268.7832	1308.9188	1323.8037	1341.4997	1361.582	1380.1283	1389.9971	1395.8171	1407.65	1424.9432	1474.9555	1478.5909	1479.6375	1491.257	1498.5045	1504.077	1504.1712	1509.4036	2935.4963	2942.2964	2950.1554	2974.9885	2998.9214	3027.3297	3032.0339	3036.2802	3080.0068	3085.0364	3088.1824	3093.9771	3109.7569	3124.9084
COC1COCCC1C	CO[C@H]1COCC[C@H]1C	
InChI=1S/C7H14O2/c1-6-3-4-9-5-7(6)8-2/h6-7H,3-5H2,1-2H3	InChI=1S/C7H14O2/c1-6-3-4-9-5-7(6)8-2/h6-7H,3-5H2,1-2H3/t6-,7+/m1/s1
