16
gdb 31572	3.48543	1.09105	0.83702	1.5809	68.53	-0.159	0.0649	0.2239	1312.5383	0.122783	-475.028875	-475.01944	-475.018496	-475.062877	34.108	
C	 0.0061421384	 0.7425739953	-0.6437045337	-0.242753
O	 0.1580195425	 0.9357281823	 0.7503562171	-0.260686
C	 0.7927568112	-0.0723861397	 1.3924664228	 0.424422
C	 1.3226969867	-1.2734939891	 0.9948085746	-0.422729
C	 1.8529080958	-1.8848776656	 2.1883612752	 0.140302
O	 2.5500500922	-3.070478404	 2.3173254808	-0.462426
C	 1.624879851	-1.0358539649	 3.2324383776	 0.315317
O	 1.9289817598	-1.1106828084	 4.5540662929	-0.447148
N	 0.979923243	 0.0798972133	 2.7465745688	-0.391995
H	-0.588722526	-0.1556448001	-0.855278734	 0.122785
H	-0.5120880148	 1.6231628501	-1.0258158538	 0.133398
H	 0.9819496043	 0.6456655814	-1.137280602	 0.125417
H	 1.3533050441	-1.6762424098	-0.0035917924	 0.096185
H	 1.9706325226	-3.7976230732	 2.0653649159	 0.293241
H	 2.4223357203	-1.9315141958	 4.6693419642	 0.307802
H	 0.6905364388	 0.8757363481	 3.287182376	 0.268869
71.9134	178.0066	195.4018	209.5168	234.5508	238.6626	251.179	293.8473	327.3111	373.2495	394.6343	525.8355	637.8764	641.514	662.5281	666.8565	705.0306	818.7021	1009.9079	1082.3461	1126.9281	1172.1158	1183.5362	1184.1404	1232.309	1262.037	1284.6453	1382.762	1459.6767	1480.7243	1481.3796	1510.923	1537.0121	1620.5755	1700.27	3004.0229	3060.5157	3138.6245	3267.7196	3692.2925	3784.1259	3810.1554
COC1=CC(O)=C(O)N1	COc1cc(O)c(O)[nH]1	
InChI=1S/C5H7NO3/c1-9-4-2-3(7)5(8)6-4/h2,6-8H,1H3	InChI=1S/C5H7NO3/c1-9-4-2-3(7)5(8)6-4/h2,6-8H,1H3
