23
gdb 121144	2.91201	0.90155	0.82631	1.9269	83.07	-0.2485	0.0729	0.3214	1539.0007	0.203315	-425.407792	-425.397298	-425.396354	-425.443382	38.698	
C	-0.1076762995	 1.3675974059	 0.0867638813	-0.223198
O	-0.075947179	-0.0338140118	-0.0192452866	-0.233323
C	 0.7148348155	-0.4870399377	-1.0999075093	-0.094493
C	 0.6596776552	-2.0000078406	-1.1196342053	 0.00726
C	-0.6538389851	-2.7236628125	-1.5162316673	-0.233236
C	 0.2028676712	-3.8058377007	-2.2269150613	-0.278928
C	 1.4023670138	-2.805664404	-2.2238256089	 0.380271
C	 1.5806002658	-2.0868102751	-3.5595838932	-0.448163
O	 2.644550338	-3.2917862275	-1.7466638905	-0.477771
H	 0.8970391734	 1.7899335925	 0.2503960587	 0.101591
H	-0.5310754062	 1.8384464488	-0.8154677103	 0.099614
H	-0.7385187788	 1.6186353818	 0.9432995093	 0.124811
H	 0.3358853217	-0.064710859	-2.0468996258	 0.075919
H	 1.7574636837	-0.1418537815	-0.9849993904	 0.089958
H	 1.0112717301	-2.3755870726	-0.1538303198	 0.093832
H	-1.3066124587	-3.0482514909	-0.7050819794	 0.105903
H	-1.2468958012	-2.1338553083	-2.2221888653	 0.09678
H	 0.4212901642	-4.65127976	-1.5698283428	 0.105706
H	-0.1406764988	-4.1802270827	-3.1954951221	 0.086663
H	 0.6365153417	-1.6770811659	-3.9310170619	 0.121282
H	 2.3053077976	-1.2712865383	-3.4741247548	 0.123711
H	 1.9477152598	-2.7914074558	-4.3169367807	 0.104209
H	 3.0835846158	-3.7577871642	-2.4667465436	 0.2716
63.4154	94.8258	119.8905	134.7361	230.6104	261.1091	267.3854	272.7993	286.5205	336.6628	349.1122	411.9977	508.8375	514.6537	613.8543	751.6805	816.2309	890.2918	896.6971	912.4465	948.3701	968.8221	983.4975	1020.6543	1091.432	1132.5009	1151.5129	1161.6393	1175.123	1188.4768	1198.3509	1209.7271	1234.0966	1243.3695	1265.3762	1275.853	1303.6924	1361.4346	1373.9861	1406.5862	1428.9453	1476.3741	1480.3823	1484.9528	1492.0718	1494.7484	1498.902	1503.86	1527.2541	2940.9842	2965.8388	2969.4867	3006.2161	3021.1778	3051.7391	3057.9313	3071.0162	3087.1288	3109.2855	3110.0666	3113.5342	3126.3267	3798.4955
COCC1CCC1(C)O	COC[C@H]1CC[C@]1(C)O	
InChI=1S/C7H14O2/c1-7(8)4-3-6(7)5-9-2/h6,8H,3-5H2,1-2H3	InChI=1S/C7H14O2/c1-7(8)4-3-6(7)5-9-2/h6,8H,3-5H2,1-2H3/t6-,7+/m1/s1
