19
gdb 22734	2.39741	1.38911	0.98702	2.0802	80.96	-0.2337	-0.0028	0.2309	1234.6904	0.158168	-419.126771	-419.117642	-419.116698	-419.160914	34.168	
C	-0.6704973311	 1.250426131	 0.2215341729	-0.399471
C	 0.0340765104	-0.0740774434	-0.0636075214	-0.079064
C	 1.0385046502	-0.1084137312	-1.2710687306	-0.350544
C	 2.144521282	-0.5811181785	-0.3077773859	 0.277534
C	 3.1888905713	-1.6110336047	-0.5439183597	-0.293679
N	 3.561210334	-0.2092385299	-0.2990530732	-0.351665
C	 1.200855922	-0.451146717	 0.8440123289	 0.370169
N	 1.3901017199	-0.6295967424	 2.0837033163	-0.252163
O	 0.200274515	-0.4363286027	 2.8126101996	-0.393245
H	 0.0513047415	 2.0710772322	 0.289779755	 0.118153
H	-1.379390024	 1.4882955041	-0.5787191684	 0.11338
H	-1.2139426955	 1.2013336567	 1.16774203	 0.141146
H	-0.7019314091	-0.8840979703	-0.1156451133	 0.09823
H	 0.7855034525	-0.7942362775	-2.0827761996	 0.108179
H	 1.2253259411	 0.8855597165	-1.6895854775	 0.107743
H	 3.4476307736	-2.2960425791	 0.258497299	 0.132908
H	 3.2784480705	-2.0170852134	-1.5490348155	 0.112976
H	 3.7916596683	 0.2486679674	-1.1788276233	 0.231939
H	 0.4948653975	-0.5757432579	 3.7188599366	 0.307475
43.6436	144.7605	163.4312	217.4213	226.4388	254.6247	316.4447	372.7744	375.6461	441.7983	511.9718	569.124	640.5177	753.8949	803.6129	826.63	884.8479	905.423	938.7305	967.148	980.5915	994.0331	1034.9665	1094.0791	1104.1697	1125.7028	1155.4254	1182.9484	1222.2117	1250.6135	1266.2225	1287.2503	1335.2051	1375.1929	1405.1527	1432.7528	1479.5233	1491.0117	1501.4675	1504.9321	1775.012	3035.1807	3045.4028	3051.8722	3100.2502	3101.9325	3109.7341	3128.6364	3194.2766	3484.8961	3818.0353
CC1CC2(CN2)C1=NO	C[C@H]1C[C@]2(CN2)C1=NO	
InChI=1S/C6H10N2O/c1-4-2-6(3-7-6)5(4)8-9/h4,7,9H,2-3H2,1H3	InChI=1S/C6H10N2O/c1-4-2-6(3-7-6)5(4)8-9/h4,7,9H,2-3H2,1H3/t4-,6-/m0/s1
