18
gdb 71500	2.91649	1.60657	1.41476	3.7953	75.95	-0.2356	0.0157	0.2513	986.0933	0.149256	-401.945623	-401.938325	-401.93738	-401.97699	29.568	
C	-0.0018103667	 1.5003199239	-0.0074050753	-0.521159
C	 0.0261019023	-0.0023982898	-0.0298036048	 0.32419
C	 0.5828535348	-0.9469098164	-1.1230686407	-0.293195
C	 0.039400307	-1.9016338847	-0.0377534483	-0.053674
C	 0.615354542	-0.97376398	 1.0643161858	-0.024065
N	-0.2929284093	-1.0568188538	 2.2008632562	-0.34053
C	-1.5588663807	-0.9463919521	 1.6282866779	 0.403152
O	-2.6202881627	-0.8165229383	 2.1875422052	-0.373389
C	-1.2161464194	-0.9779170243	 0.1435533139	-0.19351
H	 1.0088505411	 1.9116615728	-0.1059582504	 0.122365
H	-0.6070614704	 1.8977209183	-0.8289552682	 0.129226
H	-0.4290336741	 1.8703632324	 0.9314035067	 0.128276
H	 0.0533216006	-0.9484044028	-2.0790141392	 0.100469
H	 1.6673582198	-0.9363142839	-1.2758534392	 0.090752
H	 0.0363202498	-2.9920462065	-0.0277232133	 0.083994
H	 1.6768183411	-0.9791880115	 1.3100835366	 0.083634
H	-0.1008000167	-0.621796656	 3.0901989449	 0.248681
H	-2.0322554785	-0.9792583473	-0.5761919978	 0.084785
139.5624	204.6845	231.9401	307.5247	360.15	412.0796	458.4555	514.0143	617.5608	630.2583	714.9985	738.8329	801.4277	828.5383	893.9712	906.7663	916.1334	936.8687	1000.9397	1008.2287	1012.2792	1061.5709	1070.0666	1127.8374	1138.8207	1173.4254	1185.7587	1205.1224	1223.0253	1227.2078	1274.9456	1312.9934	1331.6708	1392.851	1411.1247	1486.9244	1489.3282	1521.9725	1855.8914	3027.0134	3042.2615	3094.8396	3097.7993	3107.7355	3112.1265	3129.4124	3147.7935	3631.0862
CC12CC3C1NC(=O)C23	C[C@@]12C[C@H]3[C@@H]1NC(=O)[C@@H]23	
InChI=1S/C7H9NO/c1-7-2-3-4(7)6(9)8-5(3)7/h3-5H,2H2,1H3,(H,8,9)	InChI=1S/C7H9NO/c1-7-2-3-4(7)6(9)8-5(3)7/h3-5H,2H2,1H3,(H,8,9)/t3-,4+,5+,7+/m1/s1
