17
gdb 66014	2.28282	1.53287	1.39622	3.0255	67.36	-0.2675	-0.0091	0.2585	1030.315	0.134999	-458.963892	-458.955385	-458.954441	-458.997308	31.453	
O	 0.00945947	 1.4186495778	-0.2840539583	-0.465883
C	-0.0332426859	 0.0345268703	-0.054759851	 0.201494
C	 0.8662402171	-0.874854723	-0.9419449814	-0.127782
O	 1.5731117474	-1.3502409223	 0.2492205708	-0.242739
C	 0.8753131409	-0.513247464	 1.0804245565	 0.380514
O	 1.032728683	-0.3446493818	 2.2471503374	-0.326541
C	-1.4821277353	-0.3679605774	 0.0334364577	-0.020685
C	-1.9192257176	-1.6201701943	 0.7534309831	-0.289509
C	-2.2266631124	-0.2650479412	 1.338518365	-0.2656
H	 0.9193699328	 1.7285683434	-0.2146464108	 0.29179
H	 0.3744457785	-1.701055392	-1.4572664062	 0.131055
H	 1.5464286689	-0.3414613502	-1.610525705	 0.119439
H	-2.0311680764	-0.1037858859	-0.8663208432	 0.101065
H	-2.7266881913	-2.193118681	 0.3120259249	 0.115492
H	-1.1694805447	-2.2262580616	 1.2507472	 0.13426
H	-1.6607499788	 0.0399851416	 2.2110014225	 0.146678
H	-3.2487059964	 0.0942047115	 1.3101767178	 0.116953
69.3129	121.7234	139.6052	217.0548	237.7258	308.6616	340.0206	391.0302	453.8208	556.1962	678.8964	737.3369	781.536	792.8869	835.4661	882.985	933.9757	952.2763	959.9048	983.297	1063.959	1072.7103	1092.179	1123.9931	1132.9599	1153.0271	1169.4952	1196.2648	1213.7738	1234.8612	1323.7187	1381.8731	1411.8549	1473.0515	1506.8296	1512.1824	1925.3704	3068.847	3137.5845	3139.2503	3144.2181	3148.0842	3218.0589	3237.464	3802.4396
OC1(COC1=O)C1CC1	O[C@]1(COC1=O)C1CC1	
InChI=1S/C6H8O3/c7-5-6(8,3-9-5)4-1-2-4/h4,8H,1-3H2	InChI=1S/C6H8O3/c7-5-6(8,3-9-5)4-1-2-4/h4,8H,1-3H2/t6-/m1/s1
