18
gdb 42118	2.18033	1.97528	1.16951	1.772	74.22	-0.2504	-0.0114	0.2389	1050.0583	0.149546	-439.06502	-439.057296	-439.056352	-439.097093	29.891	
C	-0.0095501204	 1.4217594455	 0.0022940771	-0.007311
O	 1.2585084442	 1.9879707099	 0.0014761953	-0.227062
C	 2.0851278136	 1.6370555547	 1.1327952698	-0.135851
C	 3.3578282381	 0.9681200662	 0.6715673687	-0.044246
C	 3.4930254576	-0.3140761853	 0.3268229205	-0.028293
C	 2.395936664	-1.359587907	 0.3248483247	-0.219908
N	 1.6791372133	-1.3077512532	-0.9619392892	-0.215723
C	 0.6368465926	-0.607315861	-1.024656963	 0.118349
O	 0.0315000712	 0.0019534928	 0.0487742003	-0.221706
H	-0.6030511749	 1.7015811806	 0.8826181502	 0.108407
H	-0.4965948225	 1.7744345517	-0.9161810199	 0.112646
H	 2.3174997274	 2.5664235595	 1.6637445166	 0.108378
H	 1.5247760348	 0.9877019858	 1.8125438051	 0.118323
H	 4.2236934531	 1.6186652962	 0.5752789785	 0.095141
H	 4.4599015981	-0.6460638947	-0.0436906432	 0.099822
H	 2.8412439681	-2.3545444294	 0.4094916338	 0.108024
H	 1.7231921697	-1.2158153235	 1.1756941518	 0.116578
H	 0.1126431221	-0.4695519588	-1.9737601069	 0.114432
130.9181	173.8367	204.9005	218.7679	339.8261	360.6541	387.4896	473.3124	525.2124	601.64	671.6359	686.3438	744.7779	898.3004	925.3718	935.3393	958.0261	991.1614	1000.1553	1008.4845	1024.3606	1044.3436	1121.6831	1150.7486	1183.6511	1251.7453	1284.6475	1295.1197	1308.5755	1346.437	1385.0684	1397.438	1425.2448	1436.9798	1495.5457	1508.8923	1521.7063	1715.746	1748.7515	3008.3775	3039.7792	3051.1615	3061.2929	3087.6769	3093.0662	3103.5371	3146.1467	3169.2779
C1OCC=CCN=CO1	C1OCC=CCN=CO1	
InChI=1S/C6H9NO2/c1-2-4-8-6-9-5-7-3-1/h1-2,5H,3-4,6H2/b2-1-,7-5-	InChI=1S/C6H9NO2/c1-2-4-8-6-9-5-7-3-1/h1-2,5H,3-4,6H2/b2-1-,7-5-
