15
gdb 133845	2.8624	2.2762	1.80209	1.4521	68.92	-0.1965	-0.0576	0.1389	786.5024	0.112894	-420.480733	-420.474503	-420.473559	-420.510813	26.254	
O	 1.893577273	-0.2922368463	 0.3477480335	-0.446238
C	 3.2032690876	 0.0102455909	 0.1718706189	 0.428155
C	 4.2688856206	-0.4256886681	 1.1035434632	-0.146661
C	 4.284045676	-1.1326077839	-0.2644679442	-0.140313
C	 4.9448745894	-0.3991208997	-1.2926740734	-0.17587
C	 5.2032333854	 0.8990515109	-0.5843527081	-0.079864
C	 5.1614158399	 0.828738036	 0.9925326335	 0.051156
O	 4.2159209197	 1.9531965289	 1.0161040592	-0.29068
C	 3.7693493037	 1.4054141318	-0.2397681021	-0.007473
H	 1.4096171516	-0.0926562792	-0.4622879779	 0.306453
H	 4.0559624539	-0.9547834787	 2.0228017055	 0.111523
H	 3.8751209519	-2.1317770912	-0.3630083008	 0.107905
H	 5.8684540182	 1.6424819627	-1.0155217773	 0.092963
H	 6.0141288946	 0.9623508588	 1.6555722504	 0.092675
H	 3.1697457245	 2.0711690373	-0.8587439105	 0.096268
218.7044	302.5795	346.6298	379.8506	436.5779	530.2964	575.1189	654.1277	694.7927	737.8104	799.6583	828.1195	834.4454	873.2228	905.7631	919.5808	940.1951	959.3519	1002.5436	1009.2656	1022.2953	1091.003	1114.5882	1174.0165	1189.6795	1201.049	1224.9462	1250.5315	1278.9861	1298.0642	1312.0412	1352.5288	1462.0989	3139.0518	3142.0598	3159.3938	3186.2779	3213.5986	3793.9163
OC12C3C1C1=CC3OC21	O[C@@]12[C@H]3[C@@H]1[C][C@@H]1[C@H]3O[C@H]21	
InChI=1S/C7H6O2/c8-7-4-2-1-3(5(4)7)9-6(2)7/h1,3-6,8H	InChI=1S/C7H6O2/c8-7-3-1-2-5(4(3)7)9-6(2)7/h2-6,8H/t2-,3+,4+,5-,6+,7-/m1/s1
