18
gdb 86864	2.84019	1.23732	0.9819	1.5431	73.26	-0.2584	-0.0441	0.2143	1222.5329	0.146965	-439.121066	-439.112312	-439.111368	-439.155208	31.853	
C	-0.7237812068	 1.05964437	 0.1103388048	-0.401659
C	 0.2410337365	-0.1206977498	 0.0509576394	-0.078414
C	 1.1996662688	-0.1557226348	-1.1524251968	-0.253518
C	 2.3931317282	-0.9371420703	-0.5925763904	-0.003207
O	 2.4067549861	-0.6908644396	 0.8229464923	-0.252876
C	 1.1932197214	-0.1885647395	 1.2317833725	 0.418193
N	 0.9312902778	 0.1551880603	 2.4154487478	-0.535812
C	 2.3127585909	-2.4441296712	-0.8295786696	 0.135765
O	 1.8627119727	-2.941765248	-1.8273545345	-0.23193
H	-0.1802672955	 2.0085995843	 0.0619012178	 0.121569
H	-1.431683501	 1.025841785	-0.7229963055	 0.116176
H	-1.2814447877	 1.0424354139	 1.0491870445	 0.148317
H	-0.3378611115	-1.0553736598	 0.0647329005	 0.115109
H	 0.7898316593	-0.6505254609	-2.0341782889	 0.13889
H	 1.5052916403	 0.8581580407	-1.4277518825	 0.114452
H	 3.3557270123	-0.5970411873	-0.9948844961	 0.122239
H	 1.7336456271	 0.0021974831	 3.0283347342	 0.225214
H	 2.7228052012	-3.0505386762	 0.0075655204	 0.101493
60.0773	84.9298	123.7454	211.5887	228.4656	268.2837	357.5554	386.4442	455.6835	555.7196	595.6545	675.6915	719.3716	779.4883	838.3523	886.3924	898.5248	942.2939	989.6175	1007.5332	1040.9429	1077.6223	1106.628	1137.073	1141.293	1208.5067	1256.3341	1285.1937	1314.2495	1325.4858	1350.2161	1378.2932	1399.7562	1412.3176	1490.4424	1495.2289	1497.7538	1781.9076	1836.0536	2903.358	3008.0801	3034.8523	3043.622	3065.7372	3111.3499	3131.4436	3134.0046	3476.9806
CC1CC(OC1=N)C=O	C[C@H]1C[C@@H](O[C]1[NH])C=O	
InChI=1S/C6H9NO2/c1-4-2-5(3-8)9-6(4)7/h3-5,7H,2H2,1H3	InChI=1S/C6H9NO2/c1-4-2-5(3-8)9-6(4)7/h3-5,7H,2H2,1H3/t4-,5+/m0/s1
