19
gdb 99680	2.68906	1.1622	0.95521	2.4077	76.5	-0.2487	0.0412	0.2898	1283.7998	0.157587	-422.964636	-422.95506	-422.954116	-422.999714	34.55	
O	 0.1463189169	 1.362196664	-0.162628291	-0.423733
C	 0.0415043989	-0.0344172261	 0.0072252582	-0.064129
C	-1.4289005085	-0.5206272624	 0.0485353132	-0.200832
C	-2.117550215	-0.1169638814	-1.1756810763	 0.32378
C	-2.6459431622	 0.2497954485	-2.1926885721	-0.48329
C	-1.4862519948	-2.0351983845	 0.2928388501	 0.148103
C	-2.8296962313	-2.7731559601	 0.1051858807	-0.310796
C	-2.0769986015	-3.5629846173	-0.984645515	-0.054845
O	-0.8735708916	-2.7911959949	-0.7732831557	-0.289194
H	-0.2924757903	 1.5798981701	-0.9935887112	 0.285712
H	 0.5700855539	-0.5901883175	-0.7790877712	 0.118519
H	 0.5171900909	-0.2654673381	 0.965837083	 0.108367
H	-1.9160757388	-0.029022963	 0.9027562874	 0.112404
H	-3.1293846416	 0.5623750629	-3.0853635284	 0.202252
H	-0.9895637073	-2.2419772718	 1.2518330249	 0.078222
H	-3.1707416108	-3.3514881277	 0.9645656858	 0.111204
H	-3.6425204151	-2.1457169819	-0.2624737268	 0.123372
H	-1.9178129865	-4.6270867121	-0.7728564954	 0.102943
H	-2.4546121753	-3.4508777667	-2.0067133401	 0.111939
66.0008	75.0995	112.9332	140.2693	173.1116	205.4311	327.4589	365.3532	393.6605	410.9049	562.5942	623.2625	655.4024	663.3616	759.3595	796.5619	829.838	894.797	952.0745	973.6408	1002.5085	1031.6804	1058.4272	1086.4037	1118.5855	1128.3744	1168.2126	1203.9143	1219.3234	1245.1579	1264.1396	1296.5752	1331.5356	1366.5814	1381.6274	1391.4624	1427.9734	1485.1098	1509.99	1526.156	2225.6748	2994.9358	3011.0438	3020.8036	3024.4298	3069.7974	3082.8766	3086.3055	3143.6839	3500.8381	3787.4875
OCC(C#C)C1CCO1	OC[C@@H](C#C)[C@H]1CCO1	
InChI=1S/C7H10O2/c1-2-6(5-8)7-3-4-9-7/h1,6-8H,3-5H2	InChI=1S/C7H10O2/c1-2-6(5-8)7-3-4-9-7/h1,6-8H,3-5H2/t6-,7-/m1/s1
