21
gdb 109295	3.35636	1.00614	0.80223	2.3271	81.81	-0.2303	0.0316	0.2619	1448.8898	0.181911	-424.233876	-424.224395	-424.22345	-424.268194	35.246	
C	-0.0158073802	 1.5124756233	 0.0235518796	-0.400816
C	 0.0305617151	-0.0072493886	-0.0203284127	 0.135959
C	 0.7863341838	-0.5549317148	-1.2381028916	-0.300078
C	 1.0487325394	-2.0344088295	-1.0843925411	 0.262367
C	 1.4062574326	-2.7802077507	-2.3391522587	-0.153589
O	 1.6740871362	-4.1394151229	-2.0543265621	-0.414627
C	 0.952983744	-2.6172789102	 0.1083886042	-0.149298
C	 0.6195182929	-1.8443267381	 1.3522058805	-0.125864
O	 0.6607840676	-0.4406850099	 1.1781857116	-0.261514
H	 0.9978630952	 1.9201216253	 0.0898623296	 0.12299
H	-0.4929714799	 1.9104305311	-0.8773090097	 0.110576
H	-0.5785673718	 1.8527402634	 0.8968115137	 0.121474
H	-0.999750582	-0.4040360179	-0.0492023742	 0.062486
H	 0.1998134703	-0.3637208325	-2.1475830187	 0.094562
H	 1.7318387868	-0.0071742487	-1.3616822496	 0.107754
H	 0.5756727302	-2.6792446854	-3.0614303512	 0.091307
H	 2.2782683319	-2.2890997585	-2.8085010081	 0.092651
H	 1.8827859604	-4.5825892508	-2.8809512092	 0.289716
H	 1.1158888265	-3.6845200114	 0.2129431031	 0.107496
H	-0.373119068	-2.1557537741	 1.7299982506	 0.092156
H	 1.3399055289	-2.0710226791	 2.1478846141	 0.114292
69.1346	123.1628	175.0965	195.8559	219.2383	227.7176	258.8114	306.6366	365.8679	434.9042	476.1903	497.0958	562.1656	721.7664	808.6223	829.2531	869.8411	913.5871	930.7652	1001.1577	1032.6754	1036.6263	1056.928	1089.9389	1123.1728	1157.347	1158.8206	1171.781	1222.9438	1232.5084	1261.7029	1269.2713	1308.217	1352.5798	1376.4727	1394.358	1406.5903	1411.9548	1461.8287	1468.7865	1483.3662	1489.3453	1500.44	1508.4166	1753.8395	2922.1801	2932.4589	2943.9633	2944.7496	3000.1924	3033.3446	3040.7283	3042.7483	3113.7062	3120.9576	3194.6646	3843.3667
CC1CC(CO)=CCO1	C[C@H]1CC(=CCO1)CO	
InChI=1S/C7H12O2/c1-6-4-7(5-8)2-3-9-6/h2,6,8H,3-5H2,1H3	InChI=1S/C7H12O2/c1-6-4-7(5-8)2-3-9-6/h2,6,8H,3-5H2,1H3/t6-/m0/s1
