18
gdb 65945	2.18355	1.58343	1.3595	1.9748	77.74	-0.251	0.0174	0.2685	1062.345	0.145347	-401.864897	-401.855947	-401.855002	-401.898385	33.848	
C	-0.1778572286	 1.5740661181	 0.114267678	-0.433111
C	 0.0156752603	 0.0613104784	 0.0553400253	 0.145357
O	 1.1376632024	-0.2842011894	-0.8078908855	-0.319262
C	 1.8789483326	-0.906214285	 0.2698633634	-0.137256
C	 0.7571478328	-0.5964861695	 1.2472014286	 0.245829
C	 0.7206093047	-0.2136538029	 2.6710246401	-0.305539
N	 0.2222835322	-1.5280239406	 2.2151056948	-0.355433
C	-1.2149193198	-0.6272460431	-0.3232789479	 0.32078
C	-2.2411614599	-1.1972754874	-0.5848497484	-0.45722
H	 0.7480094851	 2.054629279	 0.4400329955	 0.123895
H	-0.4416933048	 1.950837852	-0.8777167898	 0.139113
H	-0.9828135496	 1.8374718847	 0.8069755533	 0.123833
H	 2.0457225481	-1.9753072013	 0.0967338394	 0.119817
H	 2.8382846766	-0.4053319869	 0.4458686507	 0.106973
H	 1.6246342046	-0.2512418008	 3.2735094331	 0.123868
H	 0.0046979355	 0.5461365156	 2.9761062574	 0.117495
H	-0.7951903639	-1.5416342914	 2.1644260776	 0.237409
H	-3.1406619782	-1.7016397095	-0.8403736557	 0.203452
66.8286	125.6852	183.3768	212.1044	223.8924	297.3804	312.4771	382.5076	450.1556	497.6732	546.858	614.1795	625.8834	642.392	674.5695	840.0601	880.2745	885.1612	925.2738	949.4159	968.1524	1006.4837	1056.5008	1078.9629	1113.0699	1122.2001	1146.8815	1180.9176	1202.5195	1263.028	1283.001	1320.2697	1399.4034	1437.7141	1478.0991	1484.1138	1518.1907	1521.2098	2227.2287	3023.3541	3043.2073	3072.9149	3101.6829	3119.8482	3129.1645	3185.4173	3481.899	3498.2338
CC1(OCC11CN1)C#C	C[C@]1(OC[C@]21CN2)C#C	
InChI=1S/C7H9NO/c1-3-6(2)7(4-8-7)5-9-6/h1,8H,4-5H2,2H3	InChI=1S/C7H9NO/c1-3-6(2)7(4-8-7)5-9-6/h1,8H,4-5H2,2H3/t6-,7-/m0/s1
