13
gdb 5045	3.55189	2.3586	1.60158	2.8058	70.5	-0.2471	-0.0792	0.1679	769.0619	0.097886	-357.650615	-357.644394	-357.64345	-357.681	23.431	
N	-0.1191130956	 1.0283744728	-0.7371478662	-0.491525
C	-0.0203662549	-0.0120289795	-0.0135440184	 0.287236
C	-1.2639689253	-0.6914773302	 0.4614924749	 0.004957
N	-1.5494417466	-1.920528508	 0.2566880731	-0.176984
C	-0.6898269454	-2.8308773273	-0.3065402108	 0.004217
C	 0.6659945055	-2.8468506053	-0.2051721326	-0.107892
C	 1.4552120558	-1.7949923043	 0.3837345974	-0.007679
N	 1.1636418151	-0.5427932551	 0.4980232451	-0.244447
H	 0.8148416635	 1.3836974836	-0.9623158148	 0.225621
H	-1.9780079799	-0.083666635	 1.0181766444	 0.145021
H	-1.1940317803	-3.6832240448	-0.7551444302	 0.126549
H	 1.1895091125	-3.7528584854	-0.4963143626	 0.111179
H	 2.4312276756	-2.0874799616	 0.7774843007	 0.123749
103.0606	245.0084	304.6183	401.3197	429.1227	466.7168	593.3442	630.2659	747.8756	810.0827	878.9344	887.5538	920.0774	957.2621	976.7898	994.2173	999.1256	1042.1588	1106.274	1258.6403	1325.5019	1378.299	1422.887	1461.8002	1557.6255	1657.8152	1680.3378	1724.3631	3103.2906	3129.6126	3158.3707	3179.4181	3435.3262
N=C1C=NC=CC=N1	[NH][C]1C=NC=CC=N1	
InChI=1S/C5H5N3/c6-5-4-7-2-1-3-8-5/h1-4,6H	InChI=1S/C5H5N3/c6-5-4-7-2-1-3-8-5/h1-4,6H
