19
gdb 61780	2.35456	1.01403	0.94501	6.2109	78.53	-0.273	0.0121	0.2851	1375.1851	0.157038	-419.226161	-419.215825	-419.214881	-419.26233	35.978	
C	 0.0344708747	 1.5696467605	 0.0479378275	-0.409103
C	 0.0117700601	 0.0448308768	 0.0415750198	 0.106127
O	 0.6928343631	-0.4721106547	 1.1875923524	-0.187822
C	 2.0263770943	-0.6541531718	 1.0885104922	 0.131439
N	 2.6912808775	-1.010259134	 2.0982162886	-0.435305
C	-1.4125309859	-0.5550007667	 0.0541424066	-0.148771
C	-1.4000843286	-2.0946304716	 0.0306533342	-0.404157
C	-2.1926303475	-0.0566701789	 1.1934195876	 0.294598
N	-2.8260459243	 0.3343492795	 2.0771028227	-0.326754
H	 1.0645134999	 1.9347642406	 0.0072236185	 0.127215
H	-0.5022348136	 1.9671375173	-0.8192756291	 0.124367
H	-0.4327956112	 1.9544620264	 0.9579012088	 0.164734
H	 0.5014535862	-0.3335751552	-0.8674439711	 0.08855
H	 2.4169721117	-0.4768072489	 0.0760167309	 0.086615
H	 3.6712379145	-1.1246743116	 1.8484098865	 0.23238
H	-1.9102463498	-0.1881535496	-0.8525360742	 0.129899
H	-0.8967174689	-2.484529987	 0.9166481846	 0.165189
H	-2.4184561382	-2.4881188193	 0.0027186095	 0.13995
H	-0.869017144	-2.4469114119	-0.8588161861	 0.12085
49.7026	66.8577	100.7249	144.796	191.2972	219.4829	230.8366	249.631	277.2379	361.4506	407.0139	475.4456	571.7423	587.3084	689.169	778.1621	820.3625	883.8641	930.8775	995.5004	1030.5073	1041.9341	1061.3593	1105.7353	1119.2043	1151.5588	1183.5821	1281.9896	1306.8083	1327.5783	1363.4949	1382.0239	1411.6314	1415.8892	1427.6788	1486.8798	1493.94	1495.6104	1504.1161	1747.7582	2360.435	2999.9064	3013.8874	3037.2097	3045.9662	3053.5142	3116.3887	3126.7915	3134.1584	3151.6236	3521.214
CC(OC=N)C(C)C#N	C[C@@H](O[CH][NH])[C@@H](C)C#N	
InChI=1S/C6H10N2O/c1-5(3-7)6(2)9-4-8/h4-6,8H,1-2H3	InChI=1S/C6H10N2O/c1-5(3-7)6(2)9-4-8/h4-6,8H,1-2H3/t5-,6+/m0/s1
