14
gdb 16361	2.59652	2.40243	1.448	4.2641	58.1	-0.2728	-0.0155	0.2573	853.1599	0.105961	-419.676938	-419.669685	-419.668741	-419.708511	26.268	
C	-0.2876243425	 1.5023712402	 0.0045488537	-0.410734
C	 0.1086149829	 0.0443659761	 0.0107658465	 0.071528
O	 1.3730949774	-0.1947128629	-0.7143973475	-0.27149
C	 1.9765951907	-0.7996176627	 0.3649128635	 0.417959
O	 3.0563332249	-1.2875499713	 0.4314787107	-0.328538
C	 0.7710301554	-0.5502487151	 1.2557342751	 0.208786
C	 0.7078892198	-0.2102804775	 2.6785818998	-0.248578
O	 0.2149297857	-1.456284714	 2.1706081488	-0.245848
H	 0.5033014646	 2.1243339134	 0.4331438707	 0.132374
H	-0.4821704931	 1.8420759923	-1.0164883546	 0.144351
H	-1.2025787286	 1.6441714842	 0.5889899568	 0.13293
H	-0.6698157958	-0.6021906087	-0.4041125926	 0.117848
H	 1.6111807131	-0.2768172073	 3.281219128	 0.146891
H	-0.0526903144	 0.4875268833	 3.0240274809	 0.132522
112.4251	187.8949	218.3392	226.1173	258.369	319.189	489.7711	536.0246	634.6148	733.2673	745.7762	847.7924	856.9081	924.4341	955.9785	1038.7565	1057.4964	1107.4883	1124.8784	1142.8668	1166.5174	1196.7742	1290.4117	1379.727	1411.0529	1443.0672	1486.0125	1493.9878	1531.6167	1946.2391	3042.6039	3077.6809	3094.6758	3115.7591	3126.0104	3190.993
CC1OC(=O)C11CO1	C[C@H]1OC(=O)[C@]21CO2	
InChI=1S/C5H6O3/c1-3-5(2-7-5)4(6)8-3/h3H,2H2,1H3	InChI=1S/C5H6O3/c1-3-5(2-7-5)4(6)8-3/h3H,2H2,1H3/t3-,5-/m1/s1
