14
gdb 133739	1.77194	1.70989	1.05887	1.9843	57.05	-0.2751	0.0181	0.2932	1115.5019	0.09408	-568.13846	-568.1291	-568.128156	-568.173465	32.434	
C	 0.0395798859	 1.3977255615	 0.1090097925	-0.244638
O	-0.0242902093	-0.0187020964	 0.0183511505	-0.235817
C	 0.6441994652	-0.5737062006	-1.091001524	-0.227364
C	 1.2529925506	-1.8482003262	-0.7193162871	 0.318017
C	 1.7604432443	-2.8927527565	-0.4184388935	-0.39598
C	-0.3452544502	-0.7698023774	-2.259865907	 0.277375
F	-0.8788965048	 0.4100118281	-2.6166622986	-0.078556
F	 0.2833239479	-1.2720816574	-3.3289107188	-0.068264
F	-1.341825193	-1.5880120272	-1.9327814098	-0.059316
H	 1.0816005297	 1.7471168084	 0.1380869558	 0.116076
H	-0.4807613208	 1.8884753784	-0.7205553023	 0.128707
H	-0.4490238184	 1.665123292	 1.0478732853	 0.140148
H	 1.4234441253	 0.106602538	-1.4678341216	 0.121287
H	 2.2061140576	-3.8191462348	-0.1502412114	 0.208326
54.4148	78.2144	131.5788	167.1076	179.1596	241.5442	309.9216	348.186	412.3885	441.4626	524.1788	543.1338	580.4995	647.9065	687.4678	713.5566	864.6534	985.9227	1025.2782	1143.1216	1165.3853	1178.6052	1207.0795	1217.9003	1291.6036	1350.0924	1365.7284	1476.738	1489.931	1511.3021	2252.6047	2994.7909	3002.3238	3077.2343	3133.5412	3501.6394
COC(C#C)C(F)(F)F	CO[C@@H](C#C)C(F)(F)F	
InChI=1S/C5H5F3O/c1-3-4(9-2)5(6,7)8/h1,4H,2H3	InChI=1S/C5H5F3O/c1-3-4(9-2)5(6,7)8/h1,4H,2H3/t4-/m0/s1
