14
gdb 7715	3.36674	2.04311	1.32958	2.1151	59.84	-0.2498	-0.0224	0.2274	866.7473	0.109094	-415.893423	-415.886555	-415.885611	-415.925086	25.224	
N	-0.1242708544	 1.3347413173	-0.1756062012	-0.484283
C	-0.0668729095	 0.1006472306	 0.0646140627	 0.392697
C	-1.2552772689	-0.8229244446	-0.0398848703	-0.253843
N	-1.2722041251	-1.8342476425	 1.0117262612	-0.285188
C	-0.0403110296	-2.6049066009	 0.9880803855	-0.31032
C	 1.2520808972	-1.803293047	 0.8543167931	 0.397876
O	 2.3426883403	-2.2403338393	 1.068198532	-0.293036
O	 1.1328188885	-0.4872195347	 0.4570375303	-0.230923
H	 0.7917243926	 1.7723009708	-0.0543398581	 0.235236
H	-2.1611281786	-0.2165285976	-0.0137005729	 0.150718
H	-1.2289820415	-1.3363656217	-1.0108034261	 0.138065
H	-1.3839286973	-1.3849924567	 1.9154233593	 0.235829
H	 0.0522931044	-3.2173579845	 1.8876288958	 0.154057
H	-0.0629689281	-3.3014058693	 0.1380249287	 0.153116
67.8141	110.5034	269.9929	360.8352	444.485	456.1747	519.4285	534.3402	605.1659	668.6571	785.855	842.6991	913.7257	938.9229	942.2837	992.0286	1081.7346	1105.5589	1147.2918	1179.3047	1217.3436	1324.6801	1329.5042	1344.9743	1367.9631	1450.8589	1469.7167	1490.6535	1768.7703	1873.3109	3021.9374	3025.5586	3115.6299	3134.701	3466.9663	3517.2994
N=C1CNCC(=O)O1	[NH][C]1CNCC(=O)O1	
InChI=1S/C4H6N2O2/c5-3-1-6-2-4(7)8-3/h5-6H,1-2H2	InChI=1S/C4H6N2O2/c5-3-1-6-2-4(7)8-3/h5-6H,1-2H2
