15
gdb 36761	6.54728	0.49695	0.46458	1.5109	91.79	-0.248	-0.0289	0.2192	2206.7496	0.107968	-383.375904	-383.365973	-383.365029	-383.41186	34.421	
C	-0.0881928198	-1.1920761315	-0.0035812848	-0.407905
C	-0.0204509695	 0.0064614115	 0.0021036407	 0.286611
C	 0.0227628959	 1.4608127047	 0.0097392476	-0.201003
O	 1.3707467042	 1.9009041274	-0.0008732539	-0.24087
C	 1.4559613945	 3.3144446054	 0.0060075419	-0.234333
C	 2.8489753307	 3.7274924197	-0.0050898073	 0.315324
C	 3.9964236307	 4.1084277334	-0.0140214115	-0.151821
C	 5.2899333903	 4.5296518211	-0.0241344562	 0.290703
C	 6.4370267467	 4.9060030424	-0.0330882699	-0.553288
H	-0.1378150634	-2.2529744537	-0.0084946888	 0.204102
H	-0.517628278	 1.8549981961	-0.8681573273	 0.122281
H	-0.5004937512	 1.8452155214	 0.9022330731	 0.122296
H	 0.9373993482	 3.7388047698	-0.8719887885	 0.126638
H	 0.9543633498	 3.7291685375	 0.8983470496	 0.126635
H	 7.4469727509	 5.2336127048	-0.0409923147	 0.19463
53.4418	67.1708	84.5553	143.2994	154.487	242.6972	320.1	332.4873	348.3655	417.3069	533.8474	536.4277	577.5955	590.3636	613.0141	614.136	681.3368	760.8752	982.4031	1008.5645	1019.5136	1047.0411	1121.1286	1187.4834	1243.1509	1255.5985	1371.5616	1442.2158	1488.5228	1506.1834	2185.8443	2250.3192	2370.4054	2942.6204	2953.877	2960.718	2972.7298	3505.049	3506.2306
C#CCOCC#CC#C	C#CCOCC#CC#C	
InChI=1S/C8H6O/c1-3-5-6-8-9-7-4-2/h1-2H,7-8H2	InChI=1S/C8H6O/c1-3-5-6-8-9-7-4-2/h1-2H,7-8H2
