22
gdb 88604	2.76515	1.20308	1.0876	1.3528	82.76	-0.214	0.0829	0.2968	1260.2093	0.191941	-404.294772	-404.284682	-404.283738	-404.330151	37.044	
C	 0.4443760726	 2.018998078	-0.1609139974	-0.428362
C	-0.1138529333	 0.6324650104	 0.0267424277	 0.078641
O	 0.7908425481	-0.4716277051	-0.1054334685	-0.253948
C	 0.2099264656	-0.2264423717	 1.1798189566	 0.022359
C	 1.0669899248	 0.2270510448	 2.3337943445	-0.066105
C	 1.8809267906	-0.7513654366	 3.1271445831	-0.006919
C	 1.9513891743	-2.2114402024	 2.7284936665	-0.426746
N	 2.5266269249	 0.3112333934	 2.3639649433	-0.1037
C	 3.3843962187	-0.0004582066	 1.2259345999	-0.310766
H	 1.3516375918	 2.1701235743	 0.4276436803	 0.146224
H	 0.6796381868	 2.1977198267	-1.2152446579	 0.128726
H	-0.2960572895	 2.7656766131	 0.1466153634	 0.122181
H	-1.0746569305	 0.4557319105	-0.4610682015	 0.088135
H	-0.5427091498	-0.9679340041	 1.4606965021	 0.09357
H	 0.5900557766	 1.0408488767	 2.883997205	 0.091668
H	 1.9379828927	-0.5958810787	 4.2053393568	 0.082618
H	 1.7542317342	-2.3705736543	 1.6660829542	 0.143368
H	 2.936246339	-2.6328692863	 2.95816396	 0.122148
H	 1.2098557533	-2.7854628165	 3.2947303781	 0.119155
H	 3.0808040518	-0.8579032555	 0.618226748	 0.126708
H	 3.4313470928	 0.8710318749	 0.5668574919	 0.118656
H	 4.3931156445	-0.178484845	 1.614643984	 0.112388
30.2725	118.4465	159.5008	183.3676	193.456	208.2178	237.0364	265.0285	324.2086	380.5143	434.0544	495.2121	540.7313	652.7684	743.0463	771.5302	804.9787	814.1107	884.3141	968.2782	995.0004	1006.609	1051.8259	1086.0938	1105.3629	1123.3018	1138.2093	1162.5997	1168.1629	1175.1446	1180.771	1200.6713	1297.3033	1347.3148	1366.5008	1390.7391	1414.0481	1417.7759	1425.3203	1462.4014	1464.7695	1487.3757	1490.502	1492.7565	1502.8863	1505.8884	1508.068	3027.9512	3036.6938	3038.9815	3065.4019	3073.8428	3087.1716	3088.7786	3091.5715	3094.1099	3099.6087	3105.1947	3130.0369	3136.4556
CC1OC1C1C(C)N1C	C[C@H]1O[C@H]1[C@H]1[C@@H](C)N1C	
InChI=1S/C7H13NO/c1-4-6(8(4)3)7-5(2)9-7/h4-7H,1-3H3	InChI=1S/C7H13NO/c1-4-6(8(4)3)7-5(2)9-7/h4-7H,1-3H3/t4-,5-,6-,7-,8?/m1/s1
