19
gdb 117190	3.16281	0.91736	0.76886	1.1314	72.3	-0.2482	-0.025	0.2232	1496.1424	0.155538	-460.155746	-460.145512	-460.144568	-460.19186	35.958	
C	-0.0866158531	 1.4115994853	-0.9354861292	-0.461707
C	-0.0994150281	 0.2195500959	-0.0093934488	 0.317358
C	 0.9094567376	-0.8543412926	-0.1565279615	-0.219126
O	 1.0069686673	 0.0925010354	 0.8977508421	-0.256951
C	-1.4512626398	-0.1516396958	 0.567405312	 0.306481
O	-2.4621671524	 0.1447879022	-0.033329287	-0.317659
C	-1.4774186513	-0.8612602967	 1.9055778078	-0.291088
C	-2.8826317306	-1.2643504934	 2.3268419658	-0.078658
O	-2.7689907184	-1.9172588369	 3.5825817396	-0.424762
H	 0.9157191704	 1.5687718529	-1.3398340363	 0.123801
H	-0.7923134928	 1.2560488764	-1.7543152779	 0.147591
H	-0.3924287938	 2.3159204173	-0.4006681911	 0.134345
H	 0.680641187	-1.8757017581	 0.1432619573	 0.121677
H	 1.6488530893	-0.7579318908	-0.9505964038	 0.125974
H	-0.8240502434	-1.7412958144	 1.8864590717	 0.134086
H	-1.0276669341	-0.1983864027	 2.6552485228	 0.149518
H	-3.5204436979	-0.3715241509	 2.3859899719	 0.103666
H	-3.3239987424	-1.922772649	 1.564262159	 0.097979
H	-3.6529495436	-2.159431594	 3.8731143258	 0.287474
53.0139	64.4535	99.3581	130.3478	167.1208	260.3856	270.5964	272.1363	307.8685	371.0429	384.1045	489.8564	528.3613	586.1503	767.7064	798.0933	837.1021	862.6799	933.9571	976.6093	1038.6072	1060.2281	1061.565	1100.0471	1107.8424	1139.8357	1164.3456	1205.7732	1244.4162	1288.6371	1299.0211	1363.4114	1369.4196	1409.6702	1438.5635	1467.2493	1477.1741	1494.1152	1522.9365	1525.1131	1788.0682	2993.5961	3024.8029	3046.2372	3052.0488	3077.0883	3084.4009	3121.5444	3142.7438	3172.0886	3831.7392
CC1(CO1)C(=O)CCO	C[C@]1(CO1)C(=O)CCO	
InChI=1S/C6H10O3/c1-6(4-9-6)5(8)2-3-7/h7H,2-4H2,1H3	InChI=1S/C6H10O3/c1-6(4-9-6)5(8)2-3-7/h7H,2-4H2,1H3/t6-/m0/s1
