16
gdb 64603	2.26995	1.60906	1.33368	3.3324	70.56	-0.2278	-0.0343	0.1935	1019.3722	0.123106	-437.938668	-437.930024	-437.92908	-437.972206	31.424	
C	 0.0233663861	 1.6309708696	 0.2173080834	-0.428468
C	-0.0071184064	 0.0914948259	 0.0495405448	 0.015293
C	-1.4739380492	-0.3375010673	 0.1468215745	 0.142554
O	-2.1365404772	-0.7223554255	-0.7780162365	-0.249243
C	 0.7126625632	-0.4281208317	-1.1669295717	-0.173016
C	 1.7194157091	-1.2086871987	-0.7661454728	-0.036843
N	 1.7756336947	-1.2932366755	 0.6365722661	-0.339315
C	 0.7716048522	-0.5550940832	 1.2228854929	 0.396644
O	 0.5439796555	-0.436158353	 2.4055184779	-0.379332
H	 1.0540437201	 1.9925363533	 0.1762294561	 0.136885
H	-0.547862673	 2.1145187087	-0.5799388865	 0.13362
H	-0.4018335835	 1.91064156	 1.1855218927	 0.146409
H	-1.890417667	-0.2279718403	 1.1715865944	 0.106692
H	 0.4308155094	-0.2146499977	-2.1853980406	 0.123377
H	 2.4450971221	-1.7504489716	-1.3553197793	 0.137781
H	 2.4389164138	-1.830934833	 1.1695063246	 0.266961
62.1616	111.0122	179.6769	220.3641	227.6013	268.5526	296.1984	407.5024	462.019	553.9476	583.8883	656.8407	710.153	755.0576	764.6491	823.9526	907.4201	923.4251	942.9258	1004.8466	1065.6349	1100.6743	1114.9938	1168.4311	1209.1758	1255.2899	1368.3331	1391.0191	1401.2093	1420.4552	1489.0413	1495.3962	1667.2407	1817.9376	1839.5067	2905.9984	3042.2451	3123.7073	3124.5144	3240.4226	3270.6275	3663.166
CC1(C=O)C=CNC1=O	C[C@@]1(C=O)C=CNC1=O	
InChI=1S/C6H7NO2/c1-6(4-8)2-3-7-5(6)9/h2-4H,1H3,(H,7,9)	InChI=1S/C6H7NO2/c1-6(4-8)2-3-7-5(6)9/h2-4H,1H3,(H,7,9)/t6-/m0/s1
