15
gdb 128823	6.81389	0.79563	0.7189	6.6157	64.54	-0.2564	-0.0013	0.2552	1499.6222	0.111548	-491.084489	-491.075835	-491.074891	-491.119636	29.61	
C	-0.0764939475	 1.4201187676	 0.011318647	-0.230268
O	 0.0132816408	 0.0112828123	 0.0019922891	-0.20815
C	-1.2348933595	-0.6068579119	 0.0103479251	-0.162086
C	-1.0621194476	-2.0942646672	 0.0011611875	 0.406052
N	 0.0668345748	-2.718628077	-0.0093484836	-0.161365
O	-0.2758083519	-4.0983296158	-0.0143356501	-0.228336
C	-1.6348766192	-4.2564439258	-0.0064170008	 0.511385
O	-2.2250638042	-5.2974673439	-0.0080963536	-0.390278
N	-2.1276582116	-2.9568029782	 0.0035398831	-0.427092
H	 0.9451764149	 1.8032973902	 0.0037493708	 0.145926
H	-0.6091959927	 1.7986210805	-0.8745664132	 0.112754
H	-0.5919429669	 1.7878852192	 0.9118084692	 0.112783
H	-1.8251419499	-0.3259805038	 0.9027965845	 0.116107
H	-1.8415421765	-0.3169264513	-0.8681045987	 0.115965
H	-3.108813583	-2.7380622447	 0.0106586337	 0.286603
22.4619	67.2558	129.9599	172.0437	224.1128	323.1354	343.7178	352.5022	446.5585	538.7821	642.865	718.4179	768.9336	778.4137	918.7554	970.4894	1007.0681	1035.8211	1044.1716	1172.8444	1183.414	1201.7529	1226.822	1254.8874	1258.3404	1403.3295	1475.9478	1486.6621	1495.7703	1504.4104	1525.1763	1663.2818	1906.0649	2929.5154	2945.3973	2978.3694	3026.6973	3134.6353	3685.0793
COCC1=NOC(=O)N1	COCc1noc(=O)[nH]1	
InChI=1S/C4H6N2O3/c1-8-2-3-5-4(7)9-6-3/h2H2,1H3,(H,5,6,7)	InChI=1S/C4H6N2O3/c1-8-2-3-5-4(7)9-6-3/h2H2,1H3,(H,5,6,7)
