18
gdb 116948	3.1795	0.90482	0.72455	6.1331	77.45	-0.2429	0.0298	0.2727	1522.5209	0.146881	-439.093887	-439.08415	-439.083206	-439.129586	34.551	
N	-0.5420042935	 0.2639425484	 2.2394657485	-0.488134
H	-0.9064640742	 0.5002163966	 4.273454007	 0.326097
H	 0.421134601	-0.0461034092	 2.1414837346	 0.239794
H	-1.1259198035	-0.5115147448	 1.942590866	 0.247804
C	-0.7909662669	 1.4417058553	 1.3990389196	-0.147257
C	-0.0276436006	 2.6710174803	 1.9403766925	-0.343749
C	-0.2816799489	 2.8253415096	 3.3653208817	 0.11041
C	-0.5464408234	 2.7462183335	 4.5370576282	 0.043329
C	-0.8882040445	 2.4328371309	 5.9115308426	-0.50658
C	-1.2024781126	 0.936749083	 6.1677343777	 0.417928
O	-1.1475874403	 0.0932210018	 5.1364163573	-0.381735
O	-1.4873658979	 0.5653623753	 7.2750136426	-0.330036
H	-0.5183102725	 1.29613241	 0.3427323702	 0.096615
H	-1.8648799311	 1.6497132653	 1.4353245659	 0.126399
H	 1.0490281056	 2.5450022296	 1.7615716727	 0.129087
H	-0.3302292078	 3.5579894521	 1.3717586007	 0.134265
H	-0.0809756063	 2.6980928257	 6.6033798618	 0.163111
H	-1.7670075026	 2.9923173366	 6.2514543703	 0.162653
39.4374	77.813	106.3271	155.9049	172.8051	238.9836	299.303	338.9124	379.2624	415.868	462.9312	565.0574	574.7379	650.4496	773.1209	819.4106	851.7901	855.0855	894.705	949.3453	953.957	1024.4342	1082.2351	1153.8764	1168.4623	1190.7402	1213.3324	1264.1857	1290.9048	1311.0741	1317.0377	1368.7873	1418.4053	1445.2867	1475.7835	1506.8437	1656.4013	1851.1627	2371.1501	2986.8443	3017.7412	3047.2846	3058.7659	3078.7621	3082.9032	3448.2669	3493.6311	3573.7453
[NH3+]CCC#CCC([O-])=O	NCCC#CCC(=O)O	
InChI=1S/C6H9NO2/c7-5-3-1-2-4-6(8)9/h3-5,7H2,(H,8,9)	InChI=1S/C6H9NO2/c7-5-3-1-2-4-6(8)9/h3-5,7H2,(H,8,9)
