18
gdb 14060	3.258	1.65134	1.46922	1.53	68.17	-0.2206	0.0604	0.281	949.0067	0.15253	-384.898213	-384.889868	-384.888924	-384.930898	30.719	
C	 0.0235480642	 1.6110460708	-0.1640751129	-0.418774
C	 0.0385692896	 0.1043994411	-0.0319048426	-0.13999
C	 1.3503918763	-0.687380966	-0.0663903008	-0.012325
O	 2.5794711314	-0.01890687	-0.1003184309	-0.418998
C	 0.5764109431	-0.5592821282	 1.2009494719	 0.432871
C	 1.0526903992	 0.0355973323	 2.518940511	-0.347681
C	 0.3962782088	-1.2226929696	 3.1296313745	-0.076838
O	-0.0635454492	-1.669250816	 1.8301416787	-0.311536
H	 0.9410595115	 2.0483709357	 0.2387809609	 0.128492
H	-0.0575133555	 1.9164422489	-1.2134836572	 0.113863
H	-0.8252762117	 2.0483752302	 0.3724548246	 0.121108
H	-0.7986881788	-0.418275183	-0.4895514065	 0.094897
H	 1.3260014509	-1.6575028639	-0.5635095979	 0.093039
H	 2.715292446	 0.3166227647	-0.9930380009	 0.29029
H	 2.1350608977	 0.1158138614	 2.6229520261	 0.128318
H	 0.5872647303	 0.982513995	 2.7998604333	 0.111047
H	 1.0890844884	-1.9416060181	 3.5817469995	 0.107014
H	-0.4405621721	-1.0470258754	 3.8142785094	 0.105205
88.0669	156.0372	171.7216	179.7608	228.6743	265.6275	321.1157	438.1417	486.1752	568.6544	602.5606	784.5817	800.4208	860.5689	880.9225	932.5084	965.1747	999.4954	1019.5957	1040.9258	1092.8641	1124.055	1143.2976	1157.8012	1167.5651	1201.1458	1211.6917	1243.484	1275.5618	1310.7344	1359.7204	1372.3533	1410.8058	1476.5134	1494.6712	1498.9548	1508.0993	1532.7948	3026.8125	3030.3932	3070.1874	3080.1225	3086.8221	3099.2622	3112.7871	3137.633	3138.2367	3797.6325
CC1C(O)C11CCO1	C[C@H]1[C@@H](O)[C@]21CCO2	
InChI=1S/C6H10O2/c1-4-5(7)6(4)2-3-8-6/h4-5,7H,2-3H2,1H3	InChI=1S/C6H10O2/c1-4-5(7)6(4)2-3-8-6/h4-5,7H,2-3H2,1H3/t4-,5+,6+/m0/s1
