17
gdb 68745	2.59958	1.75488	1.22788	3.4939	73.75	-0.2385	-0.0678	0.1708	1031.7791	0.133944	-421.843404	-421.834849	-421.833905	-421.876224	32.114	
C	 0.0175496849	 1.546328112	-0.0930108898	-0.495552
C	-0.0681249704	 0.0633061035	 0.1287573376	 0.30304
O	 1.1220258034	-0.7192407117	-0.1396189269	-0.324624
C	 0.5790343765	-0.7056649751	 1.203209228	 0.206098
C	 1.4508890023	-0.212376407	 2.3179093356	-0.494573
C	-0.3148695277	-1.933385667	 1.4340088658	 0.362461
O	-0.1447620653	-2.7800410037	 2.2773055478	-0.317307
C	-1.4293816909	-1.8335286906	 0.4477809097	-0.200824
C	-1.3095742517	-0.705227055	-0.261216992	-0.106416
H	 0.9657100024	 1.9415948315	 0.2761583371	 0.139094
H	-0.0539451321	 1.7767551147	-1.1616637551	 0.134744
H	-0.8020718621	 2.0622732418	 0.4178523839	 0.131706
H	 2.0682680489	 0.6266999584	 1.991164959	 0.12973
H	 0.8438853303	 0.1013309772	 3.1729951754	 0.132084
H	 2.1055248379	-1.0203090373	 2.6578516417	 0.150731
H	-2.1865755211	-2.5999504838	 0.3459887436	 0.126585
H	-1.975429165	-0.370843718	-1.0491708615	 0.123025
113.7521	135.6698	180.434	223.6841	255.9807	260.8319	318.0337	398.3727	484.1919	511.3905	554.3137	664.1331	681.0355	716.4684	748.8227	826.555	857.9822	890.2526	952.4989	980.7426	1055.1468	1073.0098	1096.6029	1112.7198	1152.3555	1208.8958	1294.568	1352.8945	1408.0884	1414.6877	1454.2987	1474.4637	1483.8655	1491.5972	1506.9232	1641.6083	1825.0945	3038.869	3046.9919	3099.6804	3112.3814	3133.1168	3137.9314	3193.6491	3229.9223
CC12OC1(C)C(=O)C=C2	C[C@@]12O[C@]1(C)C(=O)C=C2	
InChI=1S/C7H8O2/c1-6-4-3-5(8)7(6,2)9-6/h3-4H,1-2H3	InChI=1S/C7H8O2/c1-6-4-3-5(8)7(6,2)9-6/h3-4H,1-2H3/t6-,7+/m0/s1
