21
gdb 33185	5.33256	0.6547	0.62633	3.8589	85.74	-0.2134	0.0351	0.2485	1845.9617	0.184156	-383.321916	-383.31255	-383.311606	-383.357457	33.914	
C	 0.0491592824	 1.5705577462	-0.1805746794	-0.382701
C	 0.008193149	 0.0530651241	 0.017778603	-0.161525
C	-1.410826722	-0.521766233	-0.0307387304	-0.152028
C	-1.4508463308	-2.0501440718	 0.16620882	-0.33628
C	-2.8255687308	-2.6340623594	 0.1469789835	 0.307965
C	-3.6048146715	-3.2076373074	 1.1202375315	-0.167001
N	-4.8318056317	-3.5879472443	 0.6231121508	-0.253232
C	-4.805666769	-3.2502901256	-0.6435147106	 0.008575
N	-3.6183854208	-2.6693658669	-0.9859472987	-0.296693
H	 1.0742960573	 1.9512218713	-0.1375969495	 0.113804
H	-0.370855428	 1.8551503233	-1.1518274371	 0.112874
H	-0.5305205566	 2.086509331	 0.5926888437	 0.117293
H	 0.6240827507	-0.4350514772	-0.7495270264	 0.093796
H	 0.4676514738	-0.2038489189	 0.9814473468	 0.098582
H	-2.0316961732	-0.0484338565	 0.7400619204	 0.106486
H	-1.8751289946	-0.2623851024	-0.9924844769	 0.083463
H	-0.8228214279	-2.5268890156	-0.6002828361	 0.102376
H	-0.9936611642	-2.3020301005	 1.1294630615	 0.117751
H	-3.3434115109	-3.3694499194	 2.1556898848	 0.101131
H	-5.6014380223	-3.397681876	-1.3587027961	 0.124721
H	-3.360428599	-2.3324695712	-1.8984215548	 0.260642
40.9839	73.7949	88.2159	121.925	234.6007	242.3505	314.6765	325.5848	428.902	520.1503	665.8921	684.5493	732.1914	737.9157	789.0077	802.6181	846.166	908.6837	928.219	933.2212	1001.1052	1024.012	1061.2484	1095.7471	1113.1775	1122.8006	1145.7685	1231.1713	1256.0256	1272.6879	1287.1735	1313.9294	1329.6529	1363.6341	1386.0899	1395.4965	1414.2147	1426.727	1478.6565	1484.9624	1497.8147	1499.7418	1510.1732	1511.9375	1615.5339	3001.3779	3007.8407	3015.9927	3030.3838	3037.6547	3056.4493	3075.627	3096.8935	3103.0919	3241.2694	3248.1792	3661.3011
CCCCC1=CN=CN1	CCCCc1cnc[nH]1	
InChI=1S/C7H12N2/c1-2-3-4-7-5-8-6-9-7/h5-6H,2-4H2,1H3,(H,8,9)	InChI=1S/C7H12N2/c1-2-3-4-7-5-8-6-9-7/h5-6H,2-4H2,1H3,(H,8,9)
