16
gdb 22771	1.9076	1.60495	1.08247	2.9397	69.77	-0.2477	-0.0389	0.2088	1144.5099	0.120777	-474.961619	-474.952417	-474.951472	-474.996231	32.333	
C	-0.6011750008	 1.4047716962	 0.0373659019	-0.399354
C	-0.0915024371	-0.0240027045	-0.0074655134	 0.061594
O	 1.0935054644	-0.1741078217	-0.8494587214	-0.291482
C	 1.9164471158	-0.6112381007	 0.2382485169	-0.046264
C	 3.0587857417	 0.3310290438	 0.5939296331	 0.142929
O	 3.19671843	 1.4279442072	 0.125896207	-0.23074
C	 0.7176125266	-0.5233024204	 1.1678748361	 0.320964
N	 0.4463641797	-0.7463171815	 2.3782581972	-0.214631
O	 1.5799101555	-1.2013462396	 3.0718077577	-0.393303
H	 0.202469576	 2.0873600961	 0.3232226268	 0.145014
H	-0.9724278772	 1.6958264605	-0.9495268792	 0.134704
H	-1.4204733648	 1.4877754086	 0.7581310489	 0.130794
H	-0.8792945255	-0.717847143	-0.3279222841	 0.107212
H	 2.3145805015	-1.6283124406	 0.1039284671	 0.119811
H	 3.7525022378	-0.0884491024	 1.3543447212	 0.097215
H	 1.2404181265	-1.3340128179	 3.9639617541	 0.315538
64.2815	75.1093	146.4998	171.2755	214.8415	252.3081	272.1574	322.6324	376.1821	458.1297	543.5458	557.3236	671.5901	785.8239	802.3873	868.892	897.0444	983.9276	990.4653	1050.6647	1067.3157	1096.9494	1116.2235	1169.2453	1207.0018	1283.2492	1312.3057	1365.6912	1402.905	1406.9847	1413.7596	1481.1276	1494.5818	1804.6728	1840.6436	2901.3728	3001.8844	3026.67	3045.6087	3120.3985	3136.71	3814.4689
CC1OC(C=O)C1=NO	C[C@H]1O[C@@H](C=O)C1=NO	
InChI=1S/C5H7NO3/c1-3-5(6-8)4(2-7)9-3/h2-4,8H,1H3	InChI=1S/C5H7NO3/c1-3-5(6-8)4(2-7)9-3/h2-4,8H,1H3/t3-,4+/m1/s1
