18
gdb 70854	3.64724	1.59335	1.33417	1.1574	73.67	-0.2208	0.0638	0.2845	981.9037	0.147996	-401.888314	-401.880996	-401.880052	-401.919393	30.274	
C	-0.0584744475	 1.4574440645	 0.0675125344	-0.485732
C	 0.0178800338	-0.0378659383	-0.0636545964	 0.328646
C	-0.3273690827	-0.7503481907	-1.3531091288	-0.358912
C	-0.2134900015	-2.1800698372	-0.8590664689	 0.377953
O	-0.3963089542	-3.281897799	-1.6804521814	-0.475364
C	 0.8545751937	-2.2931113393	 0.2152967309	-0.144858
C	-0.6041549445	-2.223047662	 0.6017032038	-0.099681
N	-0.4728865664	-0.8184558641	 1.1332129368	-0.201669
C	 0.9771218593	-0.8557869981	 0.7327989429	-0.09728
H	 0.6358187166	 1.9472350899	-0.6238245686	 0.118118
H	-1.0690443645	 1.8180094866	-0.1519191713	 0.123028
H	 0.1930921046	 1.7659479632	 1.0857862229	 0.131255
H	-1.3387488587	-0.5095002654	-1.7026598943	 0.09653
H	 0.3847039305	-0.5255683073	-2.1541244075	 0.111283
H	-1.3388739338	-3.3692856639	-1.8621934373	 0.287305
H	 1.5651038891	-3.1047175423	 0.2733933816	 0.100935
H	-1.2722001066	-2.939415027	 1.0622377666	 0.096996
H	 1.7547303027	-0.4580700097	 1.3760678946	 0.091445
198.9025	223.1375	259.8837	293.1474	347.1279	380.3728	435.6724	533.5298	554.9626	609.2285	704.0931	756.3198	775.5764	794.063	844.1226	897.2532	912.6369	924.4302	946.8457	989.6128	1009.8123	1034.1339	1044.825	1057.7825	1085.0126	1152.813	1169.0306	1188.2351	1206.9671	1235.4732	1303.2553	1323.8055	1324.8322	1384.4652	1420.9344	1428.4754	1487.1873	1491.1008	1495.0958	3031.9036	3035.8915	3083.4723	3096.6056	3116.3423	3165.1009	3194.5974	3225.0027	3789.8712
CC12CC3(O)C4C3N1C24	C[C@]12C[C@@]3(O)[C@@H]4[C@H]3N1[C@H]24	
InChI=1S/C7H9NO/c1-6-2-7(9)3-4(6)8(6)5(3)7/h3-5,9H,2H2,1H3	InChI=1S/C7H9NO/c1-6-2-7(9)3-4(6)8(6)5(3)7/h3-5,9H,2H2,1H3/t3-,4-,5+,6+,7+,8?/m0/s1
