27
gdb 112556	2.36113	1.10252	0.96112	0.1085	95.81	-0.2687	0.0759	0.3445	1466.6708	0.250489	-353.565226	-353.554224	-353.55328	-353.600488	42.251	
C	-0.6490217632	 1.3898844011	 0.0957586772	-0.382245
C	-0.3783218802	-0.1163539986	 0.1753385196	-0.185877
C	 0.8253939101	-0.4513112059	 1.059055112	 0.023851
C	 0.5913796492	-0.312038568	 2.5931329688	-0.281092
C	 0.6494676577	-1.8649677922	 2.7612794101	 0.346452
C	 1.6365656675	-2.3685592601	 3.8135233044	-0.447054
C	-0.7304058141	-2.4837100613	 3.0014261457	-0.446235
C	 1.1712305982	-1.9628811656	 1.2793944588	-0.020836
C	 0.6188761609	-3.0228463607	 0.3334518937	-0.415559
H	 0.2092487924	 1.9219856054	-0.3297640851	 0.112317
H	-1.5199368987	 1.6059924939	-0.5310846041	 0.108765
H	-0.8400247114	 1.8141285216	 1.0873523495	 0.11752
H	-1.2771575392	-0.6245715226	 0.5465544236	 0.094635
H	-0.2063373104	-0.5061622354	-0.8362424671	 0.092814
H	 1.6808465463	 0.1284526114	 0.6939049798	 0.057208
H	 1.4030655728	 0.2044659082	 3.1131566595	 0.088748
H	-0.3526811683	 0.1576657238	 2.8886804078	 0.088165
H	 1.2959811578	-2.1253378823	 4.8273253127	 0.107785
H	 1.7551232409	-3.457668124	 3.758118798	 0.108005
H	 2.6261415247	-1.9187570219	 3.6779574036	 0.105593
H	-1.4740918519	-2.1381543413	 2.2774659107	 0.113654
H	-0.6955113096	-3.5777138179	 2.9453906354	 0.109326
H	-1.09632275	-2.2147168071	 3.9993019922	 0.108497
H	 2.2618186977	-2.0706400881	 1.3081968098	 0.06102
H	-0.4684495484	-2.9684245599	 0.2303429737	 0.113843
H	 1.0502493657	-2.9144742926	-0.6680702333	 0.111002
H	 0.8676738733	-4.0299493196	 0.686927763	 0.109699
72.5098	114.226	165.7215	198.801	219.0395	226.1335	242.9157	254.4987	272.4523	318.9077	339.9953	360.9755	403.9212	468.2366	513.1884	645.6989	724.1687	771.3236	808.5616	850.0596	879.4877	934.0515	949.6542	953.1656	966.9781	1004.0989	1015.0977	1031.8716	1057.0763	1080.9583	1127.1197	1137.6374	1196.6337	1210.4762	1224.1332	1236.9047	1270.8959	1287.7682	1293.7041	1323.1748	1341.1544	1373.1509	1392.7571	1400.4904	1407.8284	1412.0971	1420.5097	1477.1136	1482.4255	1486.217	1488.2553	1495.6821	1499.3846	1499.8838	1504.8852	1507.6856	1510.514	3013.4035	3015.6959	3018.948	3024.2405	3028.8699	3030.0313	3033.337	3043.0862	3052.5273	3076.8474	3084.1061	3086.0788	3087.4451	3092.4266	3097.2813	3100.7874	3102.69	3112.0733
CCC1CC(C)(C)C1C	CC[C@H]1CC(C)(C)[C@H]1C	
InChI=1S/C9H18/c1-5-8-6-9(3,4)7(8)2/h7-8H,5-6H2,1-4H3	InChI=1S/C9H18/c1-5-8-6-9(3,4)7(8)2/h7-8H,5-6H2,1-4H3/t7-,8-/m0/s1
