20
gdb 12071	3.435	1.71744	1.51186	1.5178	74.23	-0.2309	0.0864	0.3174	955.3221	0.175809	-348.9722	-348.963937	-348.962992	-349.004421	32.055	
C	 0.0720181945	 1.4587949098	-0.2800468441	-0.385953
C	-0.0047074704	 0.014965054	 0.2304941879	-0.22148
C	-1.3993927035	-0.602082434	 0.1303021051	 0.427116
C	-2.4157348718	 0.0489438939	 1.0611405966	-0.432137
O	-1.9211815241	-0.5621313841	-1.2495393096	-0.337089
C	-2.1652493244	-1.9674316118	-1.2124358585	 0.109996
C	-0.8900812622	-2.7384349705	-1.0965502771	-0.316863
C	-1.5238261971	-2.1358952143	 0.1415846877	-0.173969
H	 1.106054549	 1.8163032995	-0.2703653773	 0.109526
H	-0.3009379084	 1.5173610023	-1.3063453685	 0.137887
H	-0.5185543376	 2.1454791486	 0.3339558804	 0.114489
H	 0.6958665457	-0.6025432792	-0.3405465404	 0.096858
H	 0.3178878766	-0.0368712354	 1.2784563124	 0.094112
H	-2.5334185785	 1.1106311672	 0.8293461851	 0.1265
H	-3.3910412145	-0.4331674982	 0.9539792767	 0.119698
H	-2.0958218653	-0.0442061916	 2.1051438833	 0.110888
H	-3.0910854283	-2.3347427938	-1.6399467094	 0.099489
H	-0.988130201	-3.8180276367	-1.162670391	 0.112412
H	 0.0230244666	-2.335550897	-1.5240203945	 0.115667
H	-1.8273799055	-2.7246249386	 0.9973413251	 0.092851
83.8657	189.2479	200.323	226.767	251.821	301.0095	361.5408	431.4255	482.9205	500.6768	639.2271	759.1009	775.5588	805.7097	855.0518	894.9827	926.3254	964.798	973.745	995.86	1005.5121	1040.197	1049.0456	1058.279	1076.2172	1086.8751	1162.6397	1175.6168	1216.7386	1251.5668	1286.2434	1310.8694	1357.3254	1375.4746	1404.5536	1408.8585	1467.7327	1479.766	1486.4811	1493.2835	1504.1651	1511.4313	3028.1169	3037.6249	3043.0911	3074.0492	3106.6501	3109.3971	3118.2435	3121.2665	3125.104	3175.4718	3194.9327	3208.2851
CCC1(C)OC2CC12	CC[C@@]1(C)O[C@H]2C[C@@H]12	
InChI=1S/C7H12O/c1-3-7(2)5-4-6(5)8-7/h5-6H,3-4H2,1-2H3	InChI=1S/C7H12O/c1-3-7(2)5-4-6(5)8-7/h5-6H,3-4H2,1-2H3/t5-,6+,7-/m1/s1
