15
gdb 62542	2.42432	1.45516	1.20664	2.685	67.72	-0.2941	-0.0169	0.2772	1063.7783	0.110735	-453.948527	-453.939714	-453.93877	-453.982084	31.874	
C	-0.0824413792	 1.5684820289	-0.0064266212	-0.424951
C	-0.0423914208	 0.0535489065	 0.102844518	 0.260872
O	-1.3370107831	-0.3952808999	 0.3270801801	-0.439939
C	 0.8102056297	-0.6477228015	-1.0392122697	-0.106587
O	 1.8422677817	-0.9621846173	-0.062046463	-0.254694
C	 1.0780621603	-0.4858210991	 0.9965993093	 0.380763
N	 1.2721059895	-0.5252352583	 2.2287792979	-0.529299
C	 0.2077114295	-1.8478084119	-1.6031881552	 0.305168
N	-0.3066461629	-2.7943169143	-2.0213079622	-0.312242
H	 0.9053652239	 1.9763504207	-0.2348318444	 0.132444
H	-0.7842629167	 1.8605387533	-0.7924362436	 0.142325
H	-0.4238559174	 1.985471155	 0.9435611337	 0.158423
H	-1.3272157803	-1.3329767035	 0.5527860896	 0.304164
H	 1.1947888167	 0.0050339881	-1.8256160001	 0.140589
H	 2.1458552888	-0.9941641967	 2.4730172609	 0.242964
73.2629	128.947	164.1615	212.2869	234.1373	276.8313	333.5241	336.2062	383.5865	475.8966	531.9093	627.8566	681.7822	693.8248	797.4861	843.4837	876.2663	946.5558	983.6249	997.2614	1032.712	1099.874	1135.8052	1178.3701	1251.3527	1279.584	1351.7677	1387.8808	1413.7494	1478.8869	1491.8539	1839.8097	2359.8839	3052.3334	3099.3578	3131.3937	3140.1964	3483.3881	3799.8247
CC1(O)C(OC1=N)C#N	C[C@@]1(O)[C@@H](O[C]1[NH])C#N	
InChI=1S/C5H6N2O2/c1-5(8)3(2-6)9-4(5)7/h3,7-8H,1H3	InChI=1S/C5H6N2O2/c1-5(8)3(2-6)9-4(5)7/h3,7-8H,1H3/t3-,5+/m0/s1
