22
gdb 118034	2.04609	0.98243	0.7938	2.6621	80.11	-0.2409	0.031	0.2718	1539.7878	0.192002	-441.506495	-441.495346	-441.494402	-441.543642	38.936	
C	-0.0360821934	 1.5105345131	 0.030286042	-0.397392
C	 0.0606659086	-0.0221360532	 0.0191801992	-0.001183
C	 0.6773067552	-0.5349573201	-1.2930153294	-0.174132
C	 0.7176183448	-2.053582491	-1.4080489136	-0.083055
O	 1.2247278883	-2.3682969163	-2.6956987988	-0.420156
N	 0.7521937043	-0.5366639194	 1.2050504746	-0.027369
C	 2.1515851024	-0.2126767978	 1.4355159069	-0.35458
C	 0.0867966151	-1.2823041774	 2.1356691302	 0.151336
O	 0.5602627175	-1.7325476156	 3.1584978707	-0.348363
H	 0.946091188	 1.9791002273	-0.0852470117	 0.124852
H	-0.6633275891	 1.8535233309	-0.7978105355	 0.123667
H	-0.477306349	 1.863872314	 0.9665767711	 0.123887
H	-0.9593193391	-0.4211071761	 0.0866817624	 0.091926
H	 0.0883293092	-0.1409763619	-2.1287146868	 0.11271
H	 1.6917539018	-0.1403062184	-1.4221962121	 0.109913
H	 1.3501966299	-2.4774551034	-0.6140379033	 0.100372
H	-0.2968222136	-2.4633754352	-1.2664497334	 0.084364
H	 1.3080957349	-3.3240372217	-2.7603915864	 0.288182
H	 2.3028208669	 0.8682861596	 1.5247230792	 0.126976
H	 2.4438579868	-0.6919089096	 2.3698604931	 0.170007
H	 2.7865989535	-0.5868227746	 0.6253029293	 0.127622
H	-0.9709096728	-1.4434308232	 1.8477691024	 0.070416
45.177	77.9696	86.0008	115.3331	168.0935	193.2258	232.1151	274.4734	277.3269	313.0814	325.6949	368.544	373.5803	493.8319	544.1802	634.123	806.7812	848.38	914.397	966.7937	1007.6824	1027.3122	1045.5047	1067.4943	1106.3121	1120.2467	1152.6934	1162.6307	1221.0556	1248.1587	1269.4003	1310.4792	1314.5154	1342.9838	1369.1683	1407.7052	1434.1303	1440.0477	1453.7505	1465.4004	1484.3844	1492.2205	1502.843	1507.965	1516.2598	1529.4583	1791.2604	2931.929	2958.7645	3004.4809	3026.1218	3032.5912	3039.3932	3046.4247	3082.1501	3087.5986	3113.1896	3118.6986	3155.839	3831.8418
CC(CCO)N(C)C=O	C[C@@H](CCO)N(C)C=O	
InChI=1S/C6H13NO2/c1-6(3-4-8)7(2)5-9/h5-6,8H,3-4H2,1-2H3	InChI=1S/C6H13NO2/c1-6(3-4-8)7(2)5-9/h5-6,8H,3-4H2,1-2H3/t6-/m0/s1
