17
gdb 131481	3.6995	1.14466	1.01361	2.2306	73.86	-0.2318	0.0108	0.2426	1180.7316	0.137753	-418.003672	-417.99562	-417.994676	-418.03734	30.085	
O	 0.0788308926	 1.1697921731	-0.5897003276	-0.428767
C	 0.0029132389	-0.1439540268	-0.1298185191	 0.145368
C	-0.257300125	-0.444436216	 1.3209774639	-0.329397
C	-1.3274930913	-0.7419806511	 0.2789774625	-0.201285
C	-2.5455785382	 0.1005553346	 0.2064357784	 0.170648
C	-3.2035199829	 0.5340342637	-0.9357757684	-0.130739
N	-4.275604368	 1.2481204099	-0.51791413	-0.172081
N	-4.3710998917	 1.328319674	 0.8223900075	-0.219749
C	-3.3261993934	 0.63616888	 1.262383987	-0.079993
H	-0.808340786	 1.5481506871	-0.5457245727	 0.281002
H	 0.6975517768	-0.7844079633	-0.6651949598	 0.099062
H	 0.2527008997	-1.2785293685	 1.7903834703	 0.111079
H	-0.4226447169	 0.4109391044	 1.9673095236	 0.118381
H	-1.4710355585	-1.7899608852	 0.0284025927	 0.098743
H	-2.9974461341	 0.3725495176	-1.9825402363	 0.143111
H	-4.965523829	 1.712608745	-1.0838661935	 0.277913
H	-3.157486453	 0.5331797814	 2.3243795915	 0.116705
30.1444	115.2963	167.7384	207.4744	296.5083	373.7152	446.9337	530.1324	543.4435	629.8045	695.0714	720.694	798.914	804.9682	825.8644	898.3165	927.8074	950.7864	1003.364	1019.299	1055.1759	1062.6714	1087.6871	1118.7952	1142.6393	1168.2322	1224.258	1245.9351	1287.593	1337.7931	1364.3337	1385.993	1415.2399	1428.2397	1480.5027	1495.6402	1600.7452	3129.1022	3132.5804	3153.4282	3222.7267	3247.4216	3258.7083	3673.6472	3761.2288
OC1CC1C1=CNN=C1	O[C@H]1C[C@H]1c1c[nH]nc1	
InChI=1S/C6H8N2O/c9-6-1-5(6)4-2-7-8-3-4/h2-3,5-6,9H,1H2,(H,7,8)	InChI=1S/C6H8N2O/c9-6-1-5(6)4-2-7-8-3-4/h2-3,5-6,9H,1H2,(H,7,8)/t5-,6-/m0/s1
