19
gdb 76704	2.87559	1.19703	0.99107	2.3538	77.49	-0.2366	0.0156	0.2522	1248.9974	0.156051	-422.954444	-422.944549	-422.943605	-422.989329	36.179	
C	-0.4335672977	 1.2394979175	-0.21257557	-0.390273
C	 0.3497730435	-0.0514164413	-0.1174900944	-0.100285
C	 1.7778966546	-0.0412553382	 0.394494357	 0.060415
O	 2.3021300475	 1.1912903275	 0.7679872805	-0.420573
C	 0.6657411665	-0.662859802	 1.2221562173	 0.064663
O	 0.1880385674	 0.0143005898	 2.3499438321	-0.231084
C	 0.7831677474	-0.3975944467	 3.5661213432	-0.219131
C	 2.1930156167	-0.0163080275	 3.7160300389	 0.313509
C	 3.3481665724	 0.2950373476	 3.846482935	-0.464987
H	-0.1227201809	 1.940416827	 0.5616802978	 0.14133
H	-0.2690700759	 1.7132597373	-1.1856719918	 0.114627
H	-1.5068491454	 1.0540081257	-0.1024259767	 0.111815
H	 0.1420766243	-0.7709133246	-0.905295811	 0.085525
H	 2.4901085956	-0.7229754097	-0.0725384835	 0.079189
H	 2.6288917307	 1.1100777308	 1.6730828405	 0.290464
H	 0.6386487473	-1.7493259492	 1.3211177256	 0.080773
H	 0.1931132179	 0.0719486763	 4.3599903433	 0.14559
H	 0.6936264582	-1.4886775652	 3.690802698	 0.12566
H	 4.3684568798	 0.5627894449	 3.9762128182	 0.212772
54.9722	110.8946	139.4483	156.5779	187.7642	228.3932	272.1672	308.4243	341.3699	377.3568	483.9659	568.3575	604.6031	622.1056	683.0882	695.2072	749.3945	804.1976	880.8433	925.8451	974.6576	1000.1873	1027.487	1070.2877	1100.9477	1118.0622	1156.5836	1169.6302	1180.7778	1254.6078	1297.6322	1340.8716	1360.8246	1375.9416	1407.5274	1414.7483	1451.5996	1474.4579	1494.7799	1499.9737	2223.4007	2980.8131	3042.6961	3074.6597	3077.3423	3087.9262	3098.8653	3136.9971	3158.0325	3496.7534	3754.5679
CC1C(O)C1OCC#C	C[C@H]1[C@@H](O)[C@H]1OCC#C	
InChI=1S/C7H10O2/c1-3-4-9-7-5(2)6(7)8/h1,5-8H,4H2,2H3	InChI=1S/C7H10O2/c1-3-4-9-7-5(2)6(7)8/h1,5-8H,4H2,2H3/t5-,6+,7-/m0/s1
