23
gdb 41189	2.68333	1.67605	1.50724	0.0867	89.88	-0.2235	0.0751	0.2986	1032.1068	0.2098	-351.077791	-351.070615	-351.069671	-351.108728	31.405	
C	-0.0119560683	 1.6063353857	-0.2321843093	-0.30086
C	 1.5598405302	 1.4490342905	 0.0046205611	-0.326156
C	 1.1783487189	 0.2257698074	 0.9123530653	 0.33537
C	 1.2264169192	-1.3388179437	 0.9903551421	-0.32041
C	-0.3699586226	-1.2526504032	 0.8674538599	-0.08881
C	-1.0057781574	-1.0343916963	 2.2392949856	-0.195712
C	-0.5802390397	 0.333142193	 2.8046884116	-0.193421
C	 0.8429663521	 0.7175703797	 2.3533027888	-0.236582
C	-0.0380062498	 0.0591081713	 0.0425858033	 0.053703
H	-0.4692456099	 2.2261849177	 0.5410817632	 0.110882
H	-0.3443330145	 1.9532651308	-1.2138340053	 0.094441
H	 2.0610602111	 1.1639772388	-0.9245805614	 0.101309
H	 2.0913953763	 2.2880186697	 0.4642305721	 0.091016
H	 1.6673245481	-1.8166012242	 0.1118612874	 0.096245
H	 1.6268487904	-1.797457023	 1.9015424034	 0.083662
H	-0.8559180264	-2.0641894754	 0.3192394544	 0.062288
H	-2.0982809279	-1.085567043	 2.1692064133	 0.092388
H	-0.6999330802	-1.8499615648	 2.9069508337	 0.094232
H	-1.2783605489	 1.0883907023	 2.4277261834	 0.10217
H	-0.6659451822	 0.3565554254	 3.8960935236	 0.087848
H	 1.5895516228	 0.2827322409	 3.0298330584	 0.092279
H	 0.9645688354	 1.8025461041	 2.4329659885	 0.088814
H	 0.3214254035	-0.3511826437	-0.9111315529	 0.075304
185.5401	216.0614	292.7636	361.5267	409.7524	431.1826	490.3145	501.1663	625.158	658.2099	738.7602	767.8578	777.0893	817.3352	851.3849	863.5706	883.3356	899.2334	921.8444	948.507	999.9441	1020.7325	1041.8022	1054.6558	1064.6387	1105.9041	1113.7772	1124.1941	1154.4686	1174.612	1192.5499	1214.575	1223.6199	1228.7152	1240.7171	1257.8709	1282.3301	1300.1809	1322.5667	1355.3411	1368.1161	1384.3031	1446.6671	1479.7631	1483.3519	1489.4743	1491.2157	1500.7604	1516.6728	2985.7202	3020.2918	3021.7627	3032.854	3034.8775	3045.0838	3055.4402	3063.7364	3066.8103	3069.7888	3080.3248	3104.424	3106.0339	3130.2481
C1CC23CC(CCC2)C13	C1C[C@@]23C[C@@H](CCC2)[C@@H]13	
InChI=1S/C9H14/c1-2-7-6-9(4-1)5-3-8(7)9/h7-8H,1-6H2	InChI=1S/C9H14/c1-2-7-6-9(4-1)5-3-8(7)9/h7-8H,1-6H2/t7-,8-,9-/m1/s1
