17
gdb 32149	3.73031	1.21675	0.92808	1.7666	79.26	-0.2447	-0.0324	0.2122	1252.5499	0.136773	-418.076021	-418.06751	-418.066566	-418.110213	30.327	
C	 0.0004563601	 1.3699997482	-0.0680666999	-0.225473
O	-0.0520064816	-0.0555083487	-0.0976071228	-0.240978
C	-1.2581976052	-0.6301639559	-0.0211872843	 0.458548
N	-2.3363607875	 0.1500723407	 0.0774805548	-0.350821
C	-3.5015674922	-0.4979621291	 0.1491299477	 0.013097
C	-3.5967366272	-1.8795769913	 0.1238129657	-0.189604
C	-2.3969951093	-2.5920753801	 0.0176667958	 0.321829
C	-2.3593277467	-4.0951111313	-0.0204944799	-0.468427
N	-1.2226789097	-1.9632475744	-0.0551040984	-0.350207
H	 1.0595447175	 1.6207999896	-0.1411195258	 0.129845
H	-0.551022465	 1.8034936448	-0.9069506874	 0.134244
H	-0.4191337543	 1.7619704697	 0.8625648871	 0.134245
H	-4.3907916953	 0.1238653199	 0.2300088109	 0.115838
H	-4.5534393037	-2.382710958	 0.1833322268	 0.100612
H	-1.8844483656	-4.4345532602	-0.9462644433	 0.148179
H	-1.7512655959	-4.4757141526	 0.8060328878	 0.148185
H	-3.3596184686	-4.5285607813	 0.0452784455	 0.120889
31.2459	106.7271	162.3266	201.8916	232.043	240.4304	342.1284	458.1159	510.3203	546.8613	632.6622	646.8156	772.2412	828.1955	836.3388	928.2338	1000.5622	1003.2231	1022.4485	1058.5302	1119.7689	1128.8358	1180.1855	1204.0413	1271.5537	1277.3912	1360.0963	1403.9369	1419.1299	1474.1252	1476.3416	1481.6322	1486.2262	1496.8596	1512.424	1600.3128	1628.75	3043.5398	3045.4065	3107.8615	3115.2257	3132.6328	3147.1283	3150.4856	3211.2237
COC1=NC=CC(C)=N1	COc1nccc(C)n1	
InChI=1S/C6H8N2O/c1-5-3-4-7-6(8-5)9-2/h3-4H,1-2H3	InChI=1S/C6H8N2O/c1-5-3-4-7-6(8-5)9-2/h3-4H,1-2H3
