18
gdb 90215	3.09252	1.75533	1.55874	2.6437	76.51	-0.2016	0.047	0.2486	917.0118	0.147476	-401.763853	-401.756732	-401.755788	-401.794824	29.556	
O	 0.1583548725	 1.285820957	-0.3503617871	-0.420751
C	 0.0721310147	-0.0829166987	-0.028782384	 0.012763
C	 0.1590151147	-0.406035764	 1.5382519301	-0.383234
C	-1.3928274157	-0.3697036294	 1.5508159413	 0.277353
C	-2.3278139992	 0.8416488163	 1.5468599213	-0.290373
C	-2.8541533843	-0.1083851085	 0.4705688013	-0.049565
N	-2.6172098337	-1.3725733849	 1.3766661999	-0.207007
C	-1.8388121562	-2.0260135507	 0.2366763567	-0.217604
C	-1.4100211578	-0.5754918318	 0.0415262229	 0.188914
H	 1.0619718727	 1.5763840156	-0.1868961948	 0.288728
H	 0.7342792179	-0.6893546303	-0.6640767576	 0.075262
H	 0.5891897318	-1.3916277807	 1.732265974	 0.121607
H	 0.6676882531	 0.3359006237	 2.1608829066	 0.108102
H	-2.9649734487	 0.9743980934	 2.4258043931	 0.101484
H	-1.8987034426	 1.780362497	 1.1951734653	 0.120792
H	-3.7702176074	-0.0625310067	-0.1272816104	 0.079659
H	-1.0978947344	-2.7542349176	 0.5852670025	 0.096926
H	-2.4807122074	-2.4819840298	-0.5248641513	 0.09694
153.3352	228.9762	291.964	347.5148	397.8972	412.0484	434.9184	485.4977	551.0253	713.5154	748.9663	758.5552	794.3833	832.919	871.7603	901.8212	928.1813	965.6803	981.8973	1012.5195	1027.5137	1071.3472	1087.613	1121.4554	1142.9545	1147.4308	1160.4057	1193.7048	1210.8413	1215.8281	1223.7184	1242.4183	1274.2863	1289.2261	1306.6158	1406.4739	1445.4559	1486.592	1522.9058	2986.1085	3029.2029	3054.7845	3055.6565	3068.1914	3082.855	3119.3099	3143.6249	3804.393
OC1CC23CC4N2CC134	O[C@H]1C[C@]23C[C@@H]4N2C[C@]134	
InChI=1S/C7H9NO/c9-5-2-6-1-4-7(5,6)3-8(4)6/h4-5,9H,1-3H2	InChI=1S/C7H9NO/c9-5-2-6-1-4-7(5,6)3-8(4)6/h4-5,9H,1-3H2/t4-,5-,6-,7-/m0/s1
