21
gdb 71005	2.9051	1.55476	1.41082	1.2602	83.12	-0.2319	0.077	0.309	1030.6861	0.184419	-387.010036	-387.00256	-387.001615	-387.041209	31.994	
O	-0.0148010829	 1.449171138	-0.0575342081	-0.483742
C	 0.0335109431	 0.060508281	-0.0235877851	 0.357399
C	 0.2277902272	-0.7700018675	 1.3663872781	-0.391389
C	-0.46499454	-1.8630773287	 0.4998801812	 0.309907
C	-1.6935423909	-2.8096881186	 0.3219227808	-0.32485
C	-2.1303579596	-1.8432868289	-0.8664469688	-0.302442
C	-1.2972846644	-0.7512506059	-0.1061095172	 0.009098
C	 0.6548053646	-2.122643662	-0.5546473072	-0.239761
C	 1.0068960654	-0.6650703636	-0.9585773082	-0.271076
H	 0.8848084302	 1.7869385946	-0.1236594421	 0.279518
H	 1.2535064422	-0.9328802923	 1.7172511905	 0.080047
H	-0.3949175495	-0.3560143235	 2.1605078103	 0.105134
H	-1.495401441	-3.8587363793	 0.0831048259	 0.094988
H	-2.4086594685	-2.7568242452	 1.1467550096	 0.10713
H	-1.7300659387	-2.161557895	-1.8300725158	 0.111091
H	-3.1985407318	-1.6447442989	-0.9777008349	 0.099237
H	-1.960969558	-0.3441329138	 0.6642203385	 0.081675
H	 1.4965705968	-2.648377947	-0.0932928435	 0.094464
H	 0.3224194211	-2.7247907492	-1.402497313	 0.095998
H	 0.7991430134	-0.4433463192	-2.0096105545	 0.102195
H	 2.049596051	-0.3961275849	-0.7543826366	 0.08538
218.5689	226.0361	256.2326	290.3807	358.0541	383.7238	463.1041	502.5435	567.9831	584.6927	632.5463	710.9072	747.593	802.3323	833.7312	842.7174	859.0815	916.1072	940.0624	973.2994	984.6543	1010.8073	1033.682	1043.7236	1072.6454	1110.2295	1137.5371	1142.5018	1169.2415	1190.7826	1202.1345	1216.3472	1219.6386	1237.0837	1250.5155	1259.3915	1300.6014	1324.5357	1373.1799	1416.8715	1476.7863	1486.3188	1490.9467	1499.9127	1526.1316	3032.6799	3035.8393	3040.2337	3051.5539	3056.3224	3075.4227	3082.0901	3108.2579	3109.8998	3131.4627	3137.1525	3803.7572
OC12CC3(CCC13)CC2	O[C@@]12C[C@]3(CC[C@H]13)CC2	
InChI=1S/C8H12O/c9-8-4-3-7(5-8)2-1-6(7)8/h6,9H,1-5H2	InChI=1S/C8H12O/c9-8-4-3-7(5-8)2-1-6(7)8/h6,9H,1-5H2/t6-,7-,8-/m0/s1
