12
gdb 20609	3.58008	1.95665	1.27522	3.9577	65.82	-0.2497	-0.0451	0.2046	878.0609	0.081884	-377.477636	-377.470366	-377.469422	-377.509258	26.051	
C	 0.0832113526	 1.5224471632	 0.0587062373	-0.507069
C	-0.0080961179	 0.0417576138	 0.0753857899	 0.30638
C	-1.0776219355	-0.8160614759	 0.0012329511	 0.070462
N	-0.5549193741	-2.0991118145	 0.0655971691	-0.177721
N	 0.6886137261	-2.0736670845	 0.167905096	-0.013729
O	 1.0999706219	-0.6782936104	 0.178827789	-0.208013
C	-2.4523319052	-0.528904657	-0.1171694665	 0.279065
C	-3.6228072689	-0.2687147143	-0.2182564844	-0.43924
H	 0.6954319976	 1.8621032842	-0.7826008462	 0.162698
H	-0.9152978882	 1.9531116517	-0.0311370423	 0.160329
H	 0.549159413	 1.8914500002	 0.9779047773	 0.162702
H	-4.6576984414	-0.0468746065	-0.3074727505	 0.204137
109.8059	138.9328	174.9648	255.7231	306.0733	487.729	515.4633	575.1741	577.5405	614.5071	660.834	694.1907	703.275	741.7658	994.5494	1023.3471	1065.3321	1151.7486	1252.4146	1382.0836	1420.2042	1475.3939	1476.855	1491.5493	1609.4409	2243.1268	3046.6587	3106.4565	3146.5273	3501.0412
CC1=C(N=NO1)C#C	Cc1c(nno1)C#C	
InChI=1S/C5H4N2O/c1-3-5-4(2)8-7-6-5/h1H,2H3	InChI=1S/C5H4N2O/c1-3-5-4(2)8-7-6-5/h1H,2H3
