15
gdb 5394	5.28146	1.64981	1.26736	0.369	72.06	-0.2139	-0.024	0.1899	930.7274	0.121644	-358.907342	-358.900046	-358.899102	-358.939631	25.96	
C	 0.0051327742	 1.4515666062	-0.0028067767	-0.308986
N	-0.0652378831	 0.0080543675	 0.0477675729	-0.342243
C	-1.2263783746	-0.6927481675	 0.0303404527	 0.464025
N	-2.3759450099	 0.0055622839	 0.0617483607	-0.321569
C	-3.4921644226	-0.7206883862	 0.063623728	 0.014305
C	-3.4972210365	-2.1094355484	 0.0304551027	-0.156665
C	-2.2437545456	-2.7183667084	-0.0086991438	 0.013337
N	-1.1051265114	-2.0378174166	-0.0099088471	-0.327556
H	 1.0469332447	 1.7534360542	 0.1241183301	 0.120849
H	-0.3652405713	 1.8528973877	-0.9545589479	 0.129454
H	-0.5920772454	 1.8963882587	 0.7979352143	 0.14508
H	 0.7699877826	-0.5424587581	-0.0535754007	 0.253676
H	-4.4247448899	-0.159570501	 0.0906569565	 0.109249
H	-4.4150865744	-2.6823285575	 0.0300665926	 0.097952
H	-2.1522658069	-3.8028183645	-0.0415429543	 0.109092
48.6678	101.3017	190.1352	221.5777	409.2456	438.3823	485.6646	538.4496	624.8085	651.2948	803.8036	831.0429	853.6458	993.8068	996.5775	1012.6832	1082.5145	1098.1547	1118.4793	1160.6965	1187.1974	1263.4026	1303.6449	1378.135	1431.5989	1450.9635	1476.5947	1490.9458	1517.4668	1577.6354	1601.0007	1643.1991	3022.0969	3086.7714	3130.1208	3141.7366	3143.0676	3218.537	3670.4392
CNC1=NC=CC=N1	CNc1ncccn1	
InChI=1S/C5H7N3/c1-6-5-7-3-2-4-8-5/h2-4H,1H3,(H,6,7,8)	InChI=1S/C5H7N3/c1-6-5-7-3-2-4-8-5/h2-4H,1H3,(H,6,7,8)
