19
gdb 36042	3.76893	1.06335	0.93759	4.0177	79.56	-0.2391	0.0337	0.2728	1272.4156	0.158789	-382.035997	-382.027218	-382.026273	-382.069749	33.073	
N	-0.235084393	-0.9357753585	 1.146198326	-0.320893
C	-0.0591146111	 0.1842870448	 0.9219365037	 0.258843
C	 0.176156068	 1.595271459	 0.6345087943	-0.382475
C	 1.5889483261	 1.9183108906	 0.1422034709	 0.338067
C	 2.7631763361	 1.1233156628	 0.6684592668	-0.322148
C	 2.3011882258	 0.9635626767	-0.7671285707	-0.300134
N	 1.6410728606	 3.3360925756	-0.1431806119	-0.119222
C	 2.1026822526	 4.2400640729	 0.9118576015	-0.229638
C	 2.9154840221	 4.0154710505	-0.3149859394	-0.236319
H	-0.5433539543	 1.9307506972	-0.1207137731	 0.163399
H	-0.0319566579	 2.1724501385	 1.5439402517	 0.152332
H	 3.7040750603	 1.6312020458	 0.8481415756	 0.115917
H	 2.5627054747	 0.311067642	 1.3582073143	 0.138392
H	 1.8058087441	 0.039888503	-1.0450480506	 0.137753
H	 2.9192167847	 1.3968185599	-1.5460192232	 0.121204
H	 1.5288492421	 5.1532747811	 1.0382785912	 0.122037
H	 2.4753400299	 3.7947941127	 1.8323506514	 0.11887
H	 3.8393449661	 3.4532035822	-0.2025770601	 0.119908
H	 2.9368980133	 4.7578475033	-1.1077019482	 0.124105
64.2071	95.0318	137.1303	225.4815	259.7983	314.1277	344.094	394.995	429.6706	502.5138	538.5378	670.9012	774.3137	799.5444	829.9614	848.8849	899.7602	945.6712	966.9246	970.2947	1003.2014	1020.742	1046.2338	1056.0785	1086.8279	1113.9819	1124.6176	1173.0787	1179.2714	1188.351	1210.7285	1238.2329	1316.7486	1328.7366	1372.6918	1460.1403	1464.8121	1485.5519	1503.6478	1521.5736	2361.513	3037.7506	3077.8312	3102.3237	3110.1376	3137.2654	3138.4155	3184.5179	3198.4027	3216.4461	3228.4442
N#CCC1(CC1)N1CC1	N#CCC1(CC1)N1CC1	
InChI=1S/C7H10N2/c8-4-3-7(1-2-7)9-5-6-9/h1-3,5-6H2	InChI=1S/C7H10N2/c8-4-3-7(1-2-7)9-5-6-9/h1-3,5-6H2
