17
gdb 106257	2.6282	1.2554	1.03883	3.3345	69.8	-0.2429	-0.0131	0.2298	1173.9822	0.134315	-458.939911	-458.931127	-458.930183	-458.973577	32.686	
O	 0.1793537398	 1.3593279233	-0.0417947828	-0.406261
C	 0.0627470988	-0.0467392572	 0.1123526957	-0.17013
C	-1.3698324877	-0.4970515232	 0.104558555	 0.265788
C	-2.3952743122	-0.1370014878	 1.1972075739	-0.400411
C	-2.8650198666	-1.6072050788	 1.1526067352	 0.439341
O	-3.5747693232	-2.2630940565	 1.8609270799	-0.321099
C	-1.9342442857	-1.9690191105	 0.0302524154	-0.315194
C	-2.0849601795	-0.9644930418	-1.1048295571	 0.052116
O	-3.3047387358	-0.3885117701	-1.458977487	-0.416339
H	-0.2530995652	 1.6015789769	-0.8677667419	 0.288272
H	 0.6285667834	-0.5909931343	-0.6610979893	 0.089817
H	 0.5272058192	-0.2751246998	 1.0777150444	 0.118748
H	-1.9341449945	 0.0901236312	 2.1626348434	 0.132939
H	-3.1289752457	 0.6300057097	 0.9466320607	 0.137524
H	-1.4351634169	-2.9195719096	-0.1201499748	 0.109768
H	-1.4375038471	-1.2066140778	-1.9508664749	 0.098458
H	-3.875712091	-1.0772140336	-1.8161502758	 0.296664
78.014	100.6494	140.9433	248.9357	279.415	298.0812	333.7318	388.8836	417.7477	464.008	509.9294	615.0122	641.2925	727.85	764.2383	874.2262	917.7693	940.9252	960.6099	988.5456	1048.9627	1059.7202	1099.1173	1109.4264	1128.6994	1200.2895	1214.3874	1221.9471	1279.0832	1316.4463	1340.3732	1373.9208	1424.077	1441.7831	1483.3319	1504.4297	1883.367	2973.8728	3069.8644	3073.8714	3079.5374	3137.2325	3185.6301	3808.1797	3808.9162
OCC12CC(=O)C1C2O	OC[C@]12CC(=O)[C@H]1[C@H]2O	
InChI=1S/C6H8O3/c7-2-6-1-3(8)4(6)5(6)9/h4-5,7,9H,1-2H2	InChI=1S/C6H8O3/c7-2-6-1-3(8)4(6)5(6)9/h4-5,7,9H,1-2H2/t4-,5+,6+/m0/s1
