17
gdb 71141	2.96233	1.81819	1.42333	4.4284	72.94	-0.2578	0.0263	0.2841	944.1196	0.137102	-417.98542	-417.978367	-417.977423	-418.016577	28.543	
C	 0.0444940205	 1.4901980319	-0.0858721935	-0.489179
C	 0.0132731632	-0.0073026114	 0.0411289746	 0.378186
C	-1.3171362779	-0.7655085302	 0.363914222	-0.289068
C	-0.4918468894	-1.6899432385	 1.2642474146	-0.054189
C	 0.6799887695	-0.7712697083	 1.2214757985	-0.104492
N	 0.7952107245	-2.097353961	 0.6260608758	-0.14272
C	 0.8590148395	-1.9294487636	-0.7923816316	 0.431884
N	 1.1533985242	-2.8566760702	-1.5900642026	-0.542146
O	 0.5925131415	-0.6239037818	-1.1269410525	-0.274896
H	 1.0717426982	 1.8390764041	-0.2275289888	 0.137396
H	-0.55163015	 1.8187059014	-0.9421531966	 0.138576
H	-0.3614731219	 1.9563805986	 0.81624504	 0.127674
H	-1.9964081027	-0.1514527137	 0.9612911267	 0.11535
H	-1.8509013099	-1.1952164118	-0.4884348533	 0.116985
H	-0.8494532095	-2.3310219445	 2.0598413785	 0.115008
H	 1.3890452274	-0.4306306001	 1.9660657407	 0.108135
H	 1.1367344829	-2.509127091	-2.5490649125	 0.227496
136.0105	217.4002	258.9703	287.5877	366.6822	455.4778	480.5565	601.2567	673.5672	697.2273	711.4251	792.5186	848.249	858.7112	869.1651	885.4337	917.6495	941.5151	970.1355	1001.2696	1009.852	1016.4477	1053.2239	1119.9415	1149.8329	1173.0181	1201.5902	1228.2	1253.862	1320.0197	1324.4063	1348.0398	1419.0138	1482.3148	1483.7488	1493.4848	1788.9818	3044.2057	3056.5286	3114.6509	3118.0911	3122.2898	3188.6575	3204.1202	3495.3982
CC12CC3C1N3C(=N)O2	C[C@]12C[C@@H]3[C@H]1N3[C]([NH])O2	
InChI=1S/C6H8N2O/c1-6-2-3-4(6)8(3)5(7)9-6/h3-4,7H,2H2,1H3	InChI=1S/C6H8N2O/c1-6-2-3-4(6)8(3)5(7)9-6/h3-4,7H,2H2,1H3/t3-,4-,6+,8?/m1/s1
