25
gdb 101099	3.11826	1.05084	0.93194	0.1849	93.16	-0.2801	0.0845	0.3646	1420.7713	0.229199	-352.319408	-352.309831	-352.308887	-352.353967	37.176	
C	 0.0488203545	 1.5410071788	 0.0738069676	-0.39158
C	-0.0122236876	 0.0123808727	-0.0103865678	-0.169107
C	-1.4374112213	-0.574408103	-0.0400658713	-0.118002
C	-2.2166270236	-0.1625642973	-1.2985753696	-0.401161
C	-1.4050477313	-2.0839139833	 0.1031277045	 0.400974
C	-0.7931180789	-2.9129854473	 1.2808032818	-0.266341
C	-1.3783974953	-3.961516473	 0.2970491942	-0.047942
C	-2.6310200903	-3.0523180999	 0.1779678386	-0.269305
C	-0.7489671149	-3.1342578816	-0.8571379941	-0.252039
H	 1.0844687969	 1.8859705122	 0.1557172829	 0.110031
H	-0.3855612729	 2.0196827789	-0.8091221464	 0.11733
H	-0.4934738001	 1.9099148082	 0.9520010041	 0.112051
H	 0.5319295058	-0.3283426405	-0.9016032751	 0.094326
H	 0.5211969987	-0.409299245	 0.8500442777	 0.095979
H	-1.9772250028	-0.182853051	 0.8363418048	 0.066282
H	-3.2234953486	-0.5911801978	-1.2970289835	 0.114811
H	-2.3219340059	 0.9233958625	-1.3714692069	 0.112849
H	-1.7069790603	-0.5109692357	-2.2044723334	 0.113557
H	 0.2956464942	-2.894468293	 1.3853715458	 0.085839
H	-1.2882560245	-2.8185199501	 2.2523803934	 0.0835
H	-1.3629694704	-5.046125921	 0.4092508847	 0.067574
H	-3.2650785811	-2.9680745653	 1.0661699225	 0.083381
H	-3.2309297178	-3.1608619507	-0.7303732747	 0.085608
H	-1.2026230936	-3.2492431384	-1.8460031582	 0.085629
H	 0.3433752311	-3.1305847195	-0.9183760618	 0.085756
58.3416	81.3108	152.861	183.8505	212.0816	269.3474	291.7276	338.3593	394.4707	453.8815	544.8952	551.7052	665.8735	775.4092	797.1426	801.6775	842.5784	880.1372	935.9162	948.1714	953.2221	959.3606	972.6528	991.0702	996.369	1034.223	1067.1267	1095.4495	1103.7764	1123.4582	1142.6708	1145.1228	1154.1771	1178.8698	1192.1329	1229.9187	1239.4638	1239.728	1289.9948	1306.4322	1331.5993	1363.3482	1384.7719	1406.3753	1413.4234	1483.8251	1495.8542	1497.6158	1497.9748	1499.9688	1507.2155	1511.5702	1554.8189	2981.5734	3017.377	3031.0647	3032.8894	3036.5885	3038.1254	3046.3603	3053.7165	3096.1614	3097.5188	3099.7017	3103.6424	3104.6163	3105.4171	3106.3553	3112.3612
CCC(C)C12CC(C1)C2	CC[C@@H](C)[C@@]12C[C@@H](C1)C2	
InChI=1S/C9H16/c1-3-7(2)9-4-8(5-9)6-9/h7-8H,3-6H2,1-2H3	InChI=1S/C9H16/c1-3-7(2)9-4-8(5-9)6-9/h7-8H,3-6H2,1-2H3/t7-,8-,9-/m1/s1
