22
gdb 68844	2.35023	1.77834	1.37338	1.6372	84.99	-0.2251	0.0828	0.3078	1065.4042	0.194911	-367.192775	-367.184249	-367.183305	-367.22512	34.308	
C	-0.0740588621	 1.5270239706	-0.0005213059	-0.487177
C	-0.0281211699	 0.0193947647	 0.0698383392	 0.303387
C	 1.2598792222	-0.7212657228	-0.2272811593	-0.382068
C	 0.673502745	-0.7665593893	 1.1670119331	 0.302267
C	 1.4038417428	-0.1513383401	 2.3376707005	-0.480586
C	-0.1811887117	-1.9801470485	 1.4147615712	-0.089045
C	-1.5507602333	-1.7414497079	 1.9334459653	-0.252022
N	-1.3416184725	-1.9975343031	 0.5000317146	-0.097072
C	-1.2965176175	-0.7540372191	-0.3061945136	-0.239338
H	 0.867280842	 1.9792763792	 0.3259864441	 0.116003
H	-0.2557901801	 1.8645863817	-1.0278774447	 0.120933
H	-0.8768814006	 1.9339344828	 0.6257860173	 0.113993
H	 1.2196500499	-1.6156062908	-0.8431336709	 0.112289
H	 2.1543422954	-0.1213973146	-0.3670659595	 0.102853
H	 1.942280956	 0.7552492795	 2.045893937	 0.115545
H	 0.7137155426	 0.1107282869	 3.1474538271	 0.116493
H	 2.1424336199	-0.8503999418	 2.7471040271	 0.120021
H	 0.3086374982	-2.9373412946	 1.5842003917	 0.086252
H	-2.0838352335	-2.5250307529	 2.4642692818	 0.112728
H	-1.8033457747	-0.7279919183	 2.2416147894	 0.104667
H	-2.1973114704	-0.1551935945	-0.1228107344	 0.097141
H	-1.3011777674	-1.031706157	-1.3671774209	 0.102736
149.3837	184.6788	197.2457	209.7911	236.3238	330.5758	373.8311	425.1348	431.4869	473.9991	545.9555	638.0281	690.7154	752.1871	775.7557	851.5495	886.1776	919.3284	943.1265	955.7625	970.0836	1013.1744	1031.1421	1036.4292	1056.9103	1080.2085	1107.6747	1115.2654	1132.1352	1159.8359	1197.8291	1230.0118	1257.1292	1276.9851	1281.2143	1346.4262	1385.7575	1397.0123	1413.4849	1424.3187	1483.4441	1486.7186	1493.4549	1494.9334	1502.0888	1507.3868	1514.555	3017.117	3022.0214	3026.228	3054.0352	3077.3016	3083.2068	3093.9101	3097.9283	3104.2907	3111.8021	3120.6488	3183.4539	3197.3431
CC12CC1(C)C1CN1C2	C[C@@]12C[C@]1(C)[C@H]1CN1C2	
InChI=1S/C8H13N/c1-7-4-8(7,2)6-3-9(6)5-7/h6H,3-5H2,1-2H3	InChI=1S/C8H13N/c1-7-4-8(7,2)6-3-9(6)5-7/h6H,3-5H2,1-2H3/t6-,7+,8-,9?/m1/s1
