19
gdb 15046	2.80254	1.48934	1.04551	3.9758	75.69	-0.2974	0.0362	0.3336	1159.7785	0.165135	-327.937337	-327.928496	-327.927552	-327.971063	31.971	
C	-0.1075209453	 1.5356241596	-0.0416578143	-0.399315
C	-0.0418426011	 0.0101670682	-0.1322713439	-0.177212
C	 0.8480099894	-0.5113829983	-1.2850457137	-0.159315
C	 2.2353954056	-0.0534117028	-1.1216739765	 0.285978
N	 3.3259978756	 0.3014729899	-0.9764124739	-0.334577
C	 0.8044121225	-2.0295020625	-1.4066946723	 0.031991
C	-0.3081160189	-2.6802270875	-2.1882412915	-0.279721
C	 1.1042583222	-2.7012315989	-2.7195867564	-0.269891
H	 0.8838025595	 1.9664500618	 0.1282569748	 0.144857
H	-0.508894184	 1.9712064938	-0.9634214692	 0.116962
H	-0.7554074878	 1.846403343	 0.7829172602	 0.120557
H	 0.3283541733	-0.4075452018	 0.8111497121	 0.114685
H	-1.0432274673	-0.4054907439	-0.2885267308	 0.109771
H	 0.4811639233	-0.0790220967	-2.2264640678	 0.116242
H	 1.1378605411	-2.5463399131	-0.511363715	 0.100594
H	-0.7330807557	-3.6010695594	-1.8053744007	 0.120159
H	-1.0259680706	-2.0348672872	-2.6846285392	 0.114782
H	 1.3350130404	-2.0693183154	-3.5708211028	 0.120803
H	 1.6514454376	-3.6365622289	-2.7019135689	 0.122649
74.3676	99.7204	143.3593	164.8975	192.7683	264.5465	328.5556	372.3334	417.4342	529.0876	578.3237	753.6551	780.4204	830.9693	851.0709	886.0628	920.5759	976.9193	979.0945	1044.7788	1062.5116	1083.4512	1102.0381	1125.1677	1139.0437	1186.6796	1196.6397	1227.445	1270.1522	1285.6824	1341.6685	1367.0161	1410.244	1419.2324	1471.9153	1487.544	1500.6886	1506.7842	1507.484	2352.9141	3015.8554	3036.5847	3040.2204	3077.1319	3106.4482	3117.3762	3131.2231	3138.5404	3150.6634	3211.5127	3227.1394
CCC(C#N)C1CC1	CC[C@@H](C#N)C1CC1	
InChI=1S/C7H11N/c1-2-6(5-8)7-3-4-7/h6-7H,2-4H2,1H3	InChI=1S/C7H11N/c1-2-6(5-8)7-3-4-7/h6-7H,2-4H2,1H3/t6-/m0/s1
