14
gdb 11367	6.38755	1.35045	1.13051	3.1789	59.66	-0.246	0.0015	0.2474	996.2619	0.108058	-415.912368	-415.904974	-415.90403	-415.944312	26.284	
C	 0.0077901198	 1.3838900474	 0.0072319405	-0.238429
O	-0.0335930334	-0.0511070477	 0.0033679579	-0.261163
C	-1.253007277	-0.5775850891	 0.0113330942	 0.517706
N	-2.3707028895	 0.0397541614	 0.0218586709	-0.366546
C	-3.3906325015	-1.011399863	 0.0266547285	-0.300359
C	-2.6449486702	-2.3564071126	 0.0169372346	 0.408401
O	-3.0668227279	-3.4838401295	 0.0167742167	-0.354343
N	-1.3081458058	-1.9658139979	 0.007618073	-0.406068
H	 1.0657552768	 1.6440480335	-0.0011724084	 0.13771
H	-0.4971382397	 1.7811378441	-0.8764486382	 0.148369
H	-0.4816519467	 1.7758909097	 0.9019137318	 0.148315
H	-4.0327352007	-0.9454072668	 0.9123137847	 0.146185
H	-4.0463785103	-0.9402063492	-0.8485397986	 0.146193
H	-0.5170813239	-2.5888490805	-0.0003851778	 0.274028
90.7271	127.6059	186.8637	222.7969	290.277	403.2291	473.024	529.5593	561.1589	673.8634	706.6276	739.8016	881.7253	966.4196	985.2539	1038.5505	1093.2827	1181.5702	1184.1385	1191.3007	1230.0489	1282.3767	1292.6966	1441.5694	1453.3458	1476.5037	1494.5429	1507.9451	1721.854	1864.3845	3046.1651	3055.2855	3078.6844	3132.8618	3165.8114	3659.9609
COC1=NCC(=O)N1	COC1=NCC(=O)N1	
InChI=1S/C4H6N2O2/c1-8-4-5-2-3(7)6-4/h2H2,1H3,(H,5,6,7)	InChI=1S/C4H6N2O2/c1-8-4-5-2-3(7)6-4/h2H2,1H3,(H,5,6,7)
