20
gdb 31030	2.61788	1.19367	0.87686	1.2936	85.14	-0.1731	0.0423	0.2153	1386.2204	0.170241	-403.192641	-403.18274	-403.181796	-403.227835	35.955	
C	 0.0325735334	 1.6419262354	 0.131772281	-0.359225
C	 0.0004228272	 0.1187328538	-0.0878971195	-0.311942
C	-1.376833402	-0.4720324285	-0.0319768693	 0.215066
C	-2.1747509502	-0.8376119459	-1.0767776359	 0.247285
N	-2.0472850603	-0.74440724	-2.4607548041	-0.599272
O	-3.3660682698	-1.3214934897	-0.6426226833	-0.209397
C	-3.3488930777	-1.2723334245	 0.7365622865	 0.356994
C	-4.5600552442	-1.7751708225	 1.4324661301	-0.490016
C	-2.1651779629	-0.7554212758	 1.1447998372	-0.367571
H	 1.0578614636	 2.0257007593	 0.0978057184	 0.104946
H	-0.55353765	 2.1592169923	-0.6342059004	 0.119508
H	-0.3946688707	 1.9033648699	 1.1050437137	 0.118938
H	 0.4660006401	-0.1128970537	-1.0556689741	 0.081822
H	 0.6363240907	-0.3633880398	 0.6658808821	 0.103739
H	-1.0863610309	-0.6008239456	-2.7424769988	 0.24998
H	-2.4293837908	-1.5536643524	-2.9369155437	 0.250801
H	-5.4573372418	-1.2100315772	 1.1521572987	 0.131819
H	-4.7564597994	-2.8298428804	 1.2032722892	 0.128995
H	-4.4258043025	-1.6833548123	 2.5128796466	 0.131411
H	-1.8632531718	-0.6012806623	 2.1704929957	 0.096118
42.469	111.0264	144.6346	165.354	196.5862	212.2156	269.565	285.6391	290.5794	412.4861	485.9054	583.0657	629.0562	644.3169	686.2984	753.7613	779.8965	804.0455	806.539	957.179	969.8197	1015.3946	1044.4109	1064.6191	1077.2998	1092.4221	1168.9427	1213.5881	1269.1423	1296.7049	1327.4307	1357.6791	1405.571	1418.5885	1444.3723	1470.9878	1482.7935	1494.9855	1496.4616	1507.8714	1618.8167	1650.5397	1692.6087	3006.3159	3019.6291	3032.1043	3038.4011	3064.3631	3101.9117	3109.3221	3123.2889	3238.8906	3524.3377	3626.7423
CCC1=C(N)OC(C)=C1	CCc1c(N)oc(C)c1	
InChI=1S/C7H11NO/c1-3-6-4-5(2)9-7(6)8/h4H,3,8H2,1-2H3	InChI=1S/C7H11NO/c1-3-6-4-5(2)9-7(6)8/h4H,3,8H2,1-2H3
