21
gdb 118507	2.58685	0.92219	0.72317	4.0189	76.05	-0.2516	0.0769	0.3284	1591.4035	0.180451	-461.318478	-461.308181	-461.307237	-461.354666	36.275	
C	-0.304604001	 1.2525458319	 0.1865537824	-0.229573
O	-0.0660301967	-0.1268101725	 0.0361621037	-0.231052
C	 0.6897595103	-0.6735724486	 1.0915736128	-0.072917
C	 0.9197471379	-2.1593256763	 0.8113994008	-0.07652
C	 1.772996854	-2.3797864218	-0.4527204781	-0.047768
O	 1.7367996882	-3.7177498088	-0.9016586856	-0.434077
C	 1.5683216853	-2.807559387	 2.0193687347	 0.081805
C	 0.880620432	-3.7879260146	 2.8693078267	-0.185088
O	 1.8632233216	-4.2126760134	 1.9183908121	-0.252661
H	 0.6336218031	 1.8289978488	 0.2142305241	 0.106058
H	-0.8939808078	 1.5773960828	-0.6739268993	 0.131855
H	-0.8681971403	 1.4710090068	 1.1074674188	 0.10475
H	 1.6581533595	-0.1487117358	 1.184388973	 0.087028
H	 0.1621092469	-0.5425349379	 2.052607466	 0.088116
H	-0.0543332755	-2.6277638619	 0.6283985194	 0.095307
H	 1.376568236	-1.7596859069	-1.2607656013	 0.12118
H	 2.8067789579	-2.0426687148	-0.2542682807	 0.073987
H	 1.901894543	-4.2785917689	-0.1334308094	 0.294666
H	 2.385834446	-2.2391784346	 2.468500014	 0.097587
H	 1.1718005775	-3.9086041885	 3.9111301733	 0.122127
H	-0.1448823778	-4.068341158	 2.6350458725	 0.125189
59.9576	84.8973	91.8319	116.1678	177.4614	222.1756	230.8369	257.246	337.0474	370.2887	393.6326	477.5085	484.7796	603.1978	805.7657	847.8168	884.3401	948.564	959.7041	990.7185	1079.1871	1087.0981	1106.901	1133.4647	1144.1075	1157.5849	1167.0317	1180.6052	1185.9783	1229.3335	1234.6281	1253.2191	1296.5493	1308.2226	1327.3484	1388.501	1418.7603	1448.0901	1457.1723	1480.7795	1486.1326	1502.3314	1516.1305	1526.4658	1527.7818	2933.1718	2940.3223	2963.3107	2971.7883	3015.2167	3049.8831	3087.4256	3091.9338	3096.9473	3118.4924	3180.494	3772.2888
COCC(CO)C1CO1	COC[C@@H](CO)[C@H]1CO1	
InChI=1S/C6H12O3/c1-8-3-5(2-7)6-4-9-6/h5-7H,2-4H2,1H3	InChI=1S/C6H12O3/c1-8-3-5(2-7)6-4-9-6/h5-7H,2-4H2,1H3/t5-,6-/m1/s1
