14
gdb 5116	3.49523	2.13505	1.33659	1.8185	59.15	-0.1819	0.0616	0.2435	854.6354	0.10751	-415.892539	-415.884545	-415.883601	-415.925405	28.251	
C	-0.0048618187	 1.5070211652	 0.0280122783	-0.341511
N	 0.0783633937	 0.0606179375	 0.0080017423	-0.10588
C	 0.0232954583	-0.7625631628	-1.1062887198	 0.323948
O	-0.106621574	-0.1583410278	-2.3155503355	-0.441844
C	 0.1239755363	-2.0452543849	-0.6614635031	-0.234593
N	 0.2401838681	-2.0468092563	 0.7318171089	-0.371392
C	 0.2049167995	-0.7935644401	 1.0676737112	 0.43412
O	 0.2817557193	-0.2820936373	 2.313519778	-0.432442
H	 0.3145465389	 1.8564151707	 1.0099104357	 0.159176
H	 0.6494920091	 1.9289478793	-0.7383765234	 0.148513
H	-1.0278070572	 1.8503835614	-0.1582448358	 0.141749
H	-0.0854031665	-0.8375417433	-2.9964255225	 0.309902
H	 0.1234657368	-2.9603132075	-1.2317624858	 0.098548
H	 0.3867298365	-1.0396570841	 2.9024237814	 0.311708
37.6535	141.272	198.9616	235.8109	261.7783	325.8891	365.3018	397.9906	551.035	608.7859	643.1047	709.0854	735.7939	749.304	772.4785	984.9446	1111.0654	1151.9731	1156.6551	1200.0051	1264.8512	1284.2892	1307.4181	1444.1897	1473.326	1488.6842	1515.7835	1579.2762	1620.8442	1647.7863	3044.6444	3110.7954	3159.3363	3254.7251	3808.5742	3847.9399
CN1C(O)=CN=C1O	Cn1c(O)cnc1O	
InChI=1S/C4H6N2O2/c1-6-3(7)2-5-4(6)8/h2,7H,1H3,(H,5,8)	InChI=1S/C4H6N2O2/c1-6-3(7)2-5-4(6)8/h2,7H,1H3,(H,5,8)
