19
gdb 9519	2.68877	1.83519	1.53145	3.3985	71.73	-0.2407	0.0399	0.2806	951.6201	0.164866	-365.096445	-365.087597	-365.086653	-365.12955	32.378	
C	 0.0720147297	 1.5399376783	 0.1299812802	-0.394173
C	-0.0251650491	 0.0261522797	-0.0967572492	-0.231366
C	-1.4588930992	-0.5238210301	-0.0626285823	 0.172097
C	-2.368974693	 0.0652972575	-1.1388822265	-0.45101
C	-1.5418191027	-2.0831595879	 0.0819158996	-0.215051
N	-2.1319433791	-1.8664869397	 1.404105897	-0.326448
C	-2.090848391	-0.4965522597	 1.3615591122	 0.411983
O	-2.4189474042	 0.35901951	 2.1428679161	-0.375597
H	 1.1190192365	 1.8497474436	 0.2014336448	 0.11026
H	-0.3807073001	 2.1024842007	-0.6920792765	 0.115869
H	-0.436927152	 1.8261037261	 1.0543543345	 0.151454
H	 0.4295571535	-0.2391867009	-1.0609713794	 0.094128
H	 0.5629275383	-0.4900804514	 0.6727856444	 0.099938
H	-1.9384886675	-0.0767658161	-2.1367063207	 0.114708
H	-3.3559777408	-0.4079231892	-1.1242408616	 0.119823
H	-2.5158928271	 1.1368857941	-0.9809041502	 0.139547
H	-2.2084963133	-2.5797987798	-0.6307818967	 0.107527
H	-0.5750324304	-2.5972727428	 0.1010195656	 0.107951
H	-2.4387324386	-2.5058397922	 2.1222392286	 0.248359
92.7348	112.7746	168.5869	207.3692	226.8333	259.3411	298.8037	327.4886	399.3424	472.7303	527.5629	688.2764	740.7658	763.2104	800.5671	867.1254	913.8951	970.931	998.2767	1014.6963	1053.6147	1072.9856	1154.0542	1157.0155	1183.6698	1236.4404	1247.7548	1286.8913	1333.6607	1366.6804	1391.0323	1413.26	1417.0812	1481.4567	1493.6306	1497.2734	1507.1843	1514.4461	1528.1978	1879.2216	3009.1643	3030.4177	3034.5849	3043.523	3045.4992	3080.3183	3096.84	3107.06	3119.5658	3126.1394	3607.7325
CCC1(C)CNC1=O	CC[C@@]1(C)CNC1=O	
InChI=1S/C6H11NO/c1-3-6(2)4-7-5(6)8/h3-4H2,1-2H3,(H,7,8)	InChI=1S/C6H11NO/c1-3-6(2)4-7-5(6)8/h3-4H2,1-2H3,(H,7,8)/t6-/m0/s1
