22
gdb 70746	2.46661	1.52857	1.15457	1.7899	81.22	-0.2335	0.0788	0.3123	1154.2179	0.196341	-404.33121	-404.322831	-404.321887	-404.363618	33.652	
C	 0.1062256851	 1.5156615175	-0.0142153585	-0.439483
C	-0.0086391084	 0.0047376961	 0.0232037215	 0.338902
C	-1.3239128451	-0.5483129469	-0.5226080411	-0.286508
C	-2.4334755057	-0.6175715201	 0.5425422863	-0.194794
C	-2.3017094309	-1.7968309572	 1.5155602648	-0.065273
O	-1.1599337293	-1.786032779	 2.353663485	-0.23761
C	 0.0680921054	-2.0115350661	 1.6810287652	-0.109642
C	 0.6724842852	-0.7380264553	 1.116102386	-0.052796
N	 1.2662488496	-0.6960303112	-0.2396478561	-0.389285
H	 1.0516680598	 1.841751883	 0.4256151482	 0.12599
H	 0.071381578	 1.8791755873	-1.0475944329	 0.116396
H	-0.713266887	 1.9897326742	 0.537531508	 0.115581
H	-1.651256894	 0.0827898166	-1.3571409006	 0.099608
H	-1.1720356452	-1.548970551	-0.9471967257	 0.089094
H	-2.4657117127	 0.3185402702	 1.1122600747	 0.108954
H	-3.4091260241	-0.7185354281	 0.049358121	 0.093857
H	-3.1590928346	-1.8026626569	 2.1966472084	 0.106395
H	-2.3296661953	-2.740326076	 0.9418539171	 0.082874
H	 0.7455793247	-2.4453365086	 2.4241863997	 0.109702
H	-0.0649655051	-2.7615016872	 0.8842686636	 0.079159
H	 1.2313898085	-0.1524286807	 1.8439817048	 0.089978
H	 1.084406991	-1.5796208707	-0.7135254794	 0.218902
139.3896	160.1062	213.9541	246.5522	307.0924	353.2498	376.7927	381.5821	440.0114	459.4708	534.8006	568.3496	695.1406	800.9235	815.2613	882.4257	892.2151	911.5373	950.0569	993.9568	1013.6871	1024.6507	1045.8944	1066.3776	1110.6156	1120.5341	1136.3585	1143.6857	1200.86	1228.0344	1256.1833	1290.1213	1305.3086	1340.0939	1344.2763	1375.0417	1382.144	1394.2821	1415.2875	1420.6699	1455.0774	1475.158	1483.2301	1486.3475	1490.6717	1497.2624	1502.5409	2948.3516	2968.8442	3017.8788	3022.8913	3029.522	3057.7066	3065.4846	3067.7662	3074.2552	3090.2647	3120.2514	3123.6927	3469.62
CC12CCCOCC1N2	C[C@]12CCCOC[C@H]1N2	
InChI=1S/C7H13NO/c1-7-3-2-4-9-5-6(7)8-7/h6,8H,2-5H2,1H3	InChI=1S/C7H13NO/c1-7-3-2-4-9-5-6(7)8-7/h6,8H,2-5H2,1H3/t6-,7+/m1/s1
