23
gdb 106553	1.93779	1.48817	1.139	1.5535	85.9	-0.2459	0.0731	0.319	1250.1209	0.204802	-388.24804	-388.238261	-388.237317	-388.282409	37.367	
C	-0.6817453378	 1.8202161192	-0.3181252445	-0.381324
C	-0.4943349573	 0.3000022432	-0.2489380841	-0.317847
C	-1.7892315679	-0.4571555475	-0.0868042632	 0.299584
C	-3.0743269283	-0.3927063706	-0.9724576665	-0.276566
C	-3.4124920722	-1.4288716628	 0.1352412226	-0.118941
C	-1.977471807	-2.0201072749	-0.0538554628	-0.013419
C	-1.6144595106	-2.8997121638	-1.243151543	-0.447235
C	-2.7865283786	-0.3977621555	 1.1244716884	 0.15808
O	-2.3925693914	-0.7365109733	 2.4246063031	-0.454823
H	 0.2799956607	 2.3307195611	-0.4256656623	 0.11165
H	-1.3078690899	 2.1036034219	-1.1706643126	 0.11726
H	-1.1621105467	 2.2005335716	 0.5891484591	 0.124484
H	 0.0217487698	-0.050785498	-1.1525868666	 0.096773
H	 0.1620645029	 0.0494873647	 0.5953953601	 0.098257
H	-3.6375934841	 0.5447500757	-0.9467234486	 0.090582
H	-2.9946680193	-0.7648584308	-1.9928197455	 0.096379
H	-4.3454727923	-1.9820034787	 0.2557269122	 0.067225
H	-1.5655225826	-2.4977963792	 0.8457543161	 0.032276
H	-1.9779715555	-2.5151159192	-2.1986364243	 0.11974
H	-0.5266872846	-3.0062367532	-1.3228568433	 0.117725
H	-2.0296783086	-3.9054207524	-1.1137437788	 0.117764
H	-3.3405686877	 0.5395598687	 1.2219619594	 0.078469
H	-1.9310170612	-1.5807778161	 2.4104782349	 0.283908
66.7058	141.2302	161.1774	171.3498	217.7122	238.9396	252.524	258.4208	399.6915	418.7992	449.7457	553.0886	622.217	644.4656	739.7592	777.0353	797.5345	815.151	887.5693	920.6072	933.3675	988.5665	1015.9592	1020.6743	1052.6272	1090.5305	1098.5428	1107.0682	1120.2416	1157.3231	1171.3993	1178.2087	1221.4497	1230.8721	1242.2224	1282.4561	1304.8503	1313.6377	1373.614	1406.6643	1411.1788	1433.5195	1459.426	1479.2242	1495.3313	1497.8978	1498.7435	1506.2672	1535.4138	2995.6869	3010.9627	3032.9736	3035.4043	3041.7174	3062.3563	3079.8032	3087.4723	3101.0011	3103.8798	3107.0442	3115.4749	3144.9302	3817.9382
CCC12CC(C1C)C2O	CC[C@@]12C[C@@H]([C@H]1C)[C@H]2O	
InChI=1S/C8H14O/c1-3-8-4-6(5(8)2)7(8)9/h5-7,9H,3-4H2,1-2H3	InChI=1S/C8H14O/c1-3-8-4-6(5(8)2)7(8)9/h5-7,9H,3-4H2,1-2H3/t5-,6+,7-,8-/m1/s1
