16
gdb 66511	3.18608	1.5149	1.1682	4.199	79.85	-0.2012	-0.0295	0.1717	1039.5728	0.124802	-396.819581	-396.81202	-396.811076	-396.851949	28.818	
N	 0.7749946007	 1.7810980883	 0.7528973852	-0.348516
C	 0.4634145439	 0.758525361	-0.0014870177	-0.117294
C	-1.2792715667	-1.7048608605	-0.4246101315	 0.005851
C	-0.799346673	-2.4677400476	-1.4334021797	-0.28944
C	 0.5404976542	-2.2386120383	-0.8463146258	 0.365402
N	 1.7567907502	-2.000318585	-1.0878540712	-0.294323
C	 2.1786402127	-1.0954846749	 0.0108741503	-0.175273
C	 0.8436802917	-0.53743774	 0.664575486	-0.06635
N	-0.0506995271	-1.6622432681	 0.3447027315	-0.135357
H	 1.1936819114	 1.7219632599	 1.688625537	 0.224854
H	 0.6081028802	 2.7248319406	 0.4300906799	 0.273872
H	-2.2277978749	-1.2677230377	-0.1464393774	 0.139343
H	-1.1937546028	-2.978360352	-2.2933667233	 0.127918
H	 2.7913714829	-1.6260712784	 0.7491087637	 0.116028
H	 2.7805442319	-0.2855771397	-0.4093119416	 0.121729
H	 0.9616186848	-0.4558327675	 1.7602425045	 0.051559
73.586	114.0525	189.8762	307.7198	343.3372	381.451	473.1695	507.2283	679.5075	698.4123	752.0058	772.6686	780.6058	822.652	840.6683	878.5103	890.9735	915.0942	949.3995	989.8884	1052.0004	1068.9361	1099.5765	1172.2197	1184.5208	1231.2294	1242.6437	1295.3117	1308.751	1341.0365	1464.3686	1480.6309	1545.1382	1671.7855	1771.4275	2926.4124	3039.3586	3097.4773	3240.2993	3302.8808	3304.5016	3580.5856
NC12C3C1C1=NCC2N31	N[C][C@@H]1C[N][C]2C=CN12	
InChI=1S/C6H7N3/c7-6-2-1-8-5-3(6)4(6)9(2)5/h2-4H,1,7H2	InChI=1S/C6H7N3/c7-3-5-4-8-6-1-2-9(5)6/h1-2,5H,4,7H2/t5-/m1/s1
