16
gdb 128535	3.07648	1.35556	0.95428	1.5874	68.21	-0.1992	0.0492	0.2484	1178.5216	0.124194	-471.198023	-471.188435	-471.187491	-471.233285	33.506	
C	-0.1017891604	 0.5603173808	 0.6242098041	-0.247303
O	 0.3686692912	 0.8321781033	-0.6957374391	-0.273248
C	 0.6981831124	-0.2353273483	-1.4431226331	 0.407553
C	 1.0223933347	-1.556330262	-1.1816124906	 0.023142
O	 1.099098779	-2.1901801677	 0.0385583624	-0.462212
C	 1.3151530685	-2.1077667113	-2.4544447456	 0.286491
N	 1.6180402054	-3.453703194	-2.6911211405	-0.602234
N	 1.1895577115	-1.2181256087	-3.4286820512	-0.315973
N	 0.7978506495	-0.0784909622	-2.7843957849	-0.290691
H	-1.0120391647	-0.049451891	 0.5956698915	 0.124578
H	 0.6555508906	 0.0415821557	 1.217354411	 0.15041
H	-0.3250823227	 1.5322180444	 1.0663332384	 0.13322
H	 0.5671045688	-2.9931647836	-0.0130445007	 0.297913
H	 2.3730790821	-3.781503091	-2.0990166941	 0.246148
H	 1.8641316975	-3.597272724	-3.6637317882	 0.250248
H	 0.6729674564	 0.7749796697	-3.2982788596	 0.271959
26.4236	101.9865	141.74	194.5102	208.9361	238.5721	245.555	321.6199	374.1742	383.9349	443.0333	528.7084	618.672	664.0667	703.3519	727.085	803.0487	837.0464	1020.2591	1079.962	1108.4788	1180.1312	1197.0288	1215.1545	1259.6942	1315.3101	1322.7117	1458.9185	1474.9086	1485.9356	1501.3744	1555.4282	1573.5819	1635.8544	1683.9317	3031.4671	3108.8561	3147.079	3515.2528	3609.1652	3697.2802	3774.5529
COC1=C(O)C(N)=NN1	COc1c(O)c(N)n[nH]1	
InChI=1S/C4H7N3O2/c1-9-4-2(8)3(5)6-7-4/h8H,1H3,(H3,5,6,7)	InChI=1S/C4H7N3O2/c1-9-4-2(8)3(5)6-7-4/h8H,1H3,(H3,5,6,7)
