20
gdb 80732	3.5869	1.03303	1.03216	4.3526	82.95	-0.28	0.0359	0.3159	1259.6999	0.172856	-366.033371	-366.024742	-366.023797	-366.067045	32.37	
C	 0.2784640389	 1.8141510234	 0.126738176	-0.426678
C	 0.0309796459	 0.3229348141	 0.027000697	-0.001699
C	 1.0177126022	-0.7274435096	-0.4354391411	-0.063179
C	 2.5144279675	-0.4548685387	-0.4214909347	-0.236349
C	 2.856815062	 0.0112159845	 1.0301577893	-0.161289
C	 1.6767555858	-0.4734298643	 1.9325628508	-0.236322
C	 0.5090157403	-0.738640765	 0.9941416659	-0.06317
C	 4.1553804612	-0.4748601419	 1.4884284856	 0.267033
N	 5.1810763219	-0.8672302128	 1.8503328238	-0.32779
H	 1.2766768209	 2.0755909692	 0.4818642026	 0.118939
H	 0.1491737253	 2.2897212321	-0.8517263917	 0.124527
H	-0.4396951009	 2.2762338981	 0.8130415078	 0.124532
H	-0.97474028	 0.1131054575	-0.3324669132	 0.089392
H	 0.6689134536	-1.4596971	-1.1557445043	 0.088407
H	 3.0483001366	-1.3821244429	-0.6494973152	 0.127181
H	 2.8377522647	 0.2899425238	-1.1553687807	 0.115706
H	 2.9082260308	 1.1024040224	 1.0570856039	 0.129466
H	 1.9512153222	-1.4064552164	 2.4335132984	 0.127176
H	 1.4601766967	 0.2593926128	 2.7160921618	 0.11571
H	-0.2128081655	-1.4790771462	 1.3218984379	 0.088408
80.2546	84.9463	139.7679	185.4869	225.9901	268.5647	412.1388	454.6409	535.5733	545.3213	628.4609	663.2278	745.3739	771.7216	818.8933	881.7962	898.5608	962.1041	990.7097	997.2808	1013.6641	1048.6529	1076.4568	1093.8536	1114.5596	1124.5929	1143.5644	1181.3683	1232.0284	1250.6258	1293.7655	1309.4608	1318.8421	1343.9813	1362.7155	1381.0099	1425.2177	1448.5631	1486.4977	1495.4201	1501.0075	1506.788	2354.073	3037.5121	3052.0287	3054.2943	3072.1339	3089.3601	3092.434	3099.675	3115.1598	3137.0431	3158.4191	3169.3229
CC1C2CC(CC12)C#N	C[C@H]1[C@H]2C[C@@H](C[C@@H]12)C#N	
InChI=1S/C8H11N/c1-5-7-2-6(4-9)3-8(5)7/h5-8H,2-3H2,1H3	InChI=1S/C8H11N/c1-5-7-2-6(4-9)3-8(5)7/h5-8H,2-3H2,1H3/t5-,6-,7+,8-
