16
gdb 112468	2.59368	1.5263	1.06804	3.4749	68.16	-0.2338	-0.0047	0.2291	1112.6963	0.124843	-475.066978	-475.058715	-475.057771	-475.100439	30.019	
C	-0.3784612575	 1.2089377434	 0.2575651989	-0.246116
O	-0.1930632596	-0.1986149909	 0.3508797808	-0.228769
C	 0.9528728986	-0.5796060698	 1.0428797219	 0.169372
O	 0.843920073	-0.2111198703	 2.4409897049	-0.26005
C	 0.2681362907	-1.0207393294	 3.3620763421	 0.471327
O	-0.121707971	-0.5989641267	 4.4185157903	-0.379191
N	 0.2269051562	-2.3584695858	 3.0185159001	-0.382391
C	 0.7600008573	-2.8640940102	 1.8425879412	 0.033956
C	 1.1597754282	-2.048150135	 0.8692306386	-0.166894
H	 0.4906613856	 1.6910648108	-0.2131680395	 0.110249
H	-1.2582837985	 1.367576255	-0.3683760162	 0.133098
H	-0.5438387951	 1.658132831	 1.2424450224	 0.141007
H	 1.8144718885	 0.013575832	 0.705085292	 0.089171
H	-0.1127792872	-2.9696028061	 3.7421379223	 0.271252
H	 0.8319113211	-3.9438249274	 1.7915411378	 0.129875
H	 1.5790996196	-2.4154856707	-0.0559098176	 0.114105
71.3318	110.8158	122.4185	187.5202	252.7018	358.5425	464.6228	485.2068	494.6456	545.6373	594.8202	655.0863	727.4312	770.6697	826.3923	930.5424	946.3057	988.8313	1009.6245	1040.4119	1098.7704	1148.7203	1177.8498	1190.3495	1217.5644	1263.9985	1383.8794	1423.1232	1427.3699	1476.3565	1479.82	1485.1441	1511.0419	1735.357	1856.1758	2999.662	3006.9665	3079.9491	3135.7906	3206.7912	3243.7422	3667.8336
COC1OC(=O)NC=C1	CO[C@H]1OC(=O)NC=C1	
InChI=1S/C5H7NO3/c1-8-4-2-3-6-5(7)9-4/h2-4H,1H3,(H,6,7)	InChI=1S/C5H7NO3/c1-8-4-2-3-6-5(7)9-4/h2-4H,1H3,(H,6,7)/t4-/m0/s1
