20
gdb 60794	2.33604	1.18099	1.08872	3.8603	82.57	-0.2432	0.0262	0.2694	1255.2298	0.167773	-403.135217	-403.124779	-403.123835	-403.170491	38.472	
C	 0.7673064532	 1.1727260064	 0.1900924737	-0.355559
N	-0.0819967858	-0.0039430718	 0.0287940301	-0.05487
C	-0.901546076	-0.336930305	 1.0715664542	 0.151505
O	-0.9417126831	 0.2526099287	 2.1339259997	-0.349498
C	-0.0330024817	-0.7185757533	-1.2680521045	 0.041512
C	 1.4146904044	-1.1959678664	-1.5378403503	-0.392836
C	-0.966029812	-1.9475172638	-1.3122862093	-0.430616
C	-0.4474682925	 0.2047477994	-2.3424447411	 0.384686
C	-0.7825956922	 0.9404186227	-3.2317585843	-0.50673
H	 1.8078643134	 0.8985271087	 0.3959806995	 0.12571
H	 0.7317707111	 1.7855790731	-0.7143269478	 0.135713
H	 0.3854113143	 1.7388374481	 1.0387158262	 0.167208
H	-1.5386740865	-1.2085846871	 0.8681659228	 0.084256
H	 1.7312048181	-1.8752874352	-0.7407340629	 0.124905
H	 1.4603296623	-1.7228732271	-2.4940604018	 0.129643
H	 2.1108749018	-0.3570727657	-1.5829279563	 0.133137
H	-2.0145622624	-1.6728946005	-1.1833566247	 0.142164
H	-0.8623139638	-2.4125680757	-2.2949572126	 0.134056
H	-0.6870128378	-2.6839778392	-0.5538064522	 0.130725
H	-1.0853036446	 1.5955371436	-4.0114247585	 0.204889
39.6364	121.7934	147.1329	177.0237	196.4585	254.7383	283.1634	326.5274	356.918	361.2444	386.322	407.3717	422.5901	492.0601	564.4589	623.6394	636.1268	663.6563	778.8885	854.7666	933.6444	950.4822	1021.3137	1028.6293	1053.5755	1156.0454	1161.9501	1172.9762	1231.3347	1254.2719	1382.4821	1397.2365	1418.0966	1440.023	1455.1098	1481.4715	1487.5369	1498.8795	1501.7103	1512.959	1523.4158	1775.2867	2230.9119	3034.0918	3038.6904	3049.0653	3055.2459	3102.9491	3124.4516	3131.4575	3138.6853	3143.2452	3163.3691	3498.8298
CN(C=O)C(C)(C)C#C	CN(C=O)C(C)(C)C#C	
InChI=1S/C7H11NO/c1-5-7(2,3)8(4)6-9/h1,6H,2-4H3	InChI=1S/C7H11NO/c1-5-7(2,3)8(4)6-9/h1,6H,2-4H3
