18
gdb 102230	2.34958	1.0737	0.9284	2.6089	76.18	-0.2564	0.0168	0.2732	1357.981	0.144205	-439.050981	-439.040628	-439.039684	-439.08728	36.493	
C	-0.0556844253	 1.4159501051	-0.1821420255	-0.46212
C	 0.0228835083	-0.0716537131	 0.0442585673	 0.406617
N	 0.1916321237	-0.7015854869	 1.131751637	-0.514978
O	-0.1149125863	-0.720027793	-1.1390308003	-0.265233
C	-0.0189190152	-2.1707208236	-1.1245654353	-0.116727
C	-1.4420287709	-2.7350369196	-0.9978483809	-0.071715
O	-2.2834124918	-2.3121640104	-2.0469594692	-0.416676
C	 0.6544556545	-2.5779231013	-2.3506349956	 0.358165
C	 1.2140234022	-2.9553006728	-3.34375924	-0.439952
H	 0.0490946178	 1.9601981576	 0.7574592841	 0.130454
H	 0.7316381619	 1.7313691261	-0.8731324627	 0.154563
H	-1.0131810988	 1.6781860826	-0.6424210187	 0.146402
H	 0.2930198657	-0.0583371293	 1.9123682491	 0.225738
H	 0.5609180308	-2.465210062	-0.2448666212	 0.146617
H	-1.3995082057	-3.8274415252	-1.038407857	 0.120272
H	-1.8274943437	-2.4401090249	-0.011117765	 0.11004
H	-2.1930480791	-1.3544112779	-2.1066167431	 0.287322
H	 1.7059522819	-3.2854474313	-4.2251880927	 0.201211
44.3977	71.935	106.1196	114.2344	146.2052	181.1864	268.0089	320.571	371.9276	384.179	418.1594	543.1457	572.8073	598.3645	616.5416	675.4778	708.6328	842.6257	858.4332	882.5298	953.4989	995.4066	1048.4456	1068.1429	1083.767	1093.1903	1107.6319	1226.0171	1308.1142	1323.453	1378.4049	1394.4414	1414.8228	1428.238	1471.1917	1480.4956	1501.2608	1729.2246	2245.5868	3006.6348	3050.5272	3076.6771	3092.8564	3114.5551	3146.6524	3504.0616	3526.8839	3803.1292
CC(=N)OC(CO)C#C	C[C]([NH])O[C@@H](CO)C#C	
InChI=1S/C6H9NO2/c1-3-6(4-8)9-5(2)7/h1,6-8H,4H2,2H3	InChI=1S/C6H9NO2/c1-3-6(4-8)9-5(2)7/h1,6-8H,4H2,2H3/t6-/m1/s1
