18
gdb 83299	2.53923	1.84338	1.4551	4.2972	71.67	-0.2299	0.022	0.2518	962.2363	0.150126	-439.118058	-439.110557	-439.109613	-439.149982	28.947	
C	-0.037712139	 1.3825576168	-0.1568940044	-0.351693
N	-0.0024324862	-0.027467945	 0.1559583607	-0.060601
C	-1.1580273813	-0.9269464512	 0.0596818858	-0.045465
C	-1.1365518283	-1.561427203	-1.3471289142	-0.077408
O	 0.0544237031	-2.3671096285	-1.3142316614	-0.279271
C	 0.6044772539	-2.2298013082	 0.0201066264	-0.024168
C	-0.6472951581	-2.1245880904	 0.8929090289	-0.240545
C	 1.1513498925	-0.7871477954	 0.0853266434	 0.425744
O	 2.2889274167	-0.3809205627	 0.016867243	-0.400303
H	 0.9883488501	 1.752194229	-0.1071983964	 0.167002
H	-0.4305361308	 1.5729451453	-1.1651027636	 0.122722
H	-0.6543008915	 1.9295954731	 0.5645008306	 0.125313
H	-2.0900995686	-0.4498042962	 0.3608258168	 0.08669
H	-2.0129195019	-2.1939669916	-1.535820266	 0.106553
H	-1.058113395	-0.8139745797	-2.1443328839	 0.110345
H	 1.3342923595	-3.0168974387	 0.1880429918	 0.10107
H	-0.4495722054	-1.8574051617	 1.9318368795	 0.119654
H	-1.2834047197	-3.009851302	 0.831101523	 0.114359
124.1625	151.743	170.2872	272.0092	296.1372	436.8203	441.3873	485.1514	603.1131	689.8024	728.4933	811.5238	838.6603	878.7445	889.574	938.3111	960.8048	971.3216	977.2429	1050.2078	1061.9734	1106.5768	1146.9744	1159.0619	1183.8872	1212.1896	1259.5835	1274.138	1281.3435	1293.4828	1300.7012	1364.6068	1411.7722	1451.2649	1483.3971	1492.2295	1514.5153	1522.7226	1832.2261	3008.2881	3022.4119	3067.9123	3069.6105	3080.1614	3126.8012	3139.0027	3144.3918	3170.7662
CN1C2COC(C2)C1=O	CN1[C@H]2CO[C@H](C2)C1=O	
InChI=1S/C6H9NO2/c1-7-4-2-5(6(7)8)9-3-4/h4-5H,2-3H2,1H3	InChI=1S/C6H9NO2/c1-7-4-2-5(6(7)8)9-3-4/h4-5H,2-3H2,1H3/t4-,5-/m1/s1
