18
gdb 40421	3.62726	1.27761	1.13347	2.3889	76.82	-0.241	0.0048	0.2458	1122.4275	0.1487	-401.906235	-401.898715	-401.897771	-401.938426	29.569	
C	 0.3404336157	 1.5753426501	-0.0730625246	-0.246952
N	 1.2234253788	 0.4270335303	-0.3228161093	-0.31422
C	-0.18375353	 0.1893421837	 0.0456551373	-0.129781
C	-0.4273348361	-0.4569845251	 1.3634462577	 0.452758
O	-0.9538421004	-1.8132326368	 1.3084513532	-0.311257
C	-1.7562785946	-0.7945779949	 1.9108608775	-0.037218
C	-1.6728318322	-0.7438761871	 3.4328143949	-0.295439
C	-0.2107024449	-0.4256041055	 3.6798576554	-0.079426
C	 0.4674992139	-0.2429021104	 2.5447257972	-0.15076
H	 0.5754167826	 2.1411439305	 0.8242971217	 0.123011
H	-0.0005758924	 2.1760469174	-0.9121068928	 0.115013
H	 1.3541313174	 0.2864487437	-1.3205063514	 0.236831
H	-0.8618588391	-0.1532878482	-0.7323692572	 0.089426
H	-2.6884814578	-0.5705810497	 1.3974900734	 0.089853
H	-2.3376138857	 0.0277340264	 3.8422441017	 0.111233
H	-1.9724326362	-1.6965948336	 3.8862157819	 0.125831
H	 0.2159823927	-0.399595147	 4.6763560115	 0.10089
H	 1.5200486582	-0.0159450236	 2.4418995718	 0.120206
78.4467	153.4851	178.3176	301.274	361.4116	385.7239	486.8687	528.9629	625.3954	719.5599	751.0503	798.0947	849.1379	865.391	885.227	908.4981	923.8692	932.6965	968.5104	969.874	988.5708	1006.2528	1055.3801	1088.5826	1120.4579	1127.4344	1155.9897	1185.3499	1248.7728	1269.4223	1283.1904	1283.9331	1305.0597	1361.5062	1397.6474	1458.1256	1475.3918	1515.0912	1664.3953	3026.5554	3062.2382	3108.5491	3136.9349	3139.5242	3193.3701	3194.1686	3234.4015	3513.5448
C1NC1C12OC1CC=C2	C1N[C@H]1[C@]12O[C@H]1CC=C2	
InChI=1S/C7H9NO/c1-2-6-7(3-1,9-6)5-4-8-5/h1,3,5-6,8H,2,4H2	InChI=1S/C7H9NO/c1-2-6-7(3-1,9-6)5-4-8-5/h1,3,5-6,8H,2,4H2/t5-,6+,7+/m1/s1
