20
gdb 89756	2.43716	1.5468	1.14205	1.3088	79.41	-0.2406	0.0724	0.313	1130.4375	0.17087	-403.091156	-403.082599	-403.081655	-403.12422	33.625	
O	 0.5699514964	 0.7341666612	-0.7586883542	-0.434856
C	 0.1059281447	-0.3035780737	 0.0659047555	 0.076661
C	 0.0387975281	-0.0687251288	 1.6120756663	-0.380522
C	-1.3600982338	-0.7021397273	 1.5999192751	 0.298112
C	-1.8599853317	-1.7723849639	 2.4901100365	-0.306936
N	-2.4942606044	-0.4344479855	 2.4752778698	-0.365776
C	-1.4012519601	-0.6210029395	 0.0881369011	 0.270056
C	-2.4442202488	 0.1195961696	-0.7042728816	-0.323902
C	-2.2491868015	-1.3666367308	-0.8911418988	-0.341876
H	 0.0067323323	 1.5011771425	-0.6054259732	 0.278308
H	 0.715010487	-1.1760247496	-0.1876925772	 0.094741
H	 0.8089066622	-0.5414476392	 2.2264716178	 0.107163
H	 0.0079883502	 1.0028855022	 1.8408411902	 0.098334
H	-2.4792824958	-2.5728304882	 2.0935206808	 0.117674
H	-1.2503873985	-2.0531051267	 3.3460349434	 0.110254
H	-2.1975449675	 0.1036795261	 3.2863075126	 0.229472
H	-3.322175696	 0.4575807947	-0.1646872892	 0.13087
H	-2.1053554385	 0.7740356443	-1.5017440757	 0.11014
H	-1.7831041195	-1.7078870372	-1.8102615531	 0.116345
H	-3.0118409447	-2.0324164701	-0.4986348261	 0.115739
63.4788	185.6229	193.62	212.8607	254.5431	324.7795	341.7583	418.1431	484.8149	517.7704	560.2396	618.3426	759.779	796.7455	840.3559	867.3738	871.9697	927.711	933.0964	963.9035	973.5397	997.1408	1003.3661	1042.8915	1050.9283	1078.3314	1108.9149	1122.5263	1150.4293	1194.8159	1201.7188	1212.8531	1253.139	1262.9845	1274.1394	1313.3136	1362.9646	1424.4776	1440.4308	1453.1345	1476.7339	1496.5274	1517.7334	3038.4133	3069.9764	3099.7369	3104.9809	3120.4683	3124.1548	3184.5791	3201.7361	3220.002	3490.318	3799.0168
OC1CC2(CN2)C11CC1	O[C@H]1C[C@]2(CN2)C21CC2	
InChI=1S/C7H11NO/c9-5-3-7(4-8-7)6(5)1-2-6/h5,8-9H,1-4H2	InChI=1S/C7H11NO/c9-5-3-7(4-8-7)6(5)1-2-6/h5,8-9H,1-4H2/t5-,7-/m0/s1
