21
gdb 108934	3.94327	0.93431	0.84753	2.2319	87.08	-0.2303	0.0161	0.2464	1449.4767	0.182315	-387.094764	-387.085722	-387.084778	-387.129209	33.946	
C	-0.3879207069	 1.4589005932	-0.0256103637	-0.374402
C	 0.1712014167	 0.0276599552	 0.0674922113	-0.285171
C	 0.8277439097	-0.4453359181	-1.1954244527	 0.330467
C	 2.113235262	-0.7722182167	-1.3582327929	-0.270413
C	 2.4101732978	-1.1906907032	-2.7500102714	 0.45072
C	 3.6990591047	-0.9552490277	-3.4212914977	-0.25108
O	 3.3445725335	-2.2625625572	-2.9679025119	-0.28408
C	 1.0587562572	-1.2575696751	-3.469640674	-0.319261
C	 0.056202737	-0.587751208	-2.4961743918	-0.31643
H	 0.4071442302	 2.1748871738	-0.2566075002	 0.120878
H	-1.1506451179	 1.5419273647	-0.8060456374	 0.120645
H	-0.8479816731	 1.7561440494	 0.9215016978	 0.115953
H	 0.8880267014	-0.0324013201	 0.8937115353	 0.104196
H	-0.6536099583	-0.6546228888	 0.3186381797	 0.105251
H	 2.8780114062	-0.7445845796	-0.590041473	 0.093598
H	 3.7227685552	-0.8225368722	-4.5034139696	 0.107545
H	 4.5171420507	-0.4765300162	-2.8822186218	 0.106598
H	 1.0805456199	-0.7790463787	-4.451711332	 0.104383
H	 0.8087304777	-2.3111230933	-3.6256486723	 0.124166
H	-0.8610039046	-1.174564408	-2.3621846677	 0.105016
H	-0.265398149	 0.3945041466	-2.865065214	 0.11142
52.663	73.4375	122.3653	204.3866	238.2661	290.6886	333.2301	401.0382	460.7609	512.5127	527.232	602.6682	765.1895	785.8612	825.843	848.8963	879.8798	883.4167	918.1457	957.2961	967.2431	993.7208	1040.638	1065.9073	1098.7941	1127.8184	1147.9076	1169.7994	1181.2436	1225.8738	1248.7545	1271.337	1283.2038	1314.3068	1348.9071	1351.6921	1407.5781	1421.6122	1478.9831	1479.9133	1497.5914	1500.1812	1508.0065	1527.1547	1710.5624	3006.2506	3020.9526	3037.7095	3045.8609	3062.734	3063.1824	3066.0658	3105.6786	3109.988	3110.3524	3150.457	3195.4932
CCC1=CC2(CO2)CC1	CCC1=C[C@]2(CO2)CC1	
InChI=1S/C8H12O/c1-2-7-3-4-8(5-7)6-9-8/h5H,2-4,6H2,1H3	InChI=1S/C8H12O/c1-2-7-3-4-8(5-7)6-9-8/h5H,2-4,6H2,1H3/t8-/m0/s1
