22
gdb 119591	4.14703	0.91997	0.83951	1.5384	87.78	-0.2257	0.0196	0.2453	1480.932	0.195041	-367.203958	-367.195051	-367.194106	-367.237791	34.374	
C	 0.1835226399	 1.6195124526	 0.0911350755	-0.382225
C	 0.2382306959	 0.0899605751	 0.0725855985	-0.159014
C	 0.4541796296	-0.4823160283	-1.3374089092	-0.303541
C	 0.5135537443	-1.9905041831	-1.3774319032	 0.334422
N	 1.7378418217	-2.699162066	-0.8865370522	-0.372154
C	 1.3562789625	-2.7862589638	-2.3152391971	-0.110565
C	 0.6122752201	-4.0668807444	-2.6767775117	-0.26386
C	-0.6529415171	-3.9650361982	-1.8474644744	-0.074922
C	-0.7124156982	-2.8266175082	-1.1546863237	-0.10863
H	 1.1138605964	 2.0546730543	-0.2912491578	 0.112535
H	-0.6355182942	 1.9942875932	-0.5329633195	 0.114327
H	 0.0305788189	 2.00094776	 1.1053688495	 0.113271
H	 1.0420604012	-0.262025625	 0.7308561211	 0.103235
H	-0.691699423	-0.314514788	 0.4912352498	 0.101827
H	-0.3525207509	-0.1349352289	-1.9972897212	 0.100483
H	 1.3862900299	-0.0759234518	-1.7539351503	 0.087917
H	 2.4904119277	-2.0144907261	-0.8081548811	 0.217966
H	 1.9948561093	-2.3053867713	-3.0495099872	 0.082085
H	 0.3927454146	-4.1178227091	-3.7515832189	 0.102862
H	 1.1964741853	-4.9605919091	-2.426063239	 0.118706
H	-1.3920723665	-4.75784583	-1.8160609568	 0.093101
H	-1.5161994672	-2.533555194	-0.4894692208	 0.092176
78.7916	89.2178	121.373	242.7828	274.2252	279.7487	316.9123	364.8617	458.353	500.7711	685.8994	710.4428	739.974	749.3028	785.8987	849.9673	886.9894	889.9916	914.4747	916.5409	952.339	966.061	991.6198	1034.7133	1039.8752	1076.6559	1104.8016	1124.3665	1130.6673	1164.8554	1192.0466	1244.6954	1271.3878	1292.2206	1323.3562	1331.8989	1334.8633	1388.0445	1391.9694	1413.065	1433.4021	1464.6529	1477.2122	1492.4083	1499.6501	1509.9646	1670.2791	3004.0251	3019.458	3026.9032	3029.6266	3035.5335	3057.257	3062.2739	3095.3876	3102.8694	3157.8765	3185.2075	3210.489	3452.5355
CCCC12NC1CC=C2	CCC[C@]12N[C@H]1CC=C2	
InChI=1S/C8H13N/c1-2-5-8-6-3-4-7(8)9-8/h3,6-7,9H,2,4-5H2,1H3	InChI=1S/C8H13N/c1-2-5-8-6-3-4-7(8)9-8/h3,6-7,9H,2,4-5H2,1H3/t7-,8+/m0/s1
