19
gdb 126839	2.96015	1.27899	0.97522	4.0787	79.37	-0.2047	0.0097	0.2144	1251.2271	0.159743	-415.400111	-415.39049	-415.389546	-415.4349	34.301	
C	-0.0416936339	 1.5716002979	-0.0083533513	-0.380618
C	 0.0021802348	 0.0426741838	-0.0486803765	-0.146542
N	 0.770727331	-0.4693865063	-1.1725783901	 0.006998
N	 0.1536097169	-0.6957984934	-2.3434162901	-0.170114
N	 1.0600657303	-1.1060681965	-3.1934419156	-0.259593
C	 2.2675558043	-1.1263014648	-2.5721291988	 0.215479
N	 3.4493600738	-1.4687657388	-3.2448735735	-0.59879
C	 2.1114774896	-0.7080395518	-1.2641693407	 0.27304
C	 3.0979025372	-0.5349037965	-0.1610701911	-0.51976
H	 0.9587847271	 1.9985217717	 0.1087071409	 0.128142
H	-0.4747619624	 1.9597947764	-0.9335767968	 0.149391
H	-0.656479336	 1.906374995	 0.8325731503	 0.123517
H	 0.4332946706	-0.3632264788	 0.871271954	 0.120845
H	-1.0049118458	-0.3659834086	-0.1569081034	 0.144331
H	 3.2322941171	-1.700989311	-4.2075586593	 0.251169
H	 3.9277653568	-2.2562437242	-2.8230920247	 0.243172
H	 2.9852651673	 0.4282640052	 0.3481385693	 0.136602
H	 3.0232999644	-1.3201876709	 0.6019527947	 0.134569
H	 4.108125167	-0.5705703785	-0.5774624274	 0.148163
60.2373	98.2404	121.9697	174.5365	200.8774	233.0775	246.592	298.0805	317.1741	422.646	499.2524	596.9302	681.4286	704.8239	722.7391	777.4607	797.045	837.1922	973.2432	977.864	1063.9317	1078.484	1099.1746	1119.6943	1166.1772	1220.966	1275.7353	1310.8445	1356.586	1387.3225	1397.8303	1408.571	1423.6248	1476.6186	1483.1892	1486.2722	1490.4046	1505.0322	1525.324	1643.6927	1647.5284	3020.4901	3045.3822	3064.0179	3074.1363	3108.5509	3116.0745	3122.5067	3135.9366	3519.071	3604.5201
CCN1N=NC(N)=C1C	CCn1nnc(N)c1C	
InChI=1S/C5H10N4/c1-3-9-4(2)5(6)7-8-9/h3,6H2,1-2H3	InChI=1S/C5H10N4/c1-3-9-4(2)5(6)7-8-9/h3,6H2,1-2H3
