21
gdb 75597	2.57349	1.38941	1.02586	1.3492	88.43	-0.2318	-0.0131	0.2188	1234.9055	0.183744	-387.094712	-387.086074	-387.08513	-387.127604	33.657	
C	-0.037953097	 1.5551638457	-0.2047640239	-0.478596
C	-0.0024924059	 0.0560932692	-0.025825493	 0.293441
C	-1.1188460585	-0.6872520812	-0.0986715692	-0.152229
C	-1.1851569227	-2.1924610773	-0.0714865055	-0.128087
O	-1.359016605	-2.7506749952	 1.2339947879	-0.23802
C	-0.1709406258	-3.0925295467	 1.9048159203	-0.066807
C	 0.7389916115	-1.8942364824	 2.2697612137	-0.265229
C	 1.64333246	-1.3943790975	 1.1744973339	-0.055996
C	 1.3249630502	-0.5294753778	 0.2019076484	-0.142272
H	 0.6169333307	 1.8617768001	-1.0304195106	 0.124646
H	-1.0480101903	 1.9121487693	-0.4211903895	 0.122229
H	 0.3277716615	 2.0720491067	 0.6904673819	 0.129165
H	-2.0689094937	-0.1738338152	-0.234194699	 0.081247
H	-2.0599951471	-2.5215484122	-0.6423986747	 0.100263
H	-0.2904556861	-2.6217455967	-0.5421630309	 0.096696
H	-0.5013166961	-3.575326744	 2.8300706715	 0.10469
H	 0.4056562328	-3.8324877822	 1.3252146214	 0.084621
H	 0.0800013232	-1.0922664068	 2.619979976	 0.119387
H	 1.3594815601	-2.2019269632	 3.1192359654	 0.097448
H	 2.6703262082	-1.7539626241	 1.2085953697	 0.088205
H	 2.1204545302	-0.1799084983	-0.456328424	 0.085196
124.375	153.0806	182.3528	193.6289	267.4974	336.7069	346.8197	374.0943	403.4789	497.5753	548.7934	605.5558	667.7313	774.482	791.8892	822.5269	873.3602	909.432	978.2941	984.715	1002.4288	1026.5066	1060.1293	1070.0125	1080.7098	1094.8324	1117.9283	1201.6964	1232.6887	1270.7546	1296.9109	1329.5768	1348.7162	1362.1335	1396.6879	1408.9445	1412.6527	1445.6366	1472.2387	1478.4072	1485.8061	1491.4547	1493.7411	1683.6065	1707.2416	2966.9216	3010.2179	3020.4791	3032.6658	3066.9447	3070.1207	3074.9493	3081.4962	3115.0234	3117.8456	3143.1972	3146.6733
CC1=CCOCCC=C1	CC1=CCOCCC=C1	
InChI=1S/C8H12O/c1-8-4-2-3-6-9-7-5-8/h2,4-5H,3,6-7H2,1H3/b4-2-,8-5-	InChI=1S/C8H12O/c1-8-4-2-3-6-9-7-5-8/h2,4-5H,3,6-7H2,1H3/b4-2-,8-5-
