20
gdb 32837	5.4778	0.74338	0.69104	1.527	83.96	-0.187	0.0323	0.2192	1687.9158	0.171272	-403.182476	-403.173008	-403.172063	-403.217353	34.963	
C	-0.0071717164	 1.5784110119	-0.1695987125	-0.381908
C	 0.0230931467	 0.0506557401	-0.090732963	-0.156473
C	-1.370989748	-0.5586466986	 0.1549444466	-0.301103
C	-1.371115841	-2.047042851	 0.213762453	 0.394404
C	-1.6319677844	-2.9396999132	 1.2085649751	-0.35376
C	-1.4454356115	-4.251205601	 0.6498597862	 0.232943
N	-1.6897537398	-5.4623187506	 1.3154191797	-0.605265
C	-1.0812398384	-4.0511465642	-0.6477696148	-0.104615
O	-1.0389361184	-2.707382157	-0.9255026552	-0.19178
H	 0.9928745575	 1.9870610716	-0.3442399922	 0.112766
H	-0.6537753627	 1.9206446541	-0.985419002	 0.115257
H	-0.3885843724	 2.0173839078	 0.7593641203	 0.11263
H	 0.4303643346	-0.3650126049	-1.0190466457	 0.112886
H	 0.6973051982	-0.27042589	 0.7124860922	 0.099003
H	-1.7809750916	-0.1805997719	 1.0980526676	 0.107546
H	-2.0513680863	-0.2221920079	-0.6395077919	 0.112442
H	-1.9321928423	-2.7031140352	 2.2181902275	 0.096504
H	-1.3916791732	-5.4385236945	 2.2823538081	 0.242979
H	-1.2580615846	-6.2549359415	 0.8578361267	 0.241176
H	-0.8442209161	-4.7119661339	-1.4641544658	 0.114369
49.0117	86.3106	101.5195	209.7663	243.6632	259.5638	286.6785	313.17	376.1282	434.7689	614.4737	627.2169	660.6702	694.962	745.7198	756.4706	766.9357	799.1439	869.2954	894.2453	964.3341	1003.0033	1042.8171	1086.7849	1107.5272	1110.5304	1160.0381	1179.4815	1243.107	1278.328	1307.6715	1319.37	1346.0566	1382.6046	1412.4598	1450.9581	1473.0249	1493.3025	1499.2681	1510.0909	1587.0188	1651.9741	1680.4314	3012.575	3028.3659	3035.8204	3060.2009	3078.4007	3099.194	3102.8387	3246.4556	3279.0441	3534.189	3622.6553
CCCC1=CC(N)=CO1	CCCc1cc(N)co1	
InChI=1S/C7H11NO/c1-2-3-7-4-6(8)5-9-7/h4-5H,2-3,8H2,1H3	InChI=1S/C7H11NO/c1-2-3-7-4-6(8)5-9-7/h4-5H,2-3,8H2,1H3
