17
gdb 42945	2.46187	2.09048	1.46409	3.4475	71.03	-0.2425	-0.0309	0.2116	914.3959	0.138405	-421.815636	-421.809055	-421.808111	-421.846468	26.971	
O	-0.0390879963	-0.0098044063	-0.0856402249	-0.325589
C	-0.0123605948	 1.1946246646	 0.0051514547	 0.418518
C	-1.2824914372	 2.0256420257	-0.0329434478	-0.076348
O	-1.5555168993	 2.8580918829	 1.1101442821	-0.240445
C	-1.0787218953	 3.4871708766	-0.0763473764	 0.049125
C	 0.3741144464	 3.9572510057	-0.0732524986	-0.059956
C	 1.1625841873	 3.205076587	 1.0324911873	-0.238116
C	 1.2668378183	 2.0149606249	 0.0306847607	-0.124379
C	 1.1616010247	 3.095575336	-1.1051549034	-0.238347
H	-2.1535464596	 1.5374948876	-0.4637764305	 0.113632
H	-1.811421749	 4.1072490048	-0.5894475185	 0.104037
H	 0.4511114828	 5.0446680658	-0.1267130139	 0.073553
H	 2.145304837	 3.6570517023	 1.1849439908	 0.106317
H	 0.6703546324	 3.0394892741	 1.9894342802	 0.130134
H	 2.1325278918	 1.3532734283	 0.0588172825	 0.086391
H	 0.6632786901	 2.8211592033	-2.0390892821	 0.108025
H	 2.1457635407	 3.5150337268	-1.3271847719	 0.113448
122.191	255.0958	317.2402	399.4035	434.2537	443.3719	540.6876	575.2021	695.8776	781.8246	795.1387	819.7119	875.7789	895.4047	896.8718	919.6927	954.1604	992.1465	999.2592	1060.6209	1079.3536	1091.927	1107.2427	1139.5118	1148.9154	1232.2857	1251.1917	1253.3075	1266.094	1275.7656	1320.1721	1341.9979	1350.6852	1424.3283	1478.5318	1507.7004	1817.7988	3057.231	3076.2296	3091.7846	3114.1735	3119.3659	3131.3061	3149.1848	3152.6554
O=C1C2OC2C2CC1C2	O=C1[C@H]2O[C@H]2[C@H]2C[C@@H]1C2	
InChI=1S/C7H8O2/c8-5-3-1-4(2-3)6-7(5)9-6/h3-4,6-7H,1-2H2	InChI=1S/C7H8O2/c8-5-3-1-4(2-3)6-7(5)9-6/h3-4,6-7H,1-2H2/t3-,4+,6-,7+/m0/s1
