17
gdb 73893	2.26915	1.65935	1.03098	5.2084	79.46	-0.2096	-0.0311	0.1785	1132.0262	0.137108	-418.010828	-418.002708	-418.001763	-418.043358	31.135	
N	 0.086257732	 1.339045016	-0.0148274186	-0.581224
C	-0.0079752882	-0.0163425944	 0.0094696187	 0.27176
C	-1.128250606	-0.8039161811	 0.024173275	 0.191987
C	-2.4985329009	-0.3630154138	 0.031519596	 0.041379
O	-3.4719149694	-1.096016509	 0.0468776757	-0.305494
C	-0.7252930495	-2.2398402406	 0.0017025573	-0.145547
N	 0.0428586074	-2.6107725371	-1.2229169877	-0.340481
C	 0.7579085941	-2.2799795185	 0.0269051484	-0.051248
C	 1.2651675128	-0.8441136817	 0.0641543801	-0.307325
H	 0.973846753	 1.7572617956	-0.2354163124	 0.264509
H	-0.7222199437	 1.8924504902	-0.2455230912	 0.268664
H	-2.6416827863	 0.7460787464	 0.0395589215	 0.022439
H	-1.3536598623	-2.9862149049	 0.471814375	 0.104178
H	 0.0286596794	-3.624725462	-1.3240554374	 0.227833
H	 1.3140442555	-3.053569941	 0.5440905615	 0.090916
H	 1.9267653054	-0.6151023941	-0.7799856972	 0.125872
H	 1.8187345466	-0.62801098	 0.9872531853	 0.12178
115.4273	161.3414	177.7563	231.6037	313.3308	331.0487	379.6623	429.9721	502.5712	533.14	600.9318	634.3891	703.7304	796.938	814.3911	864.4102	877.5231	950.1493	968.3609	997.9765	1022.0518	1075.3941	1122.8668	1147.9742	1190.5681	1200.5295	1242.0192	1258.6216	1308.2639	1351.2933	1406.9648	1428.5322	1456.5562	1469.7888	1627.1317	1676.4544	1754.7182	2805.1105	3024.1646	3064.1658	3172.9957	3195.3646	3475.1246	3605.1919	3717.0541
NC1=C(C=O)C2NC2C1	NC1=C(C=O)[C@H]2N[C@H]2C1	
InChI=1S/C6H8N2O/c7-4-1-5-6(8-5)3(4)2-9/h2,5-6,8H,1,7H2	InChI=1S/C6H8N2O/c7-4-1-5-6(8-5)3(4)2-9/h2,5-6,8H,1,7H2/t5-,6+/m0/s1
