21
gdb 106522	3.20091	1.35483	1.19236	1.1567	77.82	-0.2387	0.085	0.3237	1123.8755	0.183756	-424.204148	-424.195974	-424.19503	-424.23661	32.414	
C	-0.1873568809	 1.2997255071	-0.1297307777	-0.260807
O	 0.2512940807	-0.0426986638	-0.095682597	-0.295625
C	 0.7131962347	-0.4885570205	 1.1496606934	 0.434751
C	-0.268848388	-0.5945807033	 2.3578734088	-0.288843
C	 0.5895090073	-1.8238509048	 2.7637657608	 0.116703
C	 0.9020480034	-2.0216441248	 1.2544117794	-0.314172
O	 1.7228272926	-1.4040643128	 3.5122801157	-0.273584
C	 2.6600244473	-0.6589140347	 2.7402111122	-0.074142
C	 1.9945593008	 0.2124656944	 1.6502236054	-0.289423
H	 0.6337290485	 2.0142591548	 0.0230186591	 0.108927
H	-0.6140120888	 1.468622986	-1.1212466059	 0.127212
H	-0.9622525236	 1.494987917	 0.6259325831	 0.109687
H	-0.3173519507	 0.2274408122	 3.075644246	 0.093881
H	-1.2709700885	-0.8861265314	 2.0317597273	 0.100582
H	 0.1232996365	-2.6349738354	 3.3236214473	 0.080853
H	 0.0811184976	-2.5384477194	 0.7530520682	 0.109159
H	 1.8537036581	-2.4672998211	 0.9583264436	 0.101051
H	 3.2285738672	-0.0497283426	 3.4484713291	 0.107468
H	 3.3701712252	-1.3490444	 2.263444403	 0.098685
H	 2.6929161405	 0.3455418944	 0.8164794758	 0.105306
H	 1.7479218302	 1.2053405886	 2.0416436626	 0.102331
94.9235	175.2416	201.3064	229.3249	294.4343	356.3416	406.4391	442.7486	474.5256	499.2309	592.0571	652.9138	809.1175	834.0138	836.0306	894.1306	933.0857	944.9196	957.6013	979.0694	991.7242	1047.4346	1058.9318	1099.6266	1134.6467	1169.7882	1180.4868	1187.7098	1210.0111	1225.6903	1232.3616	1247.4677	1262.3258	1284.5699	1287.2169	1350.9117	1367.8534	1413.8944	1464.62	1478.4925	1487.0663	1493.1181	1501.7233	1509.5003	1529.8945	2987.8713	2999.2826	3032.9312	3040.5033	3057.117	3074.1421	3075.4898	3088.4671	3108.9156	3115.152	3123.289	3131.8739
COC12CC(C1)OCC2	CO[C@@]12C[C@@H](C1)OCC2	
InChI=1S/C7H12O2/c1-8-7-2-3-9-6(4-7)5-7/h6H,2-5H2,1H3	InChI=1S/C7H12O2/c1-8-7-2-3-9-6(4-7)5-7/h6H,2-5H2,1H3/t6-,7-
