20
gdb 56170	3.1011	0.99455	0.88301	5.3587	75.16	-0.2447	0.0236	0.2683	1375.4842	0.170521	-440.303429	-440.294104	-440.293159	-440.338235	34.915	
C	 0.3201051601	 1.5263156746	 0.1812803717	-0.45088
C	-0.079465379	 0.0799347979	-0.0480130237	 0.338633
C	 1.0095523937	-0.9472777197	-0.226646239	-0.305994
C	 0.1786354623	-0.9367775542	 1.0363290157	-0.292747
N	-1.2781285792	-0.139193838	-0.8422973075	-0.361539
H	-1.1724688387	 0.2938806189	-1.7525529734	 0.232387
H	-2.055292565	-1.8762314811	-0.7093042284	 0.299575
C	-2.5503587225	 0.2499401428	-0.2206229805	-0.327094
C	-3.3628490796	-0.975604149	 0.2345759036	 0.429992
O	-2.8584250511	-2.138253537	-0.2042040217	-0.362343
O	-4.3591876306	-0.8921161905	 0.8990320676	-0.334463
H	 1.2280657827	 1.5922362945	 0.7875037575	 0.124112
H	 0.5188425894	 2.0318454357	-0.7716896722	 0.114303
H	-0.4643389324	 2.0873707886	 0.7009492095	 0.12441
H	 0.8323453185	-1.7450031101	-0.9385970145	 0.117341
H	 2.0389713984	-0.6112003772	-0.169618321	 0.116713
H	 0.6406592167	-0.589786736	 1.9536780727	 0.119971
H	-0.5452005128	-1.7314751039	 1.1714276785	 0.134029
H	-2.4245440195	 0.9040126852	 0.6474852219	 0.143726
H	-3.1756269314	 0.7939407186	-0.9358479369	 0.139868
47.7377	74.1375	114.0125	229.9135	242.154	267.8334	330.3061	359.618	422.4734	445.494	540.3683	569.0451	635.6917	710.2316	769.8285	788.2654	866.0271	876.5417	898.3831	914.3916	939.6346	951.2681	1044.2786	1048.7329	1067.138	1090.2361	1102.5034	1135.6519	1193.0834	1211.6622	1260.8509	1296.1726	1330.5487	1353.5348	1421.5542	1427.4507	1457.1504	1457.8982	1473.9236	1493.9659	1495.9917	1515.2912	1878.7548	3024.598	3055.2148	3085.3804	3101.6233	3109.3278	3138.2714	3146.0915	3222.3809	3236.8621	3446.9598	3533.8022
CC1(CC1)[NH2+]CC([O-])=O	CC1(CC1)NCC(=O)O	
InChI=1S/C6H11NO2/c1-6(2-3-6)7-4-5(8)9/h7H,2-4H2,1H3,(H,8,9)	InChI=1S/C6H11NO2/c1-6(2-3-6)7-4-5(8)9/h7H,2-4H2,1H3,(H,8,9)
