17
gdb 43184	2.30086	2.0909	1.2741	2.1203	72.6	-0.2412	-0.0262	0.2149	982.1509	0.136534	-421.790949	-421.783756	-421.782812	-421.822679	28.154	
O	-0.0761179085	-0.0147469752	 0.1714153878	-0.312331
C	-0.0744959547	 1.1803312586	 0.0889685966	 0.419028
C	-1.1537538074	 2.2616885949	 0.1435008151	-0.242887
C	-1.6050081015	 2.7847341355	-1.2766583909	-0.238004
C	-0.7200843545	 4.0617954273	-1.1179698061	-0.322015
C	-0.0252848499	 3.3579132508	 0.0306565208	 0.494219
O	 0.6100360804	 3.9592567479	 1.142903505	-0.321959
C	 1.5640951656	 2.8713600542	 1.2171062843	-0.109579
C	 1.0382793489	 2.2265333319	-0.1011063803	-0.288775
H	-1.9342959379	 2.2247991529	 0.9033406114	 0.096447
H	-1.3083467511	 2.1334961223	-2.101133361	 0.122521
H	-2.6773155992	 2.9656108512	-1.3479286546	 0.125411
H	-0.1086123464	 4.3871911825	-1.9634145524	 0.107446
H	-1.3128709265	 4.9096399745	-0.7612809452	 0.123043
H	 2.5911634088	 3.2413115293	 1.1511731235	 0.123912
H	 1.4457348102	 2.2750276448	 2.1282136222	 0.122709
H	 1.7603893738	 2.1142735066	-0.9097844762	 0.100814
91.7705	187.8797	211.6823	289.6806	341.5143	436.3206	479.4422	605.7986	693.2318	708.1055	732.8421	816.82	864.5366	896.7773	900.0305	924.6416	960.5252	988.4769	998.1106	1041.0878	1054.0165	1078.2609	1120.9909	1150.1195	1163.0954	1194.575	1210.3605	1233.4007	1249.8445	1256.2917	1264.0057	1317.1417	1346.261	1477.8027	1494.6935	1517.3037	1878.1054	3039.2794	3056.4802	3082.2007	3092.1837	3106.6977	3116.4686	3120.064	3142.6245
O=C1C2CCC22OCC12	O=C1[C@@H]2CC[C@]32OC[C@@H]13	
InChI=1S/C7H8O2/c8-6-4-1-2-7(4)5(6)3-9-7/h4-5H,1-3H2	InChI=1S/C7H8O2/c8-6-4-1-2-7(4)5(6)3-9-7/h4-5H,1-3H2/t4-,5-,7+/m0/s1
