22
gdb 118195	2.27957	0.99684	0.73594	4.2599	80.16	-0.2335	0.0399	0.2734	1585.9383	0.191946	-441.526276	-441.515231	-441.514287	-441.563756	39.278	
C	 0.3478355107	 1.7198264581	-0.4888621245	-0.389052
C	 0.0440279427	 0.2388762669	-0.3339031104	-0.045631
O	 0.8384288655	-0.483180677	-1.2623615168	-0.263227
C	 0.7365053984	-1.9084854145	-1.1747516811	 0.124465
C	-0.5726509229	-2.4146590809	-1.7857592512	-0.400939
C	 1.9513931873	-2.4998141432	-1.903786823	-0.29624
C	 3.2981621706	-2.308013983	-1.2015322661	 0.356167
N	 3.6261220559	-1.0084439309	-0.9518795859	-0.508263
O	 4.0240762932	-3.2441377064	-0.9242187081	-0.361676
H	 1.3978633606	 1.9312887499	-0.2643555556	 0.121665
H	 0.1427257501	 2.048204522	-1.5115912892	 0.13198
H	-0.2723222446	 2.3069959641	 0.1948588633	 0.121742
H	 0.2645953685	-0.0998240166	 0.6913266466	 0.094306
H	-1.024858091	 0.0549358147	-0.5142822876	 0.09983
H	 0.7758892163	-2.1993538862	-0.1121568434	 0.079864
H	-0.6326602268	-3.5039036281	-1.7030979442	 0.12527
H	-1.4458813539	-1.9965722252	-1.2776127814	 0.118604
H	-0.6276194119	-2.1428877314	-2.8446474836	 0.125802
H	 1.8195399089	-3.5767815092	-2.019591027	 0.125319
H	 1.9960848229	-2.0530262294	-2.9045666862	 0.123795
H	 2.9199502378	-0.2955611274	-1.0523970788	 0.264864
H	 4.4583993417	-0.8287798563	-0.4143407159	 0.251354
34.0393	48.9757	86.333	110.7497	175.2228	209.7211	234.6881	266.9961	311.4723	358.7697	383.	409.3309	466.6766	499.4759	564.1029	627.9938	725.7378	819.1165	822.1906	869.6354	907.5511	928.0731	969.1627	1041.8582	1103.6769	1111.3596	1124.6477	1150.7153	1159.4053	1186.9311	1239.2821	1300.293	1304.7425	1364.3903	1366.5596	1382.7038	1404.5465	1407.4585	1435.9307	1458.7104	1485.0206	1490.7892	1497.0599	1498.6439	1529.15	1611.5122	1800.3253	2969.7484	2977.2278	3014.5883	3041.3983	3043.4586	3046.0914	3114.4592	3115.1952	3117.2067	3122.8682	3128.4257	3566.5579	3712.7261
CCOC(C)CC(N)=O	CCO[C@@H](C)CC(=O)N	
InChI=1S/C6H13NO2/c1-3-9-5(2)4-6(7)8/h5H,3-4H2,1-2H3,(H2,7,8)	InChI=1S/C6H13NO2/c1-3-9-5(2)4-6(7)8/h5H,3-4H2,1-2H3,(H2,7,8)/t5-/m0/s1
