23
gdb 118970	2.46109	1.0438	0.98223	1.9569	82.54	-0.2402	0.0794	0.3196	1403.5295	0.203257	-425.402956	-425.392367	-425.391423	-425.438676	38.167	
C	-0.1489881193	 1.3886642033	 0.0324435472	-0.226389
O	-0.1277703361	-0.0173788947	-0.0180992479	-0.239674
C	 0.7489018933	-0.5217523552	-1.0056803785	-0.110497
C	 0.659134454	-2.0444080331	-0.9879693141	 0.247343
C	 1.0714243258	-2.6133788903	 0.3641474937	-0.471136
C	-0.6769690802	-2.5359557589	-1.5956087604	-0.102436
O	-0.0362054567	-2.8643095441	-2.8464491421	-0.299153
C	 1.2739044433	-2.7263500277	-2.2492801265	 0.116548
C	 2.268938074	-2.0288126177	-3.1559949081	-0.416022
H	 0.841725531	 1.8040860162	 0.2763857624	 0.104023
H	-0.476858118	 1.8271856194	-0.9234434302	 0.105253
H	-0.8551036822	 1.6782060225	 0.8145324252	 0.127617
H	 0.4625819364	-0.131020076	-1.9953143824	 0.093424
H	 1.7828356743	-0.189585082	-0.8061760558	 0.082964
H	 0.4668596204	-2.1808440415	 1.1652267784	 0.137431
H	 0.9526306443	-3.7011302426	 0.3855250327	 0.111837
H	 2.1223389347	-2.3856183524	 0.5795309039	 0.110521
H	-1.0919963106	-3.4261888838	-1.1029076624	 0.090093
H	-1.46848108	-1.7893853895	-1.7164034616	 0.107203
H	 1.6700362119	-3.7192686253	-1.9809188817	 0.063671
H	 1.9298641267	-1.0329270304	-3.4513382988	 0.121798
H	 3.2432713501	-1.9401081572	-2.6633303237	 0.116519
H	 2.4068253328	-2.6197997987	-4.0671929996	 0.129063
70.278	100.2715	106.7093	142.9102	193.646	215.2119	232.07	257.2843	270.5148	335.06	360.625	410.99	478.701	517.535	680.4322	774.5305	869.8741	885.2841	952.6685	969.6416	981.9333	1012.1451	1017.7307	1052.2277	1099.7367	1128.1163	1155.949	1164.7	1179.4482	1188.734	1222.8465	1235.4345	1264.1485	1300.2595	1308.4027	1366.7661	1393.8449	1402.9237	1411.1085	1424.4026	1479.7422	1481.7399	1484.7325	1489.9494	1497.5759	1502.8654	1503.2168	1524.6266	1531.5168	2947.795	2963.1831	2970.9941	2988.7402	3003.9335	3013.7504	3030.1704	3038.5906	3072.6193	3093.7478	3104.0655	3113.5262	3122.9723	3124.2695
COCC1(C)COC1C	COC[C@@]1(C)CO[C@H]1C	
InChI=1S/C7H14O2/c1-6-7(2,4-8-3)5-9-6/h6H,4-5H2,1-3H3	InChI=1S/C7H14O2/c1-6-7(2,4-8-3)5-9-6/h6H,4-5H2,1-3H3/t6-,7-/m0/s1
