15
gdb 29749	3.43304	1.26702	0.93091	4.653	72.92	-0.2248	-0.0459	0.1789	1170.2699	0.113184	-454.001147	-453.992805	-453.991861	-454.034354	29.678	
C	-0.0201771398	 1.465350694	 0.0416212494	-0.355797
N	 0.0221645562	 0.0134315893	 0.022572252	-0.131549
C	 0.0537017953	-0.7715964741	-1.0734282291	 0.457145
O	 0.0475929683	-0.2263243263	-2.2950303033	-0.41915
N	 0.089175415	-2.0646187626	-0.8103347404	-0.365109
C	 0.0801757941	-2.1289119179	 0.5520454314	-0.128541
C	 0.0390787785	-0.8696852536	 1.1175522119	 0.166658
C	 0.0161554449	-0.4612881062	 2.503994999	 0.063655
O	 0.0314334744	-1.2300548432	 3.4452654139	-0.285748
H	 0.8543562469	 1.872481424	 0.556784442	 0.152913
H	-0.0222659723	 1.8221406677	-0.9880514983	 0.16894
H	-0.9250349615	 1.8207817093	 0.5424801979	 0.152908
H	 0.0739387849	-0.961178576	-2.9217958027	 0.322787
H	 0.1032755559	-3.0691302649	 1.0807717552	 0.146998
H	-0.0167410609	 0.6395419707	 2.6709371711	 0.053889
104.1236	120.5872	151.4713	179.1148	256.6346	293.8305	340.7556	405.678	432.2282	540.4557	633.7955	663.0718	737.5985	775.4994	820.5075	894.2005	986.1488	1021.7374	1134.5343	1153.4158	1180.5179	1225.4217	1293.3716	1332.4624	1344.9312	1454.1236	1457.4164	1491.2524	1505.2011	1523.6249	1595.3262	1614.3507	1770.5989	2863.0507	3049.6152	3111.6692	3161.5818	3264.3518	3797.6361
CN1C(O)=NC=C1C=O	Cn1c(O)ncc1C=O	
InChI=1S/C5H6N2O2/c1-7-4(3-8)2-6-5(7)9/h2-3H,1H3,(H,6,9)	InChI=1S/C5H6N2O2/c1-7-4(3-8)2-6-5(7)9/h2-3H,1H3,(H,6,9)
