19
gdb 59419	3.11565	0.93232	0.88578	2.9539	73.83	-0.256	-0.0357	0.2203	1399.9118	0.154641	-460.155014	-460.144581	-460.143637	-460.191138	36.772	
C	 0.3663979642	 1.3865634987	 0.2411812319	-0.411965
C	-0.2355675001	 0.0429272258	-0.1675989644	 0.092042
O	-1.5770464171	 0.1633564188	-0.622381545	-0.422681
C	 0.608982826	-0.6237010973	-1.2416938003	-0.000478
O	 1.8650688271	-1.171188421	-0.8714159978	-0.285252
C	 0.839392109	-2.0865272113	-1.3266354604	 0.268228
C	 0.2904068319	-3.0946774308	-0.3520039699	-0.471944
C	 1.1371243554	-2.5927471506	-2.7089839373	 0.130044
O	 0.7863520952	-3.6647738674	-3.1289948975	-0.251261
H	 1.3786498413	 1.2515502981	 0.6329462969	 0.141461
H	 0.4270369093	 2.0649184276	-0.6196093255	 0.109866
H	-0.2521606003	 1.8586698504	 1.0089553078	 0.130503
H	-0.2850823489	-0.6080196078	 0.7089271317	 0.100087
H	-1.6105495507	 0.8755794122	-1.2707058285	 0.283053
H	 0.6322368008	-0.0589878632	-2.1807583008	 0.083682
H	 0.2134601817	-2.678283491	 0.6524013762	 0.131582
H	-0.6976336553	-3.4302050846	-0.678004355	 0.149291
H	 0.9424376931	-3.9717173321	-0.3162131349	 0.140548
H	 1.7314186674	-1.8773936845	-3.3206971874	 0.083192
43.8008	80.1636	85.4033	156.6106	191.04	254.2384	257.6431	267.5629	291.3085	375.6623	395.545	418.979	482.7579	509.1213	599.599	759.0347	811.5204	884.174	909.8669	955.3945	1004.4362	1046.3615	1057.0138	1092.1709	1113.4522	1141.762	1169.6213	1260.0499	1283.7789	1332.3207	1342.7759	1400.4818	1405.2141	1409.4274	1423.0051	1460.4822	1481.8448	1490.9171	1493.8054	1502.6887	1829.3347	2887.5716	3025.4743	3043.166	3058.9461	3082.4976	3104.8984	3124.2647	3128.0752	3153.5405	3800.6664
CC(O)C1OC1(C)C=O	C[C@@H](O)[C@H]1O[C@]1(C)C=O	
InChI=1S/C6H10O3/c1-4(8)5-6(2,3-7)9-5/h3-5,8H,1-2H3	InChI=1S/C6H10O3/c1-4(8)5-6(2,3-7)9-5/h3-5,8H,1-2H3/t4-,5-,6-/m1/s1
