20
gdb 122852	6.90194	0.52019	0.48966	2.4393	74.26	-0.256	0.0613	0.3173	2201.6022	0.168874	-477.418911	-477.408097	-477.407153	-477.456195	36.645	
C	-0.0910750856	 1.229050408	-0.1392713389	-0.220416
O	 0.0653846312	-0.1733077074	 0.0760607725	-0.234996
C	 0.7156158784	-0.5188855575	 1.1926356595	 0.502003
N	 1.1707935055	 0.3309414243	 2.0182539481	-0.611959
O	 0.7574266183	-1.8682003349	 1.211125655	-0.233466
C	 1.4085349167	-2.4854241414	 2.3181091241	-0.085344
C	 1.3279037227	-3.9906178537	 2.1170705573	-0.190572
C	 1.9965504064	-4.760030404	 3.2499892241	-0.07379
O	 1.863166364	-6.141171616	 2.9615142847	-0.416861
H	 0.882092086	 1.7223542549	-0.2081803712	 0.137795
H	-0.635050169	 1.3200446507	-1.080226783	 0.128243
H	-0.6555812444	 1.6867866234	 0.6773909612	 0.137831
H	 1.635669349	-0.1012683517	 2.8092560292	 0.222812
H	 2.4539531336	-2.1495892319	 2.3663957899	 0.111521
H	 0.9135447833	-2.1854443202	 3.2524679542	 0.111512
H	 0.2784304315	-4.2937445367	 2.0464994032	 0.125545
H	 1.8055269451	-4.2584977815	 1.1692453088	 0.125525
H	 3.0570423036	-4.4677671208	 3.3270843328	 0.08812
H	 1.5190306024	-4.5037468523	 4.2103590056	 0.088128
H	 2.2824424515	-6.6394683812	 3.668953243	 0.288366
45.3796	71.262	90.9872	117.898	145.4088	151.5106	180.4531	239.486	267.713	289.303	351.3977	471.3615	554.7323	678.0262	751.0378	757.0247	789.2048	899.3071	936.1793	998.3789	1035.8297	1065.4775	1098.3829	1118.0809	1166.0772	1177.1573	1184.2866	1222.6672	1231.1093	1245.6247	1307.8772	1309.7977	1319.1113	1360.5896	1434.7985	1469.1535	1477.1259	1481.8642	1499.9005	1501.597	1524.044	1535.291	1728.9495	2956.7708	2981.3961	2996.3894	3034.7291	3047.4743	3057.6718	3105.9181	3120.8811	3150.978	3561.8456	3832.0291
COC(=N)OCCCO	CO[C]([NH])OCCCO	
InChI=1S/C5H11NO3/c1-8-5(6)9-4-2-3-7/h6-7H,2-4H2,1H3	InChI=1S/C5H11NO3/c1-8-5(6)9-4-2-3-7/h6-7H,2-4H2,1H3
