14
gdb 62366	2.43994	1.82742	1.19439	1.2633	68.62	-0.2512	-0.0199	0.2313	986.7977	0.099202	-436.580573	-436.572937	-436.571993	-436.612512	29.756	
O	 0.1322586771	 1.3934245491	-0.0578648606	-0.482072
C	 0.094968287	 0.0039246769	-0.0531388465	 0.330986
C	 1.0310288883	-0.5345058317	-1.019371773	 0.287239
C	 1.7970263332	-1.0122322313	-1.8109722311	-0.418218
C	 0.0248573111	-0.6922648648	 1.3657824053	-0.229807
N	-1.3795770469	-0.0877565676	 1.4464481588	-0.368478
C	-1.3387064752	-0.6602241186	 0.0269476806	-0.229807
C	-0.6622743484	-1.8868902071	 0.672841545	 0.452219
O	-0.7826730836	-3.0667908477	 0.7672274943	-0.317846
H	-0.5167961142	 1.6662289606	 0.6097116951	 0.298782
H	 2.4753254279	-1.4332526041	-2.5119944364	 0.205086
H	 0.736092836	-0.6256744067	 2.1861317656	 0.113636
H	-1.9903434118	-0.6359955665	 2.0553759112	 0.244644
H	-2.1699071905	-0.5573926606	-0.6671663481	 0.113636
113.6878	151.3553	207.4615	296.2414	343.9524	471.7316	496.4091	512.2688	542.0852	554.9437	630.5616	643.5446	687.8597	733.8939	769.7455	789.5881	793.3492	871.8882	1006.3917	1042.6579	1073.6529	1113.6814	1120.2354	1131.4794	1165.5349	1206.7126	1250.1157	1267.2285	1421.0674	1919.5503	2250.6033	3153.6441	3157.3364	3443.7329	3501.058	3709.2015
OC1(C#C)C2NC1C2=O	O[C@@]1(C#C)[C@H]2N[C@@H]1C2=O	
InChI=1S/C6H5NO2/c1-2-6(9)4-3(8)5(6)7-4/h1,4-5,7,9H	InChI=1S/C6H5NO2/c1-2-6(9)4-3(8)5(6)7-4/h1,4-5,7,9H/t4-,5+,6-
