19
gdb 72613	2.14536	1.91816	1.59431	0.5315	74.49	-0.2384	0.0642	0.3026	970.2672	0.158392	-422.982455	-422.974269	-422.973324	-423.014542	32.519	
C	-0.0407440263	 1.5542814048	-0.1467154244	-0.470446
C	-0.0465264673	 0.0610062256	 0.0406703869	 0.364176
O	 1.0006055216	-0.5942392122	-0.7228665897	-0.331967
C	 1.4898408648	-1.3224123015	 0.4170787888	-0.146868
C	 0.381227086	-0.769797062	 1.3320193291	 0.287084
O	 0.7125531523	-0.2872694167	 2.5953061658	-0.474049
C	-0.9147554024	-1.5444156993	 1.2476595624	-0.079795
C	-2.082515677	-0.6000130097	 1.2944558255	-0.311649
C	-1.3351495801	-0.7477896386	-0.0010540485	-0.090109
H	 0.9185498695	 1.9853964068	 0.1577410357	 0.112259
H	-0.1949847744	 1.7991412378	-1.2037003343	 0.131124
H	-0.8368109681	 2.0285238391	 0.43397859	 0.124344
H	 1.5104499622	-2.4071931834	 0.257158712	 0.104597
H	 2.4991530631	-0.9886783057	 0.7044727936	 0.084817
H	 1.5490414239	 0.1871297867	 2.5357764549	 0.281556
H	-1.0181010247	-2.6060395801	 1.4398722764	 0.087166
H	-3.0576803753	-1.0747572398	 1.3205227461	 0.115649
H	-2.0197121541	 0.3145939528	 1.8770766663	 0.119617
H	-1.7929854035	-1.1282288049	-0.9058159966	 0.092493
161.4397	174.6189	184.6716	247.98	275.2053	331.6844	366.5208	396.1066	501.9747	515.2995	612.7118	668.2768	696.3919	793.7716	832.0742	870.501	918.2885	939.5569	958.1204	979.6641	1010.0573	1015.6064	1066.8346	1089.4729	1092.9257	1109.8357	1142.6706	1152.7667	1160.3122	1184.7334	1238.9473	1267.4674	1302.9573	1334.6951	1366.5018	1401.5973	1411.6519	1480.294	1485.0623	1493.0552	1518.6128	2978.9353	3032.3185	3048.2155	3096.4723	3114.6814	3123.4027	3176.5295	3191.6062	3210.3279	3802.7316
CC12OCC1(O)C1CC21	C[C@@]12OC[C@]1(O)[C@H]1C[C@@H]21	
InChI=1S/C7H10O2/c1-6-4-2-5(4)7(6,8)3-9-6/h4-5,8H,2-3H2,1H3	InChI=1S/C7H10O2/c1-6-4-2-5(4)7(6,8)3-9-6/h4-5,8H,2-3H2,1H3/t4-,5+,6+,7+/m1/s1
