25
gdb 112619	3.40654	0.80777	0.76857	1.4788	89.22	-0.2538	0.0681	0.3218	1653.1821	0.227445	-389.488612	-389.477861	-389.476917	-389.524516	40.264	
C	 0.1472600869	 1.4285833916	-0.2023702176	-0.378413
C	 0.0328385066	-0.0760201232	 0.0626011976	-0.19439
C	-1.4062317386	-0.5762296408	 0.0846527847	 0.069696
C	-2.2081899744	-0.5962376486	-1.250049828	-0.289613
C	-2.7583114824	-2.0098975366	-0.8794860478	 0.338089
C	-4.1714623535	-1.9552628098	-0.2956818567	-0.463537
C	-2.6589735514	-3.0427896864	-2.0006948784	-0.125568
O	-2.8877534771	-4.377103319	-1.5688135402	-0.423865
C	-1.6563513223	-2.1038124555	 0.2218441341	-0.286928
H	 1.1922124389	 1.7537108965	-0.2182808081	 0.110776
H	-0.2985185024	 1.6969880603	-1.1665100573	 0.117518
H	-0.3697558685	 2.006435272	 0.572005223	 0.112083
H	 0.5917226596	-0.6291253587	-0.7047705158	 0.088769
H	 0.5120072472	-0.3186880751	 1.0207057174	 0.093564
H	-1.9654585464	-0.0272221371	 0.8514437021	 0.064157
H	-2.9470994521	 0.1936842378	-1.4115700963	 0.091261
H	-1.5453246795	-0.6296776793	-2.1227794434	 0.090286
H	-4.9095378853	-1.7004612463	-1.0662948459	 0.109241
H	-4.455319281	-2.9166881216	 0.1486343683	 0.10704
H	-4.2477257338	-1.2033082217	 0.4961894013	 0.118614
H	-3.34169991	-2.7656096176	-2.8222536716	 0.080184
H	-1.6429640243	-3.0401095871	-2.4106779683	 0.099439
H	-3.8191402708	-4.4612222324	-1.3447797116	 0.283649
H	-0.7971530112	-2.6943293049	-0.1122868172	 0.096683
H	-1.9660361645	-2.4759994864	 1.2020756556	 0.091263
53.5514	78.3818	110.3929	171.6544	224.0792	233.0787	244.1769	291.5824	308.2237	323.8104	369.9359	410.6966	434.3831	473.3722	642.0912	735.642	783.2854	839.5052	875.9037	892.0177	934.8205	948.065	960.3985	968.5585	989.3112	1020.278	1056.0754	1078.9465	1096.8	1131.2175	1147.3327	1180.7181	1217.4386	1237.7141	1244.0484	1277.3514	1298.7374	1305.593	1325.7481	1344.8851	1376.3457	1393.3168	1406.363	1410.0952	1419.2107	1473.9146	1484.1159	1488.7239	1497.3217	1498.4066	1499.1306	1506.5629	1508.5982	2958.4521	3008.3273	3015.8758	3025.6758	3029.1056	3033.6913	3044.7302	3047.6894	3063.224	3078.5925	3090.0019	3093.5791	3094.4261	3100.4109	3101.0382	3830.0831
CCC1CC(C)(CO)C1	CC[C@H]1C[C@@](C)(CO)C1	
InChI=1S/C8H16O/c1-3-7-4-8(2,5-7)6-9/h7,9H,3-6H2,1-2H3	InChI=1S/C8H16O/c1-3-7-4-8(2,5-7)6-9/h7,9H,3-6H2,1-2H3/t7-,8+
