18
gdb 57722	3.71598	0.88556	0.8722	3.4875	76.94	-0.2573	0.0244	0.2817	1392.9232	0.143679	-439.042412	-439.032089	-439.031144	-439.077855	37.144	
C	-0.1953163297	 1.5908559628	-0.0737982623	-0.425888
C	-0.2452800047	 0.0554228601	-0.0416174648	 0.128995
O	 0.0271793214	-0.436320424	 1.2722057543	-0.443803
C	-1.6603422561	-0.4679979096	-0.3727483146	-0.090192
O	-2.6503416712	 0.1222175134	 0.4509619214	-0.188548
C	-2.9170834546	-0.4812001774	 1.6327500928	 0.133923
N	-3.7016458282	 0.0744711432	 2.4485819234	-0.448458
C	 0.6969053715	-0.5193955138	-1.0144156969	 0.33686
C	 1.4667247637	-0.9923294509	-1.8073327581	-0.47917
H	 0.803626403	 1.9399914941	 0.2055076456	 0.115719
H	-0.4126919654	 1.9662406126	-1.0775351282	 0.130373
H	-0.9300423123	 1.9929583641	 0.6258676478	 0.156094
H	 0.8753469679	-0.0785869537	 1.5556076918	 0.288104
H	-1.9136353231	-0.2062685698	-1.4020182771	 0.129679
H	-1.6618678268	-1.5596926086	-0.2741140204	 0.123839
H	-2.4086171987	-1.4440469265	 1.7552613086	 0.100622
H	-3.8203022103	-0.5174625068	 3.2681330184	 0.227882
H	 2.1506363935	-1.4104190093	-2.5046286718	 0.20397
60.8778	74.9303	139.6397	153.3151	190.189	242.6616	247.4044	279.4168	313.6569	391.7725	406.5646	438.4495	550.5898	567.2478	641.8465	658.3734	671.716	753.8752	820.0328	900.6465	955.0803	965.9868	989.1177	1037.3375	1109.897	1148.824	1166.5767	1193.7773	1261.7843	1346.4642	1352.8359	1394.366	1409.3597	1424.1622	1481.9301	1492.0537	1493.3399	1744.8305	2230.4179	3041.8037	3046.3791	3061.438	3115.686	3121.8265	3148.1086	3499.0744	3517.6054	3814.6184
CC(O)(COC=N)C#C	C[C@@](O)(CO[CH][NH])C#C	
InChI=1S/C6H9NO2/c1-3-6(2,8)4-9-5-7/h1,5,7-8H,4H2,2H3	InChI=1S/C6H9NO2/c1-3-6(2,8)4-9-5-7/h1,5,7-8H,4H2,2H3/t6-/m0/s1
