19
gdb 85808	2.75305	1.2302	1.14097	2.9273	77.79	-0.2394	0.0498	0.2892	1166.6399	0.156402	-422.979351	-422.969599	-422.968655	-423.013219	37.113	
C	 0.417891501	 1.2791187494	-0.0929618889	-0.453642
C	-0.019350685	-0.1921801744	-0.0567122714	 0.101849
C	 0.8489458605	-1.1217990411	-0.9810295909	-0.298257
C	 1.6982330087	-1.5518375555	 0.2406225909	 0.047466
O	 2.8607236741	-0.7607995307	 0.4493887701	-0.441213
C	 0.5937774841	-0.9888955984	 1.1750340992	 0.124301
O	 1.0060519038	-0.2960831986	 2.3089412391	-0.424766
C	-1.4568042606	-0.3198638654	-0.2132680939	 0.257755
C	-2.6479280386	-0.4440327023	-0.3320569683	-0.458667
H	 1.505534666	 1.3583153999	-0.0295520338	 0.11875
H	 0.0882505515	 1.7482851255	-1.0246366758	 0.119793
H	-0.0210518619	 1.8266540022	 0.7447444498	 0.135599
H	 0.2718455911	-1.9483942406	-1.4000748716	 0.115563
H	 1.3900828907	-0.615815404	-1.7848576587	 0.102999
H	 1.9344198816	-2.618413752	 0.3348699171	 0.0736
H	 3.505208901	-0.9650892475	-0.2344834994	 0.29347
H	-0.1039345475	-1.770447406	 1.4857401393	 0.096479
H	 1.8826922014	 0.0581933578	 2.1105904488	 0.299608
H	-3.6995317119	-0.5474319683	-0.4353066114	 0.189315
99.1212	133.8152	174.2195	192.6162	223.5631	260.1085	269.3715	312.2296	392.4548	405.3015	426.0926	525.343	548.2124	594.7504	614.7426	622.7604	662.8655	800.2878	837.5369	866.9304	901.8876	942.0717	967.1733	1038.1921	1111.6117	1126.3156	1162.4565	1166.1128	1199.2515	1232.733	1244.5613	1279.752	1319.674	1342.0792	1400.5124	1411.8968	1442.6711	1469.6249	1493.4652	1503.0116	2226.4227	3027.0883	3047.1144	3063.9273	3083.905	3120.3002	3126.2578	3134.0104	3502.3251	3770.6449	3833.2209
CC1(CC(O)C1O)C#C	C[C@]1(C[C@@H](O)[C@H]1O)C#C	
InChI=1S/C7H10O2/c1-3-7(2)4-5(8)6(7)9/h1,5-6,8-9H,4H2,2H3	InChI=1S/C7H10O2/c1-3-7(2)4-5(8)6(7)9/h1,5-6,8-9H,4H2,2H3/t5-,6-,7-/m1/s1
