22
gdb 120935	3.12502	0.98223	0.87484	2.019	83.99	-0.2212	0.0779	0.299	1462.5723	0.192823	-404.302438	-404.29272	-404.291776	-404.337423	35.992	
C	-0.0460586263	 1.4924028123	-0.0480763278	-0.384469
C	-0.1009683638	 0.0086512367	 0.2740563767	-0.033996
O	-1.2745140466	-0.5321817047	-0.3021762425	-0.253868
C	-1.4240910522	-1.9043755403	-0.0919757323	 0.129918
C	-1.8739357946	-2.4501278921	 1.3191774115	-0.265182
C	-3.0514449639	-3.1160911008	 0.6041224467	-0.106794
N	-3.8367413696	-1.9950404973	 0.0312266925	-0.35934
C	-2.6718323985	-2.530973291	-0.718196071	 0.30022
C	-2.7983682448	-3.0347297367	-2.1225142713	-0.512534
H	 0.8513230887	 1.9449749684	 0.3846392146	 0.111056
H	-0.0282516225	 1.6492060693	-1.1303954263	 0.124216
H	-0.9242904174	 2.0031266014	 0.3565021509	 0.130474
H	 0.7897247509	-0.5080967318	-0.1241892757	 0.080575
H	-0.1020406218	-0.1483347345	 1.3649061806	 0.089941
H	-0.5245203782	-2.4470197153	-0.4268817177	 0.059723
H	-1.1534913068	-3.138849235	 1.7649256483	 0.096013
H	-2.168305929	-1.6856567511	 2.04187259	 0.110937
H	-3.51587588	-4.0697530807	 0.8241224561	 0.089796
H	-4.6641491408	-2.401973998	-0.4068175274	 0.220538
H	-2.8979573994	-2.2039822584	-2.8304608545	 0.136543
H	-1.9177535183	-3.6177516316	-2.4133427717	 0.121534
H	-3.6784228352	-3.678090239	-2.2332425796	 0.114698
61.7932	84.7555	116.4289	173.5829	203.8202	245.1873	263.8212	318.6672	346.4854	422.4284	489.9229	566.3735	637.7482	701.7352	819.3199	831.8209	856.2827	901.7058	908.0997	931.9094	960.1951	1022.4007	1026.4586	1064.2829	1090.904	1101.8446	1113.5266	1150.9031	1161.3623	1186.4193	1198.0312	1223.8165	1248.0347	1294.8035	1309.068	1339.4978	1373.1579	1401.3104	1407.8413	1431.8681	1450.3695	1478.0607	1482.8848	1483.7444	1499.5106	1499.9919	1528.5965	2949.7591	2963.863	2984.6324	3023.9842	3044.4632	3067.1496	3088.5631	3093.6063	3118.0373	3122.4865	3128.2203	3187.4324	3456.3591
CCOC1CC2NC12C	CCO[C@H]1C[C@H]2N[C@@]12C	
InChI=1S/C7H13NO/c1-3-9-6-4-5-7(6,2)8-5/h5-6,8H,3-4H2,1-2H3	InChI=1S/C7H13NO/c1-3-9-6-4-5-7(6,2)8-5/h5-6,8H,3-4H2,1-2H3/t5-,6+,7-/m1/s1
