20
gdb 66647	3.94549	1.54794	1.4186	1.6448	81.36	-0.2238	0.0897	0.3135	998.0801	0.173702	-365.971847	-365.964783	-365.963839	-366.002913	29.201	
C	-0.1240717892	 1.509671474	-0.041707252	-0.530013
C	 0.0835938061	 0.0368227518	 0.0366233913	 0.362555
C	 0.6794853335	-0.9710210102	-0.8718158655	-0.107549
C	 1.3571008686	-1.7504051752	 0.2603310683	-0.022444
C	 1.0033815375	-3.2414655835	 0.3082270921	-0.231316
C	-0.5367181689	-3.2362109903	 0.5586872556	-0.227032
C	-0.8750153094	-1.7538423685	 0.7192012338	 0.045695
C	 0.3714282963	-0.979420366	 1.199098868	-0.160501
N	-0.8090671154	-0.9885643287	-0.583521251	-0.197586
H	 0.7860623186	 2.054936252	 0.2324494973	 0.120643
H	-0.4002026602	 1.794937701	-1.0617035696	 0.133732
H	-0.9273387936	 1.8367358469	 0.6283911085	 0.123438
H	 0.9627351642	-0.8920224785	-1.914571188	 0.087275
H	 2.4122085367	-1.5002324259	 0.383405308	 0.066981
H	 1.2782139354	-3.7552796041	-0.6180349539	 0.101089
H	 1.5351752733	-3.7431326336	 1.1239652204	 0.094978
H	-1.1019970271	-3.6661415004	-0.2737140079	 0.110905
H	-0.8011032181	-3.8002570198	 1.4589345955	 0.096396
H	-1.8214235262	-1.5348153212	 1.2163833594	 0.068661
H	 0.6049484882	-0.7753939998	 2.2426271596	 0.064094
172.894	202.8929	213.5905	229.7039	391.3029	500.3542	553.9624	660.3195	688.3937	741.0193	764.9301	791.291	838.0368	871.9247	889.3361	898.5759	917.2527	932.7602	971.0722	997.3468	1024.0224	1028.403	1064.3375	1080.2068	1097.4547	1130.6374	1140.1996	1169.3878	1208.3157	1215.4816	1241.1261	1249.6748	1267.1871	1291.5626	1317.1629	1329.9247	1360.1133	1402.3816	1457.3906	1476.3972	1480.6911	1492.3739	1500.6031	3025.6001	3038.8364	3051.3292	3076.4292	3085.7905	3096.985	3098.771	3100.7475	3105.1673	3129.3375	3185.5175
CC12C3C4CCC(C14)N23	C[C@@]12[C@H]3[C@@H]4CC[C@@H]([C@H]14)N23	
InChI=1S/C8H11N/c1-8-6-4-2-3-5(6)9(8)7(4)8/h4-7H,2-3H2,1H3	InChI=1S/C8H11N/c1-8-6-4-2-3-5(6)9(8)7(4)8/h4-7H,2-3H2,1H3/t4-,5+,6-,7-,8+,9?/m1/s1
