15
gdb 48913	3.32499	1.55387	1.33626	4.2048	69.88	-0.2357	-0.0509	0.1847	952.7302	0.11176	-420.546436	-420.539547	-420.538602	-420.577947	26.867	
O	 0.0780258561	-0.0769455182	 0.0460428772	-0.237857
C	 0.0689757708	 1.1258677127	 0.0089665137	 0.027039
C	 1.2924880394	 1.9790239757	 0.0001781753	 0.363735
O	 2.6177400541	 1.3796352532	 0.0374103236	-0.337914
C	 2.8669059644	 2.8265954587	-0.0035242306	 0.065148
C	 1.7456598505	 3.0532732103	-1.0748824127	-0.13827
C	 1.0513130636	 4.3601746748	-0.7451286856	-0.110514
C	 1.032359231	 4.4012775335	 0.5906106896	-0.11051
C	 1.715898463	 3.1176967815	 1.0196178783	-0.138286
H	-0.8763564136	 1.7117421099	-0.0225091738	 0.090693
H	 3.9061109158	 3.1625901343	 0.0009072918	 0.102621
H	 1.9090288008	 2.7227864625	-2.0987873192	 0.094371
H	 0.6726849677	 5.0783546337	-1.4585481293	 0.117687
H	 0.6342847934	 5.1616210804	 1.2475158481	 0.117688
H	 1.8498558329	 2.8508904269	 2.0661171636	 0.094369
89.4536	148.6925	253.0269	317.5587	484.7445	495.0343	518.0681	645.6831	687.9701	740.9495	753.8203	794.9871	807.227	916.9826	919.0998	925.8568	942.1788	974.1571	982.2126	1018.3868	1022.9118	1113.2197	1128.7282	1156.4372	1182.2721	1206.2489	1242.4355	1288.9811	1326.84	1335.7701	1422.5952	1632.6415	1823.6066	2888.1646	3098.714	3148.782	3151.1136	3223.1356	3248.3267
O=CC12OC3C1C=CC23	O=C[C@@]12O[C@H]3[C@@H]1C=C[C@@H]23	
InChI=1S/C7H6O2/c8-3-7-4-1-2-5(7)6(4)9-7/h1-6H	InChI=1S/C7H6O2/c8-3-7-4-1-2-5(7)6(4)9-7/h1-6H/t4-,5+,6-,7+
