18
gdb 78595	2.6974	1.62915	1.25184	1.2652	71.86	-0.2025	0.0678	0.2703	1032.4262	0.146759	-438.996714	-438.988472	-438.987528	-439.02887	32.493	
C	-0.1205813784	 1.5460936439	 0.0320858643	-0.33335
N	 0.0906908814	 0.09978587	 0.028316908	-0.06717
C	 0.6465390518	-0.5569479914	-1.1419291513	-0.122475
C	 2.2191974739	-0.6180961872	-1.0142903791	-0.182313
C	 2.5629457319	 0.0087078975	 0.3169325636	 0.154594
O	 2.8751080747	 1.3833948096	 0.3211499141	-0.43606
C	 1.172265257	-0.5217895007	 0.8290718868	-0.19568
C	 1.3163065527	-1.6125157822	-0.331837172	 0.372001
O	 1.3634115936	-2.977413339	-0.3540374448	-0.4549
H	 0.740600861	 2.1325904033	-0.3051670285	 0.130737
H	-0.9815970591	 1.7679603691	-0.6085131943	 0.109873
H	-0.3797294456	 1.8597961182	 1.0492234381	 0.108228
H	 0.1535941447	-0.6056478801	-2.1050391681	 0.098129
H	 2.8570873935	-0.7812524745	-1.8727636025	 0.092929
H	 3.3563432547	-0.5784853569	 0.8009478797	 0.080912
H	 3.1110277667	 1.6391462272	 1.2186160579	 0.280915
H	 0.9818813468	-0.6732207327	 1.8917485499	 0.067969
H	 0.4763750887	-3.3130619641	-0.1782817521	 0.29566
165.6648	180.1061	240.6972	260.5804	268.0853	275.4742	332.6389	372.8702	429.6767	561.6461	614.6884	647.7273	684.6965	721.977	799.1331	883.7279	917.6411	935.0858	955.2046	978.1755	994.4938	1028.5573	1086.2408	1098.4441	1111.1451	1157.6735	1164.2672	1175.4077	1213.2087	1245.359	1263.8191	1284.6188	1313.2646	1349.4352	1429.8838	1447.1181	1484.4612	1504.8441	1514.0778	3004.7339	3019.8881	3087.1613	3093.5704	3114.5685	3194.6953	3212.4376	3783.5867	3817.263
CN1C2C3C(O)C1C23O	CN1[C@H]2[C@H]3[C@@H](O)[C@@H]1[C@@]23O	
InChI=1S/C6H9NO2/c1-7-4-2-3(8)5(7)6(2,4)9/h2-5,8-9H,1H3	InChI=1S/C6H9NO2/c1-7-4-2-3(8)5(7)6(2,4)9/h2-5,8-9H,1H3/t2-,3-,4+,5-,6+/m1/s1
