18
gdb 17205	4.27777	1.81279	1.56675	1.6825	71.64	-0.2371	0.0701	0.3072	870.1794	0.154774	-347.751344	-347.744468	-347.743524	-347.782549	26.984	
C	-0.321299992	 1.3577798256	 0.002011575	-0.310493
C	 1.1298253857	 0.9430899492	-0.0323750789	-0.330879
C	 0.0446436547	-0.094391765	 0.0306038037	 0.382214
C	-0.1914110823	-1.1318083077	 1.1466566012	-0.334986
C	-0.5261742917	-2.1890782365	 0.056459291	-0.069794
C	-1.977338999	-2.1550477198	-0.4572771087	-0.075535
O	-1.6676820721	-1.1443045359	-1.4457470311	-0.288963
C	-0.2791193084	-1.1241692411	-1.0522778375	 0.023773
H	-0.703432354	 1.8004733722	 0.9164617579	 0.1112
H	-0.7741438906	 1.7445154708	-0.9048208947	 0.123407
H	 1.6746538778	 1.0537432103	-0.9650665271	 0.112823
H	 1.7313566959	 1.1024956799	 0.8573130118	 0.109928
H	 0.7087832141	-1.370581705	 1.720527165	 0.103518
H	-1.0030750801	-0.9149687564	 1.8488613432	 0.098987
H	-0.0275797055	-3.1555607196	 0.1061278814	 0.077463
H	-2.3215071773	-3.0811927476	-0.9347104731	 0.099982
H	-2.737209861	-1.8205807583	 0.2611777923	 0.098111
H	 0.3950125459	-1.217656185	-1.9090907013	 0.069246
67.4413	198.7476	247.122	299.5904	371.98	472.0629	541.1814	755.6928	773.3933	787.6305	837.494	859.662	891.609	902.3623	930.9989	956.0021	987.9617	1001.1804	1016.0851	1044.9697	1052.8589	1071.6297	1110.978	1151.3396	1163.1442	1182.5275	1187.3173	1215.2666	1257.2215	1258.6034	1291.308	1308.7852	1358.2073	1380.9107	1465.2319	1482.5298	1500.9645	1521.0676	3005.8323	3040.6101	3048.5014	3062.4471	3089.91	3119.5091	3124.7166	3128.1556	3199.0287	3216.1027
C1CC11CC2COC12	C1CC21C[C@H]1CO[C@@H]21	
InChI=1S/C7H10O/c1-2-7(1)3-5-4-8-6(5)7/h5-6H,1-4H2	InChI=1S/C7H10O/c1-2-7(1)3-5-4-8-6(5)7/h5-6H,1-4H2/t5-,6+/m0/s1
