19
gdb 111046	2.19771	1.66983	1.13729	4.0701	76.94	-0.2494	-0.0464	0.203	1111.3157	0.1598	-422.978935	-422.970814	-422.96987	-423.011644	31.368	
O	 0.5026801886	 0.3306762222	 0.9306302747	-0.428245
C	-0.0303129077	 0.2034257267	-0.3726967633	-0.121553
C	-1.4113979241	-0.4346631261	-0.3344864381	-0.008353
C	-2.1624417316	-0.9749015744	-1.5964573356	-0.076656
C	-1.1892741721	-2.1894433166	-1.6273807695	-0.267422
C	-1.5769727767	-1.9765168288	-0.1178491481	 0.242395
C	-3.0451701511	-1.8152497321	-0.6238165766	-0.274034
C	-1.0646667776	-2.7892876869	 1.0151365912	 0.029314
O	-0.2080722025	-2.4120934648	 1.7853454247	-0.2547
H	 0.4560552508	-0.5443763889	 1.3459683881	 0.294614
H	-0.1149633413	 1.2205405425	-0.7739420602	 0.10467
H	 0.6568219539	-0.3411997344	-1.0384550088	 0.081016
H	-2.0458644855	 0.1548422418	 0.3366006568	 0.080056
H	-2.5103459545	-0.394934419	-2.4514759321	 0.083404
H	-1.5686965914	-3.1033920648	-2.0911033258	 0.102045
H	-0.1491376654	-2.0112692903	-1.8979556841	 0.114541
H	-3.7216327185	-1.2628205103	 0.0330569122	 0.105689
H	-3.5202695603	-2.7049308425	-1.044569658	 0.099211
H	-1.4982945929	-3.8078421734	 1.1168529026	 0.094008
105.361	126.3631	175.5921	228.941	281.6122	326.406	413.0768	461.4909	564.8753	569.4996	584.826	705.1612	774.7849	821.914	849.2507	903.7302	943.2407	981.5851	995.1468	1017.8347	1036.9529	1063.0537	1083.5515	1103.2396	1133.9668	1150.0022	1160.0015	1166.5246	1211.3069	1220.4374	1238.4167	1254.0004	1294.8774	1360.1909	1416.9469	1430.0355	1464.575	1495.4794	1512.1679	1541.3945	1786.6981	2898.6147	2980.9023	3044.6669	3055.5557	3058.9896	3071.0216	3112.9548	3126.2203	3148.0416	3692.6577
OCC1C2CC1(C2)C=O	OC[C@H]1[C@H]2C[C@@]1(C2)C=O	
InChI=1S/C7H10O2/c8-3-6-5-1-7(6,2-5)4-9/h4-6,8H,1-3H2	InChI=1S/C7H10O2/c8-3-6-5-1-7(6,2-5)4-9/h4-6,8H,1-3H2/t5-,6-,7+/m0/s1
