18
gdb 38410	4.0486	1.34393	1.239	2.0873	75.35	-0.2434	0.027	0.2704	1045.0695	0.149575	-401.935423	-401.928248	-401.927304	-401.967433	28.259	
C	-0.0268569336	 1.4449609215	 0.2162219103	-0.285517
C	 1.2665158834	 0.7720552381	-0.1281279337	-0.038905
C	 1.860866664	 0.1273427092	 1.1307959471	-0.308214
C	 0.5738764339	-0.744158298	 1.2565956173	 0.408263
C	 0.7303211621	-2.2862619439	 1.1885059829	-0.260468
N	 0.0533321919	-2.8103499533	 2.3843659633	-0.263474
C	-0.3826766835	-1.7904859625	 2.9963288032	 0.10404
O	-0.1694471422	-0.5537029873	 2.4930598745	-0.258064
C	-0.0205704135	-0.049400975	 0.037737584	-0.103046
H	-0.179935977	 1.8743250555	 1.202481322	 0.122809
H	-0.5020023366	 1.9929501082	-0.5909812754	 0.115256
H	 1.8097956101	 0.984941229	-1.0393540302	 0.092304
H	 2.7487425754	-0.4829875747	 0.9471419116	 0.108065
H	 2.0562329726	 0.803423859	 1.9685840326	 0.108517
H	 0.2697301778	-2.705322783	 0.2866601337	 0.118138
H	 1.7812751697	-2.5964362524	 1.1898756849	 0.116229
H	-0.9364493355	-1.8074424667	 3.9289872779	 0.136218
H	-0.627721449	-0.5439180037	-0.711999516	 0.087851
61.0722	130.2369	240.9525	376.8913	397.1126	423.5624	493.8515	540.3005	734.5821	785.271	789.3736	826.7502	868.0111	900.5934	931.2476	944.9962	964.7564	977.9215	985.8143	994.7912	1026.3848	1061.3045	1084.3799	1092.3573	1130.9219	1149.5315	1153.2837	1201.0974	1221.8626	1235.6183	1252.2069	1307.0186	1324.6605	1338.4815	1365.7638	1474.8069	1494.6754	1495.8635	1708.5703	3033.1248	3050.7987	3065.3572	3107.0392	3119.8972	3174.108	3197.9639	3210.1504	3210.6453
C1C2CC3(CN=CO3)C12	C1[C@H]2C[C@]3(CN=CO3)[C@@H]12	
InChI=1S/C7H9NO/c1-5-2-7(6(1)5)3-8-4-9-7/h4-6H,1-3H2	InChI=1S/C7H9NO/c1-5-2-7(6(1)5)3-8-4-9-7/h4-6H,1-3H2/t5-,6-,7-/m0/s1
