20
gdb 15943	3.34854	1.85183	1.4857	0.9448	74.4	-0.2365	0.0835	0.32	941.726	0.176996	-348.970921	-348.962817	-348.961872	-349.004388	30.421	
C	-0.1523515646	 1.3984784818	-0.07589041	-0.261861
O	-0.1247074843	-0.0138333608	-0.0783993044	-0.289539
C	 0.6830274873	-0.5544005999	-1.0814289734	 0.462259
C	 0.1659686437	-0.4652048151	-2.5474115193	-0.28886
C	 0.3147073816	-2.0134645225	-2.6811598513	-0.221854
C	 0.8187638786	-2.1077645415	-1.2164344887	-0.085945
C	 2.3567104123	-1.9763725394	-1.0559584498	-0.22185
C	 2.2253505757	-0.4277219872	-0.9091052916	-0.288851
H	 0.846517945	 1.8285729925	 0.0902503147	 0.107224
H	-0.5491954802	 1.8032244818	-1.0187744485	 0.107221
H	-0.8077438	 1.7073206813	 0.7418714237	 0.125293
H	-0.8754088254	-0.1361941104	-2.5888045139	 0.105538
H	 0.7555274792	 0.1458057586	-3.2367408338	 0.090392
H	-0.6349153021	-2.5241255264	-2.8558895269	 0.103005
H	 1.0284304712	-2.3569419564	-3.4351775705	 0.095318
H	 0.3005092169	-2.796735181	-0.5496022704	 0.068252
H	 2.7510644627	-2.4621706476	-0.1606502353	 0.103003
H	 2.9390656969	-2.3226961162	-1.9143541742	 0.095313
H	 2.7508725771	 0.1817179791	-1.6497096277	 0.090399
H	 2.4922707085	-0.0743932107	 0.0900623915	 0.105541
20.9136	122.558	190.1676	193.0295	302.437	344.117	401.7893	434.7514	612.3976	628.9576	742.3747	754.8169	827.5618	869.4116	882.9165	927.7577	954.5537	961.7417	1014.918	1032.488	1049.0755	1124.2534	1143.4714	1169.2486	1175.4348	1184.5398	1212.4526	1227.4549	1231.3164	1233.364	1251.3327	1270.8325	1288.9383	1300.2157	1322.4746	1463.716	1472.9465	1481.6292	1482.8681	1488.6838	1500.7975	1508.8608	2983.8213	3030.7124	3050.0532	3051.8022	3057.5217	3060.5739	3096.111	3096.3444	3110.4334	3114.7257	3114.8544	3121.9045
COC12CCC1CC2	CO[C@]12CC[C@H]1CC2	
InChI=1S/C7H12O/c1-8-7-4-2-6(7)3-5-7/h6H,2-5H2,1H3	InChI=1S/C7H12O/c1-8-7-4-2-6(7)3-5-7/h6H,2-5H2,1H3/t6-,7-
