17
gdb 44346	3.69861	1.52856	1.25771	3.6143	79.72	-0.2301	-0.0527	0.1774	992.1597	0.137164	-384.637211	-384.630399	-384.629455	-384.668366	27.788	
O	 0.0821737149	-0.069376734	 0.2668124203	-0.309378
C	 0.0404496907	 1.1112421408	 0.0295815939	 0.364264
C	-1.2867627597	 1.9270957363	 0.0538094861	-0.339855
C	-1.3149070552	 3.045523974	-0.9964785517	-0.014618
C	-0.590562221	 4.4191198791	-1.1196035347	-0.072973
C	 0.8295920993	 4.5908303123	-0.4791160704	-0.289014
C	 1.0002804262	 3.1357533239	-0.8702536291	 0.208108
C	 1.1810309072	 2.0799116681	-0.0692669331	-0.271274
C	-0.1236566385	 3.1961490385	-1.8842155012	-0.162599
H	-2.1190693212	 1.2373576626	-0.116128818	 0.124054
H	-1.3955172049	 2.3054643925	 1.0783847077	 0.127949
H	-2.2696103893	 3.1080411304	-1.516156194	 0.098609
H	-1.1612094992	 5.2582195703	-1.505413913	 0.096442
H	 1.3839161096	 5.3155673614	-1.0853180495	 0.117936
H	 0.9303005857	 4.838132686	 0.5820761533	 0.10611
H	 1.8302092242	 2.1258708244	 0.8036761973	 0.115152
H	-0.0662657089	 2.9918279833	-2.9451983437	 0.101086
93.4064	193.6991	345.4964	397.2892	421.6155	480.7645	513.5422	590.0381	666.73	702.8786	762.4395	786.6335	804.3926	849.6009	887.4333	919.6211	938.5528	965.7262	980.6271	1027.4008	1046.5036	1071.3514	1073.4124	1091.77	1119.8166	1171.7251	1209.0169	1227.448	1236.6373	1291.3135	1308.3557	1321.5937	1396.5835	1465.7384	1490.952	1677.2987	1815.3126	3028.904	3036.6057	3085.9535	3092.4585	3121.5698	3143.4164	3158.746	3197.7268
O=C1CC2C3CC(=C1)C23	O=C1C[C@H]2[C@H]3C[C]([CH]1)[C@@H]23	
InChI=1S/C8H8O/c9-5-1-4-2-6-7(3-5)8(4)6/h1,6-8H,2-3H2	InChI=1S/C8H8O/c9-5-1-4-2-6-7(3-5)8(4)6/h1,6-8H,2-3H2/t6-,7+,8-/m1/s1
