25
gdb 104848	1.84781	1.32273	1.13879	1.8273	88.01	-0.2387	0.0709	0.3096	1326.526	0.227328	-389.486028	-389.475296	-389.474352	-389.521753	39.83	
C	-0.4817075283	 1.5163881148	 0.4356723753	-0.398041
C	-0.0574891366	 0.0783746065	 0.1113227248	-0.240567
C	 0.8947781763	-0.5510051012	 1.1403509849	 0.292109
C	 2.1863002537	 0.2463247671	 1.3596063568	-0.257599
C	 3.0600445305	 0.4046302781	 0.1096928747	-0.392471
C	 0.1605816475	-0.979462418	 2.4378282948	-0.122889
O	 0.2097978151	-2.3702742372	 2.071009187	-0.296617
C	 1.1060245613	-2.0938893933	 0.9696468861	 0.121896
C	 0.7180351756	-2.837659076	-0.292942379	-0.414433
H	 0.3575446963	 2.2161604274	 0.3803040886	 0.120256
H	-1.2425679948	 1.8612660259	-0.2710937002	 0.114751
H	-0.9096628412	 1.5912335086	 1.4416101984	 0.11782
H	-0.957175567	-0.5442468076	 0.0462228516	 0.104796
H	 0.3999044928	 0.0506848719	-0.8849599997	 0.09759
H	 1.9415989308	 1.2365400498	 1.7631998777	 0.097961
H	 2.7699365394	-0.2565787711	 2.1410846456	 0.095598
H	 3.9930311553	 0.9225371565	 0.3519639891	 0.115406
H	 3.3257341259	-0.5686016386	-0.3179248755	 0.118695
H	 2.5569903836	 0.9828464818	-0.671550313	 0.120108
H	 0.7177329868	-0.7785298423	 3.364005939	 0.088091
H	-0.8708275305	-0.6271146037	 2.56231713	 0.094828
H	 2.1354569055	-2.3745275467	 1.2454535365	 0.060541
H	-0.2934752948	-2.5883143013	-0.6211163276	 0.120491
H	 1.4177900898	-2.6146721166	-1.1055930017	 0.115638
H	 0.754777367	-3.9154383548	-0.103404224	 0.12604
56.6017	87.4419	121.9068	173.23	186.9665	218.9667	231.889	259.7443	314.677	320.6668	376.7572	394.8849	478.6463	519.7361	643.3483	753.8958	782.1536	801.3956	876.5558	888.6926	929.1422	974.8603	997.8132	1025.9405	1034.7369	1045.6687	1062.088	1089.0064	1100.7518	1138.8107	1167.9929	1176.5923	1217.143	1244.3538	1293.0133	1307.5206	1324.7621	1361.8435	1368.2091	1385.6618	1393.4227	1407.4953	1410.587	1414.6336	1480.7732	1484.3311	1490.0419	1500.412	1501.9511	1502.9067	1505.4846	1515.2168	1526.3696	2961.169	2993.7642	3021.6167	3029.2655	3034.3091	3034.874	3039.4084	3043.5486	3051.9161	3062.1971	3098.8654	3099.8771	3103.5035	3106.7173	3108.7697	3127.9902
CCC1(CC)COC1C	CCC1(CC)CO[C@H]1C	
InChI=1S/C8H16O/c1-4-8(5-2)6-9-7(8)3/h7H,4-6H2,1-3H3	InChI=1S/C8H16O/c1-4-8(5-2)6-9-7(8)3/h7H,4-6H2,1-3H3/t7-/m0/s1
