14
gdb 26444	3.90027	1.06756	1.06529	2.0034	64.6	-0.2513	-0.0527	0.1985	1146.1267	0.100607	-473.852113	-473.844306	-473.843362	-473.885756	27.664	
O	-1.0350299255	 0.1400134557	-0.0211237163	-0.418494
C	 0.1929464555	-0.5003011618	-0.1927982449	-0.048899
C	 1.1334191612	 0.3690395388	-1.0305165802	 0.126555
O	 0.7855115468	 1.4487858461	-1.4350884714	-0.24975
C	 0.858997359	-0.8371904965	 1.1104621416	 0.363959
N	 1.4210216904	-1.953951458	 1.4498071275	-0.301743
C	 1.916295201	-1.7160363372	 2.7261614477	-0.114197
C	 1.6171892626	-0.4458056403	 3.0847467152	-0.035327
O	 0.9433072846	 0.1365127188	 2.0499161763	-0.164027
H	-0.9402851888	 1.0055247566	-0.4515287892	 0.301308
H	 0.0830893295	-1.4588022171	-0.725115816	 0.134028
H	 2.1361396507	-0.0522070048	-1.2350686153	 0.121825
H	 2.4374209192	-2.4759856209	 3.2857552498	 0.131665
H	 1.7767440537	 0.1619927808	 3.9584146053	 0.153099
37.1455	86.5641	151.4931	239.0401	305.1374	371.2129	416.5558	468.1026	632.9157	701.3455	749.4199	777.6423	789.219	868.7002	875.9896	932.9089	954.1168	1019.8848	1109.3739	1133.17	1151.9132	1165.7524	1235.4178	1276.6575	1323.5772	1385.0768	1389.9223	1434.8903	1546.0428	1605.7059	1820.1923	2960.3561	2995.7314	3267.6034	3302.9665	3679.6213
OC(C=O)C1=NC=CO1	O[C@@H](C=O)c1ncco1	
InChI=1S/C5H5NO3/c7-3-4(8)5-6-1-2-9-5/h1-4,8H	InChI=1S/C5H5NO3/c7-3-4(8)5-6-1-2-9-5/h1-4,8H/t4-/m0/s1
