21
gdb 113800	3.33069	0.93965	0.87305	1.9046	79.82	-0.2474	0.0695	0.317	1417.4786	0.180965	-424.182281	-424.172508	-424.171564	-424.21727	36.761	
O	-0.1960620114	 1.4945835092	-0.3741311806	-0.419727
C	 0.0523328625	 0.1489327342	 0.0170994087	-0.120263
C	-1.2792700731	-0.558443988	 0.0528510432	 0.003887
C	-1.7956843121	-1.321706361	-1.1432970199	-0.302692
C	-1.4572571515	-2.0618919975	 0.1260332114	-0.066584
C	-0.3500141075	-3.0784681881	 0.1861539046	 0.393893
O	 0.7529934042	-2.850437697	-0.6585938414	-0.464647
C	-0.0777941899	-3.7983907128	 1.4852540261	-0.328575
C	-0.7232125588	-4.5276921781	 0.3229876961	-0.290429
H	 0.6436467975	 1.9635582526	-0.3783694742	 0.283474
H	 0.7266992992	-0.3469504417	-0.6943017373	 0.086589
H	 0.5250359563	 0.1160176312	 1.0139523138	 0.077857
H	-2.0167583218	 0.0120447056	 0.6119327543	 0.091069
H	-2.8350590758	-1.2156602635	-1.4333764738	 0.107439
H	-1.103500627	-1.4482841524	-1.9690153421	 0.126904
H	-2.308508233	-2.3690746514	 0.7288007364	 0.080002
H	 1.3774321451	-2.2915763361	-0.1849829909	 0.283165
H	 0.9550047955	-4.0426918535	 1.7103854504	 0.109995
H	-0.6852300892	-3.5543178796	 2.3502900903	 0.113179
H	-1.7738512453	-4.7873741804	 0.3907551451	 0.113627
H	-0.1091875639	-5.2343596717	-0.2224694403	 0.121836
48.11	79.6393	141.2849	195.0904	237.6367	253.9775	291.0987	328.8908	346.3591	408.0105	422.3844	504.4137	606.496	696.6396	771.8944	805.4524	848.8422	883.1493	911.8801	922.0964	936.2615	987.2915	998.2942	1031.8619	1051.1059	1070.4961	1074.3294	1074.8252	1109.6839	1140.0507	1178.1027	1189.011	1220.6461	1256.1681	1262.2841	1281.5645	1298.6732	1356.5962	1385.7599	1429.9674	1453.8863	1469.3634	1487.258	1502.8228	1536.2152	2949.5038	3019.7916	3127.148	3129.309	3134.1346	3139.7806	3143.2735	3213.6729	3222.4266	3233.6939	3810.2539	3825.6446
OCC1CC1C1(O)CC1	OC[C@H]1C[C@H]1C1(O)CC1	
InChI=1S/C7H12O2/c8-4-5-3-6(5)7(9)1-2-7/h5-6,8-9H,1-4H2	InChI=1S/C7H12O2/c8-4-5-3-6(5)7(9)1-2-7/h5-6,8-9H,1-4H2/t5-,6-/m1/s1
