17
gdb 44079	3.84826	1.47057	1.21818	3.6536	73.76	-0.232	0.0156	0.2476	1020.4674	0.13773	-417.952194	-417.945185	-417.944241	-417.983498	28.233	
N	-0.1197946108	 1.187877219	-0.1883910504	-0.545948
C	-0.0766328322	-0.0521332877	-0.0324825267	 0.435909
O	 1.0201790531	-0.9076546799	 0.1195350585	-0.30646
C	 0.1570671466	-2.0478268583	 0.2699362751	 0.474877
C	 0.355896928	-3.4667801071	-0.2080544622	-0.333888
C	-0.6581687806	-3.8895514994	 0.9154711984	-0.239385
C	-0.5121920736	-2.4822223235	 1.6033217618	-0.060014
N	-1.5794482052	-1.4744153687	 1.4263099022	-0.322758
C	-1.0992361516	-1.1825409995	 0.04869779	-0.207422
H	 0.814222857	 1.6017269195	-0.1730128687	 0.230855
H	 0.1093289587	-3.6977569543	-1.2472126972	 0.110773
H	 1.3638207896	-3.832710482	 0.0084097647	 0.124052
H	-1.6674546793	-4.0787270082	 0.5426415654	 0.107185
H	-0.342816887	-4.7352692415	 1.527930266	 0.116265
H	-0.0210125279	-2.4828158738	 2.5780303905	 0.089732
H	-2.5303568764	-1.8235235274	 1.475377211	 0.224881
H	-1.8001729784	-1.2804158973	-0.7814666684	 0.101346
113.1691	189.6847	264.1654	336.6535	397.4843	437.6209	473.1117	636.8045	654.2988	717.8299	775.5049	788.8047	847.1192	869.6938	874.5312	890.0386	905.4462	955.6072	967.4588	1007.4722	1039.8611	1083.988	1100.5881	1124.5663	1156.2655	1176.7109	1221.3651	1229.6974	1246.0956	1265.4163	1304.7582	1317.4892	1327.4294	1382.5367	1469.6434	1492.8178	1830.2419	3058.7061	3072.4087	3095.2593	3106.6708	3109.4135	3135.4892	3472.8047	3533.573
N=C1OC23CCC2NC13	[NH][C]1O[C@@]23CC[C@@H]2N[C@@H]13	
InChI=1S/C6H8N2O/c7-5-4-6(9-5)2-1-3(6)8-4/h3-4,7-8H,1-2H2	InChI=1S/C6H8N2O/c7-5-4-6(9-5)2-1-3(6)8-4/h3-4,7-8H,1-2H2/t3-,4-,6-/m0/s1
