19
gdb 78437	3.12115	1.43238	1.24679	3.0074	79.22	-0.2315	-0.0019	0.2296	1079.6643	0.160385	-385.872328	-385.864854	-385.86391	-385.903954	30.268	
C	-0.0384507403	 1.4782361625	 0.0072192028	-0.434963
C	-0.0059894243	-0.0340916213	 0.0077959703	-0.032026
C	 1.3117970398	-0.7287849245	-0.261869868	-0.04991
C	 0.7087052802	-0.7412141441	 1.1396430617	-0.049916
C	 0.4805449555	-2.2495574098	 1.3465034176	-0.162657
C	 1.8313056713	-2.835184265	 0.7735778598	-0.242048
C	 1.3148481744	-2.2323652294	-0.5923052372	-0.162658
C	-0.0449653741	-2.6845104064	-0.0324780489	 0.429696
O	-0.9808408315	-3.3055727804	-0.440708227	-0.33816
H	 0.8911397708	 1.8937986813	 0.4111615706	 0.115111
H	-0.1644045322	 1.8699752983	-1.0076868868	 0.123286
H	-0.8647789354	 1.8555632221	 0.6189066827	 0.123287
H	-0.9075007504	-0.4999368479	-0.3842651939	 0.106651
H	 2.1861330113	-0.1371275886	-0.5098132137	 0.090679
H	 1.1259973945	-0.158973554	 1.953805397	 0.09068
H	 0.0320167433	-2.595413964	 2.2753565482	 0.083461
H	 2.7451334494	-2.3890046185	 1.1707703227	 0.109829
H	 1.8837346335	-3.9266216783	 0.7864620255	 0.116199
H	 1.6831532544	-2.561389082	-1.5616643334	 0.08346
133.8343	200.1765	229.1711	247.7671	325.1619	417.7821	459.6708	477.5863	622.9884	648.8773	776.43	801.7274	814.6995	817.0599	839.2287	877.1141	953.5095	971.2923	991.6209	997.029	1008.9722	1055.3124	1059.6768	1075.8277	1091.9835	1114.6808	1123.8093	1140.9238	1201.0455	1201.6959	1206.2478	1241.8366	1252.9007	1304.0233	1314.4692	1416.5649	1430.7064	1489.5538	1492.673	1501.2098	1895.9787	3029.0723	3065.3938	3094.052	3096.6326	3130.7086	3134.8123	3144.2999	3146.3683	3163.7938	3172.9194
CC1C2C1C1CC2C1=O	C[C@H]1[C@H]2[C@@H]1[C@@H]1C[C@H]2C1=O	
InChI=1S/C8H10O/c1-3-6-4-2-5(7(3)6)8(4)9/h3-7H,2H2,1H3	InChI=1S/C8H10O/c1-3-6-4-2-5(7(3)6)8(4)9/h3-7H,2H2,1H3/t3-,4+,5-,6+,7-
