15
gdb 43860	3.68147	1.02986	0.89767	4.3493	71.28	-0.2608	-0.0432	0.2176	1246.2082	0.111407	-416.794321	-416.786284	-416.785339	-416.827708	29.707	
O	 0.0856144075	 0.0794609866	-0.6068399445	-0.275445
C	 0.0291643525	 1.1754400855	-0.1382016299	 0.41098
C	-1.1247084911	 2.1020743795	 0.2907002068	-0.410747
C	-0.0544288033	 3.0844290138	 0.7912100642	 0.338813
C	 1.1046232246	 2.2036128313	 0.2891777477	-0.438968
N	-0.1853917855	 4.5250374885	 0.7086737522	-0.348905
C	-0.0704321415	 3.8921569446	 2.0454592575	-0.273865
C	-1.2432017257	 3.9338752777	 2.8844348315	 0.339474
N	-2.1775107056	 3.9239401669	 3.5652729422	-0.329905
H	-1.7205517346	 2.4792189158	-0.5462466562	 0.154093
H	-1.8003033626	 1.6891011001	 1.0453348563	 0.159628
H	 1.8219142569	 1.8459954229	 1.0331969991	 0.145457
H	 1.6555352138	 2.61851394	-0.5624380851	 0.14436
H	 0.7005213446	 4.9661174246	 0.4700963535	 0.248241
H	 0.8671088501	 3.991665812	 2.5861930047	 0.13679
44.9154	112.4141	153.6573	293.8758	326.5999	358.2265	417.6915	468.4072	498.7223	564.4162	611.1317	654.9683	722.6013	805.6259	873.9448	922.8998	933.2133	969.7326	1004.0507	1046.7019	1063.9378	1091.9427	1185.7016	1187.4592	1202.8596	1213.3977	1264.0924	1346.8591	1418.3497	1431.2685	1464.4188	1909.3718	2360.4092	3049.0551	3062.3859	3107.7582	3115.8164	3148.1265	3494.8004
O=C1CC2(C1)NC2C#N	O=C1CC2(C1)N[C@H]2C#N	
InChI=1S/C6H6N2O/c7-3-5-6(8-5)1-4(9)2-6/h5,8H,1-2H2	InChI=1S/C6H6N2O/c7-3-5-6(8-5)1-4(9)2-6/h5,8H,1-2H2/t5-/m0/s1
