21
gdb 40741	3.61263	1.11408	0.99102	1.7615	82.12	-0.2376	0.0749	0.3125	1269.4584	0.183768	-387.037308	-387.029236	-387.028292	-387.070734	31.379	
C	-0.2205548525	 1.3279334629	-0.2714256014	-0.275203
C	 1.2339312616	 1.0361354309	 0.0018715722	-0.274318
C	 0.2197568965	-0.0816618511	 0.0430584891	 0.022106
C	-0.1619059943	-0.7168756206	 1.3524081745	 0.007008
C	-1.4462320615	-1.6171763739	 1.3971819217	-0.269039
C	-0.6003068751	-2.7815253177	 1.9558667067	 0.125429
O	-0.0965295618	-3.6500664843	 0.9180194445	-0.293582
C	 1.1685891438	-2.9475739855	 0.8827653664	-0.081498
C	 0.6861721511	-1.9090293048	 1.9073175	-0.103508
H	-0.7810346385	 1.8635964426	 0.488134946	 0.109995
H	-0.5177089772	 1.5617516496	-1.2876749355	 0.11171
H	 1.9320710859	 1.0712380627	-0.8271275365	 0.111057
H	 1.6497916395	 1.3767796257	 0.9447744811	 0.109033
H	 0.2324616306	-0.7621209126	-0.8044736785	 0.087629
H	-0.2204358218	 0.06582512	 2.1165022143	 0.067206
H	-2.2243315114	-1.249741462	 2.0716865143	 0.097205
H	-1.8954315844	-1.8471636756	 0.4278761231	 0.10877
H	-0.9646459029	-3.3376274641	 2.8238886382	 0.071286
H	 1.9851016009	-3.5854833199	 1.2459392766	 0.097065
H	 1.4238550769	-2.5902102075	-0.1218452755	 0.100751
H	 1.3363504843	-1.7067131848	 2.7577494887	 0.070897
52.1426	78.5724	170.3894	235.9743	307.8755	377.5886	398.4922	493.6934	659.4052	734.9193	771.2528	791.9021	829.3016	841.4876	892.0674	913.4811	929.0496	937.5245	980.3942	993.2115	1008.8483	1030.3634	1051.4035	1057.9841	1075.9373	1081.2043	1110.67	1142.5247	1154.0118	1187.1095	1198.2299	1208.276	1221.5164	1235.5247	1258.8131	1273.8891	1296.4356	1308.3679	1327.5769	1364.1232	1429.511	1464.9074	1470.438	1505.6983	1527.3443	3008.5339	3038.1829	3053.2816	3056.1659	3070.6416	3113.0519	3116.7388	3128.191	3132.7231	3140.1869	3206.1352	3221.4593
C1CC1C1CC2OCC12	C1CC1[C@H]1C[C@H]2OC[C@@H]12	
InChI=1S/C8H12O/c1-2-5(1)6-3-8-7(6)4-9-8/h5-8H,1-4H2	InChI=1S/C8H12O/c1-2-5(1)6-3-8-7(6)4-9-8/h5-8H,1-4H2/t6-,7+,8-/m1/s1
