21
gdb 100357	2.15186	1.11027	0.95903	3.4263	75.42	-0.242	-0.0185	0.2235	1352.9588	0.1783	-461.35821	-461.347302	-461.346357	-461.394675	38.771	
C	-0.1378551233	 1.3015986366	 0.0893807933	-0.254683
O	 0.1778752286	-0.074617717	-0.0282256495	-0.293407
C	 0.7550219656	-0.5329411608	-1.2702100481	 0.286837
C	 0.0512719895	 0.0323376077	-2.5067013963	-0.44619
C	 2.2483569663	-0.1479737616	-1.2619481857	-0.0719
O	 2.889807772	-0.5837013172	-0.0831421506	-0.423458
C	 0.6172806941	-2.0685060963	-1.2039307957	-0.284746
C	-0.8099758822	-2.5466864686	-1.0634680014	 0.148766
O	-1.325552166	-3.3641230119	-1.7848772252	-0.250004
H	 0.7214761001	 1.955224856	-0.1127704065	 0.115925
H	-0.9628703273	 1.5952566771	-0.5709144001	 0.121874
H	-0.4514656361	 1.4544863381	 1.1249246035	 0.134938
H	 0.201268678	 1.1109275879	-2.6056635738	 0.121609
H	 0.4518740249	-0.4431312818	-3.4066333667	 0.133636
H	-1.0241375746	-0.1662816776	-2.4763753582	 0.13744
H	 2.7604906521	-0.6184165584	-2.1075416273	 0.111897
H	 2.3423062292	 0.9429773089	-1.390164006	 0.085539
H	 2.2865533957	-0.3607171096	 0.6377847472	 0.286742
H	 1.0554979789	-2.5294974142	-2.0930636942	 0.11686
H	 1.1829775631	-2.4087536893	-0.3277418237	 0.132794
H	-1.3689976087	-2.0886119279	-0.2207494648	 0.089531
48.7475	80.7509	95.5797	141.2962	168.6522	214.6814	242.7322	260.25	290.6156	342.726	367.3041	413.0472	453.3796	470.1686	549.423	593.7319	721.4907	796.8582	893.9694	905.2542	957.2189	1002.9625	1054.8249	1089.7346	1106.5457	1142.0998	1178.7577	1184.6118	1192.6472	1211.9214	1264.563	1271.5948	1319.5648	1370.7572	1405.1803	1421.3631	1431.5467	1454.9913	1476.9998	1486.6328	1488.7475	1504.6358	1510.6754	1515.3862	1824.9159	2916.011	2967.3758	3005.4257	3041.3943	3044.409	3064.6433	3076.2269	3108.9637	3115.0785	3117.3644	3119.7352	3768.5945
COC(C)(CO)CC=O	CO[C@@](C)(CO)CC=O	
InChI=1S/C6H12O3/c1-6(5-8,9-2)3-4-7/h4,8H,3,5H2,1-2H3	InChI=1S/C6H12O3/c1-6(5-8,9-2)3-4-7/h4,8H,3,5H2,1-2H3/t6-/m1/s1
