18
gdb 125618	4.63054	0.79628	0.71476	1.6083	74.83	-0.2469	0.0157	0.2626	1575.1226	0.14856	-435.301544	-435.29225	-435.291306	-435.337063	32.578	
C	-0.0749029788	 1.4657299381	-0.091036158	-0.482318
C	-0.0390258331	-0.0223314195	 0.0021984318	 0.336563
N	-0.0346467328	-0.8028857541	-1.0689578286	-0.263708
N	 0.0021005864	-2.0426061444	-0.5175337261	-0.243227
C	 0.0127189158	-1.9683546349	 0.830666409	 0.356767
C	 0.080886803	-3.1484222817	 1.7417115128	-0.337446
C	 1.4045962157	-3.1950222937	 2.5295738142	-0.05798
O	 1.4725911576	-4.315610704	 3.3907413437	-0.412941
N	-0.0104091681	-0.6964917797	 1.1922108057	-0.346951
H	 0.8019912639	 1.905320169	 0.394605286	 0.137667
H	-0.0945869356	 1.7766156912	-1.1368246631	 0.138927
H	-0.9595092406	 1.8640998568	 0.4156685046	 0.137776
H	 0.0066034567	-2.8558213672	-1.1110244591	 0.275533
H	-0.7526884216	-3.0945549984	 2.4522685191	 0.12488
H	-0.0335427088	-4.0794581548	 1.1769472905	 0.111363
H	 2.2435922407	-3.2962349724	 1.8334401034	 0.117872
H	 1.5363132395	-2.2468734999	 3.0674771242	 0.121327
H	 0.8591222301	-4.1699907303	 4.1179245699	 0.285896
31.9743	92.6592	97.0316	110.0486	237.7172	281.6912	301.1242	352.7891	386.6102	418.3246	543.837	662.6965	714.7014	732.4888	785.0167	813.2991	1001.0556	1015.1916	1022.1082	1039.1061	1070.9774	1076.1117	1083.2631	1149.8867	1162.8971	1256.0343	1313.5243	1316.4921	1376.8138	1397.8686	1409.6281	1414.1472	1463.6827	1478.4377	1479.2011	1481.5034	1511.4394	1542.3791	1584.5477	3021.1825	3036.537	3046.7018	3074.0195	3096.3553	3102.3957	3144.5564	3661.9866	3818.0661
CC1=NNC(CCO)=N1	Cc1n[nH]c(CCO)n1	
InChI=1S/C5H9N3O/c1-4-6-5(2-3-9)8-7-4/h9H,2-3H2,1H3,(H,6,7,8)	InChI=1S/C5H9N3O/c1-4-6-5(2-3-9)8-7-4/h9H,2-3H2,1H3,(H,6,7,8)
