16
gdb 31195	2.13936	1.57353	0.9562	2.3083	80.28	-0.2274	-0.0142	0.2133	1209.2811	0.123791	-400.759204	-400.75071	-400.749766	-400.792845	31.022	
C	-0.3423466339	 1.6154125727	-0.1419776524	-0.376554
C	 0.1059225045	 0.154260584	 0.0383949199	-0.30921
C	 0.8688758782	-0.3766164675	-1.1197344299	 0.271977
C	 2.141906643	-0.8442174958	-1.2919461277	 0.036446
N	 2.3175735141	-1.2118550578	-2.6337095932	-0.306788
C	 1.1803244097	-0.9533949173	-3.177968125	 0.057624
O	 0.2458075207	-0.4453011192	-2.3352392168	-0.178182
C	 3.1581465324	-0.9630597493	-0.3164991695	 0.25034
C	 4.0128761549	-1.0591903565	 0.5257226325	-0.433715
H	 0.5204391451	 2.2766603134	-0.2634728161	 0.129981
H	-0.978466281	 1.7216456279	-1.0248959998	 0.132783
H	-0.9106043448	 1.9496824502	 0.7305465114	 0.120716
H	 0.7466659392	 0.0573463653	 0.9198635226	 0.134203
H	-0.7740600876	-0.4781920935	 0.2135801547	 0.125429
H	 0.882027885	-1.0889485361	-4.2057328346	 0.152598
H	 4.7730612507	-1.1474536506	 1.2617277038	 0.192353
57.5813	131.9294	153.4151	177.9571	217.884	320.8927	369.9018	480.1524	545.172	562.8821	590.7776	657.1946	671.2317	694.5439	755.8598	793.5785	836.3542	953.3217	971.3423	1027.0958	1082.1511	1106.0316	1140.4237	1213.8603	1287.6645	1302.2008	1350.0421	1375.7238	1412.038	1473.8823	1497.8167	1506.9798	1567.3141	1627.5047	2237.8946	3026.9732	3045.6358	3089.9685	3119.5035	3125.2644	3276.5816	3503.6367
CCC1=C(N=CO1)C#C	CCc1c(nco1)C#C	
InChI=1S/C7H7NO/c1-3-6-7(4-2)9-5-8-6/h1,5H,4H2,2H3	InChI=1S/C7H7NO/c1-3-6-7(4-2)9-5-8-6/h1,5H,4H2,2H3
