18
gdb 43818	2.91439	1.59212	1.20527	3.1732	78.3	-0.2399	0.0263	0.2662	1055.908	0.148931	-401.943305	-401.935922	-401.934978	-401.975049	29.817	
N	-0.0693791835	 1.2284269358	 0.3740306558	-0.554815
C	-0.0382798892	 0.0137798447	 0.0310960645	 0.3995
O	 1.1005129345	-0.6636374315	-0.3406092905	-0.279305
C	 0.7647009365	-1.8939193929	-0.9808292565	 0.442872
C	 1.4045921818	-2.1638166558	-2.308802023	-0.334941
C	 1.854570906	-2.9126798824	-1.0625396118	-0.329551
C	-0.6786089826	-2.1773720029	-0.6826858939	-0.135613
C	-1.0521300347	-2.1898365984	 0.7703081248	-0.299021
C	-1.1988933695	-0.9110791068	-0.0345465965	-0.105212
H	 0.8597061222	 1.6450759257	 0.2962708779	 0.220875
H	 0.8310161113	-2.6976471952	-3.0594230692	 0.118192
H	 2.0693999061	-1.400722159	-2.6969342286	 0.129961
H	 2.8153039637	-2.6408553077	-0.6403457869	 0.130499
H	 1.5876315744	-3.9584816453	-0.956055538	 0.121495
H	-1.2596348191	-2.7349197531	-1.4064535875	 0.103076
H	-1.9752727835	-2.6874337512	 1.0439380236	 0.122448
H	-0.263863902	-2.2476806114	 1.5134598211	 0.132165
H	-2.1785367525	-0.4912461428	-0.2130727852	 0.117374
99.647	172.667	252.3665	271.5704	358.0754	437.366	486.6046	539.1153	625.261	714.6211	755.7651	772.1523	800.4582	838.6559	881.2339	894.5206	917.8004	930.8956	962.2384	978.2627	989.2325	1025.235	1049.6569	1066.6163	1075.7428	1076.785	1098.0714	1109.501	1187.6421	1196.9724	1231.3818	1280.4876	1334.7167	1355.4044	1414.6843	1450.9356	1484.0504	1501.9618	1780.1843	3132.5727	3136.1918	3137.1402	3191.4025	3219.2591	3219.5351	3229.5728	3232.9611	3476.1785
N=C1OC2(CC2)C2CC12	[NH][C]1OC2(CC2)[C@H]2C[C@@H]12	
InChI=1S/C7H9NO/c8-6-4-3-5(4)7(9-6)1-2-7/h4-5,8H,1-3H2	InChI=1S/C7H9NO/c8-6-4-3-5(4)7(9-6)1-2-7/h4-5,8H,1-3H2/t4-,5+/m1/s1
