20
gdb 89586	4.5656	1.01865	0.976	1.5974	76.07	-0.215	0.0741	0.2892	1286.372	0.170962	-440.252792	-440.244239	-440.243295	-440.28691	31.656	
C	 0.0363126124	 1.5308712488	 0.0507088928	-0.320941
N	-0.0217051346	 0.0892488405	 0.0952353361	-0.063951
C	-1.2926293585	-0.5581425266	 0.4684079817	-0.215631
C	-0.4980073859	-1.5920468316	 1.3027945332	 0.385945
C	 0.6993029733	-0.6150123844	 1.1696040916	-0.225161
C	-0.9617611174	-2.0210462055	 2.7100009457	-0.182098
O	-1.264050697	-3.4019637185	 2.5834418893	-0.233337
C	-0.4020398596	-3.8530095023	 1.5712368355	 0.010257
O	-0.3385074951	-2.8240203867	 0.6100658824	-0.287901
H	 1.0600250429	 1.8561169721	-0.1627505101	 0.122238
H	-0.6071475507	 1.9049173178	-0.7526276272	 0.122761
H	-0.284467459	 2.0110263984	 0.9967692855	 0.084763
H	-1.9443342931	 0.072141023	 1.0973813126	 0.079118
H	-1.8716655431	-0.9621672457	-0.3678808236	 0.114935
H	 1.6597822467	-1.0530996488	 0.8777826187	 0.109872
H	 0.8372352883	-0.0087822657	 2.0828544832	 0.077497
H	-0.1567799244	-1.8599810375	 3.4446326177	 0.098169
H	-1.8586951705	-1.4993400156	 3.0515155926	 0.121026
H	 0.604386283	-4.0654005907	 1.97948169	 0.08048
H	-0.8208196578	-4.753061151	 1.1130051524	 0.121962
33.1712	78.8544	209.372	243.7417	281.1827	297.3701	300.5272	384.2497	421.2194	465.5807	713.4489	741.9268	801.4997	869.5361	891.5866	951.2263	960.7822	983.4025	1003.4206	1046.6497	1109.8298	1112.904	1126.3005	1132.5611	1159.812	1174.2273	1186.0299	1214.93	1230.8471	1234.2385	1264.524	1290.285	1300.4826	1353.857	1366.4324	1431.3492	1451.32	1483.8543	1485.4141	1496.7537	1510.3567	1513.7695	1542.7866	2907.6649	2922.2395	2941.3916	2958.9331	2979.6038	3055.7668	3061.8824	3072.7234	3092.63	3098.7372	3100.2891
CN1CC2(C1)COCO2	CN1CC2(C1)COCO2	
InChI=1S/C6H11NO2/c1-7-2-6(3-7)4-8-5-9-6/h2-5H2,1H3	InChI=1S/C6H11NO2/c1-7-2-6(3-7)4-8-5-9-6/h2-5H2,1H3
