19
gdb 57849	2.22315	1.34789	0.96446	3.7319	77.9	-0.2539	0.0035	0.2574	1277.8074	0.157317	-419.251677	-419.241037	-419.240093	-419.288072	36.407	
C	 0.2426301473	 1.2688823625	 1.3881807434	-0.380943
C	-0.2127488397	 0.6101450943	 0.0749850172	-0.271222
C	 0.6478684406	-0.5238860869	-0.2701441608	 0.278302
N	 1.3188240946	-1.4260723475	-0.5401791898	-0.329683
C	-1.7002587215	 0.1569199102	 0.1820332586	 0.429615
O	-2.2671535358	 0.2335916916	 1.2562273891	-0.366716
N	-2.3092022969	-0.2914896943	-0.9542520844	-0.09014
C	-3.6781905254	-0.7820710355	-0.8606588362	-0.347461
C	-1.6919048105	-0.4407881606	-2.2613259252	-0.340199
H	 1.2831625203	 1.5908971096	 1.3044847789	 0.126307
H	-0.3883924653	 2.1332216688	 1.6005490385	 0.138722
H	 0.145712535	 0.5694156377	 2.2187269868	 0.156628
H	-0.1272094488	 1.3425711745	-0.7366946268	 0.140817
H	-4.3274249373	-0.2288758434	-1.549347998	 0.126017
H	-3.7223020197	-1.8457607718	-1.1248606525	 0.130838
H	-4.0267157425	-0.6460237443	 0.1608473392	 0.17383
H	-0.7611686697	 0.1166069182	-2.3401293183	 0.147209
H	-1.4744287149	-1.493114962	-2.4831778562	 0.147683
H	-2.3768688998	-0.062398331	-3.0284923632	 0.130398
47.5078	79.0896	93.0129	135.4203	156.3502	201.7761	221.4422	246.5455	260.4144	344.6521	394.7551	447.2438	472.6013	581.5148	583.9125	698.6191	790.21	865.6695	959.3174	1031.1583	1080.4932	1087.2679	1115.3115	1129.302	1164.5367	1177.24	1266.7328	1283.1563	1322.7509	1410.1081	1422.8124	1435.828	1476.2933	1482.4133	1484.902	1489.5783	1500.9194	1502.8884	1540.3161	1766.319	2350.9986	3019.7477	3026.1382	3041.3294	3065.8594	3071.8137	3074.8302	3144.6561	3160.622	3168.9619	3178.6365
CC(C#N)C(=O)N(C)C	C[C@@H](C#N)C(=O)N(C)C	
InChI=1S/C6H10N2O/c1-5(4-7)6(9)8(2)3/h5H,1-3H3	InChI=1S/C6H10N2O/c1-5(4-7)6(9)8(2)3/h5H,1-3H3/t5-/m0/s1
