17
gdb 98517	2.88468	1.22328	0.92468	1.9933	70.75	-0.2557	-0.0298	0.226	1253.3097	0.133749	-458.997029	-458.987636	-458.986692	-459.03206	32.666	
C	-0.0483986999	 1.5264366191	-0.0365067072	-0.245134
O	 0.2318447607	 0.1210599082	 0.036737802	-0.242128
C	 0.4317201111	-0.4895567194	-1.1476428607	 0.42334
O	 0.3835128546	 0.084345704	-2.2092769794	-0.384917
C	 0.7166935825	-1.9448504936	-0.9890350427	 0.051583
C	 0.2207793777	-2.8442384214	-2.1394929024	-0.266262
C	 1.6607259119	-2.5520974061	-2.0466420986	-0.266253
C	 0.7580291797	-2.5773842834	 0.3603934592	 0.088348
O	 0.985654224	-3.7533004296	 0.5288863168	-0.282513
H	 0.7815939461	 2.0587930076	-0.5068227683	 0.145491
H	-0.9564487987	 1.706467404	-0.6166333845	 0.14545
H	-0.1800610819	 1.8544481331	 0.9943194867	 0.137776
H	-0.1257569988	-3.8200511022	-1.8204556421	 0.147975
H	-0.360250919	-2.3343893794	-2.8978406261	 0.148105
H	 2.0870152652	-1.8378593507	-2.7400219172	 0.1481
H	 2.316655589	-3.324512168	-1.6629593385	 0.147977
H	 0.5655974357	-1.8988876522	 1.2114701131	 0.103063
48.921	95.4182	119.725	150.3768	170.8621	259.4365	286.9998	326.2576	330.1335	404.6816	468.4204	712.9001	747.0424	791.7844	804.592	818.3623	909.8349	985.0528	991.026	1052.0011	1063.3158	1080.567	1117.5828	1178.8999	1185.244	1219.2809	1220.5232	1297.5335	1342.8054	1427.989	1438.9204	1474.0299	1474.8709	1481.6972	1497.1389	1791.8023	1811.0275	2969.0645	3056.241	3133.291	3150.4042	3151.6168	3163.8045	3247.0602	3260.6139
COC(=O)C1(CC1)C=O	COC(=O)C1(CC1)C=O	
InChI=1S/C6H8O3/c1-9-5(8)6(4-7)2-3-6/h4H,2-3H2,1H3	InChI=1S/C6H8O3/c1-9-5(8)6(4-7)2-3-6/h4H,2-3H2,1H3
