20
gdb 13819	3.47856	1.26635	1.15215	1.791	71.38	-0.2603	0.0806	0.3409	1160.3145	0.175343	-386.127469	-386.118245	-386.117301	-386.161502	33.802	
C	-0.0006578861	 1.1886683051	 0.5427001101	-0.381592
C	-0.0856710102	 0.2327504753	-0.654580955	-0.23553
C	-1.3669842766	-0.5682890723	-0.6275160113	 0.078935
O	-1.5219130751	-1.6762953757	-1.5388229462	-0.280721
C	-1.512388213	-1.9447552555	-0.1268107134	 0.028328
C	-0.3682550156	-2.8413952336	 0.3497499504	 0.098925
C	-0.8492231154	-4.287399488	 0.5152018617	-0.393934
O	 0.7332509366	-2.7764167646	-0.5399690909	-0.428259
H	 0.9085582437	 1.7939597206	 0.4910372223	 0.121486
H	-0.8552708457	 1.8739097682	 0.5718679909	 0.115928
H	 0.0170247979	 0.6397098016	 1.4899603489	 0.120847
H	-0.0627079443	 0.8097932783	-1.5879067336	 0.10398
H	 0.7708025936	-0.4433969573	-0.6651513782	 0.132735
H	-2.2690035269	 0.0475493627	-0.5774074477	 0.09014
H	-2.4884780766	-2.2257495727	 0.273149572	 0.090732
H	-0.0112662437	-2.4725647337	 1.3208740293	 0.09136
H	-1.630074656	-4.3616117604	 1.2801433217	 0.109281
H	-1.2546916745	-4.6679654219	-0.4286020391	 0.122485
H	-0.0112791123	-4.9234103524	 0.8107054361	 0.125784
H	 0.3479800402	-2.6254712938	-1.415277668	 0.28909
59.8251	81.3889	173.6339	194.979	233.2717	249.9278	299.8283	321.1489	408.2152	438.6592	496.5396	549.5644	654.6409	761.3988	784.4364	845.101	890.1995	932.1698	956.506	1020.5218	1038.6187	1056.4123	1094.9693	1121.2287	1153.8096	1170.0611	1191.364	1275.7621	1292.8522	1311.3379	1339.8694	1354.1625	1402.545	1407.8791	1413.2485	1439.6137	1482.9042	1493.8181	1495.1677	1496.0165	1499.5972	1511.7931	3017.5079	3030.6877	3032.3478	3034.2939	3069.5558	3092.8245	3093.9294	3102.8836	3112.2313	3124.4743	3128.49	3732.5901
CCC1OC1C(C)O	CC[C@H]1O[C@H]1[C@@H](C)O	
InChI=1S/C6H12O2/c1-3-5-6(8-5)4(2)7/h4-7H,3H2,1-2H3	InChI=1S/C6H12O2/c1-3-5-6(8-5)4(2)7/h4-7H,3H2,1-2H3/t4-,5-,6+/m1/s1
