15
gdb 101981	1.8863	1.59689	1.17764	0.1097	65.22	-0.2564	-0.0713	0.185	1094.3115	0.106634	-494.894425	-494.884502	-494.883558	-494.92995	33.111	
C	-0.1824750272	 1.4515133773	-0.1286090265	-0.272304
O	-0.021296881	 0.0285518584	-0.0451353204	-0.290692
C	 0.7068273558	-0.5019105343	 1.005902257	 0.092632
C	 0.1066593407	-0.2785597924	 2.4140765084	 0.126676
O	-0.8738708453	 0.3790277879	 2.6190751279	-0.231665
C	 0.6944558779	-2.0341879809	 0.8121810369	 0.121704
O	 1.2411075421	-2.7991612924	 1.5593975468	-0.249678
C	 2.2059829709	-0.1216702532	 1.0389648382	 0.126692
O	 2.7110953495	 0.6469785121	 0.2709260487	-0.231657
H	 0.7814505304	 1.9513335331	-0.2415825642	 0.145219
H	-0.7813044642	 1.6168362185	-1.0260621759	 0.136261
H	-0.7195430828	 1.8388215214	 0.7393137516	 0.145236
H	 0.6512559724	-0.8156603574	 3.2172073928	 0.123656
H	 0.1256230218	-2.3326206549	-0.0902498522	 0.134257
H	 2.7806377991	-0.6566651332	 1.8223220009	 0.123662
54.9953	85.6327	125.4459	133.7476	201.0468	204.3036	227.9969	254.082	315.4265	322.1783	392.6569	458.2939	637.1254	706.3957	786.1123	837.4673	930.9137	962.7828	1045.4414	1086.2834	1095.9725	1170.9996	1225.2873	1250.7812	1367.3257	1387.5464	1413.0939	1476.3724	1493.225	1514.955	1802.9898	1813.9154	1866.1693	2922.0119	2936.9123	2952.5178	3058.7981	3144.1953	3145.6443
COC(C=O)(C=O)C=O	COC(C=O)(C=O)C=O	
InChI=1S/C5H6O4/c1-9-5(2-6,3-7)4-8/h2-4H,1H3	InChI=1S/C5H6O4/c1-9-5(2-6,3-7)4-8/h2-4H,1H3
