23
gdb 115286	2.64108	1.25211	1.09145	0.6172	81.8	-0.2548	0.0814	0.3362	1268.4239	0.204514	-425.448296	-425.43833	-425.437386	-425.482895	37.465	
C	-0.5026702846	 1.1991768715	-0.2175713469	-0.242072
O	-0.302111286	-0.1994796939	-0.2951470054	-0.240969
C	 0.7839180855	-0.5648535286	-1.1146356219	 0.224898
C	 0.9343889195	-2.097248366	-1.0458212522	-0.278429
C	 0.7824211755	-2.5577789491	-2.5068966302	-0.241167
C	 0.0807509333	-1.3688085308	-3.1987494254	 0.380447
C	 0.5041400425	-1.1811964063	-4.6522295528	-0.433302
C	-1.448348924	-1.4450338582	-3.0754681892	-0.421015
O	 0.5833393274	-0.2269373618	-2.469526444	-0.291294
H	 0.3846539984	 1.707714127	 0.1905725532	 0.102563
H	-0.7286476004	 1.6282485284	-1.2006988609	 0.123256
H	-1.3467515507	 1.366080627	 0.4554020346	 0.122252
H	 1.6764825365	-0.0084043405	-0.7907582853	 0.065299
H	 1.8950339352	-2.3863925986	-0.6150198442	 0.106866
H	 0.1475897761	-2.4914505056	-0.3994810122	 0.122936
H	 1.7635949597	-2.7174076195	-2.9645950519	 0.098566
H	 0.2161427904	-3.4876291659	-2.6018279884	 0.101655
H	 0.2054813768	-2.0453563544	-5.2541023288	 0.112428
H	 0.0356075938	-0.2895519219	-5.079480666	 0.119494
H	 1.5892959486	-1.0650944171	-4.7214551458	 0.116116
H	-1.7543051628	-1.5651672093	-2.0337964948	 0.130227
H	-1.9000934365	-0.5238109281	-3.4554458544	 0.116
H	-1.8417037846	-2.2853694086	-3.6573948672	 0.105244
71.549	118.5658	134.1313	185.721	205.2833	236.0332	258.6876	313.6492	344.8309	391.0916	409.4395	454.0317	553.7803	614.7541	713.3621	773.6809	843.0461	859.1047	897.9938	929.7825	961.891	972.3064	1002.7338	1031.8498	1061.2889	1070.6186	1130.5675	1141.8313	1178.286	1180.5042	1224.0448	1237.7466	1266.1203	1274.1741	1318.4833	1343.7777	1369.4781	1395.6767	1404.2696	1414.2418	1471.8399	1475.4427	1482.5278	1483.3018	1491.0086	1495.2815	1503.5665	1509.9268	1514.7028	2983.602	2990.726	3035.1899	3040.0959	3052.7568	3061.82	3078.6792	3099.4062	3105.2667	3113.0959	3116.9666	3121.5122	3126.3159	3129.6383
COC1CCC(C)(C)O1	CO[C@H]1CCC(C)(C)O1	
InChI=1S/C7H14O2/c1-7(2)5-4-6(8-3)9-7/h6H,4-5H2,1-3H3	InChI=1S/C7H14O2/c1-7(2)5-4-6(8-3)9-7/h6H,4-5H2,1-3H3/t6-/m1/s1
