15
gdb 8828	3.02982	1.60589	1.12858	3.1452	62.25	-0.2909	-0.0118	0.2792	1040.4353	0.116928	-399.8473	-399.83829	-399.837345	-399.88215	30.042	
C	 0.8074193551	 1.4125950615	-0.0521510364	-0.243296
O	 0.9373058587	-0.0060045101	-0.2434927629	-0.222463
C	-0.0346205348	-0.584986571	-0.9565577319	 0.465283
O	-0.9914405218	-0.0173390383	-1.4107289101	-0.346702
C	 0.2143496951	-2.0989704953	-1.0848303482	-0.262213
C	-0.8575313561	-2.773036802	-1.9552623869	-0.38445
C	 1.5665889317	-2.3629831247	-1.5838834282	 0.279216
N	 2.6189278259	-2.5936879483	-2.0010841106	-0.318167
H	 0.7933690147	 1.9262124014	-1.0160252596	 0.150854
H	-0.1145875688	 1.6414509504	 0.4874228553	 0.146119
H	 1.678668037	 1.710708471	 0.5295255696	 0.145965
H	 0.1692504328	-2.4991728041	-0.0631071144	 0.157572
H	-0.6951336295	-3.8523369742	-1.9844159093	 0.136609
H	-1.8459812284	-2.5664307212	-1.541942897	 0.143879
H	-0.8262029815	-2.3828347051	-2.9741289893	 0.151794
25.107	110.1459	122.2437	165.5523	196.8609	225.061	253.095	325.7329	415.9424	473.4203	571.3892	595.0169	779.1003	834.8576	897.0395	996.5516	1040.5031	1115.1115	1124.7489	1179.4051	1207.5829	1242.2785	1309.3425	1311.9323	1414.9335	1474.0255	1483.5828	1487.0483	1493.1813	1495.5037	1833.9279	2362.3269	3032.955	3058.0119	3066.1372	3135.9966	3147.0459	3151.8279	3170.9093
COC(=O)C(C)C#N	COC(=O)[C@@H](C)C#N	
InChI=1S/C5H7NO2/c1-4(3-6)5(7)8-2/h4H,1-2H3	InChI=1S/C5H7NO2/c1-4(3-6)5(7)8-2/h4H,1-2H3/t4-/m0/s1
