19
gdb 55088	3.39035	1.12937	0.99134	3.0936	76.41	-0.2424	0.0247	0.2672	1246.5605	0.15924	-419.206929	-419.197747	-419.196803	-419.241629	33.985	
C	 0.3468012554	 1.5361878693	 0.0457980568	-0.487076
C	-0.0226616914	 0.0850556118	 0.0497550814	 0.365757
C	-1.4390225645	-0.4848261695	-0.1497327258	-0.316376
C	-1.1016870794	-1.6409910742	 0.8438281593	-0.131944
C	 0.3140876711	-1.0328660065	 0.9961901155	-0.084713
N	 0.9847875343	-0.9180954949	-0.2930030988	-0.366855
C	-1.9019713567	-1.5685204346	 2.1385982307	 0.407553
N	-1.9774084943	-2.7468353782	 2.8242026733	-0.530493
O	-2.4082965768	-0.542741524	 2.5529140275	-0.363205
H	 1.3840589621	 1.6664442569	 0.364981256	 0.130135
H	 0.2482288392	 1.9623789166	-0.9598981929	 0.118248
H	-0.3047285682	 2.1033069405	 0.7181643867	 0.130458
H	-2.2175860867	 0.1534051732	 0.2710582967	 0.140262
H	-1.7001901864	-0.7723945664	-1.1736101539	 0.087632
H	-1.1094623937	-2.6596548418	 0.4379081245	 0.06381
H	 0.9184080559	-1.0471252023	 1.8969312361	 0.097203
H	 0.6600528832	-1.6042695133	-0.9727987533	 0.219836
H	-1.4995303134	-3.5762767677	 2.519708803	 0.258696
H	-2.4046946297	-2.740914675	 3.7360377072	 0.261073
30.9997	87.2996	169.8785	185.2917	215.4667	294.8132	309.2281	382.6984	391.6523	470.7426	572.0319	613.6737	645.9919	720.2652	780.1943	797.4564	836.8254	919.7557	955.4217	972.6853	989.9742	1008.8271	1062.5851	1076.7754	1106.026	1130.6863	1148.9846	1182.7622	1228.2169	1249.71	1257.3379	1286.3164	1288.2777	1398.2921	1401.541	1446.7836	1477.3045	1485.7672	1494.7321	1616.7305	1792.2101	3027.8521	3029.698	3047.7826	3092.3523	3122.2323	3131.4846	3170.1073	3453.3662	3601.9816	3739.4221
CC12CC(C1N2)C(N)=O	C[C@]12C[C@@H]([C@H]1N2)C(=O)N	
InChI=1S/C6H10N2O/c1-6-2-3(5(7)9)4(6)8-6/h3-4,8H,2H2,1H3,(H2,7,9)	InChI=1S/C6H10N2O/c1-6-2-3(5(7)9)4(6)8-6/h3-4,8H,2H2,1H3,(H2,7,9)/t3-,4+,6-/m0/s1
