17
gdb 124860	3.64574	1.32153	1.05706	1.915	74.08	-0.2579	-0.0226	0.2354	1126.4313	0.137609	-414.17075	-414.162903	-414.161959	-414.203472	29.487	
C	 0.0633468047	 1.5086552681	-0.1876094298	-0.465328
C	 0.0025326133	 0.0030665769	-0.0285448983	 0.245563
C	 1.2962481484	-0.7950467923	-0.0837098035	-0.292192
C	 0.5864004835	-0.6280691508	 1.2261548246	-0.292256
C	-1.1947951435	-0.6450125036	-0.5949469476	 0.371641
N	-2.1772498571	 0.0067722815	-1.2128169896	-0.291326
N	-2.9926844578	-0.9950714324	-1.5259688079	-0.075679
N	-2.5754368336	-2.1907003123	-1.1452513743	-0.098033
N	-1.4313928683	-1.9881929324	-0.5498710354	-0.274245
H	 0.9815692143	 1.8989001062	 0.2603150352	 0.110994
H	 0.0480631207	 1.7973738805	-1.2432066591	 0.128534
H	-0.7880931532	 1.994120585	 0.2994901914	 0.12848
H	 1.2581055136	-1.7694598684	-0.5560031177	 0.137449
H	 2.2079140995	-0.2334459044	-0.2570122291	 0.114772
H	 1.0051839483	 0.0494824736	 1.9624330022	 0.114751
H	 0.0718177492	-1.4904001659	 1.6330668188	 0.137528
H	-3.8636478821	-0.8587375092	-2.0163774098	 0.299349
56.8492	176.5666	184.6752	224.6371	303.17	323.5396	449.7097	462.908	546.0122	559.8883	731.5876	792.0356	794.8671	848.6383	848.8417	958.1207	962.2804	1029.0393	1050.7386	1061.911	1076.4471	1089.1822	1122.3853	1132.7614	1178.9991	1199.7823	1246.7435	1265.5171	1314.889	1364.5175	1419.5695	1460.0374	1484.0383	1486.1938	1497.729	1499.9225	1554.3793	3037.8774	3104.4147	3113.0276	3136.2157	3138.9763	3224.2458	3237.3936	3651.949
CC1(CC1)C1=NNN=N1	CC1(CC1)c1n[nH]nn1	
InChI=1S/C5H8N4/c1-5(2-3-5)4-6-8-9-7-4/h2-3H2,1H3,(H,6,7,8,9)	InChI=1S/C5H8N4/c1-5(2-3-5)4-6-8-9-7-4/h2-3H2,1H3,(H,6,7,8,9)
