14
gdb 29228	3.23928	1.43354	0.99384	6.8157	69.19	-0.2073	-0.0261	0.1812	1090.3204	0.102184	-470.077403	-470.069171	-470.068227	-470.110057	30.617	
N	 0.0276530722	 1.3290018955	-0.0446149626	-0.552724
C	 0.0081353586	-0.0239613454	-0.0188651571	 0.371882
N	-1.1462177433	-0.6452149013	-0.0141828806	-0.415912
C	-1.2093995272	-2.0193474117	-0.0124400005	 0.424619
O	-2.2320393806	-2.6746977611	-0.0102756787	-0.403816
N	 0.0363456645	-2.6927891742	-0.0107079511	-0.354677
C	 1.2446048174	-2.0571418917	-0.0078432583	-0.079821
C	 1.2823381533	-0.7065648256	-0.0125218966	 0.238599
O	 2.4056882647	 0.0823147689	-0.0082514636	-0.461545
H	 0.8940275712	 1.8235084334	 0.0707348516	 0.275821
H	-0.8489367607	 1.8141326361	 0.0445224059	 0.270989
H	-0.0197431119	-3.6992785201	-0.006145924	 0.262823
H	 2.133314302	-2.6790873449	-0.0013238127	 0.122548
H	 3.1942869696	-0.4687710679	 0.0185442185	 0.301213
100.5281	163.0728	184.3201	215.8525	312.369	343.9034	384.04	387.5808	491.0651	537.1693	565.7759	587.8034	607.0456	752.3198	765.5407	786.8892	802.1204	868.3247	918.1602	1086.8274	1148.2981	1194.3513	1240.241	1318.4794	1375.0851	1427.4556	1529.4663	1578.8037	1627.2997	1724.4814	1804.5154	3186.4492	3616.9227	3638.5555	3755.6694	3827.0016
NC1=NC(=O)NC=C1O	Nc1nc(=O)[nH]cc1O	
InChI=1S/C4H5N3O2/c5-3-2(8)1-6-4(9)7-3/h1,8H,(H3,5,6,7,9)	InChI=1S/C4H5N3O2/c5-3-2(8)1-6-4(9)7-3/h1,8H,(H3,5,6,7,9)
