14
gdb 128942	7.39265	0.75082	0.69245	4.1331	69.07	-0.246	-0.0158	0.2302	1493.2296	0.102068	-432.857999	-432.850107	-432.849163	-432.891887	27.743	
N	-0.0917905232	-1.1144101935	 0.3760550803	-0.285135
C	-0.0255357986	 0.0112940781	 0.1287811879	 0.259798
C	 0.0582292878	 1.4334296365	-0.2154353784	-0.277341
N	 1.3327422581	 1.9916867612	 0.212529503	-0.393634
C	 1.5285156504	 3.356591212	 0.0795571874	 0.46151
N	 2.7231034736	 3.821534322	-0.2233050657	-0.233799
O	 2.5978738302	 5.2124615098	-0.1876789799	-0.160912
C	 1.3344577182	 5.5255410193	 0.1101730828	 0.095846
C	 0.5860165685	 4.4098896302	 0.2945127242	-0.336953
H	-0.1307670939	 1.5374235417	-1.2962012774	 0.156635
H	-0.7541811394	 1.9550582623	 0.3013584065	 0.169505
H	 2.1358665366	 1.4626604191	-0.1037731705	 0.264414
H	 1.1085804686	 6.5796988177	 0.163239476	 0.15643
H	-0.456130107	 4.3503714936	 0.5574803038	 0.123635
41.793	72.2198	115.7064	221.244	328.2953	381.2421	420.6635	501.7203	595.7764	672.8202	727.1011	769.0544	772.4934	871.0122	912.673	943.5065	958.0082	997.1964	1004.4686	1100.8031	1139.8616	1175.6773	1251.03	1335.8163	1357.1329	1432.0325	1488.1674	1498.944	1526.5974	1638.0919	2374.1345	2978.5019	3074.7721	3260.2001	3288.24	3575.581
N#CCNC1=NOC=C1	N#CCNc1nocc1	
InChI=1S/C5H5N3O/c6-2-3-7-5-1-4-9-8-5/h1,4H,3H2,(H,7,8)	InChI=1S/C5H5N3O/c6-2-3-7-5-1-4-9-8-5/h1,4H,3H2,(H,7,8)
