18
gdb 54590	2.71932	1.5401	1.15987	2.8772	72.02	-0.2294	-0.0262	0.2032	1084.0363	0.146807	-439.052331	-439.043806	-439.042862	-439.086204	31.347	
C	 0.575327548	 0.7280971074	-0.8822684129	-0.472426
C	-0.0762488804	 0.1759537349	 0.366079333	 0.316087
O	 0.3372203915	 0.4179725089	 1.4796988115	-0.306832
C	-1.2701334072	-0.7400050781	 0.1842889085	 0.166434
C	-2.2068063782	-0.9245121577	 1.3998027596	-0.120142
O	-2.0880592259	-2.3685731603	 1.3514570164	-0.282189
C	-1.1933944615	-2.3081174849	 0.2402419125	 0.070113
C	-1.9156213441	-2.3182966957	-1.1237655043	-0.186421
N	-1.8685000116	-0.8283612075	-1.1610860949	-0.378325
H	 1.4452996691	 1.323905457	-0.6043710015	 0.135269
H	 0.8662236251	-0.0842266944	-1.5559219298	 0.142778
H	-0.1408332768	 1.3366199558	-1.4439098783	 0.144171
H	-1.7923644859	-0.5216769591	 2.3280951567	 0.134312
H	-3.2394887533	-0.581856253	 1.2582791802	 0.095194
H	-0.2874099687	-2.900184529	 0.383024882	 0.09646
H	-1.3673478739	-2.7711695175	-1.9575367295	 0.109383
H	-2.9108071539	-2.7700116744	-1.0570781734	 0.114781
H	-2.7653746223	-0.3642427526	-1.2643601658	 0.221354
44.4557	114.8495	129.3496	167.5679	248.6902	346.7873	383.4748	418.2352	492.6481	577.8268	623.1595	637.0837	790.5866	834.0413	878.8301	920.0302	953.4937	964.355	990.8393	1001.4018	1035.5927	1063.8828	1091.1245	1105.0035	1151.5067	1175.5672	1198.6341	1203.0349	1289.4566	1304.1799	1325.6176	1352.6634	1375.7893	1385.2424	1447.7867	1463.5131	1499.5254	1509.059	1793.8593	3020.8517	3028.214	3046.7493	3079.925	3096.8228	3099.6578	3106.3068	3157.0817	3516.3078
CC(=O)C12COC1CN2	CC(=O)[C@]12CO[C@H]1CN2	
InChI=1S/C6H9NO2/c1-4(8)6-3-9-5(6)2-7-6/h5,7H,2-3H2,1H3	InChI=1S/C6H9NO2/c1-4(8)6-3-9-5(6)2-7-6/h5,7H,2-3H2,1H3/t5-,6+/m0/s1
