16
gdb 69290	3.92399	1.20278	1.05547	5.5021	76.09	-0.2661	-0.0636	0.2025	1140.2241	0.125089	-396.92738	-396.91957	-396.918626	-396.959616	29.453	
C	 0.0010833744	 1.508912995	 0.0048214483	-0.479499
C	 0.0081159078	 0.0024181651	 0.0194299235	 0.303953
C	 0.3103330374	-0.7588789011	 1.2562276991	-0.289599
N	 1.3234701807	-0.6887721795	 0.1604185953	-0.181678
C	 1.1698390433	-1.8018963648	-0.7189445934	 0.235065
N	 0.1135663489	-1.9101148547	-1.4265869617	-0.252843
C	-0.7379286998	-0.7605734376	-1.0840118188	-0.244039
C	 2.2461464584	-2.7523609895	-0.7825167307	 0.283122
N	 3.1198145444	-3.5084593536	-0.8085076824	-0.316702
H	 0.692115553	 1.9106584507	 0.7498219228	 0.138377
H	 0.2972336537	 1.8893824716	-0.9781279789	 0.133512
H	-1.0019636447	 1.8885714258	 0.2276106826	 0.130841
H	 0.6001906458	-0.2279913274	 2.1573827971	 0.135121
H	-0.1746641323	-1.7179810694	 1.4186319936	 0.137331
H	-1.7319249095	-1.1160942373	-0.792282882	 0.134383
H	-0.8693979115	-0.1370467733	-1.9770745543	 0.132656
112.1241	154.8993	193.6671	227.7918	318.3061	370.7541	386.1863	444.262	540.71	560.9458	627.1126	719.2261	779.0094	814.0389	846.5299	928.9588	962.5097	985.1087	1001.3556	1042.1284	1100.4724	1120.9977	1130.6936	1202.6147	1231.3395	1270.0251	1334.4796	1385.0365	1421.9928	1478.0069	1487.9405	1493.4367	1508.8134	1664.027	2363.1284	3034.5091	3038.6373	3073.7427	3102.6903	3114.9038	3125.3537	3209.1077
CC12CN1C(=NC2)C#N	C[C@]12CN1C(=NC2)C#N	
InChI=1S/C6H7N3/c1-6-3-8-5(2-7)9(6)4-6/h3-4H2,1H3	InChI=1S/C6H7N3/c1-6-3-8-5(2-7)9(6)4-6/h3-4H2,1H3/t6-,9?/m0/s1
