19
gdb 15092	3.29338	1.35776	1.06591	3.7952	67.26	-0.2435	0.0531	0.2965	1121.416	0.165618	-402.151875	-402.142983	-402.142039	-402.1856	32.403	
O	 0.3215984199	 1.2546743035	 0.0026649365	-0.430471
C	 0.0178983848	-0.1114568772	-0.169635407	-0.044734
C	-1.4765506263	-0.4488523518	 0.0402230908	-0.042568
C	-2.3436231418	 0.0432797106	-1.1216602524	-0.105086
O	-2.0801995004	 1.4309637401	-1.3320530837	-0.423541
C	-1.6271061738	-1.9367355873	 0.3302619456	 0.009673
C	-2.7333018949	-2.7957134584	-0.1642654287	-0.254789
N	-1.3646752873	-2.9799479508	-0.6814199243	-0.316301
H	-0.2978533055	 1.7376777532	-0.5590021776	 0.288994
H	 0.3322634299	-0.4788256942	-1.1630281478	 0.075436
H	 0.6137434538	-0.6583082389	 0.5694486802	 0.106216
H	-1.7950442028	 0.0950262676	 0.9393609217	 0.097124
H	-2.1130477884	-0.5266914809	-2.036321367	 0.08548
H	-3.4069375431	-0.1078100379	-0.891052078	 0.102814
H	-2.534994084	 1.71582632	-2.1295066696	 0.295564
H	-1.2027754922	-2.205069073	 1.2965084864	 0.100887
H	-3.1016033423	-3.6093578082	 0.4545263428	 0.119344
H	-3.4835018256	-2.3658748115	-0.8214056291	 0.109148
H	-1.2912882399	-2.563903075	-1.6068265187	 0.22681
69.9718	95.6139	145.7041	204.5838	237.2512	258.1017	306.8456	378.5806	409.5259	458.2083	537.9639	582.0573	803.7708	827.4888	864.9732	910.581	947.465	975.821	995.444	1059.1255	1083.4613	1098.7918	1120.1747	1140.5263	1163.7307	1187.2727	1224.2769	1254.1915	1257.902	1286.0498	1305.0719	1313.3632	1368.1878	1390.8135	1418.7804	1463.8198	1465.6298	1504.1502	1513.8302	1525.273	2941.7512	2967.7073	3015.6405	3033.1817	3061.9314	3111.9879	3116.3351	3193.397	3496.8934	3766.2682	3838.2723
OCC(CO)C1CN1	OCC(CO)[C@H]1CN1	
InChI=1S/C5H11NO2/c7-2-4(3-8)5-1-6-5/h4-8H,1-3H2	InChI=1S/C5H11NO2/c7-2-4(3-8)5-1-6-5/h4-8H,1-3H2/t5-/m1/s1
