21
gdb 122367	5.02562	0.70989	0.69711	2.6775	80.44	-0.2353	0.0822	0.3175	1709.0993	0.181313	-424.141308	-424.132189	-424.131244	-424.176528	33.362	
C	-1.0972609934	 1.0306685924	-0.5460508732	-0.384473
C	 0.0003640503	 0.1034439214	-0.0526449026	-0.023816
O	 0.5930746489	-0.5280507688	-1.1694849874	-0.244584
C	 1.6343955556	-1.4173327137	-0.8225318055	-0.115743
C	 2.2234360263	-1.9555332334	-2.1103744442	 0.034656
C	 3.0950324762	-3.2410337029	-2.1831813684	 0.023824
C	 1.8486403453	-4.1329439868	-1.9628190897	-0.232161
C	 1.5124092643	-3.0238591857	-2.9880257981	 0.051735
O	 2.8211033725	-3.2873912407	-3.6383903984	-0.310849
H	-0.6852276294	 1.7885153018	-1.2183125651	 0.128016
H	-1.8590710638	 0.4669564696	-1.0919629355	 0.126638
H	-1.5767530614	 1.5369005087	 0.2970410529	 0.114882
H	 0.7615926717	 0.6691727497	 0.5115358602	 0.085459
H	-0.4122675881	-0.6525420186	 0.6375477286	 0.084048
H	 2.4188258975	-0.8883701264	-0.2528441907	 0.087393
H	 1.2521221767	-2.2161271567	-0.1679520285	 0.086158
H	 2.6348501807	-1.146700003	-2.7184956347	 0.091152
H	 4.1260153404	-3.39649601	-1.86263878	 0.092284
H	 1.9290291111	-5.1331540007	-2.3892958413	 0.109937
H	 1.3529197295	-4.1297714546	-0.9904372146	 0.09776
H	 0.6425835992	-2.9148456016	-3.6350252738	 0.097683
41.3395	76.1054	100.1304	124.9263	245.2541	262.9009	305.8554	366.4567	471.1861	557.4241	641.2686	726.6695	798.2527	821.3244	839.1081	875.1808	884.0856	922.8245	942.3905	1007.4996	1014.3096	1040.463	1078.9358	1097.4799	1124.4436	1142.6947	1157.1517	1171.1333	1173.6117	1190.2197	1201.9775	1218.4522	1253.6071	1266.459	1287.7326	1296.0879	1361.2643	1396.3039	1412.3445	1456.3143	1483.4708	1490.1792	1499.6088	1517.0395	1536.4271	2944.5946	2955.6453	2974.0577	2990.1433	3044.8178	3076.097	3094.7321	3109.8217	3119.2505	3121.591	3127.0541	3151.5391
CCOCC1C2CC1O2	CCOC[C@H]1[C@H]2C[C@@H]1O2	
InChI=1S/C7H12O2/c1-2-8-4-5-6-3-7(5)9-6/h5-7H,2-4H2,1H3	InChI=1S/C7H12O2/c1-2-8-4-5-6-3-7(5)9-6/h5-7H,2-4H2,1H3/t5-,6+,7-
