21
gdb 90274	2.46554	1.51901	1.22497	1.5431	86.16	-0.2186	0.0149	0.2335	1141.5195	0.182383	-387.073928	-387.065102	-387.064158	-387.107161	33.627	
C	 0.1396971867	 1.5452780682	-0.035175227	-0.384075
C	 0.0430134495	 0.0278345107	-0.0186697688	-0.028499
C	 1.2091541976	-0.7100776288	-0.7975300393	-0.330411
C	 1.8657926641	-0.8464216168	 0.5606279089	 0.116878
C	 2.8975669504	-0.3868038146	 1.264728976	 0.159022
C	 4.307870512	-0.1115200941	 0.8575585053	-0.495796
C	 2.3433977172	 0.0050532805	 2.6341451776	-0.147869
O	 0.9138937192	 0.0640842108	 2.4830681151	-0.277374
C	 0.591016213	-0.6522337843	 1.3048534065	 0.090087
H	 1.1475282292	 1.8779378813	 0.23274172	 0.117666
H	-0.0960117274	 1.9407948631	-1.0285033997	 0.10938
H	-0.5557924128	 1.9879635864	 0.6840615232	 0.125148
H	-0.9611310619	-0.3028386322	-0.3004158724	 0.069617
H	 0.8737318297	-1.654433216	-1.2364083413	 0.109686
H	 1.749061859	-0.1365051549	-1.5553780609	 0.10693
H	 4.583085894	 0.9342079122	 1.0456876792	 0.125028
H	 5.0172277322	-0.7271996314	 1.4258151299	 0.130782
H	 4.4633189751	-0.3236171634	-0.2036844853	 0.127793
H	 2.6079897991	-0.7037939763	 3.4365055002	 0.098633
H	 2.7087151969	 0.9952310694	 2.9404572082	 0.105074
H	 0.0083005071	-1.5511512499	 1.5519989446	 0.0723
95.2867	166.1104	170.4108	195.2127	209.9927	229.8261	305.9733	370.0851	448.8743	499.193	596.0853	683.2163	706.218	792.1983	804.3365	863.7988	887.7136	925.0974	963.8106	974.0147	1018.3027	1026.496	1073.0759	1080.8798	1121.5644	1131.9018	1140.4713	1163.7587	1193.9299	1199.2558	1241.0475	1252.4089	1287.9759	1336.6546	1357.1526	1377.596	1411.9593	1413.9345	1477.8336	1481.8252	1490.1307	1492.4963	1496.5127	1516.3463	1762.1009	2961.8739	2994.3156	3014.0939	3018.4685	3036.1951	3050.0062	3058.8647	3060.4267	3103.8845	3104.4876	3110.4163	3110.8708
CC1CC2=C(C)COC12	C[C@H]1C[C]2[C](C)CO[C@@H]12	
InChI=1S/C8H12O/c1-5-3-7-6(2)4-9-8(5)7/h5,8H,3-4H2,1-2H3	InChI=1S/C8H12O/c1-5-3-7-6(2)4-9-8(5)7/h5,8H,3-4H2,1-2H3/t5-,8-/m0/s1
