13
gdb 48375	2.61377	1.26986	0.99891	4.5036	71.81	-0.2754	-0.0589	0.2165	1151.4663	0.086657	-415.554892	-415.546255	-415.545311	-415.588577	30.536	
O	-0.3445021042	 0.4316312034	 0.7817866882	-0.228694
C	 0.2663867868	 0.8277962687	-0.1708342153	 0.147151
C	 1.3679606455	 1.8556305706	-0.088938822	 0.03758
N	 2.3380222183	 1.7895796057	-1.2013914173	-0.329378
C	 1.4462325557	 2.9439525351	-1.161319605	-0.291187
C	 0.4463511916	 3.0766656081	-2.1836038664	 0.364203
C	-0.3933399438	 3.2292974023	-3.0288634892	-0.384371
C	 1.8260637796	 2.2189804813	 1.2296585849	 0.24822
N	 2.233157291	 2.516741911	 2.2696416486	-0.321987
H	 0.0866643066	 0.4775201909	-1.2056077367	 0.11789
H	 3.2686181336	 2.0367075421	-0.8720700941	 0.269897
H	 1.8516604475	 3.8829677988	-0.7903448672	 0.152377
H	-1.1351048081	 3.3570904422	-3.7791052184	 0.218299
79.8187	110.5907	142.8515	163.2188	243.9672	279.9909	322.4045	431.8703	477.424	554.2809	591.8825	604.2263	654.8669	682.7221	751.6894	778.7195	891.9643	962.4806	1036.1334	1042.0785	1071.2797	1192.7733	1254.9053	1331.7248	1400.6026	1430.2069	1839.4251	2246.6276	2359.2005	2959.9805	3136.8792	3498.5649	3512.5106
O=CC1(NC1C#C)C#N	O=C[C@]1(N[C@H]1C#C)C#N	
InChI=1S/C6H4N2O/c1-2-5-6(3-7,4-9)8-5/h1,4-5,8H	InChI=1S/C6H4N2O/c1-2-5-6(3-7,4-9)8-5/h1,4-5,8H/t5-,6+/m0/s1
