20
gdb 15618	3.12415	1.66641	1.12951	1.4342	78.87	-0.2139	0.0398	0.2537	1085.2953	0.176888	-349.022126	-349.013181	-349.012236	-349.056014	32.406	
C	 0.2187827519	 1.5538547506	 0.0673917703	-0.503298
C	 0.0356128505	 0.0730884485	-0.074953135	 0.22048
C	-1.0785486889	-0.6710525748	-0.0349741649	 0.218277
C	-2.5164386042	-0.3034608023	 0.1651145679	-0.177324
O	-2.7291560447	 1.0959886008	 0.2386197849	-0.410462
C	-0.7831638061	-2.1399672008	-0.2836903755	-0.28762
C	 0.7503457205	-2.2334318912	-0.127102195	-0.209172
C	 1.2517547062	-0.7921463241	-0.3569993451	-0.27812
H	 0.9109177128	 1.7744866655	 0.8912721095	 0.111574
H	 0.6830193057	 1.9695246941	-0.8374869654	 0.113257
H	-0.7203029588	 2.0715187838	 0.2469590186	 0.153997
H	-3.1013718571	-0.7441922966	-0.6633124393	 0.09165
H	-2.8774591785	-0.8031949707	 1.0829285505	 0.093282
H	-3.6631021398	 1.243612472	 0.4110460505	 0.287594
H	-1.3177831812	-2.804648897	 0.4072731765	 0.092101
H	-1.1091167609	-2.4295819702	-1.2944235944	 0.098425
H	 0.993111993	-2.5452911264	 0.8938914833	 0.101275
H	 1.2046679726	-2.9619617953	-0.8038674244	 0.092199
H	 1.5939245836	-0.6356542995	-1.3914164846	 0.097954
H	 2.1039055236	-0.5332622963	 0.2836878717	 0.093931
40.935	139.0103	156.3936	172.112	228.733	235.7613	287.0799	337.9487	401.0477	506.2525	591.6131	652.7191	700.0036	851.4718	891.4825	923.4351	942.6276	971.532	1017.3133	1044.9554	1071.6914	1080.6693	1101.9774	1152.9928	1168.2494	1211.9772	1233.3225	1253.12	1264.9323	1269.7573	1328.4225	1329.0757	1350.8134	1410.322	1468.0701	1485.1225	1485.4697	1491.832	1494.4932	1506.4501	1509.412	1746.3655	2927.6676	2936.6201	2989.793	2991.5136	3011.0527	3028.4335	3036.6496	3047.2562	3055.6306	3096.1928	3180.9099	3836.1878
CC1=C(CO)CCC1	CC1=C(CO)CCC1	
InChI=1S/C7H12O/c1-6-3-2-4-7(6)5-8/h8H,2-5H2,1H3	InChI=1S/C7H12O/c1-6-3-2-4-7(6)5-8/h8H,2-5H2,1H3
