21
gdb 96412	2.00961	1.5977	1.17687	1.5473	83.01	-0.2528	0.0458	0.2986	1159.3456	0.183581	-387.081917	-387.073104	-387.07216	-387.114872	35.026	
O	 0.0654488269	 1.4212184169	-0.0096845481	-0.441202
C	 0.0294061975	 0.0076162468	 0.03122459	 0.131682
C	 0.8550989498	-0.5675156708	 1.187649385	-0.214463
C	 0.8348567731	-2.1038777919	 1.1939979647	-0.199665
C	-0.602115023	-2.6438539013	 1.2264978128	-0.186928
C	-1.435780003	-2.0771710922	 0.0703521393	-0.214333
C	-1.430590543	-0.528543533	 0.0538792976	-0.172465
C	-2.1612051333	 0.0429039919	 1.1850153845	 0.322736
C	-2.7328259614	 0.5413332822	 2.1200381229	-0.489182
H	-0.4346640934	 1.7391174265	 0.7527806923	 0.279708
H	 0.4723685166	-0.3173161028	-0.9186147554	 0.085015
H	 1.8782784985	-0.1862509418	 1.1095997594	 0.100383
H	 0.4429667742	-0.1890491568	 2.1326092088	 0.098906
H	 1.342090978	-2.4773631697	 0.2934033813	 0.093714
H	 1.404515077	-2.4833981357	 2.0491375034	 0.094809
H	-0.5996773711	-3.7382248446	 1.1781865193	 0.092669
H	-1.0744506	-2.370821047	 2.1783698409	 0.108402
H	-1.0204239532	-2.4220698023	-0.8853971732	 0.097462
H	-2.4671409728	-2.4400807536	 0.1185759912	 0.105259
H	-1.9168079176	-0.1797121551	-0.865602115	 0.107347
H	-3.2601108897	 0.9673975443	 2.9377523182	 0.200145
106.2535	139.5584	172.0509	245.9605	321.8722	330.1986	374.234	395.0388	416.5215	434.2853	521.6102	610.1949	619.6581	649.8482	651.2131	768.8679	809.5393	851.9056	880.6715	919.0251	949.0402	994.2205	1034.8697	1065.6919	1092.1621	1099.707	1113.5712	1139.8976	1212.2335	1255.3264	1259.4773	1280.8277	1303.2065	1336.3055	1353.2824	1369.0643	1379.4669	1383.5624	1398.8141	1435.0745	1481.3507	1484.9919	1489.9793	1501.6548	2220.7083	3011.5614	3021.648	3022.1794	3030.1936	3030.6193	3040.2113	3066.1794	3073.0671	3080.4148	3082.7407	3500.6335	3770.3244
OC1CCCCC1C#C	O[C@H]1CCCC[C@H]1C#C	
InChI=1S/C8H12O/c1-2-7-5-3-4-6-8(7)9/h1,7-9H,3-6H2	InChI=1S/C8H12O/c1-2-7-5-3-4-6-8(7)9/h1,7-9H,3-6H2/t7-,8+/m1/s1
