17
gdb 81534	4.14845	1.1809	1.02723	1.5472	70.38	-0.2501	-0.0445	0.2056	1161.2986	0.133796	-458.901994	-458.893837	-458.892893	-458.934437	31.463	
C	-0.0936934833	 1.594910198	-0.0344670155	-0.440195
C	-0.0260461974	 0.0804245143	-0.012165543	 0.024001
C	 1.2346541993	-0.6225009536	-0.5948652491	-0.031745
O	 2.0252112533	-0.1469721213	 0.5586741644	-0.311866
C	 0.7521207806	-0.6184723655	 1.1406070687	-0.031835
C	 0.8841147881	-1.9061099796	 0.2451092004	 0.352825
O	-0.2420173034	-2.6394679027	-0.0669446294	-0.488147
C	 2.0422977936	-2.8151293004	 0.5703070618	 0.088196
O	 1.8970744048	-4.0175681823	 0.5344150628	-0.284513
H	 0.8709591434	 2.0312716641	 0.2325123655	 0.137752
H	-0.3763477266	 1.9538683944	-1.0297088929	 0.121343
H	-0.8487512009	 1.9578094282	 0.67083156	 0.121339
H	-0.9711982678	-0.3983450477	-0.2738356229	 0.110449
H	 1.6899477214	-0.5494529882	-1.5836038898	 0.102344
H	 0.6318389393	-0.540782311	 2.2221446404	 0.10236
H	 0.0309933246	-3.5698738149	 0.0138059069	 0.296992
H	 2.9979806807	-2.3389135017	 0.8344541915	 0.130701
99.601	182.451	217.3643	258.0367	264.3721	326.383	360.2853	426.3359	442.1569	543.055	572.7294	696.0149	740.5415	798.5693	801.2337	836.84	881.1313	888.1586	1008.5048	1025.3467	1062.1094	1072.0588	1118.6314	1126.6801	1143.0392	1153.7946	1206.1753	1213.7398	1273.3241	1299.8611	1359.7445	1393.7787	1408.1381	1454.9248	1494.8962	1504.0906	1788.5817	3034.8962	3039.7712	3097.8677	3104.816	3110.1158	3116.8639	3136.1458	3646.4656
CC1C2OC1C2(O)C=O	C[C@H]1[C@H]2O[C@@H]1[C@]2(O)C=O	
InChI=1S/C6H8O3/c1-3-4-6(8,2-7)5(3)9-4/h2-5,8H,1H3	InChI=1S/C6H8O3/c1-3-4-6(8,2-7)5(3)9-4/h2-5,8H,1H3/t3-,4+,5-,6-
