17
gdb 88240	3.97136	0.74699	0.68823	1.597	80.79	-0.2384	0.0187	0.2571	1635.5834	0.133885	-421.74884	-421.739531	-421.738586	-421.78487	32.727	
O	-0.0086702342	 1.1655149849	-0.5202085435	-0.416363
C	-0.0490442033	-0.1511658327	-0.0809637491	 0.12835
C	-0.355492404	-0.3689613585	 1.3623000171	-0.297805
C	-1.3947814984	-0.763299788	 0.3115638209	-0.239367
C	-2.5786812485	 0.0142641002	 0.1198798661	 0.088241
C	-3.5592694646	 0.6847162612	-0.093486682	 0.10672
C	-4.7477696415	 1.4562615553	-0.327354736	-0.119192
C	-4.7426251038	 2.9319127413	-0.2773216429	-0.161191
O	-4.8017931085	 2.2546340356	-1.5256830071	-0.219124
H	-0.6231228551	 1.2593833999	-1.2574297573	 0.296465
H	 0.6571691965	-0.8248095414	-0.5657620558	 0.096338
H	 0.1419024813	-1.1716853658	 1.8942887094	 0.121548
H	-0.5679235147	 0.5203084243	 1.9429056964	 0.137844
H	-1.5015265804	-1.8279087934	 0.1239463183	 0.116639
H	-5.6859744066	 0.9506217683	-0.1008179399	 0.11685
H	-5.6498409219	 3.4557221895	 0.0219466435	 0.118988
H	-3.8076399724	 3.4465349091	-0.0639653682	 0.125059
28.5446	54.2105	96.2269	131.9186	212.2988	217.0048	348.3257	397.477	435.0373	500.8106	551.6388	632.3652	711.5206	777.6567	818.5229	833.5661	873.4655	933.7202	985.0181	1003.4593	1059.7239	1065.6303	1091.885	1120.6819	1153.1407	1160.8215	1171.1627	1194.7821	1235.4468	1281.0862	1327.6593	1376.3313	1413.0733	1417.4602	1475.2851	1520.3868	2352.8037	3084.2604	3104.0422	3114.0464	3144.9011	3148.509	3177.541	3244.8876	3790.558
OC1CC1C#CC1CO1	O[C@H]1C[C@H]1C#C[C@H]1CO1	
InChI=1S/C7H8O2/c8-7-3-5(7)1-2-6-4-9-6/h5-8H,3-4H2	InChI=1S/C7H8O2/c8-7-3-5(7)1-2-6-4-9-6/h5-8H,3-4H2/t5-,6+,7+/m1/s1
