24
gdb 120740	3.27543	0.79073	0.71567	1.5892	87.15	-0.2169	0.0718	0.2887	1730.3154	0.215548	-405.520152	-405.509304	-405.50836	-405.556547	39.776	
C	 0.2794542455	 1.5180003245	 0.1541152535	-0.381058
C	 0.0396936405	 0.0085123873	 0.2387043825	-0.16509
C	-1.3432369705	-0.3953392367	-0.2742869223	-0.135213
N	-1.4914767343	-1.8515352577	-0.2359632201	-0.0966
C	-2.0198120671	-2.4537475994	 0.98295881	-0.264577
C	-2.8261911769	-2.4462108644	-0.2734962153	-0.003856
C	-4.1191405151	-1.6378864341	-0.4033764605	 0.096379
C	-5.3211321853	-2.5692912339	-0.5834551628	-0.409967
O	-4.3386713685	-0.7242078338	 0.668559167	-0.415264
H	 1.2716831216	 1.7842291147	 0.5310180153	 0.111111
H	 0.2110557877	 1.873792001	-0.8800969875	 0.113047
H	-0.4599223086	 2.0728723019	 0.7423818534	 0.114863
H	 0.8001211885	-0.5318448014	-0.3366028873	 0.103048
H	 0.1453423601	-0.3258010513	 1.2788560332	 0.093757
H	-2.1247287278	 0.1266818315	 0.2962281891	 0.113934
H	-1.4463425976	-0.0843791225	-1.3225203118	 0.092856
H	-1.5311893194	-3.3630764323	 1.3246759555	 0.109097
H	-2.3366881543	-1.779438215	 1.7772106976	 0.102345
H	-2.8535644305	-3.364875054	-0.859752313	 0.085799
H	-4.0396578074	-0.9932130218	-1.2879667307	 0.099058
H	-5.4113457417	-3.254995561	 0.2683231518	 0.112297
H	-6.2405348494	-1.9825003823	-0.6537063961	 0.125175
H	-5.2239584084	-3.1755558186	-1.4893132077	 0.122045
H	-4.5143070512	-1.2457978808	 1.4599540063	 0.276813
54.3603	80.8672	86.9383	116.0871	219.9297	236.2239	248.0201	263.9416	303.6227	332.287	348.5543	406.4944	437.5087	567.0266	600.478	751.3351	761.8854	812.5512	887.7381	903.1821	910.2573	935.5614	988.6651	1023.2596	1051.2153	1059.0653	1080.6223	1096.8552	1124.2251	1131.6779	1142.0586	1189.0487	1204.6076	1280.2337	1291.9751	1322.7522	1333.6653	1336.8783	1342.9536	1393.9112	1405.7391	1407.0125	1413.3826	1429.1357	1489.1934	1492.8864	1494.8567	1496.7085	1499.3393	1507.2408	1521.616	3000.8749	3025.3655	3025.8204	3029.911	3033.4271	3038.9159	3066.8636	3089.1038	3095.4207	3097.0295	3102.0802	3102.8203	3123.9296	3171.806	3795.5167
CCCN1CC1C(C)O	CCCN1C[C@H]1[C@@H](C)O	
InChI=1S/C7H15NO/c1-3-4-8-5-7(8)6(2)9/h6-7,9H,3-5H2,1-2H3	InChI=1S/C7H15NO/c1-3-4-8-5-7(8)6(2)9/h6-7,9H,3-5H2,1-2H3/t6-,7+,8?/m1/s1
