17
gdb 43052	2.39633	2.21663	1.62646	3.3792	69.83	-0.228	-0.0194	0.2086	876.7635	0.138902	-421.825019	-421.818636	-421.817692	-421.855687	26.257	
O	-0.0014829278	 0.0457485048	 0.1201853362	-0.338572
C	-0.0328996054	 1.2422624904	 0.0568795669	 0.471227
C	-1.2215017283	 2.2116145995	 0.0228259747	-0.056621
O	-0.8183973816	 3.069913458	 1.1386328675	-0.304381
C	 0.2294410148	 3.5138658135	 0.2274274464	 0.091149
C	-0.7061068333	 3.2992772827	-0.9857869241	-0.035057
C	 0.1205008532	 2.8324872491	-2.189123439	-0.259763
C	 1.4617189873	 2.3518518267	-1.5458650163	-0.226324
C	 1.120379543	 2.2684344508	-0.0414183055	-0.176988
H	-2.2381671467	 1.8266508314	 0.0728028935	 0.097092
H	 0.695712831	 4.458995663	 0.5026660286	 0.090743
H	-1.4450916688	 4.0818154869	-1.1551107726	 0.091297
H	-0.3796170185	 2.0302306878	-2.740457086	 0.118891
H	 0.2828206148	 3.6506215096	-2.8957622915	 0.110708
H	 1.8049339251	 1.3921194411	-1.9393686432	 0.125106
H	 2.2600298601	 3.0820873594	-1.714300115	 0.107777
H	 1.9581682411	 2.0870592054	 0.6298906795	 0.093715
132.507	212.54	314.0007	420.3771	465.122	556.0757	640.4313	665.6903	759.5928	785.7704	804.9768	816.7799	859.0671	877.3064	899.9882	929.8255	944.4863	973.4118	1007.3933	1045.8224	1061.4853	1083.7892	1139.92	1150.0125	1185.9706	1207.4036	1223.3697	1252.4761	1255.4784	1283.4472	1293.703	1306.3409	1336.1856	1355.397	1487.4656	1504.905	1883.8306	3048.918	3057.5173	3092.446	3109.9908	3122.1284	3129.1494	3138.1318	3150.4203
O=C1C2OC3C2CCC13	O=C1[C@H]2O[C@@H]3[C@H]2CC[C@H]13	
InChI=1S/C7H8O2/c8-5-3-1-2-4-6(3)9-7(4)5/h3-4,6-7H,1-2H2	InChI=1S/C7H8O2/c8-5-3-1-2-4-6(3)9-7(4)5/h3-4,6-7H,1-2H2/t3-,4-,6+,7+/m1/s1
