15
gdb 123657	4.12705	1.60875	1.26807	4.9028	70.71	-0.1982	0.0017	0.1999	939.5956	0.117008	-412.953051	-412.946839	-412.945895	-412.983458	25.426	
C	 0.0114852313	 1.4914577173	 0.097134305	-0.301543
C	 1.316525679	 0.7339671431	 0.0107484254	 0.007546
N	 2.0473597524	 0.3311204317	 1.2106404764	-0.400465
C	 1.1383831335	-0.4487268664	 1.9446687007	 0.332551
C	 0.0040893074	-0.7478772775	 1.2367454334	 0.348146
N	-0.6790037	-1.5586260887	 2.0719051527	-0.334966
N	 0.0043050859	-1.7370179759	 3.2324017714	-0.136211
N	 1.1224481768	-1.042794816	 3.1532436108	-0.300659
C	-0.025259372	-0.024050878	-0.0480179571	-0.202422
H	-0.2967304764	 1.9173565237	 1.0455884462	 0.125658
H	-0.2611597188	 2.072050312	-0.7775061441	 0.12153
H	 1.9255643717	 0.8563560125	-0.8776226499	 0.107881
H	 2.4992249504	 1.085068767	 1.712733602	 0.247437
H	-1.5603008885	-2.0313649078	 1.9561345708	 0.278059
H	-0.3907191726	-0.474065247	-0.9630990436	 0.10746
153.0929	271.1968	370.6058	427.3875	456.7531	541.9046	582.871	648.0612	698.1902	708.4859	763.8404	784.5184	817.1645	843.5578	938.9926	984.7365	1025.9111	1029.5018	1042.5354	1058.475	1092.9597	1136.3718	1183.2909	1190.016	1216.4395	1291.4441	1327.1219	1362.6437	1383.1608	1446.3165	1466.7592	1556.6904	1613.6278	3133.1546	3171.6378	3182.0537	3225.756	3566.8252	3666.3943
C1C2NC3=C(NN=N3)C12	C1[C@H]2Nc3c([nH]nn3)[C@@H]12	
InChI=1S/C5H6N4/c1-2-3(1)6-5-4(2)7-9-8-5/h2-3H,1H2,(H2,6,7,8,9)	InChI=1S/C5H6N4/c1-2-3(1)6-5-4(2)7-9-8-5/h2-3H,1H2,(H2,6,7,8,9)/t2-,3+/m0/s1
