17
gdb 46151	4.67079	1.00152	0.85225	3.4065	75.17	-0.2223	0.0221	0.2445	1295.0787	0.137376	-417.999956	-417.991536	-417.990592	-418.033185	31.708	
O	 0.0200037799	-0.089494084	-0.010552584	-0.374906
C	-0.002255595	 1.1266938305	 0.0023098315	 0.39187
C	-1.3183404252	 1.9101585479	 0.0070475171	-0.289882
N	-1.248344658	 3.3401863822	-0.2886194713	-0.293571
C	-0.1081542719	 3.9698712829	 0.3844360353	-0.158548
C	 1.2307454261	 3.3264372789	-0.0323027807	-0.156019
N	 1.137708248	 1.8786129602	 0.0767203895	-0.323623
C	-0.0774556599	 5.408432448	 0.1356104114	 0.290582
C	-0.0183442566	 6.5856999932	-0.095063755	-0.401157
H	-1.9940240019	 1.4216912142	-0.6983349215	 0.139859
H	-1.7591533513	 1.7695398596	 1.003685192	 0.139987
H	-1.1654356643	 3.4920944189	-1.2894031149	 0.226325
H	-0.2457372513	 3.7964331259	 1.4614782201	 0.122263
H	 1.4665959222	 3.638507555	-1.0603997144	 0.113093
H	 2.038725048	 3.6893507971	 0.6123606456	 0.124443
H	 1.9904042977	 1.3374827097	 0.0466859647	 0.248139
H	 0.0171043234	 7.6300568197	-0.2857002455	 0.201146
69.4575	141.8309	157.3624	160.545	306.9003	389.3394	426.9246	459.1638	495.5408	532.7637	567.9314	642.5116	644.3044	667.4508	698.8425	765.2707	827.269	890.2714	971.1682	1025.293	1053.8064	1093.639	1120.867	1150.2338	1232.9246	1272.3578	1287.8493	1341.5129	1350.4273	1364.4243	1392.7263	1455.8336	1479.5458	1485.4401	1521.3249	1794.1135	2245.2143	2992.0466	3010.9506	3023.2299	3062.7577	3114.3017	3503.078	3512.7584	3599.469
O=C1CNC(CN1)C#C	O=C1CN[C@@H](CN1)C#C	
InChI=1S/C6H8N2O/c1-2-5-3-8-6(9)4-7-5/h1,5,7H,3-4H2,(H,8,9)	InChI=1S/C6H8N2O/c1-2-5-3-8-6(9)4-7-5/h1,5,7H,3-4H2,(H,8,9)/t5-/m1/s1
