19
gdb 19691	4.45313	1.63114	1.52425	1.5983	74.12	-0.2337	0.0937	0.3274	925.2235	0.166828	-327.862112	-327.854993	-327.854049	-327.893518	27.919	
C	-0.0923149012	 1.5154789961	-0.0137174022	-0.378471
C	 0.0746451875	-0.0043033981	 0.1030641315	-0.209621
C	 0.7129140036	-0.6031097312	-1.1410001154	 0.105407
C	 0.9056583654	-2.1218098059	-1.3450037592	-0.116803
C	-0.5298142522	-2.7000729166	-1.2278832343	-0.247392
C	-0.8449140443	-1.8578151613	-2.4633752311	-0.035126
C	 0.5815131079	-1.8088656374	-2.8588822519	-0.047216
N	-0.0831921867	-0.5529338363	-2.4214214672	-0.157763
H	 0.8776882356	 2.0126059362	-0.1251889691	 0.111915
H	-0.6968682909	 1.7691561022	-0.8893711036	 0.137915
H	-0.5810109747	 1.9310095335	 0.8726286171	 0.107887
H	 0.7034367092	-0.2497262571	 0.9698231525	 0.094024
H	-0.901988676	-0.4639528661	 0.2862432414	 0.100503
H	 1.6526440687	-0.0799328465	-1.3568255737	 0.074359
H	 1.7604140232	-2.6602447527	-0.9388051159	 0.068606
H	-0.5459427855	-3.762526299	-1.4852055533	 0.105129
H	-1.0867801061	-2.5408311114	-0.2996968735	 0.095897
H	-1.7299459054	-1.8633759536	-3.0855819113	 0.095654
H	 1.1054935018	-1.9329032647	-3.7972913608	 0.095095
77.9675	176.4212	194.6808	260.4355	365.9227	495.5498	548.4708	684.0795	715.8294	781.5985	803.0624	830.5851	848.2048	897.4583	920.9785	950.6566	972.4034	987.2628	992.6339	1013.9851	1054.2014	1078.0149	1116.9786	1122.3435	1135.0057	1169.2419	1172.9373	1211.3685	1239.7668	1260.6375	1288.4592	1297.2261	1331.4483	1350.0276	1405.8244	1418.5128	1479.2191	1497.1206	1505.0185	1508.0799	3020.3093	3029.1232	3035.2189	3051.2524	3073.5909	3101.6223	3105.5207	3115.6431	3127.3572	3197.5798	3212.2075
CCC1C2CC3C2N13	CC[C@H]1[C@H]2C[C@@H]3[C@H]2N13	
InChI=1S/C7H11N/c1-2-5-4-3-6-7(4)8(5)6/h4-7H,2-3H2,1H3	InChI=1S/C7H11N/c1-2-5-4-3-6-7(4)8(5)6/h4-7H,2-3H2,1H3/t4-,5+,6-,7+,8?/m1/s1
