16
gdb 123342	6.81295	0.7003	0.66475	2.5761	76.61	-0.2581	-0.0148	0.2434	1608.7907	0.123793	-400.709297	-400.700901	-400.699957	-400.74367	30.183	
C	 0.0070553792	-1.24650888	 0.0289700911	-0.43606
C	-0.0229010695	-0.0455848868	 0.0670065962	 0.293808
C	-0.017681909	 1.4108088349	 0.1051316024	-0.34244
C	 1.3991639946	 2.0061189805	-0.1049834471	-0.332276
C	 1.4092388777	 3.5026898831	-0.0514095337	 0.151254
C	 1.5195238329	 4.399702026	-1.0681724652	-0.01218
O	 1.4664429589	 5.6589359501	-0.610378594	-0.161095
N	 1.3134777967	 5.6278629639	 0.771347408	-0.12962
C	 1.2809793938	 4.3575313499	 1.0850840945	-0.039689
H	 0.0168737935	-2.3078380907	-0.0015020558	 0.19829
H	-0.6906551361	 1.8077129617	-0.6646013065	 0.137863
H	-0.4189209639	 1.7576449348	 1.0655512497	 0.136288
H	 2.0671100675	 1.5951884716	 0.6594566193	 0.128193
H	 1.785116625	 1.6646049091	-1.0699387177	 0.123402
H	 1.6449684122	 4.2919737017	-2.1348791994	 0.152003
H	 1.1719941465	 4.0795113502	 2.1248080782	 0.132258
49.7563	60.6124	96.173	184.7983	300.1545	359.5908	369.8375	473.532	621.2984	623.985	648.4428	665.4784	734.4388	765.2298	846.9845	902.6078	910.4157	937.7186	969.3417	1005.9419	1016.1016	1036.1877	1151.6102	1173.3633	1211.2131	1275.7911	1298.5836	1308.2096	1371.7173	1400.6959	1471.8155	1477.3023	1493.2516	1651.1809	2239.922	3026.9464	3050.0725	3058.1575	3096.9132	3235.7208	3261.2104	3506.6948
C#CCCC1=CON=C1	C#CCCc1conc1	
InChI=1S/C7H7NO/c1-2-3-4-7-5-8-9-6-7/h1,5-6H,3-4H2	InChI=1S/C7H7NO/c1-2-3-4-7-5-8-9-6-7/h1,5-6H,3-4H2
