18
gdb 107899	3.52604	1.22157	1.14447	4.6262	75.56	-0.2412	0.0023	0.2435	1140.0899	0.147541	-401.904872	-401.896927	-401.895982	-401.937605	30.362	
C	 0.1718867373	 1.4971197692	 0.151158274	-0.376716
C	-0.0688516991	 0.0091986605	-0.1361251057	-0.312966
C	 0.6593168765	-0.4802465968	-1.3558190704	 0.338885
C	 0.400065519	-0.1645154938	-2.8321289142	-0.241315
N	 1.2731898944	-1.3584257726	-3.1987989434	-0.223919
C	 1.077740346	-1.8453890112	-1.7556735531	-0.099328
C	 2.1741066192	-0.883626961	-1.3098070346	-0.273296
C	 2.5997946755	-0.8436751098	-2.7345478911	 0.440731
O	 3.5853298789	-0.6174259315	-3.3597452012	-0.314337
H	 1.2324965425	 1.6969053559	 0.3328316049	 0.126184
H	-0.1432463319	 2.1190178769	-0.6930272995	 0.124476
H	-0.3901543505	 1.820684131	 1.0317351611	 0.119836
H	 0.2295127776	-0.5925574313	 0.7311497561	 0.107692
H	-1.1424329816	-0.1719065208	-0.2776033708	 0.111153
H	-0.6360184695	-0.3570607994	-3.124419103	 0.117644
H	 0.7413240676	 0.7856270976	-3.2574992618	 0.119363
H	 0.870970092	-2.8615745555	-1.455231587	 0.12132
H	 2.7438087662	-0.8591006476	-0.3903288003	 0.114594
83.8881	110.6356	181.3329	204.0607	298.2217	358.6636	460.2454	496.4394	573.3523	666.3164	727.9178	779.7831	788.8588	828.9603	843.9283	888.8888	907.1765	934.494	960.9695	979.3901	995.4449	1047.0428	1056.6836	1084.2368	1115.846	1139.8433	1162.4635	1199.9399	1245.2804	1274.7353	1327.4252	1348.0402	1413.0728	1428.6868	1479.8699	1499.2375	1506.7275	1512.1477	1924.5826	3021.3985	3039.0175	3041.4071	3055.3658	3102.2737	3108.4362	3114.982	3208.6813	3236.4271
CCC12CN3C1C2C3=O	CC[C@]12CN3[C@H]1[C@H]2C3=O	
InChI=1S/C7H9NO/c1-2-7-3-8-5(7)4(7)6(8)9/h4-5H,2-3H2,1H3	InChI=1S/C7H9NO/c1-2-7-3-8-5(7)4(7)6(8)9/h4-5H,2-3H2,1H3/t4-,5-,7+/m0/s1
