15
gdb 28619	5.2877	1.03194	0.86804	1.9144	78.05	-0.2603	-0.0797	0.1806	1269.4332	0.113094	-416.880646	-416.872636	-416.871691	-416.91433	28.178	
C	-0.0119180586	 1.4950120388	-0.0042201325	-0.460288
C	 0.005679108	-0.0048151612	-0.0118414581	 0.36785
N	-0.0920149416	-0.6225530326	-1.19747655	-0.284321
C	-0.0738480071	-1.9543509856	-1.1753174005	-0.043915
C	 0.0395093195	-2.6889448569	 0.0014457827	 0.111339
C	 0.0577487417	-4.1645711342	 0.0046687793	 0.091239
O	 0.1543387653	-4.8431811765	 1.000179855	-0.263003
C	 0.1350018995	-1.9391303874	 1.1803708757	-0.032131
N	 0.1192447899	-0.6138628032	 1.184454721	-0.281793
H	 0.9055702974	 1.8776197754	 0.4542898657	 0.149306
H	-0.1064610764	 1.8819784531	-1.0183933161	 0.142147
H	-0.8435684684	 1.8562900734	 0.6091718319	 0.149308
H	-0.1531111703	-2.4594871382	-2.1378300889	 0.125857
H	-0.0261102207	-4.6276291315	-1.0039061542	 0.080657
H	 0.2260734819	-2.4479916136	 2.1369095391	 0.147747
37.971	89.3071	165.7603	184.5926	314.4306	364.0434	411.7346	427.8259	486.3931	637.0662	659.8368	776.1219	785.5144	868.2323	961.0877	1007.6481	1017.0222	1046.7193	1055.189	1072.6036	1236.0252	1250.9338	1291.1282	1310.608	1394.1102	1405.8437	1441.8406	1464.0484	1476.0317	1483.6617	1583.7772	1631.848	1800.4948	2883.0972	3048.4211	3105.0221	3133.99	3161.725	3170.8356
CC1=NC=C(C=O)C=N1	Cc1ncc(C=O)cn1	
InChI=1S/C6H6N2O/c1-5-7-2-6(4-9)3-8-5/h2-4H,1H3	InChI=1S/C6H6N2O/c1-5-7-2-6(4-9)3-8-5/h2-4H,1H3
