21
gdb 76576	2.77327	1.17932	1.12601	2.356	78.54	-0.2431	0.0674	0.3105	1220.7674	0.182619	-424.212079	-424.20292	-424.201976	-424.246224	34.418	
C	-0.0556460168	 1.5119514778	-0.2205612016	-0.42041
C	 0.0748004483	 0.013332285	-0.059727834	-0.117285
C	 1.4371585329	-0.6507788157	-0.0231070595	 0.02554
O	 2.6000139863	 0.1275606341	-0.0322142264	-0.41805
C	 0.6013748631	-0.6013124849	 1.2237668452	 0.281605
C	 1.0231847753	 0.2338264607	 2.4323542224	-0.301462
C	 1.0020405021	-0.8126549745	 3.554709198	-0.083436
O	-0.0544601782	-1.7007230347	 3.215430498	-0.248093
C	-0.0008870881	-1.8884030456	 1.8086154186	-0.146238
H	 0.8192219775	 2.0297179238	 0.1797943331	 0.129795
H	-0.1529751291	 1.7856664327	-1.2773777734	 0.111525
H	-0.9413574195	 1.8925625959	 0.2992719191	 0.121777
H	-0.7014733206	-0.5638639789	-0.5597714843	 0.07941
H	 1.5415431861	-1.6211083988	-0.5129971893	 0.080406
H	 2.7308235455	 0.4625436822	-0.9255877636	 0.290267
H	 2.0024398577	 0.6963661849	 2.2973788518	 0.123474
H	 0.2923900642	 1.0230095953	 2.638712011	 0.103525
H	 1.9636284106	-1.3504712946	 3.6018176032	 0.090126
H	 0.7879756167	-0.4007419395	 4.5442158928	 0.105898
H	-1.0196495874	-2.0886092611	 1.4597691256	 0.103875
H	 0.6261604134	-2.7604037543	 1.5563719033	 0.087751
43.8323	158.2111	180.3449	184.6549	241.6371	247.5108	258.6714	310.8207	402.0712	484.9423	551.4825	591.3222	665.2195	762.6759	793.0719	847.0232	890.2801	946.4074	961.1318	979.0382	1018.2906	1038.4649	1069.5307	1090.528	1117.2549	1131.1867	1147.4154	1169.7233	1204.4453	1222.1934	1242.732	1263.6131	1278.5078	1305.0494	1319.8512	1359.4644	1379.0865	1406.8543	1416.6926	1463.1021	1491.6404	1498.7415	1508.1203	1511.1091	1524.1949	2955.6927	2967.8634	3031.7249	3047.4815	3059.0728	3074.2086	3086.452	3095.0278	3111.304	3121.1391	3128.013	3804.3622
CC1C(O)C11CCOC1	C[C@H]1[C@@H](O)[C@]21CCOC2	
InChI=1S/C7H12O2/c1-5-6(8)7(5)2-3-9-4-7/h5-6,8H,2-4H2,1H3	InChI=1S/C7H12O2/c1-5-6(8)7(5)2-3-9-4-7/h5-6,8H,2-4H2,1H3/t5-,6+,7+/m0/s1
