15
gdb 133606	3.17406	1.25033	1.10344	3.0227	59.1	-0.2294	0.0076	0.237	1080.9427	0.110272	-548.316196	-548.308348	-548.307403	-548.349419	28.844	
F	 0.0383844614	 0.1294127647	-0.0426134929	-0.070459
C	-0.0059192316	 1.4616360457	 0.0076525052	 0.290528
F	 1.2610823749	 1.9163641541	-0.0607164852	-0.090457
F	-0.648134091	 1.89481668	-1.0874287364	-0.084251
C	-0.6825475404	 1.9792263963	 1.2808255435	-0.170898
N	-2.0566747448	 1.4907227129	 1.3708929788	-0.309101
C	-2.3015150461	 0.9285266473	 2.7088014168	-0.201625
C	-0.9293082538	 0.8764453333	 3.3214952427	-0.073135
C	-0.0291600728	 1.4556967741	 2.5357165952	-0.064006
H	-0.6059714494	 3.077449617	 1.2134250576	 0.094304
H	-2.7354542435	 2.1869191485	 1.1028210166	 0.230728
H	-2.9844316217	 1.5477518298	 3.3132877453	 0.102157
H	-2.7599716686	-0.0692809241	 2.6452464672	 0.117227
H	-0.7354016735	 0.4164314774	 4.2824345154	 0.110141
H	 1.031429441	 1.5583896631	 2.7217437901	 0.118846
66.438	84.5578	173.1533	234.0042	337.2836	376.9368	416.396	519.4173	566.5087	581.553	685.9011	734.8822	802.9033	838.4809	873.8737	937.3685	964.0988	970.245	1024.3731	1050.201	1131.5325	1141.9763	1166.9705	1187.4226	1202.4709	1276.465	1303.6589	1339.1166	1368.6599	1394.7617	1453.5678	1518.208	1695.5134	2962.3563	2968.0389	3000.2119	3210.1703	3237.2885	3606.6699
FC(F)(F)C1NCC=C1	FC(F)(F)[C@H]1NCC=C1	
InChI=1S/C5H6F3N/c6-5(7,8)4-2-1-3-9-4/h1-2,4,9H,3H2	InChI=1S/C5H6F3N/c6-5(7,8)4-2-1-3-9-4/h1-2,4,9H,3H2/t4-/m0/s1
