17
gdb 6200	3.81985	1.53394	1.4336	4.3756	64.37	-0.2406	0.0348	0.2754	928.8465	0.1423	-401.050074	-401.042151	-401.041207	-401.082019	30.29	
C	 0.336849482	 1.4062016653	 0.0139320654	-0.439334
C	-0.1279854967	-0.051391232	-0.0241533021	 0.389833
O	-1.5446978589	-0.129096226	-0.0906782295	-0.470394
C	 0.5507626512	-0.8252474256	-1.1970954492	-0.221524
N	 1.7340415319	-1.3848718932	-0.5738890453	-0.30057
C	 1.6639640539	-1.4925391463	 0.7925029072	 0.40447
O	 2.4888557192	-2.0167035356	 1.5060662578	-0.3795
C	 0.3480313444	-0.8338851062	 1.2105071567	-0.364864
H	 1.4277229778	 1.468867048	 0.0754075789	 0.134507
H	 0.0237101259	 1.9375798115	-0.8933367903	 0.106442
H	-0.0913647872	 1.9179994859	 0.880278117	 0.130643
H	-1.8493879712	 0.4831409978	-0.769101874	 0.277473
H	-0.1403942852	-1.5976217981	-1.5608294425	 0.111916
H	 0.8103318573	-0.1684966277	-2.0351952308	 0.102165
H	 2.4582376805	-1.8687529919	-1.0814066821	 0.250827
H	 0.4815301379	-0.2218743312	 2.1041640869	 0.126653
H	-0.3765951527	-1.6207587748	 1.445151566	 0.141256
90.1827	156.9794	262.0656	282.7973	315.1945	342.9195	368.599	443.4146	491.94	518.2745	556.8735	612.4366	687.3499	789.6234	874.2527	920.6327	944.6699	980.685	981.3337	1069.9588	1107.1557	1129.9709	1175.8641	1202.4816	1257.6716	1273.8889	1304.6534	1325.1441	1391.6678	1404.2294	1443.942	1463.118	1491.2497	1496.3228	1533.1608	1837.1459	3008.0992	3024.7736	3057.4351	3064.8571	3094.7366	3120.0464	3125.1853	3634.9409	3804.6319
CC1(O)CNC(=O)C1	C[C@@]1(O)CNC(=O)C1	
InChI=1S/C5H9NO2/c1-5(8)2-4(7)6-3-5/h8H,2-3H2,1H3,(H,6,7)	InChI=1S/C5H9NO2/c1-5(8)2-4(7)6-3-5/h8H,2-3H2,1H3,(H,6,7)/t5-/m0/s1
