20
gdb 111175	2.6928	1.23064	0.98078	1.6413	86.65	-0.2293	0.0263	0.2555	1281.6211	0.170527	-365.896754	-365.888059	-365.887115	-365.930214	33.663	
C	 0.4533629172	 1.521029397	-0.3806264372	-0.371243
C	 0.0037695871	 0.0737295227	-0.1415702144	-0.248947
C	 0.6900824178	-0.5334725118	 1.0694942364	 0.098495
C	 0.8259042239	-2.056635759	 1.3257679009	-0.100554
C	 1.9084113733	-2.0320161344	 0.2305743183	-0.182494
N	 2.2342063552	-0.7491307306	 1.0212751705	-0.16721
C	 2.001092034	-1.659491711	 2.2659875267	-0.160311
C	 1.7720592241	-1.0176840738	 3.5433819373	 0.33915
C	 1.6085046568	-0.5310950909	 4.6311137506	-0.435777
H	 1.5299594541	 1.5651018157	-0.5678610009	 0.138378
H	-0.0648086644	 1.9576346748	-1.2394946545	 0.109849
H	 0.2440460699	 2.148603083	 0.4923312907	 0.117466
H	-1.0773291901	 0.0478629829	 0.0492906037	 0.101967
H	 0.1622000211	-0.5154546909	-1.0498157965	 0.099298
H	 0.4232650404	 0.051053378	 1.9550641449	 0.08786
H	 0.0436195174	-2.8001712929	 1.5152541979	 0.069125
H	 2.7028602069	-2.7818677133	 0.2797272566	 0.100875
H	 1.6131653142	-1.8537464578	-0.801652946	 0.106844
H	 2.7982050257	-2.4035925484	 2.357391184	 0.100488
H	 1.4624528054	-0.0910540593	 5.586673681	 0.196743
69.9764	128.1235	158.014	192.6095	224.347	345.6661	399.8247	455.4714	491.023	534.9382	611.2222	629.6215	652.644	721.9249	760.6178	824.3203	834.4506	859.1025	904.2448	910.1772	973.1122	1030.1789	1051.737	1076.7856	1079.7807	1125.7848	1145.7538	1149.1574	1173.2311	1183.7241	1221.3402	1248.0271	1264.5145	1295.0225	1351.9913	1388.1116	1409.9441	1451.2693	1486.0167	1497.4918	1509.2364	1546.6787	2230.2904	3026.4413	3038.1435	3038.6044	3059.2706	3059.8356	3071.4932	3080.0324	3106.7952	3119.1126	3153.1903	3502.2011
CCC1C2CN1C2C#C	CC[C@H]1[C@H]2CN1[C@H]2C#C	
InChI=1S/C8H11N/c1-3-7-6-5-9(7)8(6)4-2/h1,6-8H,4-5H2,2H3	InChI=1S/C8H11N/c1-3-7-6-5-9(7)8(6)4-2/h1,6-8H,4-5H2,2H3/t6-,7-,8-/m0/s1
