19
gdb 50832	3.18296	0.92951	0.79687	2.7107	77.68	-0.2456	-0.0367	0.209	1457.7518	0.157245	-423.042277	-423.032841	-423.031897	-423.078983	32.902	
O	 0.9102652533	-0.2097704889	-0.4595323069	-0.23473
C	 0.4722639245	 0.9032538195	-0.3383407679	 0.162475
C	 1.3034192166	 2.0992107597	 0.102122992	-0.372902
C	 1.0262998067	 3.313622057	-0.7915029642	 0.345231
O	-0.1098640592	 3.6960298863	-0.9616288062	-0.311717
C	 2.2182424596	 3.9309568042	-1.4769395558	-0.072025
C	 2.7802361067	 3.1336253516	-2.7102929853	-0.230502
C	 2.9370830847	 4.4899438512	-3.4498036974	-0.207636
C	 1.9921074694	 5.1458314347	-2.4075258345	-0.234536
H	-0.5894327931	 1.148757529	-0.547246353	 0.108193
H	 0.9651641802	 2.3710472345	 1.1113064669	 0.156141
H	 2.3574576319	 1.8185054183	 0.1444158494	 0.126534
H	 3.0147868114	 4.0977397651	-0.7438001164	 0.090166
H	 3.6747371608	 2.5295090942	-2.5482306146	 0.111576
H	 2.0095163823	 2.5052385402	-3.1655078923	 0.119021
H	 3.9586065877	 4.8727108355	-3.3762463401	 0.106893
H	 2.629896575	 4.5207072977	-4.4971455272	 0.10672
H	 0.9518928694	 5.1781946488	-2.7392434041	 0.127953
H	 2.268888272	 6.1278367914	-2.0191328523	 0.103145
20.2115	45.7674	100.2798	105.5013	181.5155	202.9023	298.2922	357.0913	469.3536	575.2543	598.4283	681.8239	762.313	784.4095	819.8812	875.6154	928.3124	937.5251	954.8707	980.4459	1014.0279	1033.9988	1066.1419	1106.2332	1134.0274	1185.4888	1208.9172	1227.864	1247.9821	1259.1117	1273.9336	1278.0323	1288.4835	1369.5921	1407.0848	1441.7897	1477.6273	1486.6394	1507.3434	1788.136	1837.5428	2928.5996	3032.8096	3051.176	3061.6847	3063.6374	3075.0615	3108.5138	3122.7291	3124.368	3134.0376
O=CCC(=O)C1CCC1	O=CCC(=O)C1CCC1	
InChI=1S/C7H10O2/c8-5-4-7(9)6-2-1-3-6/h5-6H,1-4H2	InChI=1S/C7H10O2/c8-5-4-7(9)6-2-1-3-6/h5-6H,1-4H2
