20
gdb 115521	2.36316	1.13061	1.00694	4.3353	79.49	-0.2768	0.0309	0.3078	1294.162	0.170236	-403.151806	-403.142132	-403.141187	-403.186275	35.622	
C	-0.063490621	 1.5964060003	-0.0828202616	-0.446111
C	-0.0282627206	 0.0622608427	 0.0059002221	 0.121658
C	 1.1190003329	-0.5595997292	-0.8666037659	-0.254984
C	 1.9977842756	-0.6628916941	 0.4064199157	-0.235105
C	 0.7164480917	-0.5215861876	 1.2662697834	 0.025507
C	 0.7555405808	 0.27584119	 2.5547156089	-0.11277
O	 1.5540285922	-0.4623994474	 3.4676407701	-0.419852
C	-1.3626538046	-0.4819421718	-0.2224678423	 0.235119
N	-2.4169388262	-0.9240535856	-0.3989940819	-0.348621
H	 0.9389953697	 2.0122258779	 0.0493841531	 0.125775
H	-0.4313896834	 1.9064364563	-1.065017965	 0.136927
H	-0.7211939899	 2.028771873	 0.6762829666	 0.135347
H	 0.8396112969	-1.5387373865	-1.2600541956	 0.125897
H	 1.474022188	 0.065195882	-1.6891428796	 0.110252
H	 2.5815630732	-1.5740298797	 0.5388379156	 0.116483
H	 2.6658952652	 0.1952621289	 0.523082565	 0.106669
H	 0.3108607713	-1.5121058097	 1.4911305548	 0.105037
H	 1.1812984799	 1.2753955729	 2.376246484	 0.084677
H	-0.2691524771	 0.4157089424	 2.9363412773	 0.097623
H	 1.6088730753	 0.0325414055	 4.2903488452	 0.290474
78.1028	113.6839	158.3886	168.4194	203.9078	252.7767	269.127	294.054	338.2684	399.8592	441.9527	533.9799	590.9936	595.9273	739.6536	798.5481	899.9422	911.7957	920.2856	934.6936	968.0286	1013.0796	1067.6179	1105.9682	1127.6821	1163.1693	1174.9225	1204.2206	1226.355	1256.2416	1260.1901	1266.5651	1286.23	1317.2917	1372.1516	1412.0655	1465.0582	1482.3854	1493.5166	1498.2321	1500.5814	1524.3853	2346.2191	2965.7108	2997.4243	3044.3336	3064.2051	3072.4688	3075.3219	3117.6288	3121.4095	3123.0605	3137.1763	3829.61
CC1(CCC1CO)C#N	C[C@]1(CC[C@H]1CO)C#N	
InChI=1S/C7H11NO/c1-7(5-8)3-2-6(7)4-9/h6,9H,2-4H2,1H3	InChI=1S/C7H11NO/c1-7(5-8)3-2-6(7)4-9/h6,9H,2-4H2,1H3/t6-,7-/m0/s1
