23
gdb 103642	2.11785	1.34637	1.27442	2.5194	81.48	-0.2394	0.0752	0.3146	1213.8945	0.203415	-425.414193	-425.403792	-425.402848	-425.448855	39.228	
C	-0.099233702	 1.3084003143	 0.0820352121	-0.250927
O	-0.1069845383	-0.0830655222	-0.1568975211	-0.303737
C	 0.6809183055	-0.5586305568	-1.2502766265	 0.373734
C	 0.2495445047	 0.039770181	-2.580076523	-0.471402
C	 2.2010090569	-0.5952115608	-0.9018279829	-0.293518
C	 2.0526136102	-2.0620334174	-0.3943085125	-0.027036
C	 2.0061534164	-2.2223442191	 1.1216919982	-0.400361
C	 0.6594939208	-2.1155024964	-1.1077945263	 0.11642
O	-0.4409936443	-2.6828645499	-0.4583395411	-0.436149
H	 0.9203761425	 1.7052426253	 0.1822998596	 0.11153
H	-0.614973095	 1.8673559032	-0.709617629	 0.116072
H	-0.6295168732	 1.4694200326	 1.0238501259	 0.129362
H	 0.4739235542	 1.1094826729	-2.6464868244	 0.116071
H	 0.7773982946	-0.4559539387	-3.400035915	 0.119201
H	-0.8261402201	-0.0993924869	-2.730475496	 0.128309
H	 2.8318817613	-0.5024435228	-1.789893545	 0.096655
H	 2.5364331697	 0.1365488407	-0.1621143282	 0.098901
H	 2.78408994	-2.7593647919	-0.8137561353	 0.063806
H	 1.3197872081	-1.5026776608	 1.5770514976	 0.116288
H	 1.6689494186	-3.2265209007	 1.3959179009	 0.123091
H	 2.9984328238	-2.0632946763	 1.5575504485	 0.105618
H	 0.7445773783	-2.5933970629	-2.0893348369	 0.075137
H	-0.7631948527	-2.0045482863	 0.1499323604	 0.292935
83.358	118.552	177.6574	197.3575	209.5924	217.6416	239.7412	260.2186	315.689	349.2642	384.8501	419.5269	451.2984	543.0846	583.2532	668.2696	766.3749	803.2106	820.0155	893.7891	914.5486	927.0094	988.0426	1039.6287	1087.4984	1111.6423	1137.2231	1163.8845	1175.6227	1182.624	1194.0367	1208.509	1223.9828	1258.9194	1279.5071	1308.6244	1326.294	1369.7016	1401.5044	1407.1696	1443.138	1467.8725	1476.9677	1485.167	1487.7125	1492.8658	1504.0245	1507.3288	1513.4878	3000.7233	3032.7977	3035.1566	3045.1759	3051.8819	3056.0254	3063.4362	3101.45	3101.7626	3106.1616	3112.2031	3114.4433	3116.2859	3764.0813
COC1(C)CC(C)C1O	CO[C@@]1(C)C[C@@H](C)[C@H]1O	
InChI=1S/C7H14O2/c1-5-4-7(2,9-3)6(5)8/h5-6,8H,4H2,1-3H3	InChI=1S/C7H14O2/c1-5-4-7(2,9-3)6(5)8/h5-6,8H,4H2,1-3H3/t5-,6-,7+/m1/s1
