21
gdb 98286	2.91216	0.91392	0.82518	2.4102	79.01	-0.2433	-0.0161	0.2272	1509.1416	0.179481	-424.229703	-424.219241	-424.218297	-424.266658	36.76	
C	 0.1652474048	 1.2820779635	-0.4179695782	-0.377892
C	-0.1168978687	-0.202378309	-0.2071041291	-0.29063
C	-1.5375852496	-0.5015173932	 0.2402633497	 0.391444
O	-2.3750335648	 0.3653205578	 0.3611397754	-0.322491
C	-1.8768461319	-1.9634597049	 0.550401037	-0.122483
C	-2.0830142163	-2.1356740177	 2.0678660533	-0.398119
C	-3.133829232	-2.3589134274	-0.2024455012	 0.108364
C	-3.0928514582	-3.1017267141	-1.4674458233	-0.186359
O	-3.4292069452	-3.7547778446	-0.2399811974	-0.241883
H	 1.196738438	 1.4384259478	-0.7453522721	 0.111243
H	-0.5061958486	 1.7021240971	-1.1709382519	 0.133532
H	 0.0061177949	 1.8438300273	 0.5061365568	 0.131858
H	 0.0621261114	-0.7792301493	-1.1263611462	 0.123941
H	 0.5661570789	-0.6428466416	 0.5335273391	 0.124269
H	-1.0564865185	-2.6125869414	 0.2242164012	 0.07883
H	-2.8710516554	-1.4638112989	 2.4194987104	 0.139134
H	-2.3727823575	-3.1665880293	 2.2867374607	 0.138459
H	-1.1676687261	-1.9086527127	 2.6233614615	 0.115573
H	-3.9922294119	-1.7164258957	-0.0088991463	 0.11345
H	-3.9072893565	-3.0018681345	-2.1832270139	 0.119704
H	-2.1318534867	-3.3848504091	-1.8962945555	 0.110056
22.3227	71.5813	89.4768	154.3173	186.7174	202.2617	231.6486	244.9474	286.0447	345.1337	394.6211	477.5297	568.0449	659.9913	795.6971	806.4532	821.9536	872.2975	936.8401	971.2818	990.4031	1025.3842	1040.9582	1058.2444	1108.3356	1123.9215	1124.5904	1158.3355	1177.005	1188.8088	1276.2201	1286.1179	1305.601	1330.1862	1373.9835	1401.1086	1414.8006	1438.5628	1448.0291	1492.6762	1497.5274	1497.9863	1500.8016	1530.9056	1800.2051	3009.8489	3034.9006	3041.7037	3047.212	3052.2222	3081.1938	3113.4012	3123.3797	3123.9957	3127.854	3129.1867	3168.2571
CCC(=O)C(C)C1CO1	CCC(=O)[C@@H](C)[C@H]1CO1	
InChI=1S/C7H12O2/c1-3-6(8)5(2)7-4-9-7/h5,7H,3-4H2,1-2H3	InChI=1S/C7H12O2/c1-3-6(8)5(2)7-4-9-7/h5,7H,3-4H2,1-2H3/t5-,7-/m1/s1
