17
gdb 97187	2.63415	1.38689	0.94876	1.9347	73.05	-0.244	-0.0167	0.2272	1214.707	0.136559	-455.176973	-455.168319	-455.167375	-455.211385	30.858	
C	 0.0937610329	 1.4540828008	 0.1106192284	-0.339693
N	 0.0001787753	 0.0105957815	 0.252215318	-0.273846
C	-1.0572114554	-0.6100507956	-0.0192447861	 0.400268
C	-1.1919416105	-2.1057872136	 0.1242971422	-0.270955
N	-1.9481947693	-2.7044498803	-0.9725021294	-0.284582
C	-3.2680469047	-2.1016919744	-1.0586515473	-0.309735
C	-3.3243025308	-0.5798451215	-0.9468020105	 0.394788
O	-4.2808688281	 0.0788602561	-1.2294801696	-0.297977
O	-2.195539064	 0.0554804312	-0.4853367751	-0.237433
H	 0.9012477438	 1.6829508237	-0.5934936724	 0.13297
H	-0.8255017226	 1.9401723373	-0.2287980545	 0.137199
H	 0.3892219658	 1.8784445162	 1.0761822717	 0.134752
H	-0.1908657106	-2.5331674465	 0.1875068737	 0.145037
H	-1.7127292139	-2.3391335154	 1.063386482	 0.132418
H	-1.4467978915	-2.5663958157	-1.8446930095	 0.233449
H	-3.7592534787	-2.3749468607	-1.9952184963	 0.151803
H	-3.900871918	-2.4942731233	-0.2501868853	 0.151537
57.4774	66.3903	101.5732	205.6492	214.9448	318.1987	407.7503	443.3779	478.7881	530.9714	566.2636	621.9881	664.3567	787.3422	852.1591	925.5651	945.3529	978.7205	1039.2298	1091.0125	1126.6241	1134.2286	1155.7918	1179.2598	1217.5998	1269.1507	1327.6736	1340.6888	1368.7007	1436.4655	1451.8921	1471.179	1489.4487	1492.7077	1496.0695	1788.6504	1867.5901	3020.5285	3022.4045	3029.1012	3087.6372	3109.1992	3114.064	3133.7214	3515.089
CN=C1CNCC(=O)O1	CN=C1CNCC(=O)O1	
InChI=1S/C5H8N2O2/c1-6-4-2-7-3-5(8)9-4/h7H,2-3H2,1H3	InChI=1S/C5H8N2O2/c1-6-4-2-7-3-5(8)9-4/h7H,2-3H2,1H3
