18
gdb 98076	3.26016	1.00819	0.81018	3.9003	72.36	-0.2505	-0.0666	0.1839	1411.192	0.144465	-476.253373	-476.242759	-476.241815	-476.290417	35.773	
C	 0.2588955703	 1.2170158765	 0.1496936679	-0.348404
N	 0.0435703515	-0.2024423283	-0.0994377031	-0.104735
C	 0.2945305659	-1.0758924462	 1.0376676842	-0.343325
C	-0.3466865304	-0.5840329597	-1.3432603985	 0.361462
O	-0.5036731266	 0.1887651324	-2.2805113392	-0.377869
C	-0.6424728046	-2.0639254396	-1.638162901	 0.245532
O	-1.1193772655	-2.848535757	-0.8453657022	-0.327884
C	-0.3947382761	-2.489468191	-3.0732111294	-0.118469
O	-0.6964157801	-3.8407926353	-3.2592209972	-0.425678
H	 1.2937281515	 1.3932662497	 0.4660274794	 0.129823
H	 0.0556186249	 1.7681381204	-0.766272118	 0.174616
H	-0.4086716889	 1.5657681477	 0.9465661926	 0.132406
H	-0.419851777	-0.8659304657	 1.8432493721	 0.134627
H	 0.1979311124	-2.1204369577	 0.7613514781	 0.173092
H	 1.304037298	-0.8899656027	 1.4236560791	 0.126837
H	-0.9904052521	-1.8335662346	-3.7238703884	 0.150036
H	 0.658660396	-2.2766726015	-3.3175647717	 0.125472
H	-1.0670778992	-4.1469130774	-2.4174798747	 0.292461
34.2003	60.8132	95.0222	107.2441	135.9248	194.9591	232.9427	299.569	348.3706	351.766	363.514	411.5464	429.1687	544.3653	673.9866	711.0809	806.9897	904.7485	1001.4834	1045.5001	1080.7086	1129.1384	1140.5341	1180.0351	1216.1683	1226.8014	1275.4486	1309.798	1432.3039	1436.709	1443.1502	1471.969	1475.5288	1483.1156	1498.3042	1502.9748	1544.3782	1728.4778	1784.6984	2989.9276	3019.3777	3026.7899	3027.8457	3067.1421	3075.7897	3176.0404	3209.4122	3706.8937
CN(C)C(=O)C(=O)CO	CN(C)C(=O)C(=O)CO	
InChI=1S/C5H9NO3/c1-6(2)5(9)4(8)3-7/h7H,3H2,1-2H3	InChI=1S/C5H9NO3/c1-6(2)5(9)4(8)3-7/h7H,3H2,1-2H3
