18
gdb 51519	5.24252	0.72206	0.70431	2.6699	81.91	-0.2579	0.0231	0.281	1608.1148	0.146068	-401.899527	-401.890331	-401.889387	-401.934993	33.224	
N	 0.8328036115	 0.7389394012	-0.1339762839	-0.441187
C	 0.3389314077	-0.410937172	 0.0249355874	 0.116199
O	-0.9888509777	-0.6003913366	-0.1074609771	-0.186497
C	-1.5141263219	-1.8784840219	 0.1981649026	 0.161924
C	-2.3463820026	-2.0078148973	 1.4949420491	-0.261687
C	-3.3765430017	-2.8753709099	 0.6896907934	-0.191782
C	-2.7531188695	-2.2813215412	-0.6225451431	-0.262177
C	-3.1937242325	-4.3069271107	 0.8398993875	 0.342802
C	-3.0259201143	-5.4917739112	 0.9614069391	-0.484705
H	 1.8434902492	 0.7002082796	-0.0204522473	 0.229455
H	 0.8891927135	-1.3328595861	 0.261626981	 0.086243
H	-0.7246494348	-2.6366895762	 0.1446941157	 0.095469
H	-1.877516078	-2.4620343443	 2.3686242763	 0.115423
H	-2.7794146899	-1.0414886294	 1.7635657894	 0.124964
H	-4.4238425847	-2.6131648496	 0.8568657164	 0.110961
H	-3.2993305054	-1.390633114	-0.9410792501	 0.126884
H	-2.6151613296	-2.9551190297	-1.4684783219	 0.118365
H	-2.8912335592	-6.5393144406	 1.0708321956	 0.199347
30.6794	56.3593	106.9269	170.622	196.7684	274.6573	368.363	379.5549	505.0699	529.8279	547.9797	621.8743	631.8929	755.8111	800.3557	818.4367	822.2851	920.0617	928.1621	978.7994	996.8272	1043.3772	1055.5837	1091.2663	1128.2186	1158.5111	1178.5274	1214.3828	1249.4038	1270.9564	1283.1427	1296.531	1345.8319	1390.303	1430.7315	1466.4692	1492.4557	1745.4327	2233.1564	3013.5866	3043.2051	3072.9694	3076.0121	3084.0875	3141.9578	3145.2945	3504.4777	3519.4165
N=COC1CC(C1)C#C	[NH][CH]O[C@H]1C[C@@H](C1)C#C	
InChI=1S/C7H9NO/c1-2-6-3-7(4-6)9-5-8/h1,5-8H,3-4H2	InChI=1S/C7H9NO/c1-2-6-3-7(4-6)9-5-8/h1,5-8H,3-4H2/t6-,7-
