16
gdb 42206	3.35187	1.15629	0.8714	4.9218	85.18	-0.2054	-0.0507	0.1546	1267.1125	0.124423	-400.740258	-400.731762	-400.730818	-400.773823	31.072	
O	 0.0314173327	-0.0747000088	 0.1286153692	-0.349025
C	-0.0200148352	 1.1492835139	 0.0720518763	 0.139402
C	 1.2105491263	 1.9390539685	 0.0750916788	 0.249781
C	 2.230978104	 2.5786541678	 0.07407703	-0.44048
C	-1.2499240885	 1.9124060832	 0.0101512235	 0.163872
C	-2.4839514827	 1.3484998481	-0.0249333954	-0.051659
N	-3.4871292844	 2.264313474	-0.1439585081	-0.2877
C	-2.9412987423	 3.6112680101	 0.1071920683	-0.167072
C	-1.4146043069	 3.4215511514	-0.1065918663	-0.340731
H	 3.1417453721	 3.1260054573	 0.0732829744	 0.202462
H	-2.7027332831	 0.2890552074	-0.0025013791	 0.151321
H	-4.4222347857	 2.0366655095	 0.1550654419	 0.253011
H	-3.3837888372	 4.3442283904	-0.5717996004	 0.119839
H	-3.160878232	 3.9233926435	 1.1374372946	 0.113213
H	-0.8275776497	 3.9836021755	 0.6237134974	 0.123406
H	-1.1119844175	 3.7768516683	-1.0996246052	 0.120361
70.0695	116.3951	124.0344	220.8971	237.8409	282.7463	428.3755	441.8582	489.8235	523.8371	639.4688	653.2457	670.8908	733.1507	761.2656	851.8756	876.5866	944.3278	964.6178	1001.2921	1036.205	1074.7275	1151.0368	1194.5639	1229.1847	1278.8114	1312.8337	1332.2126	1365.6363	1477.4764	1496.4589	1524.5343	1627.2834	1695.1479	2208.0188	3007.1547	3024.9965	3086.9306	3096.234	3236.2608	3496.2094	3630.6679
O=C(C#C)C1=CNCC1	O=C(C#C)C1=CNCC1	
InChI=1S/C7H7NO/c1-2-7(9)6-3-4-8-5-6/h1,5,8H,3-4H2	InChI=1S/C7H7NO/c1-2-7(9)6-3-4-8-5-6/h1,5,8H,3-4H2
