13
gdb 133571	3.59446	1.10203	1.04003	1.7917	52.62	-0.2835	0.011	0.2945	1105.9594	0.085631	-584.250976	-584.24328	-584.242336	-584.284186	27.771	
F	-0.2084904654	 0.041059951	 0.1970543289	-0.073
C	-0.0498888141	 1.3636624789	 0.0861767843	 0.27272
F	 1.256658911	 1.6311992751	 0.1429884413	-0.065791
F	-0.5014448386	 1.7378582344	-1.1211356477	-0.075143
C	-0.8139280624	 2.1129705587	 1.1651477638	-0.019731
C	-2.2598871317	 1.6470518224	 1.4265028093	-0.382199
C	-1.7028334848	 1.2297079547	 2.7727565608	 0.450867
N	-2.1685163967	 0.6966824862	 3.8011464964	-0.528212
O	-0.4138507905	 1.6727417441	 2.4874409387	-0.255196
H	-0.6537083498	 3.185306787	 1.0315385365	 0.126035
H	-3.0079497499	 2.4388506601	 1.4651734798	 0.150789
H	-2.6152848648	 0.827698661	 0.8015304644	 0.160268
H	-1.4569505823	 0.5761118763	 4.5233768335	 0.238593
66.1093	77.337	189.6696	255.6579	344.1967	378.2278	473.8581	493.5234	523.7648	582.9564	655.3121	753.1682	797.5081	868.0507	934.0162	980.4124	990.1321	1011.8568	1047.5295	1124.0236	1186.1986	1207.3856	1218.8622	1244.6526	1297.5405	1317.6871	1410.1024	1464.6559	1844.0913	3097.5423	3103.5141	3161.1922	3486.7891
FC(F)(F)C1CC(=N)O1	FC(F)(F)[C@H]1C[C]([NH])O1	
InChI=1S/C4H4F3NO/c5-4(6,7)2-1-3(8)9-2/h2,8H,1H2	InChI=1S/C4H4F3NO/c5-4(6,7)2-1-3(8)9-2/h2,8H,1H2/t2-/m1/s1
