12
gdb 21851	3.65688	1.95746	1.27498	2.7241	66.92	-0.2167	-0.0196	0.1971	865.8826	0.084489	-377.504606	-377.49759	-377.496646	-377.535653	26.247	
O	 0.1043711007	 1.3766082409	 0.1294034162	-0.436209
C	 0.0594758826	 0.0286910291	 0.0431601033	 0.160058
C	 0.0251465732	-0.7649519154	-1.101494792	 0.161016
N	-0.0134681141	-2.0557760614	-0.6333311325	-0.286019
N	-0.0069874092	-2.1343162557	 0.6970933356	-0.199748
C	 0.0376547988	-0.8707728428	 1.1245751943	-0.084357
C	 0.0277448703	-0.3903311197	-2.4540594967	 0.214112
C	 0.0315877845	-0.0271669022	-3.6044814656	-0.43873
H	 0.1098554486	 1.7414763747	-0.7637015954	 0.3042
H	-0.0447024876	-2.8964587232	-1.1847186762	 0.280664
H	 0.0525604323	-0.6453444813	 2.1793741088	 0.124629
H	 0.0348090799	 0.282426457	-4.6203560697	 0.200385
123.7655	160.0772	317.5643	349.4231	359.6934	440.0354	451.0461	513.5308	516.1033	623.8027	688.5618	699.6851	715.0216	728.4774	858.1132	948.5234	1125.2041	1165.847	1241.5591	1282.0075	1293.222	1416.0575	1452.1778	1554.8878	1611.6311	2220.1084	3262.8981	3498.2726	3674.8648	3794.2085
OC1=C(NN=C1)C#C	Oc1c([nH]nc1)C#C	
InChI=1S/C5H4N2O/c1-2-4-5(8)3-6-7-4/h1,3,8H,(H,6,7)	InChI=1S/C5H4N2O/c1-2-4-5(8)3-6-7-4/h1,3,8H,(H,6,7)
