19
gdb 32914	4.50954	0.79487	0.71188	2.5852	79.33	-0.1927	0.0465	0.2392	1613.175	0.159744	-419.25302	-419.243642	-419.242697	-419.288173	34.051	
C	-0.067985453	 1.5370956369	 0.2183454826	-0.379205
C	-0.1069372972	 0.011889593	 0.3349189394	-0.159777
C	-1.3565604678	-0.6021628422	-0.3271329116	-0.296232
C	-1.4130241345	-2.0926689736	-0.2514519619	 0.338277
N	-1.1984927742	-2.9310227424	-1.2354647116	-0.291104
C	-1.326120497	-4.2035230546	-0.705059156	-0.234391
C	-1.6233302233	-4.1139507584	 0.6267669736	 0.352144
O	-1.8593147903	-4.9985948995	 1.6267290849	-0.437444
N	-1.677921107	-2.7754579475	 0.918868789	-0.336102
H	 0.8269098255	 1.9499785166	 0.6939085775	 0.113482
H	-0.0637876818	 1.8521407588	-0.8308839885	 0.119857
H	-0.9413840275	 1.9952840574	 0.6962858732	 0.111951
H	 0.7851153297	-0.424309109	-0.1290261885	 0.113867
H	-0.0729291124	-0.2781806893	 1.3932688678	 0.08643
H	-2.2569022365	-0.1635822192	 0.1261532811	 0.096911
H	-1.376562692	-0.3399401793	-1.3889991314	 0.129964
H	-1.2022529995	-5.0905529496	-1.3069725536	 0.094866
H	-1.7911599066	-5.8879503477	 1.2660927451	 0.310415
H	-1.8860243448	-2.3908414607	 1.8252371091	 0.266089
38.2894	78.9518	98.2006	232.0046	243.702	256.1593	287.7718	321.308	403.1306	449.2558	485.8391	653.5	668.3107	713.3298	742.8893	768.6696	775.5997	871.9653	898.0852	996.5798	1042.7487	1049.4179	1084.9485	1109.7716	1152.8118	1178.2051	1232.5049	1264.6952	1289.8187	1308.3223	1328.8045	1381.3965	1412.7273	1439.5755	1472.2921	1491.0614	1499.7162	1507.3698	1508.9908	1568.9109	1640.5838	3007.9823	3021.501	3029.755	3061.0705	3091.843	3100.7712	3104.3353	3245.9977	3663.4842	3844.6758
CCCC1=NC=C(O)N1	CCCc1ncc(O)[nH]1	
InChI=1S/C6H10N2O/c1-2-3-5-7-4-6(9)8-5/h4,9H,2-3H2,1H3,(H,7,8)	InChI=1S/C6H10N2O/c1-2-3-5-7-4-6(9)8-5/h4,9H,2-3H2,1H3,(H,7,8)
