18
gdb 110841	2.61659	1.45742	1.21392	1.4912	71.37	-0.2415	0.0132	0.2547	1092.3341	0.147889	-439.081835	-439.073365	-439.072421	-439.115658	31.426	
C	 0.1669855669	 1.3844231913	 0.1949245215	-0.480525
C	 0.0823025054	-0.0911269472	 0.0212564353	 0.382264
N	-0.1463824901	-0.7307415329	-1.0579863921	-0.289941
C	-0.0847266517	-2.1335655194	-0.7303569714	-0.058993
C	 1.2350681875	-2.6814547257	-0.1871395015	-0.088933
C	 2.5686284001	-1.9746249893	-0.3215209787	-0.092308
O	 3.2995553367	-1.9569317672	 0.8967614684	-0.425366
C	 0.1780929902	-2.1922927149	 0.7634050979	 0.02177
O	 0.2761495819	-0.8294396872	 1.1640029243	-0.249964
H	 1.1812016526	 1.6817022848	 0.4807142048	 0.148488
H	-0.0998717579	 1.8749473379	-0.7405438669	 0.157755
H	-0.5065705752	 1.7117963858	 0.9926917343	 0.14797
H	-0.7523998946	-2.7885679029	-1.2764058907	 0.104317
H	 1.2877227545	-3.766425367	-0.2179943762	 0.103329
H	 3.1948327716	-2.5130080639	-1.0391107652	 0.114337
H	 2.4275436123	-0.9614550359	-0.719623071	 0.104654
H	 2.7622443894	-1.4765647649	 1.5360430022	 0.287916
H	-0.3010796695	-2.8167476514	 1.506302265	 0.113229
37.8485	133.0976	147.6933	166.0629	289.5803	321.387	364.1279	390.3949	529.9029	601.8635	653.4632	707.1849	746.1856	779.9655	810.6041	894.4071	920.9832	980.2525	982.1299	1023.5458	1056.5001	1063.8914	1070.153	1087.7138	1103.4137	1139.3299	1191.4518	1229.2502	1247.5543	1327.6824	1343.9411	1381.5791	1409.0806	1414.4975	1430.4672	1474.2213	1477.7178	1507.7987	1712.2028	3019.3997	3050.1891	3082.83	3107.4206	3149.7671	3166.1516	3184.2716	3197.9626	3808.8429
CC1=NC2C(CO)C2O1	CC1=N[C@H]2[C@@H](CO)[C@H]2O1	
InChI=1S/C6H9NO2/c1-3-7-5-4(2-8)6(5)9-3/h4-6,8H,2H2,1H3	InChI=1S/C6H9NO2/c1-3-7-5-4(2-8)6(5)9-3/h4-6,8H,2H2,1H3/t4-,5+,6-/m1/s1
