19
gdb 119201	1.86131	1.30481	0.89107	3.8044	77.74	-0.233	0.025	0.258	1365.6866	0.157962	-419.191041	-419.18123	-419.180286	-419.22606	35.767	
C	 0.1060355876	 1.564043561	 0.1260864193	-0.394035
C	 0.3461789289	 0.0678712491	-0.0434334998	-0.117255
N	 0.3805203013	-0.5962583242	 1.2607107242	-0.356495
C	 0.6139675924	-2.0081371116	 1.2257648027	 0.131267
C	 1.9889129982	-2.5855931163	 0.8278907308	-0.339063
C	 1.5833159873	-2.5877024601	 2.2605871242	 0.059612
O	 2.2439989843	-1.6888961985	 3.0950230797	-0.413212
C	-0.5438148351	-2.8083084967	 0.8993978658	 0.280133
N	-1.4569250535	-3.4675904881	 0.6337090363	-0.350812
H	 0.9185817605	 2.032664487	 0.693725162	 0.113492
H	 0.0546988676	 2.0585672832	-0.8480269307	 0.120875
H	-0.829851464	 1.7472832299	 0.6611638582	 0.132246
H	-0.4711520114	-0.3776113004	-0.6226368034	 0.123468
H	 1.2704342561	-0.1024476628	-0.6235651509	 0.08326
H	 1.07555431	-0.1723180566	 1.8675438068	 0.225807
H	 2.0354746271	-3.5306538628	 0.2997978866	 0.140021
H	 2.7258130506	-1.8466778396	 0.5332765819	 0.137419
H	 1.3063055329	-3.5359757435	 2.715234963	 0.121132
H	 1.7125292692	-1.570961969	 3.8908831833	 0.302139
68.9675	89.8203	141.1795	149.438	170.9249	250.7085	282.605	340.1508	382.7372	397.0031	439.7072	509.6265	579.5646	621.9029	695.6119	760.3033	818.3812	826.337	886.7982	929.8612	940.4409	1015.1464	1052.277	1084.878	1098.9721	1147.0456	1161.5826	1185.4833	1244.4856	1277.6554	1297.3886	1330.226	1387.6384	1414.9911	1430.3528	1477.2351	1483.9009	1498.7047	1503.5671	1523.9802	2346.8225	2945.3648	3034.0894	3052.5761	3102.483	3123.4972	3134.8321	3142.4741	3238.3123	3520.6581	3798.5034
CCNC1(CC1O)C#N	CCN[C@]1(C[C@H]1O)C#N	
InChI=1S/C6H10N2O/c1-2-8-6(4-7)3-5(6)9/h5,8-9H,2-3H2,1H3	InChI=1S/C6H10N2O/c1-2-8-6(4-7)3-5(6)9/h5,8-9H,2-3H2,1H3/t5-,6-/m1/s1
