17
gdb 96625	3.81698	0.88282	0.72393	2.6825	79.21	-0.245	-0.0561	0.1889	1522.9659	0.132335	-417.996006	-417.985702	-417.984758	-418.032166	36.34	
C	 0.0981926665	 1.3868233364	 0.033539109	-0.345037
N	 0.0455117287	-0.0627220165	 0.0176052313	-0.278229
C	-1.1101237928	-0.6083450522	-0.0560116877	 0.283283
N	-2.3343798972	-0.0087231999	-0.1492198656	-0.55349
C	-1.1955463789	-2.1229049722	-0.0748876569	 0.3565
O	-2.2758264877	-2.6658654201	-0.0630902475	-0.305933
C	 0.1345739678	-2.8710413406	-0.1057224623	-0.489785
C	-0.0000121022	-4.3162310076	-0.0545798797	 0.32198
C	-0.0980585736	-5.5120531983	-0.0118522176	-0.423782
H	 1.138958096	 1.7173780072	 0.0554164049	 0.129953
H	-0.3827643979	 1.8273234329	-0.8538694845	 0.120512
H	-0.4027511578	 1.8098994231	 0.9199269455	 0.113094
H	-2.4438998501	 0.9525818014	 0.1226893811	 0.260714
H	-3.1270351996	-0.6236291439	-0.0384623386	 0.273156
H	 0.6700741587	-2.5502461811	-1.0082942281	 0.168644
H	 0.7506225543	-2.4892494073	 0.7163916514	 0.172815
H	-0.1879423044	-6.5692018014	 0.0264276052	 0.195605
29.0924	81.7132	114.2156	140.8453	188.7782	201.4706	305.1322	319.4921	328.6642	384.0154	410.3635	491.4839	494.1223	572.2084	621.1834	646.5169	694.6896	712.4492	823.4566	942.9232	961.6706	1000.6039	1080.2677	1097.9277	1114.7441	1193.6628	1202.4878	1318.4844	1381.3641	1418.1117	1431.9412	1489.0502	1501.5466	1602.2274	1726.8528	1800.9622	2250.3089	2964.0329	3011.1704	3043.8453	3072.3593	3108.1745	3507.9404	3585.3509	3720.4462
CN=C(N)C(=O)CC#C	CN=C(N)C(=O)CC#C	
InChI=1S/C6H8N2O/c1-3-4-5(9)6(7)8-2/h1H,4H2,2H3,(H2,7,8)	InChI=1S/C6H8N2O/c1-3-4-5(9)6(7)8-2/h1H,4H2,2H3,(H2,7,8)
