20
gdb 12481	2.59029	2.09563	1.40857	2.8402	74.1	-0.2334	-0.0111	0.2222	956.2836	0.179449	-349.042725	-349.034892	-349.033947	-349.075125	29.731	
O	-0.0019726763	-0.0620382108	-0.089022743	-0.313678
C	-0.0329234381	 1.1412727317	 0.0358938617	 0.386089
C	-1.3459943602	 1.9086634053	 0.1426649211	-0.28815
C	-1.9171633729	 2.2965890923	-1.2436310961	-0.188943
C	-0.883941063	 2.7653612623	-2.2892867029	-0.191957
C	 0.2899582052	 3.6157629546	-1.7624068775	-0.190873
C	 1.472035471	 2.7811616778	-1.2378573513	-0.193057
C	 1.2336368114	 1.9895441682	 0.0678236366	-0.285671
H	-2.0694446969	 1.2799173434	 0.6687099888	 0.118371
H	-1.1875075341	 2.8133928218	 0.7381442216	 0.100995
H	-2.4564500532	 1.4367982968	-1.6536725443	 0.115969
H	-2.6634072312	 3.0831940892	-1.0853118987	 0.101467
H	-0.4634768705	 1.8877616683	-2.7971985817	 0.107796
H	-1.4204867623	 3.3253548605	-3.0629965094	 0.095751
H	 0.6666465066	 4.2347312062	-2.5845198717	 0.09936
H	-0.0563081161	 4.3193465414	-0.9931633795	 0.09299
H	 1.7673097413	 2.0742399695	-2.023363793	 0.111592
H	 2.334517494	 3.437192867	-1.0750069467	 0.101121
H	 1.1574880157	 2.6948866857	 0.9050522034	 0.105073
H	 2.0819770697	 1.3257812188	 0.2540274925	 0.115754
78.8767	109.2472	146.1798	286.1151	300.8277	383.3258	438.5165	480.2815	528.5461	662.0322	735.1097	774.4827	796.7684	844.6342	872.9461	933.3769	944.3256	988.8698	1014.691	1034.3993	1070.4239	1116.3003	1160.8583	1176.2054	1203.5986	1232.9714	1256.4894	1279.7763	1299.0428	1342.6626	1348.7365	1370.6664	1382.1011	1386.9844	1392.6193	1470.3989	1479.8894	1484.1419	1491.8075	1497.0611	1503.6243	1810.5533	3016.0449	3022.3457	3024.7569	3026.8359	3035.8032	3049.0198	3058.9578	3065.7798	3069.5923	3081.6622	3101.0672	3106.4697
O=C1CCCCCC1	O=C1CCCCCC1	
InChI=1S/C7H12O/c8-7-5-3-1-2-4-6-7/h1-6H2	InChI=1S/C7H12O/c8-7-5-3-1-2-4-6-7/h1-6H2
