15
gdb 45122	2.64892	1.75475	1.22855	5.4919	65.44	-0.2575	-0.076	0.1815	985.7697	0.112874	-457.789043	-457.781714	-457.780769	-457.821265	27.726	
O	-0.0482098581	 0.0169084934	-0.1757898041	-0.263243
C	-0.0719380284	 1.2089230818	-0.0276139201	 0.243617
C	-1.3437477718	 2.0314304773	 0.0519567423	-0.320497
C	-1.2346748984	 3.1305664698	 1.0870086157	-0.078196
C	-0.5630718909	 2.8347192902	 2.4180078011	-0.326445
C	 0.1364008404	 3.6615135506	 1.3784163741	 0.121891
O	 1.2735538449	 3.175304657	 0.6900252569	-0.219417
C	 1.2701263203	 1.9891835235	 0.0367171464	 0.336182
O	 2.2632058343	 1.5811692987	-0.4899466337	-0.291045
H	-1.4930801138	 2.4774042811	-0.9427847919	 0.144213
H	-2.1842594742	 1.3558995236	 0.2350927318	 0.142276
H	-2.0480222905	 3.8490515904	 1.0881135273	 0.109479
H	-0.92275691	 3.3316930894	 3.3115223949	 0.132547
H	-0.1982077249	 1.8251522356	 2.5841742848	 0.142183
H	 0.2795023312	 4.7197907176	 1.5562656846	 0.126454
69.4809	112.1367	292.6434	326.1312	351.0477	379.9369	484.4587	518.6971	579.9115	649.8773	689.7135	750.7663	810.163	823.2347	884.2362	947.5538	1016.1135	1041.5993	1063.7367	1068.9248	1121.3332	1131.2606	1162.5076	1196.6273	1229.3841	1273.51	1325.9908	1380.7445	1420.2293	1459.1082	1491.0404	1834.7591	1849.4734	3010.6065	3091.587	3131.4705	3159.0106	3194.7537	3222.3527
O=C1CC2CC2OC1=O	O=C1C[C@H]2C[C@H]2OC1=O	
InChI=1S/C6H6O3/c7-4-1-3-2-5(3)9-6(4)8/h3,5H,1-2H2	InChI=1S/C6H6O3/c7-4-1-3-2-5(3)9-6(4)8/h3,5H,1-2H2/t3-,5+/m0/s1
