18
gdb 67516	2.38661	1.80094	1.54249	2.9671	75.6	-0.2327	-0.0345	0.1982	963.1638	0.146836	-401.897989	-401.890137	-401.889193	-401.930006	30.844	
C	-0.0802804522	 1.5447513888	 0.0317524044	-0.475445
C	 0.0304291017	 0.0447526825	-0.0271464396	 0.24954
C	 0.7097837538	-0.7899193205	-1.1568600262	-0.100696
C	 1.6948715028	-1.4371688808	-0.1472326997	-0.373186
C	 0.9623986202	-0.676950099	 0.985533027	 0.349943
O	 1.0907013803	-0.6312519058	 2.173787673	-0.296107
C	-0.6558161678	-1.462337677	-1.3585942984	-0.02703
C	-1.2168670083	-2.0717984979	-0.1384719027	-0.256626
N	-1.332231338	-0.6061208128	-0.291843318	-0.173035
H	 0.9073838106	 2.0168688126	 0.0428598816	 0.117979
H	-0.6418492287	 1.9191729443	-0.8292036849	 0.129402
H	-0.6127916163	 1.8403537471	 0.941539559	 0.143475
H	 1.1319199382	-0.3110380846	-2.0379890047	 0.083875
H	 1.7187291873	-2.5273592707	-0.0639929493	 0.130687
H	 2.7225065868	-1.0755504397	-0.2613130879	 0.136676
H	-1.1227920315	-1.6002065136	-2.3288364861	 0.100296
H	-2.1820765142	-2.560094502	-0.2385639105	 0.127944
H	-0.5908048448	-2.501956461	 0.637442613	 0.132309
107.5647	194.9956	197.1693	248.5799	263.7815	343.9024	461.5884	480.7556	535.6817	611.2114	656.5081	730.714	754.2704	775.9809	843.7732	881.8504	887.0754	945.4829	997.0099	1018.1125	1034.741	1060.0769	1094.7529	1098.8814	1107.8807	1131.7927	1165.1006	1171.2499	1215.3942	1231.8517	1305.6628	1313.3253	1364.3757	1404.2578	1430.1278	1478.5248	1485.2075	1516.9276	1881.7828	3035.3902	3051.7167	3106.25	3108.56	3113.7939	3118.7504	3134.0746	3158.2852	3198.9919
CC12C(CC1=O)C1CN21	C[C@@]12[C@@H](CC1=O)[C@H]1CN21	
InChI=1S/C7H9NO/c1-7-4(2-6(7)9)5-3-8(5)7/h4-5H,2-3H2,1H3	InChI=1S/C7H9NO/c1-7-4(2-6(7)9)5-3-8(5)7/h4-5H,2-3H2,1H3/t4-,5+,7+,8?/m0/s1
