14
gdb 16617	3.51733	2.28737	1.54096	0.6853	64.09	-0.2286	-0.0551	0.1734	795.159	0.108919	-378.744876	-378.73824	-378.737296	-378.775344	25.936	
N	 0.0091403546	 1.3057037898	-0.1556703811	-0.566814
C	-0.0626502508	-0.0411725019	-0.0344052151	 0.269631
N	-1.1217067858	-0.7693437674	-0.0085351566	-0.288307
C	-0.702976912	-2.1615682747	 0.0353521755	-0.000271
C	-0.0539113206	-2.6729805023	-1.2073039405	-0.281329
C	 0.8083695678	-2.2496776698	-0.0014018934	-0.17983
C	 1.2420304747	-0.8265641642	 0.0185699953	 0.363836
O	 2.341781362	-0.3351581704	 0.1085290125	-0.33738
H	 0.9006549694	 1.7231897624	 0.0611208644	 0.271611
H	-0.8207638564	 1.854839921	-0.0050581054	 0.265846
H	-1.3014139299	-2.8178889444	 0.6556544066	 0.105793
H	-0.0595220434	-3.7387069075	-1.4125902248	 0.127333
H	-0.0712815575	-2.0344611167	-2.0845836136	 0.133354
H	 1.4041216679	-3.0003694939	 0.4993236062	 0.116527
152.8278	220.9005	273.7086	360.935	435.2584	456.5328	511.6827	549.2642	626.5038	684.3821	739.2007	798.2259	815.8701	837.6518	943.3187	961.8017	985.6781	1042.3144	1066.9545	1093.6905	1158.1626	1176.2834	1187.1158	1308.6406	1326.0805	1413.5314	1477.2839	1604.848	1719.8232	1826.7509	3127.1466	3185.8593	3211.3807	3221.9153	3591.561	3716.6601
NC1=NC2CC2C1=O	NC1=N[C@H]2C[C@H]2C1=O	
InChI=1S/C5H6N2O/c6-5-4(8)2-1-3(2)7-5/h2-3H,1H2,(H2,6,7)	InChI=1S/C5H6N2O/c6-5-4(8)2-1-3(2)7-5/h2-3H,1H2,(H2,6,7)/t2-,3+/m1/s1
