18
gdb 88141	2.52041	1.55229	1.14452	2.9404	73.75	-0.2325	-0.032	0.2005	1105.5016	0.146909	-439.064751	-439.05637	-439.055426	-439.0979	31.25	
C	-0.1920226915	 1.4420905923	-0.0683909865	-0.319645
N	 0.0117176383	 0.0057970601	 0.0512284302	-0.09871
C	 1.3518384836	-0.4944617855	-0.1895847625	-0.29411
C	 0.8037432603	-0.4897585215	 1.1947458677	 0.199943
C	 1.3072804795	 0.3425146759	 2.3596024687	-0.180352
O	 0.5771527134	-0.1252051939	 3.4979271534	-0.252735
C	 0.3378793832	-1.512314011	 3.3398909687	-0.18904
C	 0.293693634	-1.7629465399	 1.8324679749	 0.326892
O	-0.0504438697	-2.7666860753	 1.2681464292	-0.304436
H	 0.6974891568	 2.0501395767	 0.1647093411	 0.102652
H	-0.4857619543	 1.6582405906	-1.0999648369	 0.135578
H	-1.0082048249	 1.7522441662	 0.5909631416	 0.135373
H	 1.4162022876	-1.4414118921	-0.7195635186	 0.137591
H	 2.1388852606	 0.2279917213	-0.409538204	 0.112278
H	 2.3884468983	 0.1921687275	 2.5091472392	 0.102964
H	 1.119834308	 1.4142203625	 2.2665672883	 0.122076
H	 1.139527233	-2.1246783039	 3.7871709857	 0.119699
H	-0.6065984361	-1.7777683399	 3.8225079197	 0.143986
73.653	146.69	161.1685	219.1834	237.5693	291.3022	377.1619	435.4971	477.3871	558.6455	578.4037	648.9156	734.1681	761.2941	846.1747	922.265	946.7878	997.4331	1038.9348	1065.4135	1082.6675	1098.0366	1129.1851	1140.2033	1178.4282	1206.1665	1206.9702	1249.8384	1257.3742	1318.1342	1355.2953	1416.4283	1446.08	1475.2364	1485.1725	1498.2006	1499.5903	1511.2629	1858.4743	2965.5146	2968.6443	2976.5783	3073.9508	3079.6325	3094.7772	3103.9631	3111.8718	3179.7599
CN1CC11COCC1=O	CN1C[C@]21COCC2=O	
InChI=1S/C6H9NO2/c1-7-3-6(7)4-9-2-5(6)8/h2-4H2,1H3	InChI=1S/C6H9NO2/c1-7-3-6(7)4-9-2-5(6)8/h2-4H2,1H3/t6-,7?/m0/s1
