21
gdb 101891	4.05912	0.5876	0.54935	1.7907	77.28	-0.2575	-0.0298	0.2276	2001.5337	0.178873	-461.360144	-461.349143	-461.348199	-461.3982	37.66	
C	-0.1722731847	 1.5203930782	 0.0089750533	-0.39968
C	-0.0430181309	 0.0015553919	-0.1096820201	 0.117136
C	 0.8508242569	-0.4173313772	-1.2796983171	-0.061999
O	 2.1758708363	 0.0515335738	-1.1209087049	-0.420435
O	 0.5816398167	-0.5828283975	 1.0368196378	-0.276248
C	-0.1936703899	-0.6170741451	 2.2141001548	-0.066378
C	 0.5592042349	-1.4599269603	 3.2449767158	-0.279344
C	-0.076575499	-1.3858829102	 4.6145063606	 0.153222
O	-0.4365841878	-2.3361973227	 5.2588537947	-0.230608
H	 0.8196779898	 1.9740172575	 0.0722349323	 0.136571
H	-0.6789647553	 1.9212921943	-0.8745944846	 0.120019
H	-0.7565585083	 1.8137028346	 0.8851858423	 0.114211
H	-1.0389432999	-0.4512253061	-0.2472836815	 0.067374
H	 0.8218371331	-1.5139140104	-1.3690711775	 0.091643
H	 0.4693191264	 0.0103026611	-2.2124346433	 0.107295
H	 2.4590875715	-0.2542835605	-0.2511589291	 0.289642
H	-0.3641213768	 0.3960650902	 2.6112492202	 0.097972
H	-1.1822423537	-1.058427777	 2.0091356619	 0.103968
H	 0.6261312849	-2.5039380901	 2.9310139534	 0.131332
H	 1.5773147603	-1.0537244216	 3.3260245628	 0.129916
H	-0.1927165945	-0.3496939731	 5.0119327482	 0.074391
39.2683	49.5672	71.4516	94.4461	127.1576	165.0082	216.8469	250.9191	288.7295	346.5909	395.767	444.7462	462.8689	533.9043	661.9272	787.3827	821.795	872.2807	912.7472	925.3767	1006.6071	1010.7954	1074.0469	1109.9601	1121.4464	1137.0612	1145.1914	1162.5051	1225.2583	1245.201	1276.2954	1306.7104	1343.8023	1363.1521	1386.3213	1412.8787	1428.566	1431.8893	1437.9892	1467.6002	1489.7183	1495.7113	1501.6952	1528.6083	1838.8974	2851.749	2965.1886	2971.3525	2993.5189	2998.717	3026.0302	3047.4985	3082.0122	3113.208	3118.4882	3134.763	3797.0918
CC(CO)OCCC=O	C[C@@H](CO)OCCC=O	
InChI=1S/C6H12O3/c1-6(5-8)9-4-2-3-7/h3,6,8H,2,4-5H2,1H3	InChI=1S/C6H12O3/c1-6(5-8)9-4-2-3-7/h3,6,8H,2,4-5H2,1H3/t6-/m0/s1
