19
gdb 80502	2.13635	1.4765	1.21831	4.8329	81.18	-0.2519	-0.0017	0.2502	1143.6379	0.159088	-382.043665	-382.034692	-382.033748	-382.077052	33.573	
C	-0.1931281634	 1.518534066	-0.1842224512	-0.433212
C	 0.0189932924	 0.040668034	 0.0491839754	-0.014211
N	 1.2294748935	-0.722374178	-0.2854830763	-0.170812
C	 2.4268261624	 0.1072099578	 0.1147826341	-0.193506
C	 2.0484068043	 0.0631353749	 1.6196304327	-0.037993
C	 2.018840865	 1.3022695399	 2.5050464685	-0.428808
C	 0.7418107835	-0.6177487185	 1.1766879053	 0.145012
C	 0.1649717247	-1.7213153254	 1.8875072058	 0.218248
N	-0.2980232354	-2.5866002932	 2.5013340347	-0.340926
H	 0.6548174607	 2.1420614171	 0.0954698725	 0.13017
H	-0.4018476917	 1.6902704894	-1.2456325493	 0.136807
H	-1.0633077726	 1.8591451153	 0.3854393355	 0.138343
H	-0.84811329	-0.54514918	-0.2536946464	 0.119875
H	 3.3410451776	-0.4342197649	-0.1299362809	 0.124035
H	 2.4630763594	 1.0908319042	-0.3608292173	 0.112784
H	 2.6658432617	-0.6980393935	 2.1044570804	 0.109121
H	 1.420674399	 2.1130878115	 2.0837070197	 0.123925
H	 1.602733289	 1.0578821505	 3.4880313284	 0.135421
H	 3.0347595799	 1.6800814329	 2.6613669986	 0.125729
118.6918	140.3714	144.9737	183.8218	224.5886	254.001	308.7258	344.7623	440.0044	514.6016	530.6294	556.1216	644.4991	686.8618	724.6072	840.6088	870.7988	914.3001	935.1617	966.3787	1058.9475	1089.7784	1116.5566	1125.7005	1143.9525	1154.8358	1199.323	1232.1451	1265.7829	1307.1831	1330.8077	1385.5292	1406.1288	1414.1748	1450.7812	1486.5977	1493.2458	1498.5714	1505.0318	1516.0681	2341.8938	3040.8983	3046.6241	3068.3446	3069.1717	3102.1623	3105.007	3118.6561	3126.1328	3129.151	3157.9573
CC1N2CC(C)C12C#N	C[C@H]1N2C[C@@H](C)[C@@]12C#N	
InChI=1S/C7H10N2/c1-5-3-9-6(2)7(5,9)4-8/h5-6H,3H2,1-2H3	InChI=1S/C7H10N2/c1-5-3-9-6(2)7(5,9)4-8/h5-6H,3H2,1-2H3/t5-,6-,7+,9?/m1/s1
