16
gdb 31674	6.50393	0.84328	0.75806	4.7545	76.96	-0.1976	-0.042	0.1556	1446.8991	0.124029	-437.916908	-437.908203	-437.907259	-437.951063	30.752	
C	-0.1245629471	 1.4346109633	 0.1781408484	-0.333202
N	-0.0594556826	 0.0576062784	-0.3054952937	-0.387935
C	-1.1547255229	-0.7640202907	-0.1507625185	 0.461268
C	-1.3080145596	-2.1052451336	 0.0386420353	-0.446087
C	-2.730090728	-2.3458900556	 0.0026723141	 0.182731
C	-3.4294766788	-3.621935883	 0.1560690064	 0.070238
O	-4.6331948175	-3.7594534162	 0.1274635326	-0.278192
C	-3.3207474003	-1.131482561	-0.1915479332	-0.087671
O	-2.3720841653	-0.1619885484	-0.2890733223	-0.173472
H	 0.8098707827	 1.9365366443	-0.0812307046	 0.130784
H	-0.9417275753	 1.9572588055	-0.322046564	 0.155039
H	-0.2795369326	 1.5108481057	 1.2644515964	 0.120368
H	 0.7979121236	-0.4173268461	-0.0640023903	 0.248433
H	-0.5260382898	-2.832617125	 0.1873917229	 0.10924
H	-2.7587153491	-4.497248244	 0.3077892436	 0.065166
H	-4.3453483775	-0.8123146036	-0.2670324131	 0.163292
49.7465	96.8751	152.2952	156.0241	215.4737	250.3751	347.4987	384.3133	496.3395	605.8326	628.63	686.1539	719.4787	726.7544	770.6542	781.0771	943.0604	1013.3631	1039.1842	1054.9195	1137.7828	1146.719	1157.2306	1199.1846	1258.4211	1326.3245	1382.4688	1444.544	1454.4741	1483.8873	1490.2803	1516.0292	1590.4058	1662.8824	1789.1053	2877.3432	2996.4899	3100.9449	3142.3156	3258.33	3300.7365	3608.3026
CNC1=CC(C=O)=CO1	CNc1cc(C=O)co1	
InChI=1S/C6H7NO2/c1-7-6-2-5(3-8)4-9-6/h2-4,7H,1H3	InChI=1S/C6H7NO2/c1-7-6-2-5(3-8)4-9-6/h2-4,7H,1H3
