16
gdb 75850	3.24181	1.37818	0.97882	1.3388	81.6	-0.2238	-0.0412	0.1826	1154.691	0.124067	-396.921982	-396.913198	-396.912254	-396.956196	31.493	
C	-0.0516279689	 1.4488489201	 0.0090064177	-0.3367
N	 0.0023096912	 0.0031937929	-0.0009272829	-0.117014
C	-1.1298511382	-0.8024220267	 0.0029500567	 0.333722
N	-2.3067549915	-0.3188354579	 0.0136571221	-0.561211
C	-0.5647117516	-2.221632842	-0.0079308081	-0.282695
N	 0.8938323096	-2.0904365301	-0.0159868197	-0.322241
C	 1.126058139	-0.8247651255	-0.0112396943	 0.246221
C	 2.4345152606	-0.2576143903	-0.0164858692	 0.258527
C	 3.5325828504	 0.2313677268	-0.0208035127	-0.375068
H	 0.9647732556	 1.8431553767	 0.0001998591	 0.143626
H	-0.596417298	 1.8131089516	-0.867292907	 0.148187
H	-0.5768379347	 1.8024148834	 0.9015771238	 0.14786
H	-3.001390438	-1.0642413384	 0.014798682	 0.220387
H	-0.8915986075	-2.7890923654	 0.871767277	 0.143077
H	-0.9020126506	-2.7795089776	-0.8898539258	 0.143097
H	 4.5100181024	 0.6483167927	-0.0249047388	 0.210225
39.0651	102.4849	150.5733	166.119	192.7806	291.0354	377.797	415.6736	539.0967	547.2736	583.7451	649.2675	676.1575	701.3522	723.5232	728.4445	830.6237	950.4492	982.7349	1031.6563	1036.7441	1159.6014	1168.4467	1184.4752	1228.4953	1292.0715	1367.0197	1419.1528	1447.2751	1467.9679	1474.8275	1519.466	1641.3308	1735.4997	2245.005	3035.1824	3043.7065	3065.0245	3100.7308	3154.4225	3494.9684	3497.8066
CN1C(=N)CN=C1C#C	CN1[C]([NH])CN=C1C#C	
InChI=1S/C6H7N3/c1-3-6-8-4-5(7)9(6)2/h1,7H,4H2,2H3	InChI=1S/C6H7N3/c1-3-6-8-4-5(7)9(6)2/h1,7H,4H2,2H3
