15
gdb 10019	2.93863	1.44536	0.97467	1.85	70.2	-0.2568	-0.0316	0.2253	1149.9477	0.118174	-396.005858	-395.997382	-395.996438	-396.039192	28.979	
C	-0.1292355555	 1.3368639634	 0.3577655208	-0.315431
N	 0.0194218907	-0.0673805485	 0.0340958115	-0.226056
C	 0.399647802	-0.8404244997	 0.9561095927	 0.120994
N	 0.5744988431	-2.223789264	 0.74185963	-0.146051
C	 0.9989153331	-3.0514373627	 1.7926314346	 0.098505
N	 1.2345766986	-2.5880523109	 2.9490849838	-0.459553
C	 0.3306003218	-2.7989156356	-0.5142652139	 0.170437
O	 0.4660469157	-3.9750137398	-0.7451458729	-0.305772
H	 0.5165874751	 1.9307126033	-0.2985008571	 0.135622
H	-1.1601190048	 1.6484133086	 0.1561636876	 0.135621
H	 0.113770607	 1.5781433598	 1.4037226999	 0.109355
H	 0.6306435499	-0.554890973	 1.9850674291	 0.147534
H	 1.0835655936	-4.0869467979	 1.4619213229	 0.150241
H	 1.529949602	-3.3349479316	 3.5743800091	 0.240582
H	 0.0060221277	-2.0455403613	-1.2431084181	 0.143969
89.0576	137.6151	168.074	179.8929	201.0593	254.8566	259.3974	387.9851	399.1348	436.3657	643.2288	755.9117	836.4182	909.4741	1005.2596	1038.7137	1056.5146	1088.6387	1144.1462	1154.365	1171.8614	1269.4551	1342.3273	1403.9746	1406.5467	1431.9277	1447.9911	1479.9095	1502.0336	1722.8346	1761.0984	1812.3011	2986.5681	3069.9928	3072.7644	3085.4953	3108.5866	3137.3881	3513.0433
CN=CN(C=N)C=O	CN=CN(C=N)C=O	
InChI=1S/C4H7N3O/c1-6-3-7(2-5)4-8/h2-5H,1H3	InChI=1S/C4H7N3O/c1-6-3-7(2-5)4-8/h2-5H,1H3
