16
gdb 127003	6.91283	0.80883	0.73074	1.8908	69.45	-0.2266	0.0213	0.2479	1505.8713	0.123494	-475.019164	-475.01061	-475.009666	-475.053183	30.861	
C	 0.0142119435	 1.4583998792	-0.0195778342	-0.391061
C	 0.0003177784	-0.0567883868	-0.0076954839	-0.058983
O	 0.7159021611	-0.4824927355	 1.1731720841	-0.275845
C	 0.8298818605	-1.782778304	 1.3900726826	 0.580846
C	 1.445730689	-2.4460807639	 2.4115808839	-0.518881
C	 1.2128351563	-3.7993999574	 2.0634650858	 0.500633
O	 1.6321997111	-4.8578449597	 2.7735028586	-0.418069
N	 0.5296952951	-3.9571213949	 0.9516067594	-0.283917
O	 0.2798984837	-2.6313656099	 0.5121104888	-0.23085
H	 1.0390320565	 1.8374381228	-0.0527495393	 0.135983
H	-0.5194380612	 1.8229404889	-0.9022166558	 0.128163
H	-0.4756902437	 1.8587434814	 0.8718948087	 0.135981
H	-1.0192841736	-0.4543816695	 0.0309028742	 0.129526
H	 0.4917144002	-0.4753882955	-0.8922807128	 0.129479
H	 1.9699477495	-2.042237491	 3.257986055	 0.126965
H	 1.3362297436	-5.6527455841	 2.3090283751	 0.31003
52.9915	72.9194	145.4243	213.2266	254.8969	341.5758	360.7609	400.8293	458.1431	516.1331	664.7035	672.8512	720.3198	763.1185	770.8816	815.1619	899.4857	941.1857	1005.4784	1045.5921	1057.6196	1129.1916	1179.6879	1196.2556	1252.1981	1295.5766	1340.7892	1394.6224	1420.0743	1484.5554	1498.3318	1518.274	1559.6505	1572.4966	1676.4508	3043.8572	3050.1667	3085.7918	3125.4399	3132.2502	3303.9929	3774.6811
CCOC1=CC(O)=NO1	CCOc1cc(O)no1	
InChI=1S/C5H7NO3/c1-2-8-5-3-4(7)6-9-5/h3H,2H2,1H3,(H,6,7)	InChI=1S/C5H7NO3/c1-2-8-5-3-4(7)6-9-5/h3H,2H2,1H3,(H,6,7)
