15
gdb 8739	3.75052	1.2971	1.18067	1.6832	65.63	-0.2871	0.0042	0.2913	1028.0844	0.118806	-358.863873	-358.855122	-358.854177	-358.897202	30.636	
C	 0.084456401	 1.5799342952	 0.002876499	-0.41651
C	-0.0048355483	 0.0435260057	 0.027968336	-0.131269
C	 0.7233071167	-0.5114715857	 1.1731360564	 0.283684
N	 1.3181935849	-0.9526150129	 2.0595660661	-0.314309
C	-1.4726458513	-0.4842757439	 0.0455310484	-0.140591
N	-2.2023254228	 0.0227872571	 1.2006588023	-0.485677
C	-2.1196151175	-0.1743729742	-1.2490842698	 0.265194
N	-2.6520163416	 0.0984697323	-2.2384821585	-0.315468
H	 1.1269303431	 1.8963133629	-0.0703958163	 0.150107
H	-0.4573096454	 1.9709456523	-0.8627435795	 0.149398
H	-0.3333239152	 2.0094802973	 0.9163659209	 0.148726
H	 0.4676392723	-0.3520919676	-0.8790619366	 0.147173
H	-1.4272899762	-1.5744519973	 0.1345009026	 0.153396
H	-2.4861058048	 0.9862845213	 1.0565879923	 0.25069
H	-3.048200945	-0.5162521426	 1.3505753665	 0.255458
68.7497	128.3759	170.0436	221.9986	226.1325	243.0963	277.2587	321.8235	392.3933	504.2623	562.2953	576.026	665.4504	807.3089	833.0604	886.4725	968.9008	1023.0658	1060.9237	1107.7326	1159.2723	1213.2827	1292.6729	1330.2993	1355.1714	1400.4413	1412.7642	1495.0888	1507.7226	1668.3111	2346.0468	2364.7507	3047.8456	3055.1446	3068.7276	3134.2406	3139.1469	3516.9711	3596.4971
CC(C#N)C(N)C#N	C[C@@H](C#N)[C@@H](N)C#N	
InChI=1S/C5H7N3/c1-4(2-6)5(8)3-7/h4-5H,8H2,1H3	InChI=1S/C5H7N3/c1-4(2-6)5(8)3-7/h4-5H,8H2,1H3/t4-,5-/m0/s1
