19
gdb 40230	2.14819	2.01178	1.27733	3.1114	74.42	-0.2551	0.0582	0.3132	1034.6746	0.159468	-422.995032	-422.987094	-422.98615	-423.027766	30.825	
C	-0.4257260943	 1.5015731429	 0.1077922351	-0.250469
O	 0.8967076924	 1.0395043467	-0.1840949228	-0.273054
C	-0.1209347896	 0.0672045446	-0.0017256997	 0.408623
C	-0.0910467113	-0.8781241131	 1.2072764476	-0.314528
C	-0.5982044387	-2.2412048334	 0.6654566634	-0.213595
C	-1.363721712	-1.8965008829	-0.6331370717	-0.303322
C	-0.5326312861	-0.7640438802	-1.1995910366	 0.357721
C	-0.5147545019	-0.2835322523	-2.5786868034	-0.264834
O	 0.523426565	-1.141860687	-2.0964629651	-0.26982
H	-0.5598939639	 1.941947487	 1.0956955962	 0.113443
H	-0.9312048362	 2.0200683336	-0.7057299617	 0.10973
H	 0.9223346163	-0.9405157923	 1.6117141921	 0.125489
H	-0.7378538746	-0.5022148294	 2.0059563519	 0.106173
H	 0.2518628658	-2.8835495401	 0.4166007414	 0.12136
H	-1.2136083244	-2.7783866601	 1.3905811845	 0.099693
H	-1.444643222	-2.7324561566	-1.3308882877	 0.114012
H	-2.3754238674	-1.5398822403	-0.4016742922	 0.103168
H	-1.187733474	-0.7230130246	-3.3145639403	 0.11045
H	-0.2009803532	 0.7391375176	-2.7852231312	 0.119761
53.2255	149.1285	214.1303	239.5118	324.5199	357.9645	402.785	524.3129	532.8119	568.4922	633.7562	789.69	808.1949	851.9081	877.0804	894.2218	909.5319	943.4053	965.5982	987.0945	1018.11	1067.4642	1111.1982	1123.9503	1134.3802	1161.6688	1170.6698	1183.759	1210.0992	1238.8974	1262.735	1306.6198	1318.9338	1338.2553	1412.0824	1440.6139	1475.1278	1483.6629	1503.7446	1527.4774	1530.1289	3032.4608	3053.8662	3060.1171	3075.877	3077.7171	3097.4928	3109.9166	3116.7599	3161.9868	3165.053
C1OC11CCCC11CO1	C1O[C@]21CCC[C@]12CO1	
InChI=1S/C7H10O2/c1-2-6(4-8-6)7(3-1)5-9-7/h1-5H2	InChI=1S/C7H10O2/c1-2-6(4-8-6)7(3-1)5-9-7/h1-5H2/t6-,7+
