13
gdb 8645	2.50628	1.83163	1.41028	3.9843	59.18	-0.3013	-0.027	0.2742	901.1755	0.094937	-394.778771	-394.770424	-394.76948	-394.811403	29.435	
N	-0.0103236047	 1.4418103154	 0.1818244166	-0.526599
C	 0.0096924416	-0.0218109787	 0.0324807262	-0.103669
C	 0.7693637628	-0.5925648344	 1.276568303	-0.044619
O	 0.1466784641	-0.1872808309	 2.4546535986	-0.402351
C	-1.3806750042	-0.5125507154	 0.0290361298	 0.328242
N	-2.4702552101	-0.8922191456	 0.0128642658	-0.308572
C	 0.6881643764	-0.4720273458	-1.2037289776	 0.281455
N	 1.2820726773	-0.7799564114	-2.1457523182	-0.314544
H	 0.9099097178	 1.8143841977	-0.0379948869	 0.260505
H	-0.671642761	 1.8635016319	-0.4629417153	 0.268724
H	 0.765208061	-1.6843851068	 1.2421485531	 0.149062
H	 1.8126468118	-0.2466977641	 1.1940021883	 0.111767
H	-0.0001912826	 0.7660371684	 2.3773711869	 0.300599
125.1979	134.8575	151.2307	192.6105	248.7739	287.4936	326.4325	420.6359	487.9089	505.9866	536.0726	577.8544	615.6204	720.4768	872.4298	937.1114	1029.4881	1058.2733	1113.114	1150.8934	1228.3786	1329.883	1381.6522	1432.7819	1503.6344	1654.0457	2353.4827	2374.9649	2978.8304	3113.0008	3497.0735	3583.5091	3748.8025
NC(CO)(C#N)C#N	NC(CO)(C#N)C#N	
InChI=1S/C4H5N3O/c5-1-4(7,2-6)3-8/h8H,3,7H2	InChI=1S/C4H5N3O/c5-1-4(7,2-6)3-8/h8H,3,7H2
