21
gdb 117509	2.13819	1.04598	0.78842	2.1492	85.8	-0.2436	-0.0204	0.2231	1545.4244	0.178206	-387.086076	-387.074942	-387.073998	-387.123228	39.219	
C	-0.0438472722	 1.6727619003	 0.0635529913	-0.3857
C	 0.0156973588	 0.1432446891	 0.0383484416	-0.178126
C	-1.375620629	-0.4956890134	-0.0323265849	-0.166837
C	-1.3376591374	-2.0375687342	-0.0469608322	-0.274173
C	-2.6546398525	-2.6253591942	 0.1884261972	 0.306218
C	-3.7476951861	-3.1001912847	 0.3497665128	-0.44693
C	-0.7937492538	-2.6007670538	-1.3903312145	 0.391329
C	-0.3906273892	-4.060427243	-1.3822438589	-0.478336
O	-0.7009186153	-1.9029762644	-2.3693292062	-0.29264
H	 0.9585391585	 2.1081800774	 0.1206647281	 0.112021
H	-0.5253371773	 2.0625221291	-0.8397056736	 0.121486
H	-0.6145989697	 2.0350478556	 0.9260020502	 0.11279
H	 0.6090793407	-0.1845662542	-0.8217641944	 0.115724
H	 0.535634766	-0.2177785	 0.9365496783	 0.088182
H	-1.9751155532	-0.1749135922	 0.8264765639	 0.101509
H	-1.8955180004	-0.1593675656	-0.9346086133	 0.12413
H	-0.6619062242	-2.3919513689	 0.7460229388	 0.10992
H	-4.7123118337	-3.515950884	 0.5061350399	 0.199266
H	-1.177173753	-4.6757223319	-0.93635881	 0.154252
H	-0.1753315139	-4.3931521284	-2.3980777126	 0.143859
H	 0.5068127771	-4.1849341487	-0.7639974016	 0.142054
45.4248	74.3013	94.1339	120.3632	125.1245	141.4865	236.9451	258.5022	281.9587	318.3793	404.1204	426.627	526.3011	568.4037	612.0218	624.6116	642.9088	720.5085	776.0824	888.0025	903.7145	950.2861	974.8726	1011.9941	1054.3765	1076.7886	1124.3062	1135.7873	1182.5149	1254.6779	1259.0974	1313.519	1335.6484	1345.1138	1380.1292	1393.8691	1412.0723	1463.2844	1474.5975	1475.9486	1492.199	1498.647	1508.4611	1822.7142	2228.8426	2995.9438	3014.2066	3030.1826	3038.7993	3046.1532	3068.5225	3093.4001	3103.3928	3104.8943	3107.4976	3157.1531	3503.7325
CCCC(C#C)C(C)=O	CCC[C@@H](C#C)C(=O)C	
InChI=1S/C8H12O/c1-4-6-8(5-2)7(3)9/h2,8H,4,6H2,1,3H3	InChI=1S/C8H12O/c1-4-6-8(5-2)7(3)9/h2,8H,4,6H2,1,3H3/t8-/m1/s1
