21
gdb 66558	2.26163	2.17275	1.56873	0.2404	85.32	-0.2301	0.0903	0.3204	974.8692	0.182758	-349.895984	-349.888186	-349.887242	-349.927513	32.237	
C	-0.0270872862	 1.4452810696	 0.028294577	-0.521973
C	 0.0003590965	-0.0509277504	-0.0474935772	 0.335119
C	-0.9425606081	-0.9678289525	 0.7340106085	-0.118298
C	 0.558454135	-1.0644037753	 0.9319951896	-0.168299
C	 0.5557106326	-2.0880811446	-0.239791309	-0.096446
C	-1.0171883368	-2.1811791743	-0.2212303772	-0.05862
C	-1.0747424466	-1.6163544682	-1.6602086582	-0.294737
C	 0.2777655128	-0.9449527214	-1.2956819809	 0.289379
C	 1.2767046392	-0.4761002198	-2.3219846661	-0.513141
H	 0.922877145	 1.8855725198	-0.2965371045	 0.117361
H	-0.8211978447	 1.866376899	-0.6005777685	 0.116765
H	-0.2095397351	 1.7800021621	 1.055489373	 0.11825
H	-1.6953481736	-0.5826566156	 1.4105878084	 0.077123
H	 1.1681167845	-0.9404778447	 1.8178923771	 0.079493
H	 1.2285687637	-2.9264317054	-0.406979948	 0.060463
H	-1.5688228114	-3.0669541717	 0.0918102515	 0.059884
H	-0.9413223671	-2.4026538476	-2.4118017126	 0.089498
H	-1.9198910806	-0.9775783695	-1.9394973589	 0.085012
H	 0.8984274877	 0.3864098845	-2.8842132606	 0.115366
H	 2.2178121837	-0.1734583399	-1.8475048512	 0.115504
H	 1.5061056693	-1.267037574	-3.044405132	 0.112295
192.2998	199.5938	199.9713	233.7466	277.0904	332.9722	425.2422	547.9357	576.611	611.8354	739.7422	758.5971	805.1608	820.9905	846.8895	852.3486	864.5104	887.2044	905.5316	920.6633	957.4375	991.1893	1000.609	1033.0867	1057.0529	1082.3288	1105.8069	1143.2296	1152.2976	1169.9487	1185.081	1200.3351	1219.5694	1246.2998	1267.6833	1276.8337	1332.7708	1401.3999	1411.7735	1425.9739	1482.1063	1487.1265	1491.0642	1492.9044	1499.8566	3015.3804	3017.9227	3030.4308	3073.6936	3078.2523	3084.7064	3087.1468	3088.8197	3117.0186	3137.1583	3183.0376	3195.2348
CC12C3C1C1C3CC21C	C[C@]12[C@@H]3[C@H]1[C@H]1[C@@H]3C[C@@]21C	
InChI=1S/C9H12/c1-8-3-4-5(8)7-6(4)9(7,8)2/h4-7H,3H2,1-2H3	InChI=1S/C9H12/c1-8-3-4-5(8)7-6(4)9(7,8)2/h4-7H,3H2,1-2H3/t4-,5+,6-,7+,8+,9-/m0/s1
