17
gdb 57739	2.66947	1.09213	0.83391	3.9483	73.38	-0.236	-0.0413	0.1948	1362.2036	0.132462	-455.167787	-455.157816	-455.156872	-455.20312	34.772	
C	 0.0165396498	 1.4048184892	-0.3395122432	-0.467133
C	-0.1884159216	-0.041574644	 0.0336359053	 0.378596
N	 0.6621434922	-0.5303399214	 0.9896386981	-0.536113
N	-1.0953146348	-0.7125144632	-0.5882327736	-0.31612
C	-1.222748779	-2.1371958199	-0.3046945523	-0.15712
C	-1.8838527653	-2.3757892561	 1.0531107188	 0.173866
O	-1.263711462	-2.4007022283	 2.0915327977	-0.269803
C	-2.0340600424	-2.7839584259	-1.4174319728	 0.153907
O	-2.7170511516	-3.7623187543	-1.2524871792	-0.251374
H	 1.0603286633	 1.5838802827	-0.6204417465	 0.136527
H	-0.6304391111	 1.6600750682	-1.1771664138	 0.15254
H	-0.2145736035	 2.0606574035	 0.5074878779	 0.136068
H	 1.244969869	 0.1299922817	 1.4775370315	 0.25474
H	 0.3639221216	-1.3310660467	 1.5345236918	 0.278469
H	-0.2413187199	-2.6458596654	-0.2795059233	 0.118374
H	-2.9858302692	-2.4732042817	 1.0418836678	 0.119324
H	-1.9462979356	-2.2694466583	-2.3975777644	 0.095252
77.8361	110.5267	113.3158	127.3271	156.2181	194.1793	216.4837	327.5485	340.8461	415.9266	475.4745	498.0984	577.2298	604.6295	650.1277	671.1894	845.7657	885.9566	952.0992	1010.2498	1053.3377	1062.8649	1085.143	1100.3702	1185.5174	1245.3969	1302.1512	1369.2399	1389.4982	1416.0999	1418.199	1475.0879	1485.0939	1662.2926	1711.806	1795.195	1827.3593	2918.3661	2940.0412	2962.0969	3037.981	3093.9945	3167.8809	3514.112	3673.848
CC(N)=NC(C=O)C=O	CC(=NC(C=O)C=O)N	
InChI=1S/C5H8N2O2/c1-4(6)7-5(2-8)3-9/h2-3,5H,1H3,(H2,6,7)	InChI=1S/C5H8N2O2/c1-4(6)7-5(2-8)3-9/h2-3,5H,1H3,(H2,6,7)
