18
gdb 8339	4.75489	1.38923	1.31015	0.5596	77.51	-0.2581	0.0555	0.3136	994.6275	0.153839	-310.588069	-310.580659	-310.579715	-310.619912	29.026	
C	-0.039052471	-1.2030465102	-0.0053592778	-0.458232
C	-0.0194542017	-0.0011296687	 0.0014406999	 0.307506
C	 0.0400646391	 1.4565287913	 0.009186992	-0.484611
C	 1.4610034569	 1.9927225291	-0.0013596609	 0.360871
C	 2.5547704737	 1.7656780868	-1.0886024761	-0.241402
C	 3.2104593042	 2.6787735221	-0.0142158498	-0.044572
C	 1.8860020884	 3.4934506944	 0.0044738704	-0.265795
C	 2.5762039861	 1.7512559168	 1.0607052238	-0.2414
H	-0.0705262896	-2.2640376855	-0.0111371889	 0.194565
H	-0.500777749	 1.8516105492	-0.8614326464	 0.130162
H	-0.4840217483	 1.841645727	 0.8943933537	 0.130158
H	 2.945568941	 0.7490525665	-1.1793163059	 0.097062
H	 2.3690193534	 2.214437736	-2.0690866706	 0.085867
H	 4.2247263337	 3.0776978607	-0.0216604779	 0.072111
H	 1.6503184467	 4.0723667761	-0.89360471	 0.087383
H	 1.668363836	 4.0602044846	 0.9147819765	 0.087385
H	 2.4101282902	 2.1868122109	 2.050625379	 0.085872
H	 2.9685740602	 0.733551693	 1.1299588292	 0.09707
65.0589	110.2783	287.0981	296.9197	343.9841	442.0502	539.7351	545.682	616.1758	632.0966	685.2056	770.349	803.2114	885.9294	887.8853	934.3827	963.4211	970.3623	978.7328	985.9258	995.5307	1098.0433	1099.6842	1131.2214	1143.5101	1150.0634	1159.7318	1223.5743	1225.0666	1236.0661	1276.1945	1303.5284	1340.4911	1462.9096	1498.0074	1499.2607	1555.7484	2237.7202	3010.8884	3039.7072	3041.9772	3045.5674	3052.0335	3104.4042	3112.7288	3113.8162	3117.1881	3508.15
C#CCC12CC(C1)C2	C#CC[C@@]12C[C@@H](C1)C2	
InChI=1S/C8H10/c1-2-3-8-4-7(5-8)6-8/h1,7H,3-6H2	InChI=1S/C8H10/c1-2-3-8-4-7(5-8)6-8/h1,7H,3-6H2/t7-,8+
