20
gdb 5937	3.63388	1.06285	1.0139	0.977	80.66	-0.2396	0.0536	0.2932	1310.0049	0.17253	-348.974044	-348.963283	-348.962339	-349.011385	37.015	
C	 0.0999531355	 1.3826274103	 0.1063219022	-0.238781
O	-0.0217676894	-0.0224638691	 0.0888776379	-0.273082
C	-1.3481899776	-0.5718377652	 0.0037374849	 0.17138
C	-2.1997650708	-0.1738373985	 1.2272088196	-0.413522
C	-2.0449767748	-0.1548593661	-1.3081604732	-0.413554
C	-1.1514311158	-2.0281573755	 0.0048483844	 0.089632
C	-1.0297425453	-3.225353051	 0.0033176869	 0.064487
C	-0.8628131811	-4.6716705709	 0.0026714444	-0.500558
H	 1.1708741446	 1.5913125332	 0.1737382106	 0.127965
H	-0.2845783191	 1.8576124608	-0.8070324782	 0.104987
H	-0.3941258928	 1.8450339981	 0.9722084446	 0.104975
H	-2.4251634134	 0.8965554236	 1.2231851134	 0.111646
H	-3.1475550516	-0.7178332902	 1.2146959948	 0.124625
H	-1.6680639108	-0.4225451264	 2.148776027	 0.129531
H	-1.4048627343	-0.3901753075	-2.1618188427	 0.12953
H	-2.9866939047	-0.6982130997	-1.4191859184	 0.124634
H	-2.2702748212	 0.9155360372	-1.3155711626	 0.11165
H	-1.378812087	-5.1343234936	 0.8512718569	 0.146368
H	-1.2619875291	-5.1200760872	-0.9138527561	 0.146376
H	 0.1960327288	-4.9445765322	 0.0705624136	 0.151713
15.6373	45.2066	95.5673	111.9643	185.0051	258.9191	265.0656	280.759	293.3725	331.8177	356.2759	398.114	418.3283	542.7141	556.7097	662.7426	807.6596	915.0516	930.2428	1011.148	1052.0072	1055.0826	1068.1193	1109.5805	1172.513	1178.9071	1179.1146	1213.683	1303.0045	1385.8961	1405.1677	1413.8929	1472.324	1475.271	1477.9644	1478.6905	1479.0337	1497.8772	1500.442	1504.6033	1514.2841	2375.5565	2992.1255	3026.4566	3037.8636	3047.6866	3048.6652	3086.3207	3088.6095	3107.108	3115.9069	3121.7779	3130.8624	3133.0816
COC(C)(C)C#CC	COC(C)(C)C#CC	
InChI=1S/C7H12O/c1-5-6-7(2,3)8-4/h1-4H3	InChI=1S/C7H12O/c1-5-6-7(2,3)8-4/h1-4H3
