19
gdb 18168	4.80237	1.29748	1.27493	1.8173	72.27	-0.2302	0.0844	0.3147	1053.8352	0.164614	-364.996232	-364.988022	-364.987077	-365.028766	30.414	
C	 0.048453209	 1.3213637663	-0.2297638634	-0.238237
O	-0.0295996228	 0.0055865572	 0.270285713	-0.247117
C	-1.3109148484	-0.5595240989	 0.1579558205	 0.133803
C	-1.6453333549	-1.1366366576	-1.2599456258	-0.288115
C	-1.6182209112	-2.5548086704	-0.6556303382	-0.041868
C	-1.2865520888	-1.9971837383	 0.7087475699	-0.079932
N	-2.5132549334	-2.7174013576	 0.4678120688	-0.077306
C	-3.8325999174	-2.108593141	 0.5435637215	-0.314921
H	 1.0696594438	 1.6719863668	-0.0623926315	 0.127987
H	-0.169378622	 1.3693479383	-1.3073098413	 0.106722
H	-0.650208567	 1.9941126894	 0.292113088	 0.105169
H	-2.0616069227	 0.1176576981	 0.5947638036	 0.059887
H	-2.5688800395	-0.8183697679	-1.7531731364	 0.094246
H	-0.8005210668	-0.9703432775	-1.9322023102	 0.115007
H	-1.2478396015	-3.4461920678	-1.1509647114	 0.092183
H	-0.597674442	-2.343352414	 1.4719379243	 0.0972
H	-3.9194762592	-1.1068177248	 0.0992304703	 0.106499
H	-4.5477473025	-2.764150862	 0.0369714424	 0.1236
H	-4.1256596328	-2.0386041984	 1.5956663461	 0.125192
100.4696	137.8714	159.6444	188.0075	250.7159	284.8902	356.8944	430.5341	484.5779	555.9495	723.6301	760.3446	836.257	875.9094	918.0465	949.9379	992.3287	1015.4729	1044.9015	1064.4327	1089.6188	1141.5008	1156.4453	1179.3753	1182.6502	1184.3357	1218.6848	1224.3989	1244.602	1274.2922	1289.078	1374.9633	1396.8838	1451.458	1470.8566	1481.1861	1488.1348	1497.7522	1500.4981	1509.3835	2969.5183	2977.814	2999.0207	3022.8198	3053.9922	3072.4388	3105.3868	3115.2793	3116.7829	3161.7507	3175.4162
COC1CC2C1N2C	CO[C@H]1C[C@H]2[C@@H]1N2C	
InChI=1S/C6H11NO/c1-7-4-3-5(8-2)6(4)7/h4-6H,3H2,1-2H3	InChI=1S/C6H11NO/c1-7-4-3-5(8-2)6(4)7/h4-6H,3H2,1-2H3/t4-,5-,6-,7?/m0/s1
