21
gdb 40835	3.4832	1.13696	0.96788	2.2121	78.81	-0.2463	0.0856	0.3319	1279.6797	0.184152	-424.214326	-424.206093	-424.205149	-424.247446	31.832	
C	 0.4474519534	 1.520648232	 0.2112373448	-0.173294
O	 1.2461144275	 0.4061988942	-0.2032264344	-0.238968
C	-0.1243428929	 0.1742188395	 0.1172172781	 0.063021
C	-0.4142842325	-0.6876720053	 1.3277411441	 0.103535
C	 0.0538020149	-2.1353115268	 1.1116346563	-0.198186
C	-0.1637581266	-2.9721914583	 2.3793622667	-0.215934
C	 0.4583615032	-2.263793576	 3.5898441559	-0.193613
C	-0.0437098567	-0.8214003083	 3.6618935656	-0.064158
O	 0.2127635903	-0.1113091068	 2.4607273632	-0.260826
H	 0.6879554566	 1.9175659383	 1.1929551855	 0.131345
H	 0.2300191367	 2.2527240551	-0.5655785326	 0.10676
H	-0.7492099533	-0.0668579983	-0.7453284651	 0.089215
H	-1.5111629998	-0.6859099792	 1.4789956775	 0.059151
H	-0.4798280921	-2.5706098935	 0.2586883798	 0.091178
H	 1.1182219454	-2.1047651629	 0.8525583938	 0.121185
H	-1.2416139044	-3.102867375	 2.5499835337	 0.09315
H	 0.2576555678	-3.9750990373	 2.2545856963	 0.097407
H	 0.2152820348	-2.7857372266	 4.5224105744	 0.092985
H	 1.5508491937	-2.2530432612	 3.4943622897	 0.107886
H	-1.1272354563	-0.8129641525	 3.8766874116	 0.082341
H	 0.4586617104	-0.2607546211	 4.4555269151	 0.105819
70.8807	111.4955	200.8594	237.5732	253.9224	348.6016	406.3006	455.9156	467.3734	548.2275	643.8163	785.9169	826.5428	852.7057	864.9935	895.4097	914.4502	942.5319	963.3803	1004.3451	1037.747	1064.0419	1092.9249	1109.5174	1122.3952	1148.6222	1162.3535	1173.9902	1202.2642	1234.2451	1282.5039	1293.1337	1302.1533	1326.4378	1363.933	1375.4344	1382.8641	1391.3406	1418.1932	1440.0205	1473.5208	1484.2108	1491.799	1502.8378	1521.3813	2917.4848	2949.8399	3012.317	3030.7936	3034.6672	3067.8449	3075.8802	3082.8813	3085.2075	3088.0075	3096.7685	3198.539
C1OC1C1CCCCO1	C1O[C@H]1[C@H]1CCCCO1	
InChI=1S/C7H12O2/c1-2-4-8-6(3-1)7-5-9-7/h6-7H,1-5H2	InChI=1S/C7H12O2/c1-2-4-8-6(3-1)7-5-9-7/h6-7H,1-5H2/t6-,7-/m1/s1
