14
gdb 5336	6.48913	1.64071	1.3384	3.0015	64.77	-0.1938	0.0327	0.2266	868.4927	0.10958	-378.723993	-378.717537	-378.716593	-378.754647	24.437	
O	-0.0988944411	 1.3691697985	 0.0326877377	-0.430632
C	 0.0864770827	 0.0357939633	-0.0748390752	 0.339488
C	-0.0385997803	-0.7112775495	-1.2334614307	-0.273413
N	 0.1387916293	-2.0062991162	-0.7687842906	 0.018336
C	 0.6692125425	-3.3789357764	-0.9280752231	-0.16989
C	 0.9072061883	-3.3749201286	 0.6332963121	-0.358389
C	 0.4275471981	-1.938899793	 0.5437455209	 0.354017
N	 0.409588795	-0.7184629814	 1.0349810688	-0.441499
H	 0.0613626129	 1.5864012567	 0.9590577368	 0.30151
H	-0.3271518037	-0.4441553815	-2.2335785402	 0.129861
H	-0.0598871579	-4.0932910795	-1.3182823974	 0.128748
H	 1.5895474091	-3.4229293775	-1.516368023	 0.134856
H	 0.283460617	-4.0668728103	 1.2042915713	 0.131455
H	 1.9519140581	-3.5056716547	 0.9250329125	 0.135551
87.0329	234.9232	296.2793	338.2244	379.8682	528.7703	600.3696	648.3711	668.5161	724.2146	809.7876	822.6446	840.1617	931.5463	1002.1471	1052.8902	1101.5771	1129.396	1137.1552	1173.371	1219.2288	1236.0777	1267.9818	1339.7166	1420.508	1452.6542	1482.8177	1510.8357	1569.7112	1625.8946	3060.2714	3070.1459	3110.3507	3124.3346	3298.3975	3803.8362
OC1=CN2CCC2=N1	Oc1cn2CCc2n1	
InChI=1S/C5H6N2O/c8-5-3-7-2-1-4(7)6-5/h3,8H,1-2H2	InChI=1S/C5H6N2O/c8-5-3-7-2-1-4(7)6-5/h3,8H,1-2H2
