17
gdb 27787	2.03089	1.75591	0.94787	4.8261	84.06	-0.1893	-0.0204	0.1689	1207.6145	0.136699	-418.058281	-418.049849	-418.048905	-418.090995	32.602	
C	 0.0819762176	 1.476727927	-0.0126380381	-0.471057
C	-0.0534392574	-0.0107846175	 0.0076911387	 0.402889
C	-1.2101199034	-0.6983223221	-0.0246045179	-0.311322
C	-1.1736929988	-2.1430674417	 0.0030161363	 0.359575
N	-2.3772176166	-2.8178005534	 0.0262772023	-0.582284
C	 0.0347931935	-2.7692671908	 0.0584145159	-0.274006
C	 1.2667768466	-2.0326608325	 0.1002007892	 0.374751
N	 2.427183763	-2.5519067614	 0.1570409613	-0.558184
O	 1.1471716722	-0.6267614702	 0.0666047285	-0.280722
H	 0.6780516566	 1.794513917	-0.8749452518	 0.146373
H	-0.8970264993	 1.9562999757	-0.061751052	 0.131712
H	 0.6038827417	 1.8245200056	 0.8854280123	 0.147577
H	-2.1532328851	-0.1680122431	-0.0573087423	 0.095303
H	-3.1649833574	-2.3467861744	-0.3906608827	 0.253348
H	-2.3419762338	-3.8025432966	-0.1890647425	 0.256995
H	 0.125141423	-3.8479692463	 0.077693191	 0.098623
H	 3.1421254676	-1.8254529453	 0.171309432	 0.210429
133.4417	152.2046	190.4016	197.2992	282.1056	332.3132	375.785	478.8963	514.7277	517.3302	539.5851	555.7968	623.9996	676.2389	697.9436	787.8827	808.5079	845.7986	853.4274	974.8009	994.1512	1051.0698	1065.0597	1090.4594	1125.7327	1186.0686	1265.182	1287.7932	1381.849	1416.785	1457.0511	1468.9768	1492.7653	1622.0924	1658.5086	1698.6934	1746.6011	3039.128	3094.6763	3140.2632	3209.2335	3211.6661	3497.1163	3579.2351	3685.0972
CC1=CC(N)=CC(=N)O1	CC1=C[C@H](N)C=C([NH])O1	
InChI=1S/C6H8N2O/c1-4-2-5(7)3-6(8)9-4/h2-3,8H,7H2,1H3	InChI=1S/C6H9N2O/c1-4-2-5(7)3-6(8)9-4/h2-3,5,8H,7H2,1H3/t5-/m0/s1
