21
gdb 107145	4.11032	1.00174	0.93705	2.1602	83.57	-0.2544	0.0835	0.3378	1347.4786	0.181684	-387.046951	-387.038178	-387.037234	-387.080468	33.924	
C	 0.0584726411	 1.5133420836	 0.2541828252	-0.373339
C	-0.0037774713	 0.018140813	-0.0877937429	-0.295341
C	-1.4086978466	-0.5171043995	-0.1187496714	 0.386654
C	-2.1444191611	-1.0045258533	 1.095712338	-0.329941
C	-1.9051912739	-1.9751414505	-0.0382891235	-0.215773
C	-2.8734103754	-1.6870135597	-1.1541346934	 0.483393
C	-3.3148545017	-2.5600589929	-2.2387167506	-0.277003
O	-4.2177657014	-2.1445856871	-1.202578662	-0.277006
C	-2.4360347682	-0.2112055797	-1.2304252171	-0.39597
H	 1.0915500635	 1.8742905146	 0.2587441281	 0.11175
H	-0.4997430771	 2.1093772933	-0.4757678871	 0.119663
H	-0.373369425	 1.7090010575	 1.241035178	 0.120031
H	 0.4734054182	-0.152835185	-1.062283112	 0.096024
H	 0.582182856	-0.551001658	 0.6448971836	 0.0972
H	-1.5297967311	-1.1781810483	 1.9740661683	 0.110048
H	-3.1525729666	-0.6633858715	 1.317875762	 0.116201
H	-1.3397236306	-2.8898729242	 0.0973156497	 0.086643
H	-3.5096248443	-2.1425320491	-3.2266056496	 0.11138
H	-3.0504370874	-3.6175311618	-2.2290716566	 0.112548
H	-3.2042168462	 0.5306332189	-0.9912529465	 0.10753
H	-1.9774820206	 0.0432460996	-2.1905930704	 0.105309
74.1135	91.6296	175.4113	223.6335	279.2803	314.1555	346.5539	400.3834	402.3744	490.5414	563.5457	669.6368	783.4466	792.6235	811.6748	844.7588	879.2328	929.5023	933.8905	974.4289	985.0137	994.3759	1023.9906	1037.8116	1079.3807	1086.8965	1120.7465	1128.3871	1140.7071	1159.6257	1186.1133	1227.296	1249.3552	1253.9007	1326.8025	1348.1217	1402.1478	1412.6805	1444.7918	1477.0857	1478.6388	1498.72	1502.3782	1507.3349	1539.7779	3011.69	3033.7979	3046.1107	3047.3232	3071.7149	3098.2648	3102.2481	3106.9468	3109.2004	3155.7272	3177.4106	3196.7462
CCC12CC1C1(CO1)C2	CC[C@]12C[C@H]1[C@]1(CO1)C2	
InChI=1S/C8H12O/c1-2-7-3-6(7)8(4-7)5-9-8/h6H,2-5H2,1H3	InChI=1S/C8H12O/c1-2-7-3-6(7)8(4-7)5-9-8/h6H,2-5H2,1H3/t6-,7-,8-/m1/s1
