14
gdb 129033	2.67462	1.76344	1.06275	2.967	78.11	-0.2466	-0.0849	0.1617	1038.1062	0.104261	-432.882072	-432.875013	-432.874069	-432.914071	26.543	
N	-0.0758889002	 1.3374041555	 0.008109049	-0.45699
C	-0.0375923638	 0.0585612009	 0.0013180371	 0.173653
C	-1.2919327791	-0.6736544367	 0.0048557779	-0.078223
C	-1.5049611848	-2.0043918936	-0.0006852878	-0.109235
C	-0.549826094	-3.0851065952	-0.0116773764	 0.024895
N	 0.7390179636	-3.0966012304	-0.0192000149	-0.206788
N	 1.5042790236	-1.9849153299	-0.0179924996	-0.280637
C	 1.3297935093	-0.6075981243	-0.0101501087	 0.380832
O	 2.3297978764	 0.0837046201	-0.0127921264	-0.34598
H	 0.8888298804	 1.6878782666	 0.0041828889	 0.249144
H	-2.1530108154	-0.0123112029	 0.0131979061	 0.130705
H	-2.539980148	-2.3353717683	 0.0036143581	 0.114601
H	-0.9716766701	-4.0874266355	-0.0142882394	 0.127927
H	 2.4906944621	-2.2144205064	-0.0249662639	 0.276099
72.5118	121.1771	324.8849	364.1024	372.5035	425.4371	461.7227	529.824	627.1063	657.6676	736.4711	767.7355	778.6812	851.268	888.9857	947.5467	981.542	998.5956	1042.7184	1071.245	1188.6006	1244.789	1273.5664	1406.5258	1433.5588	1461.5161	1486.1949	1635.7648	1650.1734	1697.9025	1761.4734	3153.8962	3170.1353	3189.3982	3414.5623	3575.5424
N=C1C=CC=NNC1=O	[NH]C1=C[CH]C=NNC1=O	
InChI=1S/C5H5N3O/c6-4-2-1-3-7-8-5(4)9/h1-3H,(H2,6,8,9)	InChI=1S/C5H5N3O/c6-4-2-1-3-7-8-5(4)9/h1-3H,(H2,6,8,9)
