19
gdb 71343	3.19483	1.57425	1.23293	1.7	80.75	-0.2278	0.0667	0.2945	1053.8887	0.159683	-381.938968	-381.931375	-381.930431	-381.970651	30.606	
C	-0.0123054993	 1.516479331	 0.0208509809	-0.527224
C	 0.0233950681	 0.011695422	-0.0388024112	 0.330919
C	 0.5277590353	-0.9301151568	-1.1302549485	-0.233358
N	 0.0556077846	-1.949694558	-0.0986512493	-0.161264
C	 0.5565947706	-1.0072150973	 1.0341927963	-0.183795
C	-0.7869717987	-1.1018297924	 1.7289759216	 0.446551
C	-1.2914527631	-1.860176463	 2.8790312031	-0.330198
N	-1.3589263922	-0.3694092072	 2.8430789578	-0.396667
C	-1.1346405802	-1.0081844346	 0.256952575	-0.153295
H	 0.9976554161	 1.9377557739	-0.0350511588	 0.119445
H	-0.590871738	 1.925653384	-0.8147464006	 0.123644
H	-0.4769230814	 1.859906713	 0.9505769957	 0.134757
H	-0.0291292158	-0.9740870669	-2.0728123208	 0.098327
H	 1.6057801856	-0.9718821131	-1.3226476852	 0.096507
H	 1.5719861688	-1.1015724449	 1.4260642694	 0.078313
H	-2.2569706378	-2.3558388347	 2.8337820699	 0.125096
H	-0.5703114897	-2.3299637641	 3.5429749102	 0.116566
H	-0.6243635774	 0.0228877832	 3.4281703309	 0.231064
H	-2.0921284455	-1.1040293939	-0.2568539963	 0.084613
127.7146	202.5893	220.9868	270.16	291.1011	352.2676	471.4526	502.51	552.4778	668.5101	711.7904	817.4434	836.2733	843.5236	869.9116	889.8402	911.7235	921.6214	958.1418	970.0714	1014.2361	1035.7157	1067.9224	1078.9604	1102.8235	1122.0905	1131.6394	1158.3862	1187.3238	1188.584	1241.5126	1258.9238	1263.1524	1273.9907	1336.9188	1407.2934	1462.3408	1488.3212	1491.8042	1523.0747	1533.9041	3026.7629	3029.808	3085.213	3090.5353	3092.9087	3105.7893	3108.7477	3111.6878	3193.9796	3488.4081
CC12CN3C1C1(CN1)C23	C[C@@]12CN3[C@@H]1[C@]1(CN1)[C@@H]23	
InChI=1S/C7H10N2/c1-6-3-9-4(6)7(2-8-7)5(6)9/h4-5,8H,2-3H2,1H3	InChI=1S/C7H10N2/c1-6-3-9-4(6)7(2-8-7)5(6)9/h4-5,8H,2-3H2,1H3/t4-,5+,6+,7+
