18
gdb 110241	2.10102	1.69451	1.1167	3.7194	73.3	-0.2433	0.0094	0.2527	1136.7896	0.1462	-439.071031	-439.062104	-439.06116	-439.104723	32.862	
C	 0.295053267	 0.8962244217	 0.4846019978	-0.245752
O	-0.402014907	-0.0580311268	-0.3027590679	-0.241179
C	 0.358524249	-0.5811842649	-1.331961326	 0.084316
C	 1.4703486352	-1.6183241147	-1.0962659719	-0.362618
C	 0.9948535346	-2.5090572864	 0.0354225721	 0.447488
O	 1.4029393115	-2.8200689258	 1.1174911313	-0.34912
N	-0.185471987	-2.8582560299	-0.6538656339	-0.383376
C	 0.140991757	-1.9804968339	-1.7905226793	 0.307437
C	-0.1445931425	-2.4219588826	-3.1930506059	-0.485584
H	 1.1725125655	 0.4467499962	 0.9666707488	 0.134528
H	 0.6199674823	 1.7545311829	-0.1211421468	 0.109444
H	-0.4009073862	 1.2436998823	 1.2504048308	 0.134641
H	 0.6128924539	 0.1368320037	-2.1172068709	 0.095553
H	 2.470531686	-1.5153932576	-1.4944655615	 0.114035
H	-1.0857508427	-2.8113085191	-0.1874180791	 0.244499
H	-1.2234044891	-2.4331198341	-3.3859194407	 0.131702
H	 0.3150672354	-1.7411288953	-3.9152734078	 0.126269
H	 0.2412295373	-3.4307942757	-3.3657950391	 0.137717
73.272	139.1005	174.1028	184.9531	213.267	247.3144	292.5101	327.8357	481.9139	504.4146	550.0685	584.6679	675.4221	749.6078	794.9214	838.1447	904.5865	930.0663	971.9258	977.4444	1031.3083	1073.3408	1097.4502	1139.0838	1168.7013	1184.9214	1195.6763	1243.4904	1280.2873	1313.9538	1340.3091	1415.55	1449.2541	1480.3989	1488.1957	1490.6429	1499.6787	1507.5943	1899.3794	2995.5748	3034.7715	3059.4355	3067.0535	3098.92	3119.6544	3131.5912	3215.4453	3536.9944
COC1C2C(=O)NC12C	CO[C@H]1[C@H]2C(=O)N[C@@]12C	
InChI=1S/C6H9NO2/c1-6-3(4(6)9-2)5(8)7-6/h3-4H,1-2H3,(H,7,8)	InChI=1S/C6H9NO2/c1-6-3(4(6)9-2)5(8)7-6/h3-4H,1-2H3,(H,7,8)/t3-,4-,6+/m0/s1
