22
gdb 7363	3.70959	0.97827	0.89223	2.5564	79.02	-0.2371	-0.0072	0.2299	1422.9802	0.1971	-350.240559	-350.229949	-350.229005	-350.277199	36.895	
C	-0.1239447501	 1.5786440927	 0.0372439691	-0.378141
C	 0.0271716013	 0.0562144576	-0.0398454733	-0.18385
C	 0.7344335845	-0.5244379644	 1.1897908132	-0.152612
C	 0.8348554025	-2.058872213	 1.2099358339	-0.084572
C	 1.7017495036	-2.6206749301	 0.0619685565	-0.39534
C	 1.438391727	-2.545391037	 2.5317703848	 0.385669
C	 0.9311177821	-3.8750218064	 3.0630207681	-0.480882
O	 2.2853474887	-1.9084014279	 3.115925733	-0.310389
H	 0.8531482959	 2.0688234289	 0.1096573443	 0.117088
H	-0.6315851693	 1.9753589457	-0.847522461	 0.10993
H	-0.7058784112	 1.8746659305	 0.9171773576	 0.114469
H	-0.9649641268	-0.4044256126	-0.1433847115	 0.090486
H	 0.5796447145	-0.2032981879	-0.9507231449	 0.098353
H	 1.7437771232	-0.107294334	 1.2790922493	 0.114248
H	 0.2001958643	-0.1983453097	 2.0916945932	 0.093468
H	-0.1710333546	-2.4910875871	 1.1162294969	 0.072072
H	 2.7098555542	-2.1961179112	 0.1052560529	 0.133742
H	 1.7925838095	-3.7102409372	 0.1196342471	 0.11542
H	 1.2678951846	-2.3798401918	-0.9116770717	 0.124742
H	 0.912041937	-4.6369981731	 2.2768049477	 0.134371
H	 1.5509519455	-4.2090006745	 3.8960414567	 0.140145
H	-0.1028391863	-3.7536813475	 3.4088607381	 0.141583
33.7815	59.9799	90.705	128.4571	149.0958	213.9667	244.1915	249.4173	298.7449	321.8733	330.7078	485.8021	595.8013	600.7799	739.7571	779.9526	854.0253	873.8506	929.2462	952.7555	984.5686	1021.6573	1027.5855	1065.8359	1120.786	1132.912	1164.2481	1204.171	1266.8225	1296.6681	1321.986	1339.6086	1367.0897	1381.4069	1396.6312	1404.4176	1412.5472	1462.3492	1475.4666	1479.1784	1493.1929	1498.3199	1500.8882	1501.6251	1511.0803	1808.909	3009.6466	3013.0488	3023.7932	3030.1052	3033.9238	3038.5269	3048.5344	3076.0451	3094.6425	3097.8189	3102.0163	3104.9285	3120.3211	3150.511
CCCC(C)C(C)=O	CCC[C@@H](C)C(=O)C	
InChI=1S/C7H14O/c1-4-5-6(2)7(3)8/h6H,4-5H2,1-3H3	InChI=1S/C7H14O/c1-4-5-6(2)7(3)8/h6H,4-5H2,1-3H3/t6-/m1/s1
