19
gdb 56546	2.60527	1.10225	0.99443	3.4385	78.71	-0.2352	0.0393	0.2745	1295.8405	0.156876	-419.209779	-419.199101	-419.198157	-419.246522	38.	
C	 0.1101348816	 1.4274813918	-0.1872516249	-0.391165
C	-0.015216672	-0.0891048038	 0.0504497047	-0.151857
C	 0.6636328095	-0.5003264071	 1.2824838529	 0.32407
C	 1.2205827645	-0.8086389313	 2.3022113308	-0.46592
N	-1.412996938	-0.5375378416	 0.0419439273	-0.097044
C	-2.2627174636	-0.2748966004	 1.1903572195	-0.354542
C	-1.8653322	-1.1768322119	-1.0912108451	 0.463131
N	-3.183214732	-1.6159179511	-1.0357761807	-0.575565
O	-1.1873636874	-1.3098292669	-2.098770838	-0.414645
H	 1.1632123689	 1.7210302504	-0.202529713	 0.129538
H	-0.3427065319	 1.6796052415	-1.1492702955	 0.13666
H	-0.3878785961	 1.9981832506	 0.6021436976	 0.118926
H	 0.4434276067	-0.6023821995	-0.7994045247	 0.157581
H	 1.7236729966	-1.0968555235	 3.1920145226	 0.198542
H	-3.2328686472	 0.1190104294	 0.8728339152	 0.1397
H	-2.4258785968	-1.1693439277	 1.8085501772	 0.12433
H	-1.7850393656	 0.4701758497	 1.8280541964	 0.14659
H	-3.5517641312	-1.9298188949	-0.151410632	 0.251332
H	-3.400638536	-2.2234289437	-1.8112038303	 0.260338
26.3439	51.2952	130.091	139.0172	177.5308	186.8206	234.6738	303.3265	351.7569	387.8798	432.9486	451.4894	548.4615	562.1437	579.7653	620.3986	625.9653	661.2442	757.3577	777.8436	865.1644	984.7784	1038.5093	1089.6241	1105.456	1126.6328	1145.5085	1202.9639	1281.4634	1341.544	1372.6476	1401.0517	1421.1228	1477.9472	1487.6926	1489.1739	1499.07	1523.9855	1624.9577	1772.465	2234.3302	2998.5649	3045.1908	3077.3507	3079.8248	3121.2105	3132.3204	3137.583	3502.9742	3580.269	3692.8092
CC(C#C)N(C)C(N)=O	C[C@@H](C#C)N(C)C(=O)N	
InChI=1S/C6H10N2O/c1-4-5(2)8(3)6(7)9/h1,5H,2-3H3,(H2,7,9)	InChI=1S/C6H10N2O/c1-4-5(2)8(3)6(7)9/h1,5H,2-3H3,(H2,7,9)/t5-/m0/s1
