19
gdb 77422	1.83324	1.67451	1.57881	2.2768	75.28	-0.2066	0.073	0.2796	1047.7469	0.15668	-422.932602	-422.923503	-422.922559	-422.965731	35.214	
C	-0.2230882673	 1.5786465369	-0.0745927639	-0.441361
C	 0.1164478148	 0.0920038128	 0.0352531408	-0.162881
C	 1.367822136	-0.7016384231	-0.3108838126	 0.303331
O	 1.3605410404	-1.7200176067	-1.2456617468	-0.450501
C	 2.7244354954	-0.1226007637	 0.1986531394	-0.118245
C	 2.6493941395	 1.1516975887	 0.9966568277	-0.315444
C	 2.189711836	-0.1379247066	 1.6229588009	-0.118297
C	 0.837090351	-0.7174186163	 1.1031529385	 0.303345
O	 0.2248256542	-1.7539344615	 1.7826564422	-0.450478
H	 0.4371615027	 2.1092514519	-0.7672627555	 0.126738
H	-1.243576696	 1.6961174173	-0.4525439981	 0.112507
H	-0.1792220118	 2.0910329135	 0.8911741702	 0.126854
H	-0.7109943385	-0.5441264122	-0.282915948	 0.101458
H	 1.313601786	-1.324100962	-2.123554637	 0.284045
H	 3.6588743976	-0.545345424	-0.1475489669	 0.094716
H	 3.6148313096	 1.4938944267	 1.3629133774	 0.112021
H	 1.9769218121	 1.9607986442	 0.7525878886	 0.113405
H	 2.6687037438	-0.5734284511	 2.4905074471	 0.094734
H	-0.3921397153	-1.3751060347	 2.4194262058	 0.284053
98.6558	170.5657	203.9483	241.2001	250.2777	257.3705	271.911	341.6134	361.8653	408.6682	549.3745	582.5088	618.7418	701.6865	738.4155	755.6501	788.8289	842.1879	886.6682	940.768	972.9685	1013.5868	1047.3157	1064.4476	1083.2892	1095.1414	1100.0231	1138.7787	1157.4111	1208.3064	1212.5219	1277.7104	1297.8206	1320.9845	1327.3331	1358.4812	1410.266	1485.0796	1501.6172	1509.0476	1526.7207	3033.8238	3089.6442	3101.2403	3109.7946	3128.8306	3190.0186	3199.8736	3242.0121	3779.5941	3779.7657
CC1C2(O)C3CC3C12O	C[C@H]1[C@@]2(O)[C@H]3C[C@H]3[C@@]12O	
InChI=1S/C7H10O2/c1-3-6(8)4-2-5(4)7(3,6)9/h3-5,8-9H,2H2,1H3	InChI=1S/C7H10O2/c1-3-6(8)4-2-5(4)7(3,6)9/h3-5,8-9H,2H2,1H3/t3-,4-,5+,6+,7-
