18
gdb 126701	2.00342	1.86317	1.04835	3.181	73.66	-0.2143	0.0256	0.2399	1151.7384	0.148294	-435.327444	-435.318283	-435.317339	-435.362075	32.838	
C	 0.0118482191	 1.5921255546	-0.0419543948	-0.382128
C	-0.0005685411	 0.063865842	 0.0317460015	-0.157692
N	 0.6602049499	-0.4513909347	 1.2198519856	-0.152353
C	 2.0482247102	-0.6493510444	 1.2703906612	 0.461749
O	 2.8574057559	-0.4574736979	 0.3839900106	-0.44311
N	 2.217944585	-1.1061259937	 2.5543316679	-0.316061
N	 1.0472796372	-1.1915567667	 3.2761560546	-0.268796
C	 0.1295641228	-0.7892298331	 2.4468726693	 0.379437
C	-1.3181342495	-0.7203188893	 2.7839793367	-0.500276
H	 1.0415300852	 1.9584108217	-0.0476303028	 0.152584
H	-0.4787800554	 1.9281755933	-0.9604950789	 0.122961
H	-0.5122310924	 2.0382668576	 0.8089832043	 0.120328
H	-1.0229928894	-0.3238000836	 0.0113022355	 0.115166
H	 0.5352842604	-0.3533049957	-0.8255767088	 0.146103
H	 3.093092504	-1.3610867608	 2.9756982669	 0.277898
H	-1.4491503491	-1.0369922065	 3.8195754829	 0.160426
H	-1.7118783412	 0.2958232211	 2.674096994	 0.141344
H	-1.9131182015	-1.3776623339	 2.1401298843	 0.14242
33.7483	107.8852	160.0736	178.9249	208.2511	284.3637	293.7758	311.4285	403.357	457.1878	552.2607	608.7775	669.7566	717.7592	761.5968	778.7457	815.1536	970.3309	993.9399	1013.3518	1067.3677	1103.6691	1107.7555	1192.7825	1215.15	1299.8418	1360.1305	1387.565	1391.0839	1410.175	1415.0581	1463.5887	1473.3995	1478.8963	1489.7824	1503.2761	1506.2509	1642.5739	1832.6394	3037.0038	3042.4097	3061.0791	3089.7578	3101.7134	3116.809	3132.9686	3149.2498	3700.7248
CCN1C(=O)NN=C1C	CCn1c(=O)[nH]nc1C	
InChI=1S/C5H9N3O/c1-3-8-4(2)6-7-5(8)9/h3H2,1-2H3,(H,7,9)	InChI=1S/C5H9N3O/c1-3-8-4(2)6-7-5(8)9/h3H2,1-2H3,(H,7,9)
