18
gdb 14345	4.74416	1.54161	1.31157	2.0477	74.69	-0.2316	0.0141	0.2457	960.2136	0.155245	-347.785307	-347.778245	-347.777301	-347.81644	28.117	
O	 0.1806999812	 1.4115143281	 0.1729777025	-0.431652
C	 0.0780101986	 0.003067048	 0.0305827436	 0.132268
C	-1.4003687463	-0.520235229	 0.0073678123	-0.279244
C	-1.3409342179	-1.7495807561	-0.9173810374	-0.032536
C	-2.0795135394	-1.9475975827	-2.2901420725	-0.240587
C	-0.6731515684	-2.1856671331	-2.9650602529	-0.319806
C	-0.1047008895	-1.5105686604	-1.7392335046	 0.323541
C	 0.656261845	-0.5209219486	-1.2866803825	-0.31065
H	-0.222906901	 1.8069072894	-0.6083339394	 0.270256
H	 0.6172864792	-0.3883669099	 0.9029111165	 0.092518
H	-1.7930841846	-0.7184887309	 1.0082544441	 0.09901
H	-2.0209709835	 0.2664877896	-0.4404443326	 0.090798
H	-1.325475578	-2.6921866708	-0.3574688319	 0.078876
H	-2.8061965872	-2.7603687783	-2.3615653074	 0.100684
H	-2.5359333239	-1.0188215761	-2.6423361346	 0.106248
H	-0.4399444691	-3.2544123928	-3.0186652271	 0.114656
H	-0.4755276395	-1.7330378041	-3.9396096647	 0.110989
H	 1.5143069542	-0.0538491322	-1.7563583014	 0.094632
93.5877	189.3638	297.1841	326.1331	350.3189	422.3388	488.5645	569.7606	634.5375	686.5557	788.2201	813.9042	833.7796	858.935	904.5607	923.925	939.5581	1013.0157	1028.0218	1055.4594	1073.8267	1089.6472	1132.2861	1167.3046	1188.543	1219.6488	1230.803	1237.1663	1254.7881	1264.4298	1310.1969	1322.3949	1334.1392	1428.4181	1472.0097	1479.1694	1486.7099	1734.5535	3021.5825	3029.4212	3031.9319	3047.9598	3059.7496	3097.335	3102.9876	3122.6385	3199.1382	3788.0384
OC1CC2CCC2=C1	O[C@H]1C[C@H]2CC[C]2[CH]1	
InChI=1S/C7H10O/c8-7-3-5-1-2-6(5)4-7/h3,6-8H,1-2,4H2	InChI=1S/C7H10O/c8-7-3-5-1-2-6(5)4-7/h3,6-8H,1-2,4H2/t6-,7-/m1/s1
