19
gdb 7441	3.04051	1.46156	1.23563	4.9144	66.96	-0.2498	0.0168	0.2666	1062.3833	0.165007	-402.242612	-402.23347	-402.232526	-402.27633	33.597	
C	-0.1621265622	 1.4741562386	-0.2016696629	-0.412069
C	 0.0396526705	-0.0404975624	-0.0530941001	 0.052695
C	 0.7135278999	-0.6432509886	-1.2911677377	-0.408713
C	 0.8062305994	-0.4098662347	 1.236643508	-0.14391
N	 2.1624604417	 0.1445450613	 1.3942629907	-0.542944
H	 2.2123652868	 1.0906014186	 1.0283911907	 0.245718
H	 1.6444322627	 0.3109641819	 3.2037147563	 0.305566
H	 2.849785754	-0.4077878993	 0.8955985741	 0.249039
C	-0.0220292447	-0.0772382673	 2.4996472115	 0.44161
O	-1.2199999775	-0.1751830805	 2.5484128376	-0.346084
O	 0.7235356665	 0.2933772279	 3.5474229387	-0.370707
H	 0.788367003	 2.0074110403	-0.3328978415	 0.100855
H	-0.767395166	 1.6918911998	-1.0866778302	 0.122484
H	-0.6784339837	 1.8942194875	 0.665951114	 0.140988
H	-0.949838747	-0.4937480924	 0.0663694904	 0.113428
H	 1.7184509421	-0.2311282408	-1.4440318511	 0.101659
H	 0.807204267	-1.7317110815	-1.2081997483	 0.112899
H	 0.1336275107	-0.4268784074	-2.1935411959	 0.121427
H	 0.9133087468	-1.5025750011	 1.2600761755	 0.116058
71.5708	81.6633	183.7755	230.8433	252.695	264.8078	305.8053	329.3525	359.024	411.4551	526.5835	532.3417	604.4475	732.1174	809.5921	849.4215	869.3321	904.9145	930.658	968.6236	1005.7393	1038.3273	1087.9076	1158.8739	1202.0422	1205.2204	1224.017	1283.5068	1345.2583	1365.7217	1401.9376	1404.3421	1423.2243	1428.5124	1486.8735	1497.7962	1508.6307	1511.5907	1656.3158	1861.8081	3020.318	3024.2235	3029.115	3060.5101	3085.8769	3093.7039	3103.8249	3118.4761	3469.8779	3510.845	3596.3005
CC(C)C([NH3+])C([O-])=O	CC(C)[C@@H](N)C(=O)O	
InChI=1S/C5H11NO2/c1-3(2)4(6)5(7)8/h3-4H,6H2,1-2H3,(H,7,8)	InChI=1S/C5H11NO2/c1-3(2)4(6)5(7)8/h3-4H,6H2,1-2H3,(H,7,8)/t4-/m1/s1
