12
gdb 10240	2.40049	2.18	1.14584	7.6934	66.86	-0.2329	-0.0319	0.201	944.3666	0.084863	-373.750386	-373.742326	-373.741382	-373.782735	28.883	
N	 0.0179029616	 1.3428097956	-0.1241523365	-0.566187
C	-0.0063610048	-0.0093389797	 0.0017442982	 0.41695
N	 1.1950302744	-0.6318199082	 0.1193906152	-0.56619
H	 1.1885327583	-1.6412236781	 0.0908201576	 0.293741
H	 2.0003987841	-0.1906051692	-0.2954540701	 0.271858
C	-1.2044099248	-0.7225102163	 0.0098154789	-0.084674
C	-2.4276048486	-0.0133352231	 0.037127757	 0.200946
N	-3.3872823022	 0.640470042	 0.0547046252	-0.366486
C	-1.1644086062	-2.1359847273	-0.0095422154	 0.200935
N	-1.047358196	-3.2913674281	-0.0214386448	-0.366481
H	 0.7937057544	 1.8428804247	 0.2801307481	 0.271853
H	-0.8722605402	 1.8183609776	-0.0893950633	 0.293735
115.7052	135.3473	150.597	185.6986	367.2915	405.6943	423.871	452.0254	495.9631	536.3786	550.8482	573.5371	578.4249	602.8809	689.9902	733.2287	1068.5261	1105.9156	1212.5029	1271.928	1511.5767	1581.9969	1652.4952	1681.9652	2307.506	2325.0147	3574.0741	3578.1598	3690.2639	3691.1973
NC(=[NH2+])[C-](C#N)C#N	[NH2]=C(N)[C](C#N)C#N	
InChI=1S/C4H3N4/c5-1-3(2-6)4(7)8/h(H3,7,8)/q-1/p+1	InChI=1S/C4H4N4/c5-1-3(2-6)4(7)8/h7-8H2
