19
gdb 85744	3.28109	1.2216	1.04518	4.7083	78.93	-0.2522	0.0246	0.2768	1189.1483	0.161035	-382.071548	-382.063375	-382.062431	-382.104262	31.455	
C	 0.0511873897	 1.5735921542	-0.038720039	-0.406164
C	 0.0698639253	 0.0443546454	 0.0074930372	 0.013674
C	 0.7938823244	-0.6184855329	-1.1843759676	-0.265406
C	 1.2873434135	-1.9712447401	-0.5975796246	-0.121457
C	 2.5015986231	-2.471671945	-1.2460399355	 0.292614
N	 3.4582742733	-2.8446993754	-1.7758225981	-0.324077
N	 1.4726628488	-1.80597214	 0.8639591924	-0.102428
C	 2.261304128	-0.6115976102	 1.2194141215	-0.252428
C	 0.7776545128	-0.5500652325	 1.2203894466	-0.019222
H	 1.0685984515	 1.9782142591	-0.054757384	 0.122006
H	-0.4706303984	 1.9347547313	-0.9305352314	 0.122036
H	-0.4606367565	 1.9875394818	 0.8358500717	 0.122078
H	-0.9670798951	-0.3162180549	 0.0315405798	 0.085779
H	 0.1458269175	-0.7662925078	-2.0504595676	 0.1224
H	 1.6396327188	-0.0101326846	-1.5157217974	 0.126329
H	 0.5072360654	-2.7312731862	-0.7221073532	 0.132348
H	 2.7988632587	-0.7034299803	 2.1574711611	 0.128561
H	 2.8131452234	-0.0953205016	 0.4386816365	 0.125312
H	 0.2430529258	-0.5593947302	 2.1662785315	 0.098047
92.1475	140.5817	178.583	231.3933	280.2299	328.9463	391.913	461.3566	530.4683	552.7681	606.3423	638.2161	749.1019	824.2929	866.8859	878.5445	935.3067	948.9002	994.8686	1022.7589	1048.1964	1060.1024	1085.683	1113.7389	1127.0781	1156.6781	1168.3119	1205.4358	1261.612	1273.1637	1320.4999	1336.2934	1359.1164	1369.7539	1391.3012	1415.1182	1493.2389	1495.8711	1499.1697	1520.9344	2361.4335	3016.5642	3034.3288	3042.8682	3071.9056	3104.5573	3105.5088	3118.7401	3122.9295	3147.4265	3205.0922
CC1CC(C#N)N2CC12	C[C@H]1C[C@@H](C#N)N2C[C@@H]12	
InChI=1S/C7H10N2/c1-5-2-6(3-8)9-4-7(5)9/h5-7H,2,4H2,1H3	InChI=1S/C7H10N2/c1-5-2-6(3-8)9-4-7(5)9/h5-7H,2,4H2,1H3/t5-,6-,7-,9?/m0/s1
