24
gdb 57561	3.15947	0.7139	0.68505	3.6505	87.36	-0.2487	0.0349	0.2836	1785.6151	0.215341	-405.589383	-405.578122	-405.577178	-405.62692	40.878	
C	 0.1323597317	 1.5507096964	 0.2185298492	-0.401865
C	 0.046377955	 0.0194432276	 0.0741257282	 0.263275
C	 0.5121862034	-0.6503691591	 1.3812950581	-0.403186
C	-1.4189246015	-0.3752907433	-0.1903145496	-0.402643
C	 0.8906851019	-0.466531752	-1.1299353031	-0.187677
C	 2.3902461246	-0.1411298707	-1.0852845357	-0.185213
N	 3.0935332646	-0.6461679281	-2.2564179043	-0.269705
C	 3.626719785	 0.1602397101	-3.2121596224	 0.153325
O	 3.6225986312	 1.3732417842	-3.1931893607	-0.323665
H	 1.1427262738	 1.8833634535	 0.4758936903	 0.1168
H	-0.1582217698	 2.05339905	-0.7103389586	 0.115911
H	-0.5379250067	 1.9005843297	 1.0110869417	 0.108785
H	-0.139528412	-0.3632641774	 2.2135134269	 0.111734
H	 0.4830615121	-1.742973864	 1.299648241	 0.105583
H	 1.5317989386	-0.3594630538	 1.6527382772	 0.113098
H	-1.7956270273	 0.0906563816	-1.1074345828	 0.110994
H	-1.5248753512	-1.4605214886	-0.2984264802	 0.106339
H	-2.0646343462	-0.0575587923	 0.6354851856	 0.108991
H	 0.7693256456	-1.5553519705	-1.2229135393	 0.07977
H	 0.4799773866	-0.0324806575	-2.0501150096	 0.105306
H	 2.5604713562	 0.9368510338	-1.0815759448	 0.151672
H	 2.8542668325	-0.5574510393	-0.183945036	 0.10795
H	 3.1319248012	-1.6420714069	-2.4063659941	 0.243665
H	 4.0858351708	-0.4281668335	-4.0320807569	 0.070757
24.7611	46.2159	102.2034	147.5541	224.0855	231.3812	265.5852	269.378	279.0764	333.9668	349.0144	350.2106	416.0579	441.2038	498.0631	538.9673	735.5542	754.7528	811.73	920.707	933.621	940.6721	960.1885	971.1137	1005.3531	1030.0638	1032.3969	1077.5506	1101.7434	1197.2535	1217.8452	1233.5281	1270.0804	1291.3751	1333.9895	1346.6443	1398.9778	1403.8835	1407.3709	1431.6594	1434.76	1476.1779	1482.0652	1486.3488	1488.6609	1496.9529	1509.5036	1510.7331	1519.6562	1537.6981	1806.2771	2929.4618	3001.912	3022.7046	3025.6044	3032.8727	3039.4799	3055.7093	3089.7339	3092.9496	3093.7568	3097.8266	3100.2802	3103.9612	3132.7089	3630.1463
CC(C)(C)CCNC=O	CC(C)(C)CCNC=O	
InChI=1S/C7H15NO/c1-7(2,3)4-5-8-6-9/h6H,4-5H2,1-3H3,(H,8,9)	InChI=1S/C7H15NO/c1-7(2,3)4-5-8-6-9/h6H,4-5H2,1-3H3,(H,8,9)
