16
gdb 25952	4.97497	1.04586	0.86884	5.0663	74.47	-0.2051	-0.0014	0.2037	1284.2546	0.125596	-434.109989	-434.101876	-434.100932	-434.143469	29.608	
C	-0.0319149523	 1.4759971422	-0.1427690313	-0.470315
C	-0.0016630686	 0.0013785011	 0.1556426188	 0.404212
N	-0.1025592994	-0.578336855	 1.2829588052	-0.534382
O	 0.1565625613	-0.6840951625	-1.0006892874	-0.255981
C	 0.2241098391	-2.0471926083	-1.0785922679	 0.383113
C	 0.3830460692	-2.8080616883	-2.2060550043	-0.191068
N	 0.401396091	-4.1388526996	-1.8573932642	-0.25673
C	 0.2566143025	-4.1684304408	-0.5520741074	 0.00996
N	 0.1431643303	-2.9160843097	-0.020791498	-0.300562
H	 0.8970741345	 1.7782433794	-0.6351354301	 0.15832
H	-0.8525595594	 1.7031175404	-0.8295823693	 0.15833
H	-0.1584711425	 2.0553091674	 0.7726431562	 0.133111
H	-0.2152407098	 0.1024508442	 2.0286454624	 0.232541
H	 0.4826874949	-2.4728988911	-3.2258445238	 0.110366
H	 0.2259689565	-5.0545269824	 0.063386402	 0.128258
H	 0.0229627327	-2.593989177	 0.930336479	 0.290826
65.0808	84.9987	118.3161	203.0867	319.0447	357.6518	387.575	559.9595	575.854	626.6876	671.9043	727.6504	740.9956	792.2936	823.1574	834.0784	921.6698	932.7718	1008.5879	1055.1086	1066.7199	1088.3107	1121.0103	1141.6927	1260.9047	1285.6187	1367.7651	1387.9727	1415.8298	1446.3992	1469.9593	1481.0554	1512.7734	1608.0853	1716.6893	3052.7504	3117.8314	3149.6359	3254.2319	3262.6544	3534.6509	3581.2162
CC(=N)OC1=CN=CN1	C[C]([NH])Oc1cnc[nH]1	
InChI=1S/C5H7N3O/c1-4(6)9-5-2-7-3-8-5/h2-3,6H,1H3,(H,7,8)	InChI=1S/C5H7N3O/c1-4(6)9-5-2-7-3-8-5/h2-3,6H,1H3,(H,7,8)
