18
gdb 33729	3.31292	1.501	1.28813	1.0573	82.04	-0.2329	0.0398	0.2726	1019.6331	0.149044	-364.720275	-364.713205	-364.712261	-364.751401	29.759	
C	 0.0197526137	-1.1936539474	-0.0545657737	-0.353525
C	 0.0458135307	 0.0087337298	-0.0318273779	 0.05203
C	 0.0709189771	 1.4474540537	-0.0029932112	 0.253947
C	-0.3367756063	 2.2977155923	 1.2720668835	-0.239697
C	 0.4231529227	 3.4012939028	 0.4808365101	-0.023651
C	 1.3957950564	 2.2713309939	 0.0516792577	-0.287546
N	-0.5563337844	 3.6303610338	-0.632242522	-0.110694
C	-0.1338156804	 3.1795019181	-1.9722815135	-0.256949
C	-0.7759234456	 2.2186925777	-1.0423408911	-0.07159
H	-0.0001303598	-2.2550371015	-0.0736258348	 0.180688
H	-1.403422024	 2.4587957378	 1.4397122996	 0.111794
H	 0.1665586445	 1.9658900574	 2.181557923	 0.107287
H	 0.7656862341	 4.3285319771	 0.9364615222	 0.078755
H	 2.0204321085	 1.9455199908	 0.8836854629	 0.11295
H	 2.0087010492	 2.3609371652	-0.8443177034	 0.10445
H	-0.7457883392	 3.5984402389	-2.7664909914	 0.120178
H	 0.9160278993	 3.0990529952	-2.2277435778	 0.118923
H	-1.7978751166	 1.8846757144	-1.1972059422	 0.102651
138.6466	154.159	336.6335	418.9117	483.9421	496.4434	520.1357	560.5381	572.4435	629.3816	633.5798	644.5295	752.1026	788.5719	842.0269	855.4714	910.0441	931.201	960.6478	974.1219	990.6662	1026.5715	1065.6091	1081.6994	1100.8406	1120.6495	1144.5385	1175.205	1182.8914	1220.5533	1227.8749	1236.625	1257.1221	1282.2458	1367.0473	1475.1468	1499.8144	1541.4628	2236.2594	3074.8611	3093.6194	3125.8982	3136.3899	3144.4972	3148.3762	3149.8756	3210.2086	3502.6611
C#CC12CC(C1)N1CC21	C#C[C@@]12C[C@@H](C1)N1C[C@@H]21	
InChI=1S/C8H9N/c1-2-8-3-6(4-8)9-5-7(8)9/h1,6-7H,3-5H2	InChI=1S/C8H9N/c1-2-8-3-6(4-8)9-5-7(8)9/h1,6-7H,3-5H2/t6-,7-,8+,9?/m0/s1
