19
gdb 50996	2.29226	1.34968	0.97659	3.8014	78.49	-0.2393	0.0112	0.2504	1252.7133	0.158858	-419.150377	-419.141416	-419.140472	-419.184722	33.086	
N	-0.3408532951	 1.2151975241	 0.4890536149	-0.44098
C	-0.1033479624	-0.0060646582	 0.273249526	 0.108806
O	-1.109519125	-0.8949504786	 0.3653667157	-0.245358
C	-0.9200233172	-2.2780553487	 0.1213121585	 0.426482
C	 0.0091666361	-2.767608953	-0.9565582864	-0.327227
C	 0.3445476466	-2.9939536484	 0.5081059978	-0.324903
C	-2.2325483032	-2.9784600796	 0.3149664081	-0.040168
C	-3.2190160264	-2.5086087544	 1.3168312945	-0.247185
N	-3.4869066415	-2.3605066571	-0.1281848338	-0.331386
H	 0.5142331102	 1.757353881	 0.3844248895	 0.231223
H	 0.8680038156	-0.4361351006	 0.0115572716	 0.097569
H	-0.3150824824	-3.6108754904	-1.5565867235	 0.132058
H	 0.5981218562	-2.0388727391	-1.5027030038	 0.124709
H	 1.1559836778	-2.4167661332	 0.9374877478	 0.124914
H	 0.2519206134	-3.9936377139	 0.9188571584	 0.12931
H	-2.167806389	-4.0446338047	 0.1064000463	 0.089134
H	-3.8505106842	-3.2284576512	 1.8297246705	 0.115119
H	-2.9731606833	-1.6170922463	 1.8843769911	 0.132082
H	-3.2986841562	-1.3951257777	-0.3914268932	 0.2458
75.296	88.3782	102.3383	146.1897	243.6766	257.489	353.0571	386.4589	488.1462	530.7925	551.1288	738.3654	770.201	816.5502	836.8583	861.9682	894.3268	929.318	952.1686	969.6966	986.7595	1020.8801	1037.4199	1057.3794	1073.3552	1107.7065	1120.6448	1151.3565	1182.8899	1188.044	1262.821	1286.4308	1295.7626	1303.8826	1320.9899	1425.7972	1448.1898	1465.0638	1499.7254	1510.4542	1736.6071	3072.5926	3117.6307	3125.5068	3135.7357	3137.2052	3210.9085	3213.8813	3226.0728	3497.5348	3518.9709
N=COC1(CC1)C1CN1	[NH][CH]OC1(CC1)[C@H]1CN1	
InChI=1S/C6H10N2O/c7-4-9-6(1-2-6)5-3-8-5/h4-5,7-8H,1-3H2	InChI=1S/C6H10N2O/c7-4-9-6(1-2-6)5-3-8-5/h4-5,7-8H,1-3H2/t5-/m1/s1
