14
gdb 10114	2.85585	1.47486	1.12007	3.2548	59.73	-0.2743	0.0012	0.2755	1035.5999	0.106694	-415.886668	-415.878226	-415.877282	-415.920603	28.789	
O	 0.1048263468	 1.2963950932	 0.2958100228	-0.419228
C	-0.0462667047	-0.0848039362	 0.0366811004	-0.085372
C	-1.5381862703	-0.4670186911	-0.0759699557	-0.128284
N	-2.2460017623	-0.0762906854	 1.1258901515	-0.266676
C	-3.0155065538	-0.9562269986	 1.8292864559	 0.164358
O	-3.2207392332	-2.104181588	 1.5035235216	-0.313139
C	-2.1090259339	 0.1863437674	-1.2702953921	 0.268191
N	-2.494652861	 0.7461016136	-2.2049580462	-0.316203
H	-0.0784819063	 1.7781406615	-0.5193477969	 0.305517
H	 0.4869870783	-0.4012522624	-0.868914607	 0.123163
H	 0.3757525353	-0.6140633732	 0.8952023232	 0.13661
H	-1.6542870134	-1.5514734491	-0.1732501385	 0.168552
H	-2.0616163225	 0.8489471847	 1.4835158238	 0.267414
H	-3.434118079	-0.4956105864	 2.7433013073	 0.095097
40.8823	104.1601	138.523	176.7592	244.428	261.6034	346.7763	402.9837	459.7612	567.7743	579.891	693.8114	742.9162	888.4609	911.3194	1013.3458	1036.0932	1079.9069	1099.498	1195.3361	1229.018	1271.1945	1349.9462	1392.9398	1414.7944	1424.5012	1492.4095	1507.3654	1804.8946	2354.1096	2966.2647	3027.76	3081.2503	3106.2202	3628.1079	3798.2797
OCC(NC=O)C#N	OC[C@@H](NC=O)C#N	
InChI=1S/C4H6N2O2/c5-1-4(2-7)6-3-8/h3-4,7H,2H2,(H,6,8)	InChI=1S/C4H6N2O2/c5-1-4(2-7)6-3-8/h3-4,7H,2H2,(H,6,8)/t4-/m0/s1
