20
gdb 102279	1.97531	1.27522	0.92958	2.2017	77.58	-0.2459	-0.0193	0.2266	1367.0832	0.167497	-440.311329	-440.300736	-440.299792	-440.347902	36.735	
C	-0.059636358	 1.4962537009	 0.1819197193	-0.385785
C	 0.0871601164	-0.0208090974	 0.04336655	-0.203449
C	 0.7169250582	-0.4382456657	-1.2912075874	 0.043873
O	 2.0512632581	 0.0507154644	-1.3170679317	-0.242013
C	 2.6672981996	 0.099832208	-2.5239587467	 0.418047
C	 4.1048753383	 0.5081301624	-2.3461211531	-0.466086
N	 2.0396260549	-0.1717598167	-3.591733921	-0.527398
C	 0.6896107132	-1.9538486713	-1.4374188313	 0.162584
O	 1.6573294179	-2.6643470158	-1.431585481	-0.24542
H	 0.9134720868	 1.9869208438	 0.0992543378	 0.133433
H	-0.7106942584	 1.9025095998	-0.5995765071	 0.119213
H	-0.4930385454	 1.7579800673	 1.1515161916	 0.117729
H	 0.7060077033	-0.4194290068	 0.8556014612	 0.120214
H	-0.894019124	-0.5038910624	 0.1244457495	 0.105903
H	 0.1478178982	-0.0187519831	-2.1307422464	 0.120333
H	 4.6329392807	-0.253098241	-1.7638773039	 0.157682
H	 4.5999128755	 0.6289097908	-3.3107419086	 0.126952
H	 4.1670958846	 1.4469053588	-1.7878260282	 0.143616
H	 2.6470678519	-0.0768762107	-4.4014368498	 0.222503
H	-0.3424750519	-2.3668499551	-1.524449053	 0.078068
54.0133	74.4512	100.2777	110.4925	135.4129	177.7651	212.3738	255.6707	293.6354	369.3189	409.7485	444.2063	568.8575	602.7902	743.5823	782.0815	826.8454	847.7412	914.4484	952.5141	970.3519	989.9921	1038.9542	1068.3452	1078.8813	1105.9996	1157.0989	1169.4109	1264.3666	1309.41	1352.9948	1377.1584	1384.4903	1407.4382	1411.3045	1427.5255	1471.8205	1478.3334	1481.9992	1496.2951	1508.1961	1731.3844	1847.5136	2861.4959	3032.7827	3038.2845	3040.4313	3050.2923	3073.991	3108.6212	3115.4048	3125.1155	3145.6198	3525.2127
CCC(OC(C)=N)C=O	CC[C@@H](O[C](C)[NH])C=O	
InChI=1S/C6H11NO2/c1-3-6(4-8)9-5(2)7/h4,6-7H,3H2,1-2H3	InChI=1S/C6H11NO2/c1-3-6(4-8)9-5(2)7/h4,6-7H,3H2,1-2H3/t6-/m1/s1
