18
gdb 36269	4.66485	0.99234	0.93091	1.5574	82.26	-0.2183	0.0482	0.2666	1286.0434	0.146279	-364.665347	-364.657268	-364.656324	-364.698259	31.792	
C	 0.2483347928	-1.1368628216	 1.2161049516	-0.397501
C	 0.0482020796	-0.079793023	 0.6813456057	 0.297651
C	-0.2222130806	 1.2033554015	 0.0281460582	-0.352208
N	 1.0081432466	 1.9868799691	-0.1231652356	-0.060077
C	 1.5270868468	 2.7345360167	-1.2271511265	-0.066968
C	 0.5765454367	 3.786881209	-1.8999735083	-0.068103
C	-0.8127053146	 3.8599217181	-1.3294431844	-0.304225
C	 0.3356112752	 4.4272905491	-0.5418224729	-0.06812
C	 1.2884806142	 3.3689756271	 0.1182334585	-0.066962
H	 0.4303632921	-2.0698029934	 1.6890012574	 0.192171
H	-0.6778115639	 1.0108628871	-0.9507615144	 0.141038
H	-0.9576200607	 1.7548004894	 0.6264495557	 0.14106
H	 2.4560611668	 2.4196916058	-1.6915542535	 0.098287
H	 0.8460083989	 4.2795869221	-2.8250742432	 0.092207
H	-1.4307183894	 4.6214258058	-1.7981562483	 0.112384
H	-1.3786998999	 2.9936593225	-1.0213988635	 0.118872
H	 0.3954811285	 5.4770309595	-0.2856178802	 0.092208
H	 1.9974572809	 3.6390925854	 0.8942375737	 0.098286
52.1367	122.5523	216.1366	230.8514	347.9525	362.2793	457.292	473.5127	608.4755	651.1882	655.8035	696.158	716.2125	724.0136	762.7163	849.575	882.4733	899.4912	930.9583	953.6344	970.8873	1015.2566	1019.8997	1046.1458	1053.2208	1066.2638	1084.7132	1098.0701	1177.7218	1250.746	1267.6071	1278.8947	1291.1611	1319.0923	1362.1829	1427.5676	1464.5988	1501.6216	2239.6895	3013.9301	3058.472	3138.0678	3154.3004	3164.5942	3192.3433	3202.9374	3248.6166	3507.0724
C#CCN1C2C3CC3C12	C#CCN1[C@H]2[C@H]3C[C@H]3[C@@H]12	
InChI=1S/C8H9N/c1-2-3-9-7-5-4-6(5)8(7)9/h1,5-8H,3-4H2	InChI=1S/C8H9N/c1-2-3-9-7-5-4-6(5)8(7)9/h1,5-8H,3-4H2/t5-,6+,7-,8+,9?
