16
gdb 34874	2.29849	1.73322	1.19684	1.7889	74.77	-0.2389	0.0419	0.2808	1043.1409	0.123006	-400.632906	-400.625095	-400.62415	-400.66522	30.288	
C	-0.156411415	-1.2773562851	-0.0306907707	-0.46143
C	-0.069684781	-0.0791605912	 0.015565011	 0.350221
C	 0.0425392968	 1.3637641685	 0.0485439482	-0.28935
C	-0.2346598095	 2.1217409638	 1.3703611118	-0.056989
N	 0.8185858363	 1.7265434813	 2.3250290979	-0.326864
C	 1.0944627776	 2.7924638521	 1.3227659422	-0.181247
C	 1.4532231394	 2.0388443223	 0.0575328155	 0.487808
C	 2.7318846345	 1.5886278847	-0.4716008216	-0.259958
O	 1.9755151559	 2.6508599417	-1.0964370466	-0.284897
H	-0.2336032363	-2.3360580007	-0.0559711867	 0.195658
H	-0.5276437329	 1.8213449756	-0.7674907027	 0.12211
H	-1.1945251849	 2.4947279865	 1.7027148622	 0.107123
H	 0.6152183266	 2.1922494709	 3.2093580346	 0.235865
H	 1.3940666848	 3.7923705748	 1.6082824246	 0.111683
H	 3.6581617107	 1.8977794872	 0.0089496975	 0.12033
H	 2.7772974372	 0.6604037376	-1.0374849171	 0.129936
100.0766	129.41	181.3497	293.5664	321.9864	358.4245	478.9036	491.3805	569.5141	620.7842	634.6132	650.0614	752.2327	825.9488	836.6894	867.8679	899.6129	910.3782	964.0712	979.8005	1037.281	1056.5931	1092.8491	1108.065	1119.6365	1145.0925	1157.8125	1185.7507	1266.7141	1307.0944	1342.2192	1359.3274	1451.309	1539.7347	2237.2513	3056.649	3093.1203	3185.0496	3197.7663	3210.4975	3473.6771	3503.2893
C#CC1C2NC2C11CO1	C#C[C@H]1[C@H]2N[C@H]2[C@]21CO2	
InChI=1S/C7H7NO/c1-2-4-5-6(8-5)7(4)3-9-7/h1,4-6,8H,3H2	InChI=1S/C7H7NO/c1-2-4-5-6(8-5)7(4)3-9-7/h1,4-6,8H,3H2/t4-,5+,6+,7+/m0/s1
