17
gdb 14114	3.86315	1.75066	1.38739	3.3484	69.16	-0.2402	0.026	0.2662	914.0193	0.143184	-363.873877	-363.866266	-363.865322	-363.905763	29.066	
N	 0.0817024086	 1.1777092732	-0.5030557334	-0.539021
C	 0.0107024808	-0.011708556	 0.1755562595	 0.291069
O	 0.9547478481	-0.4586651099	 0.8044083009	-0.376074
C	-1.2823438793	-0.7359976872	 0.0531038498	 0.27343
C	-1.7182646836	-1.6526883969	 1.1744348069	-0.310297
C	-1.4343612036	-2.2605414184	-0.1544837749	-0.072964
C	-2.6002339832	-2.0210560222	-1.1208244499	-0.222717
C	-2.4531745661	-0.4772665499	-0.908645494	-0.326415
H	 0.8967888865	 1.7459234518	-0.3355248608	 0.258289
H	-0.7499692378	 1.6377092115	-0.8313223999	 0.256933
H	-0.9531621665	-1.8024612659	 1.9274535951	 0.14285
H	-2.7387564459	-1.5852793053	 1.5456547854	 0.103483
H	-0.6269851301	-2.9685464947	-0.2922972907	 0.106897
H	-2.3784419532	-2.3178912153	-2.1475531329	 0.109735
H	-3.556187623	-2.4660337324	-0.8268206302	 0.101689
H	-3.3157641083	 0.0487178262	-0.4855881865	 0.097492
H	-2.1511265233	 0.0275981014	-1.8297172344	 0.105621
70.5553	164.3376	203.228	287.8408	304.596	385.1973	423.5404	502.2923	565.1833	642.5608	724.3203	753.3689	789.466	853.3231	865.6056	932.5551	938.8253	972.0561	1024.9602	1027.3188	1085.7684	1090.0613	1107.9398	1146.0645	1214.038	1230.4198	1237.6795	1255.3056	1296.9857	1339.0857	1414.5499	1473.0544	1481.7022	1504.6581	1614.6485	1776.3445	3039.4189	3052.9557	3093.157	3107.0147	3117.1869	3197.7424	3222.0272	3594.7606	3726.9757
NC(=O)C12CC1CC2	NC(=O)[C@]12C[C@H]1CC2	
InChI=1S/C6H9NO/c7-5(8)6-2-1-4(6)3-6/h4H,1-3H2,(H2,7,8)	InChI=1S/C6H9NO/c7-5(8)6-2-1-4(6)3-6/h4H,1-3H2,(H2,7,8)/t4-,6-/m1/s1
