16
gdb 24166	5.47919	0.96692	0.8807	0.3287	70.9	-0.2164	0.0035	0.2199	1295.2751	0.124911	-437.884934	-437.877307	-437.876362	-437.918468	28.163	
C	-0.3584900319	 1.1224403365	-0.1162779817	-0.280967
C	 1.1249020533	 1.0474604359	 0.1961662327	-0.29533
C	 0.3430381889	-0.2007351062	-0.0398158121	 0.148896
O	 0.1438456396	-1.0022796987	 1.1046811198	-0.281533
C	-0.8823275354	-1.870020353	 1.0582137572	 0.346347
C	-1.3654365121	-2.6086468681	 2.0922816229	-0.157473
O	-2.3838614062	-3.3833274512	 1.5867614254	-0.138253
C	-2.447295065	-3.0553698215	 0.2869200983	 0.085646
N	-1.5852897844	-2.1654845942	-0.094579538	-0.334165
H	-1.0219925668	 1.3745585804	 0.7029121937	 0.123798
H	-0.6779220707	 1.4781168722	-1.0892619747	 0.120076
H	 1.8405714124	 1.3555483304	-0.5573643196	 0.118534
H	 1.4249823024	 1.246997836	 1.2184159996	 0.127267
H	 0.4923647413	-0.771790952	-0.9493820928	 0.115815
H	-1.1333755441	-2.7121252059	 3.1355301247	 0.148147
H	-3.1961777513	-3.5522285106	-0.3092640956	 0.153197
41.2163	58.9266	154.4501	301.7004	354.3096	395.6909	480.0686	639.2021	670.8938	711.1465	738.9333	760.2927	826.8014	831.684	845.8759	935.5281	967.5176	989.7645	1027.9107	1057.1081	1074.1666	1083.9283	1119.7769	1160.2736	1184.4993	1190.9174	1237.1599	1252.401	1333.069	1349.0654	1391.3178	1455.0093	1496.7492	1549.3436	1652.3693	3140.3701	3143.5984	3172.6053	3223.9273	3237.7914	3276.7658	3315.5344
C1CC1OC1=COC=N1	C1CC1Oc1cocn1	
InChI=1S/C6H7NO2/c1-2-5(1)9-6-3-8-4-7-6/h3-5H,1-2H2	InChI=1S/C6H7NO2/c1-2-5(1)9-6-3-8-4-7-6/h3-5H,1-2H2
