23
gdb 87953	3.6082	0.99971	0.90876	0.2194	95.13	-0.2074	0.0349	0.2423	1429.8056	0.205618	-351.17186	-351.162371	-351.161427	-351.206026	36.369	
C	-0.0985533742	 1.5181747051	-0.0285954812	-0.408792
C	 0.0189334867	 0.0107654847	 0.0135686829	-0.041901
C	 1.3361290517	-0.670463614	-0.256821583	-0.343668
C	 0.7431507905	-0.6959490375	 1.142764082	 0.354281
C	 1.3810386855	 0.0539478177	 2.3255318584	-0.308917
C	 1.4843823452	-0.9989991891	 3.4616540329	-0.310033
C	 0.611397828	-2.1459438348	 2.9912021915	 0.310818
C	 0.3014913462	-3.3095757537	 3.8778960682	-0.487439
C	 0.2306752658	-1.9634092258	 1.7240675611	-0.235645
H	 0.8140902216	 2.0021214927	 0.3330153672	 0.115297
H	-0.2734597599	 1.8692146726	-1.0518441488	 0.114474
H	-0.92972471	 1.8747016961	 0.5907631387	 0.115187
H	-0.8603184331	-0.5109576427	-0.3591802736	 0.076652
H	 1.3441609251	-1.5909813701	-0.8319044454	 0.103948
H	 2.2056687292	-0.0385442945	-0.4163443451	 0.103927
H	 2.3514197373	 0.4905674204	 2.0749074922	 0.096908
H	 0.7316559872	 0.877883311	 2.6406511754	 0.103464
H	 2.5177355753	-1.3435449788	 3.6116003221	 0.101439
H	 1.1589926123	-0.5986178378	 4.4299813024	 0.097106
H	 1.2198382623	-3.80759674	 4.2165011139	 0.121417
H	-0.2275023129	-2.9896732305	 4.785330586	 0.121161
H	-0.3182172398	-4.0532732715	 3.3691037251	 0.119887
H	-0.3729481499	-2.6596808294	 1.1493752473	 0.08043
65.2022	119.1586	165.8528	186.1328	193.0701	253.2214	281.4142	379.9925	407.1648	423.5383	493.8743	531.039	588.7413	741.7427	819.8647	834.883	863.7408	881.8119	888.9459	917.8523	939.3446	977.1916	1010.1268	1018.4798	1027.6773	1047.7357	1077.1447	1093.8874	1130.5426	1173.7175	1182.1439	1192.5327	1221.9886	1263.0654	1299.6051	1307.3247	1322.9375	1366.4256	1408.0758	1414.066	1427.576	1478.3041	1482.5513	1486.7364	1489.8889	1492.296	1501.6921	1504.5178	1720.5919	3001.5947	3011.2937	3025.1837	3032.9386	3047.5433	3053.5767	3083.2203	3088.4784	3097.1275	3105.895	3114.2893	3125.56	3173.4989	3200.3728
CC1CC11CCC(C)=C1	C[C@H]1C[C@]21CCC(=C2)C	
InChI=1S/C9H14/c1-7-3-4-9(5-7)6-8(9)2/h5,8H,3-4,6H2,1-2H3	InChI=1S/C9H14/c1-7-3-4-9(5-7)6-8(9)2/h5,8H,3-4,6H2,1-2H3/t8-,9-/m0/s1
