23
gdb 38257	2.9121	1.59949	1.30172	0.3456	89.35	-0.2655	0.0899	0.3554	1083.2839	0.210239	-351.125727	-351.118604	-351.11766	-351.156715	31.106	
C	-0.028219717	 1.618901647	 0.1924305737	-0.26341
C	 1.4678401208	 1.2346472111	 0.0449416949	-0.087654
C	 1.1693826104	 0.0514894972	 1.0257777246	-0.295605
C	-0.0079495507	 0.0623257068	 0.0067973423	 0.373776
C	-1.1825960155	-0.8378775941	-0.2743528017	-0.342135
C	-1.7334779733	-0.4802478397	-1.676646107	-0.18759
C	-0.6415147443	-0.4258473033	-2.7672686704	-0.177927
C	 0.4722842392	 0.6060672951	-2.4673997971	-0.268836
C	 1.0629334279	 0.2574239137	-1.1052004298	 0.052757
H	-0.3407224868	 1.9769603231	 1.178018945	 0.082984
H	-0.4765372675	 2.2262327316	-0.5947101797	 0.089174
H	 2.325991137	 1.9078635386	 0.082777382	 0.064429
H	 1.8464358747	-0.8072143307	 0.9802379574	 0.084394
H	 0.9384518445	 0.3258022088	 2.0593193554	 0.083965
H	-0.849026468	-1.8847006178	-0.2672504255	 0.093789
H	-1.9705914845	-0.7486279804	 0.4830014927	 0.091271
H	-2.5030189882	-1.204601585	-1.9654621583	 0.090157
H	-2.2338745589	 0.49577811	-1.6244657894	 0.096771
H	-0.1861086053	-1.4216595797	-2.8651587097	 0.091699
H	-1.1059023451	-0.2042122062	-3.734843148	 0.089402
H	 1.2359788753	 0.5755911128	-3.252771646	 0.087778
H	 0.0478052725	 1.6154491114	-2.4885809283	 0.096755
H	 1.741636383	-0.5999821404	-1.2033124769	 0.054054
158.5377	243.1373	334.1314	355.448	377.6371	423.7951	481.8576	558.1496	581.8437	639.7892	775.4099	784.5986	802.9608	828.6377	858.3889	893.9581	909.972	941.5513	943.5405	964.345	981.8431	1016.4995	1043.3095	1056.1806	1065.2211	1095.3383	1113.0882	1137.4829	1147.7823	1164.6469	1181.7605	1204.8457	1218.6021	1223.3926	1247.5093	1273.3129	1284.248	1307.8261	1348.6588	1362.7378	1372.8971	1381.4046	1419.5696	1480.2498	1485.7043	1487.1802	1496.6201	1508.6347	1547.0442	3007.726	3011.0361	3014.0906	3020.1817	3035.6172	3039.5291	3055.2853	3056.6306	3061.4595	3067.3033	3077.1318	3095.4265	3104.7214	3126.8037
C1C2CC11CCCCC21	C1[C@H]2C[C@]31CCCC[C@@H]23	
InChI=1S/C9H14/c1-2-4-9-5-7(6-9)8(9)3-1/h7-8H,1-6H2	InChI=1S/C9H14/c1-2-4-9-5-7(6-9)8(9)3-1/h7-8H,1-6H2/t7-,8-,9+/m0/s1
