17
gdb 126313	2.89837	1.40868	1.0227	3.065	80.16	-0.2374	-0.0704	0.167	1162.11	0.136363	-418.000945	-417.992736	-417.991791	-418.034042	30.629	
C	-0.2283640788	 1.4811177833	 0.0324993163	-0.378863
C	 0.066722045	-0.0310889765	 0.0258652788	-0.278232
C	 0.7799079558	-0.4828164717	-1.2159015378	 0.24608
C	 2.0868512943	-0.8106733041	-1.2612838535	-0.217928
C	 2.6763059987	-1.2123354114	-2.5101974424	 0.033747
N	 2.0515561162	-1.2979184993	-3.6314830273	-0.069393
O	 0.6973652247	-0.9749339085	-3.6042374158	-0.285256
C	 0.0163515736	-0.5762798892	-2.4624195394	 0.362785
N	-1.2258391135	-0.3161994908	-2.5294445251	-0.524647
H	 0.6965512957	 2.0630726643	-0.0300129203	 0.114455
H	-0.8682015045	 1.7473519548	-0.8107061588	 0.153843
H	-0.7417678474	 1.7576320251	 0.9578722902	 0.11889
H	 0.6755809178	-0.2948880594	 0.8971790805	 0.100465
H	-0.8805341964	-0.5747072473	 0.0976502256	 0.138235
H	 2.7080379219	-0.776221032	-0.3726085994	 0.117491
H	 3.7283815279	-1.473834144	-2.5733938067	 0.138661
H	-1.5726047408	-0.4493643831	-3.4804273548	 0.229667
88.1304	95.0942	168.2869	215.8146	269.1812	320.9577	431.2711	464.1943	534.3301	562.9148	591.4921	714.2835	772.7531	799.5553	862.702	866.7456	886.7064	940.6997	956.1323	977.9189	1011.3499	1053.7076	1082.6768	1110.2392	1197.579	1272.4738	1292.5586	1347.7468	1355.7871	1396.2523	1414.8401	1474.3604	1494.7977	1512.3462	1625.5587	1682.1746	1720.5286	3043.32	3044.7992	3090.6378	3113.3506	3144.1301	3179.5341	3193.3312	3483.1551
CCC1=CC=NOC1=N	CCC1=C(ON=C[CH]1)[NH]	
InChI=1S/C6H8N2O/c1-2-5-3-4-8-9-6(5)7/h3-4,7H,2H2,1H3	InChI=1S/C6H8N2O/c1-2-5-3-4-8-9-6(5)7/h3-4,7H,2H2,1H3
