16
gdb 39011	3.29058	1.90326	1.35295	3.1988	75.94	-0.199	-0.0094	0.1896	917.5858	0.128143	-396.913517	-396.907083	-396.906138	-396.943919	26.796	
C	 0.0386511994	 1.553530767	 0.0050432978	-0.160704
N	 1.4553178384	 1.9667515232	 0.1771795375	-0.34675
C	 2.1212890732	 0.8866934176	 0.2799856034	 0.421604
N	 3.4748633331	 0.6016516514	 0.2478307611	-0.399206
C	 3.5966031471	-0.7569241323	-0.1215097169	-0.017146
C	 2.4136646403	-1.4039163733	-0.1549370601	-0.352382
C	 1.3929588534	-0.4161862693	 0.2457304504	 0.321915
N	 0.3859917804	-0.519032742	 1.3466621035	-0.368672
C	-0.0170126449	 0.0145714038	 0.0251087816	-0.15354
H	-0.5831818015	 1.9717501583	 0.8035630503	 0.124242
H	-0.325852505	 1.959520333	-0.9464289293	 0.106181
H	 4.1538049124	 1.2940600243	-0.0260713949	 0.25965
H	 4.58305317	-1.1537554562	-0.3163733741	 0.130756
H	 2.2726793058	-2.459118017	-0.3310047566	 0.10838
H	 0.0977996378	-1.4974488349	 1.3946172023	 0.227796
H	-0.7347129498	-0.5315711736	-0.577248866	 0.097877
230.1612	234.4788	285.5849	424.6026	440.1223	500.5342	566.1199	616.7696	670.467	699.7502	732.0468	795.887	831.1837	854.2178	862.685	897.2365	920.0593	971.96	1001.5319	1032.0881	1045.8355	1060.7874	1124.311	1150.1485	1204.4686	1230.9025	1274.6237	1328.1135	1344.4305	1372.4852	1396.6123	1432.5007	1474.7373	1622.1531	1752.267	3033.3853	3077.9347	3173.0852	3233.6923	3256.5178	3450.6323	3641.2861
C1N=C2NC=CC22NC12	C1N=C2NC=C[C@]32N[C@@H]13	
InChI=1S/C6H7N3/c1-2-7-5-6(1)4(9-6)3-8-5/h1-2,4,9H,3H2,(H,7,8)	InChI=1S/C6H7N3/c1-2-7-5-6(1)4(9-6)3-8-5/h1-2,4,9H,3H2,(H,7,8)/t4-,6-/m0/s1
