23
gdb 68355	2.62078	1.64155	1.23772	0.2913	89.94	-0.2291	0.0235	0.2526	1118.0133	0.208304	-351.160324	-351.152208	-351.151264	-351.192204	33.798	
C	-0.0078213367	 1.6101236487	 0.0117237405	-0.463328
C	 0.0525163173	 0.0872928075	-0.0517815505	 0.349947
C	 1.235244477	-0.5367398246	-0.8583402462	-0.269209
C	 1.3976649666	-1.605825832	 0.2648044189	-0.04726
C	 0.6324531182	-0.6248031322	 1.2094518729	-0.24912
C	 0.6427159485	-2.885837738	 0.0281862115	-0.063138
C	-0.5589523025	-2.9893629697	-0.5423432619	-0.052199
C	-1.3801637175	-1.8659883003	-1.1335514364	-0.269009
C	-1.3299095748	-0.4827541434	-0.4475187264	-0.241163
H	 0.9424966975	 2.031361252	 0.356807278	 0.104962
H	-0.2287827387	 2.0396400179	-0.9728484055	 0.110119
H	-0.7915411928	 1.9468954582	 0.7013142361	 0.111154
H	 1.045065662	-0.8937292758	-1.8730937046	 0.095513
H	 2.0941457059	 0.1408349577	-0.88378606	 0.088111
H	 2.4271381771	-1.8283554729	 0.5545588104	 0.059357
H	 1.3190363109	 0.0294563837	 1.7565237466	 0.086712
H	-0.0776789264	-1.0690838883	 1.9118803392	 0.091054
H	 1.1190740229	-3.7951964427	 0.3881129631	 0.078986
H	-0.9932966045	-3.9820951421	-0.6414831052	 0.08193
H	-1.0930617024	-1.748186121	-2.1888204275	 0.113729
H	-2.4301827923	-2.1794603095	-1.1672664655	 0.097454
H	-1.9518695387	-0.5071688156	 0.4568597722	 0.097306
H	-1.8195195466	 0.2252234827	-1.1283266198	 0.088091
153.0285	183.9711	245.7476	272.521	328.2536	342.5842	380.8247	391.7534	473.8762	543.5951	609.1588	684.8427	740.2487	796.6686	822.1445	828.4835	866.6585	884.9473	902.6778	935.2676	968.9712	994.2957	1000.4823	1024.0146	1035.305	1086.4068	1098.6074	1132.8721	1138.7758	1173.9219	1202.4585	1242.212	1254.784	1263.7216	1267.0492	1289.087	1314.4175	1361.7012	1368.1972	1395.9712	1410.1953	1422.629	1467.4747	1481.0482	1483.8492	1493.826	1497.7839	1505.9667	1718.9919	2996.5085	3009.8843	3016.6517	3040.4355	3044.498	3051.1239	3052.4608	3072.6311	3079.7728	3089.1924	3101.3936	3106.7879	3133.2042	3158.0337
CC12CC(C1)C=CCC2	C[C@@]12C[C@@H](C1)C=CCC2	
InChI=1S/C9H14/c1-9-5-3-2-4-8(6-9)7-9/h2,4,8H,3,5-7H2,1H3	InChI=1S/C9H14/c1-9-5-3-2-4-8(6-9)7-9/h2,4,8H,3,5-7H2,1H3/t8-,9+
