19
gdb 117489	2.41644	1.13328	0.7827	3.2753	76.67	-0.2356	-0.0286	0.2071	1464.0458	0.156731	-456.38288	-456.372102	-456.371157	-456.420842	37.192	
C	 0.0821044404	 1.5167353324	-0.1963045759	-0.395491
C	 0.0059858444	 0.0052000828	-0.0898414758	-0.033962
O	 0.7046401257	-0.5457389177	-1.2160436756	-0.278233
C	 0.752903951	-1.9019129383	-1.3061629605	 0.340249
N	 0.206622076	-2.6324042454	-0.4368669357	-0.314802
C	 0.228537811	-4.0850453117	-0.4855236268	-0.302117
C	 1.524920903	-2.3385176148	-2.5483907957	 0.330973
N	 2.0018207264	-1.3169453741	-3.3031971137	-0.521482
O	 1.6858582892	-3.5141945758	-2.8178242214	-0.361392
H	 1.1208863316	 1.8595969942	-0.1813102107	 0.125596
H	-0.3849373967	 1.8692298488	-1.1206810019	 0.125593
H	-0.4416947758	 1.9745038416	 0.6480255705	 0.125173
H	 0.4667228838	-0.3676780222	 0.8308554247	 0.120282
H	-1.0269682227	-0.3579971274	-0.1004973894	 0.120254
H	-0.2405768795	-4.4728444362	-1.3951039234	 0.13648
H	 1.2484781536	-4.4815007235	-0.4673393323	 0.136486
H	-0.3157450885	-4.4630457299	 0.3844862231	 0.10838
H	 1.8394931916	-0.3628784007	-3.0340659784	 0.274544
H	 2.5201459654	-1.5377083922	-4.1368653711	 0.263469
9.5025	69.3778	115.6593	118.4804	148.4062	235.4219	249.289	259.2336	282.4936	351.835	366.3404	427.1049	457.5571	505.9266	640.4981	677.3703	770.4744	809.0802	821.5793	907.5029	1056.3267	1072.2453	1095.4734	1109.0945	1130.1114	1154.8152	1183.6373	1254.342	1285.722	1356.4559	1396.534	1421.0191	1437.6849	1476.043	1486.6806	1496.0417	1496.5526	1520.565	1592.2192	1750.7666	1795.1754	3030.9247	3043.7329	3047.8606	3083.0758	3097.2878	3102.5795	3119.2235	3121.036	3608.125	3752.4093
CCOC(=NC)C(N)=O	CCOC(=NC)C(=O)N	
InChI=1S/C5H10N2O2/c1-3-9-5(7-2)4(6)8/h3H2,1-2H3,(H2,6,8)	InChI=1S/C5H10N2O2/c1-3-9-5(7-2)4(6)8/h3H2,1-2H3,(H2,6,8)
