18
gdb 20137	5.09225	1.4203	1.26805	2.8364	71.7	-0.2273	0.0768	0.3041	993.6416	0.155706	-343.900845	-343.893763	-343.892819	-343.932455	27.324	
C	 0.1303008752	 1.5879976586	 0.0136141474	-0.244645
N	 1.3234302182	 0.7291771253	 0.0497262709	-0.307658
C	-0.0082833265	 0.1085131401	-0.052936558	-0.010581
C	-0.4626223083	-0.6788827919	 1.1418836734	 0.073201
C	-1.9762087155	-0.9826836774	 1.3479422019	-0.287248
C	-1.579014103	-2.4561078115	 1.3721743637	-0.005486
C	-0.8800574189	-2.8297943239	 0.1311810936	-0.242168
N	-0.1008970326	-2.1524885204	 1.1872856496	-0.143084
H	-0.080731891	 2.1102417548	 0.943248213	 0.118174
H	-0.0850054917	 2.1623969751	-0.8836080589	 0.110917
H	 1.7829467209	 0.7273239007	-0.8567075705	 0.232674
H	-0.2931612644	-0.2925927327	-1.0238611284	 0.081001
H	-0.0233849065	-0.2202624434	 2.0309855865	 0.093519
H	-2.3571555407	-0.6034616803	 2.2975557462	 0.11147
H	-2.6666455383	-0.6875655934	 0.5509865073	 0.099409
H	-1.9188547626	-3.1893185035	 2.0962866238	 0.093274
H	-0.5837580493	-3.8665339607	 0.0049207114	 0.12089
H	-1.113323725	-2.3168147855	-0.799167963	 0.106343
69.9057	168.901	177.3509	314.4899	373.8916	420.0296	520.2042	720.5807	762.0184	773.5102	809.8696	871.4673	890.0304	903.3913	937.219	957.3928	978.4776	1007.9406	1042.1212	1059.6635	1077.3135	1103.454	1118.6653	1126.9015	1135.7486	1161.3666	1223.6894	1248.2358	1252.4296	1267.4988	1283.62	1286.2941	1334.4751	1364.9308	1459.4605	1487.007	1504.3961	1516.3695	3048.6101	3077.6574	3105.2353	3106.378	3116.8989	3124.6426	3163.7323	3189.2345	3195.9848	3508.4341
C1NC1C1CC2CN12	C1N[C@H]1[C@H]1C[C@H]2CN12	
InChI=1S/C6H10N2/c1-4-3-8(4)6(1)5-2-7-5/h4-7H,1-3H2	InChI=1S/C6H10N2/c1-4-3-8(4)6(1)5-2-7-5/h4-7H,1-3H2/t4-,5+,6+,8?/m0/s1
