17
gdb 62149	4.80136	0.65144	0.60607	3.2983	71.47	-0.2624	0.0115	0.2739	1744.7269	0.134816	-455.180125	-455.170278	-455.169334	-455.216432	33.889	
O	-0.2917313653	 1.3964118228	 0.0124598956	-0.422446
C	 0.132018654	 0.0436076585	-0.064404792	 0.113403
C	 1.0582114562	-0.1708001086	-1.2661035549	-0.169174
N	 0.4171715739	 0.286859267	-2.4797177964	-0.281129
C	 0.3757738298	-0.4584733591	-3.6171350085	 0.155055
O	 0.912424304	-1.5361178922	-3.7625245741	-0.32077
C	 0.8055440304	-0.4305282526	 1.2393924842	-0.377071
C	-0.0411324836	-0.2403423426	 2.4140816809	 0.272322
N	-0.7085873553	-0.094614216	 3.3452994148	-0.294789
H	 0.4632462447	 1.9437234561	 0.2604224399	 0.288716
H	-0.7890851868	-0.5274085883	-0.2185775425	 0.126858
H	 2.004154317	 0.3675219291	-1.0946882378	 0.102555
H	 1.3016986809	-1.2272530788	-1.4056146504	 0.152756
H	-0.1056168016	 1.1476758775	-2.4252699905	 0.257207
H	-0.2100291317	 0.0402894787	-4.4132784351	 0.082794
H	 1.0665044844	-1.4915786219	 1.1556576179	 0.166511
H	 1.7475700891	 0.1129589304	 1.3912421589	 0.147201
32.2606	68.0642	93.4656	115.6503	205.7397	236.2456	309.404	333.3333	353.5085	393.8123	425.3684	461.9719	585.8986	608.914	771.5363	865.3913	912.7318	936.8016	1020.0915	1024.8564	1038.3597	1092.2122	1123.5361	1191.893	1214.0016	1236.7002	1284.8539	1337.9596	1361.8869	1401.1448	1423.0591	1427.9527	1461.4255	1497.0781	1521.571	1804.4129	2369.1004	2949.4009	2978.7241	3029.1244	3070.9362	3083.2441	3109.2765	3629.1554	3785.5225
OC(CNC=O)CC#N	O[C@@H](CNC=O)CC#N	
InChI=1S/C5H8N2O2/c6-2-1-5(9)3-7-4-8/h4-5,9H,1,3H2,(H,7,8)	InChI=1S/C5H8N2O2/c6-2-1-5(9)3-7-4-8/h4-5,9H,1,3H2,(H,7,8)/t5-/m1/s1
