22
gdb 115938	3.49175	1.07179	0.90568	1.838	81.7	-0.2139	0.0736	0.2875	1335.461	0.196256	-404.324412	-404.315704	-404.31476	-404.357778	33.818	
O	 0.0023159867	 1.4336401445	-0.0205051008	-0.424933
C	 0.0355256889	 0.0130738408	-0.0041021192	-0.095274
C	-1.4007791609	-0.4990356397	-0.0083821692	 0.04126
C	-2.1595051955	-0.1189836147	-1.2853517233	-0.212098
C	-3.6326434242	-0.5186592138	-1.146502276	-0.239798
C	-3.8131984847	-1.9494884928	-0.6698712749	 0.016641
C	-3.1096700818	-3.0829817628	-1.3238720489	-0.247508
N	-2.7361784549	-2.6702141327	 0.0285328343	-0.101575
C	-1.4243505497	-2.0215989497	 0.2049545667	-0.169442
H	 0.907067456	 1.7562766575	-0.0595437924	 0.286877
H	 0.5700731606	-0.3814738561	-0.8846070148	 0.08218
H	 0.5592826412	-0.3596772158	 0.8913424337	 0.084502
H	-1.9112930292	-0.0204149319	 0.8393998507	 0.084209
H	-2.0745426295	 0.956274121	-1.4612879045	 0.115621
H	-1.6988246926	-0.6178205056	-2.1493961124	 0.08846
H	-4.1055877702	 0.1499258326	-0.4156033327	 0.103963
H	-4.1729780607	-0.3737140661	-2.0898941726	 0.099206
H	-4.7957598849	-2.1526445644	-0.2451943671	 0.084459
H	-3.5828433296	-4.0589540785	-1.407144983	 0.106237
H	-2.4228243126	-2.8496279391	-2.13657439	 0.101652
H	-0.7021407404	-2.4930549157	-0.4765995314	 0.092681
H	-1.0826408921	-2.2482748769	 1.222427168	 0.102682
77.28	122.6256	182.8211	230.4684	260.1703	315.5547	338.1126	401.3251	430.215	478.8272	516.44	642.6268	749.3202	777.7568	810.5627	895.8088	917.6532	937.6338	956.7843	986.8834	1004.2158	1068.4629	1076.7635	1094.539	1106.0857	1119.7402	1127.5093	1150.2127	1174.2067	1206.4089	1234.876	1248.4481	1272.6129	1298.5386	1320.9196	1327.9379	1340.221	1374.6614	1385.6685	1410.3926	1420.4547	1459.5059	1489.7177	1498.2191	1499.524	1519.0372	1523.1005	2954.9788	2982.8224	2999.5	3007.118	3017.7662	3021.5287	3041.7394	3055.2428	3085.5971	3097.0218	3103.7456	3165.0496	3833.4797
OCC1CCC2CN2C1	OC[C@H]1CC[C@H]2CN2C1	
InChI=1S/C7H13NO/c9-5-6-1-2-7-4-8(7)3-6/h6-7,9H,1-5H2	InChI=1S/C7H13NO/c9-5-6-1-2-7-4-8(7)3-6/h6-7,9H,1-5H2/t6-,7-,8?/m0/s1
