18
gdb 19693	4.66856	1.69764	1.57712	1.1264	71.08	-0.2409	0.0876	0.3285	880.7928	0.154741	-347.742201	-347.735235	-347.734291	-347.773462	27.039	
C	 0.0275742828	 1.2709032981	 0.2549554667	-0.241083
O	 0.0086516185	-0.0609592439	-0.2075478967	-0.250402
C	-1.2525529598	-0.6679979486	-0.0991481537	 0.185852
C	-1.3694168771	-2.0873999096	-0.6104563007	-0.120797
C	-0.9860808241	-3.028530744	 0.5382321408	-0.058648
C	-0.5883625803	-2.1597308364	 1.7304707148	-0.223715
C	-1.7354611788	-1.2146944444	 1.2825985366	-0.120249
C	-2.3663034304	-2.4222400105	 0.4824894828	-0.085846
H	 1.0363880347	 1.6589739444	 0.0950649937	 0.125852
H	-0.6867760085	 1.9024316042	-0.2969787645	 0.102758
H	-0.2108204081	 1.3415231868	 1.3269521838	 0.106128
H	-2.0290374429	-0.027207658	-0.5456164701	 0.060246
H	-1.3727370913	-2.4236582744	-1.6389071983	 0.085498
H	-0.7047046551	-4.0527009845	 0.3294684283	 0.083994
H	-0.8251097862	-2.6529191642	 2.6770121451	 0.093365
H	 0.4212317066	-1.738692603	 1.7597960242	 0.10108
H	-2.2511508969	-0.5717620233	 1.9924998871	 0.06621
H	-3.3577043731	-2.8457554989	 0.43288796	 0.089756
82.5971	171.3694	188.3082	288.5241	379.1314	498.5297	562.6697	733.9898	743.5919	792.0011	801.5915	821.1367	881.2277	934.6014	962.3474	987.3428	993.8847	1019.7685	1029.8295	1036.2323	1060.5271	1077.3006	1135.2368	1158.3241	1162.23	1171.136	1183.9132	1216.1297	1228.1852	1253.5232	1285.3146	1335.405	1367.6425	1394.0981	1480.8117	1487.9642	1491.5432	1508.4908	2971.2986	2984.9196	3019.7034	3049.9108	3107.0638	3113.3615	3137.7034	3194.3757	3203.6238	3235.1347
COC1C2C3CC1C23	CO[C@H]1[C@H]2[C@H]3C[C@@H]1[C@@H]23	
InChI=1S/C7H10O/c1-8-7-4-2-3-5(4)6(3)7/h3-7H,2H2,1H3	InChI=1S/C7H10O/c1-8-7-4-2-3-5(4)6(3)7/h3-7H,2H2,1H3/t3-,4+,5-,6-,7+/m0/s1
