23
gdb 88685	3.04982	0.94491	0.87434	1.6865	87.71	-0.2491	0.0868	0.3359	1490.4166	0.20329	-388.270211	-388.259925	-388.258981	-388.305799	38.381	
C	-0.0351093244	 1.4666996296	-0.1863617917	-0.419672
C	-0.1077870122	-0.0039746473	 0.1360246498	 0.068671
O	 1.1064508832	-0.7586363715	 0.06235973	-0.27186
C	 0.45981222	-0.6377609013	 1.3409912129	 0.054242
C	 1.1873997177	 0.0906739173	 2.4182303683	-0.062581
C	 0.7302305376	-0.0325527889	 3.8595891714	-0.341629
C	 2.0551722507	-0.6225454267	 3.4436317261	 0.342997
C	 2.2032707355	-2.1322864156	 3.4036190127	-0.453047
C	 3.3160681084	 0.1016376225	 3.8787110985	-0.447069
H	 0.83182205	 1.943362949	 0.2749579788	 0.129047
H	 0.0397094554	 1.6101109149	-1.2695099573	 0.127921
H	-0.9410797966	 1.9781437098	 0.1568351688	 0.121076
H	-0.9615694661	-0.5139194949	-0.317942921	 0.082325
H	-0.0241780835	-1.5607823213	 1.6650085188	 0.081768
H	 1.5557045002	 1.0675798358	 2.1224266466	 0.079386
H	 0.719431806	 0.8636244905	 4.471159254	 0.107757
H	-0.0862425559	-0.7179921709	 4.0671312564	 0.106787
H	 1.269875153	-2.6387662681	 3.1459391329	 0.113752
H	 2.9597582509	-2.434965091	 2.6707049399	 0.124685
H	 2.5197730582	-2.5092526348	 4.383247071	 0.112339
H	 3.6206575803	-0.2101835682	 4.8849903824	 0.11304
H	 4.1479711247	-0.1134678948	 3.1980595366	 0.119583
H	 3.1704787972	 1.1863782156	 3.8962371541	 0.110481
33.3718	111.2538	138.249	160.999	198.5693	231.597	244.6728	348.5205	353.2753	369.0836	398.3274	428.8724	476.5271	548.3796	707.2386	768.6516	818.131	860.2558	885.404	919.6673	960.6863	972.1027	975.2023	1000.8604	1034.8328	1065.0619	1079.9019	1092.6497	1114.6488	1149.1833	1158.213	1173.0739	1214.9251	1264.2353	1306.7556	1331.324	1359.8833	1405.8573	1412.858	1424.5746	1430.2728	1471.3483	1482.0965	1488.0732	1492.6499	1493.318	1501.7714	1509.2854	1522.8378	3019.9608	3028.2859	3038.4227	3068.1902	3080.8544	3084.9617	3092.	3097.4325	3098.4826	3114.9915	3122.5666	3132.8485	3159.54	3205.7236
CC1OC1C1CC1(C)C	C[C@H]1O[C@H]1[C@H]1CC1(C)C	
InChI=1S/C8H14O/c1-5-7(9-5)6-4-8(6,2)3/h5-7H,4H2,1-3H3	InChI=1S/C8H14O/c1-5-7(9-5)6-4-8(6,2)3/h5-7H,4H2,1-3H3/t5-,6-,7-/m1/s1
