25
gdb 86196	2.26571	1.36137	1.05957	1.3513	87.67	-0.2558	0.0623	0.318	1295.4196	0.228964	-389.512592	-389.502348	-389.501404	-389.547148	39.684	
C	-0.3836521442	 1.4848062914	 0.0075216221	-0.414526
C	 0.0077277243	 0.0094028868	 0.0672115975	 0.038498
C	 0.7253550179	-0.5138564786	-1.192664621	-0.219119
C	 1.3947564841	-1.8481517635	-0.7741478316	-0.01464
C	 2.7965872642	-2.0281303094	-1.3636509505	-0.389722
C	 1.3489353999	-1.8395633059	 0.7987365523	 0.105893
O	 2.5504780419	-2.2303609352	 1.4452309093	-0.429455
C	 0.960246911	-0.4035844911	 1.2157990703	-0.010827
C	 2.1726440288	 0.5197685642	 1.3982660069	-0.396241
H	 0.4871914064	 2.1257223691	-0.1635933083	 0.116637
H	-1.090638065	 1.6665863483	-0.809243839	 0.109121
H	-0.8620735361	 1.8110361295	 0.9376170044	 0.109578
H	-0.9144993608	-0.5767892314	 0.1934492687	 0.065199
H	 0.0443269776	-0.6314908052	-2.0414449473	 0.088812
H	 1.491411327	 0.2068265738	-1.506190116	 0.092786
H	 0.7760316033	-2.6825449967	-1.1257713636	 0.062095
H	 3.4815768593	-1.2494764725	-1.0162312621	 0.126725
H	 3.2361206035	-2.9939075524	-1.0928608725	 0.094621
H	 2.7556096138	-1.9824705247	-2.4572103235	 0.108502
H	 0.5347872606	-2.5088810688	 1.1166300009	 0.060468
H	 2.704697139	-3.1609330794	 1.2582323943	 0.281653
H	 0.4184669501	-0.4332748899	 2.1684926584	 0.06259
H	 2.7282479522	 0.6713534106	 0.4673226022	 0.112155
H	 1.8577212566	 1.5025773538	 1.7611606849	 0.106399
H	 2.8647486144	 0.0919576271	 2.126052063	 0.132799
56.4677	130.4024	220.4273	226.	235.5848	245.8893	271.1819	286.2578	296.7562	315.2166	386.2435	448.2829	493.0881	523.1571	559.7832	709.661	748.1575	794.7323	859.9128	884.2114	937.0425	940.3628	985.1358	1034.8485	1036.5483	1052.6718	1078.8552	1082.2525	1111.4318	1158.4201	1161.7047	1186.8358	1217.3278	1259.2432	1272.6371	1295.7227	1324.8276	1339.2258	1356.5878	1369.5661	1382.7299	1386.3598	1404.1971	1409.7617	1414.4912	1436.4121	1489.8671	1492.381	1495.5079	1496.5726	1502.6269	1506.8364	1512.7058	2963.5442	2987.894	3019.8658	3026.3288	3029.0176	3033.0862	3034.8906	3045.315	3076.0074	3091.6044	3093.0017	3099.6784	3106.3052	3113.1683	3131.8746	3828.6898
CC1CC(C)C(O)C1C	C[C@H]1C[C@@H](C)[C@@H](O)[C@H]1C	
InChI=1S/C8H16O/c1-5-4-6(2)8(9)7(5)3/h5-9H,4H2,1-3H3	InChI=1S/C8H16O/c1-5-4-6(2)8(9)7(5)3/h5-9H,4H2,1-3H3/t5-,6+,7-,8+/m0/s1
