19
gdb 71320	3.69677	1.42642	1.25789	3.2783	79.07	-0.2336	-0.0135	0.2201	1045.953	0.159884	-385.876068	-385.868545	-385.867601	-385.907711	30.331	
C	-0.0634727483	 1.5182886247	-0.0722996326	-0.499497
C	 0.0122375873	 0.0119520591	 0.0222076825	 0.357746
C	-1.3017213532	-0.7676832216	 0.3064900916	-0.283234
C	-0.5399962523	-1.7585409501	 1.2357865808	-0.165049
C	 0.7085726989	-0.7950844996	 1.1844055357	-0.094312
C	 1.3761251839	-1.7331232301	 0.1053927823	-0.165051
C	 0.9116042017	-0.7383264913	-0.9992422447	-0.283231
C	 0.2924696176	-2.7652485072	 0.4347717295	 0.426481
O	 0.2120437339	-3.9499574899	 0.2718047659	-0.320376
H	 0.9352601429	 1.9672309936	-0.1119543819	 0.115718
H	-0.6014292839	 1.8268725663	-0.9775207469	 0.12086
H	-0.590060729	 1.9470189839	 0.7876325506	 0.115716
H	-1.9885060198	-0.1569676736	 0.9001728791	 0.107187
H	-1.8511414006	-1.1844995362	-0.5436462841	 0.104807
H	-1.0434033275	-2.1192429875	 2.1326014673	 0.088314
H	 1.2155708677	-0.384265213	 2.0530553174	 0.07361
H	 2.4114448111	-2.0734097092	 0.0944478027	 0.088314
H	 0.4414239371	-1.1540950649	-1.8961240896	 0.104807
H	 1.7511720526	-0.1073623736	-1.3060255153	 0.107188
114.8529	197.7088	223.7794	264.2225	365.5164	379.7433	437.5613	486.2977	593.1993	646.0973	737.258	786.4773	818.7838	846.2571	878.7952	890.4821	921.9381	925.388	955.2012	981.3429	993.3178	1020.0684	1059.3721	1116.9429	1121.4514	1138.727	1157.3946	1180.7534	1209.7956	1223.7637	1244.5987	1258.8618	1263.9108	1285.822	1346.7245	1413.7771	1479.2266	1491.358	1491.754	1498.7983	1877.8764	3017.8981	3041.4708	3045.2492	3081.287	3089.4276	3095.4693	3096.5238	3115.7916	3116.1262	3156.3964
CC12CC3C1C(C2)C3=O	C[C@]12C[C@@H]3[C@H]1[C@H](C2)C3=O	
InChI=1S/C8H10O/c1-8-2-4-6(8)5(3-8)7(4)9/h4-6H,2-3H2,1H3	InChI=1S/C8H10O/c1-8-2-4-6(8)5(3-8)7(4)9/h4-6H,2-3H2,1H3/t4-,5+,6+,8-
