18
gdb 78657	2.50698	1.73288	1.40164	2.0037	70.85	-0.2539	0.0471	0.301	992.033	0.148072	-439.03154	-439.023589	-439.022645	-439.063494	31.487	
C	-0.0592119443	 1.4671532395	-0.0496711958	-0.511474
C	 0.0824956211	-0.0177448373	 0.0746477183	 0.284552
C	 0.8669487704	-0.8431618139	-0.8940816518	-0.111667
C	 1.0651203569	-2.2261144107	-0.3311004936	 0.109942
O	 2.1966730423	-2.4072822864	 0.5111945502	-0.440888
C	-0.341524894	-2.0364042736	 0.2789648812	-0.127552
C	-0.212018306	-0.8844692842	 1.2987170043	 0.114155
O	 0.6615028161	-0.9688855705	 2.3850618698	-0.44899
N	-0.6408665688	-0.9851932813	-0.8334640529	-0.203198
H	 0.7421216834	 1.9746807306	 0.4979201571	 0.133029
H	-0.0107634905	 1.7818960621	-1.0965544246	 0.128194
H	-1.0170590005	 1.8021389848	 0.3610317116	 0.128494
H	 1.3568403305	-0.4041538804	-1.7555316623	 0.097276
H	 1.0488712449	-2.9731816207	-1.1330518331	 0.093987
H	 2.2666370603	-3.3406831258	 0.738070837	 0.293045
H	-1.0187356525	-2.8749136174	 0.4292889142	 0.07952
H	-1.1980675968	-0.6182841619	 1.6925405878	 0.09487
H	 1.4914251276	-1.329075143	 2.0400196027	 0.286705
160.0196	173.6108	223.2288	233.0451	308.9328	314.4591	370.7751	421.8868	578.0811	589.449	632.8805	642.755	742.7409	763.5927	795.509	847.2743	886.8009	941.0734	980.6189	996.2186	1022.2233	1038.5805	1084.9057	1106.021	1138.2983	1165.3725	1186.5933	1210.9457	1251.0273	1274.7556	1300.9763	1327.2736	1343.8489	1406.5542	1423.1908	1436.8281	1478.8099	1483.9784	1493.1018	3034.562	3043.6878	3069.6326	3102.1278	3109.764	3138.2693	3186.0712	3721.4892	3814.3137
CC12C3C(O)C(C1O)N23	C[C@@]12[C@H]3[C@@H](O)[C@@H]([C@H]1O)N23	
InChI=1S/C6H9NO2/c1-6-4-3(8)2(5(6)9)7(4)6/h2-5,8-9H,1H3	InChI=1S/C6H9NO2/c1-6-4-3(8)2(5(6)9)7(4)6/h2-5,8-9H,1H3/t2-,3-,4+,5+,6+,7?/m0/s1
