18
gdb 6454	3.55377	1.51656	1.31056	2.1106	68.64	-0.24	-0.0273	0.2127	1006.6836	0.15084	-384.944415	-384.935633	-384.934689	-384.978101	31.563	
C	-0.5536380563	 1.0894898114	 0.9262364878	-0.39867
C	 0.2600790605	-0.0690533068	 0.3913063569	 0.165586
C	 0.7072043654	-0.0423909524	-1.0865130306	-0.354102
C	 2.132954939	-0.1554085488	-0.5189255211	 0.343802
C	 3.1608090588	 0.9063351933	-0.8721061316	-0.457139
O	 1.6461917265	-0.023578355	 0.8465102693	-0.344641
C	 2.7401174454	-1.5494442161	-0.6327031724	 0.123509
O	 2.4278395244	-2.3806431024	-1.4448101985	-0.249198
H	-0.1136838609	 2.0459976179	 0.6278207572	 0.118537
H	-1.5789515674	 1.041366588	 0.5432250989	 0.120361
H	-0.5956985678	 1.0564132458	 2.0194257015	 0.129856
H	-0.1972408318	-1.0231271889	 0.6848809959	 0.084506
H	 0.3987110411	-0.8779335701	-1.7146552702	 0.131932
H	 0.5055629	 0.9032825065	-1.5942996879	 0.104954
H	 2.7504130534	 1.9009841004	-0.6780398883	 0.129528
H	 4.0666622946	 0.786982929	-0.2679455824	 0.130088
H	 3.4373047865	 0.8362162909	-1.9295516933	 0.133119
H	 3.5058646185	-1.7497685928	 0.1510525787	 0.087973
48.0098	84.6002	197.4639	207.5724	225.8917	292.2189	326.5022	335.9422	371.3328	466.7515	566.1799	659.1572	782.2696	863.347	898.2662	912.8121	919.4794	940.9322	997.5249	1011.7729	1066.6766	1113.9341	1146.3848	1194.3659	1223.0398	1261.4104	1282.6845	1316.8091	1387.8949	1397.1389	1407.7035	1411.1389	1478.0087	1482.1004	1486.4066	1489.3062	1496.0934	1832.4712	2880.258	3014.7543	3032.9921	3033.9657	3078.276	3105.3632	3106.7682	3113.3752	3118.3793	3145.3376
CC1CC(C)(O1)C=O	C[C@H]1C[C@@](C)(O1)C=O	
InChI=1S/C6H10O2/c1-5-3-6(2,4-7)8-5/h4-5H,3H2,1-2H3	InChI=1S/C6H10O2/c1-5-3-6(2,4-7)8-5/h4-5H,3H2,1-2H3/t5-,6+/m0/s1
