25
gdb 96545	2.19386	1.38619	0.9948	1.4358	88.25	-0.256	0.0739	0.3299	1321.3512	0.231075	-389.510918	-389.501429	-389.500485	-389.544573	37.648	
C	-0.0475197413	 1.5975414575	 0.0631852787	-0.406286
C	 0.0449069759	 0.0650186343	 0.0154341769	 0.054016
C	 0.6289731124	-0.4366842	-1.323777877	-0.197542
C	 0.0207595075	-1.7662144027	-1.8014319253	-0.191712
C	 0.3863625872	-3.0146286233	-0.9850215268	-0.176053
C	 0.1669699869	-2.9233671404	 0.5351462488	-0.201639
C	 1.1479490611	-1.9647017181	 1.2327202341	-0.226121
C	 0.7843737361	-0.4659388504	 1.2572492158	 0.124655
O	 1.9767643766	 0.3077570562	 1.4094975907	-0.43496
H	 0.9386820809	 2.0529934915	-0.0533309141	 0.133523
H	-0.6967877869	 1.9659901107	-0.7376509732	 0.10021
H	-0.4598052702	 1.942345032	 1.0177661151	 0.103641
H	-0.980631813	-0.3217050407	 0.0900629894	 0.065393
H	 0.4315532623	 0.3181355825	-2.0939897969	 0.087024
H	 1.7210065609	-0.5094869348	-1.2499887232	 0.102217
H	-1.0727913643	-1.6548067138	-1.8154102456	 0.08972
H	 0.3164214829	-1.9425699757	-2.8432045597	 0.088282
H	-0.1866990701	-3.8633567068	-1.3785866876	 0.088191
H	 1.4438215296	-3.258880194	-1.1579539631	 0.092449
H	-0.8718874969	-2.647561867	 0.7596714024	 0.094344
H	 0.3054851839	-3.9257071097	 0.9569958243	 0.091148
H	 1.3000926108	-2.2866998348	 2.2713728527	 0.082469
H	 2.1258181265	-2.0510597475	 0.7425642171	 0.101701
H	 0.1219158661	-0.2800270532	 2.1201362049	 0.056454
H	 2.4666338751	-0.0507664319	 2.1560503916	 0.278877
86.68	138.5567	226.8816	246.1977	262.3594	282.2017	299.816	309.687	344.5319	377.7862	439.2963	502.2344	520.8282	615.265	723.1057	799.956	826.0006	852.3101	880.3239	935.0015	971.9973	980.202	989.9208	1016.3339	1050.0402	1077.1923	1085.4729	1106.5261	1131.201	1167.8065	1194.3181	1220.8842	1236.1147	1266.1208	1291.8154	1305.5336	1337.803	1348.4604	1358.8737	1376.3035	1386.9043	1390.8262	1394.1597	1397.9491	1408.5332	1443.2849	1482.9128	1486.9544	1488.8597	1495.4253	1496.5484	1501.4681	1508.7757	2941.0429	3001.8222	3006.436	3007.1881	3010.4738	3020.7413	3025.8401	3034.6656	3046.5586	3050.5594	3054.3635	3058.7132	3067.0136	3095.5917	3125.7935	3818.8372
CC1CCCCCC1O	C[C@H]1CCCCC[C@H]1O	
InChI=1S/C8H16O/c1-7-5-3-2-4-6-8(7)9/h7-9H,2-6H2,1H3	InChI=1S/C8H16O/c1-7-5-3-2-4-6-8(7)9/h7-9H,2-6H2,1H3/t7-,8+/m0/s1
