16
gdb 62208	2.26802	0.99062	0.98471	3.9353	70.43	-0.2764	0.0031	0.2795	1321.038	0.121103	-437.833168	-437.823208	-437.822264	-437.869893	34.41	
O	 0.3419451243	 1.7519160581	 0.0711194518	-0.407565
C	 0.1814029244	 0.5398504279	-0.6405936254	-0.02283
C	 1.4276238097	 0.2420228701	-1.5056687754	-0.099322
O	 1.31393131	-0.9606288262	-2.2330361241	-0.224765
C	 0.8999328406	-0.8313520609	-3.5840370261	-0.222329
C	-0.4926168251	-0.4136488449	-3.7661251713	 0.301409
C	-1.6330076413	-0.0688970271	-3.927374585	-0.446451
C	-0.1122239366	-0.5874020196	 0.2646366463	 0.257836
N	-0.3142189563	-1.4425156971	 1.014926444	-0.316713
H	 1.0038351728	 1.617071218	 0.7594314678	 0.298356
H	-0.6796065207	 0.6822158793	-1.298531083	 0.153839
H	 1.5915386477	 1.1090977974	-2.1584223645	 0.117961
H	 2.297991908	 0.1399405914	-0.8459169206	 0.115522
H	 1.5616087083	-0.1330534248	-4.1198753269	 0.129109
H	 1.0453487097	-1.8224289316	-4.0256338154	 0.152873
H	-2.6435122456	 0.2257335801	-4.0730652223	 0.213072
15.2716	75.0995	87.6605	162.958	202.6597	236.7864	276.0565	319.9833	330.2279	369.9594	446.6359	568.4095	580.8057	612.0038	626.4954	691.0124	802.4996	908.8851	966.567	1010.7534	1053.7174	1064.9658	1101.2895	1137.7624	1257.8308	1274.0648	1314.2887	1341.4618	1390.2037	1405.9311	1421.2558	1473.505	1491.3164	2231.7761	2357.2316	2987.8535	3016.2612	3067.5155	3078.3266	3101.3357	3499.7563	3799.7605
OC(COCC#C)C#N	O[C@@H](COCC#C)C#N	
InChI=1S/C6H7NO2/c1-2-3-9-5-6(8)4-7/h1,6,8H,3,5H2	InChI=1S/C6H7NO2/c1-2-3-9-5-6(8)4-7/h1,6,8H,3,5H2/t6-/m1/s1
