19
gdb 83747	2.56338	1.72104	1.39317	2.7284	73.97	-0.2516	0.068	0.3196	999.9556	0.160353	-422.9988	-422.991096	-422.990152	-423.030874	30.94	
O	-0.0746860727	 1.4143529058	 0.0978888422	-0.426492
C	-0.0638699258	 0.0228789566	 0.0438734609	 0.113739
C	-0.4404935733	-0.7757610097	 1.264362764	-0.087544
C	-1.1363963793	-0.0054898001	 2.3925524029	-0.239749
C	-2.6120230035	 0.1416127864	 1.9445333161	-0.275735
C	-2.5821054279	 0.0219673894	 0.4253562598	 0.431309
C	-3.7599445826	 0.1368147718	-0.4380259346	-0.253768
O	-2.8460242906	 1.2320557497	-0.3358052647	-0.294204
C	-1.3543495572	-0.7643274279	 0.0426679937	-0.212077
H	-0.8488594913	 1.7202310872	-0.3915015824	 0.307996
H	 0.7388053115	-0.3837431804	-0.5703534303	 0.087977
H	 0.1497626983	-1.6517857178	 1.5076271336	 0.086306
H	-1.0544952155	-0.5381536728	 3.3425366484	 0.097191
H	-0.6704363188	 0.9761257927	 2.515331824	 0.127107
H	-3.2033867822	-0.6892067174	 2.3477734332	 0.106435
H	-3.0842105704	 1.0751757185	 2.2612915533	 0.113076
H	-3.7777059414	-0.3729003473	-1.4010427261	 0.114714
H	-4.7395367185	 0.3140145874	 0.0051383985	 0.114776
H	-1.4580183386	-1.6112959222	-0.6260529622	 0.088944
75.4489	180.1852	239.5709	296.147	355.6527	380.1055	410.9045	500.3097	553.6833	629.5297	666.3532	733.0449	770.949	790.5881	824.1825	855.7955	908.416	943.4555	979.1587	997.7236	1025.2271	1044.1029	1046.2243	1099.9603	1113.7654	1126.5342	1164.7106	1197.1806	1219.4646	1220.4455	1243.4902	1312.9278	1316.7445	1330.839	1352.8739	1371.1845	1413.8189	1430.0366	1472.0635	1493.4838	1530.3703	3036.0921	3064.8165	3076.8658	3098.3364	3106.0539	3113.1523	3160.6399	3166.7759	3177.3545	3769.9588
OC1C2CCC3(CO3)C12	O[C@H]1[C@H]2CC[C@]3(CO3)[C@@H]12	
InChI=1S/C7H10O2/c8-6-4-1-2-7(3-9-7)5(4)6/h4-6,8H,1-3H2	InChI=1S/C7H10O2/c8-6-4-1-2-7(3-9-7)5(4)6/h4-6,8H,1-3H2/t4-,5+,6-,7-/m0/s1
