21
gdb 104913	2.10202	1.46469	1.01091	3.1333	84.36	-0.2599	0.0193	0.2792	1271.3915	0.180588	-383.278426	-383.268033	-383.267089	-383.313444	38.088	
C	-0.0137715099	 1.5055613726	-0.4086334919	-0.389892
C	-0.0194011222	 0.1326072364	 0.27186304	-0.250554
C	-1.3890437835	-0.5357438182	 0.2223481193	 0.136308
N	-1.7994477275	-1.1093952667	-1.0844709808	-0.388678
C	-1.6138671064	-2.0239062685	 0.0514332866	 0.26085
C	-0.4283314815	-2.9636794418	-0.0632061902	-0.441209
C	-2.8371746671	-2.6680637292	 0.676193469	-0.47318
C	-2.3988211033	 0.1921884096	 0.9649530568	 0.258796
N	-3.1882492648	 0.800733883	 1.5536610626	-0.360233
H	 0.9860072676	 1.9474925448	-0.3748171727	 0.117464
H	-0.3116673301	 1.41282941	-1.4572157567	 0.1336
H	-0.7045823567	 2.1975005104	 0.0829706617	 0.138153
H	 0.7038891534	-0.5218866857	-0.2179036603	 0.112939
H	 0.2878130146	 0.2252367306	 1.3201959965	 0.113491
H	-2.7883364709	-0.9371932395	-1.2539121771	 0.241995
H	 0.3775962225	-2.5350803136	-0.6586685477	 0.135994
H	-0.0404477527	-3.2264191323	 0.9264358533	 0.124992
H	-0.7445289796	-3.8900348246	-0.5550055809	 0.125925
H	-3.1853317212	-3.4904445456	 0.0414008037	 0.126361
H	-2.5966776217	-3.0876407338	 1.6586014974	 0.133294
H	-3.6585020388	-1.9598739979	 0.8069751512	 0.143585
72.6181	119.3107	149.5199	152.7495	185.6263	217.1406	221.1926	283.9236	323.8301	375.4737	388.1146	419.9002	487.2665	579.9498	601.1981	658.0359	730.7294	787.2007	847.505	939.3922	958.0013	964.4232	1002.1894	1048.2109	1070.4215	1088.9579	1107.3203	1146.7692	1172.6124	1252.3266	1304.5001	1329.7873	1358.3638	1394.0226	1411.0212	1416.4843	1425.9714	1472.9251	1480.2567	1488.3398	1498.0146	1501.3481	1507.3234	1511.8616	2338.529	3034.8973	3041.6278	3042.6181	3046.4444	3096.4925	3101.4663	3103.5424	3117.1305	3123.9224	3126.1482	3150.5397	3493.6355
CCC1(NC1(C)C)C#N	CC[C@]1(NC1(C)C)C#N	
InChI=1S/C7H12N2/c1-4-7(5-8)6(2,3)9-7/h9H,4H2,1-3H3	InChI=1S/C7H12N2/c1-4-7(5-8)6(2,3)9-7/h9H,4H2,1-3H3/t7-/m0/s1
