23
gdb 113001	2.45025	1.02721	0.91538	3.0126	86.3	-0.243	-0.0208	0.2223	1435.132	0.204057	-388.297109	-388.286851	-388.285907	-388.332979	37.427	
C	-0.5409671268	 1.3722327303	 0.1978318289	-0.384453
C	-0.3329902111	-0.1451645969	 0.2468037105	-0.189236
C	 0.8555771871	-0.5476405341	 1.1210502559	 0.02158
C	 0.6196348922	-0.4303878715	 2.6562297503	-0.262033
C	 0.5991334654	-1.9839661932	 2.7972133525	-0.097361
C	-0.7695661574	-2.5637563167	 3.0311116314	 0.159195
O	-0.9997157983	-3.5177432773	 3.7311184009	-0.25857
C	 1.1221412357	-2.0793849185	 1.3113161269	 0.002458
C	 0.5174882601	-3.1050452874	 0.3594187582	-0.418801
H	 0.3408399257	 1.8765702079	-0.2126511808	 0.115788
H	-1.3985049477	 1.6349980414	-0.4289557244	 0.114607
H	-0.7216466938	 1.7852876672	 1.1960692622	 0.119082
H	-1.2513664374	-0.6248865216	 0.6103665022	 0.096238
H	-0.1766241808	-0.5232731442	-0.7712575012	 0.098767
H	 1.7382971024	-0.0036016568	 0.7675276087	 0.065935
H	 1.4481203804	 0.0246931388	 3.2024976864	 0.109357
H	-0.3027111403	 0.0786609294	 2.9545971297	 0.102526
H	 1.2712421251	-2.4174851687	 3.540416187	 0.087808
H	-1.6009795292	-2.0392091019	 2.5019742416	 0.068251
H	 2.2024779396	-2.2479425377	 1.359904311	 0.084144
H	-0.5611767856	-2.9772799128	 0.23112801	 0.12018
H	 0.9784525995	-3.0345752295	-0.6317090738	 0.117185
H	 0.6869770349	-4.1209267462	 0.731864616	 0.127355
51.74	56.2965	118.4206	170.8407	216.1248	221.1026	230.4222	284.5548	304.989	386.1822	425.1935	443.7759	522.4429	691.9279	769.8152	795.3908	835.3885	856.3846	919.7116	952.8017	967.2018	978.4291	1018.1157	1033.6775	1058.4943	1087.1819	1127.7188	1148.1055	1173.5264	1185.3082	1229.1505	1262.447	1267.0026	1278.1113	1297.8015	1328.9094	1340.5809	1365.5613	1392.0597	1411.1713	1414.6198	1436.3134	1478.1676	1487.7843	1496.491	1499.9029	1500.7004	1507.5129	1822.7523	2842.8528	3014.1265	3030.2131	3032.6179	3034.5765	3047.5708	3051.2918	3055.3307	3090.549	3096.9082	3098.4446	3104.6714	3109.506	3113.5231
CCC1CC(C=O)C1C	CC[C@H]1C[C@@H](C=O)[C@H]1C	
InChI=1S/C8H14O/c1-3-7-4-8(5-9)6(7)2/h5-8H,3-4H2,1-2H3	InChI=1S/C8H14O/c1-3-7-4-8(5-9)6(7)2/h5-8H,3-4H2,1-2H3/t6-,7-,8-/m0/s1
