14
gdb 68500	3.18907	1.32793	1.1436	2.2239	67.35	-0.2624	-0.0211	0.2413	1043.4207	0.100183	-436.658905	-436.651064	-436.650119	-436.69133	29.026	
O	 0.2225743758	 1.3520989774	 0.2974818528	-0.44703
C	 0.1593342999	 0.0061752555	 0.1251483002	 0.283168
C	 0.7574291677	-1.0660566832	 1.0925981361	-0.293986
C	 0.0658414355	-1.9313449544	-0.0195746948	-0.180147
C	-1.1459762252	-0.9356254142	 0.048663399	-0.230181
C	-1.9896054753	-0.9842948554	 1.2264904757	 0.281085
N	-2.6839665436	-1.0164691822	 2.1509336942	-0.326745
C	 0.6801357186	-0.9123013267	-0.9969585688	 0.371373
O	 1.2577467715	-0.84716011	-2.0349441678	-0.312456
H	 0.214221589	 1.7837493824	-0.5653811581	 0.309408
H	 1.8442971748	-1.1169378928	 1.1594805562	 0.130551
H	 0.2778547287	-1.1153119952	 2.0704103016	 0.155286
H	 0.0040442939	-3.0114026367	-0.0835388232	 0.126085
H	-1.7527481314	-0.8507159846	-0.8551332431	 0.13359
125.9212	130.1007	169.2406	217.4695	267.2052	359.4116	442.4022	470.1428	535.5882	604.5997	648.4128	743.8608	774.2685	787.4377	806.4885	911.8503	937.4071	988.9054	1032.1889	1074.7976	1095.6858	1100.9776	1141.7562	1172.282	1210.2735	1305.8028	1356.1189	1417.2075	1520.6531	1927.62	2351.0392	3088.9719	3097.3535	3164.7936	3201.3958	3795.4844
OC12CC(C1C#N)C2=O	O[C@@]12C[C@@H]([C@H]1C#N)C2=O	
InChI=1S/C6H5NO2/c7-2-4-3-1-6(4,9)5(3)8/h3-4,9H,1H2	InChI=1S/C6H5NO2/c7-2-4-3-1-6(4,9)5(3)8/h3-4,9H,1H2/t3-,4+,6-/m0/s1
