22
gdb 102479	1.95224	1.30365	0.87354	2.2589	80.5	-0.2324	0.0641	0.2965	1432.1386	0.192294	-441.532554	-441.521349	-441.520405	-441.57	38.507	
C	-0.07519642	 1.5576538975	-0.0039524403	-0.373565
C	 0.0020873803	 0.0283973221	-0.037991562	-0.153652
N	 0.6805868037	-0.4915069523	-1.2232496963	-0.141359
C	 2.1213770555	-0.7303226904	-1.1678627145	-0.154156
C	 2.480298333	-2.1387042657	-0.687798612	-0.374255
C	 0.038063442	-0.7539875965	-2.3956099127	 0.524163
O	 0.5611111994	-1.2068849743	-3.3941903677	-0.435691
O	-1.2848579789	-0.4408241729	-2.3206410982	-0.265399
C	-2.024357909	-0.7181593437	-3.5106747733	-0.232185
H	 0.9221032954	 2.0068420254	-0.0487295754	 0.118726
H	-0.6572559624	 1.9266009491	-0.8524597992	 0.132714
H	-0.5579800456	 1.8959346658	 0.9187916152	 0.113817
H	 0.5468225923	-0.3409357549	 0.8377395378	 0.10474
H	-1.0018426891	-0.3969572171	 0.0073379445	 0.129115
H	 2.5231626603	-0.5680664502	-2.169745805	 0.138624
H	 2.560306565	 0.0243433286	-0.5056440429	 0.100677
H	 2.0775401414	-2.3385139535	 0.3107205629	 0.113495
H	 2.0782399151	-2.8840070399	-1.3790849047	 0.140203
H	 3.5674480301	-2.2609308091	-0.6434437278	 0.114451
H	-1.6266007302	-0.1538837189	-4.3579517206	 0.137749
H	-1.9885110932	-1.7832368652	-3.7544762304	 0.136284
H	-3.0497254553	-0.4125792139	-3.2983552374	 0.125505
49.6727	71.3094	90.6619	94.1775	113.8993	162.0901	207.6242	224.7414	268.4641	321.6838	360.5408	393.4944	452.0515	554.0172	608.9739	773.2586	777.875	789.0659	811.104	925.5681	953.7666	1024.1027	1090.955	1095.5615	1112.6707	1116.4203	1183.2471	1204.3632	1211.1541	1256.2611	1305.5873	1348.4029	1384.222	1401.5444	1409.6665	1413.5044	1442.506	1473.3468	1475.2143	1479.7108	1490.0568	1492.9275	1498.1275	1503.2542	1504.1615	1518.3332	1790.9879	3036.5562	3038.4556	3041.0969	3048.4408	3050.9357	3098.4832	3100.9814	3115.8097	3116.7332	3122.0378	3128.2418	3129.6293	3149.4133
CCN(CC)C(=O)OC	CCN(CC)C(=O)OC	
InChI=1S/C6H13NO2/c1-4-7(5-2)6(8)9-3/h4-5H2,1-3H3	InChI=1S/C6H13NO2/c1-4-7(5-2)6(8)9-3/h4-5H2,1-3H3
