14
gdb 44118	2.65592	1.69764	1.36131	3.8123	68.08	-0.2531	0.0286	0.2817	951.4454	0.100496	-436.641052	-436.63374	-436.632796	-436.673079	27.962	
N	-0.0821224102	 0.9406292062	-0.6952692955	-0.564578
C	-0.0089462245	-0.1182337422	-0.0309246271	 0.489875
O	 1.1317934364	-0.7667884168	 0.383058247	-0.24328
C	 0.773048195	-1.9278282946	 1.0847726832	 0.036258
C	-0.7145901077	-1.9477078125	 1.084651861	 0.047024
O	-1.1134330772	-0.7989047909	 0.389410174	-0.217487
C	 0.0445094048	-3.0147255985	 0.2898325447	-0.321474
C	 0.047692583	-3.0390651099	-1.1388629338	 0.332657
C	 0.050262349	-3.0498376291	-2.3405864174	-0.405436
H	 0.8476577031	 1.2905615488	-0.9108409306	 0.238226
H	 1.4311381582	-2.161908354	 1.9110900865	 0.134121
H	-1.3650215359	-2.2044641552	 1.9100613495	 0.136235
H	 0.0561724206	-3.982173333	 0.7867996046	 0.131324
H	 0.0476513853	-3.0543490682	-3.4024798362	 0.206535
85.7379	136.1964	168.462	324.5492	364.5278	464.6837	596.8911	622.3542	639.7959	673.3431	708.4058	715.3824	765.1869	782.4362	791.0873	798.6025	893.1653	953.0331	994.5255	1033.0682	1050.942	1087.2756	1111.1424	1145.2308	1196.9039	1224.8855	1348.0637	1370.1274	1407.2479	1812.9786	2244.5748	3138.2115	3201.4371	3210.3717	3503.9448	3547.9422
N=C1OC2C(O1)C2C#C	[NH][C]1O[C@H]2[C@@H](O1)[C@H]2C#C	
InChI=1S/C6H5NO2/c1-2-3-4-5(3)9-6(7)8-4/h1,3-5,7H	InChI=1S/C6H5NO2/c1-2-3-4-5(3)9-6(7)8-4/h1,3-5,7H/t3-,4+,5-
