16
gdb 10805	4.88245	1.49657	1.17022	4.5181	67.8	-0.2555	0.0083	0.2638	998.3994	0.130348	-383.790371	-383.782539	-383.781594	-383.824766	27.745	
C	-0.090967463	 1.5511614804	 0.0620593701	-0.477171
C	-0.032598066	 0.0529249497	-0.0403888661	 0.267679
C	-0.0306685637	-0.6175954603	-1.1878985017	-0.155273
C	 0.0222932734	-2.1115076475	-1.2496106051	-0.399979
C	 0.1219141375	-2.8285271449	 0.0866916915	 0.407356
O	 0.2004398331	-4.0239194479	 0.1668487176	-0.324829
O	 0.1257471592	-2.0970535203	 1.2238186322	-0.229075
C	 0.0210293247	-0.6715467836	 1.2714583482	-0.129069
H	 0.7883665144	 1.9506321045	 0.5830292287	 0.131109
H	-0.1381006287	 2.0124126348	-0.9271277991	 0.131954
H	-0.9692900667	 1.878818336	 0.6326232069	 0.130729
H	-0.0713634205	-0.0830076714	-2.1338532241	 0.093067
H	-0.8608916113	-2.5216538067	-1.7571083378	 0.149841
H	 0.8730891163	-2.458139365	-1.8500653705	 0.149842
H	 0.8790386977	-0.3193544469	 1.8607909523	 0.127075
H	-0.8753447664	-0.4411017909	 1.8649783869	 0.126744
8.2665	90.9626	165.7447	241.1748	303.2334	427.2202	428.0408	467.7155	564.6834	581.0238	731.3779	769.4857	820.1909	926.0062	960.7063	978.0318	1004.3927	1076.8659	1089.798	1105.6325	1192.6431	1209.9788	1214.6552	1269.507	1347.5369	1378.2347	1415.9656	1435.3635	1453.0958	1479.1708	1491.	1504.4933	1772.5819	1843.3531	3002.1317	3020.3212	3026.5541	3028.004	3049.8416	3066.3853	3120.2561	3154.6106
CC1=CCC(=O)OC1	CC1=CCC(=O)OC1	
InChI=1S/C6H8O2/c1-5-2-3-6(7)8-4-5/h2H,3-4H2,1H3	InChI=1S/C6H8O2/c1-5-2-3-6(7)8-4-5/h2H,3-4H2,1H3
