15
gdb 124897	3.73233	1.24628	1.04331	2.5567	66.81	-0.2684	-0.0443	0.2241	1115.3787	0.111279	-453.901819	-453.894012	-453.893068	-453.934737	28.573	
C	-0.3065040916	 1.3670367903	-0.7557059129	-0.471478
C	-0.0607609025	 0.0411091631	-0.0734511578	 0.295708
C	 1.0825029046	-0.8071547029	-0.4679273091	-0.209611
O	 1.112830616	-0.051513004	 0.7454056561	-0.269678
C	-1.241957351	-0.6048527945	 0.5487352654	 0.214225
C	-1.3566020882	-1.2739904508	 1.7267405606	-0.044656
O	-2.6162682029	-1.6728856114	 1.8758552407	-0.159971
N	-3.3212986594	-1.2147327183	 0.7198787711	-0.001181
N	-2.500800295	-0.6063697443	-0.0135106399	-0.195866
H	 0.622835907	 1.7504579332	-1.1823640781	 0.129633
H	-1.047761259	 1.2519579464	-1.5513329278	 0.149679
H	-0.6912711505	 2.0999190377	-0.0400085876	 0.136869
H	 1.0188996573	-1.8869070232	-0.3463471438	 0.119734
H	 1.7556685884	-0.4600148394	-1.2503995321	 0.123209
H	-0.6543285731	-1.509766252	 2.5079545154	 0.183386
54.7145	150.739	175.0786	199.5747	313.6822	358.0156	428.5014	490.5605	563.4166	629.9166	652.0208	733.2318	811.323	863.8299	875.6227	926.5991	982.482	1017.3813	1037.589	1102.2089	1136.2068	1142.539	1158.3035	1174.6957	1298.3219	1326.7665	1381.2674	1413.7905	1459.0353	1479.0174	1496.6529	1524.262	1621.1199	3048.3901	3086.4109	3118.8541	3136.7851	3178.8728	3298.1127
CC1(CO1)C1=CON=N1	C[C@]1(CO1)c1conn1	
InChI=1S/C5H6N2O2/c1-5(3-8-5)4-2-9-7-6-4/h2H,3H2,1H3	InChI=1S/C5H6N2O2/c1-5(3-8-5)4-2-9-7-6-4/h2H,3H2,1H3/t5-/m0/s1
