16
gdb 11889	4.78638	1.60095	1.35922	3.9575	65.38	-0.2316	0.0614	0.2929	909.4727	0.13282	-379.955475	-379.948526	-379.947582	-379.986467	27.151	
O	 0.0259014196	-0.0145492882	-0.1741314909	-0.408148
C	-0.0003039946	 1.1892157304	-0.0579140637	 0.426862
N	-1.0943314952	 2.022981042	-0.2558400432	-0.346087
C	-0.8134629123	 3.3799665941	 0.1891788371	-0.22523
C	 0.7148990251	 3.4015712612	 0.1242656362	 0.38953
C	 1.470339056	 4.3010704392	-0.8191475887	-0.315183
C	 1.5368193002	 4.515446796	 0.6855027972	-0.326674
N	 1.0614600401	 2.0145308839	 0.3060413224	-0.400448
H	-2.0064141201	 1.612172635	-0.1376317044	 0.25317
H	-1.2630073838	 4.130857236	-0.4676423226	 0.115938
H	-1.1621918599	 3.5626589677	 1.2169365213	 0.109494
H	 2.3502062596	 3.8976628166	-1.3103775423	 0.116692
H	 0.9107246072	 5.0122107501	-1.418168854	 0.119336
H	 1.0223598514	 5.3730138274	 1.1079892215	 0.119993
H	 2.4593298503	 4.257104243	 1.194832298	 0.120821
H	 1.9889404664	 1.6781314558	 0.0991953561	 0.249933
110.6912	187.2236	260.3577	318.2105	438.0955	479.4906	491.9219	527.9148	540.6802	713.3308	763.1374	765.9612	804.4918	890.425	931.9457	948.543	974.9208	998.646	1056.2728	1068.6564	1080.1588	1094.1566	1186.1528	1207.9983	1245.3788	1289.3309	1306.1598	1379.3006	1420.926	1452.2759	1460.7253	1510.5	1527.9046	1853.71	2985.0945	3069.5874	3123.7419	3127.4671	3204.3149	3219.1417	3637.7726	3648.6962
O=C1NCC2(CC2)N1	O=C1NCC2(CC2)N1	
InChI=1S/C5H8N2O/c8-4-6-3-5(7-4)1-2-5/h1-3H2,(H2,6,7,8)	InChI=1S/C5H8N2O/c8-4-6-3-5(7-4)1-2-5/h1-3H2,(H2,6,7,8)
