18
gdb 54387	2.99696	0.58001	0.53199	1.8598	72.49	-0.2431	-0.0038	0.2393	2072.5662	0.140871	-439.047566	-439.034418	-439.033474	-439.096256	38.764	
N	-0.0413042855	 0.8163245111	-1.652518887	-0.730576
H	 0.0671294321	-0.1946195026	-1.6118977738	 0.226611
H	-0.3561266839	 1.0893610932	-0.7222847904	 0.256097
H	 0.9050490403	 1.1816600192	-1.732292294	 0.226621
C	-0.6546342086	 1.4788923506	 1.6871243561	 0.022967
C	-1.9753061414	 0.9721094556	 2.2448106541	-0.260367
C	-1.15174169	 1.9031378226	 3.1200230922	 0.018513
C	 0.1605580984	 1.1645615659	 2.932525002	-0.257976
C	-0.8984182778	 2.9386857684	 2.036364599	-0.260549
C	-3.5418580961	 3.3781045045	 4.678676572	 0.593961
O	-3.0744024665	 3.2358282251	 5.7328224309	-0.293518
O	-4.027116216	 3.5308654895	 3.6315809825	-0.305795
H	-2.8867760735	 1.3732739735	 1.81349546	 0.135433
H	-2.0236163022	-0.0725113945	 2.5367798973	 0.122708
H	 0.200628097	 0.1282763368	 3.2537389143	 0.123709
H	 1.0764242006	 1.7274879997	 3.0840971761	 0.123792
H	-0.0261046861	 3.5750594157	 2.1499155269	 0.12287
H	-1.7661807408	 3.4195285661	 1.5964676216	 0.135499
4.7399	11.7425	17.2622	25.7451	36.7242	44.5773	54.1245	80.4399	85.5125	180.4335	187.1305	529.4074	530.0741	606.5636	677.7812	688.8857	712.713	717.1303	913.4285	920.7183	960.8509	1076.3557	1076.8164	1100.4239	1101.7422	1121.6173	1126.8696	1151.8	1151.8823	1156.8088	1221.0032	1223.1441	1378.035	1488.3847	1488.4968	1537.6781	1684.2831	1693.3901	2432.7856	3131.1653	3133.2369	3137.6911	3218.454	3222.8518	3224.4074	3446.351	3554.6637	3568.7089	4.7582	11.7424	17.2661	25.7452	36.7243	44.5775	54.1244	80.4397	85.5125	180.4342	187.1318	529.4074	530.0741	606.5636	677.7811	688.8856	712.7129	717.1303	913.4285	920.7183	960.8509	1076.3556	1076.8164	1100.4239	1101.7422	1121.6173	1126.8695	1151.8	1151.8822	1156.8088	1221.0032	1223.1441	1378.0349	1488.3846	1488.4968	1537.6781	1684.2827	1693.3895	2432.7855	3131.1653	3133.2369	3137.6911	3218.454	3222.8518	3224.4074	3446.3512	3554.6637	3568.7089
[NH3+]C12CC(C1)(C2)C([O-])=O	N.C123CC1(C2)C3.C(=O)=O	
InChI=1S/C6H9NO2/c7-6-1-5(2-6,3-6)4(8)9/h1-3,7H2,(H,8,9)	InChI=1S/C5H6.CO2.H3N/c1-4-2-5(1,4)3-4;2-1-3;/h1-3H2;;1H3
