23
gdb 100072	3.07023	0.91356	0.84817	3.5361	82.21	-0.2389	-0.0122	0.2267	1482.2395	0.201407	-425.449856	-425.43836	-425.437416	-425.486742	41.435	
C	 0.7722851199	 1.1732845461	 0.0061271981	-0.477259
C	-0.2645229578	 0.0670834894	 0.0755233828	 0.382975
O	-0.9386094083	-0.1082281976	 1.0656767391	-0.301888
C	-0.4215067949	-0.8028348516	-1.1722501682	-0.327284
C	-0.0323792931	-2.2955423556	-0.9686857179	 0.26799
C	 1.3881212661	-2.4143426002	-0.3852266117	-0.422224
C	-1.0434728396	-3.0087193273	-0.0539858229	-0.409021
C	-0.0601727129	-2.945283397	-2.3646458811	-0.088311
O	 0.2708996011	-4.3200463575	-2.2422573464	-0.42499
H	 1.7583308609	 0.7535803939	-0.2237501453	 0.141507
H	 0.5281158952	 1.8650107559	-0.8089571961	 0.138279
H	 0.8087669649	 1.7156469347	 0.9516709266	 0.139393
H	-1.4748068014	-0.7477386165	-1.4734863596	 0.121619
H	 0.1775253215	-0.3807124229	-1.9876177232	 0.090747
H	 1.4318601988	-2.0196444484	 0.6346493557	 0.119208
H	 1.6958770226	-3.4618039469	-0.3584664335	 0.136762
H	 2.1171673821	-1.8677526494	-0.995646443	 0.099297
H	-2.0535866825	-2.9539716317	-0.4761279364	 0.100337
H	-0.7776116362	-4.0634000066	 0.0465201823	 0.124623
H	-1.0738180749	-2.546102709	 0.9336076041	 0.139339
H	-1.0638206824	-2.8186770331	-2.8025024635	 0.081806
H	 0.6569195942	-2.4275694094	-3.0232320739	 0.078351
H	 0.2399933669	-4.7175636293	-3.1166782761	 0.288744
36.1522	78.008	126.6592	148.5586	170.0551	214.0632	224.8557	253.0638	264.1928	298.4706	333.0187	356.6658	389.5435	414.1851	491.2667	537.0278	627.158	747.6166	803.6333	875.9435	917.1438	934.897	962.7745	970.1799	983.8135	1032.0702	1073.445	1084.4988	1155.0982	1190.9415	1201.8523	1229.2847	1246.2821	1278.4736	1322.4698	1356.5406	1378.2103	1398.3891	1412.0479	1457.4455	1461.0669	1474.6292	1475.8742	1485.6244	1491.1923	1499.5491	1515.2692	1520.5381	1806.6807	2953.5987	2986.3468	3023.5951	3027.9091	3033.1254	3039.6551	3072.2079	3092.8981	3093.6476	3111.1162	3129.2923	3146.7373	3151.3564	3839.6394
CC(=O)CC(C)(C)CO	CC(=O)CC(C)(C)CO	
InChI=1S/C7H14O2/c1-6(9)4-7(2,3)5-8/h8H,4-5H2,1-3H3	InChI=1S/C7H14O2/c1-6(9)4-7(2,3)5-8/h8H,4-5H2,1-3H3
