16
gdb 51074	3.17071	1.24855	1.04195	2.784	72.08	-0.2534	-0.0096	0.2438	1153.1413	0.123877	-437.844841	-437.836859	-437.835914	-437.87865	29.226	
N	-0.0765177918	 1.2642992942	 0.060618534	-0.433752
C	-0.108415577	 0.0373827294	-0.2180218678	 0.080549
O	-1.0139611809	-0.7569801082	 0.4231056598	-0.241682
C	-0.9556989282	-2.1107164411	 0.1769899857	 0.292045
C	-0.4060159914	-3.2316723551	 1.1331507731	-0.282411
C	-0.9728707427	-4.0230350027	-0.092996782	-0.179739
C	-2.1926359095	-3.0385480715	-0.0475589029	-0.278451
C	-0.2950472763	-2.9424189239	-0.9457542042	 0.402984
O	 0.3783221312	-2.8075552803	-1.920712289	-0.33776
H	 0.6321631864	 1.7280466211	-0.5045375609	 0.235877
H	 0.5061831788	-0.5016135104	-0.9449797829	 0.138819
H	 0.6696442729	-3.2694106493	 1.3114918876	 0.121484
H	-0.9851861253	-3.3500550114	 2.050664521	 0.122734
H	-0.9925231761	-5.0971567216	-0.235746047	 0.112627
H	-2.8276207525	-3.1523293853	 0.8329038337	 0.122609
H	-2.7705423778	-2.8997293239	-0.9622573881	 0.124068
29.4387	116.5553	142.5053	189.6975	311.5694	377.4819	428.3089	520.7848	554.9127	720.0507	756.3532	780.06	807.1653	816.4084	831.7025	935.7643	950.5016	982.8673	1001.6783	1036.3432	1054.0428	1060.5268	1084.362	1125.1793	1165.0822	1184.0931	1190.2997	1228.0362	1280.2032	1345.2961	1428.4594	1492.8359	1531.8653	1745.4965	1909.8192	3074.1494	3075.7104	3092.5873	3150.1464	3151.698	3197.7603	3517.9588
N=COC12CC(C1)C2=O	[NH][CH]O[C@@]12C[C@@H](C1)C2=O	
InChI=1S/C6H7NO2/c7-3-9-6-1-4(2-6)5(6)8/h3-4,7H,1-2H2	InChI=1S/C6H7NO2/c7-3-9-6-1-4(2-6)5(6)8/h3-4,7H,1-2H2/t4-,6-
