21
gdb 68047	2.1081	1.83362	1.28836	1.3946	83.66	-0.2512	0.0797	0.3308	1089.3613	0.181391	-387.031024	-387.022214	-387.021269	-387.063668	35.17	
C	-0.0005204823	 1.4650249954	 0.0115110208	-0.512353
C	 0.0189886956	-0.0370982269	-0.0011218493	 0.240647
C	 0.6495273446	-0.9698350974	-1.0884308134	-0.324194
C	 0.0232967992	-1.9197738837	-0.0170916823	 0.316785
O	-0.077002939	-3.2969459959	-0.0292660123	-0.475084
C	 0.639109473	-0.9882121299	 1.0762072607	-0.324195
C	-1.1947847741	-0.9974371411	-0.0151234417	 0.398548
C	-2.4714305977	-1.0358043505	 0.7445886661	-0.380032
C	-2.464010391	-1.0227510399	-0.7877046476	-0.38003
H	 1.0158657819	 1.872903571	 0.0183774062	 0.120714
H	-0.5126450205	 1.8601648341	-0.8728241844	 0.120749
H	-0.5186217777	 1.8452235351	 0.8989047377	 0.120756
H	 0.1760529881	-0.9629627305	-2.0729961473	 0.094197
H	 1.7424131207	-0.9576110873	-1.1557494075	 0.076829
H	 0.8105317876	-3.6704871946	-0.0283186349	 0.283475
H	 1.7312929959	-0.977254448	 1.1542655792	 0.076831
H	 0.1561576555	-0.997992773	 2.0561346353	 0.094194
H	-2.7547750689	-1.9610590346	 1.2366543461	 0.119167
H	-2.8124779766	-0.1377407819	 1.2513766606	 0.106916
H	-2.8001972227	-0.116146953	-1.2823926034	 0.106914
H	-2.7425084814	-1.9394565873	-1.2981927185	 0.119167
160.6984	184.9262	206.1975	215.1232	228.1233	228.4293	281.1341	425.825	469.3034	478.1588	597.1896	613.7222	646.0105	669.0725	751.0546	773.4288	787.1033	910.7802	942.0287	950.3246	966.5435	976.6788	1044.205	1047.7229	1054.8049	1067.8698	1079.7631	1100.113	1122.357	1136.288	1160.504	1180.4151	1185.6162	1187.6513	1288.4531	1330.0687	1345.115	1413.1221	1439.8913	1457.5369	1485.2901	1489.8898	1491.2082	1509.6236	1557.1663	3026.2173	3038.2722	3045.433	3091.4844	3095.2114	3115.2356	3117.2794	3118.3417	3120.2182	3194.6489	3208.6736	3813.93
CC12CC(O)(C1)C21CC1	C[C@@]12C[C@@](O)(C1)C12CC1	
InChI=1S/C8H12O/c1-6-4-8(9,5-6)7(6)2-3-7/h9H,2-5H2,1H3	InChI=1S/C8H12O/c1-6-4-8(9,5-6)7(6)2-3-7/h9H,2-5H2,1H3/t6-,8-
