19
gdb 121066	3.79835	0.859	0.83065	4.1586	72.14	-0.2627	0.0153	0.2779	1453.3147	0.159256	-460.199806	-460.190822	-460.189878	-460.234467	32.032	
C	-0.2044781293	 1.3474259077	-0.3241451925	-0.233296
O	-0.0446646381	-0.0388403329	-0.125328781	-0.2349
C	 0.7200416464	-0.6581488137	-1.1333607571	-0.062759
C	 0.772073128	-2.1571802252	-0.8442252231	-0.045359
C	-0.6273648064	-2.7982998478	-0.9237164337	-0.086153
O	-0.7872115844	-3.2371832649	-2.2842875462	-0.218524
C	 0.4185097918	-3.3668417771	-2.9017969611	 0.433334
O	 0.5275243038	-3.7741442168	-4.0209674329	-0.335804
C	 1.5203215265	-2.9217856753	-1.9418534364	-0.384998
H	 0.7632821232	 1.8725392654	-0.3250574676	 0.108325
H	-0.7151916686	 1.5658869978	-1.2747279244	 0.11127
H	-0.8119009666	 1.7273425237	 0.5004394427	 0.131771
H	 0.2727997111	-0.4757085854	-2.1267368214	 0.099442
H	 1.7423486045	-0.2444426412	-1.1569985339	 0.092897
H	 1.2066521272	-2.3014680463	 0.1476834946	 0.095392
H	-0.7184095034	-3.6677314223	-0.2629677606	 0.113403
H	-1.4261221848	-2.0915278806	-0.6956670478	 0.138186
H	 2.2724083558	-2.3395389401	-2.4785576355	 0.137347
H	 2.0163625432	-3.818066025	-1.5545265421	 0.140424
58.4268	92.4531	113.4481	167.8778	192.0854	236.7723	319.0427	372.817	450.0521	513.895	559.7365	689.9499	726.5835	837.8483	865.7844	903.7197	949.6628	992.41	1025.9401	1042.2027	1086.1078	1135.5421	1159.0683	1174.1674	1184.0501	1203.926	1219.5735	1245.4225	1253.8575	1278.6064	1314.5934	1366.2548	1393.6829	1425.8006	1462.0151	1481.6998	1487.1473	1502.234	1525.7606	1526.7954	1884.453	2947.4833	2976.6094	2980.2546	3022.7915	3043.3963	3060.2115	3087.9884	3116.3308	3119.3269	3129.6591
COCC1COC(=O)C1	COC[C@H]1COC(=O)C1	
InChI=1S/C6H10O3/c1-8-3-5-2-6(7)9-4-5/h5H,2-4H2,1H3	InChI=1S/C6H10O3/c1-8-3-5-2-6(7)9-4-5/h5H,2-4H2,1H3/t5-/m0/s1
