15
gdb 126289	5.84574	0.86411	0.79707	5.7269	75.58	-0.2811	-0.0575	0.2235	1403.1181	0.112889	-416.823949	-416.815745	-416.814801	-416.857631	29.111	
C	 0.0520897889	 1.5500859606	 0.2130352234	-0.379317
C	-0.0260563583	 0.0412158894	-0.0801016052	-0.302799
C	-1.4256813051	-0.4633877181	-0.1702428583	 0.457024
C	-2.174147593	-0.9993203844	-1.1719138869	-0.432208
C	-3.4330244586	-1.2418658868	-0.5541308401	 0.288433
N	-3.4415163294	-0.880553312	 0.7156452076	-0.184436
O	-2.1757256527	-0.3915035475	 0.9512666932	-0.197518
C	-4.5990268698	-1.8023202974	-1.1518641089	 0.252066
N	-5.5219517914	-2.2602205219	-1.6763765006	-0.320423
H	 1.0960292848	 1.8668028539	 0.281885793	 0.127906
H	-0.4306689747	 2.1289208748	-0.5794884353	 0.13198
H	-0.4423755893	 1.7888892207	 1.1578893353	 0.145455
H	 0.4771547607	-0.1922233653	-1.0227495276	 0.12901
H	 0.4975299833	-0.5140758559	 0.7071752762	 0.139397
H	-1.8883786655	-1.19751061	-2.1904445459	 0.14543
45.6984	111.3271	147.8437	200.3206	217.1051	333.4252	381.446	513.6206	539.822	568.7938	676.7147	710.4008	731.5538	789.2109	832.2533	960.9393	975.6333	1025.065	1034.5212	1072.2563	1091.1667	1150.0462	1250.3211	1314.833	1348.2738	1410.3287	1435.3109	1474.1048	1479.5137	1497.361	1507.0488	1626.8647	2366.2844	3042.6782	3049.9583	3093.0162	3124.1163	3132.3033	3291.1084
CCC1=CC(=NO1)C#N	CCc1cc(no1)C#N	
InChI=1S/C6H6N2O/c1-2-6-3-5(4-7)8-9-6/h3H,2H2,1H3	InChI=1S/C6H6N2O/c1-2-6-3-5(4-7)8-9-6/h3H,2H2,1H3
