17
gdb 47578	2.80684	1.67738	1.20704	4.797	67.98	-0.2719	0.0204	0.2922	1019.8333	0.137285	-458.982555	-458.975131	-458.974187	-459.01472	28.582	
O	-0.2543751933	 0.5504894809	 0.935322563	-0.341975
C	-0.0045738425	 1.1948000413	-0.0362440093	 0.450549
O	-0.8778806484	 1.3925933467	-1.0604519881	-0.247405
C	-1.4695331819	 2.6979695498	-1.214103491	-0.074171
C	-0.4487849617	 3.8368921394	-1.1335728067	-0.274083
C	 0.783189576	 3.493273651	-1.9437603662	-0.020513
C	 2.1743005555	 3.6935968749	-1.3805634142	-0.328179
C	 1.5794714273	 2.3195343427	-1.4530931138	 0.122006
O	 1.2257004435	 1.7431411354	-0.2094872441	-0.244524
H	-1.9400607195	 2.6604730107	-2.1999113536	 0.125001
H	-2.2568059193	 2.8205997381	-0.4605160307	 0.124376
H	-0.9198412213	 4.7594995221	-1.489627815	 0.114752
H	-0.1735219472	 4.0133533964	-0.0886680838	 0.126714
H	 0.6698351526	 3.5692904157	-3.0215082031	 0.098075
H	 2.9833484381	 3.93742951	-2.0593242964	 0.124076
H	 2.2577578976	 4.1331926615	-0.3926662585	 0.133577
H	 1.9736470349	 1.5911883335	-2.1540880785	 0.111724
72.8433	168.5153	205.1094	297.3342	316.1662	408.275	450.0093	544.3792	608.2013	694.3799	749.7854	788.4579	822.7938	840.5291	897.4647	914.6631	949.0061	976.7925	1048.3699	1057.338	1080.7588	1093.4699	1125.3458	1160.8015	1168.7171	1177.3204	1239.0326	1259.6093	1270.5072	1345.5998	1385.6368	1411.5027	1423.4598	1479.2378	1487.7798	1508.6632	1878.9164	3035.2494	3049.849	3081.8466	3106.1861	3140.0217	3147.3434	3163.4887	3230.5435
O=C1OCCC2CC2O1	O=C1OCC[C@H]2C[C@H]2O1	
InChI=1S/C6H8O3/c7-6-8-2-1-4-3-5(4)9-6/h4-5H,1-3H2	InChI=1S/C6H8O3/c7-6-8-2-1-4-3-5(4)9-6/h4-5H,1-3H2/t4-,5+/m0/s1
