16
gdb 54599	2.83829	1.5793	1.1972	3.2408	64.68	-0.2477	0.0041	0.2517	1021.6408	0.124408	-475.008149	-475.000193	-474.999249	-475.040933	29.767	
N	 0.3720323677	 0.6802715147	-0.9109443332	-0.534326
C	-0.0208805695	 0.1377437426	 0.2677471439	 0.309286
O	 0.5378883356	 0.3020414675	 1.3365285403	-0.368972
C	-1.241352895	-0.7483635522	 0.1527767659	 0.304665
C	-2.233153089	-0.8111794739	 1.325189396	-0.117777
O	-2.2649933075	-2.2642422655	 1.2728889517	-0.289102
C	-1.2773840548	-2.2971127773	 0.2388872431	 0.023113
C	-1.8676721693	-2.2296139385	-1.177624954	-0.109545
O	-1.8706540392	-0.7724642063	-1.1466897288	-0.350159
H	 1.1472174711	 1.321598881	-0.9213032319	 0.265139
H	-0.1957134513	 0.543338853	-1.7308375912	 0.274913
H	-1.8065233949	-0.4552879469	 2.2673034816	 0.136452
H	-3.2106975566	-0.3584248949	 1.1330251138	 0.114658
H	-0.4401921859	-2.9626569394	 0.452298692	 0.105809
H	-1.2154672814	-2.6038317218	-1.9756727856	 0.111583
H	-2.8737410501	-2.6466575721	-1.2791050936	 0.124262
67.6428	133.5275	176.0466	254.4529	324.2652	353.658	402.7109	427.0495	488.5927	626.0806	644.3345	711.3748	738.7569	838.5448	899.3475	913.9653	982.3721	986.403	1027.6714	1060.7087	1090.9154	1099.1771	1127.9421	1140.0988	1172.2808	1185.5841	1222.9346	1307.7185	1334.4624	1356.6761	1394.4747	1497.5665	1500.2769	1593.5745	1797.4845	3029.4986	3046.3191	3098.1558	3111.1467	3112.8291	3595.2738	3736.7599
NC(=O)C12COC1CO2	NC(=O)[C@]12CO[C@H]1CO2	
InChI=1S/C5H7NO3/c6-4(7)5-2-8-3(5)1-9-5/h3H,1-2H2,(H2,6,7)	InChI=1S/C5H7NO3/c6-4(7)5-2-8-3(5)1-9-5/h3H,1-2H2,(H2,6,7)/t3-,5-/m0/s1
