23
gdb 94940	2.61506	1.29221	1.13085	1.4504	85.76	-0.2295	0.0892	0.3188	1248.4111	0.205142	-388.289924	-388.280403	-388.279459	-388.323644	36.617	
C	 0.0975661194	 1.5739043958	-0.0169935575	-0.417189
C	 0.0107500494	 0.0467193542	 0.0177220861	-0.015723
C	 0.7458524015	-0.6316842598	-1.1633125748	-0.075542
O	 1.2586459008	-1.8734771244	-0.6759074035	-0.262755
C	 1.5326663307	-1.7239801412	 0.6947720253	 0.043507
C	 0.7203338029	-0.5727416273	 1.2276201641	-0.121739
C	 0.4016760433	-2.0042710176	 1.6593732362	 0.285529
C	-0.8457464881	-2.7130156716	 1.1751110255	-0.458288
C	 0.8127882289	-2.3526782691	 3.0789008664	-0.456406
H	 1.1398798916	 1.9089794174	 0.0319359983	 0.117651
H	-0.3388749722	 1.9746219967	-0.9381162762	 0.114751
H	-0.4399431996	 2.0198009117	 0.8256162341	 0.118585
H	-1.0463489967	-0.2424077203	 0.0023250628	 0.07926
H	 0.0992223999	-0.8502451448	-2.0187373515	 0.10432
H	 1.5736363545	 0.008494862	-1.5101207286	 0.087123
H	 2.5655588149	-1.9190851697	 0.9726792201	 0.084722
H	 1.1224841204	 0.1020504398	 1.9766834324	 0.078178
H	-0.9809903691	-2.6082867079	 0.0973348895	 0.128687
H	-0.7759195357	-3.7852590376	 1.3905740529	 0.112909
H	-1.7423795876	-2.3334946959	 1.6790924753	 0.109331
H	 0.0409476618	-2.0542271244	 3.7982864001	 0.115521
H	 0.9702669759	-3.4320646106	 3.1869632661	 0.116528
H	 1.7424298932	-1.8495321058	 3.364791327	 0.11104
109.5816	143.0426	168.4672	193.4827	224.4976	246.4705	253.6112	320.815	355.723	386.3014	486.3617	494.0386	605.0212	703.5552	734.0417	829.9873	856.6871	886.8664	943.0987	960.9959	969.4174	974.3967	1013.8288	1025.959	1066.4375	1078.0977	1090.3753	1137.6774	1153.8363	1155.2526	1161.7072	1225.835	1242.945	1286.4166	1314.9983	1325.9348	1344.1036	1397.3915	1405.1788	1409.1781	1413.1198	1426.6983	1482.1968	1489.5567	1497.1575	1499.9842	1501.9011	1509.8743	1514.3447	2968.5928	3019.6805	3027.8791	3028.9965	3033.9389	3079.2366	3080.2397	3082.9729	3093.605	3096.168	3103.6308	3130.4552	3131.4068	3153.7064
CC1COC2C1C2(C)C	C[C@H]1CO[C@H]2[C@@H]1C2(C)C	
InChI=1S/C8H14O/c1-5-4-9-7-6(5)8(7,2)3/h5-7H,4H2,1-3H3	InChI=1S/C8H14O/c1-5-4-9-7-6(5)8(7,2)3/h5-7H,4H2,1-3H3/t5-,6+,7-/m0/s1
