16
gdb 29766	3.22508	1.22677	0.89374	2.4518	84.08	-0.1971	0.0125	0.2097	1255.9393	0.12333	-400.751627	-400.74262	-400.741675	-400.785908	33.125	
C	-0.0518081498	 1.4830565549	-0.0184773548	-0.333105
N	-0.0128748761	 0.0368698555	-0.0016318683	 0.019715
C	 0.0660688362	-0.7605151209	-1.1326534504	-0.185744
C	 0.105311395	-2.0661068142	-0.7126514503	 0.200334
O	 0.1801985525	-3.1585477988	-1.5112734667	-0.446537
C	 0.0498223166	-2.0724704088	 0.7202540825	 0.049133
C	-0.0216367898	-0.7414234586	 1.1112507164	-0.208024
C	 0.0651749706	-3.2419030962	 1.5062748144	 0.20747
C	 0.0837966016	-4.2913834743	 2.1025465648	-0.469752
H	 0.8742726918	 1.8980364542	-0.430874922	 0.142732
H	-0.8933806497	 1.8413719203	-0.6201060363	 0.143079
H	-0.173786494	 1.8484450457	 1.0025079756	 0.143222
H	 0.0862766893	-0.3359043903	-2.1216915943	 0.12329
H	 0.1901064191	-3.9349246883	-0.9371927478	 0.297702
H	-0.0767684522	-0.3109059175	 2.0977215899	 0.130501
H	 0.0980295589	-5.1985897927	 2.6533210772	 0.185983
33.5909	120.4921	137.2143	184.111	290.3235	324.1964	366.862	403.35	452.2502	502.5701	523.3898	589.2931	605.6691	626.1961	639.0445	672.0684	724.0529	746.0988	813.8131	1023.2247	1092.7431	1150.3494	1153.9961	1196.1036	1220.296	1279.8827	1379.2166	1436.4698	1449.2661	1469.3699	1480.167	1525.3193	1570.6679	1650.7765	2216.25	3033.2606	3090.1731	3139.3474	3267.0014	3277.9282	3502.1222	3776.9523
CN1C=C(O)C(=C1)C#C	Cn1cc(O)c(c1)C#C	
InChI=1S/C7H7NO/c1-3-6-4-8(2)5-7(6)9/h1,4-5,9H,2H3	InChI=1S/C7H7NO/c1-3-6-4-8(2)5-7(6)9/h1,4-5,9H,2H3
