20
gdb 97959	5.11124	0.5202	0.49482	1.2865	87.95	-0.2475	0.0331	0.2805	2285.7282	0.168236	-403.137336	-403.12633	-403.125386	-403.176628	37.274	
C	 0.0940910354	 1.0961393762	-0.6562832847	-0.364942
C	-0.1644089191	 0.2213268922	 0.5837774665	-0.316926
C	-1.4918920475	-0.383199793	 0.5969941792	 0.161285
C	-2.5901571998	-0.8761930373	 0.5861403388	-0.005147
C	-3.9302906161	-1.4375730236	 0.5999711238	-0.232821
O	-3.8871074391	-2.7632189071	 0.0384100549	-0.23439
C	-5.0667207311	-3.4150255972	-0.0158013916	 0.407023
C	-4.8718381454	-4.7816474816	-0.6215710171	-0.460276
N	-6.1367052782	-2.8758924873	 0.4064094017	-0.519101
H	 1.100489272	 1.5236739571	-0.6185403932	 0.114194
H	 0.0033243715	 0.5067098575	-1.5725756012	 0.129645
H	-0.6270810536	 1.9161291872	-0.7104029679	 0.128463
H	 0.5914767163	-0.5726559707	 0.6382436517	 0.132304
H	-0.0322112145	 0.8223006681	 1.492728486	 0.130608
H	-4.335027299	-1.4926933045	 1.6170311973	 0.144272
H	-4.6307585785	-0.8258975109	 0.0199414102	 0.14401
H	-4.1585337191	-5.3588424621	-0.0256099777	 0.148391
H	-5.8170832402	-5.3240163011	-0.6743537834	 0.125777
H	-4.452480708	-4.6905550569	-1.6280305833	 0.148241
H	-6.9264557461	-3.5061343349	 0.2893247701	 0.219389
9.6735	40.3796	75.6846	105.1731	123.1311	168.9473	201.1487	249.1782	291.0634	333.2355	394.4932	500.4318	533.3868	575.9061	598.1524	758.4942	783.2949	851.1751	936.0903	959.3758	981.9236	1011.6502	1060.8228	1068.2413	1080.6003	1103.3473	1110.0097	1176.5532	1247.0176	1286.4579	1349.6774	1352.3011	1395.4638	1408.961	1431.1569	1471.1633	1471.6917	1482.2538	1489.402	1494.8306	1505.2511	1724.8029	2373.5964	3020.2768	3036.8177	3044.1284	3047.5934	3049.2446	3066.8829	3113.5277	3117.3818	3124.0154	3143.558	3518.1014
CCC#CCOC(C)=N	CCC#CCO[C](C)[NH]	
InChI=1S/C7H11NO/c1-3-4-5-6-9-7(2)8/h8H,3,6H2,1-2H3	InChI=1S/C7H11NO/c1-3-4-5-6-9-7(2)8/h8H,3,6H2,1-2H3
