19
gdb 58064	1.74315	1.6472	1.10858	4.6663	79.61	-0.3301	-0.0079	0.3222	1193.0918	0.157086	-382.103616	-382.093311	-382.092367	-382.138464	37.222	
C	-0.0330124311	 1.5582142834	 0.0817707774	-0.426511
C	-0.0454420287	 0.0278976075	-0.0130089074	 0.024741
C	-1.4703932352	-0.5301211898	 0.0827258057	-0.426483
C	 0.7051766166	-0.4892793689	-1.3047879921	-0.079961
C	 0.0462793299	-0.0374991815	-2.6362363524	-0.416664
C	 2.0974297522	-0.0003964935	-1.2747340173	 0.304032
N	 3.1736429304	 0.4182284468	-1.2523920675	-0.332076
C	 0.7474546	-1.9642343148	-1.2730169075	 0.304023
N	 0.7422144336	-3.1189627809	-1.249444243	-0.332061
H	 0.9781369938	 1.9657716247	 0.0014138951	 0.148998
H	-0.6549157117	 2.0180036377	-0.6927999656	 0.124972
H	-0.4408918092	 1.8635914992	 1.0495388591	 0.130601
H	 0.5325011459	-0.369469639	 0.8291643394	 0.115069
H	-2.1222520783	-0.1139172463	-0.6918647691	 0.124985
H	-1.4900532048	-1.6201884721	 0.0031025455	 0.148944
H	-1.9009007897	-0.2575406068	 1.050485817	 0.130613
H	 0.0335125042	 1.0517926191	-2.6965685198	 0.149092
H	 0.6100139448	-0.4259483306	-3.4862062774	 0.158589
H	-0.9754609528	-0.4155750744	-2.6951441403	 0.149097
66.7409	137.9817	144.4668	178.0883	211.081	221.144	246.1664	278.3557	281.4707	352.1736	361.7943	471.8362	486.3234	532.7369	572.4316	592.2241	661.2704	860.1495	921.0708	927.0398	946.0304	972.9666	1013.8627	1123.0704	1137.6308	1171.4836	1204.4976	1215.4224	1354.468	1364.9438	1408.4306	1408.7402	1431.1856	1485.3027	1488.2798	1489.6502	1506.2524	1509.144	1512.8325	2359.1656	2364.2956	3042.1945	3042.9537	3047.8517	3068.3739	3109.1186	3115.4737	3124.0169	3124.7199	3149.342	3156.5337
CC(C)C(C)(C#N)C#N	CC(C)C(C)(C#N)C#N	
InChI=1S/C7H10N2/c1-6(2)7(3,4-8)5-9/h6H,1-3H3	InChI=1S/C7H10N2/c1-6(2)7(3,4-8)5-9/h6H,1-3H3
