20
gdb 119296	2.10286	1.29961	0.95214	4.65	80.28	-0.2693	0.0343	0.3036	1322.5852	0.170175	-403.142652	-403.133025	-403.132081	-403.177674	34.446	
C	-0.1696587255	 1.3116466781	 0.2666986502	-0.228412
O	-0.059682957	-0.0926364038	 0.209758917	-0.232843
C	-1.2735446416	-0.7316887507	-0.0905216753	-0.102552
C	-1.0182400843	-2.2373665206	-0.1907778715	 0.136602
C	-0.6198550256	-2.8721996509	 1.1854476122	-0.244288
C	-2.090803039	-3.3289831535	 1.3765504769	-0.218024
C	-2.3507311953	-3.0612708806	-0.1301501137	-0.26676
C	-0.1366171184	-2.5355253601	-1.3135105564	 0.245166
N	 0.5436051211	-2.8091977781	-2.2076666498	-0.351266
H	 0.8209044433	 1.704583356	 0.5051425171	 0.136063
H	-0.4987292172	 1.7322993232	-0.6955895408	 0.112927
H	-0.8789230043	 1.6332949636	 1.0455268327	 0.105275
H	-2.0219173949	-0.5442960764	 0.6985179703	 0.089865
H	-1.694296291	-0.3609388501	-1.039782894	 0.104095
H	 0.0663544861	-3.7109799654	 1.057428744	 0.125145
H	-0.1946260416	-2.173044819	 1.9064670901	 0.125217
H	-2.2438627045	-4.352771539	 1.7213954184	 0.112242
H	-2.6600952973	-2.660654104	 2.0269082892	 0.111569
H	-3.2570899606	-2.5161620924	-0.4057791284	 0.111202
H	-2.2884798324	-3.9663455463	-0.736390248	 0.128778
66.255	100.5668	114.7075	144.7677	185.2207	207.2239	243.1711	321.3471	372.0757	408.9127	543.2083	564.8079	648.7661	723.4342	795.3546	862.9126	924.5186	930.8868	945.6868	983.9064	991.1707	1046.8846	1088.0672	1157.3946	1166.8852	1188.3644	1206.8638	1214.4445	1231.768	1258.5153	1269.6993	1273.7526	1278.0842	1326.48	1412.7885	1476.6247	1480.0832	1485.9754	1486.4988	1499.6063	1507.5928	1523.8027	2351.0893	2954.1597	2976.7158	2990.3024	3023.9288	3067.3138	3073.579	3084.7928	3115.7075	3123.946	3132.7316	3144.8966
COCC1(CCC1)C#N	COCC1(CCC1)C#N	
InChI=1S/C7H11NO/c1-9-6-7(5-8)3-2-4-7/h2-4,6H2,1H3	InChI=1S/C7H11NO/c1-9-6-7(5-8)3-2-4-7/h2-4,6H2,1H3
