16
gdb 17214	4.44378	1.8247	1.56977	1.9049	64.05	-0.2427	0.0518	0.2945	831.7857	0.130707	-383.674808	-383.668186	-383.667242	-383.705799	25.415	
C	-0.3601975085	 1.3808168407	 0.0105442092	-0.255049
O	 0.9985339867	 0.9131493521	 0.0004404964	-0.268366
C	-0.0435570967	-0.0446347977	 0.0350067218	 0.445063
C	-0.1737240725	-1.1046466792	 1.1421471535	-0.342844
C	-0.4585331095	-2.17249503	 0.0478712057	-0.079262
C	-1.9093799682	-2.2203911452	-0.4655529241	-0.077085
O	-1.6587484427	-1.1873026	-1.4505782096	-0.287626
C	-0.2743487796	-1.0916196153	-1.0613705766	 0.010471
H	-0.6725589786	 1.8785690876	 0.9276414353	 0.116308
H	-0.7055922005	 1.8407008318	-0.9138739327	 0.125237
H	 0.7789911937	-1.2642558764	 1.6541809214	 0.124087
H	-0.9566029435	-0.9507757122	 1.8902308274	 0.107949
H	 0.0959130741	-3.1075510052	 0.0929444055	 0.085855
H	-2.1959928406	-3.161703099	-0.9496692167	 0.10656
H	-2.689345928	-1.9344955368	 0.2517231755	 0.10174
H	 0.4198564444	-1.1225499852	-1.9050987519	 0.086964
74.4287	199.8379	283.7364	328.9747	365.486	477.1777	547.5781	757.4033	789.0337	832.015	841.903	888.2513	910.9175	925.3144	953.46	992.8181	1015.5382	1046.8891	1099.472	1123.5398	1141.7051	1153.5207	1156.0047	1174.6425	1197.433	1223.9489	1252.5104	1285.7216	1310.5915	1356.2018	1431.7796	1469.87	1520.1474	1533.7043	3012.7442	3055.5163	3057.6454	3083.5203	3084.8215	3110.1507	3134.0393	3173.6577
C1OC11CC2COC12	C1O[C@]21C[C@H]1CO[C@@H]21	
InChI=1S/C6H8O2/c1-4-2-7-5(4)6(1)3-8-6/h4-5H,1-3H2	InChI=1S/C6H8O2/c1-4-2-7-5(4)6(1)3-8-6/h4-5H,1-3H2/t4-,5+,6-/m0/s1
