18
gdb 14531	4.29372	1.38808	1.37696	3.26	67.48	-0.2357	0.0593	0.295	981.7879	0.152766	-384.893241	-384.88494	-384.883996	-384.926684	30.059	
O	-0.0980353442	 1.358821605	 0.2120600642	-0.468449
C	 0.0382864037	-0.0316056862	 0.0572653291	 0.414172
C	 1.1158300443	-0.5814698785	-0.8413208205	-0.332136
C	 1.2198957842	-0.7393780505	 0.6686356848	-0.332131
C	-1.3161858242	-0.6839919032	 0.082387273	-0.059784
C	-2.2851279044	-0.3161791252	 1.2322395018	-0.086438
O	-3.3166349447	 0.0615768698	 0.2981934272	-0.274695
C	-2.4268717233	-0.1011008518	-0.8247506583	-0.086436
H	 0.7732751489	 1.7651521151	 0.1944016093	 0.283416
H	 0.9055288139	-1.4591741195	-1.4434273108	 0.118684
H	 1.782132015	 0.1307117139	-1.3186661147	 0.109808
H	 1.95485751	-0.1313756587	 1.187463238	 0.10981
H	 1.0808181234	-1.7251560307	 1.0999398346	 0.118684
H	-1.1968780744	-1.7627634405	-0.0386303768	 0.075973
H	-2.6031125928	-1.136254747	 1.8868183495	 0.093825
H	-1.9523053727	 0.5318177456	 1.8417609873	 0.110938
H	-2.1678363494	 0.8588583819	-1.2860173976	 0.110935
H	-2.8423387435	-0.7732611094	-1.5848161298	 0.093824
56.0156	87.7329	103.25	198.7104	258.0636	315.3379	360.1925	463.8756	533.3322	662.4619	763.414	821.5099	869.744	885.3232	893.6374	944.8772	968.766	985.1629	1041.09	1043.8183	1047.5377	1055.9375	1066.5515	1110.3816	1167.0371	1170.123	1185.1188	1188.8097	1256.33	1280.2227	1311.5577	1349.8237	1386.3972	1455.3955	1462.9906	1503.0313	1504.5379	1532.6814	3016.0298	3026.1137	3064.0645	3068.0936	3090.4681	3122.2013	3126.4523	3201.3343	3216.036	3835.1405
OC1(CC1)C1COC1	OC1(CC1)C1COC1	
InChI=1S/C6H10O2/c7-6(1-2-6)5-3-8-4-5/h5,7H,1-4H2	InChI=1S/C6H10O2/c7-6(1-2-6)5-3-8-4-5/h5,7H,1-4H2
