21
gdb 110609	3.03118	1.20737	1.08091	2.0189	81.71	-0.2401	0.0829	0.323	1238.2656	0.181435	-387.042788	-387.0339	-387.032956	-387.076307	34.212	
C	 0.2825789759	 1.4794586395	 0.1484365944	-0.374383
C	-0.2086228638	 0.0587256228	-0.1539705701	-0.21133
C	 0.581829031	-0.5955921421	-1.2732574887	-0.001722
C	 1.9362549153	-1.2477015219	-1.1206928293	-0.103736
C	 2.0131089512	-2.0780434753	 0.1405539565	-0.060568
O	 2.1406736377	-3.463251726	-0.2225268466	-0.295966
C	 0.8272210975	-2.8728929328	-0.2517371121	 0.415104
C	-0.2463976413	-3.5430157437	 0.5453871016	-0.498786
C	 0.6988367204	-2.077249823	-1.5409628779	-0.17377
H	 1.3321018587	 1.4733610415	 0.4607624367	 0.119156
H	 0.2054342047	 2.1223419892	-0.7354521225	 0.11437
H	-0.305171916	 1.9408111167	 0.9479267649	 0.112018
H	-0.1540391061	-0.5478667341	 0.7548073844	 0.103147
H	-1.2679153934	 0.0901289713	-0.4407425178	 0.09622
H	 0.5206263783	-0.0296427634	-2.2040954868	 0.08636
H	 2.7819591863	-0.9865479999	-1.7452969166	 0.095375
H	 2.3654676599	-1.8015353902	 1.127800346	 0.098785
H	 0.1366335677	-3.8502940481	 1.5219194474	 0.132227
H	-1.1011741249	-2.8757617958	 0.6918959598	 0.126411
H	-0.6072350953	-4.4389716931	 0.0274559939	 0.129812
H	 0.506179316	-2.5038951016	-2.5185861472	 0.091276
75.48	126.5099	168.8548	192.7594	241.2135	260.4103	318.2379	374.3421	463.4889	525.5373	628.7809	649.3393	727.0531	772.9209	802.4062	822.9449	850.9277	904.8381	906.7859	953.0541	976.0785	1007.7311	1024.5129	1029.9361	1059.5309	1075.046	1104.8119	1109.5559	1137.178	1195.7406	1209.2829	1263.5967	1290.1214	1303.4192	1319.8034	1348.6594	1402.2511	1408.7928	1445.3599	1449.9535	1483.1791	1485.2355	1495.2244	1497.7422	1507.2172	3024.4254	3031.5343	3035.7568	3073.7216	3096.956	3097.2427	3105.8841	3107.1231	3123.3784	3176.155	3181.6624	3190.8942
CCC1C2C3OC3(C)C12	CC[C@H]1[C@H]2[C@@H]3O[C@]3(C)[C@@H]12	
InChI=1S/C8H12O/c1-3-4-5-6(4)8(2)7(5)9-8/h4-7H,3H2,1-2H3	InChI=1S/C8H12O/c1-3-4-5-6(4)8(2)7(5)9-8/h4-7H,3H2,1-2H3/t4-,5+,6-,7-,8+/m0/s1
