20
gdb 22269	2.9363	1.03768	0.92974	0.7827	79.84	-0.2334	0.008	0.2414	1357.4532	0.167369	-440.235828	-440.225404	-440.22446	-440.271322	38.311	
C	 0.1390701103	 1.669286171	 0.4669570901	-0.409216
C	-0.1037434871	 0.1885557169	 0.286444352	-0.017258
C	 0.8658059025	-0.6739638325	-0.4923937043	-0.356337
C	 0.7559346069	-0.8382580895	 1.0018819597	 0.307179
O	 1.7807946974	-0.2981463923	 1.7995051133	-0.459647
C	 0.0924645821	-2.0398295845	 1.598870526	 0.287464
C	-0.1752368483	-2.055023493	 3.0800104452	-0.480617
N	-0.243300445	-2.9792063407	 0.7979179094	-0.179052
O	-0.9231906028	-4.0108534853	 1.4665965216	-0.400312
H	 1.1965688906	 1.8712589148	 0.6492925599	 0.130493
H	-0.1708402563	 2.2230363753	-0.4260705149	 0.114512
H	-0.4267853235	 2.0629692006	 1.3181296545	 0.117206
H	-1.1471795033	-0.1002680544	 0.1938270006	 0.09363
H	 0.4839261737	-1.4665763198	-1.1228024605	 0.131907
H	 1.7736807886	-0.1918235251	-0.8409809623	 0.106931
H	 2.5555835698	-0.8625549008	 1.7011295184	 0.286216
H	 0.3183588366	-1.2152157026	 3.5677433157	 0.138081
H	-1.2534462473	-2.0055111516	 3.2678118605	 0.14276
H	 0.1726272615	-2.9942316214	 3.519650679	 0.141874
H	-1.0868904566	-4.6379488748	 0.754492096	 0.304185
47.0738	89.5479	128.0002	177.7137	187.9165	250.4343	285.4597	312.8678	337.6791	357.3476	385.7855	443.7374	449.7663	522.0185	579.3637	601.9339	739.2383	800.7495	868.0501	895.0089	935.2756	958.5633	1017.8788	1033.8941	1053.3747	1053.5946	1087.3439	1131.1704	1173.1368	1192.754	1264.6278	1303.5178	1332.6096	1391.878	1394.9043	1405.6647	1423.5581	1473.2886	1480.647	1487.3459	1494.2119	1501.8307	1715.6182	3034.5537	3046.0477	3091.3527	3101.9145	3126.0748	3137.6626	3149.4286	3159.7801	3237.4686	3795.0508	3820.6946
CC1CC1(O)C(C)=NO	C[C@H]1C[C@]1(O)C(=NO)C	
InChI=1S/C6H11NO2/c1-4-3-6(4,8)5(2)7-9/h4,8-9H,3H2,1-2H3	InChI=1S/C6H11NO2/c1-4-3-6(4,8)5(2)7-9/h4,8-9H,3H2,1-2H3/t4-,6+/m0/s1
