21
gdb 78021	2.53449	1.46804	1.29531	2.2527	77.7	-0.2387	0.0634	0.3022	1104.5649	0.183145	-424.225689	-424.216863	-424.215919	-424.258458	34.985	
C	-0.0283003822	 1.4946667527	-0.0622525447	-0.481
C	-0.0263714526	-0.0142314607	 0.0052128168	 0.289344
C	-1.3151380965	-0.7450359276	-0.3670310638	-0.260594
C	-1.2617952959	-2.1241773949	 0.3263354876	-0.255757
C	-0.1984581214	-2.0174123222	 1.4544393543	 0.09476
O	 0.6876403628	-3.1513353748	 1.4971014442	-0.44123
C	 0.6254749273	-0.7828179026	 1.1506243019	-0.146556
C	 1.2664014965	-0.7615546536	-0.2158922913	 0.072895
O	 1.3241218472	-1.9147683941	-1.0040552226	-0.437103
H	 0.9347967705	 1.911368977	 0.2492332372	 0.114758
H	-0.2230746291	 1.8421588479	-1.0837963675	 0.120291
H	-0.801851371	 1.9219063516	 0.5871523964	 0.112107
H	-2.1649240997	-0.1575176204	 0.0002755939	 0.094189
H	-1.4371931549	-0.8399598817	-1.4511645083	 0.108668
H	-2.2380711861	-2.4248351093	 0.7186944706	 0.09
H	-0.9346212239	-2.8896325931	-0.3796582524	 0.113041
H	-0.681585722	-1.9089242877	 2.4354443782	 0.072547
H	 0.1557832821	-3.9412245005	 1.6408381164	 0.285178
H	 1.1257135752	-0.2843830686	 1.9741078947	 0.079752
H	 2.1523195934	-0.1326350396	-0.3077189829	 0.081651
H	 1.4522767501	-2.6545050878	-0.3940577585	 0.293058
137.7186	161.9193	192.8229	219.2787	245.4142	288.0096	335.9822	388.0311	453.8861	475.1603	526.4346	542.5701	586.7234	709.6915	726.106	786.2974	839.6283	874.364	922.793	949.6755	994.1934	1009.8452	1024.5251	1046.9803	1080.7932	1085.2081	1131.1292	1146.169	1200.7889	1229.9561	1235.561	1260.9881	1287.2558	1318.1261	1337.0436	1345.3472	1360.5033	1399.4617	1414.7729	1419.5274	1455.0585	1479.9714	1489.5909	1497.0001	1505.4762	2997.5768	3019.3023	3031.5129	3058.5961	3071.3144	3078.3943	3091.8134	3098.3217	3116.4136	3163.6124	3736.8723	3809.9458
CC12CCC(O)C1C2O	C[C@]12CC[C@@H](O)[C@H]1[C@H]2O	
InChI=1S/C7H12O2/c1-7-3-2-4(8)5(7)6(7)9/h4-6,8-9H,2-3H2,1H3	InChI=1S/C7H12O2/c1-7-3-2-4(8)5(7)6(7)9/h4-6,8-9H,2-3H2,1H3/t4-,5+,6-,7+/m1/s1
