20
gdb 90681	3.55783	1.09315	1.01793	3.2337	80.49	-0.2336	0.0291	0.2627	1266.4419	0.171137	-403.158493	-403.149403	-403.148459	-403.192635	34.386	
C	-0.0596415792	 1.5318390929	 0.0736417363	-0.411826
C	 0.022788152	 0.014618557	-0.0411645534	 0.043755
C	 1.0960464515	-0.4987352343	-1.059612003	-0.244137
C	 1.8814722979	-1.1196951456	 0.1038340895	-0.078265
C	 0.8362551557	-0.6349923853	 1.0953875672	-0.080732
C	 1.0630105996	-2.1208341303	 0.8992238087	-0.125906
C	 0.0713768332	-3.0830043856	 0.314665867	 0.410524
N	 0.0910004274	-4.3232668072	 0.8983919254	-0.532948
O	-0.7089800553	-2.8204521146	-0.5848431979	-0.376249
H	 0.9305583794	 1.973844522	 0.2371421864	 0.108202
H	-0.4759042478	 1.9698119445	-0.8399385932	 0.114305
H	-0.7002875942	 1.8320003804	 0.9107913712	 0.110173
H	-0.9688468674	-0.4149556811	-0.1875125527	 0.097743
H	 0.7479600323	-1.1820984431	-1.8342170106	 0.120827
H	 1.6456085489	 0.3281949676	-1.5179144136	 0.092155
H	 2.9615943729	-1.1341345562	 0.1971992175	 0.083552
H	 0.9729738757	-0.2038038607	 2.0818321691	 0.08147
H	 1.6429269222	-2.5403701159	 1.7188390879	 0.074881
H	 0.813736494	-4.6050472249	 1.5366042854	 0.25532
H	-0.4875036489	-5.0370540096	 0.4858751627	 0.257154
38.4429	131.7449	176.8127	192.2541	245.6109	259.2755	305.0817	340.2878	423.4512	474.3058	571.3517	663.9717	699.6925	760.0107	781.6756	801.9104	853.0563	878.533	897.6016	944.4472	976.0152	995.1763	1012.3615	1070.0487	1075.7706	1082.3393	1122.1904	1140.1693	1169.0515	1202.5099	1251.8448	1264.6664	1286.1958	1298.8106	1333.6451	1370.1405	1409.1571	1460.0219	1480.1316	1494.6157	1500.437	1615.0407	1777.0647	3019.9616	3063.8753	3079.8228	3092.7614	3109.8361	3124.0825	3134.867	3157.2289	3172.8903	3600.8157	3737.4801
CC1CC2C1C2C(N)=O	C[C@H]1C[C@H]2[C@@H]1[C@H]2C(=O)N	
InChI=1S/C7H11NO/c1-3-2-4-5(3)6(4)7(8)9/h3-6H,2H2,1H3,(H2,8,9)	InChI=1S/C7H11NO/c1-3-2-4-5(3)6(4)7(8)9/h3-6H,2H2,1H3,(H2,8,9)/t3-,4-,5+,6-/m0/s1
