23
gdb 101259	2.67352	1.07493	0.94911	1.6994	82.84	-0.2506	0.0778	0.3284	1405.1474	0.201624	-425.406016	-425.394863	-425.393919	-425.442382	40.073	
C	 0.465480142	 1.8265900078	-0.6950798201	-0.233537
O	-0.1576107508	 0.5951673605	-0.9768550442	-0.247042
C	 0.7382680173	-0.5000766823	-1.1505049481	 0.093144
C	 1.3341041018	-1.0066050724	 0.1650938617	-0.402291
C	-0.007743919	-1.5896667592	-1.9252319647	-0.0271
O	-0.2607422492	-2.843906702	-1.2795448445	-0.28894
C	-1.3905337698	-2.0411053091	-1.6682778332	 0.414035
C	-2.2357069034	-1.4997291754	-0.5361085357	-0.444908
C	-2.1835712633	-2.6130893447	-2.8268113957	-0.452935
H	 0.9533665522	 1.8433941847	 0.290120035	 0.108942
H	 1.2198800851	 2.0819847207	-1.4562917595	 0.102547
H	-0.3160777317	 2.5906650055	-0.705680092	 0.126869
H	 1.5672294575	-0.1596233597	-1.793422576	 0.065381
H	 0.555680141	-1.3611106894	 0.8430336986	 0.134573
H	 2.0087434524	-1.8446270416	-0.0315225041	 0.128401
H	 1.9075238191	-0.2190971949	 0.6617723733	 0.109238
H	 0.345261584	-1.7061713007	-2.9515018613	 0.080573
H	-1.6306223428	-1.0815876576	 0.2658004561	 0.132759
H	-2.8948551805	-0.7073697474	-0.9036125064	 0.122407
H	-2.8629479562	-2.3017390624	-0.1304281824	 0.112028
H	-2.854064277	-3.4054907053	-2.4760068224	 0.121738
H	-2.7986039003	-1.8378183215	-3.2961129699	 0.121079
H	-1.5194629883	-3.0387502938	-3.5829386642	 0.123041
54.0344	76.7967	121.5996	155.7905	175.0453	193.9266	209.4368	230.8567	289.6584	321.5294	371.263	372.6848	405.3607	440.6462	522.7667	680.7014	718.4798	767.3269	846.6407	926.8783	940.7954	950.5216	1011.3272	1023.8127	1053.6511	1099.4705	1130.9518	1140.3417	1148.2343	1180.8396	1184.9414	1224.3789	1265.1668	1359.6636	1370.1065	1388.1346	1407.446	1408.8344	1423.5512	1456.6231	1468.2101	1476.8159	1480.5389	1483.7117	1486.1591	1494.5942	1500.6224	1512.1893	1516.7173	2954.9782	2975.9175	3026.2137	3032.8098	3041.3141	3053.7939	3085.4557	3095.9061	3103.3349	3109.5078	3119.6738	3122.0789	3141.6189	3170.444
COC(C)C1OC1(C)C	CO[C@@H](C)[C@H]1OC1(C)C	
InChI=1S/C7H14O2/c1-5(8-4)6-7(2,3)9-6/h5-6H,1-4H3	InChI=1S/C7H14O2/c1-5(8-4)6-7(2,3)9-6/h5-6H,1-4H3/t5-,6+/m0/s1
