20
gdb 80750	3.0131	1.21027	1.15469	4.1271	79.75	-0.2356	0.0267	0.2623	1170.6927	0.172599	-403.175087	-403.166565	-403.16562	-403.208573	31.909	
C	 0.3585343493	 1.6925402577	 0.1925751457	-0.424995
C	 0.1488341963	 0.1976938589	 0.0701100252	-0.004705
C	 1.2003744427	-0.7870852426	-0.3914176201	-0.07392
C	 2.6642293078	-0.3831725091	-0.3560022904	-0.191962
N	 2.9021100023	-0.0008682439	 1.03821737	-0.042983
C	 1.8431445987	-0.4375867018	 1.9520276646	-0.175445
C	 0.6947678	-0.8282152934	 1.038557066	-0.081246
C	 3.9982051253	 0.6626252101	 1.4789171466	 0.136686
O	 4.2169453069	 0.9446479872	 2.6408847546	-0.342004
H	 1.3495602002	 1.949545163	 0.5712514131	 0.136906
H	 0.2350114321	 2.1811787224	-0.7801871794	 0.118807
H	-0.3790285024	 2.1286117556	 0.8747895487	 0.12325
H	-0.8440171492	-0.0590185874	-0.2931508879	 0.089465
H	 0.9217236372	-1.547902268	-1.11110713	 0.091551
H	 3.2889916912	-1.2371818409	-0.6530112178	 0.113135
H	 2.9039375386	 0.4516056694	-1.025271037	 0.11859
H	 2.1702372782	-1.296915589	 2.5517470123	 0.117459
H	 1.6129050752	 0.3734419455	 2.6501719369	 0.132293
H	 0.040877099	-1.6216586109	 1.3808246685	 0.091839
H	 4.6851675406	 0.9333083073	 0.6512099004	 0.067279
51.8054	166.0118	179.7139	206.4163	224.7776	238.4812	330.7341	424.6978	454.943	562.534	680.6178	725.7286	765.6049	796.9865	863.3801	884.2907	954.7136	963.6748	1006.0709	1030.387	1037.5087	1071.4853	1082.5977	1119.5416	1133.2639	1141.0422	1204.7825	1219.5943	1229.8905	1239.7052	1332.9506	1338.1419	1362.3436	1371.4936	1407.7538	1420.3512	1444.1358	1448.4322	1498.2344	1502.8222	1520.1686	1525.6099	1787.9675	2923.0291	3000.5512	3021.7944	3037.0871	3047.1764	3074.0822	3091.0009	3121.2067	3138.9748	3172.9932	3182.9604
CC1C2CN(CC12)C=O	C[C@H]1[C@H]2CN(C[C@@H]12)C=O	
InChI=1S/C7H11NO/c1-5-6-2-8(4-9)3-7(5)6/h4-7H,2-3H2,1H3	InChI=1S/C7H11NO/c1-5-6-2-8(4-9)3-7(5)6/h4-7H,2-3H2,1H3/t5-,6+,7-
