15
gdb 99453	2.30156	0.86623	0.64871	2.6743	79.67	-0.2734	-0.0704	0.203	1642.4993	0.107867	-420.538795	-420.528655	-420.527711	-420.575495	33.793	
C	-0.1864197289	 1.3636635411	-0.1505619103	-0.237352
O	 0.1578328572	 0.00639102	 0.06397043	-0.222816
C	 0.7128945742	-0.6181514805	-1.0798451644	-0.24104
C	 1.2843149516	-1.9059903847	-0.6816969675	 0.308775
C	 1.7697767157	-2.9588015007	-0.3739131334	-0.39095
C	-0.2718738755	-0.8050409364	-2.161129813	 0.166741
C	-1.0737343561	-0.9413981854	-3.053470632	-0.007001
C	-2.0597970001	-1.1030437381	-4.0935619416	 0.021202
O	-1.8192089679	-1.5207421925	-5.2019336579	-0.222245
H	 0.6905677841	 1.9578768832	-0.4488318717	 0.113209
H	-0.9636396443	 1.4722794036	-0.9188550463	 0.121535
H	-0.5670864356	 1.7406885777	 0.8001216536	 0.140999
H	 1.5256117074	 0.0125951135	-1.4855710813	 0.133814
H	 2.1945427673	-3.8924030249	-0.0969039421	 0.209477
H	-3.084946849	-0.8069577758	-3.792753932	 0.10565
39.3292	70.0774	102.6415	110.2724	160.5953	193.5756	218.765	254.9083	359.7807	374.6839	470.5372	522.0378	570.8056	643.3883	668.6731	683.4403	839.3665	959.7532	1003.2251	1020.8547	1122.998	1136.4636	1181.3381	1210.7235	1318.2231	1338.1547	1421.1733	1476.3227	1486.0993	1508.8506	1771.0669	2253.3114	2324.7531	2924.7108	2932.941	2988.7432	3048.6545	3134.4912	3502.4526
COC(C#C)C#CC=O	CO[C@@H](C#C)C#CC=O	
InChI=1S/C7H6O2/c1-3-7(9-2)5-4-6-8/h1,6-7H,2H3	InChI=1S/C7H6O2/c1-3-7(9-2)5-4-6-8/h1,6-7H,2H3/t7-/m0/s1
