15
gdb 131347	4.39245	1.124	0.96158	3.3484	67.89	-0.2288	0.0145	0.2433	1181.4969	0.115013	-450.122771	-450.115219	-450.114275	-450.156212	27.998	
O	 0.1732981372	 1.300092311	-0.1935850306	-0.409538
C	 0.0869467613	-0.0331183691	-0.0880004172	 0.42102
N	-0.2848255214	-0.7772609219	-1.1125476373	-0.286982
N	-0.2280521998	-2.0247605856	-0.5532015826	-0.254738
C	 0.1604184936	-1.9588620314	 0.7281212262	 0.445412
N	 0.3736186843	-0.6930556865	 1.0673374461	-0.411388
N	 0.2865930737	-3.1200682684	 1.4944390961	-0.213537
C	 1.3632249921	-3.1088065695	 2.5087572504	-0.218332
C	-0.0494351322	-2.9851440988	 2.9287190002	-0.21836
H	 0.4593295892	 1.6269987303	 0.6673840048	 0.309163
H	-0.4604232239	-2.8441455913	-1.0890351734	 0.282278
H	 1.8874025164	-4.0535100808	 2.611810594	 0.12895
H	 1.9749879999	-2.2136281844	 2.5555048089	 0.148573
H	-0.3856312438	-2.0069692253	 3.2572540246	 0.148517
H	-0.5768050366	-3.8377720083	 3.3443538999	 0.128962
19.5417	158.5045	174.2472	319.7489	389.9667	396.6559	435.4248	488.5376	558.7565	625.4785	736.449	760.7026	782.0277	827.7976	836.5193	924.0609	1028.982	1046.4285	1076.8885	1114.1302	1141.9003	1146.7147	1189.3524	1189.4915	1217.4446	1257.7345	1332.9812	1420.4954	1479.6219	1492.1716	1505.3671	1581.9632	1636.4059	3124.229	3126.8553	3215.3747	3229.5519	3676.1974	3820.2632
OC1=NNC(=N1)N1CC1	Oc1n[nH]c(n1)N1CC1	
InChI=1S/C4H6N4O/c9-4-5-3(6-7-4)8-1-2-8/h1-2H2,(H2,5,6,7,9)	InChI=1S/C4H6N4O/c9-4-5-3(6-7-4)8-1-2-8/h1-2H2,(H2,5,6,7,9)
