14
gdb 24406	3.77971	1.69929	1.19242	1.6916	69.94	-0.1977	-0.0185	0.1792	953.934	0.103756	-436.713343	-436.70697	-436.706026	-436.74417	24.813	
C	 0.0937844828	 1.4737443898	 0.2115003026	-0.143385
O	 0.963261765	 2.1993662953	-0.7140347249	-0.268255
C	 1.9887810564	 1.4486260043	-1.0930956628	 0.40676
C	 2.100081536	 0.0934588404	-1.0979459371	 0.108526
C	 0.9589787127	-0.6842186646	-0.6706270975	-0.141988
C	-0.0455364184	-0.0027325732	-0.097794015	-0.12867
N	 3.3250087786	-0.2349676952	-1.6735970989	-0.315023
C	 3.8527760712	 0.9031904187	-1.9714330295	 0.034795
O	 3.0802561409	 2.0034162386	-1.6471835037	-0.187366
H	 0.5030268873	 1.6272133692	 1.2237883715	 0.122727
H	-0.8641411808	 1.9934213081	 0.1525759522	 0.135875
H	 0.9051459345	-1.7474553332	-0.873299938	 0.115575
H	-0.970748867	-0.4798985585	 0.2036947255	 0.107443
H	 4.8053679906	 1.1176028603	-2.4260703645	 0.152986
133.5719	177.8539	315.5741	414.5716	455.6503	523.7653	608.7783	650.9704	672.4905	731.3416	754.3427	778.1352	832.624	913.6997	936.1046	970.4929	998.6766	1025.1437	1060.7214	1163.3897	1188.3669	1265.9557	1291.7297	1294.1091	1368.4007	1405.3314	1479.7336	1506.9323	1542.694	1636.8039	1678.4184	2961.9942	3109.7901	3191.5505	3211.243	3292.584
C1OC2=C(C=C1)N=CO2	C1Oc2c(C=C1)nco2	
InChI=1S/C6H5NO2/c1-2-5-6(8-3-1)9-4-7-5/h1-2,4H,3H2	InChI=1S/C6H5NO2/c1-2-5-6(8-3-1)9-4-7-5/h1-2,4H,3H2
