19
gdb 7142	5.7376	0.88614	0.8328	2.3231	70.15	-0.247	0.0654	0.3124	1456.9584	0.164069	-402.254154	-402.244276	-402.243332	-402.290527	33.561	
C	 0.4768811407	 1.2466807743	 0.080243902	-0.370619
C	-0.4577728699	 0.0978757992	-0.3083071319	-0.142248
N	-0.0020087854	-0.6527641679	-1.4647691742	-0.359765
C	 0.6910453901	-1.8183865141	-1.3418178923	 0.519371
O	 0.8900978343	-2.418616464	-0.3076714334	-0.417586
O	 1.1199219989	-2.2292305833	-2.5637325856	-0.279562
C	 1.8411527876	-3.4718456495	-2.5693035821	-0.032139
C	 2.2412773562	-3.7606049003	-4.003860178	-0.391288
H	 1.4701734622	 0.8646521668	 0.3327897242	 0.134064
H	 0.5848910561	 1.9662876981	-0.7386892873	 0.110504
H	 0.0830111121	 1.7836781279	 0.9492524242	 0.11794
H	-0.5368701949	-0.6198002094	 0.5110698515	 0.146918
H	-1.4646092896	 0.4802971033	-0.51288463	 0.104968
H	-0.0050046935	-0.218499067	-2.3732736246	 0.247667
H	 2.7129698732	-3.3848590717	-1.9129666385	 0.118677
H	 1.2023324963	-4.2604666493	-2.1588515406	 0.119074
H	 1.3598122842	-3.845546592	-4.6459051065	 0.12683
H	 2.8789042362	-2.9647773067	-4.3996120832	 0.125927
H	 2.7955122452	-4.7026175745	-4.0527568637	 0.121267
31.1029	47.5951	76.279	126.5175	154.3967	237.336	257.4935	321.5169	358.5649	401.6457	465.7787	506.9276	705.6258	779.4091	803.2793	809.9285	885.2801	913.7233	992.0504	1061.0055	1099.2453	1133.31	1169.3494	1184.159	1185.6307	1248.599	1291.1068	1328.2027	1390.3278	1399.2669	1410.864	1420.8799	1479.7192	1485.8687	1492.697	1498.2391	1502.0245	1520.9408	1551.8245	1811.0004	3034.2642	3038.5238	3044.8969	3048.9388	3085.4043	3097.129	3115.3139	3119.5466	3123.2628	3126.4139	3645.6237
CCNC(=O)OCC	CCNC(=O)OCC	
InChI=1S/C5H11NO2/c1-3-6-5(7)8-4-2/h3-4H2,1-2H3,(H,6,7)	InChI=1S/C5H11NO2/c1-3-6-5(7)8-4-2/h3-4H2,1-2H3,(H,6,7)
