18
gdb 83804	2.40905	1.8804	1.5978	1.351	70.57	-0.2098	0.0543	0.2641	928.0281	0.149453	-439.009963	-439.002546	-439.001602	-439.041492	29.689	
O	 0.1116185095	 1.3995778834	-0.0202142054	-0.415201
C	 0.0816320207	 0.0021795545	 0.0406948879	 0.024373
C	-0.4580700403	-0.7169394127	 1.2589276014	 0.058123
O	-0.9701577213	-0.0222678651	 2.3555345478	-0.268594
C	-1.9319237353	 1.0144466791	 2.1069842825	-0.101164
C	-2.9902231951	 0.6165888432	 1.0950747326	-0.035859
C	-2.9286566721	 1.1550549619	-0.2997172	-0.252142
N	-2.5795573107	-0.2337080576	-0.0242530661	-0.091061
C	-1.243147478	-0.7574703543	-0.0367286527	-0.074417
H	 0.7357892423	 1.706881528	 0.6463068426	 0.297133
H	 0.9017987749	-0.4860343385	-0.4881703756	 0.090813
H	 0.0468241823	-1.6102503805	 1.6118050839	 0.104302
H	-2.3959360372	 1.1956186707	 3.0795696442	 0.112691
H	-1.4176566394	 1.9281610522	 1.7955830267	 0.102003
H	-3.9555908885	 0.3402313474	 1.5135355625	 0.092357
H	-3.8463636643	 1.2808734385	-0.8687497105	 0.11034
H	-2.134656201	 1.857981651	-0.5250671076	 0.144052
H	-1.1835650367	-1.6722085011	-0.6203961541	 0.102249
145.2416	183.1513	205.31	290.0778	339.3581	406.5558	452.7763	530.9426	587.8047	636.8761	696.8376	744.4224	772.1053	812.241	847.8746	881.7054	956.2474	972.2086	998.5097	1053.0248	1073.3804	1096.8696	1129.8661	1131.8233	1145.1827	1153.8146	1174.7759	1187.8619	1268.0302	1290.4739	1303.7292	1343.0472	1365.0065	1375.0229	1403.0809	1419.9266	1443.1642	1494.5887	1510.4396	3054.6339	3081.1682	3098.1825	3112.8997	3124.8651	3130.0476	3161.8	3218.0769	3797.1789
OC1C2OCC3CN3C12	O[C@H]1[C@H]2OC[C@H]3CN3[C@@H]12	
InChI=1S/C6H9NO2/c8-5-4-6(5)9-2-3-1-7(3)4/h3-6,8H,1-2H2	InChI=1S/C6H9NO2/c8-5-4-6(5)9-2-3-1-7(3)4/h3-6,8H,1-2H2/t3-,4+,5-,6+,7?/m1/s1
