18
gdb 121599	4.55931	0.70511	0.61771	0.4938	71.08	-0.2423	-0.0636	0.1787	1777.7532	0.144458	-476.260885	-476.250475	-476.249531	-476.29754	35.707	
C	-0.0100176252	 1.4740897531	-0.0092227673	-0.385311
C	 0.0202686275	-0.0439058649	-0.0285881493	-0.027982
O	 0.6876501941	-0.4619667613	-1.2065267202	-0.232478
C	 0.7717948053	-1.8473532383	-1.3243671458	-0.152083
C	 1.4949415672	-2.2135303657	-2.6014667712	 0.26247
O	 1.9326881275	-1.4188745164	-3.3967740373	-0.288688
C	 1.6430684985	-3.734994939	-2.8314085865	 0.328742
N	 2.2931606355	-4.014256234	-3.9805067004	-0.52099
O	 1.2046418874	-4.5440698229	-2.0346035032	-0.35262
H	 1.0062767837	 1.8774833131	-0.0182359444	 0.13096
H	-0.5383402755	 1.8577422068	-0.8863488832	 0.130956
H	-0.5199469733	 1.832289243	 0.8899276617	 0.115956
H	 0.5423646018	-0.4352284231	 0.8605983019	 0.090315
H	-1.002941646	-0.4549773735	-0.0078876013	 0.090318
H	 1.3106614311	-2.3177648439	-0.482761052	 0.129645
H	-0.2177938783	-2.3375498293	-1.3423653751	 0.129672
H	 2.6073106305	-3.2494940443	-4.5563927478	 0.280838
H	 2.456348598	-4.9691333495	-4.2505286384	 0.270281
53.0679	62.9188	87.9839	101.8115	141.6278	223.914	243.326	313.3251	314.9008	346.5459	416.5442	449.7141	539.5686	615.6555	635.7518	728.5799	814.9249	822.7515	918.0104	1004.0446	1032.4999	1079.6718	1104.437	1154.4792	1187.3408	1194.5402	1232.2233	1297.8297	1356.4912	1390.6245	1407.886	1438.2739	1469.8463	1483.1369	1499.4816	1530.6034	1588.6027	1798.9869	1824.3539	2954.0904	2964.3023	2974.138	2986.1424	3047.1312	3121.8068	3125.1108	3594.4197	3736.533
CCOCC(=O)C(N)=O	CCOCC(=O)C(=O)N	
InChI=1S/C5H9NO3/c1-2-9-3-4(7)5(6)8/h2-3H2,1H3,(H2,6,8)	InChI=1S/C5H9NO3/c1-2-9-3-4(7)5(6)8/h2-3H2,1H3,(H2,6,8)
