16
gdb 57248	2.6317	1.29915	1.07483	3.6053	69.74	-0.2728	-0.1169	0.1559	1140.7545	0.120423	-437.915048	-437.905194	-437.90425	-437.949893	34.313	
C	-0.0453759862	 1.4723046952	-0.4562959029	-0.432725
C	 0.0101143711	-0.031254275	-0.0738561482	-0.065163
C	 0.7759599714	-0.2321172391	 1.2612883717	-0.432754
C	-1.3624208039	-0.5358689628	 0.0817188018	 0.305734
N	-2.4477374728	-0.8958268767	 0.2432027916	-0.328983
C	 0.6974998688	-0.8300698817	-1.1958256255	 0.303776
O	 0.1682199849	-1.7140610328	-1.8208524974	-0.259443
C	 2.158496277	-0.5068629881	-1.5737798843	 0.097118
O	 2.8474672898	 0.3361416884	-1.0649109076	-0.220329
H	 0.9656057623	 1.8700590832	-0.548832359	 0.15902
H	-0.5801031157	 1.6184657516	-1.3984106498	 0.144757
H	-0.5749539918	 2.02399789	 0.3242183952	 0.147767
H	 0.2555673288	 0.3021393118	 2.0599473517	 0.147726
H	 0.8208937308	-1.2899441221	 1.5329814666	 0.144738
H	 1.7887822882	 0.1616116882	 1.1719662945	 0.159058
H	 2.5047041674	-1.1670909503	-2.3955099884	 0.129703
56.8055	113.1374	143.5898	193.0929	199.6361	213.7275	257.227	257.2789	308.12	337.4245	442.814	535.8574	548.5604	618.1974	621.1199	672.4407	831.1321	954.7754	958.9566	998.5662	1049.5679	1116.6387	1135.4433	1218.748	1284.7325	1369.1318	1393.2962	1417.6067	1485.0243	1490.6398	1503.0866	1511.9034	1803.7377	1823.5833	2364.7959	2938.9299	3056.1166	3057.1275	3128.8602	3129.9255	3157.7746	3160.2877
CC(C)(C#N)C(=O)C=O	CC(C)(C#N)C(=O)C=O	
InChI=1S/C6H7NO2/c1-6(2,4-7)5(9)3-8/h3H,1-2H3	InChI=1S/C6H7NO2/c1-6(2,4-7)5(9)3-8/h3H,1-2H3
