19
gdb 46255	2.90665	1.5008	1.24734	2.7589	79.51	-0.2257	-0.0209	0.2048	1068.7612	0.159283	-385.868312	-385.860401	-385.859457	-385.901177	30.777	
O	 0.0327304572	 0.0508137015	-0.3243825106	-0.308478
C	-0.024659605	 1.2254027027	-0.0897093199	 0.352413
C	-1.1557371993	 2.181689085	 0.3272512105	-0.341075
C	-0.060856719	 3.2579009899	 0.6058733451	-0.326308
C	 1.0313689268	 2.3351625491	-0.0136734524	 0.254761
C	 2.4307526488	 2.1396712576	 0.6523424674	-0.316651
C	 3.108125465	 2.5673602882	-0.6554644219	-0.035537
C	 2.6623079076	 1.681540297	-1.7845253455	-0.283043
C	 1.744044839	 2.77519041	-1.3092912567	-0.114988
H	-1.8264603053	 2.4218321994	-0.5038275932	 0.132376
H	-1.7630947981	 1.8477998299	 1.1726013584	 0.129431
H	-0.2008088119	 4.2152371797	 0.0998978868	 0.10826
H	 0.0944913822	 3.4444911965	 1.671314538	 0.109657
H	 2.572401309	 2.8554193868	 1.4661980929	 0.107828
H	 2.6603040643	 1.1325044704	 1.0147362827	 0.110769
H	 3.9963241311	 3.1826566413	-0.7277166573	 0.087053
H	 3.1415783052	 1.8718310529	-2.7395822763	 0.111493
H	 2.4044350562	 0.6415054909	-1.6064820987	 0.135633
H	 1.3952224262	 3.5712746811	-1.9569381594	 0.086409
53.2267	122.9012	152.1458	278.962	314.9113	409.0976	429.6177	508.3496	589.0676	707.7459	725.0503	748.2241	789.662	811.5301	857.7145	895.769	929.0545	938.6174	964.8564	982.3072	1030.8364	1040.4738	1059.0852	1064.448	1088.3434	1127.1025	1146.3171	1165.9715	1177.0394	1208.0173	1224.4253	1227.1896	1251.2136	1281.579	1293.0723	1351.7584	1438.0099	1473.8994	1488.222	1493.9514	1874.7423	3046.9561	3057.8913	3068.3642	3103.8821	3107.3655	3122.4722	3124.8147	3173.0616	3187.0649	3210.8471
O=C1CCC11CC2CC12	O=C1CC[C@]21C[C@H]1C[C@@H]21	
InChI=1S/C8H10O/c9-7-1-2-8(7)4-5-3-6(5)8/h5-6H,1-4H2	InChI=1S/C8H10O/c9-7-1-2-8(7)4-5-3-6(5)8/h5-6H,1-4H2/t5-,6-,8+/m1/s1
