21
gdb 105073	2.58199	1.16479	1.07185	0.5736	78.34	-0.2481	0.0714	0.3195	1259.7216	0.180434	-424.185569	-424.175728	-424.174784	-424.220795	36.42	
C	-1.8096234547	 0.1360299141	 1.8737733619	-0.422937
C	-0.8251116379	-0.6753496745	 1.0733291894	 0.089583
O	-0.0359700912	 0.0245598253	 0.1073774343	-0.259031
C	 0.6422638472	-0.5799928206	 1.2196111942	-0.054589
C	 1.3524111891	 0.3432140514	 2.1843663467	 0.310589
C	 1.6682247842	 1.7083077746	 1.5935145777	-0.142123
O	 2.3929405494	 2.4694178432	 2.5492094264	-0.425771
C	 1.0563495857	 0.2409664431	 3.6648714617	-0.292125
C	 2.359228199	-0.2836593265	 3.1160466455	-0.312131
H	-1.344331951	 1.0298320055	 2.2934902015	 0.136651
H	-2.6476378896	 0.444135664	 1.2396958279	 0.126372
H	-2.2158489913	-0.4615363753	 2.6970178201	 0.11991
H	-1.215213473	-1.6249948799	 0.6995931568	 0.085362
H	 1.2187904337	-1.4615307224	 0.930386407	 0.090016
H	 2.2513750229	 1.5740905015	 0.6686569357	 0.095224
H	 0.7324031186	 2.2106511558	 1.3119245823	 0.099795
H	 2.558726601	 3.3375251843	 2.1725677025	 0.29095
H	 1.0925907208	 1.1558932078	 4.2441890318	 0.127317
H	 0.3087649231	-0.4775103036	 3.9832313711	 0.104673
H	 2.493447724	-1.359776515	 3.0591128336	 0.10285
H	 3.25750454	 0.2812912175	 3.3323249622	 0.129417
29.7575	108.7149	169.8345	180.3559	211.5999	222.4689	269.5784	290.6229	365.4389	380.2777	415.1027	508.2234	597.6526	710.6926	786.9726	795.4585	837.7142	865.0396	932.8171	939.3411	972.9382	1002.5586	1044.0926	1063.2521	1075.7674	1084.0051	1098.9712	1112.2487	1163.9103	1174.7062	1201.4355	1212.9796	1263.2427	1276.0468	1323.5407	1338.5364	1393.3879	1418.4061	1452.3263	1455.5589	1458.778	1483.5758	1497.6272	1501.2322	1519.1161	2976.6651	3019.5408	3039.4405	3070.8111	3084.3581	3099.4331	3127.9483	3137.3671	3138.677	3221.0109	3234.2477	3845.9873
CC1OC1C1(CO)CC1	C[C@H]1O[C@H]1C1(CO)CC1	
InChI=1S/C7H12O2/c1-5-6(9-5)7(4-8)2-3-7/h5-6,8H,2-4H2,1H3	InChI=1S/C7H12O2/c1-5-6(9-5)7(4-8)2-3-7/h5-6,8H,2-4H2,1H3/t5-,6-/m1/s1
