21
gdb 70432	2.84764	1.42016	1.24323	1.3382	82.17	-0.2285	0.0726	0.3011	1114.8136	0.182875	-387.047832	-387.03955	-387.038606	-387.080375	33.311	
O	-0.1402013624	 1.4007750939	 0.0528410154	-0.454577
C	 0.050782852	 0.0308546626	 0.0425621002	 0.333861
C	-0.8330396003	-0.8320328655	 0.8781073	-0.315413
C	 0.66699379	-0.9272018088	 1.0721367965	-0.138712
C	 1.2637475326	-1.7616323073	-0.0663463889	-0.308514
C	 0.6734257227	-0.7519759198	-1.1116557808	 0.316905
C	-0.1001179322	-1.2432968733	-2.3651498191	-0.291673
C	 1.1576450592	-0.9376726201	-3.2219889049	-0.210584
C	 1.6906452755	-0.0575834849	-2.0595047638	-0.301475
H	 0.7120079683	 1.8229581409	-0.1035599769	 0.28455
H	-1.3556547974	-0.2866535872	 1.6575117282	 0.116217
H	-1.393984745	-1.6605351995	 0.44937195	 0.102606
H	 1.1292492469	-0.7285309875	 2.0311873635	 0.08626
H	 2.3568922321	-1.779777821	-0.0739776481	 0.098668
H	 0.8938996196	-2.7909022206	-0.1384926944	 0.093177
H	-0.469471735	-2.2721021578	-2.3555128565	 0.093704
H	-0.9336579901	-0.5753469895	-2.6046927889	 0.106496
H	 1.7748454797	-1.8273743336	-3.3737599085	 0.103684
H	 1.0063286514	-0.4527292547	-4.1888948886	 0.097315
H	 1.4342545137	 0.997117147	-2.2115592509	 0.093473
H	 2.7520906887	-0.1267416233	-1.8040275535	 0.094032
104.1466	123.3236	189.3017	261.2168	322.6496	362.9505	391.146	417.5875	484.201	533.6618	629.0546	699.8165	781.2758	800.1817	842.3538	865.2884	885.5907	898.9709	917.5102	939.5634	964.4984	972.2394	1010.9125	1024.4409	1048.3948	1092.0686	1101.3166	1151.9322	1175.0075	1187.9435	1203.9121	1217.2863	1248.7677	1255.2053	1269.7816	1276.7048	1285.5433	1291.0801	1345.4204	1411.0913	1470.6885	1479.2858	1485.1411	1502.9599	1506.5956	3032.3693	3033.4639	3048.6158	3061.0274	3085.2067	3091.3097	3096.9804	3099.3978	3117.2967	3186.0239	3201.1501	3792.1992
OC12CC1CC21CCC1	O[C@]12C[C@H]1CC12CCC1	
InChI=1S/C8H12O/c9-8-5-6(8)4-7(8)2-1-3-7/h6,9H,1-5H2	InChI=1S/C8H12O/c9-8-5-6(8)4-7(8)2-1-3-7/h6,9H,1-5H2/t6-,8-/m1/s1
