16
gdb 19180	3.72727	1.97535	1.75329	2.534	69.53	-0.2449	0.0033	0.2481	807.6636	0.131069	-346.593786	-346.587064	-346.58612	-346.624324	26.581	
C	-0.1398110526	 1.6250637625	-0.0090009026	-0.432187
C	 0.0225204111	 0.1138581488	 0.0209816154	 0.042181
C	 1.1851189123	-0.5785923154	-0.7800092619	-0.194774
C	 2.4238765346	-0.0501391049	-0.0810146467	-0.088848
C	 2.1012611352	-0.0591768295	 1.226542909	-0.08884
C	 0.6810732965	-0.5922530241	 1.2621538114	-0.194787
C	 0.9259278848	-1.7716718749	 0.2313822869	 0.424577
O	 0.8870346475	-2.9552046876	 0.2138789114	-0.303406
H	 0.7963586902	 2.1364548341	 0.2255658299	 0.127562
H	-0.4726636202	 1.9543607027	-0.9987170437	 0.1197
H	-0.896078111	 1.9429011965	 0.7161218728	 0.119699
H	-0.9309237443	-0.3742225266	-0.2176352099	 0.087677
H	 1.1750586097	-0.6952137668	-1.8612244241	 0.081
H	 3.3747698391	 0.1576963598	-0.5496836158	 0.109716
H	 2.724347629	 0.1395214641	 2.0863858554	 0.109725
H	 0.1694567881	-0.7224522988	 2.2129562625	 0.081005
148.567	230.2339	251.3757	263.7436	395.0938	512.9786	587.9793	600.6447	701.2584	733.1942	759.5869	792.4612	819.8291	902.9689	914.1238	940.0082	957.3121	998.3398	1041.7883	1068.67	1095.7413	1109.8731	1134.1339	1167.7978	1176.6019	1254.6343	1257.5373	1339.545	1388.332	1407.8745	1494.4012	1499.285	1586.0246	1918.8429	3032.5531	3041.8843	3099.936	3128.2432	3150.2719	3152.2905	3226.4043	3250.3422
CC1C2C=CC1C2=O	C[C@H]1[C@H]2C=C[C@@H]1C2=O	
InChI=1S/C7H8O/c1-4-5-2-3-6(4)7(5)8/h2-6H,1H3	InChI=1S/C7H8O/c1-4-5-2-3-6(4)7(5)8/h2-6H,1H3/t4-,5+,6-
