18
gdb 116586	5.71282	0.79239	0.70869	1.1525	76.47	-0.2505	-0.0416	0.2089	1578.122	0.14587	-439.121456	-439.112266	-439.111322	-439.157869	32.354	
C	-0.6455469602	 1.3864536684	-0.0768584245	-0.374174
C	 0.4594148355	 0.3613222955	 0.1586004396	-0.118903
N	 1.1005469681	 0.0037048312	-1.1055694916	-0.326208
C	 2.1148511709	-0.7356676647	-1.0866158679	 0.432961
C	 2.8985427482	-1.1984882028	-2.2902154437	-0.45177
C	 4.0257327613	-2.0350808657	-1.7074178192	 0.377244
O	 4.9105996264	-2.5987757824	-2.2907067362	-0.291978
C	 3.8272551078	-2.0325383067	-0.189685071	-0.187528
O	 2.6715119431	-1.2446045633	 0.0706758735	-0.251114
H	-0.2375999145	 2.299020657	-0.5218947497	 0.118625
H	-1.4002282792	 0.989494507	-0.7622492442	 0.120151
H	-1.1369676422	 1.6514943767	 0.8647396878	 0.105137
H	 1.2006263366	 0.7546827728	 0.8683483823	 0.10461
H	 0.0427684056	-0.5404666935	 0.629426742	 0.105466
H	 2.2850575766	-1.7968312977	-2.9707513979	 0.170733
H	 3.2928898366	-0.3600307651	-2.8714483421	 0.170818
H	 3.6812974038	-3.0530382541	 0.1829364777	 0.148009
H	 4.7012391559	-1.6027904525	 0.3134985252	 0.147921
12.1338	46.643	132.4148	141.444	187.2699	280.0576	336.77	389.1788	450.0758	515.2275	575.1296	629.0742	714.9102	787.1103	799.3836	812.7207	835.3521	920.0055	1023.2858	1058.812	1092.5636	1110.6714	1133.8659	1141.2918	1145.1247	1213.9351	1218.8848	1250.9406	1298.2707	1352.5771	1382.4269	1413.2174	1420.578	1474.5247	1483.4267	1489.1962	1504.8342	1801.1609	1871.8971	2997.6127	3026.8401	3036.4105	3039.2223	3069.7052	3078.7153	3107.9188	3111.2904	3115.284
CCN=C1CC(=O)CO1	CCN=C1CC(=O)CO1	
InChI=1S/C6H9NO2/c1-2-7-6-3-5(8)4-9-6/h2-4H2,1H3	InChI=1S/C6H9NO2/c1-2-7-6-3-5(8)4-9-6/h2-4H2,1H3
