17
gdb 77328	2.51485	1.49173	1.14577	3.6113	74.56	-0.2408	0.0307	0.2715	1100.2352	0.136578	-418.01927	-418.010519	-418.009574	-418.052734	32.177	
C	-0.0846884786	 1.4001547244	-0.0424818807	-0.345106
N	-0.0446905592	-0.0405939983	-0.1512554107	-0.087282
C	-1.2299002839	-0.8732395515	 0.0191578088	-0.182931
C	-0.6216454699	-2.296528549	-0.1375850242	-0.182069
N	 0.7397022436	-2.077963703	 0.3182397418	-0.354132
C	 1.1136230509	-0.7514940912	 0.134555875	 0.455278
O	 2.2345754932	-0.2985007649	 0.208749502	-0.420052
C	-1.8966290373	-0.6729910517	 1.3127604107	 0.366069
C	-2.4484763767	-0.4924868827	 2.3650084256	-0.479302
H	 0.9469850999	 1.7543798694	-0.069496524	 0.164929
H	-0.639238976	 1.8365215781	-0.880581926	 0.1191
H	-0.5531691682	 1.7250050902	 0.8955268017	 0.129387
H	-1.9535541764	-0.6782830404	-0.7811758442	 0.114924
H	-1.1517087654	-3.0297293571	 0.4731999855	 0.130328
H	-0.6709273227	-2.605031154	-1.1912715893	 0.11019
H	 1.4538193873	-2.7680540169	 0.1476357565	 0.254254
H	-2.9312540407	-0.3379624815	 3.2986159015	 0.206414
81.1803	120.8055	167.6578	187.2817	227.7931	267.7899	302.6868	442.0264	477.0581	519.0111	568.8888	638.5693	666.0113	686.6066	750.2956	764.6081	826.9429	847.8345	1000.0739	1014.0699	1089.8372	1101.0288	1160.0951	1177.619	1228.8	1247.635	1278.9688	1324.5032	1363.2557	1410.8911	1428.4219	1456.5626	1491.2875	1520.6578	1526.6484	1836.5799	2232.3936	3001.4867	3016.3695	3033.3545	3072.3087	3104.7296	3145.6792	3500.6618	3643.7342
CN1C(CNC1=O)C#C	CN1[C@@H](CNC1=O)C#C	
InChI=1S/C6H8N2O/c1-3-5-4-7-6(9)8(5)2/h1,5H,4H2,2H3,(H,7,9)	InChI=1S/C6H8N2O/c1-3-5-4-7-6(9)8(5)2/h1,5H,4H2,2H3,(H,7,9)/t5-/m1/s1
