14
gdb 128730	2.75598	1.64063	1.03513	1.7044	69.01	-0.2555	-0.0507	0.2048	1077.1228	0.101466	-469.975748	-469.968065	-469.967121	-470.008366	27.773	
C	-0.0980253942	 1.3689294332	 0.0029161826	-0.239857
O	-0.0449893002	-0.0625083303	 0.0667153438	-0.217967
C	 0.6491808363	-0.602887084	 1.0564525125	 0.435682
N	 1.2385465955	 0.1712093321	 1.9072142861	-0.204757
O	 1.9570951836	-0.4797481183	 2.9309163861	-0.221541
C	 1.9799604167	-1.8173891195	 2.9523515194	 0.161738
N	 1.4223585821	-2.6317305299	 2.146763062	-0.324367
C	 0.6814914682	-2.0851389692	 1.0901464958	 0.274003
N	 0.0682331411	-2.76359946	 0.2059125464	-0.490071
H	 0.9060874081	 1.7869731203	-0.1088941364	 0.147316
H	-0.7091078218	 1.5934485588	-0.870449202	 0.145216
H	-0.5523034242	 1.7783206159	 0.9093016455	 0.147317
H	 2.5720637021	-2.1610733134	 3.7976063742	 0.155565
H	 0.2119050168	-3.7576553457	 0.4032737941	 0.231724
78.2587	137.4438	190.4916	222.0175	313.4615	360.8854	426.1383	499.3816	542.6201	570.5661	604.1336	749.6759	808.3301	928.2395	934.3726	960.4205	979.7557	1005.1936	1063.6971	1175.9688	1179.6329	1215.284	1313.5576	1390.5946	1437.1577	1480.5067	1492.3486	1502.4136	1622.7219	1674.0704	1716.1333	3048.5526	3122.6422	3166.0752	3175.2789	3450.3658
COC1=NOC=NC1=N	COC1=NO[CH]N=C1[NH]	
InChI=1S/C4H5N3O2/c1-8-4-3(5)6-2-9-7-4/h2,5H,1H3	InChI=1S/C4H5N3O2/c1-8-4-3(5)6-2-9-7-4/h2,5H,1H3
