18
gdb 75272	2.13243	1.84126	1.3128	3.2673	77.96	-0.2391	-0.0027	0.2363	1040.023	0.147695	-401.959654	-401.95148	-401.950536	-401.992422	30.709	
C	-0.2287255678	 1.4256758334	 0.2528469295	-0.505144
C	-0.1093984654	-0.0587988115	 0.1291024256	 0.349593
C	-0.3673431837	-0.8272715915	-0.9349372049	-0.180068
C	-0.174691851	-2.3041018446	-0.6661001024	-0.281384
C	 0.2026237625	-2.3527771072	 0.81558421	-0.059699
C	 0.2805930388	-0.9187794746	 1.2985492074	-0.13571
N	-0.7347475815	-1.832343561	 1.7886958272	-0.068083
C	-2.1028094274	-1.68747629	 1.7000258454	 0.153966
O	-2.7058422138	-0.6596266014	 1.8952571541	-0.3017
H	 0.7037610545	 1.8732367877	 0.6184118664	 0.122804
H	-0.4761305199	 1.8892394334	-0.7055165277	 0.124496
H	-1.0134457985	 1.6779992634	 0.9753240748	 0.158915
H	-0.7332844002	-0.4579392198	-1.886861554	 0.097017
H	-1.0750354194	-2.8920126739	-0.8878571121	 0.119997
H	 0.6295390031	-2.7349673598	-1.2761217872	 0.118956
H	 0.8745891725	-3.1258491608	 1.1751872499	 0.104292
H	 1.002281561	-0.5703149101	 2.0322231839	 0.10163
H	-2.6044696337	-2.6564603317	 1.5056777241	 0.080124
99.265	114.8711	189.3077	236.0867	247.7025	287.3581	346.4561	444.099	552.43	595.9229	640.7012	746.2756	807.8774	826.1489	879.5493	896.2078	948.6814	977.0351	1002.1197	1019.9814	1041.4844	1052.6206	1067.4901	1111.239	1123.3322	1184.9332	1190.3356	1270.1155	1309.7371	1337.743	1357.4758	1408.9735	1414.6737	1429.4737	1473.368	1478.1266	1491.4876	1707.1236	1794.5885	2934.581	3022.6279	3024.6965	3049.0636	3079.4812	3117.9105	3149.2464	3160.3165	3190.4161
CC1=CCC2C1N2C=O	CC1=CC[C@H]2[C@@H]1N2C=O	
InChI=1S/C7H9NO/c1-5-2-3-6-7(5)8(6)4-9/h2,4,6-7H,3H2,1H3	InChI=1S/C7H9NO/c1-5-2-3-6-7(5)8(6)4-9/h2,4,6-7H,3H2,1H3/t6-,7+,8?/m0/s1
