20
gdb 120798	4.71053	0.63591	0.60077	4.1505	81.42	-0.2631	0.034	0.2971	1851.2538	0.169592	-403.136597	-403.12654	-403.125596	-403.173043	34.993	
C	 0.0547343338	 1.3432888733	 0.3816069066	-0.228506
O	-0.0488358633	-0.0604597957	 0.3882803872	-0.229526
C	-1.2319882064	-0.5245355111	-0.2255611578	-0.07408
C	-1.2072539966	-2.030912212	-0.2114163128	-0.036167
C	-1.6879122008	-2.8012165036	 0.9933244758	-0.276158
C	-2.4556386559	-2.8800610488	-0.3007769191	-0.010617
C	-3.8494134674	-2.2778755558	-0.4262630249	-0.369563
C	-4.8901961793	-3.2145414318	 0.0034443381	 0.265986
N	-5.7036175379	-3.963375774	 0.3390310079	-0.304037
H	 0.9970070037	 1.603642754	 0.8692912008	 0.130732
H	 0.0599865167	 1.7491629349	-0.6427146672	 0.10433
H	-0.7731151323	 1.8180073672	 0.9325831288	 0.103598
H	-2.1136504682	-0.1334067233	 0.3104468302	 0.077915
H	-1.2945772013	-0.1478953056	-1.2620479594	 0.08725
H	-0.3404390003	-2.4369208972	-0.7249259275	 0.10157
H	-1.128927099	-3.6691715535	 1.3225957837	 0.124337
H	-2.1297771571	-2.2256232587	 1.8011484918	 0.120442
H	-2.3464137595	-3.8008579224	-0.8656134895	 0.108479
H	-3.943360987	-1.3688280599	 0.1760180091	 0.15088
H	-4.0569976221	-1.9902392561	-1.4642246919	 0.153136
42.2963	76.6256	80.4382	101.4322	160.6253	227.1397	243.5781	294.7988	372.4005	391.5123	459.8726	484.3357	565.3284	798.4892	838.3167	868.3357	908.7372	924.5823	953.2114	985.3826	1035.8505	1064.682	1073.2051	1138.7367	1148.0844	1155.8553	1177.6532	1196.4553	1224.9264	1250.6254	1251.7732	1280.7192	1316.6636	1374.5876	1415.6178	1449.1192	1463.9404	1481.2706	1485.3447	1496.7219	1503.0474	1525.9062	2362.7748	2941.2541	2967.1608	2969.5286	3010.2862	3039.596	3086.1686	3117.1478	3132.8222	3148.3308	3158.7552	3220.167
COCC1CC1CC#N	COC[C@H]1C[C@H]1CC#N	
InChI=1S/C7H11NO/c1-9-5-7-4-6(7)2-3-8/h6-7H,2,4-5H2,1H3	InChI=1S/C7H11NO/c1-9-5-7-4-6(7)2-3-8/h6-7H,2,4-5H2,1H3/t6-,7-/m1/s1
