19
gdb 26464	3.35174	1.37227	1.24413	4.1727	81.4	-0.2116	0.047	0.2586	1091.3912	0.160244	-382.088122	-382.079896	-382.078952	-382.121029	31.676	
C	-0.3423251458	 1.6169027145	-0.3046040423	-0.427024
C	-0.0517287314	 0.1389391114	-0.0746170076	 0.305371
C	-1.2803953458	-0.6371488561	 0.3834166097	-0.42701
C	 0.8001498744	-0.5660622475	-1.2228466614	-0.434806
C	 1.875234702	-0.6904046397	-0.1635983877	 0.385252
N	 3.0695123489	-1.0690275168	 0.2262720935	-0.377283
C	 3.0848158257	-0.6696470687	 1.5553732765	-0.091743
C	 1.9050457224	-0.059706354	 1.9443737901	-0.190441
N	 1.145724548	-0.0934921278	 0.796710283	 0.005191
H	 0.5589984907	 2.1496335884	-0.6190207796	 0.133419
H	-1.1047527484	 1.7345726603	-1.0812421074	 0.126853
H	-0.7186822245	 2.0865769976	 0.6100549201	 0.125641
H	-2.0676196811	-0.5782340164	-0.3749461654	 0.126851
H	-1.038946817	-1.6898388611	 0.5525060151	 0.133424
H	-1.6786995311	-0.2211971915	 1.314641016	 0.125648
H	 0.3735521064	-1.5033619214	-1.5895058868	 0.125349
H	 1.0329809813	 0.080647958	-2.0728559385	 0.125343
H	 3.9546188082	-0.8437278047	 2.1717928883	 0.103813
H	 1.580885317	 0.3609878556	 2.8805230345	 0.12615
47.2307	167.0617	223.6125	238.9665	299.0071	314.5537	334.5905	432.0399	522.8371	611.6337	623.5557	700.9423	711.102	714.3301	833.0822	836.6931	910.1429	942.6819	955.3559	981.1043	1020.3036	1045.526	1084.8045	1106.5748	1142.2599	1168.5035	1215.7179	1244.1428	1265.837	1274.3128	1390.4523	1403.6041	1417.3383	1423.4158	1470.8189	1478.3176	1483.8413	1487.3739	1496.4794	1507.2701	1579.3411	3035.3167	3040.0874	3061.858	3103.8996	3110.1691	3111.0085	3120.0826	3121.8477	3241.8913	3286.2479
CC1(C)CC2=NC=CN12	CC1(C)Cc2nccn12	
InChI=1S/C7H10N2/c1-7(2)5-6-8-3-4-9(6)7/h3-4H,5H2,1-2H3	InChI=1S/C7H10N2/c1-7(2)5-6-8-3-4-9(6)7/h3-4H,5H2,1-2H3
