20
gdb 40176	3.36499	1.43415	1.21678	2.5543	78.4	-0.2401	0.0699	0.31	1081.6072	0.173159	-403.111536	-403.103999	-403.103055	-403.143331	30.824	
C	 0.0074932251	 1.4929241648	-0.0373681931	-0.32709
C	 1.3147588958	 0.7209865815	-0.0763092912	-0.326409
C	-0.0119102711	 0.0024815861	 0.0295431051	 0.446312
C	-0.4105491101	-0.7198443713	 1.3040975904	-0.267622
C	-0.1802094366	-2.2217713936	 1.1745578765	-0.042905
N	-1.232953114	-2.9706297373	 0.4593568725	-0.323679
C	 0.0833313601	-2.802992907	-0.169516249	-0.037459
C	 0.1452104114	-1.8784258118	-1.3676788953	-0.093119
O	-0.4825571865	-0.6285720026	-1.1327373107	-0.282818
H	-0.241629163	 2.0510227893	 0.8591129181	 0.109492
H	-0.3321550931	 1.941802281	-0.9635797331	 0.123717
H	 1.8306413717	 0.6762809982	-1.029065756	 0.116154
H	 1.9656195662	 0.7555622309	 0.7911060831	 0.107448
H	 0.162802865	-0.3223547451	 2.1475830381	 0.094023
H	-1.4718309767	-0.5424957473	 1.5118558516	 0.117042
H	 0.2799563162	-2.7106578323	 2.0296663077	 0.082795
H	-1.3169621295	-3.9077955894	 0.8440776995	 0.228167
H	 0.7399388705	-3.6689691303	-0.2355975124	 0.080825
H	 1.2027695923	-1.7302136272	-1.6420011958	 0.084822
H	-0.373460964	-2.3186126467	-2.225356406	 0.110304
91.2522	191.5651	278.5776	298.8091	340.1881	396.1771	422.073	513.1929	538.9976	673.6469	766.8279	767.8703	788.2467	812.9533	860.5102	890.5118	917.953	936.1277	956.5025	975.6047	1011.957	1036.9709	1042.1378	1065.992	1078.4633	1095.4871	1137.9721	1165.3562	1187.6487	1194.713	1233.0169	1257.3936	1279.7864	1301.631	1315.3362	1378.7887	1394.1169	1414.2137	1451.4243	1463.2863	1471.4131	1484.822	1498.9187	2972.3523	3037.6313	3075.0068	3083.006	3118.1925	3129.094	3134.0217	3135.3934	3213.6279	3228.8946	3502.5711
C1CC11CC2NC2CO1	C1CC21C[C@H]1N[C@H]1CO2	
InChI=1S/C7H11NO/c1-2-7(1)3-5-6(8-5)4-9-7/h5-6,8H,1-4H2	InChI=1S/C7H11NO/c1-2-7(1)3-5-6(8-5)4-9-7/h5-6,8H,1-4H2/t5-,6+/m1/s1
