21
gdb 79933	2.79663	1.549	1.43075	0.4407	88.15	-0.2152	0.0192	0.2344	1045.8495	0.184801	-349.923096	-349.915473	-349.914529	-349.954706	31.468	
C	-0.1460961879	 1.5568545267	-0.0339462588	-0.416697
C	 0.0552945999	 0.056528077	-0.0012451028	 0.004726
C	 1.3741919546	-0.6471166486	-0.2893037876	-0.093466
C	 2.6044118105	 0.1885248457	-0.0873524239	-0.250979
C	 2.7887067969	 0.4100748867	 1.2156665204	 0.285749
C	 3.1666563527	 1.4684674016	 2.2308368509	-0.313319
C	 1.7538014782	 1.1859490468	 2.8667532251	-0.260349
C	 1.7140194065	-0.1881766953	 2.0848475101	-0.022415
C	 0.7015934295	-0.7515383777	 1.1028759323	-0.113475
H	 0.7603397626	 2.1049498733	 0.2278310948	 0.121738
H	-0.4434695885	 1.874503913	-1.0399808069	 0.110366
H	-0.9404344161	 1.8643674727	 0.6554002884	 0.113387
H	-0.7929544477	-0.47811838	-0.4256443659	 0.081823
H	 1.3724714658	-1.4724030051	-0.9951378924	 0.078969
H	 3.1350243157	 0.659323278	-0.9078135219	 0.088438
H	 3.9740163046	 1.1589239167	 2.9031972186	 0.109672
H	 3.3775800811	 2.4771881733	 1.8684501849	 0.108357
H	 1.7168497405	 1.1180622699	 3.9561864607	 0.099458
H	 1.0012521899	 1.8943051946	 2.5217179304	 0.116457
H	 2.0799814012	-0.9806691315	 2.7500121173	 0.07393
H	 0.1936021701	-1.6695719977	 1.3765028864	 0.07763
146.8775	169.7861	232.1204	273.4752	290.2105	368.7317	502.7362	543.2851	646.3526	673.2897	692.7964	722.91	778.0922	807.2333	824.9082	874.7914	886.6899	921.3933	928.307	938.3705	992.751	1022.3479	1048.8442	1070.3417	1077.0783	1090.8804	1114.8037	1126.7275	1140.236	1184.4869	1216.8719	1231.6912	1241.7661	1251.9627	1283.5526	1333.4111	1342.6509	1366.8217	1411.2492	1428.8531	1473.1957	1484.7542	1499.8127	1507.6024	1707.384	3015.5583	3030.023	3045.0024	3076.675	3082.3733	3102.71	3110.7965	3131.398	3145.8919	3150.5408	3167.3557	3187.6451
CC1C2C=C3CCC3C12	C[C@H]1[C@H]2[CH][C]3CC[C@H]3[C@@H]12	
InChI=1S/C9H12/c1-5-8-4-6-2-3-7(6)9(5)8/h4-5,7-9H,2-3H2,1H3	InChI=1S/C9H12/c1-5-8-4-6-2-3-7(6)9(5)8/h4-5,7-9H,2-3H2,1H3/t5-,7+,8+,9+/m0/s1
