16
gdb 18839	3.94849	2.26914	1.89026	2.4421	62.08	-0.2362	0.0662	0.3025	736.8814	0.132663	-383.700174	-383.694171	-383.693226	-383.73011	24.724	
O	 0.0129341634	 1.4087976099	-0.0504907515	-0.444451
C	 0.0503071526	-0.0004092	-0.0215155156	 0.161836
C	 0.7240860239	-0.6068653146	 1.2553652412	-0.268394
C	-0.2209883132	-1.7118846108	 1.7059688015	-0.084507
C	-1.678380755	-1.3365374421	 1.8872008905	 0.101105
O	-1.9665088897	-0.0821411659	 1.2548148736	-0.32556
C	-1.3561705839	-0.6052542677	 0.0197050051	 0.05522
C	-1.2475959129	-2.0144625253	 0.6239222331	-0.164185
H	-0.5914880403	 1.6633942097	 0.6602142759	 0.28601
H	 0.578489733	-0.3128132853	-0.9291315358	 0.086608
H	 1.7169035173	-1.0073402826	 1.0323766831	 0.104701
H	 0.8492904229	 0.1773046947	 2.0081916578	 0.107638
H	 0.139710476	-2.5349615791	 2.3133258495	 0.090479
H	-2.3113804189	-1.6452245962	 2.7105635529	 0.106677
H	-1.9900094602	-0.4184140736	-0.8476552869	 0.08613
H	-1.4912545651	-2.969972731	 0.1828876655	 0.100693
124.0708	290.9644	397.8084	465.0955	511.4381	527.3411	649.7243	723.1597	761.0757	801.7101	805.7867	848.1225	864.177	921.1525	971.1269	989.1159	1008.3948	1025.24	1044.7833	1062.1023	1075.2033	1107.8184	1111.725	1180.4957	1215.6816	1253.2388	1260.937	1273.6565	1311.8967	1314.9758	1346.7497	1400.3037	1440.4597	1490.7892	3051.1037	3056.5991	3097.7185	3115.7229	3173.3672	3186.353	3218.405	3756.8794
OC1CC2C3OC1C23	O[C@H]1C[C@H]2[C@H]3O[C@@H]1[C@@H]23	
InChI=1S/C6H8O2/c7-3-1-2-4-5(2)8-6(3)4/h2-7H,1H2	InChI=1S/C6H8O2/c7-3-1-2-4-5(2)8-6(3)4/h2-7H,1H2/t2-,3+,4+,5-,6+/m1/s1
