22
gdb 87229	4.12956	0.71245	0.67994	4.3905	87.81	-0.2735	0.04	0.3135	1721.4641	0.192718	-367.229149	-367.218759	-367.217815	-367.264885	37.847	
C	-0.0421919299	 1.4477974945	-0.259391987	-0.416271
C	 0.0621920755	-0.0279530047	 0.0594899383	-0.042538
C	 1.3801107599	-0.763881768	-0.0210357518	-0.331589
C	 0.699727252	-0.5796567278	 1.3215203647	 0.357375
C	 1.3223405804	 0.3655648092	 2.3337076416	-0.471872
C	 0.026668121	-1.8052627036	 1.9237096724	-0.260103
C	 1.0188520928	-2.7612642731	 2.6257736983	-0.343323
C	 0.3672065091	-3.9684693312	 3.1271735151	 0.258453
N	-0.1666099654	-4.9169882552	 3.5160019224	-0.307647
H	 0.8624713636	 1.997330597	 0.0141698472	 0.117103
H	-0.1956245323	 1.5937823716	-1.3342171026	 0.122347
H	-0.8864439482	 1.9131622016	 0.2615227111	 0.119622
H	-0.7986087768	-0.5978629064	-0.2839111294	 0.084431
H	 1.3993980275	-1.7530633298	-0.4683289716	 0.107972
H	 2.2708372475	-0.174749041	-0.2178659243	 0.109088
H	 1.7743178846	 1.2367346757	 1.8550209213	 0.121522
H	 0.5738185989	 0.7288556395	 3.0481454592	 0.119083
H	 2.1158193327	-0.1256725481	 2.9081040901	 0.11714
H	-0.7402368335	-1.4985594667	 2.6452382523	 0.116763
H	-0.4901665744	-2.3648062613	 1.1373633974	 0.116994
H	 1.8113427529	-3.0549704464	 1.9278886136	 0.152976
H	 1.5094756722	-2.2630922058	 3.4684053517	 0.152473
60.6144	80.3828	103.5881	170.1982	175.6378	205.4166	261.6318	281.3421	346.7394	362.1663	405.6528	434.2154	509.0483	540.927	717.152	763.9645	785.7933	880.5424	902.5563	928.1968	958.0929	990.9595	998.1047	1014.2808	1047.9855	1059.5472	1107.727	1130.1986	1138.4395	1192.9805	1203.0435	1270.5862	1289.1798	1304.4478	1361.0624	1384.5352	1407.35	1423.6309	1426.8362	1466.6596	1484.787	1488.8938	1491.6212	1495.1018	1503.0575	1516.0724	2360.722	3026.603	3032.565	3034.2636	3049.4649	3073.1332	3081.5285	3089.659	3096.0336	3105.5476	3117.995	3122.6389	3130.8404	3201.6812
CC1CC1(C)CCC#N	C[C@H]1C[C@]1(C)CCC#N	
InChI=1S/C8H13N/c1-7-6-8(7,2)4-3-5-9/h7H,3-4,6H2,1-2H3	InChI=1S/C8H13N/c1-7-6-8(7,2)4-3-5-9/h7H,3-4,6H2,1-2H3/t7-,8-/m0/s1
