21
gdb 72144	2.43093	1.98867	1.77423	1.1621	80.07	-0.2452	0.0825	0.3277	934.4546	0.185963	-387.112129	-387.105154	-387.104209	-387.142874	29.986	
C	 0.0205691544	 1.4726348831	-0.104376277	-0.504108
C	 0.0033198188	-0.02833199	-0.0044195924	 0.472991
O	 0.4788898018	-0.6503031691	-1.1871835979	-0.293881
C	 0.3355520526	-2.0141101213	-0.7725909564	 0.05987
C	 1.1819554513	-2.0500885607	 0.519863217	-0.220314
C	 0.6900651386	-0.7607864844	 1.2163141256	-0.095403
C	-0.7117529133	-0.9525444723	 1.8436420121	-0.238519
C	-1.3126689193	-0.7903651295	 0.4266020312	-0.095404
C	-1.1638159371	-2.0847340116	-0.4051153811	-0.220314
H	 1.0379012769	 1.8365302242	-0.2796756296	 0.124871
H	-0.6122295495	 1.8121500268	-0.930457071	 0.124872
H	-0.3507484199	 1.9247342065	 0.8202060211	 0.11863
H	 0.6610922847	-2.6788229559	-1.5732747398	 0.070624
H	 1.0272646469	-2.951333275	 1.1204098809	 0.093255
H	 2.2428395617	-1.9806581221	 0.2636752228	 0.102096
H	 1.4578760133	-0.242509027	 1.7930490203	 0.06067
H	-0.9041852024	-1.894573433	 2.3669390613	 0.088575
H	-0.9840066879	-0.123124721	 2.5030226843	 0.095469
H	-2.2803927132	-0.2977218056	 0.3189856791	 0.06067
H	-1.765797352	-2.0398642676	-1.3169996959	 0.102096
H	-1.4375752564	-2.9877369044	 0.1484811755	 0.093255
210.5894	236.7265	257.7725	345.7713	375.177	436.6935	549.8957	590.8494	601.2073	634.4884	758.3266	822.0322	825.741	858.6159	890.1711	898.1319	913.6154	920.3089	953.1057	970.6924	997.9006	1009.2371	1045.6101	1079.5778	1101.446	1113.4974	1131.7024	1165.8039	1179.099	1202.6531	1212.5337	1228.3622	1280.7821	1291.7573	1307.7263	1338.336	1340.5352	1341.3548	1354.7323	1417.2975	1475.3044	1480.0363	1481.8417	1495.6243	1500.0273	3037.2597	3042.2211	3052.4909	3055.0041	3088.8947	3089.9429	3095.717	3101.7132	3105.6692	3106.7647	3112.9395	3116.8774
CC12OC3CC1CC2C3	C[C@@]12O[C@H]3C[C@@H]1C[C@@H]2C3	
InChI=1S/C8H12O/c1-8-5-2-6(8)4-7(3-5)9-8/h5-7H,2-4H2,1H3	InChI=1S/C8H12O/c1-8-5-2-6(8)4-7(3-5)9-8/h5-7H,2-4H2,1H3/t5-,6+,7-,8+
