16
gdb 9479	3.06311	1.6608	1.55737	2.3499	66.86	-0.2495	0.0244	0.2739	909.2255	0.127608	-383.682148	-383.673623	-383.672679	-383.715115	31.325	
C	 0.1939876846	 1.3995434425	-0.0873176521	-0.427457
C	 0.0277055225	-0.1137148999	-0.0086676898	 0.180401
O	 0.86249889	-0.7890160053	-0.9968515012	-0.309517
C	 1.7235227032	-1.3488307557	 0.014945236	-0.087219
C	 0.8366711913	-0.8224315358	 1.1472128243	 0.019714
O	 1.5295435291	-0.0168440594	 2.0602484064	-0.412776
C	-1.3670831843	-0.5218756201	-0.1117052158	 0.309634
C	-2.5187652095	-0.8647018909	-0.159634599	-0.462446
H	 1.2396140649	 1.6704959457	 0.069627029	 0.132968
H	-0.1280258943	 1.7490680409	-1.0715763289	 0.135282
H	-0.4161946962	 1.8967666066	 0.6728545644	 0.117006
H	 1.8140012366	-2.4363443634	-0.074656861	 0.110149
H	 2.7216601575	-0.8941814539	 0.0127011559	 0.11184
H	 0.242696064	-1.5939613757	 1.6478304709	 0.090703
H	 0.9376353996	 0.2089643354	 2.7847444642	 0.292786
H	-3.5353728391	-1.1667086309	-0.2184595036	 0.198933
54.111	143.0917	180.6282	211.1815	251.754	314.918	366.6103	374.6859	483.3031	527.1529	557.0089	618.8507	634.2996	663.7208	789.1022	880.1002	915.9186	949.3885	1012.388	1032.4614	1105.4434	1140.1232	1166.5098	1179.8784	1216.7926	1245.2768	1310.8831	1336.5548	1400.9525	1447.0488	1479.4161	1484.9451	1517.0726	2229.0984	3026.3253	3048.3057	3049.7031	3080.3708	3121.9736	3143.5383	3500.0074	3822.3892
CC1(OCC1O)C#C	C[C@]1(OC[C@H]1O)C#C	
InChI=1S/C6H8O2/c1-3-6(2)5(7)4-8-6/h1,5,7H,4H2,2H3	InChI=1S/C6H8O2/c1-3-6(2)5(7)4-8-6/h1,5,7H,4H2,2H3/t5-,6+/m1/s1
