17
gdb 67330	3.19841	1.44344	1.15562	2.9527	74.58	-0.2349	0.0162	0.2511	1065.4927	0.135589	-417.917174	-417.909485	-417.908541	-417.949413	29.419	
C	-0.0975429905	 1.4626822357	 0.0496691479	-0.535968
C	-0.0654097934	-0.0306567356	 0.1115272256	 0.360236
C	 0.6252880025	-1.0606441978	-0.8586907713	-0.079147
N	 1.9089544567	-0.9802240991	-0.094588238	-0.347275
C	 0.8538520342	-0.9651931225	 0.967893927	-0.079768
C	-0.1451924363	-1.907293198	 0.2189332377	-0.033933
N	-1.2451663966	-0.9221532681	 0.3517506994	-0.114308
C	-2.4341670994	-0.957345719	-0.3240029929	 0.122843
O	-3.0117688609	-1.9694594291	-0.6593446873	-0.32022
H	 0.9237775251	 1.8323998261	-0.0797324498	 0.155218
H	-0.7008925193	 1.8179331475	-0.7914110738	 0.134243
H	-0.5083354719	 1.8837644075	 0.9722901397	 0.138242
H	 0.5641925136	-1.116262174	-1.9467684784	 0.098982
H	 2.3881132391	-1.8836747936	-0.1071337478	 0.218117
H	 1.0617906288	-0.9047360096	 2.0363857427	 0.096924
H	-0.2897932313	-2.9827187858	 0.2934805199	 0.113958
H	-2.8633549906	 0.0566237854	-0.4600084606	 0.071857
95.4099	157.0841	223.5426	242.1379	254.066	324.9046	437.07	538.5305	633.7416	645.7786	732.6699	766.6749	804.4973	831.2436	881.4732	902.7043	912.1774	1000.3009	1019.118	1032.3956	1067.0074	1091.1042	1109.0637	1144.6323	1155.0005	1160.0281	1201.4519	1229.2892	1286.7791	1290.4732	1366.312	1379.9565	1412.9435	1426.8089	1483.3035	1490.783	1786.2933	2922.2236	3041.3859	3109.2617	3110.6419	3120.0445	3122.2294	3157.542	3416.5916
CC12C3NC1C3N2C=O	C[C@@]12[C@H]3N[C@@H]1[C@H]3N2C=O	
InChI=1S/C6H8N2O/c1-6-4-3(5(6)7-4)8(6)2-9/h2-5,7H,1H3	InChI=1S/C6H8N2O/c1-6-4-3(5(6)7-4)8(6)2-9/h2-5,7H,1H3/t3-,4-,5+,6+
