25
gdb 123220	9.72735	0.35903	0.35476	2.8954	92.37	-0.2473	-0.0183	0.2289	3057.7248	0.226319	-389.517661	-389.505951	-389.505007	-389.556537	40.237	
C	 0.0307557918	 1.6276851308	-0.074904545	-0.379568
C	 0.0234908197	 0.0971165434	-0.0369131703	-0.163939
C	-1.3877892505	-0.4986008104	 0.0080821278	-0.159383
C	-1.4037490576	-2.0304212878	 0.0461614107	-0.181542
C	-2.8158563589	-2.6236314251	 0.0929223193	-0.176913
C	-2.8277937295	-4.1557814647	 0.1298647486	-0.192854
C	-4.2487578881	-4.7440302039	 0.1890024053	-0.272895
C	-4.237546971	-6.252722784	 0.1146256204	 0.160012
O	-4.7230549115	-6.9931862502	 0.9303848514	-0.238006
H	 1.051049924	 2.022774732	-0.1034074387	 0.111356
H	-0.4968045318	 2.0044967312	-0.9583231096	 0.1131
H	-0.4642606502	 2.0477308551	 0.8078372991	 0.113527
H	 0.5532138485	-0.2944408439	-0.9155288091	 0.093818
H	 0.5904329501	-0.2506545613	 0.8368982726	 0.094507
H	-1.9185051496	-0.1074538289	 0.8874561342	 0.0921
H	-1.95646358	-0.1504887805	-0.8657628169	 0.091046
H	-0.8742046679	-2.4216848442	-0.8337618956	 0.092618
H	-0.8349507302	-2.3780667731	 0.9197548176	 0.094635
H	-3.3458466528	-2.235697956	 0.973308448	 0.098716
H	-3.3869819544	-2.2788973885	-0.780306103	 0.094438
H	-2.3084923366	-4.5463989692	-0.7558742389	 0.100813
H	-2.2563245647	-4.5063657893	 0.9988586091	 0.11063
H	-4.7731985487	-4.4417346024	 1.1003340344	 0.120494
H	-4.8243235416	-4.375609617	-0.6733516749	 0.116101
H	-3.7168134783	-6.6589189619	-0.7859614767	 0.067188
39.0962	52.1886	75.8722	84.5352	107.8151	147.5915	158.2649	194.1674	245.1571	252.5783	320.1103	442.68	452.3556	529.7218	733.1971	738.8655	765.9838	811.9773	868.3567	897.5403	944.7836	987.1641	1002.8869	1028.2598	1037.4772	1063.4402	1069.416	1085.2983	1141.6397	1166.9157	1219.8457	1238.1941	1261.6781	1285.6089	1304.6376	1327.1757	1334.3673	1337.5215	1340.6736	1377.0007	1399.3276	1402.4687	1413.4761	1431.5166	1464.2273	1483.7618	1484.4042	1489.6085	1498.9099	1499.3376	1508.7081	1516.1314	1836.7762	2843.3001	3000.9312	3003.3434	3006.9308	3009.1933	3016.1389	3020.2115	3022.7951	3029.05	3030.9936	3042.601	3055.6188	3067.1694	3095.1266	3097.0879	3101.1979
CCCCCCCC=O	CCCCCCCC=O	
InChI=1S/C8H16O/c1-2-3-4-5-6-7-8-9/h8H,2-7H2,1H3	InChI=1S/C8H16O/c1-2-3-4-5-6-7-8-9/h8H,2-7H2,1H3
