18
gdb 36211	4.70635	0.95558	0.87592	1.3192	83.31	-0.2301	0.0109	0.2409	1333.0635	0.147901	-364.760081	-364.75194	-364.750996	-364.793181	31.563	
C	-0.1544474807	-1.1173869574	 0.5012291284	-0.465589
C	-0.0697187344	 0.0326095344	 0.16246817	 0.315505
C	 0.0535028739	 1.4333066316	-0.241481809	-0.45776
C	 1.4733163278	 1.9397737262	-0.2072598198	 0.331823
C	 2.121236592	 2.5483437704	-1.2055790746	-0.171227
C	 3.4645209304	 3.0174196828	-0.7613780835	-0.073339
N	 3.3797727063	 4.023142316	 0.3400898197	-0.335883
C	 3.598158365	 2.5961172793	 0.6603759625	-0.043081
C	 2.3267930904	 1.8515737337	 1.048536836	-0.299728
H	-0.2384245692	-2.1338992928	 0.7959455193	 0.196219
H	-0.3594312303	 1.565959024	-1.2484255742	 0.135799
H	-0.5693723451	 2.0467817838	 0.42656878	 0.141689
H	 1.7204457247	 2.7262578174	-2.1968524547	 0.092279
H	 4.3035736884	 3.066335959	-1.4470455896	 0.087306
H	 4.2777395615	 4.5006440956	 0.407945304	 0.225083
H	 4.5507612011	 2.2978863263	 1.0843726205	 0.086823
H	 1.830019076	 2.3135483821	 1.910651258	 0.116894
H	 2.5285419522	 0.8071118878	 1.3162496868	 0.117185
54.9568	99.8654	182.5349	301.5199	340.9894	361.7196	383.1328	476.9962	534.5792	617.0318	638.3985	674.9761	711.1916	798.4302	836.627	845.7715	865.7597	911.4817	927.5372	951.4938	957.7429	985.5943	1010.635	1079.6031	1127.5253	1155.9809	1169.1183	1191.0633	1214.3753	1259.1208	1281.8142	1325.5952	1342.3312	1377.204	1410.0776	1455.8567	1465.3668	1700.2233	2237.7012	2998.913	3029.3661	3055.1015	3062.8828	3163.6889	3173.0688	3198.3479	3470.72	3506.8165
C#CCC1=CC2NC2C1	C#CCC1=C[C@H]2N[C@H]2C1	
InChI=1S/C8H9N/c1-2-3-6-4-7-8(5-6)9-7/h1,4,7-9H,3,5H2	InChI=1S/C8H9N/c1-2-3-6-4-7-8(5-6)9-7/h1,4,7-9H,3,5H2/t7-,8+/m1/s1
