22
gdb 120913	4.60081	0.8079	0.80063	1.7786	83.91	-0.2291	0.0861	0.3153	1570.1251	0.192848	-404.290063	-404.28049	-404.279546	-404.324898	35.386	
C	 0.0506081234	 1.5221880397	 0.0847871591	-0.385212
C	 0.2453883517	 0.0207018888	-0.0407789648	-0.038659
O	 0.4667879856	-0.5120257093	 1.2524496078	-0.259978
C	 0.6261584393	-1.9068351108	 1.2741087853	 0.135063
C	 2.0673139629	-2.403462085	 0.9104097161	-0.287842
C	 2.2458116486	-2.8621599718	 2.3715136937	-0.042965
C	 0.8598565091	-2.3740121296	 2.7228181711	-0.081566
N	 1.2132585512	-3.7694611553	 2.8194716974	-0.077355
C	 0.63166855	-4.8075654358	 1.9824618811	-0.31476
H	 0.939263294	 1.98959769	 0.5184070901	 0.126657
H	-0.1313207408	 1.9668115373	-0.8982073918	 0.114245
H	-0.8027066054	 1.7453280142	 0.7314700524	 0.127169
H	-0.6435337044	-0.4508612253	-0.4927367974	 0.086669
H	 1.0986989723	-0.2026816702	-0.7014403561	 0.088736
H	-0.2029725203	-2.3910554444	 0.7348892788	 0.059627
H	 2.1817873136	-3.1601320153	 0.1281278095	 0.0937
H	 2.7021586488	-1.5453067909	 0.6788217418	 0.114032
H	 3.1669306397	-2.8097037191	 2.9424665797	 0.091641
H	 0.4900770055	-1.8488256813	 3.5971209929	 0.096129
H	 0.5104619282	-4.549237277	 0.9208359707	 0.10657
H	 1.2656903867	-5.6977242849	 2.0414304593	 0.123289
H	-0.3534029095	-5.068051634	 2.3818995633	 0.124812
62.3146	91.5855	116.2034	156.1592	212.527	246.6179	259.3373	336.568	375.7048	417.5033	496.8849	583.3629	724.1518	767.2917	820.369	836.0726	861.3779	917.8019	923.9554	950.9446	1007.2256	1022.6771	1051.3537	1070.9768	1084.0716	1140.0379	1150.1116	1160.4623	1181.4365	1188.0467	1197.3623	1219.1984	1235.1722	1274.836	1288.5077	1296.0513	1364.3955	1390.1639	1403.67	1438.4923	1453.7691	1471.7833	1482.9832	1499.775	1500.2217	1501.948	1528.7283	2958.889	2974.2639	2987.7259	2999.8226	3044.8131	3053.5386	3072.3246	3105.0194	3117.2868	3119.3229	3121.5043	3161.0286	3174.5717
CCOC1CC2C1N2C	CCO[C@H]1C[C@H]2[C@@H]1N2C	
InChI=1S/C7H13NO/c1-3-9-6-4-5-7(6)8(5)2/h5-7H,3-4H2,1-2H3	InChI=1S/C7H13NO/c1-3-9-6-4-5-7(6)8(5)2/h5-7H,3-4H2,1-2H3/t5-,6-,7-,8?/m0/s1
