17
gdb 41397	2.68917	2.02587	1.41288	2.2826	72.03	-0.246	-0.004	0.242	924.7449	0.137824	-421.790029	-421.783321	-421.782377	-421.821076	26.83	
C	 0.008048655	 1.5356153469	-0.0369580888	-0.098262
O	 1.4573082607	 1.5006852416	 0.0244158914	-0.316207
C	 1.4624734045	 0.086159268	 0.1694463121	 0.370571
C	 2.4941500761	-0.8382489786	-0.4728649342	-0.15368
O	 2.578021696	-1.6226945542	 0.7424801443	-0.304815
C	 1.8156572562	-0.6268959308	 1.4898698408	 0.037749
C	 0.4942771182	-1.0796702189	 2.0504388267	-0.093272
C	-0.5237389426	-0.7132113655	 1.2630054377	-0.087039
C	-0.0663479035	-0.01627647	 0.0096086663	-0.177947
H	-0.4245554116	 2.0536079683	 0.8259292251	 0.108487
H	-0.3408326802	 2.0052290874	-0.9628013056	 0.108619
H	 2.178963741	-1.4361413994	-1.3357302955	 0.105587
H	 3.4409419309	-0.3309144292	-0.7026634778	 0.110614
H	 2.455643914	-0.0941236701	 2.2027554482	 0.086556
H	 0.3958584885	-1.6137918249	 2.988735749	 0.105939
H	-1.5701509992	-0.9065394829	 1.4760000237	 0.105237
H	-0.450673204	-0.4685484276	-0.9083064833	 0.091862
122.2601	210.6802	272.0862	298.8688	420.5314	455.2622	589.0311	635.3139	730.2774	784.7729	809.7028	823.9118	887.4779	914.616	951.759	979.0483	987.2596	996.9199	1024.5027	1036.6937	1065.853	1088.7214	1132.3666	1136.0487	1163.2499	1167.4074	1196.5376	1249.4709	1271.0564	1309.2038	1322.1619	1349.5083	1359.788	1374.5225	1511.1444	1519.8919	1653.2943	3009.6358	3030.585	3044.9009	3064.0776	3072.2503	3086.8995	3180.603	3207.6195
C1OC23COC2C=CC13	C1O[C@@]23CO[C@@H]2C=C[C@@H]13	
InChI=1S/C7H8O2/c1-2-6-7(4-8-6)5(1)3-9-7/h1-2,5-6H,3-4H2	InChI=1S/C7H8O2/c1-2-6-7(4-8-6)5(1)3-9-7/h1-2,5-6H,3-4H2/t5-,6+,7+/m0/s1
