16
gdb 125970	3.71629	1.18414	1.11437	3.561	71.49	-0.2312	-0.0377	0.1935	1123.0075	0.123875	-434.011462	-434.0036	-434.002655	-434.045105	28.881	
C	 0.0421759841	 1.0129968458	-1.5099918342	-0.415912
C	 0.2008554511	-0.3370715564	-0.8560986088	 0.007565
C	 1.1784164505	-1.3323921002	-1.3714015036	-0.249864
N	 1.4232205189	-0.677190502	-0.085897853	-0.190616
C	 2.4680962507	 0.2359430283	 0.0154813698	 0.296737
C	 2.7251284117	 1.1485158	 0.9950833623	-0.043065
O	 3.8708320899	 1.7701261641	 0.7091327139	-0.156814
N	 4.3509458617	 1.2015319852	-0.4964969863	-0.009528
N	 3.5212286354	 0.3288252904	-0.8731586955	-0.176871
H	 0.9533617589	 1.3211061086	-2.0289640886	 0.140555
H	-0.7709777703	 0.9772690127	-2.2419663654	 0.13089
H	-0.207464034	 1.7833481147	-0.7719579102	 0.126886
H	-0.6954205987	-0.7176873192	-0.3709210287	 0.101785
H	 0.9726074636	-2.3968870309	-1.3067850893	 0.124966
H	 1.8032449125	-1.0332444538	-2.2081822255	 0.145635
H	 2.211492844	 1.4333516829	 1.8970413831	 0.167651
25.0227	113.6353	182.6371	223.9137	305.3288	371.3618	456.499	525.2621	580.7229	656.264	683.6767	730.55	787.6189	823.9217	860.8404	912.3314	979.4299	995.6487	1040.0991	1060.0697	1123.9146	1133.3406	1140.6658	1159.2988	1196.9711	1233.3496	1319.6502	1347.5254	1400.8084	1423.6598	1449.9873	1487.9748	1496.6403	1511.346	1624.7983	3037.1321	3099.2388	3115.7885	3118.3717	3137.5027	3205.8399	3296.4125
CC1CN1C1=CON=N1	C[C@H]1CN1c1conn1	
InChI=1S/C5H7N3O/c1-4-2-8(4)5-3-9-7-6-5/h3-4H,2H2,1H3	InChI=1S/C5H7N3O/c1-4-2-8(4)5-3-9-7-6-5/h3-4H,2H2,1H3/t4-,8?/m0/s1
