20
gdb 17237	4.31597	1.58593	1.52626	0.2951	78.28	-0.2383	0.0935	0.3318	950.8165	0.178303	-311.825774	-311.818471	-311.817527	-311.857169	29.125	
C	 0.0602844526	 1.4730384806	-0.2398652314	-0.3727
C	-0.0775490214	-0.0015916277	 0.1639214524	-0.304823
C	-1.4957653944	-0.4954324267	 0.1170077465	 0.384748
C	-2.6526503979	-0.100806036	 1.0406712575	-0.281173
C	-3.406199857	-1.3249888727	 0.4554478784	-0.06195
C	-3.6539594347	-0.9372193235	-1.0289305606	-0.229056
C	-2.1372883787	-1.0132697631	-1.18678211	-0.101744
C	-2.0024705914	-1.9163719964	 0.0202774114	-0.144647
H	 1.1024585035	 1.8027235188	-0.1857104275	 0.108358
H	-0.2942780787	 1.6347533017	-1.2629474102	 0.117113
H	-0.5285121814	 2.1186020356	 0.4203008959	 0.117819
H	 0.5423779287	-0.6231972426	-0.4955006001	 0.094309
H	 0.3233887093	-0.1411874118	 1.1770328847	 0.094481
H	-2.3806349475	-0.2541478965	 2.0900220526	 0.091244
H	-3.1231275111	 0.8836543786	 0.9241983417	 0.082473
H	-4.1708921165	-1.8389296856	 1.0343066659	 0.066046
H	-4.1511267877	-1.7407342538	-1.5802250172	 0.095393
H	-4.1654709442	 0.0134881452	-1.223659407	 0.083599
H	-1.5596565527	-1.0485849102	-2.1026147198	 0.077543
H	-1.5147511487	-2.8709228938	 0.1586807768	 0.082967
91.6769	152.7733	206.8461	321.12	351.5284	427.4115	453.7056	610.2454	715.9467	746.4058	787.8919	803.0727	829.6957	868.407	918.929	923.6896	954.0414	979.6001	989.9138	998.4865	1005.7563	1059.0716	1068.8423	1095.3976	1106.1809	1140.522	1160.3409	1182.8091	1206.7828	1229.0401	1262.0226	1280.8003	1284.9774	1336.9084	1355.0902	1408.7675	1422.4436	1482.3558	1492.587	1498.6022	1507.4754	1508.3465	3010.1489	3017.248	3025.6372	3034.5936	3042.0061	3079.7969	3088.3481	3103.1654	3106.2408	3133.1724	3184.2682	3215.0424
CCC12CC3CC1C23	CC[C@@]12C[C@H]3C[C@@H]1[C@@H]23	
InChI=1S/C8H12/c1-2-8-4-5-3-6(8)7(5)8/h5-7H,2-4H2,1H3	InChI=1S/C8H12/c1-2-8-4-5-3-6(8)7(5)8/h5-7H,2-4H2,1H3/t5-,6-,7+,8-/m1/s1
