19
gdb 37242	3.61634	1.49023	1.36985	1.6892	78.21	-0.2258	0.0707	0.2965	1007.767	0.159949	-385.809945	-385.802855	-385.801911	-385.841159	29.585	
C	 0.0374768706	 1.4782766196	-0.0625579923	-0.29287
C	 1.351868064	 0.7581593229	 0.0104527745	-0.065261
C	 0.021145863	-0.0155912223	 0.0880736779	-0.065338
C	 0.3520718934	-0.7485951187	-1.2373143396	-0.17781
C	 1.663418902	 0.051233892	-1.325745989	 0.106005
O	 1.2277686914	 0.7168149442	-2.5424470711	-0.329375
C	 0.0214657636	-0.0696334478	-2.5624744917	 0.46015
C	-0.4834905962	-0.6745777314	-3.8315623994	-0.356843
C	-1.2513181122	 0.4469385078	-3.1409113179	-0.32999
H	-0.2269635476	 2.0260388309	 0.8362631649	 0.108486
H	-0.2680517463	 1.9547045939	-0.9867527594	 0.136767
H	 2.0797829926	 0.9596595249	 0.7869892664	 0.083662
H	-0.43199617	-0.4964387676	 0.9462258427	 0.088016
H	 0.3341901123	-1.8365913462	-1.1985723759	 0.078538
H	 2.6508779066	-0.4030011565	-1.4256268339	 0.080431
H	 0.0488699054	-0.4224399431	-4.7424120468	 0.124111
H	-0.8902845132	-1.6807064255	-3.8035871435	 0.111445
H	-2.1841804489	 0.2138219895	-2.6377607654	 0.11659
H	-1.2197665204	 1.4259974933	-3.6076851205	 0.123288
120.2644	192.1878	258.7536	326.5581	368.095	499.5219	528.9574	607.2945	718.7944	742.541	756.6236	774.7651	860.5379	870.4343	888.3492	891.426	912.3939	938.777	958.4652	972.7488	990.277	996.0969	1041.8194	1046.5677	1054.9461	1067.6933	1081.6488	1088.292	1173.3763	1186.2256	1186.6302	1192.2048	1233.1585	1272.8141	1292.9143	1315.8899	1344.4126	1395.0286	1448.9237	1489.2778	1499.1171	3091.901	3123.9745	3124.7962	3127.8474	3137.4029	3178.0005	3188.0258	3207.782	3222.0674	3222.9752
C1C2C1C1C2OC11CC1	C1[C@H]2[C@@H]1[C@@H]1[C@H]2OC21CC2	
InChI=1S/C8H10O/c1-2-8(1)6-4-3-5(4)7(6)9-8/h4-7H,1-3H2	InChI=1S/C8H10O/c1-2-8(1)6-4-3-5(4)7(6)9-8/h4-7H,1-3H2/t4-,5+,6-,7+/m1/s1
