15
gdb 82734	2.69132	1.98408	1.42788	4.1316	63.67	-0.2359	-0.0247	0.2112	891.2635	0.113133	-457.733816	-457.726971	-457.726027	-457.765178	27.044	
O	 0.0222944482	 1.4301514004	 0.0975814624	-0.424543
C	 0.015508622	 0.0317475526	 0.0252773836	 0.049671
C	-1.3731089122	-0.5980611614	-0.0654709648	 0.038562
O	-1.9757472549	-0.0894984828	-1.3086031065	-0.316261
C	-1.6296665341	-1.320772243	-1.9360814999	 0.106685
C	-1.2011766523	-2.0004748122	-0.6928974465	-0.175659
C	-0.1409478165	-1.6628744579	-1.7448919582	-0.209435
C	 0.7133537898	-0.5455432961	-1.2415476575	 0.369234
O	 1.7439423938	-0.1413608784	-1.712746608	-0.317166
H	-0.4444535583	 1.7502031432	-0.6849165983	 0.293166
H	 0.5428027124	-0.3437339142	 0.9121568922	 0.116985
H	-2.0328386412	-0.4604677418	 0.7897784771	 0.103591
H	-2.1920133972	-1.6367754748	-2.8055809633	 0.129032
H	-1.3986227751	-2.974270213	-0.2693278565	 0.118642
H	 0.2719273957	-2.4290651805	-2.3885416857	 0.117495
83.0445	203.8506	263.5039	387.509	403.6084	463.9073	538.8469	596.0337	656.2034	710.1987	778.9361	790.8446	807.2173	861.071	905.8218	923.3326	956.102	1001.1152	1028.0242	1048.5611	1061.1712	1081.6983	1124.8308	1160.9	1211.2379	1217.5964	1255.1327	1273.6903	1301.1156	1328.1813	1378.1026	1422.332	1849.1706	3038.9476	3133.9668	3198.8709	3207.7291	3225.3488	3782.0869
OC1C2OC3C2C3C1=O	O[C@H]1[C@H]2O[C@@H]3[C@H]2[C@@H]3C1=O	
InChI=1S/C6H6O3/c7-3-1-2-5(1)9-6(2)4(3)8/h1-2,4-6,8H	InChI=1S/C6H6O3/c7-3-1-2-5(1)9-6(2)4(3)8/h1-2,4-6,8H/t1-,2-,4-,5+,6+/m1/s1
