16
gdb 67314	3.18231	1.43956	1.2033	3.1179	72.95	-0.253	0.0217	0.2747	1032.2652	0.123687	-400.6727	-400.665194	-400.66425	-400.704675	28.821	
C	-0.0567602161	 1.4832878136	 0.0211560308	-0.531519
C	-0.0588803763	-0.0150517585	 0.0045984575	 0.311908
C	 0.8326430565	-0.9804423652	-0.8503883101	 0.029454
O	 1.9424667928	-0.9685796654	 0.0905892954	-0.322898
C	 0.7502775997	-0.9916347104	 0.9293758351	 0.045892
C	-0.0411086094	-1.9532530052	-0.0053819723	-0.091127
C	-1.2646084399	-1.0024557699	-0.0756680573	-0.251131
C	-2.1940245975	-1.009237769	 1.042740802	 0.269368
N	-2.9189778788	-1.0031708756	 1.9439404851	-0.329956
H	 0.9726818571	 1.8484623505	 0.0914550582	 0.14534
H	-0.5057232049	 1.8923252927	-0.88982632	 0.129299
H	-0.6193488956	 1.8670373525	 0.8780853338	 0.143816
H	 1.0433277444	-0.9769988497	-1.9192980688	 0.106295
H	 0.8641468559	-1.0006244185	 2.0118447163	 0.118048
H	-0.0214717118	-3.0410517261	-0.0091425566	 0.1061
H	-1.8115801062	-1.0029765958	-1.0231064791	 0.12111
124.3082	126.8209	226.5778	246.1124	296.1018	383.6577	464.5492	527.1595	612.3248	677.5334	756.2139	788.6655	816.6165	847.4837	858.9826	900.7762	925.1698	943.6179	1001.9861	1029.3836	1082.7433	1090.0444	1130.6232	1151.5899	1156.6604	1174.5036	1199.4461	1251.5059	1297.0727	1330.8148	1385.9154	1413.4371	1486.6682	1490.0358	2350.6525	3036.105	3071.1859	3105.3165	3112.8078	3127.7335	3140.0204	3153.3053
CC12C3OC1C3C2C#N	C[C@@]12[C@H]3O[C@@H]1[C@H]3[C@H]2C#N	
InChI=1S/C7H7NO/c1-7-3(2-8)4-5(7)9-6(4)7/h3-6H,1H3	InChI=1S/C7H7NO/c1-7-3(2-8)4-5(7)9-6(4)7/h3-6H,1H3/t3-,4-,5-,6+,7+/m1/s1
