20
gdb 100372	2.22047	1.27271	1.08598	3.1358	81.59	-0.2526	0.0215	0.2741	1237.7349	0.167728	-403.146328	-403.135751	-403.134806	-403.181472	38.674	
C	-0.1925685832	 1.5589737475	-0.0434112956	-0.399038
C	-0.0490653864	 0.0375825784	-0.015437406	-0.190486
C	 0.7199424774	-0.5245325293	 1.2141294112	 0.078245
C	 0.7773134408	-2.0678183118	 1.1374673777	-0.41485
N	 2.0923249253	 0.0312614294	 1.2762313118	-0.295153
C	 3.0495332957	-0.1315175016	 0.3281118672	 0.160808
O	 2.9301979043	-0.7463324282	-0.712881397	-0.33261
C	 0.0506643026	-0.1270753854	 2.458512615	 0.323948
C	-0.4945388925	 0.1867278977	 3.48261626	-0.4707
H	 0.7838866399	 2.0517501811	-0.0753110564	 0.117613
H	-0.7487621951	 1.8699711983	-0.9324773762	 0.117108
H	-0.7292152532	 1.9262640371	 0.8366532164	 0.124002
H	-1.0391391676	-0.431295663	-0.0169500822	 0.102999
H	 0.4811056247	-0.3108968037	-0.9052494575	 0.138858
H	 1.3080266046	-2.3659629633	 0.2323543752	 0.157395
H	 1.2977397713	-2.471876308	 2.0091438846	 0.119716
H	-0.2362017542	-2.476113061	 1.1172461461	 0.122942
H	 2.3282239517	 0.571815892	 2.092880905	 0.255239
H	 3.9910349192	 0.3782036065	 0.6179129415	 0.081022
H	-0.9843704452	 0.4604548672	 4.3847035392	 0.202942
72.9769	115.9106	136.1285	169.6084	192.7627	224.6855	245.8363	252.1487	266.652	369.7473	383.1104	433.6924	509.9808	540.4052	602.9993	624.8384	658.2653	669.9331	784.6613	823.923	913.5559	933.0755	1007.7345	1028.9749	1049.2561	1072.7765	1131.5441	1175.8172	1211.2557	1247.8401	1323.3922	1363.8056	1401.1519	1411.3386	1431.5476	1478.3678	1482.1354	1496.726	1504.9333	1507.3018	1514.7246	1793.5568	2235.2578	2925.4601	3042.3059	3048.9609	3055.854	3101.3695	3111.9662	3121.8699	3129.4982	3154.7574	3498.7592	3639.0691
CCC(C)(NC=O)C#C	CC[C@@](C)(NC=O)C#C	
InChI=1S/C7H11NO/c1-4-7(3,5-2)8-6-9/h1,6H,5H2,2-3H3,(H,8,9)	InChI=1S/C7H11NO/c1-4-7(3,5-2)8-6-9/h1,6H,5H2,2-3H3,(H,8,9)/t7-/m0/s1
