13
gdb 20930	6.92653	1.19914	1.08022	1.6473	58.82	-0.2737	-0.0683	0.2054	1057.6802	0.09368	-431.843371	-431.835982	-431.835038	-431.876416	25.326	
C	 0.0464971586	 1.0862915369	 0.926479312	-0.360835
C	 0.1194043924	 0.2513511337	-0.3515494937	-0.151285
N	 0.8837204555	-0.9706820259	-0.113324925	-0.343877
C	 1.8304891408	-1.2819176982	-0.8519800579	 0.575614
O	 2.3474082665	-0.6447822368	-1.9663925432	-0.234753
N	 3.4181392719	-1.4166847196	-2.414950282	 0.061225
N	 3.5556039251	-2.4064229683	-1.6911254499	 0.070771
O	 2.603992287	-2.4102303558	-0.6853881699	-0.227197
H	-0.3764085766	 0.4975797407	 1.7448425107	 0.133775
H	 1.0421587671	 1.4234670146	 1.2298321439	 0.122937
H	-0.5812751936	 1.9683468167	 0.7679841678	 0.116997
H	-0.8925750767	-0.0506786574	-0.6469183127	 0.1225
H	 0.532213352	 0.8501032793	-1.1740593401	 0.114128
26.5452	132.0733	167.1744	202.0915	271.8457	402.1602	491.4967	635.8238	699.4797	718.9078	755.266	811.7061	895.6068	933.3148	993.6065	1047.4109	1088.8777	1123.1662	1146.7136	1192.1654	1308.6413	1387.9081	1410.3461	1488.548	1493.0441	1511.76	1569.9177	1862.6445	3014.0348	3042.9668	3054.8398	3115.5358	3125.0628
CCN=C1ON=NO1	CCN=c1onno1	
InChI=1S/C3H5N3O2/c1-2-4-3-7-5-6-8-3/h2H2,1H3	InChI=1S/C3H5N3O2/c1-2-4-3-7-5-6-8-3/h2H2,1H3
