15
gdb 14323	4.39116	1.88394	1.59817	2.9504	61.79	-0.2627	0.023	0.2857	808.1072	0.120742	-399.799192	-399.792834	-399.791889	-399.830073	24.144	
N	 0.0028216704	 1.2853970112	-0.0238965347	-0.527211
C	-0.0057821557	 0.0259488679	-0.0175546796	 0.403324
C	-1.233410142	-0.8547204691	-0.15831867	-0.318285
C	-0.668247859	-2.2445241241	-0.3888054077	 0.093167
O	-0.3496279432	-2.5194709231	-1.7731698847	-0.290701
C	 1.063777955	-2.6165932107	-1.4816622795	-0.094851
C	 0.8339697314	-2.1362636138	-0.0407363409	 0.048535
O	 1.1145482894	-0.7551598265	 0.156554488	-0.247223
H	 0.9516025567	 1.6418016429	 0.1019525525	 0.224811
H	-1.8220661059	-0.807372062	 0.7639197034	 0.135168
H	-1.8662511597	-0.521577268	-0.9821885088	 0.154596
H	-1.2458711247	-3.0560274065	 0.0627567208	 0.087286
H	 1.4276465149	-3.6483403151	-1.5649223489	 0.107587
H	 1.6711530264	-1.9540389571	-2.1064486594	 0.122268
H	 1.2672648761	-2.7094820659	 0.7790931994	 0.101528
88.4135	125.8673	352.1053	385.4272	454.1938	521.4223	654.4897	678.4949	812.0613	832.0545	860.4425	894.854	898.2354	922.2864	1002.282	1012.0547	1032.4506	1058.7831	1074.1149	1127.402	1168.4225	1179.1721	1234.3645	1253.906	1282.2029	1300.2955	1348.7722	1354.874	1384.5476	1449.0683	1510.625	1783.5624	3022.7396	3058.9166	3073.1449	3085.8933	3113.6459	3132.0646	3476.1373
N=C1CC2OCC2O1	[NH][C]1C[C@H]2OC[C@H]2O1	
InChI=1S/C5H7NO2/c6-5-1-3-4(8-5)2-7-3/h3-4,6H,1-2H2	InChI=1S/C5H7NO2/c6-5-1-3-4(8-5)2-7-3/h3-4,6H,1-2H2/t3-,4-/m1/s1
