17
gdb 24419	3.51837	1.5336	1.10831	1.3283	74.11	-0.2137	0.0195	0.2332	1054.9714	0.139139	-421.858171	-421.851292	-421.850348	-421.88946	27.262	
C	-0.0165849738	 1.3990128081	 0.0068141455	-0.074995
C	 1.4156822585	 1.9630955316	 0.0387092666	-0.340599
C	 2.2074133072	 1.264240817	-1.0257478803	 0.205736
C	 1.7438475902	 0.1171498298	-1.5825696107	 0.275377
C	 0.4724102674	-0.5762285023	-1.2260764394	-0.190334
O	-0.0330264454	-0.0237803874	-0.0203578566	-0.247782
O	 2.5898590276	-0.3465941125	-2.5374785482	-0.192887
C	 3.6321839041	 0.5360567335	-2.5833690368	-0.018599
C	 3.4557621867	 1.537792167	-1.68303599	-0.319821
H	-0.5728079186	 1.6832642222	 0.9039494856	 0.109787
H	-0.5507075892	 1.8004073925	-0.8696166842	 0.093054
H	 1.3826358957	 3.0474463534	-0.1230729517	 0.106524
H	 1.8593411484	 1.8040869408	 1.0299979976	 0.11726
H	-0.2719821065	-0.4903111228	-2.0378583691	 0.104598
H	 0.6290022226	-1.6444176173	-1.0386835867	 0.128434
H	 4.4030842127	 0.3067089113	-3.2999334748	 0.133998
H	 4.1248061125	 2.366940485	-1.5107075669	 0.110251
113.2356	211.4399	273.4939	329.3852	365.0639	458.0553	517.7773	613.1023	651.2652	693.434	735.3694	747.5864	820.6396	859.1293	915.2836	937.1448	979.0912	1028.3672	1061.6597	1082.7992	1117.4519	1136.4581	1169.4098	1215.3588	1229.2473	1262.6958	1269.4587	1309.0398	1350.4168	1380.3848	1417.4358	1460.0311	1477.7296	1491.7922	1500.8784	1537.5493	1668.0938	2943.2593	2976.8042	3020.8288	3057.5363	3059.9328	3093.8262	3249.7471	3286.2103
C1CC2=C(CO1)OC=C2	C1Cc2c(CO1)occ2	
InChI=1S/C7H8O2/c1-3-8-5-7-6(1)2-4-9-7/h2,4H,1,3,5H2	InChI=1S/C7H8O2/c1-3-8-5-7-6(1)2-4-9-7/h2,4H,1,3,5H2
