17
gdb 69443	4.0221	1.19799	1.03597	2.6244	74.67	-0.2531	0.034	0.2871	1167.2855	0.133921	-421.773884	-421.765436	-421.764492	-421.806838	31.832	
C	 0.0260749332	 1.4636236399	-0.1361717134	-0.491482
C	-0.0350346943	-0.0256175937	 0.0483066337	 0.391967
C	-1.2577114917	-0.8219895039	-0.3738653072	-0.134586
O	-1.1216619536	-2.1099680324	 0.2146913791	-0.26728
C	-0.2765624151	-2.0260293668	 1.3666111669	-0.065264
C	 0.463187207	-3.271211537	 1.5346481653	 0.316814
C	 1.0826639994	-4.2835648658	 1.716061884	-0.428371
C	 0.5898564315	-0.794608164	 1.127830252	-0.070832
O	 1.1743464228	-0.7734140301	-0.1723184045	-0.277754
H	 0.9602905329	 1.8601399884	 0.267852128	 0.138274
H	-0.0210071999	 1.7233582471	-1.1992500563	 0.135556
H	-0.8128279514	 1.9544184564	 0.3678017337	 0.127721
H	-2.1691462967	-0.3120690494	-0.0214681491	 0.094894
H	-1.3301114697	-0.9579029177	-1.458099615	 0.12151
H	-0.8799186554	-1.842022943	 2.2733288963	 0.099743
H	 1.6319298632	-5.1809964863	 1.8602721188	 0.200023
H	 1.1683545079	-0.3651366417	 1.9409568678	 0.109067
87.8419	132.3174	178.3314	204.2995	262.7012	305.0899	375.4715	413.6703	505.0818	528.908	606.4729	622.0457	669.3981	708.5549	812.8691	866.035	872.1853	928.5897	965.7048	1002.0359	1022.6171	1052.354	1080.7616	1101.263	1132.9263	1236.6294	1253.1254	1283.6263	1303.2102	1356.1038	1372.7949	1411.8428	1465.5917	1488.8605	1498.4569	1505.4266	2246.6221	2945.1745	2976.4634	3038.9913	3071.8851	3101.3357	3128.9271	3158.2111	3503.8044
CC12COC(C#C)C1O2	C[C@]12CO[C@@H](C#C)[C@H]1O2	
InChI=1S/C7H8O2/c1-3-5-6-7(2,9-6)4-8-5/h1,5-6H,4H2,2H3	InChI=1S/C7H8O2/c1-3-5-6-7(2,9-6)4-8-5/h1,5-6H,4H2,2H3/t5-,6+,7-/m0/s1
