25
gdb 60525	2.43381	1.167	0.99163	1.5543	88.53	-0.2585	0.0824	0.3409	1373.3713	0.226441	-389.486189	-389.475301	-389.474356	-389.521385	41.872	
C	 0.0077200932	 1.5291020017	 0.0151580922	-0.410086
C	-0.0164370234	-0.0116367011	 0.0643829999	 0.26769
C	 0.5741075259	-0.4838520052	 1.406113731	-0.411538
C	-1.4717588001	-0.4928235645	-0.0638361726	-0.415777
C	 0.8236625889	-0.5443025636	-1.1275430063	 0.126258
O	 2.1393972063	-0.0077999491	-0.9827408187	-0.452617
C	 0.8925340228	-2.0518984122	-1.2658969494	-0.016167
C	-0.0704770257	-2.8043235609	-2.1456575979	-0.264081
C	 1.3616880519	-2.6383844021	-2.5823952444	-0.294755
H	 1.0272617458	 1.9096481605	 0.1035580121	 0.131781
H	-0.4095248067	 1.8985357849	-0.9288607641	 0.100611
H	-0.5918741478	 1.947515926	 0.830697331	 0.100443
H	 0.0461320954	-0.0098132378	 2.2402805636	 0.103313
H	 0.4781932937	-1.5669810662	 1.5351535786	 0.103384
H	 1.6326825835	-0.2230932076	 1.4751299878	 0.128129
H	-1.9125777859	-0.1866769041	-1.0196166675	 0.103433
H	-1.5502226916	-1.5809926482	 0.0099418539	 0.115317
H	-2.083863105	-0.0583413257	 0.7338410955	 0.107994
H	 0.364235896	-0.1468185664	-2.0514648681	 0.049257
H	 2.7083157455	-0.4855933581	-1.5945012074	 0.280224
H	 1.2384476199	-2.5710814724	-0.3771949669	 0.09112
H	-0.4030239795	-3.7844294192	-1.8222541462	 0.113743
H	-0.8254578145	-2.2340464868	-2.6759680401	 0.116343
H	 1.5555230642	-1.9566461841	-3.4056851085	 0.111895
H	 2.015033687	-3.5032858676	-2.5594514974	 0.114087
63.0897	98.6475	167.3867	212.648	240.2958	253.3462	270.4565	278.1303	301.315	318.522	347.0677	351.5124	401.5836	444.956	501.5417	559.3831	751.3795	786.0593	833.8655	864.95	894.4197	934.9769	940.3099	943.2368	960.4089	982.8995	1025.7029	1037.9393	1056.426	1083.1231	1091.4544	1139.8148	1150.728	1198.2735	1219.7454	1225.2813	1240.9327	1265.869	1307.2371	1329.6205	1381.9232	1395.2136	1398.5012	1424.2761	1442.5783	1469.3899	1478.69	1487.8618	1492.3522	1503.0172	1504.4237	1506.2974	1523.2348	2922.7663	3025.4873	3029.5311	3037.7383	3086.2893	3091.2051	3095.3037	3109.5648	3124.5165	3124.8905	3129.9139	3135.2643	3154.6365	3205.9836	3222.3299	3818.5703
CC(C)(C)C(O)C1CC1	CC(C)(C)[C@@H](O)C1CC1	
InChI=1S/C8H16O/c1-8(2,3)7(9)6-4-5-6/h6-7,9H,4-5H2,1-3H3	InChI=1S/C8H16O/c1-8(2,3)7(9)6-4-5-6/h6-7,9H,4-5H2,1-3H3/t7-/m0/s1
