16
gdb 20845	4.97032	1.37468	1.14803	3.2751	67.06	-0.2202	0.034	0.2542	1047.2054	0.132759	-376.142019	-376.134089	-376.133145	-376.174562	28.919	
C	-0.1646386697	 1.5144847594	 0.1310878489	-0.372713
C	 0.1894222357	 0.0273201883	-0.0229226787	-0.278092
C	 0.8181946106	-0.5475066802	 1.2054946197	 0.350918
N	 2.0453974841	-1.0329849652	 1.2138929022	-0.279353
N	 2.1891136042	-1.4251533639	 2.5214852004	-0.251446
C	 1.0589727966	-1.1547883105	 3.2096179845	 0.406251
N	 0.8631259645	-1.4956064464	 4.5344482781	-0.599347
N	 0.1687444071	-0.5939172558	 2.4145487468	-0.360152
H	 0.7344203324	 2.1146666695	 0.3031198375	 0.117757
H	-0.6576140922	 1.8911792459	-0.7702439136	 0.108575
H	-0.8371349602	 1.6628572768	 0.9802229559	 0.133761
H	-0.7228137292	-0.538606502	-0.2478337673	 0.113472
H	 0.8789576453	-0.1208126198	-0.858729699	 0.116401
H	 3.0245611346	-1.9010165274	 2.8153794647	 0.270966
H	 1.6592452605	-1.3442726952	 5.1385847928	 0.254227
H	 0.0306688856	-1.0558520236	 4.9026357772	 0.268775
54.4958	139.8998	206.5844	259.7214	272.9091	323.7676	398.8483	428.0952	474.635	619.6244	660.1256	742.2177	757.4375	789.0497	803.2856	975.4764	1020.9533	1059.9987	1071.1929	1090.1788	1125.8768	1141.0698	1274.4786	1330.067	1344.5265	1396.5148	1409.8373	1474.7071	1490.8873	1496.2126	1513.0497	1574.1963	1604.0656	1660.1296	3035.7461	3040.1466	3091.9735	3109.2455	3124.2753	3556.8414	3655.2239	3676.6862
CCC1=NNC(N)=N1	CCc1n[nH]c(N)n1	
InChI=1S/C4H8N4/c1-2-3-6-4(5)8-7-3/h2H2,1H3,(H3,5,6,7,8)	InChI=1S/C4H8N4/c1-2-3-6-4(5)8-7-3/h2H2,1H3,(H3,5,6,7,8)
