25
gdb 80561	2.2292	1.35828	1.12931	0.128	92.46	-0.2458	0.0777	0.3235	1288.0027	0.229283	-352.37097	-352.361218	-352.360274	-352.405051	38.161	
C	-0.1210571751	 1.5622257764	 0.0267979065	-0.421609
C	 0.0430454888	 0.0587598313	 0.0600419112	-0.042973
C	 1.3154752316	-0.6720568152	-0.3262575196	-0.10204
C	 2.6345135305	 0.0969680936	-0.3649070542	-0.250296
C	 3.1233188687	 0.1490512681	 1.1070469693	 0.076162
C	 4.0330825383	 1.3309776954	 1.436836963	-0.409385
C	 1.8296943517	 0.0698580612	 1.9590781413	-0.311536
C	 0.8155440154	-0.7114858264	 1.1118852821	 0.348864
C	 0.1998631288	-1.9519783401	 1.7190711144	-0.484231
H	 0.7820273036	 2.0992293483	 0.3266283632	 0.118272
H	-0.379148979	 1.9010718004	-0.9831087277	 0.11431
H	-0.9270119594	 1.8813658456	 0.6975723621	 0.113939
H	-0.8582728119	-0.4601247533	-0.2634777415	 0.07295
H	 1.2139821645	-1.5456488128	-0.962921506	 0.072279
H	 3.3651528186	-0.3996104598	-1.0106930368	 0.093535
H	 2.5081986174	 1.1103794182	-0.7668370564	 0.093888
H	 3.6817744527	-0.7790709839	 1.2892792771	 0.06891
H	 3.5142410219	 2.2830307611	 1.2712462848	 0.111085
H	 4.3569775409	 1.3082990327	 2.4830770348	 0.110369
H	 4.9325479779	 1.3308810238	 0.811447394	 0.110401
H	 2.0123814294	-0.4366796715	 2.9123781296	 0.091783
H	 1.4701901145	 1.0754964995	 2.2106260881	 0.093265
H	-0.4434279301	-1.7051367271	 2.5727791079	 0.112618
H	-0.4151217182	-2.4887635147	 0.9889942565	 0.109779
H	 0.9703188987	-2.6455269808	 2.0779962866	 0.109662
64.4391	138.1057	202.8061	219.2707	230.3094	249.5566	259.0511	282.2012	357.786	419.4895	458.8345	516.7732	528.6198	607.7804	732.4814	770.1298	820.344	837.6759	882.4171	928.9206	935.4937	950.1909	968.5321	1017.4785	1023.8158	1061.9194	1083.0109	1095.3984	1126.0826	1136.2434	1141.7808	1164.9799	1188.2867	1248.8864	1265.2124	1284.1525	1304.5988	1316.6413	1345.3845	1358.7876	1374.6259	1410.1921	1415.2503	1420.4973	1450.567	1481.8313	1490.6937	1495.316	1495.8947	1498.6235	1503.114	1505.7735	1512.3142	3004.2005	3013.8573	3020.7828	3024.5678	3027.3147	3032.2503	3069.7683	3070.569	3075.0287	3082.5442	3087.7487	3090.3638	3092.4504	3103.3674	3120.3845	3149.6982
CC1C2CC(C)CC12C	C[C@H]1[C@H]2C[C@@H](C)C[C@@]12C	
InChI=1S/C9H16/c1-6-4-8-7(2)9(8,3)5-6/h6-8H,4-5H2,1-3H3	InChI=1S/C9H16/c1-6-4-8-7(2)9(8,3)5-6/h6-8H,4-5H2,1-3H3/t6-,7+,8-,9+/m1/s1
