20
gdb 77156	3.26983	1.07531	0.85849	3.2797	80.83	-0.2358	-0.015	0.2208	1358.1197	0.16927	-403.127405	-403.118288	-403.117344	-403.161764	33.78	
C	-0.5314971371	 1.2155463927	-0.1252308231	-0.416995
C	 0.1367989974	-0.1357677964	 0.0792230644	-0.093637
C	 1.0004482741	-0.796744562	-1.044565517	 0.025002
C	 2.0943528149	-1.1630802989	 0.0021337399	-0.367127
C	 1.3830949571	-0.2122233556	 0.9747533023	 0.382815
O	 1.7117769671	 0.3565256165	 1.9762242056	-0.300286
N	 0.385402569	-1.9254714857	-1.7108256725	-0.061629
C	-0.3382019556	-1.6388794863	-2.9481162436	-0.225395
C	 0.9775144017	-2.3333190288	-2.9831099313	-0.22445
H	 0.1778859905	 1.951929925	-0.5169601741	 0.119374
H	-1.3703513814	 1.1446151406	-0.8246650128	 0.120144
H	-0.9128553309	 1.5985022341	 0.8259995865	 0.137698
H	-0.5851762743	-0.886113551	 0.4281955429	 0.112606
H	 1.368438397	-0.034117777	-1.7521512126	 0.060656
H	 1.9987935223	-2.2070652592	 0.3190881997	 0.138494
H	 3.140150241	-0.9479498367	-0.2271959555	 0.124628
H	-1.2601646278	-2.1936840412	-3.0944931419	 0.12064
H	-0.3651895906	-0.6079265749	-3.2971091149	 0.113898
H	 1.8296871842	-1.7663824692	-3.3544356292	 0.112888
H	 1.0327341715	-3.4041164961	-3.1551514128	 0.120676
63.6217	80.4662	157.7238	182.3505	202.767	242.886	339.4815	361.3323	400.6617	484.1009	580.1261	637.4955	741.6725	760.103	811.8499	886.7097	895.7448	903.8244	928.9617	1012.0906	1037.1135	1059.3412	1062.4276	1109.4247	1113.3417	1120.1044	1138.8461	1155.348	1176.298	1188.305	1211.3765	1233.2551	1262.733	1323.5196	1331.4029	1381.2851	1404.9594	1436.5721	1492.8069	1494.3944	1494.8779	1520.216	1888.5568	2949.8557	3031.7244	3035.9251	3058.382	3096.9501	3101.6599	3104.048	3111.8447	3123.5222	3181.1202	3195.3381
CC1C(CC1=O)N1CC1	C[C@H]1[C@@H](CC1=O)N1CC1	
InChI=1S/C7H11NO/c1-5-6(4-7(5)9)8-2-3-8/h5-6H,2-4H2,1H3	InChI=1S/C7H11NO/c1-5-6(4-7(5)9)8-2-3-8/h5-6H,2-4H2,1H3/t5-,6+/m0/s1
