19
gdb 40120	2.18505	2.07081	1.2871	1.7271	80.7	-0.2292	0.0164	0.2455	1021.2066	0.161256	-382.023041	-382.015495	-382.01455	-382.054787	30.687	
C	 0.0254119928	 1.485665615	 0.017050147	-0.306355
N	 1.2498660769	 0.6623234619	 0.0306180955	-0.345861
C	-0.0731079596	 0.0113644882	 0.0129551936	 0.255322
C	-0.3977420182	-0.8471740092	 1.2397477432	-0.334633
C	-0.5540356373	-2.2292790698	 0.6452831928	-0.094995
C	-0.6054882797	-2.1995978589	-0.6862873186	-0.118367
C	-0.5187809009	-0.803153219	-1.1971032946	 0.263097
C	-1.4590055146	-0.2783860627	-2.2308369904	-0.286872
N	-0.0487594589	-0.5456603192	-2.56671564	-0.368948
H	-0.1641545296	 2.0438570133	 0.9303059817	 0.119896
H	-0.2305458495	 2.0263675545	-0.8928316343	 0.102662
H	 1.6739151045	 0.642349565	-0.8947536822	 0.22492
H	 0.40487653	-0.7772614938	 1.9804612956	 0.123956
H	-1.3253641975	-0.5226881815	 1.7320563818	 0.109419
H	-0.6394606293	-3.119984286	 1.2566621133	 0.098743
H	-0.7326708665	-3.044595839	-1.351680212	 0.104986
H	-2.1742836042	-0.9478395757	-2.7018368087	 0.118594
H	-1.7927206869	 0.7516506566	-2.1397851992	 0.113485
H	 0.4678250187	 0.3317967505	-2.6095153045	 0.22095
93.3103	232.2498	245.8183	268.1473	336.8121	399.4196	437.7582	523.1059	559.526	580.9615	735.7664	764.1807	820.6816	860.4955	872.2584	915.0308	919.3176	943.3192	965.7736	968.7121	974.9223	983.1907	1019.6304	1046.7745	1073.8289	1102.0831	1128.1294	1143.1116	1186.3616	1228.0462	1251.2407	1262.4334	1283.6211	1313.8554	1330.4169	1404.4814	1413.269	1477.7027	1507.1018	1517.689	1677.1138	3010.5017	3077.8033	3092.9267	3104.7931	3174.9357	3191.7285	3194.6117	3220.6997	3465.0431	3482.636
C1NC11CC=CC11CN1	C1N[C@]21CC=C[C@]12CN1	
InChI=1S/C7H10N2/c1-2-6(4-8-6)7(3-1)5-9-7/h1-2,8-9H,3-5H2	InChI=1S/C7H10N2/c1-2-6(4-8-6)7(3-1)5-9-7/h1-2,8-9H,3-5H2/t6-,7+/m1/s1
