18
gdb 45165	2.92625	1.80377	1.54686	3.116	74.2	-0.2116	-0.011	0.2005	914.5412	0.151749	-401.966523	-401.960103	-401.959159	-401.997187	26.973	
O	 0.0342751259	 0.0467772258	 0.5082885437	-0.337763
C	 0.0049037335	 1.1890821401	 0.1075793069	 0.40467
C	-1.3021428411	 1.9435930672	-0.16691603	-0.29983
N	-1.0832692945	 3.3169092225	-0.6466499214	-0.100661
C	-0.2267675648	 3.2641008246	-1.8522016986	-0.193879
C	 1.1792802345	 3.0076783202	-1.3139629418	-0.067366
C	 1.168430104	 3.5028302695	 0.0985598145	-0.067364
C	-0.2436024216	 4.0324330351	 0.3396155655	-0.193879
C	 1.225718927	 1.9963342345	-0.1659956679	-0.152072
H	-1.8846938756	 1.3820392232	-0.9056914947	 0.132615
H	-1.8974049028	 1.9633972458	 0.7527407761	 0.132619
H	-0.5942918757	 2.4985905825	-2.541745016	 0.111665
H	-0.2609544243	 4.2303542121	-2.3692879285	 0.10996
H	 2.0473793052	 3.0932068014	-1.9567111279	 0.097874
H	 2.0280557544	 3.9750945356	 0.5590446908	 0.097875
H	-0.2802257614	 5.1098853635	 0.1397459617	 0.109959
H	-0.6241933397	 3.8632057807	 1.3510815043	 0.111665
H	 2.1647391567	 1.4879581758	 0.0194292632	 0.103913
106.0632	332.9029	368.595	433.5438	454.4457	488.5109	564.402	575.8183	671.4267	715.8368	781.2392	799.926	852.6536	884.1186	916.2874	949.8819	955.9706	1000.4186	1012.488	1038.656	1059.2085	1083.1945	1084.7568	1111.0116	1128.3883	1189.0977	1236.5485	1291.5104	1294.2159	1309.0762	1319.9213	1322.018	1325.9277	1347.4514	1406.528	1446.7366	1497.3264	1512.092	1806.3629	3033.7169	3036.4089	3043.5373	3083.1812	3091.0191	3091.808	3180.2408	3181.2294	3194.2542
O=C1CN2CC3C(C2)C13	O=C1CN2C[C@H]3[C@@H](C2)[C@@H]13	
InChI=1S/C7H9NO/c9-6-3-8-1-4-5(2-8)7(4)6/h4-5,7H,1-3H2	InChI=1S/C7H9NO/c9-6-3-8-1-4-5(2-8)7(4)6/h4-5,7H,1-3H2/t4-,5+,7-
