13
gdb 44338	3.44195	2.04126	1.6386	3.5644	59.81	-0.2585	-0.0392	0.2193	786.9674	0.091891	-452.743063	-452.737374	-452.73643	-452.773122	22.825	
O	 0.1342496911	 0.2183953981	 0.5817377168	-0.317041
C	 0.1158008418	 1.2670035271	 0.030208474	 0.452648
O	-0.9704668657	 2.1084250631	 0.005065738	-0.210078
C	-0.6906424559	 3.1928335257	-0.8495535387	 0.064709
C	 0.4859067579	 4.1561027296	-0.5816028499	-0.054834
N	 1.3440155976	 3.9505323483	 0.5621201058	-0.170138
C	 1.7386386361	 2.7465352686	 0.5017123289	-0.000399
N	 1.2427548674	 1.9492556564	-0.62416433	-0.217689
C	 0.6236332437	 2.961729746	-1.5026953912	-0.094565
H	-1.5694870511	 3.562446198	-1.3598628045	 0.139007
H	 0.3737545571	 5.1708967065	-0.9406403061	 0.122347
H	 2.3416569275	 2.2459227744	 1.2498173762	 0.164664
H	 0.8488856824	 2.9373024583	-2.5610546394	 0.121368
147.3082	275.8744	378.928	505.7979	623.5274	650.5667	744.2788	749.0582	774.4928	788.6124	809.739	845.5326	884.4796	926.9986	941.3983	997.2782	1020.3002	1035.2917	1057.3337	1086.3117	1092.4374	1110.391	1167.9793	1264.2538	1312.3077	1325.1234	1384.5958	1668.1439	1922.4566	3191.4184	3206.8926	3219.1224	3227.2022
O=C1OC2C3N=CN1C23	O=C1O[C@H]2[C@H]3[N][CH]N1[C@@H]23	
InChI=1S/C5H4N2O2/c8-5-7-1-6-2-3(7)4(2)9-5/h1-4H	InChI=1S/C5H4N2O2/c8-5-7-1-6-2-3(7)4(2)9-5/h1-4H/t2-,3+,4-/m0/s1
