18
gdb 83102	2.65981	1.67358	1.19589	3.6482	78.17	-0.2317	0.0095	0.2412	1059.1766	0.149137	-401.985824	-401.977847	-401.976902	-402.018582	29.805	
C	-0.0039441071	 1.4228023113	-0.1059600992	-0.349898
N	 0.0052280994	-0.0162401863	-0.0617978693	-0.066167
C	-1.0700688673	-1.0146383068	-0.0485555549	 0.006891
C	-1.8359260675	-1.2124164185	-1.3737968305	-0.281193
C	-1.0388628862	-2.2830175185	-2.0860285251	-0.058761
C	-0.0513384222	-2.7825688486	-1.3409687635	-0.070324
C	 0.0500637371	-2.1098964351	-0.0024553931	-0.23259
C	 1.0440820474	-0.9085944285	 0.0396857892	 0.405632
O	 2.2345618135	-0.756228546	 0.1187495781	-0.377512
H	 1.0353976474	 1.7587126348	-0.0733872401	 0.162245
H	-0.4659367494	 1.8009122463	-1.0259503982	 0.12765
H	-0.539633986	 1.8493722356	 0.7514254151	 0.126181
H	-1.7191553969	-0.9307706408	 0.8284011786	 0.080554
H	-2.8707176356	-1.531368683	-1.1945110279	 0.111478
H	-1.8972184254	-0.2808327865	-1.9505382389	 0.112034
H	-1.2670585752	-2.5934689707	-3.0999392761	 0.098011
H	 0.6401375659	-3.5562044834	-1.6526874595	 0.107395
H	 0.1026975482	-2.7751057355	 0.8621080954	 0.098374
97.1353	119.6399	148.6718	210.7121	238.7871	327.2151	427.9581	487.8476	648.2488	681.6101	698.5402	770.1602	825.1895	833.7963	852.2381	905.0154	954.2668	972.9291	1003.4165	1026.8345	1034.7856	1067.0816	1127.9707	1142.9355	1162.4987	1178.0541	1223.0972	1258.451	1296.3378	1319.8041	1324.6881	1380.6518	1411.9894	1447.9365	1473.9439	1483.9581	1516.8941	1674.67	1875.5964	3012.7246	3021.6861	3049.0693	3060.6183	3063.5664	3094.9245	3127.729	3186.6783	3214.9009
CN1C2CC=CC2C1=O	CN1[C@H]2CC=C[C@H]2C1=O	
InChI=1S/C7H9NO/c1-8-6-4-2-3-5(6)7(8)9/h2-3,5-6H,4H2,1H3	InChI=1S/C7H9NO/c1-8-6-4-2-3-5(6)7(8)9/h2-3,5-6H,4H2,1H3/t5-,6+/m1/s1
