14
gdb 25989	5.22206	1.06463	0.88443	4.5897	65.36	-0.2101	0.0199	0.2301	1214.5427	0.102584	-470.078443	-470.070489	-470.069545	-470.111875	28.69	
N	-0.1533544428	 1.3418265457	-0.038474163	-0.560391
C	 0.1330087578	 0.0175602214	-0.0357593688	 0.500502
O	 1.2449526825	-0.4605660777	 0.0151858673	-0.402338
O	-1.0316348801	-0.6891429938	-0.1206050928	-0.280013
C	-1.0368104215	-2.0570659226	-0.1663336241	 0.394413
C	-2.1207854199	-2.8870114037	-0.2440941509	-0.198333
N	-1.6902442465	-4.1954195284	-0.2692624945	-0.255507
C	-0.380880679	-4.1424389117	-0.2078813989	 0.01344
N	 0.0773989414	-2.8563627791	-0.1433371576	-0.306475
H	 0.6006383055	 1.9814065446	 0.1372786594	 0.280323
H	-1.1037460835	 1.6579955302	 0.0392520333	 0.2783
H	-3.1639342807	-2.6181749476	-0.2831813317	 0.111149
H	 0.2908558143	-4.9872029329	-0.2059590088	 0.131118
H	 1.0158567025	-2.4919136242	-0.084762869	 0.293811
46.5287	82.8861	189.6987	203.232	314.1384	372.2335	399.5198	529.8934	607.4069	622.6461	666.6053	703.2512	762.1849	763.8647	793.7422	821.3936	924.8939	965.518	1058.5946	1092.2775	1111.6232	1139.554	1260.5355	1284.6443	1362.5675	1384.6206	1444.9556	1517.4156	1606.8508	1620.0704	1827.0679	3255.1667	3263.9416	3629.2323	3635.9329	3764.3774
NC(=O)OC1=CN=CN1	NC(=O)Oc1cnc[nH]1	
InChI=1S/C4H5N3O2/c5-4(8)9-3-1-6-2-7-3/h1-2H,(H2,5,8)(H,6,7)	InChI=1S/C4H5N3O2/c5-4(8)9-3-1-6-2-7-3/h1-2H,(H2,5,8)(H,6,7)
