21
gdb 59394	2.77394	0.96629	0.94352	3.2817	84.65	-0.2657	0.0184	0.2841	1407.3887	0.180804	-383.275166	-383.26479	-383.263846	-383.310556	37.734	
C	 1.2394182849	 0.8431625199	-0.9761471409	-0.391395
C	 1.7909609499	-0.507410547	-0.4951704354	 0.018019
C	 3.3179095208	-0.5801133391	-0.6320028559	-0.3925
C	 1.373075585	-0.7437960607	 0.9433808466	-0.028684
N	-0.0048982399	-1.1635336051	 1.2045412	-0.363131
C	 1.0942983717	-2.1013813987	 1.5331608205	 0.150811
C	 1.141437927	-3.3994551903	 0.7498243055	-0.45611
C	 1.4291059674	-2.2418061728	 2.9359554128	 0.236491
N	 1.6833722349	-2.3609666378	 4.0586119171	-0.341378
H	 1.6559478595	 1.6707428633	-0.3895391844	 0.113407
H	 1.4986361812	 1.0170740511	-2.025125883	 0.115672
H	 0.1500806816	 0.8740971897	-0.8827527771	 0.129836
H	 1.3417684132	-1.2906642566	-1.115123281	 0.082937
H	 3.8043748926	 0.1860296195	-0.0170911187	 0.119072
H	 3.7052649032	-1.5543749786	-0.3176714129	 0.118736
H	 3.6230052569	-0.4135847034	-1.6695849143	 0.118919
H	 1.807319141	-0.0302834722	 1.644840935	 0.100822
H	-0.3736867448	-0.7284912224	 2.0463510532	 0.248946
H	 0.4612440936	-4.1315909858	 1.1944894516	 0.141526
H	 0.8289614194	-3.2301786549	-0.2808616324	 0.141554
H	 2.150034301	-3.8228447079	 0.7547248636	 0.13645
56.5784	102.9775	127.3	160.7891	207.3993	222.2778	249.3678	258.9178	316.4568	361.3471	378.8864	446.3673	488.6785	584.2606	596.6586	692.8244	794.9637	858.6633	894.5364	927.8189	950.1535	968.2832	1002.7362	1064.8686	1080.0957	1112.8929	1123.5945	1147.5017	1194.529	1247.2655	1281.0781	1324.3551	1336.1793	1340.0632	1396.756	1415.636	1417.7977	1455.9297	1483.6253	1488.0714	1491.2523	1494.9755	1504.1123	1513.0333	2344.6616	3027.7823	3031.4947	3047.0403	3052.5578	3094.0222	3098.0784	3105.3393	3108.2504	3114.1645	3117.1016	3151.2787	3509.9362
CC(C)C1NC1(C)C#N	CC(C)[C@H]1N[C@]1(C)C#N	
InChI=1S/C7H12N2/c1-5(2)6-7(3,4-8)9-6/h5-6,9H,1-3H3	InChI=1S/C7H12N2/c1-5(2)6-7(3,4-8)9-6/h5-6,9H,1-3H3/t6-,7-/m1/s1
