19
gdb 51252	3.86165	1.0273	0.96788	2.5608	82.39	-0.2252	-0.0291	0.1961	1273.7212	0.159794	-385.868041	-385.860112	-385.859168	-385.901781	30.177	
O	 0.207409673	-0.1602644598	-0.3633028435	-0.234734
C	 0.0938405401	 1.0285655385	-0.2231193097	 0.161929
C	 1.2546489653	 2.0011453068	-0.0492835796	-0.411199
C	 1.2896868455	 2.9852478564	-1.1738388979	 0.333394
C	 0.9766413326	 4.2856224882	-1.2265587967	-0.20141
C	 1.2162204951	 4.6554001363	-2.6961489975	-0.058573
C	 0.5559228892	 3.423276141	-3.4073742292	-0.206912
C	 1.6893331647	 2.6690033312	-2.6298795047	-0.109932
C	 2.5784902671	 3.9190942359	-2.9496867127	-0.205904
H	-0.9047192534	 1.5229171307	-0.2314470326	 0.078235
H	 1.1046236788	 2.5322042471	 0.8999806498	 0.121362
H	 2.1769548053	 1.4141066057	 0.0149342295	 0.124735
H	 0.6433623043	 4.9479594417	-0.4393603488	 0.099399
H	 1.0368622012	 5.6820858787	-3.0133276907	 0.062652
H	-0.4790993802	 3.1872711968	-3.1483691664	 0.091764
H	 0.697500508	 3.418132068	-4.4926909532	 0.095432
H	 1.9931439873	 1.6507655858	-2.8727849739	 0.071349
H	 2.9091926985	 3.9617056313	-3.9921954903	 0.095211
H	 3.4041859777	 4.1386325298	-2.2686774219	 0.093204
47.2339	53.8336	138.5639	279.1183	313.6069	460.6547	492.915	520.6325	603.7712	644.1301	781.6392	793.7613	836.3931	839.3457	846.2338	862.8848	893.1739	934.9042	996.3871	1004.2272	1011.7355	1056.4418	1066.7312	1078.5561	1110.0773	1110.7495	1164.5208	1201.6935	1226.9373	1235.8277	1241.4282	1250.3489	1273.0717	1288.0173	1331.0986	1415.3746	1453.8758	1480.159	1517.4103	1675.0299	1833.8697	2870.0287	3022.0925	3044.4116	3053.4746	3085.2837	3113.8746	3118.5637	3119.1521	3123.1427	3224.9314
O=CCC1=CC2CC1C2	O=CCC1=C[C@@H]2C[C@H]1C2	
InChI=1S/C8H10O/c9-2-1-7-3-6-4-8(7)5-6/h2-3,6,8H,1,4-5H2	InChI=1S/C8H10O/c9-2-1-7-3-6-4-8(7)5-6/h2-3,6,8H,1,4-5H2/t6-,8+
