19
gdb 42878	2.23701	1.78166	1.51623	2.7231	80.21	-0.2324	-0.0138	0.2186	994.7809	0.161599	-385.912724	-385.905317	-385.904373	-385.944383	29.682	
O	-0.0091794476	 0.1737839126	-0.5877657908	-0.316204
C	-0.019293977	 1.3120474444	-0.2169956029	 0.418004
C	-1.1292421252	 2.2971005951	 0.1918604852	-0.136181
C	-0.0272031765	 3.0943520652	 0.9564085228	-0.252794
C	 1.0747198176	 2.326286642	 0.1623845516	-0.136181
C	 1.6064859132	 3.0818958372	-1.0605373753	-0.265647
C	 0.5937336859	 3.6872708651	-1.9978105575	-0.049218
C	-0.7423955369	 3.6695774732	-1.9799402986	-0.049219
C	-1.7133396644	 3.0379320774	-1.0161360269	-0.265647
H	-1.9370772171	 1.8661590579	 0.7896043882	 0.089258
H	-0.0433347976	 4.1778090297	 0.8229959946	 0.107653
H	-0.0098434151	 2.8604399173	 2.0228354167	 0.10782
H	 1.9093775089	 1.9170978808	 0.7381595907	 0.089258
H	 2.2747078247	 3.8835751138	-0.713372184	 0.114044
H	 2.2475396214	 2.4012896953	-1.6382813891	 0.126898
H	 1.0568094811	 4.227444302	-2.8225221128	 0.088607
H	-1.2414972876	 4.1970094623	-2.7917829939	 0.088607
H	-2.3513674394	 2.3403867522	-1.5767730199	 0.126898
H	-2.3930315684	 3.8217602967	-0.650942838	 0.114044
112.8612	175.1178	222.2845	328.1406	340.2833	405.2731	453.8443	474.0225	659.7717	662.7933	735.3848	769.5212	805.3183	825.5693	865.7494	878.207	893.4962	955.6171	1005.0202	1022.3741	1045.9618	1061.0382	1093.5146	1100.7955	1123.3683	1151.5028	1200.7887	1236.8454	1238.1453	1273.0366	1282.9157	1292.6754	1328.26	1374.6169	1392.6277	1432.7105	1463.6355	1466.9231	1487.3787	1729.6637	1888.3774	3001.018	3001.2138	3028.7378	3029.4787	3068.1582	3074.0193	3079.9858	3121.4461	3128.7007	3145.4525
O=C1C2CC1CC=CC2	O=C1[C@H]2C[C@@H]1CC=CC2	
InChI=1S/C8H10O/c9-8-6-3-1-2-4-7(8)5-6/h1-2,6-7H,3-5H2	InChI=1S/C8H10O/c9-8-6-3-1-2-4-7(8)5-6/h1-2,6-7H,3-5H2/t6-,7+
