12
gdb 24767	3.5256	1.72167	1.15678	1.735	66.65	-0.2381	-0.1052	0.1329	940.9672	0.079862	-435.513264	-435.507105	-435.506161	-435.543986	23.443	
O	-0.0023858638	-0.0427207745	 0.0042309027	-0.294668
C	 0.0214082687	 1.1605553897	 0.0094482206	 0.275644
C	-1.1899350623	 2.1049534567	 0.031107283	-0.182015
C	-0.7928561186	 3.3873428846	 0.0313638364	-0.198507
C	 0.6947277433	 3.3922670007	 0.0102163136	 0.246161
C	 1.1548628654	 2.1201953308	-0.0022157026	 0.190954
O	 2.5129749219	 2.1516929395	-0.021425018	-0.180637
C	 2.7850124448	 3.4844738943	-0.0191388686	 0.047512
N	 1.7463667473	 4.2767758724	-0.0006609712	-0.339972
H	-2.1987691029	 1.7181553359	 0.0437138366	 0.13388
H	-1.4189625886	 4.2691280115	 0.0443724797	 0.137051
H	 3.8281989947	 3.7587374883	-0.0327292823	 0.164596
129.6301	216.056	298.125	378.2631	524.5416	606.4398	627.6025	645.2919	671.9003	733.5594	741.4144	829.2304	843.3833	948.5662	950.8528	1011.703	1069.2848	1094.2341	1126.5851	1267.0436	1290.1624	1361.5882	1397.7334	1492.7723	1582.9449	1627.9723	1827.8062	3226.85	3252.4705	3281.3007
O=C1C=CC2=C1OC=N2	O=C1C=Cc2c1ocn2	
InChI=1S/C6H3NO2/c8-5-2-1-4-6(5)9-3-7-4/h1-3H	InChI=1S/C6H3NO2/c8-5-2-1-4-6(5)9-3-7-4/h1-3H
