17
gdb 116435	2.46684	1.45481	0.97378	4.4705	65.12	-0.2615	-0.0009	0.2605	1173.0859	0.136326	-496.120978	-496.112596	-496.111652	-496.154608	30.612	
O	 0.0829904605	 1.3652669408	-0.1618388613	-0.421232
C	 0.0617166168	-0.0431423341	-0.1177501474	-0.066319
C	-1.3709266312	-0.5604247575	 0.0366108825	-0.063811
O	-2.1050539615	-0.0528474531	-1.0704224692	-0.269354
C	-3.3619142625	-0.6872734093	-1.1952571372	-0.106295
C	-3.1354416514	-2.1503708981	-1.5142047068	-0.067935
O	-2.307391923	-2.7896078861	-0.5268754054	-0.229775
C	-1.3982885918	-2.0830699127	 0.1813558399	 0.40702
O	-0.6644955672	-2.6501954546	 0.9440748563	-0.325109
H	-0.5236925287	 1.6277844466	-0.8636553816	 0.292784
H	 0.5034508747	-0.4893679788	-1.0224660865	 0.097117
H	 0.6505138984	-0.362819245	 0.7431788822	 0.140889
H	-1.7904929035	-0.1544046139	 0.9725199554	 0.117298
H	-3.9518481794	-0.5736010417	-0.271941995	 0.110783
H	-3.8986305421	-0.1980526624	-2.0127805179	 0.126609
H	-4.0732005132	-2.7127404247	-1.5328350008	 0.128781
H	-2.6442386349	-2.2491423652	-2.4888318973	 0.128548
59.3679	120.5963	144.5876	187.2373	299.057	334.0628	404.1843	425.1587	478.6493	484.1675	542.0029	643.0891	685.3206	826.7016	892.599	929.4174	958.1814	1051.6387	1084.6947	1090.224	1110.4734	1143.1048	1149.324	1216.4768	1232.942	1273.3742	1285.7139	1317.764	1351.612	1391.8149	1406.6576	1426.7909	1428.7869	1492.0818	1499.2961	1504.2616	1841.3249	2970.372	2988.4673	2991.2924	3044.5157	3097.8995	3102.8548	3130.2251	3801.9131
OCC1OCCOC1=O	OC[C@H]1OCCOC1=O	
InChI=1S/C5H8O4/c6-3-4-5(7)9-2-1-8-4/h4,6H,1-3H2	InChI=1S/C5H8O4/c6-3-4-5(7)9-2-1-8-4/h4,6H,1-3H2/t4-/m1/s1
