16
gdb 34727	3.66694	1.45886	1.43651	3.1898	70.5	-0.2552	0.0289	0.284	937.32	0.127634	-400.760168	-400.75381	-400.752866	-400.790934	25.853	
N	-0.0577957108	-1.1789278082	-0.1401985695	-0.335804
C	-0.0466475061	-0.0257241097	-0.0559960586	 0.275377
C	-0.0216831735	 1.4263647282	 0.04053539	-0.161883
C	-0.4473811715	 2.0006940875	 1.3956596747	-0.111851
C	 0.8127370619	 2.0973132108	 2.259202932	-0.103138
C	 1.9716633074	 1.56551181	 1.4245871209	-0.243164
C	 1.4134447456	 2.0549906296	 0.073260226	 0.040129
O	 1.112557329	 3.4309127774	 0.3132066663	-0.248281
C	 0.3247334117	 3.2967957993	 1.483468477	 0.069413
H	-0.6013889461	 1.8556225807	-0.782269129	 0.131002
H	-1.4395806735	 1.8635334945	 1.8007442765	 0.11153
H	 0.7763279587	 2.0398036276	 3.3377998389	 0.102194
H	 2.922973174	 2.0479863332	 1.6622065628	 0.117208
H	 2.0867787082	 0.4803610243	 1.4678877539	 0.136001
H	 2.023149937	 1.9478010678	-0.819816712	 0.104629
H	-0.044069402	 4.226098047	 1.8917792401	 0.116639
135.8478	157.6702	384.9934	428.1785	486.8825	539.2322	584.3967	672.133	741.5793	799.5256	811.8535	816.1806	886.3383	920.5255	932.1185	960.865	971.5185	1013.4033	1028.9963	1043.8682	1049.6519	1062.8499	1080.3003	1088.4379	1148.9392	1193.2339	1242.6081	1243.3953	1278.4837	1300.1481	1326.6025	1348.6381	1381.2973	1486.1195	2354.4376	3073.538	3074.589	3128.9438	3168.5213	3218.1162	3223.3666	3236.6766
N#CC1C2C3CC1OC23	N#C[C@H]1[C@H]2[C@H]3C[C@@H]1O[C@@H]23	
InChI=1S/C7H7NO/c8-2-4-5-1-3-6(4)7(3)9-5/h3-7H,1H2	InChI=1S/C7H7NO/c8-2-4-5-1-3-6(4)7(3)9-5/h3-7H,1H2/t3-,4-,5+,6-,7-/m1/s1
