20
gdb 111361	2.07527	1.6416	1.10046	1.7077	84.01	-0.2333	0.0289	0.2622	1175.6115	0.170082	-365.932913	-365.923928	-365.922984	-365.966473	34.35	
C	-0.1381744296	 1.5420017816	-0.0341769896	-0.385187
C	-0.18329555	 0.0127214185	 0.05584442	-0.203736
C	 0.7158123093	-0.5452791899	 1.1536963809	 0.007454
C	 0.7827021525	-2.0524739278	 1.3836300564	-0.052164
C	 1.48686458	-2.7645261546	 0.3006881436	-0.243758
N	 2.3031602543	-2.0929806983	 1.3297104829	-0.13416
C	 2.2824925021	-0.6111164027	 0.9812138618	-0.184762
C	 2.8719695711	-0.2500070311	-0.2933255696	 0.379399
C	 3.3537848457	 0.0448122457	-1.3559222292	-0.478913
H	 0.8740187465	 1.8918969112	-0.2588936684	 0.129224
H	-0.8013303542	 1.9104882697	-0.8226296697	 0.112969
H	-0.4526478942	 2.0037483193	 0.908710423	 0.111053
H	-1.2113802816	-0.3174794081	 0.255085352	 0.096191
H	 0.0975498852	-0.4191973759	-0.9108638351	 0.105644
H	 0.4975677359	-0.0309471265	 2.0949975611	 0.083648
H	 0.2387124115	-2.5811731358	 2.1602701894	 0.094282
H	 1.5431385877	-3.8461150692	 0.3746556092	 0.122522
H	 1.4961302862	-2.3788135966	-0.714642288	 0.1261
H	 2.7946390247	-0.0760285091	 1.7844767056	 0.1126
H	 3.792966887	 0.3081102395	-2.2864556866	 0.201596
96.5479	116.388	136.8645	188.3898	212.0163	272.1341	362.1411	376.9308	464.0297	554.7732	588.4988	622.322	652.6944	699.9915	755.8994	783.1151	806.2686	813.0741	935.2815	949.7888	994.3065	1007.2187	1033.1868	1059.0434	1085.6382	1109.08	1115.176	1151.3413	1166.2998	1208.4064	1234.8091	1270.089	1297.7123	1335.9532	1347.39	1373.0821	1400.4339	1411.818	1482.0727	1500.225	1501.6977	1508.4706	2225.0634	3023.2583	3033.0991	3049.7342	3068.979	3077.7277	3101.254	3111.8833	3120.1536	3157.287	3206.7808	3501.6588
CCC1C2CN2C1C#C	CC[C@H]1[C@H]2CN2[C@H]1C#C	
InChI=1S/C8H11N/c1-3-6-7(4-2)9-5-8(6)9/h2,6-8H,3,5H2,1H3	InChI=1S/C8H11N/c1-3-6-7(4-2)9-5-8(6)9/h2,6-8H,3,5H2,1H3/t6-,7+,8-,9?/m1/s1
