16
gdb 45794	2.74778	1.87769	1.33345	3.2524	70.68	-0.226	-0.0297	0.1962	943.3942	0.127433	-437.903587	-437.896758	-437.895814	-437.934727	27.263	
O	 0.0159864292	-0.0860287059	 0.251286169	-0.350767
C	 0.0270790494	 1.1107883727	 0.0499162978	 0.409895
N	-1.1636828346	 1.8043182288	-0.1094143559	-0.336645
C	-1.4172676887	 3.1404411673	-0.4220259369	 0.01922
C	-0.5214105991	 4.1120942653	-0.6285882463	-0.104363
C	 0.9535472242	 3.8845122103	-0.5040942262	 0.042544
C	 1.5015356939	 2.702961561	-1.3500312608	-0.286601
C	 1.3278842954	 1.9074250734	-0.0399357183	-0.016746
O	 1.2616480815	 3.1324173862	 0.7159754044	-0.283796
H	-1.9645290598	 1.1963938349	-0.015035463	 0.255839
H	-2.4788315104	 3.3482493352	-0.4974934522	 0.120197
H	-0.8875130472	 5.1039353572	-0.863572181	 0.097537
H	 1.5150059751	 4.8209809722	-0.5395931642	 0.083573
H	 0.9332084658	 2.3972570835	-2.2290757103	 0.119915
H	 2.5550999934	 2.8262300075	-1.6027767234	 0.122749
H	 2.134441132	 1.2487099104	 0.2862532572	 0.107449
118.9141	209.802	310.9344	321.3211	409.9334	433.3084	549.979	595.2546	627.006	711.9803	722.2658	761.9562	833.9787	852.5258	894.8617	914.3328	945.493	963.5345	1004.7994	1015.4836	1081.4722	1114.9469	1127.4828	1220.1474	1247.2761	1254.752	1299.0588	1325.2712	1347.172	1374.6682	1435.5555	1484.7596	1486.8123	1714.6559	1790.9244	3080.0554	3087.587	3107.1928	3149.12	3188.4915	3210.3121	3611.4412
O=C1NC=CC2CC1O2	O=C1NC=C[C@@H]2C[C@H]1O2	
InChI=1S/C6H7NO2/c8-6-5-3-4(9-5)1-2-7-6/h1-2,4-5H,3H2,(H,7,8)	InChI=1S/C6H7NO2/c8-6-5-3-4(9-5)1-2-7-6/h1-2,4-5H,3H2,(H,7,8)/t4-,5-/m1/s1
