23
gdb 117191	3.41066	0.85889	0.73802	2.5016	87.29	-0.2386	-0.0064	0.2322	1645.8094	0.203401	-388.313855	-388.303312	-388.302368	-388.350218	38.606	
C	 0.0288809822	 1.5333465996	 0.2357589282	-0.388433
C	-0.0183925572	 0.0644534783	-0.1913915075	-0.158506
C	-1.3784932457	-0.5817791919	 0.0708222409	-0.298751
C	-1.4509217125	-2.0442555286	-0.346671614	 0.312207
O	-0.4901405233	-2.6032099936	-0.8388235145	-0.332282
C	-2.7472738669	-2.7807913717	-0.1329677885	 0.249823
C	-3.9296991613	-2.0569487823	 0.4828813308	-0.487304
C	-3.0310424545	-3.8552136104	-1.1794635368	-0.274047
C	-2.574147047	-4.265083047	 0.178912399	-0.274068
H	 1.0122167809	 1.970650284	 0.0373503081	 0.114464
H	-0.7148670141	 2.1312390105	-0.303443052	 0.111112
H	-0.173894024	 1.6455208985	 1.3070524727	 0.111106
H	 0.2202663991	-0.0288320035	-1.2560443578	 0.111738
H	 0.75414334	-0.5079510285	 0.3327545054	 0.111703
H	-1.6442156089	-0.5136382342	 1.1355280775	 0.118887
H	-2.1775110997	-0.0348335593	-0.4500902502	 0.118878
H	-4.2512532359	-1.2031100013	-0.1233410955	 0.121249
H	-4.7840966248	-2.7349855079	 0.5672158451	 0.116529
H	-3.7076149332	-1.6875332306	 1.4899154396	 0.121239
H	-4.0699274498	-4.0067877149	-1.4517919456	 0.111768
H	-2.3147363334	-3.9323721361	-1.988571875	 0.135456
H	-1.5534433413	-4.6153384097	 0.274719275	 0.135453
H	-3.2911711586	-4.7052356892	 0.8634175952	 0.11178
34.2729	71.6123	99.8802	130.2707	217.4889	243.8505	280.6592	288.3548	291.6043	351.6076	360.4444	417.3103	567.52	578.9966	748.9105	754.1007	797.291	824.5934	863.2338	883.2927	910.0869	954.1001	958.4494	1030.7451	1052.041	1076.5442	1079.3483	1089.149	1102.0304	1123.4816	1139.3508	1205.5523	1248.3312	1288.9097	1314.1617	1321.206	1344.2292	1395.0721	1413.9913	1422.5041	1446.7093	1449.9029	1482.4071	1486.5746	1494.9408	1500.0494	1501.5665	1508.0929	1771.5457	3009.2624	3026.8847	3029.5795	3035.1643	3051.495	3075.0541	3090.1032	3100.115	3101.2077	3102.0878	3137.2522	3139.2815	3227.6442	3241.0121
CCCC(=O)C1(C)CC1	CCCC(=O)C1(C)CC1	
InChI=1S/C8H14O/c1-3-4-7(9)8(2)5-6-8/h3-6H2,1-2H3	InChI=1S/C8H14O/c1-3-4-7(9)8(2)5-6-8/h3-6H2,1-2H3
