20
gdb 5968	3.18106	1.21274	1.10201	4.2823	76.04	-0.2381	0.0366	0.2747	1200.2812	0.175272	-345.196036	-345.186124	-345.18518	-345.230628	35.697	
C	 0.0206468937	 1.6153661718	-0.074539157	-0.388852
C	 0.0003810976	 0.0936658516	 0.0496884098	-0.120592
N	 0.6432543614	-0.504833891	-1.1206047751	-0.308256
C	 0.6697678607	-1.975638958	-1.2050153616	 0.107976
C	 1.4904386577	-2.5633895002	-0.0378234627	-0.395991
C	-0.72725766	-2.6434919407	-1.2699012821	-0.406915
C	 1.3778669814	-2.2911347878	-2.4658268121	 0.276879
N	 1.9066541922	-2.5500832517	-3.459963087	-0.34088
H	 1.0454462873	 1.9783503855	-0.1908113809	 0.133434
H	-0.5569822681	 1.9480280076	-0.9447339993	 0.116156
H	-0.419377603	 2.0802847079	 0.8122921362	 0.118996
H	 0.5611458987	-0.2013338412	 0.94295436	 0.11172
H	-1.0391325241	-0.2441042321	 0.203201897	 0.084576
H	 0.213591896	-0.136544828	-1.9638617088	 0.222924
H	 0.9523397631	-2.4387604811	 0.9050805548	 0.124276
H	 1.6571368934	-3.6318148937	-0.1925583638	 0.134859
H	 2.4568282705	-2.060247896	 0.0354004181	 0.142983
H	-1.3081098942	-2.2446114026	-2.106415034	 0.126331
H	-0.6375017258	-3.7253350774	-1.4022290928	 0.134553
H	-1.2757677483	-2.4581927629	-0.3427509284	 0.125823
59.4854	99.3996	129.5088	186.1536	236.8321	253.1861	259.0511	261.6301	322.5666	382.2969	391.2898	450.3302	581.6769	587.5864	707.547	759.7393	823.0649	866.264	925.0907	946.6801	992.4664	1020.4678	1086.6206	1127.9518	1140.2218	1189.2482	1235.6719	1254.3882	1302.9527	1382.7128	1391.5469	1410.9217	1417.7276	1479.4504	1480.3883	1487.1455	1496.7985	1500.5031	1502.3507	1517.9234	1527.3961	2358.155	2950.1993	3035.6101	3043.9353	3053.7124	3063.122	3103.9773	3119.5207	3124.0142	3124.7364	3131.0879	3141.6201	3511.4089
CCNC(C)(C)C#N	CCNC(C)(C)C#N	
InChI=1S/C6H12N2/c1-4-8-6(2,3)5-7/h8H,4H2,1-3H3	InChI=1S/C6H12N2/c1-4-8-6(2,3)5-7/h8H,4H2,1-3H3
