12
gdb 25289	8.25181	0.68555	0.63296	4.8255	84.54	-0.2568	-0.0935	0.1633	1614.2577	0.077465	-435.487524	-435.479894	-435.47895	-435.521079	25.876	
O	-0.1362519492	 0.028716099	-0.0011556235	-0.221628
C	-0.0059591896	 1.2311921725	 0.0071211806	-0.001687
C	 1.2633793279	 1.9098987857	-0.0012459109	 0.260776
C	 2.3129731218	 2.5117836013	-0.0078429466	-0.038651
C	 3.5359357725	 3.1993135832	-0.0157049934	 0.180988
N	 4.7459399419	 2.7079599608	-0.0328075718	-0.288494
C	 5.569560308	 3.8102491123	-0.0330317935	-0.116314
C	 4.8066904259	 4.9365356448	-0.0157198666	-0.028855
O	 3.5041803698	 4.5666770262	-0.0044865718	-0.154681
H	-0.8784384058	 1.9146533839	 0.0222688863	 0.108343
H	 6.643846346	 3.7192974854	-0.0454850925	 0.13916
H	 5.0095717608	 5.9938757049	-0.0095017662	 0.161043
63.6815	73.6685	111.2595	206.349	258.3683	425.5218	499.7144	522.9528	628.633	712.9536	752.0761	792.3077	880.8566	926.4043	942.8992	1015.0131	1017.6372	1125.7875	1146.8757	1164.7295	1272.6652	1389.0514	1419.6664	1509.4616	1573.6949	1760.2716	2314.1528	2928.2223	3268.4372	3299.7988
O=CC#CC1=NC=CO1	O=CC#Cc1ncco1	
InChI=1S/C6H3NO2/c8-4-1-2-6-7-3-5-9-6/h3-5H	InChI=1S/C6H3NO2/c8-4-1-2-6-7-3-5-9-6/h3-5H
