23
gdb 121880	3.37399	0.72689	0.62326	2.8675	83.67	-0.2401	-0.011	0.229	1856.8271	0.201404	-425.449883	-425.438275	-425.437331	-425.48829	40.216	
C	-0.2270479533	 1.4922980493	 0.2537814519	-0.38318
C	-0.4395706383	 0.0252706652	 0.6351463422	-0.183199
C	-1.4978145352	-0.6506437076	-0.2265701039	-0.039645
O	-1.6166517626	-2.0009713644	 0.1819446163	-0.261933
C	-2.6665591609	-2.7276140485	-0.4273890064	 0.03496
C	-2.3895783812	-3.1046271233	-1.8844230311	-0.402024
C	-2.9523742587	-3.9776266449	 0.4260442261	 0.363927
C	-2.4094105439	-3.9972344862	 1.8374898511	-0.468345
O	-3.6142015583	-4.8807917263	-0.0311592375	-0.305605
H	 0.5388138689	 1.9541827727	 0.8831520299	 0.119488
H	 0.0960321008	 1.5910082139	-0.7883779041	 0.1181
H	-1.1480002578	 2.074001081	 0.3714820659	 0.117291
H	 0.4980465396	-0.5332423919	 0.533602983	 0.108398
H	-0.7396211009	-0.0563312476	 1.6861430919	 0.104595
H	-2.4690583252	-0.1373794264	-0.1170597248	 0.084519
H	-1.2156399271	-0.5844754457	-1.2889051763	 0.092635
H	-3.5973406437	-2.1306321212	-0.3829388356	 0.091002
H	-3.168645797	-3.7855937542	-2.2316194678	 0.14657
H	-2.376226198	-2.2235111061	-2.5306599897	 0.114239
H	-1.4222883291	-3.6101876207	-1.9630657754	 0.124431
H	-2.7404941234	-4.9068587488	 2.3394681657	 0.132233
H	-1.3167481439	-3.9453322333	 1.8166120482	 0.152353
H	-2.7433071208	-3.111964075	 2.3881072804	 0.13919
32.2197	53.5869	66.8514	107.9072	146.9524	160.0907	205.3147	232.4746	235.5474	295.2731	342.759	388.6257	413.3233	491.5123	562.6893	608.482	753.4197	767.4324	892.6158	903.2233	912.3311	960.3478	965.9681	1045.0802	1071.419	1093.4461	1119.8707	1148.7536	1166.583	1192.9306	1223.7848	1269.4626	1317.3973	1325.1938	1333.1139	1354.7413	1380.8772	1394.49	1413.652	1437.6196	1454.4305	1466.1219	1491.2392	1492.7256	1496.8886	1500.9809	1507.4559	1527.7317	1812.5228	2928.2387	2953.5498	2994.8129	3032.7313	3038.965	3049.0089	3050.6061	3072.1897	3100.935	3109.9472	3112.2071	3121.7396	3146.0382	3157.8885
CCCOC(C)C(C)=O	CCCO[C@@H](C)C(=O)C	
InChI=1S/C7H14O2/c1-4-5-9-7(3)6(2)8/h7H,4-5H2,1-3H3	InChI=1S/C7H14O2/c1-4-5-9-7(3)6(2)8/h7H,4-5H2,1-3H3/t7-/m0/s1
