19
gdb 87350	2.11289	1.19278	0.87718	3.4729	77.92	-0.2535	-0.0432	0.2104	1356.4137	0.155612	-423.037714	-423.027753	-423.026809	-423.073597	34.939	
C	-0.0262867103	 1.3760116219	-0.1434990844	-0.420226
C	 0.1147803681	-0.1169914959	 0.0382322434	-0.024134
C	 1.4251999656	-0.8117439464	-0.0767691934	-0.315118
C	 0.750353583	-0.7384719317	 1.2960128368	 0.203133
C	 1.337170651	 0.116748926	 2.4077534558	-0.385462
C	 2.5300663718	-0.5450551286	 3.0742062593	 0.166098
O	 2.6577303908	-0.6899804095	 4.2618883802	-0.236407
C	 0.0938797985	-2.0014697142	 1.7428380017	 0.098284
O	-0.3796512083	-2.8259086338	 0.9967952672	-0.271591
H	 0.8779418975	 1.9196177714	 0.1446830238	 0.119346
H	-0.2154231125	 1.6033777462	-1.1980319596	 0.132653
H	-0.863577332	 1.7763792753	 0.4375576811	 0.128881
H	-0.7343888562	-0.7008234191	-0.3060062063	 0.119739
H	 1.4533251894	-1.7920183653	-0.538859489	 0.142405
H	 2.3149996888	-0.2042290834	-0.2113963739	 0.116827
H	 1.6911280178	 1.0700586971	 1.9971780043	 0.125631
H	 0.5964129905	 0.3466873407	 3.1805943829	 0.128036
H	 3.310485393	-0.9016085795	 2.36314587	 0.08184
H	 0.0563146435	-2.1430259513	 2.8460632301	 0.090064
50.7395	62.8488	109.0726	145.2196	204.3897	208.4913	216.0036	278.1062	348.0109	418.4165	459.822	493.934	630.3267	724.032	744.9222	808.6879	886.1979	912.9618	954.2078	984.8587	1016.0247	1060.7877	1068.9016	1084.4069	1119.9401	1135.9269	1191.8044	1204.8496	1277.803	1295.5399	1321.7012	1401.4626	1423.409	1425.3033	1435.241	1453.5506	1475.4986	1492.2086	1501.6321	1805.2127	1834.0932	2870.3219	2884.9484	3035.5794	3040.902	3091.9264	3097.8834	3109.3414	3127.9789	3155.9894	3224.4047
CC1CC1(CC=O)C=O	C[C@H]1C[C@]1(CC=O)C=O	
InChI=1S/C7H10O2/c1-6-4-7(6,5-9)2-3-8/h3,5-6H,2,4H2,1H3	InChI=1S/C7H10O2/c1-6-4-7(6,5-9)2-3-8/h3,5-6H,2,4H2,1H3/t6-,7+/m0/s1
