17
gdb 83767	2.5337	1.88204	1.47252	1.7093	66.3	-0.2438	0.076	0.3198	925.8985	0.136881	-458.926057	-458.918714	-458.917769	-458.957413	29.597	
O	 0.2262884915	 1.4067908424	-0.1433496361	-0.456474
C	 0.0334205434	 0.0222902988	-0.0281542407	 0.066792
C	 0.2170998752	-0.6038291648	 1.3912922714	 0.022962
O	-0.1170137228	 0.3830242492	 2.374074427	-0.283067
C	-1.5360572334	 0.6150708626	 2.3022453564	-0.116283
C	-2.0601191002	-0.4121554987	 1.3153279927	-0.153821
C	-1.0166398242	-1.4852694808	 1.1381913746	-0.142511
C	-1.3760664553	-0.5793420776	-0.0333481342	 0.345654
O	-2.0823692582	-0.9525393475	-1.1589368753	-0.464705
H	 0.2969747369	 1.7326742715	 0.7649255022	 0.291242
H	 0.6428701478	-0.4939573514	-0.7789630548	 0.087885
H	 1.17826385	-1.0415859121	 1.6528181927	 0.089554
H	-1.9683343372	 0.4714922821	 3.3001909296	 0.110761
H	-1.7238717721	 1.6492041986	 1.9880283609	 0.104748
H	-3.103047342	-0.7054190659	 1.3420592873	 0.100894
H	-1.1450012911	-2.5460939965	 1.2969357274	 0.103558
H	-2.5171720384	-0.1697949299	-1.5155151711	 0.292808
162.2235	227.8226	246.5169	278.455	301.6468	370.0491	470.4783	509.5146	607.1049	632.9466	680.0794	758.4918	794.5208	829.6297	865.3935	899.7851	909.23	944.2193	990.7151	1003.4769	1029.7625	1058.2638	1090.5221	1132.6592	1160.734	1177.1313	1224.0739	1229.5009	1259.2869	1277.3735	1300.2968	1318.7398	1344.1532	1378.8996	1418.8184	1461.4775	1524.0793	3017.106	3049.4705	3053.0847	3141.5738	3192.3316	3224.5856	3739.5453	3797.963
OC1C2OCC3C2C13O	O[C@H]1[C@H]2OC[C@@H]3[C@H]2[C@]13O	
InChI=1S/C6H8O3/c7-5-4-3-2(1-9-4)6(3,5)8/h2-5,7-8H,1H2	InChI=1S/C6H8O3/c7-5-4-3-2(1-9-4)6(3,5)8/h2-5,7-8H,1H2/t2-,3-,4+,5+,6+/m1/s1
