23
gdb 57402	2.90424	1.1794	1.15854	2.0013	84.8	-0.2331	0.0733	0.3064	1234.1587	0.204249	-388.217709	-388.20843	-388.207486	-388.251331	36.714	
C	-0.3515080724	 1.5560311009	 0.1226070498	-0.409956
C	-0.0467600013	 0.0442973841	 0.0976340782	 0.236323
C	 0.7852738947	-0.3458227272	 1.3363260533	-0.409947
C	-1.3898149863	-0.7130046765	 0.1688452416	-0.411256
C	 0.6543999725	-0.3814941185	-1.2261941099	 0.02552
C	 1.353788871	 0.5761665283	-2.2411276715	 0.0169
C	 2.5859745415	 0.715844492	-1.3162906479	-0.224108
C	 2.1582487391	-0.7693450131	-1.3822875284	 0.016902
O	 1.9951877217	-0.6144047545	-2.8469747541	-0.309441
H	 0.5559789433	 2.1659695793	 0.1245806361	 0.113039
H	-0.9513281364	 1.8506848312	-0.7452264892	 0.112214
H	-0.9219446175	 1.8146366774	 1.0216440041	 0.109571
H	 0.2323730081	-0.1164297883	 2.2540524164	 0.109569
H	 1.0031344494	-1.4192512309	 1.3415918992	 0.112214
H	 1.7376728089	 0.188984789	 1.3861601811	 0.113038
H	-2.0276885938	-0.4645485102	-0.6861631885	 0.112471
H	-1.2314238243	-1.7967673012	 0.1640355966	 0.112471
H	-1.9365788484	-0.4566401139	 1.0826334135	 0.106387
H	 0.0405303711	-1.0995268358	-1.7760836537	 0.080115
H	 0.914120063	 1.3051496745	-2.9229507494	 0.091706
H	 3.5192200227	 0.9437886168	-1.8333332748	 0.106015
H	 2.484817013	 1.2560878599	-0.3751412394	 0.098547
H	 2.6854489805	-1.6575327231	-1.031873223	 0.091706
54.7295	182.4232	212.0748	217.3973	254.4935	298.8401	321.0831	337.3646	350.8794	398.1011	443.3392	559.7681	593.5543	724.6089	799.6333	826.3632	872.1388	890.1698	892.6294	922.7427	935.0634	935.1705	959.5108	1010.3171	1025.2002	1039.0321	1053.8253	1072.4491	1096.2613	1156.3321	1170.1723	1205.6652	1214.9324	1219.7373	1249.6106	1263.4678	1272.3802	1285.6274	1384.9277	1397.9186	1404.3654	1438.1908	1482.2576	1484.8477	1486.6508	1488.877	1507.3981	1514.0674	1518.007	3023.2674	3028.9715	3034.6422	3073.5766	3083.6008	3090.2709	3091.7237	3096.9083	3099.8089	3107.2504	3110.6807	3113.7729	3115.6822	3159.9814
CC(C)(C)C1C2CC1O2	CC(C)(C)[C@H]1[C@H]2C[C@@H]1O2	
InChI=1S/C8H14O/c1-8(2,3)7-5-4-6(7)9-5/h5-7H,4H2,1-3H3	InChI=1S/C8H14O/c1-8(2,3)7-5-4-6(7)9-5/h5-7H,4H2,1-3H3/t5-,6+,7+
