16
gdb 29944	3.32523	1.35112	0.96649	2.843	76.02	-0.2103	-0.0218	0.1885	1158.589	0.125672	-437.962854	-437.954876	-437.953932	-437.995433	30.218	
C	-0.0057089754	 1.4524485631	-0.0022611719	-0.331836
N	 0.0047594873	-0.0060544546	-0.0284690147	-0.139456
C	-0.0992148385	-0.6972590183	-1.1932130829	 0.057535
C	-0.0917139668	-2.0557556945	-1.2408710997	-0.275996
C	 0.0306002321	-2.7629929609	-0.0128233677	 0.441042
O	 0.0335715921	-4.1135449114	-0.1076472595	-0.426921
C	 0.136627444	-2.0862776761	 1.1722252603	-0.433762
C	 0.1299766996	-0.6489608813	 1.2362191477	 0.445877
O	 0.2192880011	 0.0375974963	 2.2452175678	-0.422133
H	 0.9179835346	 1.8262829326	 0.4455041921	 0.155482
H	-0.1049533085	 1.8283043755	-1.0214586649	 0.122952
H	-0.8360828333	 1.8107639037	 0.6105639616	 0.155453
H	-0.1893128244	-0.0961375546	-2.0902971522	 0.131968
H	-0.175463961	-2.5885265859	-2.1768918113	 0.115344
H	 0.1203257591	-4.4918387009	 0.7748586781	 0.304856
H	 0.2308595881	-2.6032650228	 2.1208576872	 0.099595
92.0491	125.7387	191.3808	282.6279	330.6638	363.3476	429.5653	447.1587	463.7426	529.3001	622.2601	689.343	728.7084	753.6265	778.9224	779.54	841.3789	929.5506	973.0378	1057.1877	1154.5793	1156.8423	1194.7506	1206.4306	1247.8451	1259.5142	1352.9442	1419.6452	1455.525	1465.5334	1508.7655	1538.1269	1591.053	1675.3533	1758.3715	3056.9259	3124.4235	3149.4912	3189.5858	3199.9721	3240.8342	3807.8042
CN1C=CC(O)=CC1=O	Cn1ccc(O)cc1=O	
InChI=1S/C6H7NO2/c1-7-3-2-5(8)4-6(7)9/h2-4,8H,1H3	InChI=1S/C6H7NO2/c1-7-3-2-5(8)4-6(7)9/h2-4,8H,1H3
