19
gdb 91302	2.53762	1.55619	1.14957	1.4523	80.69	-0.2385	0.0415	0.2801	1107.4346	0.158329	-385.82293	-385.814453	-385.813509	-385.856037	32.805	
C	 0.0159998533	 1.2745710306	-0.623725954	-0.404754
C	-0.0760101645	-0.0329952161	 0.1338009161	 0.149126
O	 0.2784172699	-1.188404123	-0.6799906651	-0.310307
C	 1.1737656274	-1.683019431	 0.3275370911	 0.121819
C	 2.6395384399	-1.2435306987	 0.0911215868	-0.260224
C	 2.4409004961	-0.0880178612	 1.1388601267	-0.175025
C	 2.8996447532	 1.253597604	 0.8378384054	 0.316896
C	 3.3236755905	 2.3560629995	 0.6086229547	-0.45221
C	 0.9224586023	-0.4539879967	 1.2432681087	-0.131766
H	 1.0161325047	 1.4447725114	-1.0240571184	 0.13576
H	-0.6954093963	 1.2574317511	-1.4560370219	 0.121203
H	-0.2421246184	 2.1146002947	 0.0294313174	 0.118221
H	-1.1030363088	-0.1616387325	 0.5069445321	 0.077894
H	 0.9766797496	-2.7230852741	 0.5995145029	 0.076789
H	 3.4148463695	-1.9623482276	 0.3652486957	 0.106294
H	 2.8005179753	-0.9052543603	-0.9332895147	 0.122696
H	 2.9031758403	-0.3959842686	 2.0834515091	 0.112057
H	 3.6823936148	 3.3330288809	 0.3980552986	 0.195548
H	 0.5162700311	-0.5000424823	 2.2529469388	 0.079984
64.7251	127.9724	183.4976	227.8848	253.3298	346.5077	398.9642	443.3651	496.0556	573.7138	615.0747	632.7594	640.1195	705.1745	765.8301	846.4521	862.0513	900.5574	926.4788	989.1863	1014.3238	1021.9328	1071.255	1092.2072	1103.0743	1132.5326	1167.8236	1188.0397	1203.5934	1233.8074	1264.3218	1301.481	1313.2768	1339.1619	1356.2082	1394.8841	1412.1449	1469.7402	1481.3791	1492.3886	2228.5376	2983.3711	3036.8022	3041.7322	3068.505	3078.028	3105.8017	3114.763	3139.668	3145.2818	3502.5104
CC1OC2CC(C#C)C12	C[C@H]1O[C@H]2C[C@@H](C#C)[C@@H]12	
InChI=1S/C8H10O/c1-3-6-4-7-8(6)5(2)9-7/h1,5-8H,4H2,2H3	InChI=1S/C8H10O/c1-3-6-4-7-8(6)5(2)9-7/h1,5-8H,4H2,2H3/t5-,6-,7+,8-/m1/s1
