12
gdb 20622	3.43419	2.00749	1.27695	4.3533	64.01	-0.2795	-0.0684	0.2111	872.2148	0.084283	-377.531802	-377.524859	-377.523915	-377.563399	24.24	
C	-0.008059186	 1.5380439348	 0.0676441525	-0.519438
C	 0.0146628195	 0.0460144454	 0.0233411703	 0.064241
C	-0.0006525363	-0.7820380163	-1.0642706668	 0.282288
O	 0.0298204774	-2.080609526	-0.682745194	-0.206667
N	 0.0672170406	-2.1291427344	 0.6946534489	-0.111805
C	 0.0582463387	-0.8838244748	 1.1013729693	-0.024249
C	-0.0419643115	-0.495419035	-2.4486982171	 0.236716
N	-0.0762912227	-0.222283036	-3.5731915032	-0.32934
H	 0.8832621377	 1.930877976	 0.5676849941	 0.151438
H	-0.0448684845	 1.9591768943	-0.9394890956	 0.157062
H	-0.8800856295	 1.9024624475	 0.6203922095	 0.151365
H	 0.0830061065	-0.6767381354	 2.162291612	 0.14839
92.4835	141.3231	169.3801	272.1574	315.475	489.8677	533.7181	602.2084	647.89	686.834	717.792	908.6916	954.3403	962.6111	1008.4074	1066.6518	1165.6459	1209.201	1244.1663	1398.9101	1427.6299	1481.0717	1482.7071	1499.2329	1651.4717	2350.7668	3042.0868	3098.4475	3130.1139	3244.6365
CC1=C(ON=C1)C#N	Cc1c(onc1)C#N	
InChI=1S/C5H4N2O/c1-4-3-7-8-5(4)2-6/h3H,1H3	InChI=1S/C5H4N2O/c1-4-3-7-8-5(4)2-6/h3H,1H3
