19
gdb 104210	2.6357	1.28487	1.23766	2.5866	71.01	-0.2524	0.06	0.3123	1127.8178	0.157224	-460.117882	-460.108812	-460.107868	-460.151574	33.963	
C	-0.3290408718	 1.630001519	 0.1969096329	-0.443954
C	-0.095797642	 0.1328227963	 0.1281279883	 0.291898
C	-1.3443502539	-0.6499022947	-0.2930239592	-0.081756
O	-1.6721246695	-0.3506316142	-1.6358065187	-0.424261
O	 0.9824362511	-0.1957896575	-0.816699368	-0.34486
C	 1.7270523216	-0.9354465838	 0.1790288179	-0.155249
C	 0.7184645552	-0.5306618951	 1.2444832202	 0.321377
C	 0.8703208512	-0.2057602947	 2.6588185495	-0.258541
O	 0.1826025364	-1.3932509843	 2.2240343287	-0.261773
H	 0.6078082315	 2.1634045933	 0.3764646935	 0.117794
H	-0.7624915186	 1.976661833	-0.7448561091	 0.143393
H	-1.0315432429	 1.8689342267	 1.0027219142	 0.119481
H	-1.1696328297	-1.7261909647	-0.1484714136	 0.094199
H	-2.2037130705	-0.3673359581	 0.3230804528	 0.112392
H	-0.8611404846	-0.5026561366	-2.1384182593	 0.291219
H	 1.7554210342	-2.0125109134	-0.0265463699	 0.118578
H	 2.7492060721	-0.5567021516	 0.2908435533	 0.114443
H	 1.8255099568	-0.377152611	 3.1532169159	 0.122116
H	 0.2399175536	 0.5561920113	 3.1142489905	 0.123504
83.7103	110.6749	158.5818	226.4179	229.7246	287.8544	304.3732	340.4381	392.4578	489.4059	499.8842	520.8234	597.5229	718.9937	853.1669	870.0807	889.1823	926.4939	928.4413	973.7404	1008.0593	1060.5206	1079.1267	1116.1978	1124.6212	1147.4391	1151.8393	1172.7728	1212.4054	1236.3067	1285.0534	1319.965	1381.5398	1405.3617	1431.1087	1453.1732	1483.1219	1494.4858	1501.5405	1514.1443	1544.4536	2997.9569	3022.0202	3040.9743	3070.4834	3083.11	3085.5471	3113.1895	3130.3065	3173.2943	3771.136
CC1(CO)OCC11CO1	C[C@@]1(CO)OC[C@]21CO2	
InChI=1S/C6H10O3/c1-5(2-7)6(3-8-5)4-9-6/h7H,2-4H2,1H3	InChI=1S/C6H10O3/c1-5(2-7)6(3-8-5)4-9-6/h7H,2-4H2,1H3/t5-,6+/m0/s1
