16
gdb 10660	2.92183	1.74416	1.37818	2.3682	62.98	-0.2456	-0.0275	0.2181	936.5333	0.127407	-420.851128	-420.842558	-420.841614	-420.884036	30.74	
C	 0.1445800051	 1.1488110222	 0.3017108035	-0.257569
O	-0.1943975239	-0.1516207863	-0.1756507722	-0.295894
C	 0.5441813422	-0.5957742145	-1.2614376456	 0.259522
C	 1.9468405764	-1.1666480917	-0.9855701929	-0.38591
C	 0.8016091245	-2.104009855	-1.1943470938	 0.106971
O	 0.2278372932	-2.790528982	-0.1397075433	-0.422458
C	 0.2780952623	 0.0259323437	-2.5781519572	 0.119725
O	-0.4830659005	 0.9424540123	-2.7679091458	-0.275009
H	 1.2053086909	 1.203351201	 0.5804262152	 0.111426
H	-0.078058214	 1.9068941146	-0.453826109	 0.151245
H	-0.4693102122	 1.3218582578	 1.1876271652	 0.134036
H	 2.7017320326	-1.0697107156	-1.7587537611	 0.127645
H	 2.300236576	-1.0370538254	 0.0312962618	 0.13652
H	 0.7600702589	-2.6634809003	-2.1246306532	 0.115715
H	-0.20112069	-2.1253248132	 0.4185537718	 0.300571
H	 0.8581791585	-0.4357336377	-3.4114912135	 0.073463
112.0942	115.1321	175.5989	191.2725	222.7067	273.7613	329.1573	373.9688	409.1205	453.2873	550.2589	625.1917	769.9532	815.9678	850.1239	923.6728	1001.9811	1041.6083	1045.8285	1095.872	1106.4096	1148.559	1180.5318	1221.5698	1240.6501	1321.9463	1362.4238	1424.0019	1432.4026	1464.0661	1480.1988	1483.583	1513.0593	1813.5795	2857.1355	3013.7867	3100.3298	3133.6067	3139.4265	3153.0473	3230.9943	3727.5145
COC1(CC1O)C=O	CO[C@]1(C[C@H]1O)C=O	
InChI=1S/C5H8O3/c1-8-5(3-6)2-4(5)7/h3-4,7H,2H2,1H3	InChI=1S/C5H8O3/c1-8-5(3-6)2-4(5)7/h3-4,7H,2H2,1H3/t4-,5-/m1/s1
