20
gdb 20121	3.21521	1.51194	1.12359	1.6958	74.83	-0.2581	0.0912	0.3493	1105.4663	0.176169	-348.970577	-348.96199	-348.961046	-349.003958	31.799	
C	 0.2951039747	 1.8204059826	 0.0268114516	-0.401735
C	 0.0934142682	 0.2974225796	-0.004122749	-0.030225
C	 0.6618529221	-0.3112388655	-1.2752023131	 0.039741
C	 0.1760531542	-1.6492434508	-1.7665315505	-0.264373
C	-0.1806079507	-0.3932857493	-2.5239891632	-0.282007
C	 0.70773777	-0.343583117	 1.2244803435	 0.112533
C	-0.0464842205	-0.5464708055	 2.467296965	-0.186851
O	 0.2325557802	-1.6407161252	 1.5904668917	-0.24104
H	 1.3614246985	 2.0752523429	 0.0290800515	 0.114513
H	-0.1532926217	 2.2863487467	-0.855350328	 0.121544
H	-0.1558990949	 2.2667473522	 0.9187732966	 0.112512
H	-0.9827053079	 0.0796269636	 0.0264181743	 0.0719
H	 1.7186106279	-0.1001848994	-1.4287647432	 0.076249
H	 0.8963336914	-2.3292438026	-2.2075738403	 0.109132
H	-0.6006875379	-2.1391208969	-1.1905391195	 0.124256
H	-1.205391392	-0.0394682143	-2.4662971382	 0.10784
H	 0.2944067928	-0.2144913395	-3.482341482	 0.10891
H	 1.7923178957	-0.2348997051	 1.3067533885	 0.085599
H	 0.4714894939	-0.5692578644	 3.4252028308	 0.111998
H	-1.0919825941	-0.2423635719	 2.5147574935	 0.109504
77.6685	81.5866	160.4954	222.4205	231.3503	233.8787	365.5219	411.9339	422.5956	525.0554	758.6204	807.7634	826.1594	832.9854	868.5815	928.6466	939.0274	961.153	972.696	1017.6708	1058.7616	1073.0737	1078.2441	1111.2177	1137.8681	1153.2986	1167.0535	1191.6353	1199.0246	1209.6609	1228.3106	1289.5852	1293.914	1313.584	1404.1858	1420.641	1446.991	1473.3138	1496.7894	1500.7704	1508.1555	1529.5986	3017.3849	3030.7486	3075.5003	3079.6887	3095.5505	3111.3975	3121.868	3127.4875	3140.6648	3163.2448	3207.0832	3226.9413
CC(C1CC1)C1CO1	C[C@@H](C1CC1)[C@H]1CO1	
InChI=1S/C7H12O/c1-5(6-2-3-6)7-4-8-7/h5-7H,2-4H2,1H3	InChI=1S/C7H12O/c1-5(6-2-3-6)7-4-8-7/h5-7H,2-4H2,1H3/t5-,7+/m0/s1
