14
gdb 112390	2.43481	1.551	1.00815	2.8646	60.7	-0.2974	-0.0277	0.2697	1121.2176	0.100409	-511.007097	-510.999081	-510.998137	-511.040543	28.087	
C	 0.117589486	 1.3697785201	 0.0757896769	-0.24965
O	 0.0708697951	-0.0534393826	-0.003658678	-0.216905
C	 0.6070170379	-0.5699768654	-1.1549486258	 0.128957
O	 2.0483657785	-0.4798270935	-1.1649942125	-0.250034
C	 2.5980904003	-1.7029070536	-1.0162745674	 0.499663
O	 3.7510623199	-1.944406371	-0.9043803268	-0.344206
O	 1.6072159437	-2.6671214629	-1.0397303371	-0.229024
C	 0.3767989926	-2.0703180741	-1.1963487629	 0.380592
N	-0.7244632865	-2.6440340387	-1.3444229362	-0.506436
H	 1.1503594195	 1.7300332364	 0.1303444874	 0.143294
H	-0.3821038501	 1.8245773894	-0.7900677468	 0.124678
H	-0.4146928908	 1.6447308536	 0.9868304243	 0.148639
H	 0.2485138869	-0.0519173521	-2.0531265452	 0.121385
H	-0.6300432232	-3.6604866856	-1.3243895099	 0.249047
71.7428	113.484	147.5521	173.511	217.1074	325.1732	414.4042	468.7093	602.0395	640.6973	670.6429	756.704	775.767	909.2652	921.7524	934.3533	1005.7165	1017.4246	1088.5162	1113.279	1166.209	1178.3955	1233.2394	1331.6398	1357.702	1401.9478	1479.7515	1488.2552	1506.8794	1821.1449	1960.5151	3012.6365	3042.0572	3087.0973	3149.255	3489.6928
COC1OC(=O)OC1=N	CO[C@H]1OC(=O)O[C]1[NH]	
InChI=1S/C4H5NO4/c1-7-3-2(5)8-4(6)9-3/h3,5H,1H3	InChI=1S/C4H5NO4/c1-7-3-2(5)8-4(6)9-3/h3,5H,1H3/t3-/m0/s1
