20
gdb 112000	2.84201	1.29361	1.12713	1.3574	79.89	-0.2211	0.0089	0.23	1164.2183	0.171312	-403.111265	-403.102614	-403.101669	-403.144347	33.213	
C	-0.55838493	 1.095715473	-0.2313787219	-0.311491
N	-0.1349199439	-0.2317681932	 0.1802665339	-0.090097
C	 1.2020599878	-0.7606920511	-0.1179532818	-0.078201
C	 2.3002821709	 0.2184087388	-0.3868333348	-0.095859
C	 2.540361635	 0.9875623767	 0.678567232	-0.086526
C	 1.7096188286	 0.5690269978	 1.8758801114	-0.024969
C	 1.0640116214	 1.7111121053	 2.6624809588	-0.098578
O	 2.1225154417	 2.4724258124	 3.2310694731	-0.422708
C	 0.7602725013	-0.4910676721	 1.2984321772	-0.085433
H	 0.2339455077	 1.8561711431	-0.2517373764	 0.109326
H	-0.9847072108	 1.023125411	-1.2378973519	 0.11704
H	-1.350864737	 1.4346424068	 0.4436517032	 0.117134
H	 1.2200815638	-1.7482158491	-0.571228274	 0.087577
H	 2.7909194537	 0.3030896811	-1.3498718367	 0.09559
H	 3.2324014107	 1.819758017	 0.7292645707	 0.109602
H	 2.3681350922	 0.0600925645	 2.5960452204	 0.099639
H	 0.4383655284	 2.3336433279	 2.0093007462	 0.09236
H	 0.412283288	 1.2903522676	 3.4444265011	 0.089293
H	 1.7403291422	 3.2330433234	 3.6781726741	 0.287795
H	 0.4279757185	-1.2832345407	 1.9643889353	 0.088504
98.2694	144.5955	175.1976	235.3363	241.4473	262.0021	304.4582	373.6405	460.722	520.4789	587.8324	694.7128	745.834	771.8561	811.2674	833.6734	888.6063	916.8435	965.6215	992.2312	1020.5662	1049.1425	1070.442	1091.3816	1105.7625	1115.0817	1141.0093	1155.9428	1179.4486	1236.144	1240.5889	1297.215	1301.8212	1319.8851	1340.6598	1363.3804	1391.3588	1449.0261	1450.4158	1486.4022	1509.9322	1524.3108	1659.879	2976.2907	2991.3662	3000.0156	3031.1467	3067.8352	3094.4588	3133.0435	3143.0236	3188.9093	3215.2864	3831.5953
CN1C2C=CC(CO)C12	CN1[C@H]2C=C[C@@H](CO)[C@@H]12	
InChI=1S/C7H11NO/c1-8-6-3-2-5(4-9)7(6)8/h2-3,5-7,9H,4H2,1H3	InChI=1S/C7H11NO/c1-8-6-3-2-5(4-9)7(6)8/h2-3,5-7,9H,4H2,1H3/t5-,6-,7+,8?/m0/s1
