18
gdb 22837	3.21216	1.21759	0.92484	0.7409	89.88	-0.2128	-0.0547	0.1581	1244.759	0.149406	-401.929289	-401.921252	-401.920308	-401.961997	31.207	
O	-0.0124755106	 1.3949183057	 0.2658217723	-0.391213
N	 0.0780529033	 0.0004058079	 0.2023466224	-0.184828
C	-1.053738175	-0.5695713192	-0.0456063657	 0.319088
C	-0.9903987554	-2.0766631119	-0.0898226069	-0.287249
C	-1.5269364407	-2.7016146281	-1.3912316184	-0.260684
C	-3.0217763209	-2.6618339833	-1.5337681725	-0.078153
C	-3.8348101698	-1.6514685694	-1.1847640964	-0.063712
C	-3.4877152259	-0.3443700788	-0.6478288697	-0.086045
C	-2.3098618006	 0.1458142919	-0.2035270635	-0.130944
H	 0.890318884	 1.6434126142	 0.4892444812	 0.307549
H	 0.0540351098	-2.3622451485	 0.0576884795	 0.11665
H	-1.5634787664	-2.4821287788	 0.7537397346	 0.115416
H	-1.0581838447	-2.2068685461	-2.2547799485	 0.12528
H	-1.1974856532	-3.7455885125	-1.4348475327	 0.107637
H	-3.4826862165	-3.5438385533	-1.9723224122	 0.094448
H	-4.898095353	-1.7891654925	-1.3670333671	 0.087386
H	-4.3205498456	 0.3560692706	-0.6340043207	 0.095535
H	-2.2779126987	 1.1873992121	 0.0931572543	 0.113837
64.3017	163.9619	230.3753	284.6056	322.1389	347.1474	395.5839	416.4747	489.2545	549.3091	596.616	695.3527	731.6474	751.9375	842.067	860.4353	894.7017	925.9867	948.071	1001.655	1005.7861	1024.8187	1037.9165	1075.8931	1185.6976	1234.4527	1254.5326	1277.7108	1312.4935	1353.372	1366.7147	1412.6349	1434.1872	1464.384	1469.7486	1478.8889	1643.5377	1662.2767	1700.5436	3003.4122	3030.2314	3060.9873	3101.4466	3135.2546	3147.3519	3166.0397	3205.2159	3824.3182
ON=C1CCC=CC=C1	ON=C1CCC=CC=C1	
InChI=1S/C7H9NO/c9-8-7-5-3-1-2-4-6-7/h1-3,5,9H,4,6H2	InChI=1S/C7H9NO/c9-8-7-5-3-1-2-4-6-7/h1-3,5,9H,4,6H2
