16
gdb 24976	4.52816	1.27925	1.0173	4.2476	72.59	-0.2083	0.0339	0.2422	1129.3521	0.12667	-437.909832	-437.902635	-437.901691	-437.941869	27.362	
N	-0.0856196213	 1.2385327173	 0.0724376531	-0.571936
C	-0.0078705098	-0.0118233994	 0.0147006258	 0.453712
O	 1.1415352632	-0.7915129719	-0.0285696267	-0.265752
C	 0.6909895595	-2.0949013446	-0.1014143233	 0.267925
C	-0.6282880119	-2.1109488544	-0.0955602238	 0.282943
C	-1.2406511912	-3.4622736829	-0.0850296991	-0.352354
C	 0.057397477	-4.3382916963	-0.2837205257	-0.198043
C	 1.336058364	-3.4316382248	-0.0951185963	-0.352877
O	-1.1175242604	-0.8249030312	-0.0191894142	-0.239671
H	 0.8410306289	 1.6558699218	 0.0877211484	 0.237637
H	-1.7483528262	-3.6832033234	 0.8620466374	 0.124715
H	-1.9691751316	-3.6303375214	-0.8850797781	 0.125223
H	 0.0703675801	-5.1825625478	 0.4078066203	 0.117413
H	 0.0585258879	-4.7498909275	-1.2951232429	 0.124423
H	 2.0620617277	-3.583689827	-0.9008231501	 0.123406
H	 1.856042974	-3.6409885666	 0.8480732151	 0.123237
85.7947	119.2752	239.4792	267.1087	311.4699	521.8579	548.2761	613.9383	707.8084	718.1187	730.6779	773.8106	779.7999	851.9209	879.7484	915.4511	926.5309	958.8623	979.5015	1064.3366	1083.0522	1159.2102	1200.6377	1208.0612	1258.4866	1274.6416	1278.9723	1319.3367	1373.556	1394.2106	1485.8912	1504.8361	1517.838	1785.6234	1829.9564	3025.8075	3027.8236	3060.259	3063.6303	3080.537	3125.2814	3550.4602
N=C1OC2=C(CCC2)O1	[NH][C@@H]1OC2=C(CCC2)O1	
InChI=1S/C6H7NO2/c7-6-8-4-2-1-3-5(4)9-6/h7H,1-3H2	InChI=1S/C6H8NO2/c7-6-8-4-2-1-3-5(4)9-6/h6-7H,1-3H2
