21
gdb 111699	2.65955	1.16805	0.94868	0.9063	91.44	-0.2261	0.0403	0.2664	1338.6616	0.181576	-349.90131	-349.89201	-349.891065	-349.935325	35.718	
C	 0.0466571819	 1.4388137015	-0.3034997131	-0.373635
C	 0.0157448567	-0.001925346	 0.2220465732	-0.2122
C	-1.3667643761	-0.6163925719	 0.1228890266	-0.040432
C	-1.9581511014	-1.2508248275	-1.1022445294	-0.120182
C	-0.9232670125	-2.0595942689	-1.8920024201	-0.23229
C	-0.6194025018	-2.911613325	-0.6210721273	-0.296393
C	-1.6711296259	-2.1035345103	 0.1683811296	 0.169725
C	-2.5790232742	-2.6664712151	 1.1080509662	 0.173174
C	-3.3379783633	-3.1618847333	 1.9016758308	-0.413245
H	 1.0469317909	 1.8728430358	-0.2102273385	 0.11201
H	-0.242056015	 1.4792496405	-1.3590495723	 0.119512
H	-0.6475906036	 2.0778897781	 0.2530724395	 0.115774
H	 0.7467696216	-0.6040094328	-0.3266854342	 0.101105
H	 0.3356629256	-0.0186312698	 1.2715940669	 0.102784
H	-2.1172386189	-0.0579018505	 0.6801494893	 0.092983
H	-2.9290662224	-0.9524743403	-1.4797500832	 0.094849
H	-1.3770397574	-2.657025327	-2.6849244937	 0.108183
H	-0.0921176699	-1.4924748729	-2.3226841192	 0.100765
H	-0.9191541162	-3.9536987189	-0.7411723139	 0.115964
H	 0.4002983375	-2.8857251269	-0.2260126179	 0.100321
H	-4.0080925552	-3.5932667488	 2.6027173009	 0.181226
66.1602	126.3376	142.1854	198.8911	207.698	272.6314	291.8947	385.7492	481.3552	501.1992	548.1748	556.8681	606.4044	641.2774	724.5882	771.2656	796.9088	822.6089	872.4354	928.7584	941.3303	953.6629	1006.3646	1029.2232	1056.2652	1080.5055	1114.8097	1128.189	1145.6397	1216.986	1224.0991	1241.56	1253.0993	1287.0196	1307.7158	1329.5089	1363.3525	1409.8161	1460.2341	1477.4788	1491.5325	1497.487	1505.6797	1510.4417	2225.764	3030.8569	3032.2346	3051.3597	3059.619	3074.2346	3101.936	3104.7829	3105.4615	3125.587	3128.0968	3183.0243	3504.102
CCC1C2CCC12C#C	CC[C@H]1[C@H]2CC[C@@]12C#C	
InChI=1S/C9H12/c1-3-7-8-5-6-9(7,8)4-2/h2,7-8H,3,5-6H2,1H3	InChI=1S/C9H12/c1-3-7-8-5-6-9(7,8)4-2/h2,7-8H,3,5-6H2,1H3/t7-,8+,9-/m0/s1
