14
gdb 125840	3.20397	1.26274	0.91093	6.5098	66.75	-0.2658	-0.0456	0.2202	1191.2459	0.100199	-469.988783	-469.980574	-469.97963	-470.022638	28.647	
C	-0.0294536392	 1.4995211756	 0.021031325	-0.521301
C	-0.0171007774	 0.0081148121	 0.0124270214	 0.27069
N	-0.0426071853	-0.7007449507	-1.0811177858	-0.125724
O	-0.0203376729	-2.0063868024	-0.6935437778	-0.153087
N	 0.0201490398	-2.1332684511	 0.675519716	-0.145566
C	 0.0225079895	-0.9033865293	 1.1193267808	 0.373282
N	 0.0577114652	-0.525350083	 2.4523861339	-0.408421
C	 0.0970322634	-1.3548978496	 3.5603928196	 0.149559
O	 0.1072706535	-2.555141305	 3.5367938676	-0.252881
H	 0.8686983094	 1.9023485148	 0.502853896	 0.144412
H	-0.0652106485	 1.8750119793	-1.0026744079	 0.1706
H	-0.9018528073	 1.8873518337	 0.5591797305	 0.144197
H	 0.0534749761	 0.4670833	 2.6313898363	 0.263107
H	 0.1182088837	-0.7514024543	 4.4888098144	 0.091131
38.09	139.9536	149.5875	197.7458	226.02	271.3682	401.4429	428.8348	527.6143	608.011	625.7513	695.0546	743.8269	869.4612	914.6919	950.529	1017.2889	1018.6262	1069.23	1071.4676	1128.1186	1243.569	1389.5913	1418.9046	1436.9612	1482.4805	1485.9249	1523.128	1581.0532	1645.4058	1841.772	2946.7448	3033.6364	3086.9651	3145.193	3628.1972
CC1=NON=C1NC=O	Cc1nonc1NC=O	
InChI=1S/C4H5N3O2/c1-3-4(5-2-8)7-9-6-3/h2H,1H3,(H,5,7,8)	InChI=1S/C4H5N3O2/c1-3-4(5-2-8)7-9-6-3/h2H,1H3,(H,5,7,8)
