23
gdb 58038	1.94795	1.37657	0.98796	3.9094	86.65	-0.2324	0.0301	0.2625	1342.9103	0.20355	-384.475194	-384.464132	-384.463188	-384.511147	40.097	
C	-0.0079776925	 1.5719804945	 0.1491089154	-0.391879
C	-0.0724328922	 0.0488605258	-0.0073340821	-0.005212
C	-1.5183656748	-0.4624159745	-0.0552350515	-0.407963
C	 0.7289370457	-0.4444428725	-1.2485903044	-0.073425
C	 0.0862591261	 0.0748031322	-2.4702327537	 0.302439
N	-0.454474427	 0.4704052368	-3.4117935904	-0.349133
N	 2.1466684902	-0.0613808567	-1.2290413882	-0.073627
C	 2.848471232	-0.6016252036	-0.0702838389	-0.32656
C	 2.840264381	-0.4352711642	-2.4595277146	-0.337059
H	 1.0254164169	 1.9258313539	 0.1715882887	 0.130846
H	-0.5125502404	 2.0700525976	-0.685548373	 0.13682
H	-0.5045830049	 1.8811289232	 1.0738124179	 0.112199
H	 0.4046152502	-0.4156691918	 0.861902047	 0.08583
H	-2.0674113352	-0.0321936629	-0.8987149995	 0.143552
H	-1.5575811621	-1.553214971	-0.1471260143	 0.114095
H	-2.0447072683	-0.1859079096	 0.8630319561	 0.1187
H	 0.6213712464	-1.5485294416	-1.2918291616	 0.093817
H	 2.7840500547	-1.7044254823	 0.0002456732	 0.096348
H	 3.9051357226	-0.3329570534	-0.146401221	 0.126633
H	 2.468763157	-0.1742336688	 0.8594772278	 0.130249
H	 2.3609199653	 0.0300988846	-3.3229218065	 0.153422
H	 3.8718808322	-0.076815502	-2.4092166521	 0.124
H	 2.8657695869	-1.5289362837	-2.6247038341	 0.095907
51.6958	86.4014	156.3928	180.7637	182.5549	215.8581	238.488	247.9064	254.2092	317.4194	359.4821	371.7591	426.1543	437.7719	468.7626	575.7887	628.8138	806.8877	875.715	919.8612	942.0968	973.5054	976.9122	1055.4566	1066.171	1109.5186	1122.2409	1144.2932	1181.642	1205.2487	1242.5398	1287.3402	1303.7023	1326.5751	1365.966	1383.4218	1404.2497	1426.3206	1445.649	1479.9848	1486.8436	1489.4124	1491.0279	1495.3959	1501.103	1504.3975	1511.1776	1515.641	2355.6717	2881.2519	2925.6546	2936.4085	3034.8386	3042.2588	3050.0942	3081.3981	3087.0673	3103.0182	3107.1862	3115.081	3126.5938	3128.5316	3132.4087
CC(C)C(C#N)N(C)C	CC(C)[C@@H](C#N)N(C)C	
InChI=1S/C7H14N2/c1-6(2)7(5-8)9(3)4/h6-7H,1-4H3	InChI=1S/C7H14N2/c1-6(2)7(5-8)9(3)4/h6-7H,1-4H3/t7-/m1/s1
