15
gdb 27326	3.20887	1.34974	0.95194	7.5087	73.54	-0.1992	-0.003	0.1962	1151.0525	0.114294	-453.994015	-453.985963	-453.985019	-454.026175	31.254	
N	 0.0959879444	 1.4100590006	 0.141421726	-0.589237
C	 0.0033422528	 0.0184988846	 0.035675039	 0.420687
C	-1.1600381808	-0.6929991101	 0.0071624343	-0.33157
C	-1.1987919629	-2.143164882	-0.0005080521	 0.345013
O	-2.2262005199	-2.8109687426	-0.0149219325	-0.398164
C	 0.1465447879	-2.7716096788	-0.0191033897	 0.209541
O	 0.1427624726	-4.1281420002	-0.0607408193	-0.414427
C	 1.2688958443	-2.0169246685	-0.0014819285	-0.135212
N	 1.2042707239	-0.6313121034	 0.0128231994	-0.374898
H	 0.7181335673	 1.8287279463	-0.5404409779	 0.250656
H	-0.8102402094	 1.8556398669	 0.0982552335	 0.261561
H	-2.1106256644	-0.1738180805	-0.0244511692	 0.093446
H	 1.0496030439	-4.4533238749	-0.0680183669	 0.29265
H	 2.2692766821	-2.4345456424	-0.0136007149	 0.110291
H	 2.0315119881	-0.1100111049	 0.2524498789	 0.259662
122.225	182.7364	276.1817	315.1236	331.8405	340.7246	368.9794	423.2703	442.4748	450.1846	523.3925	605.5019	640.2853	730.0384	741.6097	771.4017	803.0433	806.3436	854.0823	982.4008	1120.1835	1152.9081	1221.1883	1243.0864	1255.9694	1309.9146	1395.1872	1452.3693	1567.3384	1631.9706	1665.7588	1696.5298	1728.1651	3187.1516	3201.9759	3531.4689	3636.2736	3648.8061	3811.0706
NC1=CC(=O)C(O)=CN1	Nc1cc(=O)c(O)c[nH]1	
InChI=1S/C5H6N2O2/c6-5-1-3(8)4(9)2-7-5/h1-2,9H,(H3,6,7,8)	InChI=1S/C5H6N2O2/c6-5-1-3(8)4(9)2-7-5/h1-2,9H,(H3,6,7,8)
