15
gdb 130920	4.50811	1.19684	1.01702	1.8488	72.5	-0.245	-0.0462	0.1988	1119.215	0.113723	-416.792907	-416.785497	-416.784553	-416.826019	26.604	
O	-1.2189246681	 1.6055097001	-0.0321151889	-0.226202
C	-0.1600959197	 1.0820654244	-0.2569738824	 0.138654
C	 1.1707726819	 1.7174732583	 0.0998496701	-0.058399
C	 1.2594308474	 2.5037269339	 1.4694371441	-0.390837
C	 2.291677637	 1.4497258887	 1.8582620982	 0.3687
C	 3.3321795263	 0.8398132187	 2.5296777275	-0.379036
C	 3.7238276845	-0.1871828493	 1.6227377168	 0.01452
N	 3.0191765874	-0.2064118992	 0.478882572	-0.30828
N	 2.1494110061	 0.7908389034	 0.6948970628	 0.073792
H	-0.0798155752	 0.0876163797	-0.7464368785	 0.11267
H	 1.5605110081	 2.2656916585	-0.7669616917	 0.136736
H	 1.6398625758	 3.5223640092	 1.3752241967	 0.138772
H	 0.32263742	 2.5121425388	 2.0285213782	 0.150552
H	 3.7557793969	 1.0593800852	 3.4949342087	 0.111726
H	 4.4998528915	-0.9247415404	 1.7703860965	 0.116634
42.8712	85.6937	160.0455	226.9986	334.6723	440.2891	581.5758	644.9342	664.2774	719.649	786.5026	789.7081	862.3563	880.3914	921.3124	962.0428	1028.9544	1040.994	1065.2189	1095.4326	1121.9423	1175.9318	1204.2065	1232.9337	1299.284	1314.53	1343.3853	1405.4777	1410.6061	1469.1407	1502.6984	1567.5652	1833.6195	2910.244	3041.8946	3086.4818	3140.4445	3242.3172	3282.1633
O=CC1CC2=CC=NN12	O=C[C@H]1Cc2ccnn12	
InChI=1S/C6H6N2O/c9-4-6-3-5-1-2-7-8(5)6/h1-2,4,6H,3H2	InChI=1S/C6H6N2O/c9-4-6-3-5-1-2-7-8(5)6/h1-2,4,6H,3H2/t6-/m1/s1
