15
gdb 48860	3.803	1.49292	1.23164	1.946	72.98	-0.2377	-0.0675	0.1702	974.2198	0.11162	-416.671269	-416.664122	-416.663177	-416.702887	27.445	
O	-0.2493412366	 0.3679634412	-0.5785433764	-0.259024
C	 0.1142455052	 1.1616975925	 0.2559273703	 0.0647
C	 1.3336377734	 1.9884798705	 0.1294465571	 0.220106
N	 1.6425012566	 3.1024706711	 1.1879133822	-0.386047
C	 2.6132649104	 3.432371681	 0.1279385837	 0.120531
N	 3.8155423918	 3.0644206371	 0.3232852286	-0.149563
C	 3.9918724832	 1.8849043663	-0.5675100802	-0.185271
C	 2.5307516783	 1.5002892727	-0.8694509997	-0.082945
C	 1.8159068979	 2.772419889	-1.0475936546	-0.184098
H	-0.4538322768	 1.3273637234	 1.19617971	 0.096841
H	 0.8147781335	 3.7054452849	 1.1079882199	 0.228457
H	 4.5470881109	 2.0578099341	-1.5015381035	 0.121906
H	 4.5432062134	 1.1461953913	 0.0215809798	 0.13993
H	 2.2586843418	 0.6116811939	-1.4308172151	 0.130388
H	 1.2630715571	 3.195326801	-1.8762814621	 0.12409
102.8836	177.0228	188.7577	294.7471	378.3938	433.14	506.6557	559.0774	653.7106	695.3206	735.0904	784.1949	831.0582	907.2752	926.5566	944.0065	956.4336	988.8573	1007.002	1034.075	1065.0684	1118.7348	1132.1301	1173.4809	1192.8534	1229.6552	1271.5173	1303.5781	1368.6677	1418.1474	1477.1538	1614.0206	1796.865	2905.6959	3000.3413	3086.4588	3178.8703	3199.9107	3357.9552
O=CC12NC3=NCC1C23	O=C[C@@]12N[C]3[N]C[C@@H]1[C@@H]23	
InChI=1S/C6H6N2O/c9-2-6-3-1-7-5(8-6)4(3)6/h2-4H,1H2,(H,7,8)	InChI=1S/C6H6N2O/c9-2-6-3-1-7-5(8-6)4(3)6/h2-4H,1H2,(H,7,8)/t3-,4-,6-/m1/s1
