12
gdb 130692	2.14057	1.92886	1.02112	2.7239	69.51	-0.2608	-0.0836	0.1772	1041.5656	0.077773	-468.845815	-468.838099	-468.837155	-468.878702	26.982	
O	 0.2947542397	 0.1014864888	-0.0053361657	-0.377105
C	 0.1625078472	 1.3030592607	 0.0052965864	 0.371687
N	-1.0155248172	 2.0106914474	 0.0277655333	-0.348403
C	-0.8879041541	 3.452085248	 0.0356038123	-0.265415
C	 0.635269234	 3.697240513	 0.0156207528	 0.317023
C	 1.2120817472	 2.3563266318	-0.0024363101	 0.102444
N	 2.488876154	 2.0997776244	-0.0228552449	 0.141902
N	 3.5968979594	 1.8975125557	-0.0417153059	-0.179545
O	 1.1743480614	 4.7762964876	 0.0158516624	-0.329428
H	-1.8942771474	 1.5201244148	 0.0360155598	 0.267825
H	-1.3398438912	 3.9275965074	-0.8431056894	 0.149497
H	-1.314774153	 3.9156816803	 0.932981779	 0.149517
93.4853	120.8619	124.4963	183.0658	340.7058	394.5278	451.698	527.8131	541.9823	602.8071	614.5029	675.3442	722.1254	741.0538	999.3638	1029.3248	1067.2768	1173.6528	1195.3593	1215.0706	1321.4547	1415.0938	1428.5032	1499.2003	1808.8635	1841.1415	2249.8544	3030.5339	3068.2957	3660.9107
O=C1NCC2=C1N=NO2	O=C1NCC(=O)[C]1[N][N]	
InChI=1S/C4H3N3O2/c8-4-3-2(1-5-4)9-7-6-3/h1H2,(H,5,8)	InChI=1S/C4H3N3O2/c5-7-3-2(8)1-6-4(3)9/h1H2,(H,6,9)
