21
gdb 122460	3.60185	0.69093	0.61473	3.1637	85.15	-0.2555	0.0133	0.2688	1851.3323	0.181718	-383.259838	-383.249801	-383.248857	-383.295852	35.743	
C	 0.280318731	 1.6164248814	 0.1246065821	-0.380456
C	-0.0835132106	 0.144662452	-0.088553604	-0.166936
C	 0.7385945479	-0.5176792972	-1.1993521661	-0.166577
C	 0.3709508686	-1.9859732498	-1.408091324	-0.153234
N	 1.1548035065	-2.5530467382	-2.5090590018	-0.075816
C	 2.4264279942	-3.163018914	-2.1767363649	-0.238097
C	 1.2669169398	-4.0131927968	-2.6092597755	-0.147966
C	 0.6363634969	-4.878735305	-1.6411796948	 0.284727
N	 0.1072993317	-5.5791369882	-0.8874029138	-0.337094
H	 1.3334429365	 1.7276511346	 0.4056226658	 0.114691
H	 0.1191194345	 2.2000466844	-0.7884279	 0.116321
H	-0.324940444	 2.0651290083	 0.918126031	 0.1147
H	 0.0584176044	-0.4082143831	 0.8491921206	 0.100163
H	-1.1514500113	 0.0623702934	-0.3297332236	 0.10017
H	 0.5970136852	 0.0197666969	-2.1446772348	 0.109116
H	 1.8079667236	-0.4438135231	-0.9594065915	 0.096125
H	 0.5098378197	-2.5487550943	-0.4703632235	 0.106958
H	-0.6868941814	-2.0747485728	-1.6806239101	 0.117051
H	 3.2440119655	-2.9954861111	-2.8718017557	 0.133564
H	 2.7100969838	-3.2276007583	-1.1273412092	 0.133045
H	 1.2376918775	-4.4014174291	-3.6235938662	 0.139545
56.5895	77.1625	90.2792	134.9981	162.6568	215.3856	243.9233	304.8094	324.1639	410.5731	442.6893	558.0541	639.9688	742.5615	759.7263	808.8639	831.7279	905.8342	913.6333	954.7876	1012.2033	1028.9573	1043.5417	1071.0757	1116.4126	1119.6322	1135.1647	1142.3086	1202.5519	1262.2023	1292.6487	1315.8136	1327.9609	1329.9548	1367.0803	1385.6825	1409.4465	1416.2109	1485.6206	1488.9447	1498.8118	1499.6746	1509.1366	1518.2127	2349.09	2973.2928	3014.1554	3021.6049	3031.2093	3042.4815	3056.5331	3075.6374	3098.038	3098.7519	3104.5018	3149.0736	3192.8087
CCCCN1CC1C#N	CCCCN1C[C@H]1C#N	
InChI=1S/C7H12N2/c1-2-3-4-9-6-7(9)5-8/h7H,2-4,6H2,1H3	InChI=1S/C7H12N2/c1-2-3-4-9-6-7(9)5-8/h7H,2-4,6H2,1H3/t7-,9?/m1/s1
