18
gdb 47365	2.21581	1.49105	1.18318	5.2827	75.16	-0.2508	-0.0294	0.2213	1111.1626	0.149308	-402.004369	-401.99622	-401.995276	-402.03745	30.718	
O	-0.0455887622	-0.0812082811	 0.1603915527	-0.294762
C	-0.0537661522	 1.1201631229	 0.0480613696	 0.40007
C	-1.3340058348	 1.9440483433	 0.0582482367	-0.292386
C	-1.3569192854	 3.0146630025	-1.0497373172	-0.218649
C	-0.0902554837	 3.8766013654	-1.0271759143	-0.208259
C	 1.1863461947	 3.0134599342	-1.1694230224	-0.165045
C	 1.2418831299	 1.9243345129	-0.0665838358	-0.309224
C	 1.2553487704	 2.4102737891	-2.5061614075	 0.282043
N	 1.2978365257	 1.943952731	-3.5629631084	-0.321906
H	-2.1835371772	 1.2610805457	-0.0099629891	 0.128858
H	-1.3874678644	 2.4415295733	 1.038176373	 0.119277
H	-1.4458176838	 2.5265455402	-2.0273354682	 0.137345
H	-2.2420409039	 3.6474981176	-0.9335886654	 0.111548
H	-0.1191614521	 4.6249118604	-1.8242885618	 0.123869
H	-0.0202075867	 4.4195129688	-0.0764748428	 0.10669
H	 2.0685054571	 3.6559376795	-1.0686894849	 0.131337
H	 1.3975064527	 2.4371643784	 0.8919544714	 0.127149
H	 2.0725854359	 1.233022916	-0.2182579057	 0.142046
75.0322	97.0997	174.7941	232.4594	313.2996	384.2007	399.5624	459.245	479.2739	573.8398	602.0586	693.3949	740.7658	766.9822	843.7749	884.4755	912.9191	939.6636	991.9093	1024.2545	1071.725	1102.3601	1117.3226	1163.9071	1228.4507	1234.4148	1262.7641	1291.4198	1331.3458	1346.4067	1362.3134	1370.3747	1391.4297	1459.5943	1465.6721	1486.423	1500.2291	1825.3451	2355.1096	3008.898	3030.8752	3032.6818	3044.5544	3049.6494	3086.8528	3093.7593	3111.6695	3123.9981
O=C1CCCC(C1)C#N	O=C1CCC[C@@H](C1)C#N	
InChI=1S/C7H9NO/c8-5-6-2-1-3-7(9)4-6/h6H,1-4H2	InChI=1S/C7H9NO/c8-5-6-2-1-3-7(9)4-6/h6H,1-4H2/t6-/m0/s1
