20
gdb 32645	3.57367	0.9691	0.81252	2.9788	83.86	-0.1754	0.0417	0.2171	1473.8625	0.172152	-399.364807	-399.355356	-399.354412	-399.39972	34.285	
C	 0.0050399549	 1.5370456776	-0.0796789253	-0.370048
C	-0.0317428584	 0.0219788615	 0.1360011189	-0.157612
N	-1.3709790373	-0.534074574	 0.0653521903	 0.027403
C	-2.1237311272	-0.9784076086	 1.1010614317	-0.00156
N	-3.3181563045	-1.3858762798	 0.7233069546	-0.347841
C	-3.3483846265	-1.1918758412	-0.6361606346	 0.321079
N	-4.4987494449	-1.4860443863	-1.3531489428	-0.367534
C	-4.3808791012	-1.6747270496	-2.7842594748	-0.32135
C	-2.1518800869	-0.6696595222	-1.078086932	-0.228958
H	 1.0343701494	 1.9028106151	-0.013369099	 0.120052
H	-0.3891630592	 1.8037309905	-1.0642544022	 0.131073
H	-0.5957758981	 2.0502691751	 0.6764604998	 0.132868
H	 0.5979468584	-0.4823823819	-0.6062572392	 0.12004
H	 0.3711551599	-0.2311539323	 1.1213276085	 0.120928
H	-1.7475882312	-0.988954168	 2.1140130546	 0.119975
H	-5.0571210715	-2.1810216167	-0.8784796918	 0.238075
H	-4.0958249067	-0.7300740788	-3.2624786087	 0.12508
H	-3.6333354858	-2.4334071148	-3.0713273662	 0.104431
H	-5.3511726245	-1.9682937863	-3.1916642827	 0.121551
H	-1.7846991987	-0.3942070193	-2.051075869	 0.112348
51.1265	94.5947	118.2704	156.2117	193.0741	223.1472	317.3353	337.254	418.0393	480.6327	556.4169	616.9518	628.49	654.5474	736.7645	760.3202	796.0822	806.8832	961.6488	993.0684	1050.5093	1093.1379	1097.2443	1122.2733	1155.4903	1164.543	1219.8778	1255.6347	1279.2543	1310.5865	1388.8138	1401.9015	1412.5975	1432.0121	1458.321	1480.702	1483.6045	1489.048	1500.0481	1506.9144	1523.6218	1550.9191	1631.2533	2961.54	3037.1736	3043.8279	3049.9197	3085.4265	3115.4635	3117.7713	3125.6155	3240.3586	3282.7475	3597.0472
CCN1C=NC(NC)=C1	CCn1cnc(NC)c1	
InChI=1S/C6H11N3/c1-3-9-4-6(7-2)8-5-9/h4-5,7H,3H2,1-2H3	InChI=1S/C6H11N3/c1-3-9-4-6(7-2)8-5-9/h4-5,7H,3H2,1-2H3
