16
gdb 51250	4.88102	0.93525	0.79244	3.8304	78.8	-0.2324	-0.0498	0.1826	1351.0367	0.125251	-437.958893	-437.950802	-437.949858	-437.99228	29.459	
O	 1.9791561964	 4.1320999595	 0.0675420249	-0.285124
C	 1.0805892977	 3.3279074458	 0.0588028025	 0.152741
N	 1.2169134179	 1.9574574925	-0.0384810488	-0.391228
C	 2.3841369461	 1.2201987811	-0.1446594205	 0.449967
C	 2.4261564341	-0.1258604078	-0.2358952576	-0.352264
C	 3.8142427569	-0.5897701498	-0.335074981	 0.407744
O	 4.201980309	-1.7334177749	-0.4291442416	-0.34994
C	 4.7110732123	 0.6601041095	-0.2954390708	-0.343924
C	 3.7542166511	 1.8605327956	-0.1693558253	-0.303993
H	 0.0122512401	 3.6080734641	 0.1295789065	 0.09803
H	 0.3548502419	 1.430065227	-0.0310683597	 0.263161
H	 1.5788992911	-0.8001294779	-0.2389180292	 0.101259
H	 5.4042893915	 0.5810797258	 0.5466624404	 0.134727
H	 5.3195580351	 0.6972921822	-1.2033311836	 0.134666
H	 3.8324970536	 2.5676354858	-0.999509443	 0.142092
H	 3.9173020653	 2.4530586816	 0.7348497169	 0.142086
60.1159	119.5616	148.7296	178.4168	288.2201	310.3275	492.7402	527.6908	543.9442	563.2173	630.7458	650.8467	825.0486	834.2392	845.5258	875.221	899.4978	1010.5656	1011.0738	1026.8934	1088.7869	1161.7212	1181.9961	1230.3254	1236.5162	1272.6992	1300.1994	1375.3007	1448.0989	1451.6197	1470.0718	1507.4276	1663.9036	1805.4645	1823.6215	2955.8499	3066.4876	3074.9261	3097.3946	3113.9184	3212.1289	3597.9285
O=CNC1=CC(=O)CC1	O=CNC1=CC(=O)CC1	
InChI=1S/C6H7NO2/c8-4-7-5-1-2-6(9)3-5/h3-4H,1-2H2,(H,7,8)	InChI=1S/C6H7NO2/c8-4-7-5-1-2-6(9)3-5/h3-4H,1-2H2,(H,7,8)
