17
gdb 29898	4.19316	1.04133	0.84007	4.1075	78.59	-0.2152	0.006	0.2211	1334.3007	0.137263	-418.08206	-418.073266	-418.072322	-418.116189	32.124	
C	-0.0549756271	 1.4472018657	 0.0203835589	-0.337751
N	-0.0268050029	-0.0019830124	-0.0051659911	 0.00483
C	 0.0352865489	-0.7756228283	-1.1440514302	-0.069717
C	 0.1155905729	-2.0923518165	-0.7665919278	-0.323049
C	 0.10559965	-2.1253058692	 0.6621096283	 0.172053
C	 0.0223236189	-0.8130178311	 1.0882345623	-0.142959
C	 0.1593922546	-3.2620032824	 1.6015571474	 0.310313
N	 0.1176333881	-4.5143460944	 1.0278485721	-0.544138
O	 0.2636268339	-3.1150083996	 2.8088284168	-0.375358
H	 0.9427234993	 1.8709297079	-0.138352576	 0.144885
H	-0.724045181	 1.8220123535	-0.7584570164	 0.143236
H	-0.4283643195	 1.7833352766	 0.9892951613	 0.149018
H	 0.0206065827	-0.3160417516	-2.1197252393	 0.120769
H	 0.1894774408	-2.9310957636	-1.442434102	 0.096834
H	-0.0081778375	-0.4216779547	 2.0917613774	 0.147168
H	-0.2749761053	-4.6297460056	 0.1084730698	 0.251086
H	-0.0128257369	-5.2781680844	 1.6727450084	 0.25278
63.2422	67.1919	151.3055	165.207	236.4193	341.9276	373.223	399.4422	510.213	526.4025	620.8495	629.3476	646.4439	696.7021	710.7281	768.6487	798.9544	844.6657	971.2585	1015.5591	1079.3871	1093.6754	1109.8553	1142.4253	1151.6859	1255.9545	1307.0252	1388.0265	1413.7282	1430.9431	1455.9632	1487.9484	1512.1519	1550.4861	1580.9418	1619.3887	1768.9334	3038.0274	3104.7539	3140.4191	3238.0868	3263.5274	3276.121	3588.5654	3715.7016
CN1C=CC(=C1)C(N)=O	Cn1ccc(c1)C(=O)N	
InChI=1S/C6H8N2O/c1-8-3-2-5(4-8)6(7)9/h2-4H,1H3,(H2,7,9)	InChI=1S/C6H8N2O/c1-8-3-2-5(4-8)6(7)9/h2-4H,1H3,(H2,7,9)
