20
gdb 60226	3.9041	0.84543	0.83449	2.4762	75.44	-0.244	0.0267	0.2707	1472.9809	0.170908	-440.302873	-440.293599	-440.292654	-440.33781	33.821	
C	 0.0176173091	 1.5138498403	-0.100153285	-0.408281
C	 0.021658264	-0.0074619911	 0.0372618567	 0.133208
O	 0.679267176	-0.419270862	 1.2355501465	-0.430111
C	-1.3903411785	-0.605492191	-0.0468985144	-0.215281
C	-1.4019539744	-2.1285288449	-0.0188365608	 0.09624
C	-2.8117161847	-2.7772754636	-0.0806583882	-0.205312
N	-2.8456676532	-3.5202381514	-1.3535476166	-0.263788
C	-1.6978715099	-3.3669150262	-1.8662299409	 0.120248
O	-0.7568521588	-2.6332632542	-1.2291646015	-0.233526
H	 1.035266059	 1.9042986422	-0.0152800735	 0.127228
H	-0.3953079505	 1.8249929443	-1.0650242511	 0.120222
H	-0.5935310143	 1.9751756874	 0.6866827228	 0.105177
H	 0.6256045755	-0.4421492223	-0.7666542005	 0.10911
H	 0.2554075225	 0.0363378695	 1.9717920618	 0.275591
H	-1.9875378739	-0.2385070115	 0.8008819433	 0.089751
H	-1.8915482141	-0.2603871841	-0.9598879003	 0.106213
H	-0.8037965189	-2.4830588846	 0.8236503213	 0.106638
H	-2.9951988251	-3.4641011139	 0.752110085	 0.117162
H	-3.6113918972	-2.0276284708	-0.0666430936	 0.111102
H	-1.3727024125	-3.7862069123	-2.8123583709	 0.138409
57.2922	66.1789	111.7742	151.6683	243.6334	290.8238	320.2485	336.2865	423.6058	473.048	483.8804	546.6518	736.2638	817.0616	837.0442	878.1129	904.3469	945.725	962.3842	970.6688	981.0571	1034.6797	1066.3356	1080.0973	1126.7851	1135.2803	1158.3345	1192.595	1238.0297	1289.3993	1314.2369	1323.765	1327.8832	1354.0427	1382.8297	1400.8357	1407.0128	1425.2948	1461.9985	1492.0822	1496.3406	1501.4255	1710.1372	3005.2313	3022.3492	3035.4215	3053.1587	3064.235	3067.7916	3093.6108	3096.06	3119.6337	3212.3803	3792.8241
CC(O)CC1CN=CO1	C[C@@H](O)C[C@H]1CN=CO1	
InChI=1S/C6H11NO2/c1-5(8)2-6-3-7-4-9-6/h4-6,8H,2-3H2,1H3	InChI=1S/C6H11NO2/c1-5(8)2-6-3-7-4-9-6/h4-6,8H,2-3H2,1H3/t5-,6+/m1/s1
