20
gdb 65108	3.08528	1.37895	1.14513	2.5713	79.09	-0.2281	0.0751	0.3032	1133.5963	0.171292	-403.091848	-403.083634	-403.082689	-403.124512	32.924	
O	 0.0166095515	 1.3435296308	 0.0914680816	-0.472385
C	 0.078888751	-0.0445780845	-0.0514704281	 0.336035
C	 1.2352824024	-0.5549123863	-0.8514301029	-0.31935
C	 1.2025104636	-0.783874813	 0.6481710638	-0.329837
C	-1.2700017072	-0.6729956534	-0.1347770442	 0.316685
C	-1.6346633879	-2.1432781684	-0.3945034372	-0.321694
C	-2.9437300993	-1.6568979481	-1.1057923789	-0.237604
C	-2.5314261061	-0.2084696336	-0.8145499874	-0.09242
N	-2.3330207998	-0.0047360217	 0.6205168405	-0.38394
H	-0.7378487713	 1.5015741456	 0.6783507696	 0.288355
H	 1.0900107735	-1.4033610428	-1.511287198	 0.108918
H	 1.9177306048	 0.1990716476	-1.2267457764	 0.125594
H	 1.8637905833	-0.1809193795	 1.2595229843	 0.119341
H	 1.0266600896	-1.7907056043	 1.0127743337	 0.10638
H	-0.9564296365	-2.6465348709	-1.087080891	 0.115832
H	-1.7462478158	-2.7663698418	 0.4992149794	 0.098917
H	-2.9492874796	-1.8993700358	-2.1706855426	 0.113216
H	-3.8967471026	-1.9749989715	-0.6694289929	 0.099967
H	-2.7188347092	 0.6639211777	-1.4294028203	 0.103589
H	-2.8845699744	-0.6355542761	 1.199783367	 0.224403
70.1847	154.6454	189.0257	273.8549	310.3319	370.9906	408.5906	481.4334	487.5697	533.9242	563.7732	750.7361	767.5174	783.0976	819.0757	851.1476	897.3764	920.8818	935.8831	938.5909	951.4656	990.8236	1033.8539	1045.7303	1056.4257	1075.1323	1088.4715	1104.0468	1173.2881	1189.7536	1194.0237	1217.8358	1229.5354	1244.9404	1269.9069	1291.4924	1324.0613	1403.1766	1448.2469	1460.6346	1477.9959	1498.237	1518.5441	3042.4178	3050.6559	3100.5942	3117.4301	3130.5659	3136.6935	3186.2823	3217.4788	3231.6503	3458.1109	3720.3959
OC1(CC1)C12CCC1N2	OC1(CC1)[C@]12CC[C@H]1N2	
InChI=1S/C7H11NO/c9-6(3-4-6)7-2-1-5(7)8-7/h5,8-9H,1-4H2	InChI=1S/C7H11NO/c9-6(3-4-6)7-2-1-5(7)8-7/h5,8-9H,1-4H2/t5-,7+/m1/s1
