16
gdb 130177	3.32513	1.52906	1.06401	2.3287	71.03	-0.1938	0.0566	0.2505	1073.9593	0.127905	-434.073762	-434.066068	-434.065124	-434.10601	29.009	
N	-0.1015253223	 1.4128856929	 0.0055138255	-0.589378
C	 0.0358863251	 0.0245622797	-0.0161598298	 0.208175
N	-1.045348458	-0.7569258907	-0.0560174814	-0.32261
N	-0.5542938088	-2.0493225619	 0.0369671787	-0.356807
C	 0.7819109765	-2.0265095537	 0.098375314	 0.502991
C	 1.2272098906	-0.7363792019	 0.0673368151	 0.087471
C	 2.7202079521	-0.7639448318	 0.2396642876	-0.393817
C	 2.9792540723	-2.3102556436	 0.1466098943	-0.09063
O	 1.6904522526	-3.0094513086	 0.2259574299	-0.288443
H	 0.5785313175	 1.8889487439	-0.5723429557	 0.241953
H	-1.0403630872	 1.689689572	-0.2544393604	 0.248201
H	-1.1897476576	-2.8254168653	 0.0149108766	 0.272948
H	 3.2867660674	-0.2403335702	-0.538149644	 0.111216
H	 3.0511525807	-0.3613467663	 1.2050592048	 0.119415
H	 3.4315675575	-2.5823765958	-0.8116992092	 0.123227
H	 3.6014265516	-2.6964965689	 0.9559430039	 0.126088
86.244	195.6312	199.1567	259.5222	272.2223	302.4437	431.1442	525.9179	604.7535	648.0632	658.0468	705.0943	770.4289	775.9835	824.806	847.2191	931.2479	973.2395	1032.3457	1075.3271	1120.5551	1160.9796	1203.2459	1224.6718	1242.7056	1304.8113	1337.4104	1376.5908	1455.2983	1500.5073	1517.2982	1553.0325	1608.2893	1639.2332	1654.877	3020.3139	3048.5844	3062.9022	3120.712	3535.668	3631.755	3705.5919
NC1=NNC2=C1CCO2	Nc1n[nH]c2c1CCO2	
InChI=1S/C5H7N3O/c6-4-3-1-2-9-5(3)8-7-4/h1-2H2,(H3,6,7,8)	InChI=1S/C5H7N3O/c6-4-3-1-2-9-5(3)8-7-4/h1-2H2,(H3,6,7,8)
