18
gdb 100206	2.63743	1.12571	0.96687	6.2536	76.13	-0.2644	0.0128	0.2772	1270.8868	0.14672	-398.153186	-398.143066	-398.142122	-398.18822	35.961	
C	-0.0050062202	 1.5846042068	-0.033016647	-0.412972
C	 0.029629361	 0.0442381843	-0.0381805625	 0.070244
C	 0.7667433363	-0.5004803344	 1.2196709679	-0.175751
N	 2.1493921292	-0.0464971886	 1.2550355047	-0.514389
C	-1.4072150293	-0.5555154847	-0.0429156505	-0.370031
C	-2.2384646516	-0.0893381931	-1.1495686609	 0.279344
N	-2.8988220658	 0.2885089621	-2.0187431752	-0.301091
C	 0.7553757705	-0.4360153131	-1.2258811997	 0.297139
N	 1.3571326346	-0.8354370214	-2.1282876548	-0.339691
H	 1.0092189298	 1.9726942707	 0.0628946265	 0.161039
H	-0.4603131494	 1.9725485619	-0.9465263243	 0.155619
H	-0.5928265895	 1.9314525485	 0.8232031874	 0.120896
H	 0.2491933868	-0.0970516296	 2.0974929573	 0.114652
H	 0.6451385977	-1.5964219999	 1.2437583954	 0.10011
H	 2.5558978235	-0.2245867515	 2.1663283311	 0.240484
H	 2.707003531	-0.5538318562	 0.574560177	 0.250239
H	-1.3578660487	-1.6488537057	-0.0761540649	 0.166211
H	-1.8972326159	-0.2807819262	 0.8981422424	 0.157948
67.4302	111.9044	126.4239	165.3021	189.747	233.063	250.1135	274.9947	332.7072	364.8402	392.5063	421.809	493.2134	580.1148	658.0939	708.8234	838.1973	879.3158	893.8594	946.9808	967.9362	997.0034	1094.9301	1121.8233	1162.4962	1169.3445	1214.3677	1302.8058	1336.474	1354.3315	1401.3273	1427.9122	1460.897	1486.1155	1499.6692	1503.7479	1660.8227	2353.1011	2366.9503	2957.8485	3046.4735	3048.9384	3061.5985	3091.5878	3126.4019	3159.6277	3508.0814	3590.7424
CC(CN)(CC#N)C#N	C[C@@](CN)(CC#N)C#N	
InChI=1S/C6H9N3/c1-6(4-8,5-9)2-3-7/h2,4,8H2,1H3	InChI=1S/C6H9N3/c1-6(4-8,5-9)2-3-7/h2,4,8H2,1H3/t6-/m0/s1
