21
gdb 94705	3.35142	1.1952	1.01942	2.5585	78.02	-0.2571	0.0751	0.3323	1234.4049	0.182878	-424.234741	-424.226019	-424.225075	-424.26762	34.382	
C	 0.0811495657	 1.5337212643	-0.0624954729	-0.466149
C	-0.027449566	 0.0317155557	 0.0643221823	 0.403953
C	-1.2707760178	-0.6011176472	-0.539269209	-0.278686
C	-1.3225900797	-2.1172751432	-0.3158953526	-0.23906
C	-1.1609376428	-2.4466084662	 1.1706867777	 0.135478
O	-1.2772840068	-3.8376068423	 1.4395437	-0.442227
C	 0.2135360748	-2.0180586144	 1.6927455189	-0.223017
C	 0.6803870645	-0.681291404	 1.1471158272	-0.021431
O	 1.1873083868	-0.6871534728	-0.1984773479	-0.291892
H	 1.0193689578	 1.8907935006	 0.3693354572	 0.126902
H	 0.0551878191	 1.8328417332	-1.1163338475	 0.123833
H	-0.7509926089	 2.0314889877	 0.447077801	 0.118116
H	-2.1532378781	-0.1238115252	-0.0918732004	 0.099123
H	-1.3042786974	-0.3697357137	-1.6110501389	 0.104235
H	-2.2800857394	-2.5108523291	-0.6796945671	 0.078974
H	-0.5267389389	-2.6102474649	-0.8826558093	 0.122186
H	-1.9358237979	-1.8901290622	 1.7275940887	 0.058076
H	-2.1363812378	-4.1308538878	 1.1191509769	 0.277969
H	 0.1980261511	-1.9875273262	 2.7868915623	 0.103268
H	 0.9412766865	-2.7862931435	 1.4064263135	 0.126868
H	 1.2873665351	-0.0841060287	 1.8289776999	 0.083482
91.2757	182.8931	221.3866	244.5521	289.0932	306.6094	341.5082	357.558	407.8223	442.9546	485.8577	557.3407	637.1755	692.1745	775.5671	830.3234	876.4735	902.6199	921.1695	996.4603	1010.9573	1035.4771	1057.1846	1073.1941	1096.7499	1119.3308	1134.142	1194.5436	1222.1982	1243.4245	1246.1601	1298.5858	1337.7245	1339.0677	1347.9196	1382.0611	1406.1835	1412.4614	1437.7975	1459.9256	1475.4987	1478.293	1488.2625	1493.4534	1506.5161	2935.8435	3015.4714	3029.3288	3033.2599	3043.1487	3053.0691	3084.2293	3092.0815	3095.0247	3098.9541	3121.9305	3813.8693
CC12CCC(O)CC1O2	C[C@]12CC[C@@H](O)C[C@H]1O2	
InChI=1S/C7H12O2/c1-7-3-2-5(8)4-6(7)9-7/h5-6,8H,2-4H2,1H3	InChI=1S/C7H12O2/c1-7-3-2-5(8)4-6(7)9-7/h5-6,8H,2-4H2,1H3/t5-,6-,7+/m1/s1
