16
gdb 97263	2.0033	1.25487	1.04288	5.9093	79.52	-0.2502	0.0033	0.2535	1244.6836	0.12136	-396.904826	-396.894783	-396.893839	-396.939614	36.176	
C	-0.3386150005	 1.7103745825	-0.151992095	-0.386132
C	 0.2048306899	 0.2589537185	-0.1401660269	-0.049681
N	 1.3105828835	 0.2046089414	 0.8197920977	-0.268821
C	 1.3563318329	-0.7422848238	 1.6737132504	 0.121447
N	 2.3999114051	-0.8772134762	 2.5361152572	-0.502342
C	-0.9067655987	-0.6791958888	 0.1038106265	 0.337836
C	-1.8158324146	-1.4280232952	 0.3426677476	-0.48039
C	 0.7697810483	-0.0391382321	-1.4827488613	 0.310519
N	 1.2132144798	-0.2546354272	-2.5274196102	-0.347554
H	 0.4903141245	 2.3953666981	-0.3386433809	 0.14425
H	-1.1027747137	 1.8337376779	-0.9221892163	 0.136897
H	-0.7709014601	 1.9280628155	 0.8269494186	 0.130575
H	 0.5954230457	-1.5236426027	 1.7675266693	 0.114805
H	 3.0617938417	-0.1184157996	 2.5882801146	 0.265601
H	 2.2842118561	-1.4410203811	 3.3599617418	 0.263809
H	-2.6261099997	-2.0899416271	 0.5287233272	 0.209181
63.1907	130.174	143.3038	167.0485	210.5337	226.7073	246.9882	309.0094	331.0631	406.1695	463.0634	480.7774	522.301	574.4202	587.9997	632.8224	646.5843	669.246	738.114	904.1127	936.8062	1027.0826	1062.8106	1132.4211	1170.3651	1195.0632	1312.8375	1397.1089	1407.7045	1480.7506	1484.9954	1627.8464	1742.4705	2228.5979	2358.1723	3057.2272	3078.8589	3144.1223	3150.9497	3496.5647	3597.0268	3727.6825
CC(N=CN)(C#C)C#N	C[C@@](N=CN)(C#C)C#N	
InChI=1S/C6H7N3/c1-3-6(2,4-7)9-5-8/h1,5H,2H3,(H2,8,9)	InChI=1S/C6H7N3/c1-3-6(2,4-7)9-5-8/h1,5H,2H3,(H2,8,9)/t6-/m1/s1
