17
gdb 77876	2.04918	1.69824	1.26926	2.1504	69.51	-0.2266	-0.0206	0.206	1056.4148	0.133288	-458.9392	-458.929954	-458.92901	-458.972922	33.87	
C	-0.0190591338	 1.5591606879	 0.0480375872	-0.411773
C	 0.1447721461	 0.0551917732	-0.0571542834	-0.085365
C	 0.7307890228	-0.712279503	-1.2039070031	-0.146526
C	 1.9394101598	-0.0195706016	-1.8191997669	 0.000668
O	 1.6973253836	 1.1888785379	-2.5009980458	-0.42453
C	 2.6029175962	-0.0170488278	-0.4062419574	 0.297151
O	 3.7045930056	 0.2703392226	-0.0282366258	-0.325507
C	 1.4263981524	-0.7242379261	 0.2059886148	 0.254854
O	 1.5012257948	-1.7524483037	 1.1159858488	-0.445617
H	 0.8039779761	 2.0954214983	-0.4234765466	 0.143479
H	-0.9426379266	 1.8728872849	-0.4498365794	 0.125065
H	-0.0848031439	 1.864842278	 1.0980271366	 0.112213
H	-0.6849306318	-0.4996265766	 0.3826006076	 0.099727
H	 0.208669214	-1.5425426146	-1.6612079033	 0.110755
H	 2.5102724417	-0.725325867	-2.4447914437	 0.101208
H	 2.5526754055	 1.5899619303	-2.6925594013	 0.295395
H	 1.2366699874	-1.4243798424	 1.9819528119	 0.298803
86.0751	153.2064	166.7387	193.6762	214.5767	253.6156	271.6	295.8361	360.9121	400.5694	508.8702	584.5603	639.1299	657.6716	731.8376	820.7745	867.0783	896.8973	953.5068	974.3807	1008.4511	1057.0641	1108.7521	1126.0876	1151.1091	1187.852	1236.325	1261.037	1293.4552	1327.4919	1362.4626	1406.7974	1424.9378	1471.1131	1489.0027	1504.4493	1875.3724	2975.3965	3037.9478	3094.9554	3105.2342	3154.8324	3204.655	3803.8391	3806.6465
CC1C2C(O)C(=O)C12O	C[C@H]1[C@H]2[C@@H](O)C(=O)[C@@]12O	
InChI=1S/C6H8O3/c1-2-3-4(7)5(8)6(2,3)9/h2-4,7,9H,1H3	InChI=1S/C6H8O3/c1-2-3-4(7)5(8)6(2,3)9/h2-4,7,9H,1H3/t2-,3-,4+,6+/m0/s1
