16
gdb 69294	3.07541	1.33888	1.05707	5.2847	74.98	-0.2622	-0.0332	0.229	1127.9947	0.123456	-400.758992	-400.750605	-400.74966	-400.792177	30.71	
C	-0.0420137717	 1.5778738992	 0.043709545	-0.499239
C	 0.0579173504	 0.0803454741	-0.0022771372	 0.213388
C	-0.8381773508	-0.8483165949	 0.8154430648	-0.329572
C	 0.6300061421	-0.9702025819	 0.9996363089	-0.099758
C	 1.2191220649	-1.8204499502	-0.1395446354	-0.285493
C	 0.7586637619	-3.1894663178	-0.2834672456	 0.286484
N	 0.3586106467	-4.2678891115	-0.4045498414	-0.330604
C	 0.6614713019	-0.7035290515	-1.1199074049	 0.362665
O	 0.8796075297	-0.481359614	-2.2712583914	-0.291918
H	 0.8917520295	 2.0466913695	-0.2809817694	 0.138071
H	-0.8404149253	 1.9317294168	-0.6163954216	 0.147127
H	-0.2680123624	 1.9241783446	 1.0565572146	 0.128981
H	-1.3774084698	-0.3301447639	 1.6017883128	 0.136135
H	-1.400714154	-1.6479964579	 0.343082406	 0.150532
H	 1.1428876173	-0.7664418779	 1.929759754	 0.122713
H	 2.3118459897	-1.7829584827	-0.1853952791	 0.150491
85.0183	128.6268	150.5872	174.2474	255.6021	285.8642	393.2479	422.6824	491.2913	570.6546	615.8666	640.5965	757.9305	810.7306	832.7433	900.343	935.591	952.2226	979.7703	1029.6909	1047.0969	1086.4396	1103.0739	1113.6793	1150.2358	1248.597	1299.1602	1314.763	1381.9932	1419.92	1482.5399	1495.462	1499.6103	1893.7007	2350.4817	3039.4963	3078.0142	3106.2753	3114.0956	3126.839	3209.2601	3216.9914
CC12CC1C(C#N)C2=O	C[C@]12C[C@H]1[C@@H](C#N)C2=O	
InChI=1S/C7H7NO/c1-7-2-5(7)4(3-8)6(7)9/h4-5H,2H2,1H3	InChI=1S/C7H7NO/c1-7-2-5(7)4(3-8)6(7)9/h4-5H,2H2,1H3/t4-,5+,7+/m1/s1
