15
gdb 64605	2.48547	1.59	1.31775	4.7078	67.17	-0.2552	-0.0412	0.214	995.4794	0.111624	-454.000298	-453.991835	-453.990891	-454.03387	30.142	
C	 0.0012984417	 1.6194908979	-0.0275020834	-0.417726
C	 0.0602161668	 0.0959947713	-0.0641176168	 0.038546
C	-1.3459008252	-0.5190479925	-0.2092887349	 0.169475
O	-2.3646481069	 0.1027829638	-0.1026799641	-0.230378
N	 0.8727077495	-0.4311188363	-1.1758459134	-0.265844
C	 1.7388454174	-1.2096252842	-0.650348795	 0.059915
N	 1.6943874649	-1.3262809873	 0.731969533	-0.336473
C	 0.6957718163	-0.4889591712	 1.225158934	 0.392192
O	 0.4197341357	-0.2918115056	 2.379221614	-0.347967
H	 1.007953922	 2.0392429786	 0.0382617068	 0.122676
H	-0.4808086232	 1.9941358945	-0.9321440565	 0.141944
H	-0.5777937014	 1.9380716296	 0.841258261	 0.154587
H	-1.3344432124	-1.6062577868	-0.436677228	 0.093349
H	 2.4857360427	-1.7605130691	-1.2128714607	 0.149938
H	 2.3477817122	-1.8241643228	 1.315960584	 0.275768
63.9464	89.783	173.139	195.5627	251.0514	282.7893	300.6447	455.1978	509.4701	526.2816	610.7265	679.7565	735.3516	750.4518	825.0967	905.4256	933.7132	952.1433	1013.813	1065.7678	1120.5053	1162.3674	1178.2721	1234.8067	1345.0327	1396.2147	1399.9134	1417.8077	1478.4245	1487.3837	1664.4742	1825.5218	1866.3872	2906.8741	3060.3563	3138.902	3152.1144	3196.3013	3645.6725
CC1(C=O)N=CNC1=O	C[C@@]1(C=O)N=CNC1=O	
InChI=1S/C5H6N2O2/c1-5(2-8)4(9)6-3-7-5/h2-3H,1H3,(H,6,7,9)	InChI=1S/C5H6N2O2/c1-5(2-8)4(9)6-3-7-5/h2-3H,1H3,(H,6,7,9)/t5-/m0/s1
