23
gdb 120301	3.3143	0.90619	0.83353	1.5535	86.51	-0.2267	0.0811	0.3078	1537.1979	0.204605	-388.260775	-388.250963	-388.250018	-388.295737	36.655	
C	-0.1299409702	 1.5529013965	-0.120450447	-0.378771
C	-0.2093789316	 0.0346892332	-0.2997809375	-0.154473
C	 0.9933780725	-0.5436169369	-1.0570992305	-0.212731
C	 0.9326114295	-2.0473399024	-1.2254430433	-0.072071
C	-0.0028750622	-2.7806545676	-2.181885411	-0.198762
C	-0.0473385947	-2.0531532638	-3.5178612744	-0.0981
O	 1.4017182018	-2.0140216349	-3.5950942959	-0.318697
C	 1.5027394307	-2.8001352577	-2.3922105262	 0.432324
C	 2.5560964583	-3.8589892124	-2.3623409236	-0.486762
H	 0.7661530654	 1.8392359275	 0.4416186469	 0.112765
H	-0.0865924826	 2.0637020262	-1.0889631037	 0.113849
H	-0.999439785	 1.9389218777	 0.42097653	 0.109207
H	-0.2860850454	-0.4475282496	 0.683989454	 0.090367
H	-1.1309333783	-0.2272515236	-0.8351658855	 0.096457
H	 1.0803647466	-0.0714579407	-2.0417441315	 0.112869
H	 1.917180681	-0.2861803734	-0.5209544097	 0.090883
H	 1.0395263116	-2.6068997505	-0.2962628682	 0.082422
H	-0.6806607463	-3.5628887367	-1.8655479442	 0.091622
H	-0.4570464982	-2.6623390064	-4.3317714188	 0.106542
H	-0.4943597011	-1.0521777984	-3.5508082468	 0.10159
H	 3.5542971627	-3.4074684991	-2.3996780309	 0.131441
H	 2.4849406075	-4.4435348213	-1.4405973068	 0.121954
H	 2.4594253079	-4.5361308356	-3.2168959452	 0.126076
65.3201	88.4507	114.1444	199.5782	223.1862	232.8399	265.5437	294.4904	307.6061	355.7379	536.5255	562.9583	664.2727	728.9286	763.1361	808.7559	880.0333	893.1232	901.1907	931.5435	957.1875	973.772	994.4946	1013.9357	1046.3816	1086.8628	1103.0363	1124.711	1131.084	1154.0144	1179.0016	1201.4645	1245.5942	1281.4281	1299.4869	1328.1555	1334.6802	1347.6933	1390.7025	1408.453	1413.0125	1473.3306	1479.4278	1487.6921	1497.0439	1498.6902	1502.3442	1512.3509	1522.8737	3012.5593	3018.0618	3020.5895	3028.194	3031.2377	3044.3007	3064.6422	3073.5629	3093.9685	3094.8338	3099.7036	3112.806	3118.1349	3192.5425
CCCC1C2COC12C	CCC[C@H]1[C@H]2CO[C@@]12C	
InChI=1S/C8H14O/c1-3-4-6-7-5-9-8(6,7)2/h6-7H,3-5H2,1-2H3	InChI=1S/C8H14O/c1-3-4-6-7-5-9-8(6,7)2/h6-7H,3-5H2,1-2H3/t6-,7+,8-/m0/s1
