16
gdb 45717	2.58175	1.46111	1.1633	2.9843	77.42	-0.2552	-0.0091	0.246	1088.2069	0.12391	-400.723519	-400.715321	-400.714377	-400.757167	30.67	
N	-0.1795960558	 1.0488771737	-0.925116127	-0.512445
C	-0.0330487228	 0.0815726011	-0.1232935338	 0.400362
C	-1.2309881482	-0.5832005854	 0.5189356067	-0.343632
C	-0.9863160174	-2.0284300412	 0.8503447489	-0.072552
C	 0.2367229227	-2.4424400459	 1.1544537207	-0.067945
C	 1.3835296093	-1.45894592	 1.1415270767	-0.109095
O	 1.2074204692	-0.4107352202	 0.1673740518	-0.25007
C	 1.6147544218	-0.8909654646	 2.4740568949	 0.343869
C	 1.797593705	-0.4351531036	 3.5707037898	-0.470307
H	 0.7318503411	 1.3794483769	-1.248479156	 0.220252
H	-1.473588378	-0.0345921846	 1.4411062588	 0.151525
H	-2.0812608173	-0.4432679455	-0.150489078	 0.146462
H	-1.8314927497	-2.7092494328	 0.8556965544	 0.110401
H	 0.4663531823	-3.4632100791	 1.4375799808	 0.114467
H	 2.2996930168	-1.9633519286	 0.8143128025	 0.131028
H	 1.9619398512	-0.0280299902	 4.5380416188	 0.207679
48.1134	61.6331	161.5808	234.1744	365.675	425.3555	446.9743	472.8537	534.5538	579.6223	619.152	629.0395	678.7119	705.9086	780.7779	863.4484	903.6055	931.6725	960.9874	976.3147	994.5223	1017.6632	1066.9719	1108.5798	1195.8554	1202.8111	1294.9731	1316.1633	1332.4994	1386.0037	1402.9344	1457.067	1729.4385	1751.1619	2233.4029	3008.5014	3046.1852	3116.9083	3177.21	3204.1143	3465.828	3501.0549
N=C1CC=CC(O1)C#C	[NH][C]1CC=C[C@@H](O1)C#C	
InChI=1S/C7H7NO/c1-2-6-4-3-5-7(8)9-6/h1,3-4,6,8H,5H2	InChI=1S/C7H7NO/c1-2-6-4-3-5-7(8)9-6/h1,3-4,6,8H,5H2/t6-/m0/s1
