16
gdb 16487	2.97866	2.57061	1.80902	2.169	63.13	-0.2338	0.0756	0.3094	772.309	0.130517	-383.675391	-383.668619	-383.667674	-383.705947	26.831	
C	 0.0099348547	 1.5084085812	 0.0730320369	-0.517105
C	 0.0423328202	 0.0143946526	-0.0340909136	 0.234922
C	-0.9229888058	-0.9264682607	 0.6957351737	 0.039716
O	-1.0260145871	-2.1483121857	-0.0526067903	-0.310008
C	 0.4227489742	-2.0459869624	-0.2288913536	 0.005262
C	 0.5396118803	-1.0418525965	 0.9647364728	-0.193863
C	 0.5399223019	-0.8474325198	-1.2060997877	 0.130274
O	-0.1950521505	-0.9074353826	-2.391671992	-0.447127
H	 1.0053846972	 1.9418322479	-0.0746867632	 0.124178
H	-0.6560854443	 1.9345746541	-0.6850549983	 0.13527
H	-0.3507627659	 1.8335467313	 1.0549856023	 0.119715
H	-1.760240194	-0.6114451591	 1.3047057478	 0.111615
H	 0.910884401	-3.0061926501	-0.3787985807	 0.088352
H	 1.1492733601	-0.988949694	 1.8549797581	 0.103485
H	 1.5804124307	-0.6187135637	-1.4525483277	 0.090058
H	-1.0333577226	-1.3243180624	-2.1470361845	 0.285256
182.3681	204.2676	228.9148	272.4118	364.8558	520.3188	558.9583	602.9079	682.0067	760.1645	776.9948	810.385	837.6233	889.5254	902.0157	931.1645	954.9289	973.8607	1030.508	1065.3861	1101.1737	1125.6569	1148.936	1162.4631	1201.9975	1232.0126	1280.3312	1293.8633	1307.4529	1408.8318	1426.4936	1442.2556	1486.4108	1498.6462	3026.0558	3086.551	3089.0682	3095.0646	3151.2427	3205.2261	3223.6849	3747.3538
CC12C3OC(C13)C2O	C[C@]12[C@H]3O[C@H]([C@@H]13)[C@H]2O	
InChI=1S/C6H8O2/c1-6-2-3(4(6)7)8-5(2)6/h2-5,7H,1H3	InChI=1S/C6H8O2/c1-6-2-3(4(6)7)8-5(2)6/h2-5,7H,1H3/t2-,3-,4-,5+,6+/m1/s1
