21
gdb 58318	2.54894	0.83568	0.74607	3.6294	79.89	-0.2488	0.0182	0.2671	1604.6413	0.180906	-420.410529	-420.399763	-420.398819	-420.447253	38.404	
C	 0.1259010543	 1.4831046852	-0.1877056757	-0.42205
C	 0.0278156192	-0.0058052362	 0.1340197926	 0.145317
O	 0.5635249653	-0.298228336	 1.4228961856	-0.444346
C	-1.4194750368	-0.5437456261	 0.0316155418	 0.054301
C	-1.4391939986	-2.0756985539	-0.0458250391	-0.417373
N	-2.1805874278	-0.0071955967	 1.1739645221	-0.314312
C	-3.6230490521	 0.0466671089	 0.9665415816	-0.265945
C	-4.2994343319	 0.5759939572	 2.1551890959	 0.254151
N	-4.8331815053	 0.9739571772	 3.0989234786	-0.296771
H	 1.1479847025	 1.8368643174	-0.0282077693	 0.124686
H	-0.1485079403	 1.6810663649	-1.2292386734	 0.112806
H	-0.5515098482	 2.0539581507	 0.45619149	 0.127791
H	 0.6524880165	-0.5729452465	-0.5661817631	 0.084394
H	 0.1696635972	 0.3362755312	 2.0331333911	 0.284903
H	-1.8708092166	-0.1266984923	-0.8779871098	 0.077151
H	-0.9564071859	-2.4292053358	-0.9627672065	 0.121078
H	-0.8928299579	-2.4954903838	 0.805012025	 0.137422
H	-2.4595582215	-2.4721130257	-0.0357286071	 0.111518
H	-1.9811933543	-0.5714563046	 1.9941622284	 0.231249
H	-3.8350425279	 0.7184899792	 0.1260152636	 0.157936
H	-4.0918030899	-0.9219392643	 0.7190713276	 0.136093
45.8234	67.3345	78.3037	122.2188	224.4846	239.505	248.1173	267.4408	305.1491	346.1304	389.8963	403.4777	452.6783	513.4965	532.3206	658.6282	780.5765	817.8371	907.4156	945.3545	950.9531	995.1087	1007.5918	1029.4632	1068.9234	1086.623	1120.225	1168.5677	1187.3957	1253.7379	1295.6268	1325.7372	1339.8616	1370.5338	1394.8468	1403.0477	1404.2559	1426.1697	1480.8934	1489.5561	1490.564	1496.3125	1504.1146	1505.6336	2368.0196	2952.9423	3026.4246	3033.6658	3036.278	3044.2754	3053.1153	3102.2596	3106.2691	3111.6626	3120.6781	3519.0425	3791.8153
CC(O)C(C)NCC#N	C[C@@H](O)[C@@H](C)NCC#N	
InChI=1S/C6H12N2O/c1-5(6(2)9)8-4-3-7/h5-6,8-9H,4H2,1-2H3	InChI=1S/C6H12N2O/c1-5(6(2)9)8-4-3-7/h5-6,8-9H,4H2,1-2H3/t5-,6-/m1/s1
