19
gdb 38943	3.07176	1.81368	1.56867	0.8376	73.11	-0.2435	0.0813	0.3248	910.3289	0.163612	-423.007697	-423.001414	-423.00047	-423.038015	26.871	
C	 0.0148707639	 1.5981065374	 0.1080796377	-0.224774
C	 1.5399515642	 1.8095955548	 0.0353988608	 0.053022
O	 1.9946660562	 0.846690579	 1.0418014438	-0.300602
C	 1.5756110064	-0.1378878891	 0.0600395554	 0.062741
C	 2.0459669011	 0.817291837	-1.0572091638	-0.016614
C	 1.4333450005	 0.658414287	-2.4426424302	-0.124334
O	 0.0242529263	 0.4949661414	-2.4381539128	-0.242412
C	-0.4432326909	-0.3926492756	-1.4349035809	-0.09913
C	 0.0364806482	 0.0432370024	-0.0441778283	-0.045017
H	-0.3593561148	 1.9197238182	 1.0817250457	 0.104402
H	-0.5416375207	 2.0983084806	-0.6857791263	 0.113575
H	 1.9467416812	 2.8126230185	 0.1634135793	 0.077731
H	 1.9776125009	-1.1392702553	 0.217618844	 0.076434
H	 3.1363050448	 0.8482283856	-1.1110380007	 0.086811
H	 1.6331239288	 1.5320726336	-3.0723692753	 0.112419
H	 1.9128085149	-0.2116784828	-2.9251756696	 0.092713
H	-1.5346539661	-0.367898759	-1.5054019416	 0.112305
H	-0.1169256391	-1.4263932336	-1.6461837711	 0.086792
H	-0.5064724256	-0.4849875801	 0.7424318941	 0.073936
219.9546	266.5447	347.1092	361.9774	436.3612	513.7708	584.1749	710.0164	730.1102	806.6775	815.2916	825.7658	870.4384	884.5206	902.8442	943.1128	963.8802	990.4159	1010.7414	1037.7015	1063.7525	1081.9777	1093.46	1131.51	1161.4603	1175.8817	1205.9436	1226.6842	1260.755	1273.3941	1287.5704	1296.1514	1314.2438	1329.633	1340.4755	1366.9888	1391.1404	1422.0238	1480.2389	1493.8909	1504.3707	2949.6614	2955.1377	3066.4784	3077.3774	3079.9756	3091.2588	3095.7856	3116.6188	3125.1193	3136.897
C1C2OC3C2COCC13	C1[C@H]2O[C@@H]3[C@H]2COC[C@H]13	
InChI=1S/C7H10O2/c1-4-2-8-3-5-6(1)9-7(4)5/h4-7H,1-3H2	InChI=1S/C7H10O2/c1-4-2-8-3-5-6(1)9-7(4)5/h4-7H,1-3H2/t4-,5-,6+,7-/m0/s1
