17
gdb 18031	3.93047	2.05979	1.45372	3.6733	68.82	-0.2405	0.0294	0.2699	859.2873	0.145609	-363.863054	-363.856603	-363.855659	-363.893513	25.387	
C	 0.0553095228	 1.5178158737	-0.1427534668	-0.13286
O	 1.4950877299	 1.4239084774	 0.1488184517	-0.269811
C	 1.3145053413	 0.1383007373	 0.605045977	 0.440858
N	 2.018231641	-0.520094395	 1.4035824642	-0.302336
C	 1.3603620684	-1.7294122651	 1.923486724	-0.14753
C	-0.0984302553	-2.0083262656	 1.4592129811	-0.211493
C	-0.9117227427	-0.7262409363	 1.1607783565	-0.24356
C	-0.0940275812	-0.0033006174	 0.0959431775	-0.125418
H	-0.4349141403	 2.1614601509	 0.5936678872	 0.123096
H	-0.1226525304	 1.8855737076	-1.15518271	 0.121334
H	 1.9855160151	-2.6002703048	 1.6947880022	 0.111648
H	 1.380641585	-1.629638301	 3.016504452	 0.113494
H	-0.0823445887	-2.6158644065	 0.5457773434	 0.103883
H	-0.5977837311	-2.612551162	 2.2232550434	 0.10177
H	-1.9248323829	-0.975441002	 0.8313761836	 0.101147
H	-0.9980387511	-0.1051215964	 2.0607099183	 0.108418
H	-0.1401222195	-0.5398049248	-0.8569035552	 0.107361
141.3542	238.144	265.7437	334.757	410.1012	469.3468	576.3246	658.7731	729.4383	777.0502	858.4268	861.7781	893.3243	946.9065	966.4963	975.6721	1024.0096	1090.9425	1104.6361	1146.1235	1153.3384	1170.6679	1184.7246	1229.8618	1246.6516	1287.3241	1321.9278	1354.9643	1364.4053	1373.797	1385.1962	1486.5854	1493.1082	1502.4797	1513.7744	1830.0765	3020.8127	3026.1499	3034.882	3054.159	3057.645	3060.2612	3080.6885	3088.0947	3124.0814
C1OC2=NCCCC12	C1O[C]2[N]CCC[C@@H]12	
InChI=1S/C6H9NO/c1-2-5-4-8-6(5)7-3-1/h5H,1-4H2	InChI=1S/C6H9NO/c1-2-5-4-8-6(5)7-3-1/h5H,1-4H2/t5-/m0/s1
