17
gdb 7097	7.69879	0.89432	0.81332	1.0984	71.95	-0.2635	0.0315	0.295	1387.7217	0.139738	-363.84278	-363.833555	-363.832611	-363.877327	32.363	
C	 0.0796458267	 1.5473237553	 0.1986868218	-0.390109
C	-0.0045000156	 0.0457795439	-0.0002074216	-0.029244
O	 0.65965294	-0.5755361402	 1.113166089	-0.246856
C	 0.693142795	-1.9208380299	 1.1195979407	 0.412027
N	 0.1729641457	-2.620290094	 0.2030661773	-0.527326
C	 1.4354963472	-2.3814972923	 2.3723801937	-0.456424
C	 1.5400235536	-3.8261096245	 2.4967277264	 0.294438
C	 1.6172369242	-5.0219869107	 2.5837210929	-0.426256
H	 1.1211403118	 1.8795112991	 0.2353085074	 0.126605
H	-0.4164593737	 2.0597666538	-0.6308993405	 0.121549
H	-0.4092259618	 1.8467181498	 1.1302275269	 0.126609
H	-1.0399213757	-0.308053032	-0.0389419838	 0.121026
H	 0.4804193554	-0.2755840672	-0.9277548772	 0.121071
H	 0.3089156494	-3.6110943933	 0.3981378371	 0.232255
H	 2.4316353502	-1.9219612236	 2.3628787588	 0.158443
H	 0.9237704755	-1.9552071165	 3.2441421686	 0.158445
H	 1.6917858121	-6.0777745577	 2.6714191824	 0.203747
43.0764	87.4203	118.4825	133.1684	206.8198	252.9595	332.4903	358.2625	398.4224	454.0243	553.1771	626.0998	663.2722	699.0521	807.6141	879.1738	880.5973	913.909	969.0983	995.6221	1050.7806	1127.6566	1137.8802	1184.0975	1213.4107	1288.5121	1291.1743	1368.8297	1406.8987	1432.5575	1451.5072	1485.5389	1496.7471	1521.3566	1738.1385	2245.0792	3033.1303	3045.0053	3049.1527	3062.6965	3085.3901	3119.6503	3123.4344	3501.4012	3505.0581
CCOC(=N)CC#C	CCO[C]([NH])CC#C	
InChI=1S/C6H9NO/c1-3-5-6(7)8-4-2/h1,7H,4-5H2,2H3	InChI=1S/C6H9NO/c1-3-5-6(7)8-4-2/h1,7H,4-5H2,2H3
