19
gdb 126468	2.87239	1.24637	0.93789	3.5787	79.22	-0.2063	0.0203	0.2266	1285.448	0.158557	-419.222268	-419.212521	-419.211577	-419.257214	35.057	
C	 0.1144952429	 1.5335006107	 0.1129800926	-0.377739
C	-0.0918789346	 0.0243099951	-0.0976731527	-0.293222
C	 0.6919858012	-0.5187956226	-1.2550485897	 0.34339
N	 0.0608009069	-0.855928323	-2.3558800697	-0.240061
O	 1.0723218539	-1.3042396479	-3.2360591697	-0.220739
C	 2.2512332603	-1.2202279019	-2.609116034	 0.39564
N	 3.3470659512	-1.6877346978	-3.3033271208	-0.595498
C	 2.1020597476	-0.7288055767	-1.3407628682	 0.005534
C	 3.1601425171	-0.5073053787	-0.305488101	-0.527259
H	 1.1637231456	 1.7719136694	 0.3136643463	 0.11901
H	-0.1923859074	 2.092457894	-0.7758167489	 0.131118
H	-0.4781739883	 1.8884168228	 0.9615352055	 0.116036
H	 0.1916546038	-0.515618039	 0.8144338802	 0.107351
H	-1.1501338243	-0.1856262373	-0.2778676913	 0.127207
H	 3.1864006174	-1.7704583354	-4.297744949	 0.264835
H	 4.2082177722	-1.2025753938	-3.0980207515	 0.261844
H	 3.5466919097	 0.5202224947	-0.2996494693	 0.126721
H	 2.7782558075	-0.7101282371	 0.7003967484	 0.13307
H	 4.0126435074	-1.1769799854	-0.4635033871	 0.122762
56.2188	90.5708	118.1338	189.0819	207.6238	238.0198	254.7092	289.8843	311.7998	430.0765	491.8753	571.2819	617.9057	685.9078	696.3906	740.779	784.941	798.1036	910.2028	960.1893	979.3348	1062.8125	1070.9721	1075.5216	1094.2983	1155.9062	1264.0332	1281.6644	1346.5457	1374.5729	1407.2482	1422.2803	1474.0183	1477.2868	1490.5518	1497.3691	1501.6799	1515.0976	1542.3521	1637.2779	1691.3847	3013.89	3031.3833	3039.6321	3067.347	3087.0884	3094.4446	3110.9391	3117.8845	3564.7617	3665.3785
CCC1=NOC(N)=C1C	CCc1noc(N)c1C	
InChI=1S/C6H10N2O/c1-3-5-4(2)6(7)9-8-5/h3,7H2,1-2H3	InChI=1S/C6H10N2O/c1-3-5-4(2)6(7)9-8-5/h3,7H2,1-2H3
