14
gdb 30613	4.55966	1.02307	0.83994	4.1126	66.81	-0.2611	-0.0635	0.1976	1267.4912	0.100574	-473.854628	-473.846531	-473.845587	-473.888191	28.163	
O	 0.0781720862	 1.358133618	 0.008912456	-0.394587
C	-0.0072832576	-0.0402264196	 0.0022369182	-0.181252
C	-1.4771741321	-0.4468846711	 0.0115471868	 0.277451
O	-2.3886045227	 0.3485700195	 0.0226436279	-0.289899
C	-1.7488361657	-1.8920489072	 0.0067290804	 0.238272
C	-2.9021342767	-2.6180683346	 0.0122631033	-0.152607
N	-2.60053025	-3.9662136564	 0.003268711	-0.251987
C	-1.304283967	-3.9985845206	-0.0070708326	 0.077686
O	-0.7059985404	-2.7920462	-0.0058214094	-0.176327
H	 1.0089640495	 1.5989425088	-0.0008758804	 0.295456
H	 0.4615830076	-0.4977855348	-0.8858989864	 0.118026
H	 0.4753007932	-0.506966878	 0.8782090024	 0.118015
H	-3.9156103098	-2.2516686153	 0.0220224242	 0.159299
H	-0.6581388146	-4.8627054887	-0.0163755014	 0.162454
72.871	90.9706	141.278	190.0094	230.4247	286.0999	373.8524	484.6711	540.0435	660.7098	677.5295	756.4024	858.4698	910.4087	925.3654	944.5063	1013.4917	1032.0657	1124.1481	1143.6292	1152.1304	1219.254	1248.5584	1249.9645	1287.4386	1345.0258	1445.609	1489.0834	1514.5651	1608.9497	1793.733	2958.9309	2980.8729	3275.5443	3282.003	3838.1174
OCC(=O)C1=CN=CO1	OCC(=O)c1cnco1	
InChI=1S/C5H5NO3/c7-2-4(8)5-1-6-3-9-5/h1,3,7H,2H2	InChI=1S/C5H5NO3/c7-2-4(8)5-1-6-3-9-5/h1,3,7H,2H2
