19
gdb 53294	2.77668	0.88166	0.73112	2.1145	86.27	-0.2406	0.0305	0.2711	1610.535	0.157174	-385.830985	-385.821301	-385.820357	-385.867283	34.216	
C	 0.2145912308	 1.5616892513	 0.1203519046	-0.5016
C	 0.1008383914	 0.1126672522	 0.055550263	 0.108237
C	 0.0045465367	-1.08743675	 0.0102418715	 0.090584
C	-0.0671517767	-2.5211865981	-0.0661438229	-0.186534
O	-0.5772374429	-3.2311018902	 1.0804409867	-0.252731
C	-1.3517859999	-3.2583603328	-0.1182022678	 0.077439
C	-2.6772700502	-2.5835856183	-0.1039130468	-0.015151
C	-3.6346315366	-2.8218675952	-1.2486935646	-0.268352
C	-3.926264244	-3.4070947598	 0.1064417536	-0.266746
H	 1.2567577551	 1.8830477347	 0.0172644311	 0.152291
H	-0.3636547027	 2.0439692004	-0.6755175566	 0.150469
H	-0.1568818242	 1.9419697996	 1.0782185466	 0.154684
H	 0.8008507335	-2.9997052271	-0.5210110687	 0.106976
H	-1.3357709678	-4.2235823715	-0.6318579855	 0.086986
H	-2.6634565645	-1.5891899918	 0.3281894279	 0.100167
H	-4.228050119	-1.9832841805	-1.5942682001	 0.116724
H	-3.3234325659	-3.4987574159	-2.0379062621	 0.113091
H	-3.8106750085	-4.4784254985	 0.2337223581	 0.11637
H	-4.7233704846	-2.9733251186	 0.6994142219	 0.117095
36.3967	55.4319	74.9614	127.8468	188.8563	236.836	292.6751	331.0263	384.6833	461.0099	528.6605	579.5499	728.9154	774.3333	827.9402	837.4254	871.4445	902.9037	933.3506	978.5181	1049.7255	1052.909	1057.5508	1067.3088	1079.7775	1112.8375	1131.0684	1187.3061	1198.9408	1212.0516	1224.3373	1285.0083	1327.356	1398.1183	1413.4459	1470.5421	1475.8084	1477.101	1477.5265	1509.5065	2368.4699	3028.2878	3069.9087	3089.3156	3091.7126	3100.4304	3132.2786	3136.858	3175.2386	3211.214	3226.5156
CC#CC1OC1C1CC1	CC#C[C@H]1O[C@H]1C1CC1	
InChI=1S/C8H10O/c1-2-3-7-8(9-7)6-4-5-6/h6-8H,4-5H2,1H3	InChI=1S/C8H10O/c1-2-3-7-8(9-7)6-4-5-6/h6-8H,4-5H2,1H3/t7-,8+/m1/s1
