17
gdb 93455	2.89486	1.42745	0.99777	0.7251	72.54	-0.2584	-0.0207	0.2377	1156.7631	0.137022	-455.194078	-455.185829	-455.184885	-455.227198	30.891	
C	-0.1610184317	 1.5074845612	-0.03883419	-0.40118
C	 0.0480787964	 0.0019391585	-0.0066632322	 0.003708
O	 0.7598375763	-0.381105566	-1.1710534811	-0.249663
C	 1.0066993561	-1.7687517459	-1.2245671663	-0.144246
C	 1.8551814603	-2.2392771491	-0.0606986183	 0.379777
N	 2.6397655777	-3.2285118684	-0.1955542931	-0.508636
N	 1.6464076158	-1.5046576206	 1.1072663596	-0.380188
C	 0.782981622	-0.4318882043	 1.26777519	 0.405857
O	 0.6270441379	 0.0954047902	 2.3460584992	-0.349702
H	 0.8020115744	 2.019631996	-0.1120943502	 0.135247
H	-0.7689686629	 1.778492652	-0.9045996045	 0.126829
H	-0.6594503411	 1.8299361093	 0.8762346755	 0.147672
H	-0.9320668847	-0.5101205175	 0.0141272592	 0.101112
H	 0.0605219553	-2.3370044367	-1.2263754763	 0.116535
H	 1.5369317174	-1.9821943359	-2.1525237832	 0.150904
H	 3.1154491056	-3.4662427448	 0.6776735755	 0.212349
H	 2.1517012551	-1.7687879379	 1.9447806261	 0.253626
63.3589	125.0919	200.1424	234.8624	280.0759	362.395	381.0603	433.1652	487.4257	530.7016	569.4152	639.6669	681.2319	731.7235	813.7921	878.4298	890.6181	920.2418	1037.3325	1049.0964	1102.4174	1129.5441	1150.6199	1165.1032	1263.9889	1293.1597	1346.475	1355.158	1383.7342	1400.4231	1405.0282	1416.5341	1478.6857	1483.2698	1497.3612	1747.6367	1810.3717	2935.4697	2964.624	3060.2382	3134.7399	3140.0314	3155.9928	3446.2218	3569.0529
CC1OCC(=N)NC1=O	C[C@H]1OC[C]([NH])NC1=O	
InChI=1S/C5H8N2O2/c1-3-5(8)7-4(6)2-9-3/h3H,2H2,1H3,(H2,6,7,8)	InChI=1S/C5H8N2O2/c1-3-5(8)7-4(6)2-9-3/h3H,2H2,1H3,(H2,6,7,8)/t3-/m1/s1
