16
gdb 19557	4.10017	1.72051	1.58507	1.7643	63.81	-0.2334	0.073	0.3064	852.4044	0.130925	-383.660292	-383.653445	-383.652501	-383.691494	26.273	
O	 0.2099447921	 1.3719540557	-0.157752588	-0.409999
C	 0.0753664999	-0.0195833453	 0.0921266632	-0.216561
C	-1.3434901487	-0.4739597782	 0.1107097565	 0.278585
C	-2.0192947413	-1.844950781	 0.0233225893	-0.175845
C	-2.8488819312	-1.568630394	 1.2778333427	-0.23086
C	-2.6402901107	-0.073974317	 0.9259578126	 0.022057
O	-3.392032544	 0.0962347526	-0.3104883713	-0.292371
C	-2.3892363275	-0.6993186821	-0.9357847542	 0.028605
H	-0.2968547935	 1.5715601844	-0.9521443541	 0.285594
H	 0.6318923213	-0.6232650585	-0.6448522907	 0.09114
H	 0.5514956987	-0.1891466804	 1.0648185125	 0.115169
H	-1.5891082025	-2.7766963692	-0.3221997152	 0.093783
H	-3.8853058837	-1.9171376132	 1.3209940076	 0.103138
H	-2.3076835743	-1.851168531	 2.1842435004	 0.106072
H	-2.7763153213	 0.7405793964	 1.6334267474	 0.094428
H	-2.3537178536	-0.7574030191	-2.0163240989	 0.107066
99.2025	127.9738	243.6757	325.095	395.3795	484.7497	543.727	629.9956	748.7579	781.954	819.0348	868.5196	910.4892	918.4796	956.2862	966.5235	990.1364	1026.1351	1039.0479	1053.4343	1081.7951	1120.6649	1134.1577	1159.8328	1220.7072	1228.8481	1238.4331	1272.6212	1317.7809	1360.7985	1419.3512	1453.8358	1488.8137	1496.9235	2961.551	3051.6576	3056.1298	3115.1025	3153.5279	3194.3469	3204.4476	3809.35
OCC12C3CC1OC23	OC[C@@]12[C@H]3C[C@@H]1O[C@@H]23	
InChI=1S/C6H8O2/c7-2-6-3-1-4(6)8-5(3)6/h3-5,7H,1-2H2	InChI=1S/C6H8O2/c7-2-6-3-1-4(6)8-5(3)6/h3-5,7H,1-2H2/t3-,4-,5+,6+/m0/s1
