21
gdb 60296	5.52095	0.49034	0.46581	1.4878	102.71	-0.2388	-0.0075	0.2313	2351.5834	0.179285	-349.916138	-349.905239	-349.904295	-349.952833	39.351	
C	-0.040828965	 1.5496176429	-0.0152169292	-0.39698
C	 0.0180509943	 0.0167787783	 0.0399895226	 0.046393
C	 0.8845819145	-0.4466676831	 1.2198260294	-0.38533
C	-1.4060057561	-0.5646847763	 0.0861976931	-0.1607
C	-1.4658941286	-2.1022495711	-0.0538917422	-0.412399
C	-2.8272334964	-2.6127934625	-0.0891300925	 0.33705
C	-3.9682731145	-3.0164370278	-0.1160137031	-0.188977
C	-5.2507098131	-3.4705502266	-0.1464950235	 0.288116
C	-6.3888694609	-3.8738408994	-0.1735487946	-0.558502
H	 0.96272481	 1.9810064269	-0.0891376227	 0.111699
H	-0.6212254985	 1.8969083777	-0.8762336353	 0.112719
H	-0.5104078261	 1.9556599381	 0.888703004	 0.114788
H	 0.4922381456	-0.3348369932	-0.888415991	 0.072689
H	 0.4374673483	-0.1429954637	 2.174134696	 0.114941
H	 1.0133080142	-1.5329820412	 1.242086499	 0.114278
H	 1.8835330307	-0.0017976478	 1.166322575	 0.113795
H	-1.893676878	-0.2735037188	 1.0250576892	 0.107598
H	-2.0025931184	-0.1239411527	-0.7203992715	 0.108105
H	-0.9416060931	-2.4051529315	-0.9709385094	 0.134334
H	-0.9280635253	-2.5793849285	 0.7745954593	 0.138799
H	-7.3894237136	-4.2273764497	-0.1972250124	 0.187584
42.4129	61.3419	101.8139	156.9761	182.4766	222.6919	243.2824	249.0672	341.8406	355.9046	404.9232	424.2058	481.4117	532.468	534.2585	588.9387	592.9093	730.2398	764.0646	836.4025	927.3495	935.1906	962.9118	977.6811	1024.1109	1132.4537	1140.8399	1179.3018	1193.4868	1231.739	1283.3615	1315.3297	1349.1996	1370.3289	1385.7682	1401.7294	1422.8007	1465.9109	1485.1779	1490.1625	1498.0183	1505.6263	1510.8876	2181.3711	2363.587	2993.4282	3011.6856	3024.6124	3028.1668	3034.011	3046.6952	3076.7101	3090.016	3096.3989	3101.1965	3105.3241	3507.027
CC(C)CCC#CC#C	CC(C)CCC#CC#C	
InChI=1S/C9H12/c1-4-5-6-7-8-9(2)3/h1,9H,7-8H2,2-3H3	InChI=1S/C9H12/c1-4-5-6-7-8-9(2)3/h1,9H,7-8H2,2-3H3
