18
gdb 81570	3.44901	1.16822	0.9876	2.8524	73.08	-0.2377	0.0129	0.2506	1222.4898	0.146678	-439.046297	-439.037459	-439.036514	-439.080775	32.743	
C	 0.0468336641	 1.7210965991	 0.0949924591	-0.437967
C	-0.0255146929	 0.2096178961	-0.0077951275	 0.031233
C	 1.1453505618	-0.5485552006	-0.6932505961	 0.011085
O	 2.024355779	-0.2084334599	 0.4460542672	-0.315524
C	 0.7350978581	-0.6520749792	 1.0413815723	 0.023409
C	 0.7681101894	-1.8608496319	 0.06973103	-0.093164
C	-0.4659521403	-2.6852196615	-0.2600104663	 0.387387
N	-0.1719928959	-3.9025767956	-0.8037374013	-0.526821
O	-1.6147938765	-2.3283934962	-0.0677585978	-0.365256
H	 1.0562588726	 2.0487646344	 0.3511887348	 0.134722
H	-0.2420596846	 2.1864080471	-0.8537431537	 0.114534
H	-0.6456698542	 2.0876790678	 0.8602819376	 0.11789
H	-1.0213479212	-0.1606550045	-0.2486491166	 0.120131
H	 1.5617410885	-0.4481779564	-1.6971268368	 0.093098
H	 0.6610148595	-0.6629156175	 2.1292119035	 0.097742
H	 1.6517378203	-2.4834421681	 0.2281244006	 0.083353
H	 0.769240295	-4.2041354017	-0.9821277958	 0.26196
H	-0.9358551328	-4.4980726015	-1.0792483632	 0.262187
22.4742	152.9751	168.5697	180.5177	220.1382	287.9864	303.4199	382.7875	434.2221	573.7547	636.1915	673.3656	711.5791	738.3325	790.3929	811.1654	882.2813	908.4213	920.0767	1000.5353	1021.8879	1061.5471	1075.4279	1088.4852	1131.0015	1144.9064	1153.2202	1197.8393	1221.8829	1246.6055	1257.7683	1299.766	1394.7043	1414.0358	1426.7605	1493.8548	1505.8362	1616.3544	1783.3541	3037.0422	3086.3573	3093.2491	3103.3487	3117.4473	3125.8751	3141.4355	3603.1008	3742.0742
CC1C2OC1C2C(N)=O	C[C@H]1[C@H]2O[C@@H]1[C@H]2C(=O)N	
InChI=1S/C6H9NO2/c1-2-4-3(6(7)8)5(2)9-4/h2-5H,1H3,(H2,7,8)	InChI=1S/C6H9NO2/c1-2-4-3(6(7)8)5(2)9-4/h2-5H,1H3,(H2,7,8)/t2-,3-,4+,5-
