17
gdb 37638	2.91898	2.24121	2.04154	2.347	68.25	-0.2386	0.0842	0.3229	780.7937	0.140278	-421.803106	-421.797568	-421.796624	-421.832677	24.373	
C	 0.0170105544	 1.5616558899	 0.1265853023	-0.07649
O	 1.2847162493	 2.1217839253	-0.2440401969	-0.26813
C	 2.297757887	 1.1375188537	-0.2190119503	 0.165177
O	 2.2150036671	 0.3845864014	 0.9877558321	-0.252381
C	 1.2691274771	-0.6281228222	 0.6479557334	 0.056892
C	 1.7235560409	-1.2149378684	-0.7046031834	-0.098026
C	 0.6570767864	-0.3934039605	-1.4061001166	-0.082912
C	 2.0934642826	 0.097154327	-1.3359504591	-0.080786
C	 0.0377487173	 0.048319904	-0.0769416894	-0.095148
H	-0.1961846349	 1.8032262841	 1.1775131661	 0.101663
H	-0.7470685404	 2.0415343505	-0.4953319959	 0.104095
H	 3.2496923052	 1.668391892	-0.2489791749	 0.088844
H	 1.0865949948	-1.2655222946	 1.5104710554	 0.082541
H	 2.1613481174	-2.1768888158	-0.9318258432	 0.093799
H	 0.1453662361	-0.5759151491	-2.3427208542	 0.089473
H	 2.6840001075	 0.1399834222	-2.2409238971	 0.095206
H	-0.9189035378	-0.4211441197	 0.1591993416	 0.076184
238.1916	392.0502	410.3112	565.4644	595.0651	654.4184	698.0948	742.3832	784.9583	812.7936	823.1734	867.4069	900.6035	916.8672	931.3833	943.5481	976.2361	985.3552	999.2662	1036.5168	1054.2863	1067.2652	1076.1293	1111.5554	1136.0588	1177.4685	1214.8865	1240.7331	1269.3324	1290.6812	1293.8315	1323.1081	1340.4573	1367.4172	1388.4759	1409.1913	1509.1112	3002.3504	3057.0264	3095.6789	3116.2196	3144.5289	3189.2925	3207.1823	3218.7836
C1OC2OC3C4C(C24)C13	C1O[C@H]2O[C@@H]3[C@H]4[C@H]([C@@H]24)[C@H]13	
InChI=1S/C7H8O2/c1-2-3-4-5(3)7(8-1)9-6(2)4/h2-7H,1H2	InChI=1S/C7H8O2/c1-2-3-4-5(3)7(8-1)9-6(2)4/h2-7H,1H2/t2-,3+,4-,5+,6-,7-/m0/s1
