20
gdb 73585	2.17826	2.01837	1.47765	0.8235	76.52	-0.2255	0.0737	0.2992	984.727	0.172794	-403.107005	-403.099376	-403.098432	-403.138682	31.326	
O	 0.1008079525	 1.4049781874	-0.1015115281	-0.492298
C	 0.0143625234	-0.0001084552	-0.0210434835	 0.438809
C	-1.3927694412	-0.4405767725	-0.4341631736	-0.262647
C	-1.766820798	-1.6404005499	 0.4753479582	-0.226037
C	-0.8427308506	-1.5624695205	 1.7279464905	-0.236485
C	 0.3403258041	-0.6657688245	 1.3447106926	-0.032717
N	 1.6309258359	-1.2733935038	 0.8081966657	-0.148966
C	 1.2922125372	-2.1703092642	-0.3094592448	-0.250271
C	 1.2654412039	-0.7179063436	-0.5642100812	-0.124087
H	 0.9865283369	 1.6682771914	 0.1725417616	 0.28103
H	-2.0578376945	 0.4089276804	-0.2495043217	 0.11638
H	-1.4632309591	-0.6843823281	-1.4979438848	 0.103141
H	-2.8234171569	-1.6122672845	 0.7563222154	 0.09962
H	-1.6242359984	-2.5861203486	-0.0557552614	 0.108496
H	-1.3795311619	-1.0980198249	 2.5613095041	 0.107988
H	-0.5230275736	-2.5507446337	 2.0728722235	 0.110426
H	 0.6137692724	 0.0408002154	 2.1311638681	 0.079144
H	 2.1601793322	-2.714128165	-0.6728116923	 0.121956
H	 0.3850052579	-2.7624191176	-0.2897753419	 0.116727
H	 2.0017732579	-0.2252499178	-1.1948656963	 0.089792
114.6903	182.9759	274.646	286.7763	349.0311	363.8621	430.7662	489.9265	586.4454	632.1152	670.6205	730.0817	734.9646	777.1225	841.4354	869.8347	899.8307	940.8496	972.7598	984.422	1017.9838	1048.0438	1057.5575	1097.2007	1108.5387	1117.7018	1130.4403	1154.5024	1178.2436	1215.4321	1230.8871	1245.7517	1264.7079	1312.6491	1315.8454	1329.1275	1345.2645	1375.9185	1395.576	1477.0978	1480.5744	1498.7126	1523.4038	3046.1881	3051.2628	3056.3585	3077.5939	3084.039	3094.2934	3105.792	3125.8746	3139.4666	3214.1327	3798.5184
OC12CCCC1N1CC21	O[C@]12CCC[C@H]1N1C[C@@H]21	
InChI=1S/C7H11NO/c9-7-3-1-2-5(7)8-4-6(7)8/h5-6,9H,1-4H2	InChI=1S/C7H11NO/c9-7-3-1-2-5(7)8-4-6(7)8/h5-6,9H,1-4H2/t5-,6+,7-,8?/m1/s1
