21
gdb 66251	3.61907	1.13165	1.07044	1.3069	77.76	-0.2439	0.0693	0.3132	1223.5968	0.183252	-424.215497	-424.20681	-424.205866	-424.249038	33.678	
O	 0.0892000582	 1.2703599708	-0.269656674	-0.486994
C	-0.0424706723	-0.142966029	-0.1283894769	 0.38865
C	 0.8438582018	-0.8691050192	-1.1790860738	-0.287624
C	 2.1945841105	-1.0576320794	-0.4421260553	-0.090676
O	 2.0375499855	-0.4590117595	 0.8508942302	-0.266775
C	 0.6566506731	-0.5770373692	 1.169756435	-0.134557
C	-1.5104234521	-0.4932059256	-0.1966692449	-0.028365
C	-2.5496346864	 0.4075090389	 0.4229491507	-0.273757
C	-2.4555265026	 0.2837946061	-1.0773836904	-0.272171
H	 0.9903058814	 1.4868471196	-0.0016120472	 0.28458
H	 0.4095479463	-1.8318677938	-1.4615303338	 0.102254
H	 0.9257929584	-0.2565449875	-2.0784067142	 0.117186
H	 2.4402209563	-2.1234943877	-0.3306026411	 0.0979
H	 3.0385192354	-0.5645020806	-0.9314280761	 0.110999
H	 0.4365325363	 0.0825178098	 2.0116880735	 0.11595
H	 0.3939169126	-1.6135049426	 1.4390900155	 0.08303
H	-1.6918938757	-1.561913249	-0.1221445753	 0.077363
H	-3.3881624003	-0.0548374166	 0.9318013524	 0.104206
H	-2.1998444757	 1.3344375744	 0.8606996049	 0.125256
H	-2.0469367841	 1.1298884666	-1.6162125612	 0.129169
H	-3.2291017766	-0.2646952265	-1.6032998982	 0.104376
75.7309	79.8172	176.772	203.0812	261.2335	359.0759	374.8288	411.5975	429.8262	491.831	627.6389	700.4076	789.2581	808.3978	813.5498	825.8128	895.9572	915.7013	934.7417	953.7412	981.4345	985.3871	1040.7356	1061.3731	1074.0552	1086.6802	1106.2712	1136.4176	1150.7483	1184.8618	1204.6985	1226.2626	1230.5256	1254.3513	1270.4067	1281.8638	1322.6759	1365.0024	1389.7574	1449.6535	1458.1702	1481.8957	1499.7005	1502.2782	1524.5032	2970.285	2999.2081	3068.4233	3087.2092	3111.989	3125.3564	3139.1215	3139.5228	3146.34	3225.4207	3238.8057	3788.0651
OC1(CCOC1)C1CC1	O[C@]1(CCOC1)C1CC1	
InChI=1S/C7H12O2/c8-7(6-1-2-6)3-4-9-5-7/h6,8H,1-5H2	InChI=1S/C7H12O2/c8-7(6-1-2-6)3-4-9-5-7/h6,8H,1-5H2/t7-/m0/s1
