17
gdb 34462	3.63447	1.47691	1.25044	3.6201	76.56	-0.2429	0.0249	0.2678	1003.5761	0.139152	-380.845792	-380.83898	-380.838036	-380.876872	27.452	
N	 0.08546919	-1.0613587906	-0.0577939966	-0.345252
C	 0.0349569981	 0.0946456806	-0.0244926331	 0.188225
C	-0.0393715209	 1.5238290404	 0.0220463525	 0.203483
C	-1.2158632181	 2.2099023531	 0.7259673352	-0.322413
C	-1.3723953277	 3.507838182	-0.1228137783	-0.167992
N	-0.0882271824	 3.7031176374	-0.824233781	-0.124064
C	 1.0337706429	 3.7537795419	 0.1893135778	-0.197479
C	 1.3079247046	 2.2778640036	-0.0507221077	-0.115078
C	 0.3522380701	 2.336177799	-1.2046654033	-0.066706
H	-2.1086486122	 1.5807498258	 0.7003093532	 0.126266
H	-0.9921554539	 2.420421937	 1.775751863	 0.119236
H	-2.1571933857	 3.3812791561	-0.87514489	 0.11861
H	-1.6129357398	 4.390457159	 0.4754493378	 0.114927
H	 1.8410735898	 4.3944320667	-0.1744519644	 0.125662
H	 0.739962968	 4.0768850454	 1.193705904	 0.109322
H	 2.2460245595	 1.7448368855	 0.0394068495	 0.115836
H	 0.3840074177	 1.971575027	-2.2226026486	 0.117417
147.4343	160.6697	263.8209	380.3282	416.529	495.8683	544.4538	559.4196	646.1837	695.9365	764.0417	825.9606	861.5989	880.205	910.2994	925.2042	949.7041	977.4875	1013.4423	1028.2685	1068.7634	1097.3388	1102.0792	1161.7446	1190.5638	1213.324	1231.8048	1246.2605	1254.531	1297.6134	1313.3666	1341.5915	1373.5969	1490.8021	1499.2538	1518.9279	2347.3699	3043.0611	3055.4054	3062.7375	3099.7426	3101.6051	3116.7337	3194.4577	3211.3542
N#CC12CCN3CC1C23	N#C[C@@]12CCN3C[C@@H]1[C@@H]23	
InChI=1S/C7H8N2/c8-4-7-1-2-9-3-5(7)6(7)9/h5-6H,1-3H2	InChI=1S/C7H8N2/c8-4-7-1-2-9-3-5(7)6(7)9/h5-6H,1-3H2/t5-,6+,7+/m1/s1
