19
gdb 35859	2.11761	1.76006	1.16955	1.5866	80.25	-0.255	0.0359	0.2909	1107.7771	0.159052	-385.841685	-385.833234	-385.83229	-385.875736	32.535	
C	-0.0914735289	-1.2182983606	 0.0493994116	-0.489976
C	-0.0373956859	-0.0172024822	 0.030923558	 0.37176
C	 0.0162080368	 1.4499474164	 0.004843193	-0.168923
O	-0.6104633133	 2.0112477028	 1.157879018	-0.241171
C	 0.4070932209	 2.1965574721	 2.1376015204	-0.087178
C	 1.6059843835	 2.7359861936	 1.3497424511	-0.302642
C	 1.4608788306	 2.0172477732	 0.0061227995	 0.348054
C	 2.5995067051	 1.2777752349	-0.6399541566	-0.315137
C	 2.0802704849	 2.5535868726	-1.2562295967	-0.312631
H	-0.1479410312	-2.278731237	 0.0681054025	 0.198245
H	-0.5515038503	 1.808959865	-0.860981138	 0.109786
H	 0.0173688381	 2.8858606424	 2.8899462448	 0.11111
H	 0.6516683355	 1.2412762272	 2.6262220122	 0.101655
H	 1.5132550124	 3.8196457328	 1.2219706848	 0.109573
H	 2.5613431914	 2.5302226652	 1.84002553	 0.104562
H	 3.5646099967	 1.3016675594	-0.1441452754	 0.111388
H	 2.3752971007	 0.3393824034	-1.1355646056	 0.125611
H	 1.5112603716	 2.4792222345	-2.1780363774	 0.114253
H	 2.6880601115	 3.4500132045	-1.1808375764	 0.11166
19.0896	145.3712	158.0806	260.1531	296.2875	315.3611	388.1777	461.2175	520.3341	575.7762	620.613	644.4695	666.8789	777.4841	805.5585	852.6149	901.9916	924.8514	940.024	961.982	978.2886	996.4442	1009.2672	1062.0001	1084.0251	1085.2092	1121.9244	1190.5413	1201.8399	1238.4145	1266.3212	1280.3257	1307.8477	1349.0217	1363.1082	1389.5104	1469.0217	1490.4242	1504.1636	1514.2011	2228.0542	2992.6286	3041.5577	3045.276	3095.0541	3107.0233	3119.0488	3129.7234	3199.2863	3218.7181	3501.3392
C#CC1OCCC11CC1	C#C[C@H]1OCCC21CC2	
InChI=1S/C8H10O/c1-2-7-8(3-4-8)5-6-9-7/h1,7H,3-6H2	InChI=1S/C8H10O/c1-2-7-8(3-4-8)5-6-9-7/h1,7H,3-6H2/t7-/m1/s1
