22
gdb 59529	4.10518	0.91045	0.81232	2.2693	84.33	-0.2151	0.0779	0.293	1488.0991	0.192332	-404.303477	-404.294002	-404.293058	-404.337683	35.898	
C	 0.9388535962	-0.417561923	-1.1765197536	-0.386997
C	 0.0614112009	-0.009394669	 0.0097271821	 0.075239
C	-0.0040559618	 1.5137685734	 0.1489556112	-0.386998
N	-1.2812640843	-0.5452038351	-0.1647120915	-0.076068
C	-2.2587439116	-0.3855378013	 0.9396835117	-0.255772
C	-2.6990248591	-1.827721439	 0.6953773124	 0.431796
C	-3.4901225592	-2.7595541479	 1.4902964347	-0.266552
O	-4.0035876747	-2.1793156887	 0.2796491252	-0.264035
C	-1.4619518711	-2.0175321599	-0.1804360709	-0.255773
H	 1.95537865	-0.032675925	-1.0509355381	 0.111161
H	 1.0047552316	-1.5055656544	-1.2736875015	 0.114821
H	 0.5269702404	-0.0176880049	-2.1086752963	 0.123091
H	 0.5198031502	-0.4206762943	 0.9350736966	 0.043198
H	-0.4380969115	 1.9590099503	-0.7520604473	 0.123092
H	-0.6161135896	 1.8144259984	 1.0048322479	 0.11482
H	 0.9980684114	 1.9281538376	 0.2947744043	 0.111161
H	-1.7943227676	-0.2470442354	 1.9301338266	 0.089596
H	-3.0154424827	 0.3898435517	 0.783149784	 0.11686
H	-3.2809383472	-3.8278821103	 1.4436068678	 0.115452
H	-3.9678278997	-2.4209919064	 2.4092282717	 0.115452
H	-1.6260782844	-2.4558638168	-1.1700016087	 0.11686
H	-0.6596269161	-2.5711233099	 0.3349967818	 0.089597
71.6417	97.2579	163.8735	224.2159	238.4835	282.6991	297.0339	318.7156	364.9178	386.092	448.3304	482.3513	564.5209	705.3968	826.3325	868.3392	881.6466	927.9546	929.7239	951.5501	957.016	975.1645	1062.8668	1070.55	1104.3491	1118.7961	1126.6004	1158.4234	1166.9006	1187.3552	1196.5575	1199.4946	1234.0645	1285.4435	1316.6789	1366.8554	1376.6941	1399.4255	1417.8299	1457.4107	1484.0487	1486.5245	1489.3149	1497.35	1509.2075	1514.886	1547.6652	2861.3838	2960.6226	2970.0447	3035.3717	3039.6455	3068.1235	3068.8731	3077.4502	3107.0526	3109.2946	3109.8118	3115.63	3162.2647
CC(C)N1CC2(CO2)C1	CC(C)N1CC2(CO2)C1	
InChI=1S/C7H13NO/c1-6(2)8-3-7(4-8)5-9-7/h6H,3-5H2,1-2H3	InChI=1S/C7H13NO/c1-6(2)8-3-7(4-8)5-9-7/h6H,3-5H2,1-2H3
