20
gdb 118890	3.33664	1.05837	0.96986	0.7657	75.83	-0.2295	0.0743	0.3039	1307.5123	0.170042	-440.221009	-440.211926	-440.210982	-440.254967	34.252	
C	 0.0035001717	 1.3722955604	 0.0464083799	-0.224262
O	-0.0597750785	-0.0298981088	-0.069690406	-0.258314
C	 0.6956869116	-0.540681085	-1.1575179372	-0.121454
C	 0.5921095648	-2.0544543468	-1.0730335321	 0.431163
O	 1.0395517712	-2.5009518043	 0.1883273997	-0.500492
C	-0.778615056	-2.7160200633	-1.5066487535	-0.280112
C	-0.0066025711	-3.5004048122	-2.5718102375	-0.039151
N	 0.6234083674	-2.4848664829	-3.4524140519	-0.342865
C	 1.2793862021	-2.8692035586	-2.1760430137	-0.116356
H	 1.0360769733	 1.7212865001	 0.202870871	 0.107326
H	-0.39549288	 1.8707916814	-0.8499194321	 0.110231
H	-0.6025355465	 1.6584595179	 0.9096425626	 0.127216
H	 0.3094101006	-0.1769966896	-2.1179562286	 0.113192
H	 1.7510037673	-0.2340657923	-1.0643023874	 0.085361
H	 0.6523320566	-1.8893346333	 0.8282800654	 0.284558
H	-1.1484132659	-3.3439800965	-0.694878434	 0.109398
H	-1.5682384304	-2.0583769005	-1.8774832044	 0.099155
H	-0.2006836714	-4.5010044783	-2.9374737295	 0.092399
H	 1.1117113177	-2.9878603375	-4.1930147909	 0.229688
H	 2.2878377655	-3.26288524	-2.1443571099	 0.093319
75.2398	108.2978	132.6955	193.0332	231.6962	289.853	353.3628	381.7225	438.6448	441.9523	475.9789	531.2135	695.6083	790.4939	820.8383	846.6445	893.5581	933.4304	948.2346	975.6815	988.7825	1007.8562	1062.5088	1087.4858	1093.969	1141.6775	1155.3161	1163.1472	1191.3479	1214.4626	1223.0021	1249.6152	1267.7382	1291.2075	1316.9349	1365.6974	1394.1399	1441.8559	1466.3406	1479.6535	1485.6264	1501.7309	1523.6171	2966.2259	2978.8709	3024.7603	3049.8034	3070.1016	3113.3316	3139.242	3185.4727	3199.2417	3471.7615	3769.2409
COCC1(O)CC2NC12	COC[C@@]1(O)C[C@H]2N[C@@H]12	
InChI=1S/C6H11NO2/c1-9-3-6(8)2-4-5(6)7-4/h4-5,7-8H,2-3H2,1H3	InChI=1S/C6H11NO2/c1-9-3-6(8)2-4-5(6)7-4/h4-5,7-8H,2-3H2,1H3/t4-,5-,6+/m1/s1
