18
gdb 53472	2.79578	0.89931	0.73039	2.8081	81.61	-0.246	-0.0278	0.2181	1567.2436	0.14569	-401.917329	-401.907293	-401.906349	-401.955086	34.053	
C	 0.6303679481	 0.6313148896	 1.148291189	-0.496761
C	 0.1566665891	-0.4321963576	 0.274249446	 0.063392
C	-0.2336430947	-1.3068107107	-0.4553503793	 0.05874
C	-0.7235397818	-2.3681291542	-1.3246387786	-0.449296
C	-1.5966770757	-3.4162478851	-0.6212045796	 0.389658
O	-2.5685309121	-3.8884602844	-1.170993454	-0.332318
C	-1.1804406018	-3.8640773263	 0.7414688952	-0.08941
C	-2.2636750449	-3.9101917833	 1.7784641929	-0.216472
N	-1.7280604452	-5.1420913374	 1.2206709023	-0.306678
H	 1.7204662991	 0.6060971059	 1.2533187112	 0.150708
H	 0.3570349633	 1.6169218718	 0.7560214108	 0.152534
H	 0.1978859456	 0.5429808161	 2.1509399556	 0.150761
H	-1.3068342359	-1.973977794	-2.1625539223	 0.154444
H	 0.1242797209	-2.9156347236	-1.7644802715	 0.154496
H	-0.1673027924	-3.6306653473	 1.0501783075	 0.108589
H	-1.9994408428	-3.7063640392	 2.8119434617	 0.12736
H	-3.2521061845	-3.5827248508	 1.4685600109	 0.132579
H	-2.3682022142	-5.4743717395	 0.4977825424	 0.247676
20.3824	36.2869	56.1112	104.1239	202.24	220.9297	254.1164	294.1243	363.7204	384.3248	457.121	555.87	679.9686	762.2564	810.0657	852.9821	890.7296	918.7658	982.2266	1011.8286	1051.9979	1053.6373	1107.0468	1127.0734	1140.1679	1168.9232	1181.626	1225.0452	1288.2808	1303.1535	1320.9441	1400.7461	1415.6343	1444.6372	1477.3282	1478.5211	1497.5683	1788.1414	2373.8352	3001.2251	3028.9311	3081.8355	3090.2322	3091.015	3113.7317	3174.5619	3207.8472	3458.8745
CC#CCC(=O)C1CN1	CC#CCC(=O)[C@H]1CN1	
InChI=1S/C7H9NO/c1-2-3-4-7(9)6-5-8-6/h6,8H,4-5H2,1H3	InChI=1S/C7H9NO/c1-2-3-4-7(9)6-5-8-6/h6,8H,4-5H2,1H3/t6-/m1/s1
