18
gdb 80078	2.47569	1.92968	1.5714	3.2037	76.23	-0.2137	0.0093	0.2229	925.1999	0.151015	-401.917382	-401.910586	-401.909642	-401.948238	28.627	
O	 0.2547310914	 1.3619018524	-0.0651919075	-0.422449
C	 0.0491692438	 0.0014129423	-0.0025916254	 0.10959
C	-0.4501709736	-0.7218177882	 1.2565144047	-0.159706
C	-0.8959930302	 0.0330131804	 2.4388026426	-0.03824
C	-1.9998532196	 0.7896300479	 2.482278332	-0.077271
C	-2.9226418295	 0.900533467	 1.3309637787	-0.067757
N	-2.4505869977	 1.6576896433	 0.1380160807	-0.364183
C	-2.5757599311	 0.1819174389	 0.0694532463	-0.046527
C	-1.3179411506	-0.6338015502	-0.0111642319	-0.118521
H	-0.620488569	 1.7912030637	 0.0151425115	 0.307531
H	 0.8251242606	-0.5396908118	-0.5388551059	 0.09996
H	 0.03535627	-1.6709270964	 1.4650188741	 0.085229
H	-0.2668564959	-0.0367537364	 3.322393958	 0.095589
H	-2.2612943461	 1.3268717107	 3.3886428259	 0.08953
H	-3.9765281498	 1.0190128967	 1.5694272639	 0.090995
H	-3.2286575952	 2.1049612203	-0.3374954201	 0.237116
H	-3.4058010553	-0.203829036	-0.5147991141	 0.092388
H	-1.4288643823	-1.5477112646	-0.5848432434	 0.086727
134.2771	233.5671	312.1949	371.7872	446.5893	517.3028	532.6116	617.1572	665.5984	690.462	717.908	762.1176	781.8017	812.5183	821.9631	895.9068	899.3668	938.3887	959.717	985.4681	990.2121	1044.9642	1064.2705	1092.3259	1118.5067	1137.8262	1146.6172	1192.5962	1209.5788	1251.1349	1272.4849	1344.8317	1374.8314	1383.9199	1400.9523	1435.6208	1453.6854	1516.2081	1693.3683	3130.6865	3136.1312	3141.2144	3148.3027	3156.8292	3166.5869	3180.4094	3492.7533	3514.5732
OC1C2C=CC3NC3C12	O[C@H]1[C@H]2C=C[C@H]3N[C@H]3[C@@H]12	
InChI=1S/C7H9NO/c9-7-3-1-2-4-6(8-4)5(3)7/h1-9H	InChI=1S/C7H9NO/c9-7-3-1-2-4-6(8-4)5(3)7/h1-9H/t3-,4+,5-,6+,7-/m0/s1
