16
gdb 45773	3.44845	1.21565	0.93862	3.5865	75.97	-0.2204	-0.0089	0.2115	1199.0937	0.123596	-400.755758	-400.74725	-400.746306	-400.789481	31.537	
O	-0.1159919104	 0.0083144914	 0.017023532	-0.355526
C	-0.0743350695	 1.2147183867	 0.0015333147	 0.410899
N	-1.1692702626	 2.0640796264	-0.0411884486	-0.323383
C	-0.7775064891	 3.4085686987	-0.0056738946	-0.021973
C	 0.5531953225	 3.5241633613	 0.0356792026	-0.164968
C	 1.1632784445	 2.1433011038	 0.0365484437	-0.162456
C	 2.0812743927	 1.8614141532	 1.2555734873	-0.365862
C	 2.8084331247	 0.6013754444	 1.1771087494	 0.32911
C	 3.4407442865	-0.4174305585	 1.1060549179	-0.443999
H	-2.1164474781	 1.7245688789	-0.0295160969	 0.261832
H	-1.5329821266	 4.1812315439	-0.0260043062	 0.13241
H	 1.1123991479	 4.4472721596	 0.0581023507	 0.108729
H	 1.7445112639	 1.9566302917	-0.8752341554	 0.129144
H	 2.7999259386	 2.6867697671	 1.3330555572	 0.132357
H	 1.4798547017	 1.8949767491	 2.1720361659	 0.138079
H	 3.9753353933	-1.3325877778	 1.0450439404	 0.195605
50.0174	90.6646	146.3131	219.3491	265.3305	339.2531	426.986	477.2971	484.4373	547.7607	618.0346	644.7943	677.4026	695.2776	731.0755	783.577	841.8082	911.1164	962.1001	973.0654	1012.1415	1062.3432	1087.8244	1140.8995	1189.2716	1192.824	1237.0902	1310.5679	1343.3968	1373.9156	1412.0824	1469.9928	1668.6263	1839.6443	2243.3851	3024.8436	3036.1496	3061.0395	3231.3925	3255.0615	3508.1824	3666.085
O=C1NC=CC1CC#C	O=C1NC=C[C@H]1CC#C	
InChI=1S/C7H7NO/c1-2-3-6-4-5-8-7(6)9/h1,4-6H,3H2,(H,8,9)	InChI=1S/C7H7NO/c1-2-3-6-4-5-8-7(6)9/h1,4-6H,3H2,(H,8,9)/t6-/m1/s1
