15
gdb 31385	3.09136	1.2578	0.90259	3.6608	72.33	-0.2379	-0.0312	0.2067	1211.5318	0.113956	-453.966328	-453.958495	-453.957551	-453.99916	28.81	
O	 0.5426052068	 0.5509777796	-0.8665171966	-0.395322
C	-0.1556209388	 0.3198723944	 0.3325182151	-0.15055
C	-1.4772457504	-0.3690783225	 0.1232283151	 0.315589
C	-1.9515057005	-0.8838637593	-1.0158175622	-0.230493
C	-3.2701387458	-1.5070519854	-1.0482760547	 0.338262
N	-3.7581607076	-1.9932813196	-2.1229931159	-0.521429
N	-3.9694876112	-1.5367061161	 0.1905260484	-0.308351
C	-3.422503162	-1.0252032965	 1.2117421425	 0.120152
O	-2.206351817	-0.420224564	 1.2884928058	-0.227596
H	 0.0404443546	 1.1863577772	-1.3881416907	 0.294672
H	 0.4888599605	-0.3152735166	 0.9523396464	 0.146361
H	-0.3317805997	 1.2418105064	 0.9094041011	 0.119333
H	-1.3551048822	-0.8503648868	-1.9169831772	 0.132317
H	-4.6832052834	-2.3786513468	-1.9202922572	 0.220566
H	-3.9047638232	-1.019225624	 2.1852817702	 0.146488
86.1748	134.7348	167.2015	188.1835	336.7689	399.5607	438.3041	466.8155	529.7664	546.636	611.4162	755.2501	787.9614	890.6593	898.3828	929.1899	941.44	972.1679	997.1108	1073.4812	1107.6046	1163.0251	1179.8721	1210.7591	1262.3039	1369.5592	1398.3182	1416.5255	1427.3536	1486.7578	1661.6731	1701.6945	1746.701	2985.1382	3057.6781	3185.575	3237.516	3459.7234	3812.0992
OCC1=CC(=N)N=CO1	OC[C@@H]1C=C([NH])N=CO1	
InChI=1S/C5H6N2O2/c6-5-1-4(2-8)9-3-7-5/h1,3,6,8H,2H2	InChI=1S/C5H7N2O2/c6-5-1-4(2-8)9-3-7-5/h1,3-4,6,8H,2H2/t4-/m0/s1
