16
gdb 86876	3.02491	1.22981	0.98251	2.1861	66.25	-0.268	-0.0496	0.2184	1171.996	0.123501	-475.044303	-475.035935	-475.034991	-475.07806	30.419	
O	 0.5290158453	 0.650481047	 0.7360546132	-0.436088
C	 0.0161438544	-0.3437658714	-0.1035229428	 0.066642
C	-1.4999666147	-0.2661226687	-0.3212161325	-0.270009
C	-1.6424614209	-0.9052825788	-1.7098074146	-0.00884
O	-0.4036080426	-0.6435824739	-2.4103431885	-0.244351
C	 0.5442101725	-0.2332281939	-1.5227499159	 0.394364
N	 1.6900498528	 0.2128638401	-1.7954329873	-0.559299
C	-1.8801369829	-2.4131614727	-1.6814065536	 0.136781
O	-2.587102571	-2.9589129449	-0.8772277077	-0.228124
H	 1.375303192	 0.9139165204	 0.3450308729	 0.29933
H	 0.2782900295	-1.3495189089	 0.2714072049	 0.104121
H	-2.089454547	-0.805002236	 0.4207178481	 0.145395
H	-1.8046327394	 0.7831820568	-0.3376581025	 0.129693
H	-2.4488892606	-0.4586042534	-2.3031024488	 0.131737
H	 1.8703027804	 0.2512884554	-2.798206645	 0.234742
H	-1.3499404279	-2.966564637	-2.4869604498	 0.103908
60.1553	93.2669	118.7763	228.8229	279.0289	366.1077	381.986	408.9269	465.555	568.8525	594.8546	685.9403	724.6332	816.9038	838.9819	880.6989	949.6653	976.0777	1006.0004	1070.1617	1082.3948	1090.1233	1157.5997	1185.8004	1248.4542	1276.4142	1279.383	1326.4438	1347.6148	1391.4817	1401.7493	1432.7673	1492.4422	1790.224	1837.3548	2905.1235	2943.6703	3048.3761	3083.1224	3148.1366	3499.3445	3727.2588
OC1CC(OC1=N)C=O	O[C@H]1C[C@@H](O[C]1[NH])C=O	
InChI=1S/C5H7NO3/c6-5-4(8)1-3(2-7)9-5/h2-4,6,8H,1H2	InChI=1S/C5H7NO3/c6-5-4(8)1-3(2-7)9-5/h2-4,6,8H,1H2/t3-,4+/m1/s1
