21
gdb 120165	3.31039	1.00231	0.90157	1.7891	80.04	-0.2493	0.086	0.3353	1400.0224	0.181549	-424.173646	-424.164503	-424.163559	-424.208001	34.627	
C	 0.0808376245	 1.503954915	-0.0204021615	-0.386465
C	-0.1434682999	 0.0182051374	-0.2428591207	-0.041456
O	 0.9608695658	-0.5017656947	-0.9649799367	-0.27788
C	 0.9053021118	-1.8831868599	-1.1722366819	 0.111438
C	 0.1132297714	-2.4747691444	-2.3842230579	-0.109367
C	 1.1605662821	-1.8109952353	-3.3236751351	-0.290905
C	 1.9729477311	-2.4501921279	-2.1441459595	 0.36631
O	 3.3396661076	-2.4994295821	-1.9622409907	-0.473066
C	 1.072892712	-3.6979475797	-2.2799802884	-0.26225
H	 1.0019391165	 1.6727315432	 0.5447737758	 0.125777
H	 0.1650609327	 2.0276046644	-0.9769885692	 0.126459
H	-0.7543830089	 1.9358648148	 0.5389397141	 0.116057
H	-0.2405451573	-0.5077797882	 0.7212193006	 0.089201
H	-1.0777903728	-0.1533930695	-0.8000441415	 0.092064
H	 0.7819369537	-2.4202602495	-0.2199570738	 0.060746
H	-0.9646200615	-2.5074118878	-2.5209160821	 0.078603
H	 1.2949332244	-2.2757314409	-4.3033755784	 0.090055
H	 1.147877312	-0.7226748182	-3.3778098651	 0.102492
H	 3.6462862097	-1.6019511217	-1.7897416454	 0.288767
H	 0.9765653235	-4.3359049264	-1.3968696815	 0.092849
H	 1.1988716315	-4.2825988485	-3.1930024411	 0.100571
64.6609	75.3044	122.7889	230.9665	245.2845	296.6961	322.1084	346.6575	396.4023	477.0911	570.7039	626.1649	664.7526	760.2674	816.1294	825.6686	904.2883	913.3029	934.3252	952.5813	966.2918	1024.8656	1037.0244	1067.3042	1088.814	1116.48	1133.3535	1154.1687	1165.1536	1171.5518	1189.705	1201.5047	1226.5101	1237.8769	1296.552	1306.1325	1379.8961	1386.6025	1406.1616	1442.7647	1483.7257	1489.9978	1500.0577	1527.3804	1540.4143	2966.2725	2996.3539	2997.9861	3044.5817	3057.8206	3070.4427	3119.2929	3120.8339	3129.4087	3147.9175	3150.2111	3803.1463
CCOC1C2CC1(O)C2	CCO[C@H]1[C@H]2C[C@]1(O)C2	
InChI=1S/C7H12O2/c1-2-9-6-5-3-7(6,8)4-5/h5-6,8H,2-4H2,1H3	InChI=1S/C7H12O2/c1-2-9-6-5-3-7(6,8)4-5/h5-6,8H,2-4H2,1H3/t5-,6-,7-/m0/s1
