19
gdb 105741	2.72192	1.27856	1.14507	3.2525	77.44	-0.2408	-0.0393	0.2015	1157.5207	0.159169	-423.045301	-423.036562	-423.035618	-423.078977	32.648	
O	 0.1844736915	 1.3697904814	 0.0560544978	-0.429437
C	 0.0886691545	-0.037912636	 0.0244085735	-0.116569
C	-1.3691550031	-0.5368356669	 0.0098541476	 0.147571
C	-1.4924680041	-2.0902786831	 0.0947082363	-0.290502
C	-2.6552531678	-2.3897073672	 1.0793683677	-0.259366
C	-2.8639909439	-1.0685914701	 1.7770783136	-0.068471
C	-2.1735848327	-0.0777254529	 1.216260591	-0.101101
C	-2.0888424636	-0.0288055237	-1.2323097637	 0.138643
O	-1.675153745	 0.8249711611	-1.9819318755	-0.27733
H	-0.1947850401	 1.6726762044	-0.7795540212	 0.295287
H	 0.6222620532	-0.4623492966	-0.841532568	 0.091374
H	 0.5803497043	-0.4100529556	 0.9296265783	 0.106154
H	-1.6434555141	-2.552834895	-0.8853137367	 0.107339
H	-0.5511642846	-2.4867457877	 0.4881731839	 0.116898
H	-3.566662981	-2.7073507476	 0.5556797654	 0.113426
H	-2.4109123394	-3.1996242761	 1.7760453365	 0.112502
H	-3.5118080975	-0.9607645072	 2.6404396016	 0.103353
H	-2.1593824222	 0.9591520594	 1.5274432947	 0.119917
H	-3.0806509445	-0.5012537008	-1.4117709928	 0.090311
77.8445	91.4023	145.0072	210.4095	254.129	271.4171	335.4516	421.5987	441.9287	511.9675	587.092	691.5341	750.8521	766.4401	819.6953	839.6265	911.9309	931.1462	966.6961	972.1229	991.5359	1019.7874	1074.2729	1092.3782	1116.257	1146.8266	1158.7516	1219.6554	1233.7823	1280.1382	1310.9006	1321.6681	1366.6067	1388.5487	1425.9143	1444.5457	1482.0128	1496.6709	1501.6344	1677.7533	1799.5692	2882.2268	2973.8982	3019.6507	3047.6823	3057.1924	3068.3397	3092.1862	3189.417	3225.7028	3763.2009
OCC1(CCC=C1)C=O	OC[C@]1(CCC=C1)C=O	
InChI=1S/C7H10O2/c8-5-7(6-9)3-1-2-4-7/h1,3,5,9H,2,4,6H2	InChI=1S/C7H10O2/c8-5-7(6-9)3-1-2-4-7/h1,3,5,9H,2,4,6H2/t7-/m1/s1
