16
gdb 124136	3.78312	0.98307	0.78803	5.3035	85.38	-0.2336	-0.0248	0.2088	1417.6164	0.124132	-396.915453	-396.906307	-396.905363	-396.952317	30.869	
C	-0.0659563933	 1.4771122989	 0.0259196103	-0.507628
C	-0.0163147828	 0.0248542979	-0.0080927905	 0.116979
C	 0.0355384099	-1.1806669402	-0.0372475574	 0.015136
C	 0.0901586749	-2.5857049899	-0.0708265268	 0.236779
C	 1.1364141068	-3.4876965258	-0.1782265155	-0.2247
N	 0.637251481	-4.7460434126	-0.1619262589	-0.180084
N	-0.6621479856	-4.6867878741	-0.0504732741	-0.142273
N	-1.0117189479	-3.3896439562	 0.0059973706	-0.05355
C	-2.4026643187	-3.0064889626	 0.1321550143	-0.333368
H	 0.5710138408	 1.8762769812	 0.8229579731	 0.159095
H	 0.275132121	 1.9084050402	-0.9217939967	 0.158615
H	-1.0864811214	 1.8318679781	 0.2056572654	 0.155888
H	 2.1915816566	-3.2864357814	-0.263623988	 0.126305
H	-2.5608010924	-2.4373011075	 1.0518357443	 0.15156
H	-2.7101244557	-2.3963067563	-0.7210122862	 0.151618
H	-2.9872121032	-3.9254743697	 0.1602159563	 0.169626
7.3217	80.221	85.21	113.2033	216.9925	265.5953	288.5773	375.4321	475.2548	477.4253	543.3864	691.4494	714.3202	727.1541	850.5894	965.4241	1005.9214	1035.0527	1048.948	1052.3785	1146.4262	1153.3044	1228.88	1276.2649	1304.5401	1353.115	1412.4952	1432.2709	1464.1558	1472.2756	1475.2125	1481.1039	1502.8039	1576.8733	2357.6597	3027.9143	3054.5718	3089.0672	3093.4553	3120.8465	3168.8298	3275.7884
CC#CC1=CN=NN1C	CC#Cc1cnnn1C	
InChI=1S/C6H7N3/c1-3-4-6-5-7-8-9(6)2/h5H,1-2H3	InChI=1S/C6H7N3/c1-3-4-6-5-7-8-9(6)2/h5H,1-2H3
