20
gdb 46790	2.77459	1.57243	1.23757	3.7612	78.4	-0.2339	0.0247	0.2586	1063.9569	0.174791	-403.181226	-403.173766	-403.172822	-403.213046	30.406	
O	 0.111176551	-0.0778517318	-0.0208869974	-0.364074
C	 0.0170175055	 1.136610968	 0.0015193063	 0.365317
C	-1.3384434873	 1.8214663029	 0.1835207521	-0.301533
C	-1.4797941831	 2.968647267	 1.2050240958	-0.222147
C	-0.4465730849	 4.102259363	 1.1011198591	-0.001761
C	 0.1556450133	 4.2795691524	-0.32432904	-0.23398
C	 1.3109945853	 3.3278178211	 0.0966035698	 0.018734
C	 0.9728680132	 3.6773060404	 1.577020227	-0.227136
N	 1.1170837644	 1.9271080632	-0.2452305971	-0.294922
H	-1.6370821	 2.1848947618	-0.807565153	 0.125041
H	-2.0312607695	 1.0170773305	 0.4374643963	 0.12642
H	-2.485875717	 3.3848001834	 1.0770706052	 0.102899
H	-1.4478210756	 2.5591109145	 2.222456184	 0.108354
H	-0.8478643901	 5.0049080568	 1.5690716223	 0.068532
H	-0.4419409645	 4.0019782364	-1.1945944361	 0.103826
H	 0.5386044059	 5.2922832797	-0.473501734	 0.103581
H	 2.3071002293	 3.5994000895	-0.2574729232	 0.079947
H	 1.557040878	 4.5294369426	 1.9353458696	 0.100076
H	 1.0446709498	 2.8609823198	 2.3013607605	 0.101181
H	 1.9574469664	 1.3707836887	-0.3206364772	 0.241642
88.4167	169.4746	311.7444	324.135	341.4873	429.6364	461.4694	495.1528	544.0682	639.4097	681.7811	752.2906	782.7709	803.413	837.3057	862.5549	914.6184	920.6887	959.1633	981.1442	1039.6415	1068.1685	1088.6813	1100.3949	1142.5011	1155.8685	1190.5254	1210.8285	1241.443	1255.4502	1278.6985	1288.2872	1324.9815	1348.0014	1369.5704	1386.4408	1407.5075	1461.2819	1468.5005	1481.5915	1490.3092	1505.5864	1775.3796	3024.0823	3035.3077	3050.8722	3060.9883	3064.6696	3074.6665	3089.3525	3110.6272	3115.31	3122.6888	3595.5446
O=C1CCC2CC(C2)N1	O=C1CC[C@@H]2C[C@@H](C2)N1	
InChI=1S/C7H11NO/c9-7-2-1-5-3-6(4-5)8-7/h5-6H,1-4H2,(H,8,9)	InChI=1S/C7H11NO/c9-7-2-1-5-3-6(4-5)8-7/h5-6H,1-4H2,(H,8,9)/t5-,6+
