17
gdb 42773	2.51622	1.94996	1.60974	3.4339	71.99	-0.2386	-0.0102	0.2284	901.557	0.137643	-421.771197	-421.764441	-421.763497	-421.802137	27.377	
O	 0.0147860816	 0.0247303867	 0.0819267303	-0.330621
C	-0.020125275	 1.2161596199	 0.0114200711	 0.440784
C	-1.0811888768	 2.3219976051	 0.0371978145	-0.148831
C	-0.0337853289	 3.0333915803	 1.0147882093	-0.353292
C	 1.0079353007	 2.350687923	 0.0676336332	 0.140219
C	 2.3979174188	 2.1024691355	-0.5295957305	-0.214444
O	 1.8139085078	 2.3060798066	-1.8618119513	-0.309312
C	 0.7316525019	 3.0594169981	-1.2440023021	 0.152196
C	-0.8066889599	 2.8884989283	-1.398750617	-0.288519
H	-2.1095997281	 2.145242655	 0.3444148761	 0.093946
H	-0.017251685	 4.1248236655	 1.0187477082	 0.118181
H	-0.1053779279	 2.6389036778	 2.0291697145	 0.128159
H	 3.158803518	 2.8614126939	-0.3125472994	 0.110627
H	 2.8036851784	 1.0946468972	-0.4119819025	 0.133379
H	 1.0100177148	 4.1222593068	-1.2346952343	 0.079847
H	-1.101195361	 2.170205309	-2.1687528463	 0.136663
H	-1.3061081693	 3.8390893013	-1.5990282738	 0.111018
152.3786	190.7019	262.8143	372.9337	384.7624	474.8679	556.8644	607.3227	677.1658	720.9374	778.3359	818.7777	851.6813	885.6093	893.7558	927.3446	980.8602	984.1281	1016.5586	1035.7025	1056.8927	1069.5148	1120.816	1149.3283	1166.4873	1197.235	1201.8199	1231.6403	1239.7166	1295.7106	1307.3342	1324.504	1392.908	1485.88	1497.7341	1502.7908	1904.0267	2999.5452	3032.8181	3066.4473	3077.4279	3109.3599	3117.3299	3145.9603	3151.6937
O=C1C2CC11COC1C2	O=C1[C@H]2C[C@]31CO[C@H]3C2	
InChI=1S/C7H8O2/c8-6-4-1-5-7(6,2-4)3-9-5/h4-5H,1-3H2	InChI=1S/C7H8O2/c8-6-4-1-5-7(6,2-4)3-9-5/h4-5H,1-3H2/t4-,5+,7+/m1/s1
