16
gdb 36476	2.86769	1.09423	0.85005	4.3592	73.42	-0.2686	-0.0066	0.262	1294.4881	0.125465	-396.929605	-396.921104	-396.92016	-396.963582	30.224	
N	-0.0978716325	-1.1262508528	-0.255896194	-0.298322
C	-0.0934175664	 0.0285569743	-0.2177530279	 0.263126
C	-0.0520833246	 1.4882607215	-0.1659677049	-0.360776
C	 1.3628032645	 1.9965066572	 0.1424422002	-0.021131
C	 2.3571488401	 1.8789971381	-1.0425225382	-0.176256
N	 2.0503982325	 3.2852937469	-1.3974661299	-0.299701
C	 1.5382831741	 3.5420839892	-0.0375420394	-0.14797
C	 0.3543992556	 4.3989750388	 0.0459882903	 0.302613
N	-0.5919231768	 5.0569743197	 0.1315959537	-0.322861
H	-0.3931492989	 1.8895027821	-1.1265558038	 0.17841
H	-0.7594029531	 1.8385728126	 0.5937523725	 0.170554
H	 1.7069845096	 1.6074331237	 1.1003449738	 0.112117
H	 3.3855677085	 1.7062433967	-0.7000346737	 0.110734
H	 2.1154932881	 1.1527387235	-1.824041265	 0.132402
H	 2.8275163775	 3.8663728449	-1.691038297	 0.236345
H	 2.2870319719	 3.9239294136	 0.6711069933	 0.120716
71.166	97.5123	119.0856	156.8436	234.1734	331.4364	360.2723	400.2336	518.547	550.1588	572.1815	671.7636	814.3085	840.7161	881.0427	944.8422	974.2981	1000.9397	1015.8974	1047.5667	1102.4138	1121.047	1142.4874	1200.1223	1231.4779	1269.7015	1322.1858	1325.569	1364.6644	1382.4782	1392.5109	1465.0261	1521.9634	2355.98	2364.0572	3000.9258	3018.8394	3051.8409	3084.3453	3091.1573	3120.8657	3540.2184
N#CCC1CNC1C#N	N#CC[C@H]1CN[C@H]1C#N	
InChI=1S/C6H7N3/c7-2-1-5-4-9-6(5)3-8/h5-6,9H,1,4H2	InChI=1S/C6H7N3/c7-2-1-5-4-9-6(5)3-8/h5-6,9H,1,4H2/t5-,6-/m0/s1
