18
gdb 13768	3.07502	1.48424	1.1801	2.1261	74.51	-0.2401	0.0498	0.29	1070.8313	0.151211	-347.757045	-347.747998	-347.747053	-347.790613	33.532	
C	 0.0185871397	 1.4579373201	-0.2606596742	-0.399424
C	 0.0283911423	-0.0023492085	 0.1976924054	 0.120805
O	 0.6091774078	-0.1339638565	 1.4917187337	-0.43044
C	-1.357013279	-0.615555155	 0.1493864729	-0.014008
C	-1.9249181746	-1.1527057995	-1.1320288016	-0.299621
C	-1.5547079786	-2.1167895059	-0.0127808073	-0.198408
C	-0.4389115457	-3.0038139069	-0.1689699135	 0.342651
C	 0.4840865228	-3.7634459738	-0.3046600188	-0.472427
H	 1.025375463	 1.8791051068	-0.1958054959	 0.124566
H	-0.3358460132	 1.5481489206	-1.2921233257	 0.119082
H	-0.6454195539	 2.0599553974	 0.3729343987	 0.102868
H	 0.6878756656	-0.5836793075	-0.4558218547	 0.099702
H	 0.0839717494	 0.3932412068	 2.1040278996	 0.272872
H	-2.0691529927	-0.1393734621	 0.8219143695	 0.080023
H	-2.9773640162	-1.0059361184	-1.3467905141	 0.117601
H	-1.2815300541	-1.1586288147	-2.0052693677	 0.127195
H	-2.3882228113	-2.5383356294	 0.5417553911	 0.112217
H	 1.3047304486	-4.4280580334	-0.4126798473	 0.194747
59.0859	104.6799	174.4339	228.7865	235.2174	262.7285	298.4664	353.6104	432.71	477.1213	534.3532	579.5221	632.9633	653.2752	769.6482	787.1311	848.0007	900.0032	959.2188	991.7283	1005.1028	1064.6914	1083.3662	1104.4059	1125.0935	1135.5159	1184.4472	1220.6879	1287.5624	1326.1352	1377.5468	1400.6898	1413.4543	1431.8432	1485.6908	1490.3709	1495.8771	2236.3671	3023.2977	3058.664	3094.9101	3116.6968	3120.844	3135.6248	3145.3526	3224.3473	3506.1867	3796.4162
CC(O)C1CC1C#C	C[C@@H](O)[C@H]1C[C@H]1C#C	
InChI=1S/C7H10O/c1-3-6-4-7(6)5(2)8/h1,5-8H,4H2,2H3	InChI=1S/C7H10O/c1-3-6-4-7(6)5(2)8/h1,5-8H,4H2,2H3/t5-,6-,7-/m1/s1
