16
gdb 55720	2.37086	1.31334	1.04648	3.1308	70.96	-0.2432	0.009	0.2522	1173.0758	0.121815	-437.860517	-437.851294	-437.85035	-437.895137	33.79	
N	 0.0529994867	 0.2728145751	-1.0447160805	-0.511939
C	-0.0221239786	 0.1837552367	 0.3124792432	 0.388654
O	 0.6540090669	 0.8509716561	 1.0682186	-0.358467
C	-1.0920276013	-0.795832478	 0.8206980384	-0.373049
C	-1.0087085222	-2.1853346384	 0.2070869338	 0.149238
C	-2.2412351287	-2.87892531	-0.2249588021	-0.212327
O	-1.3952206556	-2.2561956704	-1.1884430365	-0.266863
C	 0.1528013939	-2.9673046738	 0.5584971027	 0.333465
C	 1.1263250117	-3.5946017304	 0.8776687571	-0.416456
H	 0.7744185384	 0.85363696	-1.4392951087	 0.259327
H	-0.4504054222	-0.3675104048	-1.6375234259	 0.277958
H	-0.9778103959	-0.8563905109	 1.9041838547	 0.140696
H	-2.0790075024	-0.3752037712	 0.5996876631	 0.125178
H	-2.256499166	-3.9660555715	-0.2578106866	 0.132948
H	-3.2025560805	-2.3956568004	-0.0564975773	 0.12447
H	 1.9901515457	-4.147980278	 1.1537224747	 0.207166
45.9347	66.6025	155.0477	187.6751	232.2734	323.3486	344.5263	359.5231	432.9501	529.2239	541.6122	559.2333	594.231	637.9442	672.5513	673.7269	753.4021	821.8756	874.7955	923.964	944.6507	981.3172	1114.2932	1131.6532	1165.18	1181.3178	1262.5959	1308.6347	1356.2775	1376.6305	1456.8075	1517.3896	1621.5034	1809.4541	2243.7147	3054.9972	3089.8446	3131.1681	3186.073	3500.3426	3583.792	3722.487
NC(=O)CC1(CO1)C#C	NC(=O)C[C@]1(CO1)C#C	
InChI=1S/C6H7NO2/c1-2-6(4-9-6)3-5(7)8/h1H,3-4H2,(H2,7,8)	InChI=1S/C6H7NO2/c1-2-6(4-9-6)3-5(7)8/h1H,3-4H2,(H2,7,8)/t6-/m0/s1
