18
gdb 26141	2.56284	1.38566	1.09878	1.4333	75.79	-0.1998	0.024	0.2238	1167.2482	0.147156	-439.093817	-439.084873	-439.083929	-439.127581	33.114	
C	 0.1736699785	 1.0847614165	-0.4016912277	-0.330183
N	-0.0169665695	-0.1942704439	 0.2872377409	-0.187731
C	 0.6227904999	-0.2271649772	 1.6050121502	-0.33019
C	-1.3054828033	-0.7096491128	 0.2387267224	 0.230928
C	-1.7720762515	-1.8269081389	-0.3871671399	 0.256995
O	-1.0507267062	-2.706913854	-1.1236820234	-0.44369
C	-3.1757263755	-1.9105135157	-0.1278288548	-0.269823
C	-3.4634371311	-0.8278253769	 0.6441869945	-0.002617
O	-2.3610129428	-0.0814249715	 0.8854422665	-0.185182
H	 1.2453396441	 1.2791115121	-0.5175874244	 0.116592
H	-0.2809207772	 1.0329911061	-1.3935483536	 0.129543
H	-0.2719245579	 1.9323913874	 0.1425242919	 0.11514
H	 0.2099895066	 0.522973539	 2.2979005097	 0.115147
H	 0.4898449277	-1.216980386	 2.0474115003	 0.129532
H	 1.6952814384	-0.0348979039	 1.4933727228	 0.116589
H	-0.1396965775	-2.3824362811	-1.1152688194	 0.292011
H	-3.8586676142	-2.6703711269	-0.4716394551	 0.115622
H	-4.3803434684	-0.4693973122	 1.083537989	 0.131317
64.4202	132.8829	141.9887	218.7631	230.6066	287.1932	296.939	373.9002	447.0787	494.1321	523.7683	616.8492	642.5579	701.1431	712.2635	753.3636	817.5651	889.5401	951.8149	1053.6783	1057.3884	1082.5939	1116.7249	1146.1977	1173.6617	1199.7947	1224.2258	1251.5099	1328.79	1369.8848	1438.1936	1464.9037	1479.0445	1493.1083	1501.0369	1505.5105	1522.7227	1545.6303	1705.2273	2980.7484	2985.3246	3065.4011	3066.5723	3120.8271	3123.3324	3258.3799	3279.593	3757.2308
CN(C)C1=C(O)C=CO1	CN(C)c1c(O)cco1	
InChI=1S/C6H9NO2/c1-7(2)6-5(8)3-4-9-6/h3-4,8H,1-2H3	InChI=1S/C6H9NO2/c1-7(2)6-5(8)3-4-9-6/h3-4,8H,1-2H3
