18
gdb 68321	3.43819	1.04799	0.93811	4.8434	76.63	-0.2755	0.0396	0.3151	1267.3191	0.148024	-401.914075	-401.905835	-401.904891	-401.947397	31.53	
O	 1.0295668242	 1.0364941378	 0.3902269045	-0.474703
C	 0.4233186813	-0.1771996823	 0.1359148748	 0.380494
C	 0.4846851664	-1.0627881217	-1.1507595606	-0.287646
C	-0.5228033344	-1.7546996688	-0.1861090032	-0.058407
C	 0.5014959431	-1.5054087492	 0.9584931633	-0.30231
C	-1.1178953595	-0.3333464281	 0.0717015665	 0.015784
C	-1.9818468185	-0.0189839109	 1.2986594144	-0.399526
C	-3.3413265446	-0.5374630416	 1.1516280781	 0.261649
N	-4.4099990358	-0.95648437	 1.0173690826	-0.310962
H	 1.9851098499	 0.9140038163	 0.3896001452	 0.287534
H	 0.0751225081	-0.628678086	-2.0660451521	 0.101336
H	 1.4206990747	-1.5970442635	-1.3323310069	 0.091966
H	-1.0807199927	-2.6672257196	-0.3769850933	 0.099604
H	 1.4399459532	-2.061920217	 0.887978968	 0.09411
H	 0.1352365747	-1.4977784868	 1.985880462	 0.098419
H	-1.5720978772	 0.1202398208	-0.8145698731	 0.088742
H	-1.5583674571	-0.423056027	 2.2222848569	 0.15127
H	-2.0365589358	 1.0678245875	 1.4313787629	 0.162646
50.6126	110.6892	205.9943	243.3798	302.6559	384.9533	387.7115	406.0858	488.3625	585.3387	605.8514	653.6693	749.6143	788.5359	873.2849	906.4192	942.3722	944.4191	955.9936	978.6548	1025.3173	1052.3236	1080.3873	1105.7854	1131.3855	1135.2187	1143.5556	1199.9764	1215.2601	1223.2878	1248.3032	1296.2402	1320.0698	1364.7719	1434.7435	1462.2513	1501.8284	1547.7839	2360.883	3051.0367	3056.1289	3059.9233	3067.2835	3098.9512	3126.7362	3130.1848	3160.0772	3810.6001
OC12CC(C1)C2CC#N	O[C@@]12C[C@@H](C1)[C@H]2CC#N	
InChI=1S/C7H9NO/c8-2-1-6-5-3-7(6,9)4-5/h5-6,9H,1,3-4H2	InChI=1S/C7H9NO/c8-2-1-6-5-3-7(6,9)4-5/h5-6,9H,1,3-4H2/t5-,6-,7-/m1/s1
