16
gdb 31556	3.31622	1.16313	0.87156	2.9726	70.21	-0.1808	0.0407	0.2215	1287.3134	0.124808	-471.230088	-471.221033	-471.220089	-471.263705	33.05	
C	 0.0047618061	 1.3599723715	-0.0673864112	-0.318938
N	-0.0962377324	-0.0589487466	 0.229059915	-0.384665
C	-1.2979032341	-0.6857175318	 0.0863226889	 0.502258
N	-2.4693550341	-0.1208040745	-0.0300755385	-0.442935
C	-3.3384714731	-1.1979407558	-0.0721330414	 0.312859
O	-4.6654382078	-0.9995438241	-0.1874024307	-0.428395
C	-2.6825592189	-2.3791192763	 0.0078946647	 0.152257
N	-3.0667869042	-3.7036845301	 0.0011357708	-0.598123
O	-1.2981642725	-2.0224791397	 0.1131167951	-0.238358
H	 0.9860458492	 1.7174645516	 0.2517230738	 0.126249
H	-0.1323111731	 1.5882726975	-1.133334926	 0.124084
H	-0.7643161752	 1.8954168899	 0.4925832202	 0.159162
H	 0.700269138	-0.633742083	 0.0023744739	 0.251994
H	-4.7909271224	-0.0437019235	-0.2160924763	 0.300159
H	-2.8509385712	-4.2071561199	 0.8545129055	 0.241743
H	-2.7325083743	-4.2347610353	-0.7955527337	 0.240649
97.5376	127.8313	182.8626	206.9528	237.9088	279.3965	280.7483	358.7711	367.3665	407.3387	483.6363	554.9968	658.9529	680.6763	692.4915	722.7367	764.8161	827.8218	989.1493	1029.3114	1129.7673	1155.7374	1166.0958	1189.8335	1210.6133	1333.4864	1372.0867	1416.7545	1454.0933	1485.2282	1510.3861	1545.8469	1654.9751	1666.5682	1793.7095	3010.2331	3099.5175	3142.5308	3495.4191	3560.0396	3630.3242	3810.0451
CNC1=NC(O)=C(N)O1	CNc1nc(O)c(N)o1	
InChI=1S/C4H7N3O2/c1-6-4-7-3(8)2(5)9-4/h8H,5H2,1H3,(H,6,7)	InChI=1S/C4H7N3O2/c1-6-4-7-3(8)2(5)9-4/h8H,5H2,1H3,(H,6,7)
