16
gdb 17199	5.20978	1.6134	1.45466	2.1194	65.19	-0.2395	0.0683	0.3078	869.7325	0.132314	-379.806919	-379.80043	-379.799486	-379.837253	26.232	
O	 0.1251043951	 1.4323922157	-0.0789562363	-0.458975
C	 0.0762288086	 0.0480992337	-0.0581393435	 0.239182
C	 0.0361557615	-0.6811887173	 1.3267333857	-0.205436
N	-1.364959624	-0.0777981521	 1.4685217342	-0.366297
C	-1.317074009	-0.6543569057	 0.0513267382	-0.180306
C	-0.5769449358	-1.8803143263	 0.5971065445	 0.456208
C	-0.0903478883	-3.1648701825	 0.0771277464	-0.347727
N	-1.1639758652	-3.0977124814	 1.1169062118	-0.398943
H	-0.5146197967	 1.7131001918	 0.5934511838	 0.290642
H	 0.7710859559	-0.3451572032	-0.8006473378	 0.092947
H	 0.7625112879	-0.6540190021	 2.1408240298	 0.08449
H	-1.9433717002	-0.681546923	 2.0580699658	 0.222798
H	-2.1726779638	-0.6015245175	-0.6216493956	 0.091353
H	-0.4231596924	-3.536129081	-0.8881343507	 0.127859
H	 0.8959407294	-3.5082593963	 0.3793078863	 0.119035
H	-0.769353243	-3.3288297326	 2.0263307674	 0.233171
164.9254	252.613	272.1063	336.3061	431.594	477.3195	592.2482	609.7856	720.9999	736.531	794.5041	855.4777	882.1682	895.4054	923.6872	933.9304	973.8229	1044.6034	1047.1406	1085.6236	1122.9213	1128.1804	1134.9857	1182.3058	1184.5113	1208.1408	1244.3469	1254.8728	1265.3968	1276.1117	1342.2973	1442.2239	1461.5588	1527.5373	3104.2154	3107.3758	3119.9899	3127.862	3192.4384	3418.7564	3485.4759	3716.6184
OC1C2NC1C21CN1	O[C@H]1[C@H]2N[C@@H]1[C@]12CN1	
InChI=1S/C5H8N2O/c8-2-3-5(1-6-5)4(2)7-3/h2-4,6-8H,1H2	InChI=1S/C5H8N2O/c8-2-3-5(1-6-5)4(2)7-3/h2-4,6-8H,1H2/t2-,3+,4-,5+
