17
gdb 16579	2.57128	2.1639	1.77883	3.8431	67.89	-0.2407	-0.0082	0.2325	853.7694	0.141486	-363.848505	-363.840615	-363.839671	-363.880504	29.213	
C	-0.5823955937	 1.2525865807	-0.1567227793	-0.423385
C	-0.3608508747	-0.1986582525	-0.5163743271	 0.014615
C	 0.4730274039	-0.756086936	-1.5995830261	-0.075235
C	 1.7624369794	 0.0129382376	-1.9039384777	-0.108889
C	 1.8045780013	 1.3131331239	-2.6970677637	-0.422643
C	 1.9886764385	-0.0408673253	-0.3817475427	 0.37249
O	 2.7967164002	 0.3964294478	 0.3773296211	-0.303367
N	 0.8781689238	-0.9458173866	-0.1223354405	-0.195326
H	-1.3955612918	 1.6681808122	-0.760931711	 0.127601
H	-0.871966707	 1.3289170679	 0.8961382592	 0.139936
H	 0.3040711345	 1.87258422	-0.297199882	 0.142508
H	-1.2266827599	-0.8191592335	-0.2906814634	 0.111108
H	 0.1454014992	-1.6201943877	-2.1674464317	 0.106877
H	 2.4841242176	-0.6943942195	-2.3336186799	 0.12223
H	 1.0654185826	 2.038847162	-2.3515342539	 0.12698
H	 2.7947591428	 1.7707719264	-2.6096027857	 0.139703
H	 1.6151195733	 1.1233049825	-3.7583098457	 0.124796
126.9147	145.6769	169.5517	200.2032	243.112	311.1717	378.1703	504.0245	582.1626	647.7368	675.3696	701.1898	795.2305	837.5592	890.1366	915.883	991.2224	1030.5524	1056.0743	1073.6048	1106.2489	1110.6022	1156.4456	1178.6137	1232.5252	1265.1477	1346.2892	1369.2704	1409.834	1418.6863	1439.0255	1484.7094	1496.564	1498.531	1505.9792	1909.2134	3031.8862	3043.7296	3045.1486	3105.254	3108.83	3119.992	3126.5395	3145.3205	3175.3413
CC1C2C(C)C(=O)N12	C[C@H]1[C@H]2[C@@H](C)C(=O)N12	
InChI=1S/C6H9NO/c1-3-5-4(2)7(5)6(3)8/h3-5H,1-2H3	InChI=1S/C6H9NO/c1-3-5-4(2)7(5)6(3)8/h3-5H,1-2H3/t3-,4+,5-,7?/m1/s1
