17
gdb 22364	2.35829	1.34146	0.89348	3.1421	79.65	-0.193	-0.0042	0.1888	1259.367	0.136002	-455.123879	-455.114869	-455.113925	-455.158092	33.921	
N	 0.0682919629	 1.3501456958	 0.1191259327	-0.578033
C	-0.0272727933	-0.0100175434	 0.0395355832	 0.367027
C	-1.1501101938	-0.7725394625	 0.0731783735	-0.307114
C	-0.7921159647	-2.1666273634	 0.0170947258	 0.383546
N	-1.4901817289	-3.2380791499	-0.0588363055	-0.292642
O	-2.8739337607	-2.9484113502	-0.0959211265	-0.404414
C	 0.7285971495	-2.3022505444	-0.0016539843	 0.058834
O	 1.1913277737	-3.0142975881	-1.1366794583	-0.438731
C	 1.2303465528	-0.843109767	-0.0465930133	-0.329491
H	 0.9120346431	 1.7819323926	-0.2216255081	 0.259512
H	-0.7676914544	 1.8930345858	-0.0307265757	 0.260694
H	-2.1679171905	-0.4120073226	 0.1113101931	 0.102364
H	-3.2624804807	-3.8284731815	-0.1204964351	 0.299823
H	 1.0675471399	-2.7990557484	 0.9192807617	 0.081902
H	 0.5544212262	-3.726610767	-1.274734002	 0.288461
H	 1.7595240291	-0.6726261643	-0.9917429553	 0.130244
H	 1.9237221597	-0.6039628214	 0.7671558239	 0.118017
31.7559	143.2764	180.1645	221.2704	293.5568	346.6869	362.3992	394.969	404.8485	450.1806	454.599	537.4633	551.7502	601.9029	637.8096	747.178	849.9107	858.5138	903.119	944.6926	978.386	1025.7752	1086.9798	1097.1826	1197.6406	1233.2783	1242.5786	1278.6608	1311.441	1358.921	1393.4125	1405.1257	1425.3992	1471.9809	1637.9086	1680.4028	1730.3234	2988.1429	3037.629	3076.6026	3236.5959	3586.5213	3695.9212	3778.7984	3826.4533
NC1=CC(=NO)C(O)C1	NC1=CC(=NO)[C@@H](O)C1	
InChI=1S/C5H8N2O2/c6-3-1-4(7-9)5(8)2-3/h1,5,8-9H,2,6H2	InChI=1S/C5H8N2O2/c6-3-1-4(7-9)5(8)2-3/h1,5,8-9H,2,6H2/t5-/m0/s1
