19
gdb 101186	3.78054	0.93241	0.86823	0.6806	71.48	-0.2427	0.0548	0.2975	1362.5091	0.158575	-460.072837	-460.064257	-460.063313	-460.106683	32.617	
O	 0.1364947971	 1.4154648855	-0.3982187286	-0.423935
C	 0.0600168667	 0.0314898888	-0.1421853051	-0.057854
C	-1.400056465	-0.4290702819	-0.0722548643	 0.041015
O	-2.0837752839	 0.015918685	-1.2539755205	-0.441551
C	-1.5330437629	-1.9311451431	 0.0980869974	 0.017886
C	-1.3531145177	-2.6785741891	 1.4539946326	 0.026593
C	-2.7138743818	-2.1402273855	 1.9577204681	-0.232268
C	-2.8646153959	-2.62875145	 0.497671627	 0.029787
O	-2.0708050003	-3.8293989471	 0.8594175239	-0.308733
H	-0.545952717	 1.5887357752	-1.0603474093	 0.285477
H	 0.5852540899	-0.5552270365	-0.9188117878	 0.073709
H	 0.5682723729	-0.1592900925	 0.8097846666	 0.109386
H	-1.8885960473	 0.1179474862	 0.7389199118	 0.098409
H	-1.7978299371	-0.5434174161	-1.986546889	 0.283925
H	-1.0314510101	-2.4676732852	-0.715990848	 0.077971
H	-0.4393069958	-2.89083204	 2.0097074203	 0.098996
H	-3.2020566639	-2.7740494044	 2.6981809288	 0.114428
H	-2.8210266959	-1.077012672	 2.1780842231	 0.106161
H	-3.7661137019	-2.7810498775	-0.0952975769	 0.100597
52.1283	115.6705	128.1637	231.7535	275.8381	336.683	358.6541	435.6358	485.7098	520.7399	572.2858	666.3514	729.7546	819.2472	871.9433	876.4825	895.8937	919.3752	944.3227	1011.7059	1034.1674	1058.7048	1080.4248	1097.751	1108.4813	1117.6526	1160.454	1172.2275	1202.8858	1206.8334	1220.1706	1235.0012	1271.3578	1286.255	1302.6333	1382.4438	1399.5901	1428.5898	1443.4902	1495.7469	1506.2048	2933.3976	3045.4411	3061.6233	3075.5098	3088.1163	3115.4002	3125.8925	3156.903	3760.5617	3784.3123
OCC(O)C1C2CC1O2	OC[C@@H](O)[C@H]1[C@H]2C[C@@H]1O2	
InChI=1S/C6H10O3/c7-2-3(8)6-4-1-5(6)9-4/h3-8H,1-2H2	InChI=1S/C6H10O3/c7-2-3(8)6-4-1-5(6)9-4/h3-8H,1-2H2/t3-,4-,5+,6+/m1/s1
