18
gdb 88320	3.85061	0.91496	0.81033	2.6765	78.82	-0.2509	-0.0031	0.2477	1438.6141	0.147598	-435.286432	-435.277135	-435.276191	-435.321118	33.247	
C	 0.4752725905	 1.457385946	-0.1544267614	-0.401647
C	 0.0474697048	 0.0096273959	-0.2026543113	 0.023738
C	 0.8152082792	-0.9938233077	-1.0147909959	-0.270463
N	 0.8236184041	-1.0325654131	 0.441665392	-0.141074
C	 1.929093806	-0.79012039	 1.2532918095	 0.465855
O	 1.9535227851	 0.0394413449	 2.1380830324	-0.385
N	 2.9779041187	-1.6639082235	 1.0000196849	-0.326162
C	 4.144643121	-1.6825166123	 1.7414652659	 0.109709
N	 5.0557235269	-2.5301755912	 1.4829814409	-0.474517
H	 1.5461360541	 1.5676388698	-0.3452402545	 0.126508
H	-0.0710922192	 2.0270946082	-0.9129220823	 0.120754
H	 0.267864237	 1.890215002	 0.8269263246	 0.153366
H	-1.0257042603	-0.1508185053	-0.1129040362	 0.105988
H	 0.3070003897	-1.8176213096	-1.5090133067	 0.128568
H	 1.7132503134	-0.638185243	-1.5162318528	 0.131129
H	 2.8797259962	-2.3755275711	 0.2904462341	 0.264479
H	 4.1477857711	-0.9119547716	 2.514973497	 0.138446
H	 5.8411011317	-2.4049902784	 2.1185846098	 0.230323
53.9961	114.8453	127.0794	169.9154	200.9689	204.3536	268.0889	376.1197	392.7952	478.1351	498.3284	616.6667	636.111	776.7694	824.1767	828.9716	861.3988	912.7422	973.7837	1043.6763	1063.6005	1087.2646	1100.8673	1122.7246	1151.4952	1162.6365	1188.3478	1197.4228	1309.5159	1361.6791	1394.8231	1408.1008	1427.2012	1482.6804	1489.3508	1494.0269	1513.7342	1729.7158	1792.7589	3045.4502	3099.2443	3109.6523	3122.3002	3123.8085	3133.8047	3188.9135	3509.0491	3618.9512
CC1CN1C(=O)NC=N	C[C@H]1CN1C(=O)NC=N	
InChI=1S/C5H9N3O/c1-4-2-8(4)5(9)7-3-6/h3-4H,2H2,1H3,(H2,6,7,9)	InChI=1S/C5H9N3O/c1-4-2-8(4)5(9)7-3-6/h3-4H,2H2,1H3,(H2,6,7,9)/t4-,8?/m0/s1
