19
gdb 92256	2.63129	1.6832	1.3274	2.2456	74.76	-0.2323	0.0647	0.297	1022.134	0.159695	-422.970479	-422.962739	-422.961795	-423.002603	30.708	
O	 0.0118801305	 1.4236880634	-0.131429569	-0.434452
C	 0.0324514849	 0.0238602989	 0.0339582823	-0.003955
C	 0.1853486619	-0.5771797351	 1.4774937502	-0.282735
C	-1.0956334747	-1.4254285088	 1.2410880446	 0.056409
O	-2.2773005644	-0.9130808196	 1.8899394696	-0.305386
C	-2.566192742	-0.0955478567	 0.7328780517	 0.073864
C	-3.4919077004	-0.7653408465	-0.3221197926	-0.236985
C	-2.2441397552	-1.0789797638	-1.2149494569	-0.358226
C	-1.3423489739	-0.6200450386	-0.065294094	 0.335848
H	 0.9127257022	 1.7535578548	-0.0549409415	 0.285119
H	 0.7451152475	-0.4462860458	-0.6610339286	 0.066787
H	 1.1054160671	-1.1376857312	 1.6588833317	 0.098093
H	 0.0389502422	 0.1623940297	 2.2675285381	 0.116065
H	-1.0084189977	-2.5129490616	 1.3084739041	 0.072562
H	-2.7446775772	 0.952023442	 0.9835649062	 0.086439
H	-3.9978362671	-1.6436272597	 0.0836759541	 0.113976
H	-4.2326061281	-0.1044386804	-0.7776823432	 0.104717
H	-2.119194379	-2.1083969256	-1.5624030465	 0.09842
H	-2.1789388166	-0.4124751852	-2.0800994103	 0.11344
105.2354	135.8518	205.3367	268.9843	333.3689	392.8938	444.5056	480.9678	548.0876	646.0734	674.7377	743.3767	818.9782	837.5207	872.0983	889.397	901.6859	931.2249	995.6632	1012.0577	1043.1392	1087.995	1095.4204	1107.4724	1132.1452	1155.2925	1180.7127	1194.6859	1205.9132	1227.905	1239.7615	1251.8251	1282.8205	1293.625	1310.6336	1337.5243	1353.7774	1431.7118	1464.3184	1465.8921	1487.1347	2978.7038	3050.429	3063.9571	3069.4183	3076.4513	3092.7588	3096.7938	3131.3821	3132.2421	3818.1891
OC1CC2OC3CCC123	O[C@H]1C[C@H]2O[C@@H]3CC[C@]123	
InChI=1S/C7H10O2/c8-4-3-6-7(4)2-1-5(7)9-6/h4-6,8H,1-3H2	InChI=1S/C7H10O2/c8-4-3-6-7(4)2-1-5(7)9-6/h4-6,8H,1-3H2/t4-,5+,6+,7+/m0/s1
