17
gdb 43643	4.48374	1.00509	0.86486	3.487	75.66	-0.2457	-0.0331	0.2126	1298.3702	0.137753	-418.021233	-418.013296	-418.012352	-418.054467	29.701	
O	 0.2543371975	-0.0939264098	 0.0064294465	-0.380013
C	 0.1360149538	 1.1117067553	 0.0211928043	 0.39544
N	-1.0467481473	 1.8230754769	-0.0374335668	-0.322953
C	-0.8661730286	 3.2575379808	-0.0281276872	-0.067413
C	 0.6405778889	 3.3692323443	 0.0763337984	-0.069181
C	 1.2007831373	 2.1605077765	 0.1022787285	-0.191951
C	-1.4347334657	 3.9420629085	-1.2613228662	 0.021181
C	-2.8270805945	 4.4557303229	-1.2494161049	-0.24909
N	-1.6858987258	 5.3886808681	-1.2480687446	-0.315527
H	-1.9374668774	 1.3682548194	-0.1451713307	 0.254807
H	-1.3369885572	 3.7146894596	 0.8598846278	 0.090217
H	 1.1359178843	 4.330983707	 0.1091596315	 0.126058
H	 2.2490691202	 1.9064161741	 0.1664374121	 0.127587
H	-1.0191131402	 3.5735032811	-2.1965511356	 0.10724
H	-3.4164015457	 4.4544555155	-2.1613995948	 0.128726
H	-3.4050741411	 4.3386127697	-0.3354012876	 0.113153
H	-1.5476411286	 5.76128149	-0.3104940506	 0.231718
60.9002	83.7952	167.8077	246.9333	322.6199	397.3395	417.8479	465.9883	514.6613	687.2932	697.4136	804.8935	825.2648	835.0529	882.6369	911.9653	924.1458	961.4601	976.4228	1002.1782	1043.6352	1078.8917	1121.847	1133.4682	1158.8266	1202.3082	1215.8199	1247.4833	1280.2194	1294.5216	1317.4705	1357.8637	1404.263	1420.6366	1509.8977	1655.9328	1826.8511	2949.6014	3106.4663	3136.3221	3194.9775	3218.2592	3251.7026	3482.8009	3669.9943
O=C1NC(C=C1)C1CN1	O=C1N[C@@H](C=C1)[C@H]1CN1	
InChI=1S/C6H8N2O/c9-6-2-1-4(8-6)5-3-7-5/h1-2,4-5,7H,3H2,(H,8,9)	InChI=1S/C6H8N2O/c9-6-2-1-4(8-6)5-3-7-5/h1-2,4-5,7H,3H2,(H,8,9)/t4-,5+/m0/s1
