14
gdb 49319	2.42861	1.8843	1.06106	4.5446	74.68	-0.2539	-0.0905	0.1634	1043.559	0.102566	-432.914818	-432.907248	-432.906304	-432.947256	27.732	
N	 0.0903695854	 1.2827806621	 0.0070213921	-0.422715
C	 0.0112715352	 0.0195495531	 0.0043801679	 0.084219
N	-1.2114220062	-0.6654957209	 0.0119642859	-0.170875
C	-1.2712060472	-2.0733077048	 0.0085880273	 0.383387
N	-0.2330849137	-2.8073660348	-0.0014811599	-0.521463
C	-2.7074985489	-2.4295028775	 0.0187896572	-0.167384
C	-3.4360215435	-1.311933934	 0.0275160111	-0.185332
C	-2.5265591762	-0.123509692	 0.0236638694	 0.413309
O	-2.835562088	 1.0358630463	 0.0292986906	-0.311938
H	 1.0722072353	 1.5573257817	 0.0002052672	 0.234048
H	 0.8395654338	-0.6926803285	-0.0038266288	 0.142527
H	-0.4910846395	-3.793189618	-0.0021549357	 0.235657
H	-3.0461648731	-3.456658267	 0.0186252981	 0.137549
H	-4.5098611333	-1.1946883856	 0.0362058377	 0.149011
80.3844	142.952	196.6309	220.7148	285.2048	367.8443	472.1684	562.2037	634.6957	634.7168	717.2936	744.8941	762.5338	817.4387	853.0853	879.5468	969.936	1018.5623	1059.1694	1092.9312	1109.6596	1134.9012	1208.1521	1322.6038	1340.8965	1421.155	1435.2302	1644.123	1722.5457	1729.3083	1855.5876	3107.2594	3228.7622	3257.9356	3491.3146	3499.053
N=CN1C(=N)C=CC1=O	[NH][CH]N1C(=C[CH]C1=O)[NH]	
InChI=1S/C5H5N3O/c6-3-8-4(7)1-2-5(8)9/h1-3,6-7H	InChI=1S/C5H5N3O/c6-3-8-4(7)1-2-5(8)9/h1-3,6-7H
