15
gdb 52004	4.08976	0.65891	0.62574	2.205	64.84	-0.2682	-0.0455	0.2227	1716.7798	0.107787	-494.9404	-494.930614	-494.92967	-494.979333	31.542	
O	 0.1084565722	-0.0377532829	-0.0780380286	-0.221261
C	 0.6531780493	 0.887861952	-0.6140328817	 0.144631
C	 0.935584858	 2.2047895105	 0.090209444	-0.176767
O	 1.1592093807	 3.2359954126	-0.879013607	-0.238129
C	 2.4082923692	 3.7509096732	-0.9555140113	 0.433087
O	 3.3364424261	 3.3992127985	-0.2738900245	-0.344291
C	 2.4875629239	 4.8264283725	-2.0151786734	-0.398385
C	 3.7597406302	 4.702677367	-2.8485868793	 0.163739
O	 3.8027875714	 4.952883569	-4.0220927563	-0.22839
H	 1.007117614	 0.8495397885	-1.6685341465	 0.096255
H	 0.0789369669	 2.4917188076	 0.7043814638	 0.153424
H	 1.8215728906	 2.0933904383	 0.7242313576	 0.176337
H	 1.6079029918	 4.847382584	-2.658281204	 0.153678
H	 2.5513070489	 5.7880560702	-1.486100478	 0.169891
H	 4.6499849968	 4.3742515191	-2.2748605247	 0.116182
8.6117	29.6244	75.1431	85.3293	108.5922	190.5659	315.3935	338.2517	360.1366	467.0484	534.6122	612.727	697.7684	758.264	791.4657	914.2688	1024.8325	1039.755	1052.4405	1071.397	1117.1392	1156.0734	1220.3417	1270.969	1312.5226	1358.3037	1409.1107	1410.9375	1436.3378	1451.0354	1815.8406	1844.6028	1846.3587	2891.3933	2937.4507	3030.2199	3060.2647	3124.2226	3143.6804
O=CCOC(=O)CC=O	O=CCOC(=O)CC=O	
InChI=1S/C5H6O4/c6-2-1-5(8)9-4-3-7/h2-3H,1,4H2	InChI=1S/C5H6O4/c6-2-1-5(8)9-4-3-7/h2-3H,1,4H2
