25
gdb 100996	2.56146	1.05492	0.99536	1.5835	88.32	-0.2382	0.077	0.3152	1415.4048	0.227121	-389.489461	-389.47872	-389.477776	-389.525189	39.964	
C	 0.1107443256	 1.6112558394	 0.2754267592	-0.389431
C	 0.0507204717	 0.0832225965	 0.1711808735	-0.183533
C	-1.3640132587	-0.4713729558	-0.0837171694	 0.011721
C	-1.9028092225	-0.1151154227	-1.4771345257	-0.416284
C	-1.4491030783	-1.9869089061	 0.1819410894	 0.438195
C	-0.5632476553	-2.841428828	-0.7173471384	-0.445526
C	-1.4237304161	-2.3866122306	 1.6840016776	-0.334068
C	-2.8745960206	-2.8433013314	 1.451658892	-0.072896
O	-2.840608623	-2.428778499	 0.0735546618	-0.327877
H	 1.1289472755	 1.9494415771	 0.4920651444	 0.110931
H	-0.2051489769	 2.0950031415	-0.6538410315	 0.12028
H	-0.5392183851	 1.9779576869	 1.0778685774	 0.113039
H	 0.7232753722	-0.2502295617	-0.6293332351	 0.097255
H	 0.4461275538	-0.348462407	 1.100069446	 0.092866
H	-2.0385760121	-0.0119174907	 0.6533504031	 0.064722
H	-1.2127687435	-0.4244790556	-2.2700020948	 0.109331
H	-2.8639523934	-0.6071146714	-1.6460912597	 0.137031
H	-2.0542163191	 0.9633355337	-1.5776978129	 0.110641
H	 0.4952839322	-2.6012806784	-0.575002561	 0.116502
H	-0.7072540695	-3.9007295881	-0.486277153	 0.114847
H	-0.812771381	-2.6924677646	-1.7716569558	 0.125462
H	-0.7159787933	-3.1755463711	 1.9448142827	 0.10414
H	-1.3034718078	-1.5541029612	 2.3798179745	 0.104693
H	-3.0539444596	-3.9213272898	 1.5508362149	 0.098391
H	-3.6431953052	-2.3083057921	 2.0229830106	 0.099567
71.4301	80.6306	91.8742	180.5553	211.7076	222.1515	239.559	264.8682	303.4356	323.8711	336.681	444.7811	469.9546	471.4025	688.1864	778.9198	787.3133	829.5678	870.0214	888.0309	920.1403	964.0194	976.969	990.0886	1001.2527	1030.7007	1038.3188	1074.1653	1109.464	1152.5099	1164.5563	1182.7863	1211.814	1214.6329	1264.1217	1286.6716	1295.7884	1335.2201	1351.1286	1371.4877	1383.8606	1406.1111	1407.7988	1414.5141	1481.0737	1485.7861	1487.7361	1493.5193	1499.2654	1503.4773	1508.0919	1511.4986	1533.09	2995.9111	3011.4272	3015.6316	3032.5886	3035.913	3040.5341	3047.3778	3049.6957	3073.7122	3098.8293	3099.4855	3107.5143	3110.8322	3117.401	3123.7857	3127.5167
CCC(C)C1(C)CCO1	CC[C@@H](C)[C@@]1(C)CCO1	
InChI=1S/C8H16O/c1-4-7(2)8(3)5-6-9-8/h7H,4-6H2,1-3H3	InChI=1S/C8H16O/c1-4-7(2)8(3)5-6-9-8/h7H,4-6H2,1-3H3/t7-,8-/m1/s1
