23
gdb 41900	2.06922	1.91006	1.64952	1.3566	83.08	-0.2359	0.0683	0.3042	1015.1843	0.210895	-388.312475	-388.304897	-388.303953	-388.344082	31.52	
C	 0.0070778701	 1.5653199853	 0.1011083839	-0.211789
C	 1.4301068747	 2.1126419589	-0.149532812	-0.220577
C	 2.4872484696	 1.0386255489	 0.122331811	 0.124162
C	 2.5098290132	 0.5584573236	 1.6019615636	-0.218802
C	 1.7132458934	-0.7342897134	 1.8186587341	-0.179716
C	 0.2363085547	-0.6583573847	 1.3956122334	-0.206408
C	-0.0222268097	 0.0179677837	 0.0281035177	-0.006928
C	 0.9708448599	-0.4391671739	-1.0479800708	-0.077708
O	 2.3220174128	-0.0641082837	-0.7735478221	-0.275784
H	-0.3708409355	 1.8909804649	 1.0757482162	 0.095485
H	-0.6778871413	 1.9797764661	-0.6460831611	 0.095405
H	 1.5356269823	 2.4257169648	-1.1941650451	 0.102125
H	 1.6332604447	 2.9960941715	 0.464406162	 0.09527
H	 3.4726556111	 1.4458541667	-0.1276048226	 0.072606
H	 3.546513372	 0.3795837783	 1.907659736	 0.095434
H	 2.1330284572	 1.3609590585	 2.2494844181	 0.089035
H	 2.2069455599	-1.527434037	 1.2486520933	 0.11256
H	 1.7719411165	-1.0272910541	 2.873291387	 0.084842
H	-0.1682920514	-1.6777713502	 1.3712164138	 0.090401
H	-0.3446205374	-0.121473451	 2.1564816669	 0.089714
H	-1.0208413295	-0.2899193915	-0.3041931736	 0.06672
H	 0.9663997224	-1.5313917766	-1.1490940523	 0.098141
H	 0.6653441902	-0.0208601252	-2.0208305373	 0.085811
112.578	227.0889	246.3256	294.7148	340.9938	382.8003	441.6064	470.5893	529.3699	646.6297	734.6947	772.578	786.4776	829.7089	858.9399	871.8343	902.2175	937.8383	952.4585	983.1999	1016.2414	1027.6525	1037.7546	1068.0565	1097.9227	1141.9248	1156.1895	1188.6908	1213.1255	1227.355	1238.784	1272.7327	1284.2872	1321.8178	1345.5344	1350.2629	1359.883	1363.0776	1370.5958	1387.3736	1394.1752	1403.3915	1415.5929	1480.5222	1486.1069	1491.3187	1495.5023	1505.1744	1521.6867	2967.5734	3013.2485	3020.9978	3026.1642	3032.3281	3037.3958	3039.9215	3042.9535	3049.2091	3051.1372	3065.7957	3067.208	3084.1422	3088.9696
C1CC2CCCC1CO2	C1C[C@H]2CCC[C@@H]1CO2	
InChI=1S/C8H14O/c1-2-7-4-5-8(3-1)9-6-7/h7-8H,1-6H2	InChI=1S/C8H14O/c1-2-7-4-5-8(3-1)9-6-7/h7-8H,1-6H2/t7-,8+/m0/s1
