19
gdb 114749	2.70819	1.51376	1.19817	2.4676	70.67	-0.2417	0.0698	0.3115	1088.2735	0.159247	-460.137289	-460.128821	-460.127877	-460.170476	32.113	
C	 0.539698219	 0.6935850543	 0.0900325577	-0.250046
O	-0.2416630853	-0.2271703705	-0.6518268702	-0.2495
C	-1.5324792338	-0.4566198729	-0.1116200324	 0.06595
C	-2.5249486289	-0.754405678	-1.258980518	-0.266045
C	-2.6789420051	-2.2613755496	-1.2729398993	 0.043857
O	-1.4261760917	-2.9578819349	-1.2961143927	-0.260109
C	-2.1220227631	-2.833518374	-0.0448864894	 0.013729
C	-1.5278434251	-1.7332566658	 0.8168343609	 0.100262
O	-0.2427499728	-2.0439925301	 1.3045354142	-0.433172
H	 1.4885965199	 0.8037063331	-0.4411597668	 0.126969
H	 0.0491965102	 1.6773589984	 0.1447416291	 0.105857
H	 0.7350770416	 0.3363294158	 1.1082086224	 0.127086
H	-1.8458714872	 0.4273404501	 0.4573480685	 0.070484
H	-3.4980888461	-0.2880016507	-1.0673026015	 0.103734
H	-2.139351698	-0.3596397797	-2.2025586705	 0.12712
H	-3.4853745592	-2.7353198967	-1.8270600251	 0.094734
H	-2.46173093	-3.7656415628	 0.3994205823	 0.097851
H	-2.162363131	-1.5683999841	 1.6950304394	 0.085957
H	 0.3223903467	-2.0635368322	 0.5202596916	 0.295283
71.2408	126.4922	188.0376	194.4538	286.2683	315.3505	356.3216	405.3931	462.6257	524.9947	562.2845	673.1376	771.5923	802.8053	848.3098	875.1475	891.1138	939.9659	985.2745	1032.4942	1062.3179	1073.7398	1103.5424	1117.072	1143.5151	1181.2794	1204.5072	1231.4546	1235.3657	1260.5285	1289.4348	1315.8673	1331.1672	1351.7503	1396.9707	1439.5513	1447.1821	1468.9028	1479.5104	1487.2161	1516.6411	2987.2409	3018.4557	3046.8254	3054.332	3059.8889	3104.8462	3116.4169	3141.9138	3154.8445	3765.8044
COC1CC2OC2C1O	CO[C@H]1C[C@H]2O[C@H]2[C@H]1O	
InChI=1S/C6H10O3/c1-8-3-2-4-6(9-4)5(3)7/h3-7H,2H2,1H3	InChI=1S/C6H10O3/c1-8-3-2-4-6(9-4)5(3)7/h3-7H,2H2,1H3/t3-,4+,5-,6+/m0/s1
