14
gdb 25828	4.23726	1.137	0.89723	3.6052	69.86	-0.2132	-0.0289	0.1843	1208.5336	0.101739	-470.070131	-470.06162	-470.060676	-470.103887	30.437	
N	-0.0283258651	 1.2737136031	-0.0176370868	-0.53532
C	 0.0307300518	-0.0856559138	 0.0124207574	 0.312022
O	 1.0578230546	-0.73725562	 0.0219105075	-0.364941
C	-1.3153694508	-0.7070151721	 0.0294848153	 0.305385
N	-2.4765166463	-0.1314910012	 0.0077162758	-0.301869
C	-3.397893561	-1.160662853	 0.028388169	-0.193931
C	-2.7136625748	-2.3458623538	 0.0653177224	 0.358349
N	-3.0673172175	-3.6704517956	 0.1706242803	-0.598869
O	-1.3902211201	-2.0735044639	 0.0662721175	-0.177489
H	 0.8320001777	 1.7933189523	-0.020860771	 0.26419
H	-0.9160763834	 1.7471008331	-0.0139357704	 0.27586
H	-4.4615791681	-0.9896742624	 0.0168196466	 0.118565
H	-3.9985618667	-3.8777004646	-0.1587272914	 0.266774
H	-2.3779831404	-4.3090788581	-0.2021435524	 0.271275
46.1548	130.545	166.189	174.5344	224.2022	322.2801	349.9829	412.7788	538.8347	563.4562	602.8091	651.939	675.1468	708.2571	743.32	779.8009	790.7508	978.0543	1021.7468	1084.6397	1093.7318	1151.5479	1220.1375	1295.2931	1378.3903	1446.5698	1571.1968	1598.5648	1617.8166	1666.2208	1793.642	3270.3274	3564.9373	3605.7725	3668.989	3749.7083
NC(=O)C1=NC=C(N)O1	NC(=O)c1ncc(N)o1	
InChI=1S/C4H5N3O2/c5-2-1-7-4(9-2)3(6)8/h1H,5H2,(H2,6,8)	InChI=1S/C4H5N3O2/c5-2-1-7-4(9-2)3(6)8/h1H,5H2,(H2,6,8)
