17
gdb 30110	3.82938	1.07589	1.03403	4.4493	75.57	-0.2201	0.0193	0.2394	1206.6414	0.137336	-418.025865	-418.017878	-418.016934	-418.059039	29.671	
C	-0.0237216239	 1.5027322416	-0.295564616	-0.428352
C	-0.0608226869	 0.0358721706	 0.0335494695	 0.088481
O	 1.1711416321	-0.6896465871	-0.0306423564	-0.242658
C	 0.5530321832	-0.5581438431	 1.2482648514	-0.099775
C	 1.3032003914	 0.2104038533	 2.2573293399	 0.310009
C	 2.4746111324	 0.9260782765	 2.2032520079	-0.158267
N	 2.7852103462	 1.4544846171	 3.4352651963	-0.253322
C	 1.8192497481	 1.0656576839	 4.2326591244	 0.012113
N	 0.8956557925	 0.3057174071	 3.5744098313	-0.321257
H	 0.7667161922	 2.0136222209	 0.2583118982	 0.141656
H	 0.151112261	 1.645606782	-1.3668431555	 0.132215
H	-0.9837629572	 1.9685266486	-0.0478676582	 0.120103
H	-0.9034834806	-0.5144235752	-0.3914979877	 0.090743
H	 0.099271264	-1.4806376473	 1.621716029	 0.089618
H	 3.112673429	 1.0644355771	 1.3449646257	 0.122659
H	 1.7292652413	 1.295237555	 5.2840051793	 0.130958
H	 0.0649774251	-0.102116041	 3.9703425909	 0.265076
54.95	119.7003	165.7162	206.7781	274.8552	384.1156	430.5847	502.04	532.0895	661.5064	683.2467	732.8469	797.9307	807.7726	858.7422	869.8442	930.9598	985.3008	1005.565	1043.2756	1091.7675	1112.8544	1140.7806	1160.8482	1170.2145	1228.0263	1269.4016	1290.9231	1350.3984	1397.1363	1423.3181	1433.5804	1465.8627	1490.2382	1499.1745	1501.7513	1613.7145	3039.2701	3059.272	3083.9361	3101.8374	3135.2812	3251.2689	3265.0345	3659.682
CC1OC1C1=CN=CN1	C[C@H]1O[C@H]1c1cnc[nH]1	
InChI=1S/C6H8N2O/c1-4-6(9-4)5-2-7-3-8-5/h2-4,6H,1H3,(H,7,8)	InChI=1S/C6H8N2O/c1-4-6(9-4)5-2-7-3-8-5/h2-4,6H,1H3,(H,7,8)/t4-,6-/m1/s1
