18
gdb 75588	2.49784	1.61556	1.03682	6.3671	77.88	-0.2082	-0.0138	0.1944	1143.9914	0.14898	-439.127346	-439.11871	-439.117766	-439.160704	31.964	
C	-0.0113129156	 1.3836617175	-0.4793580107	-0.453005
C	 0.0723955684	-0.0441807533	 0.0214780396	 0.058006
C	-1.0873836112	-0.7276929958	 0.2088244234	-0.033825
N	-1.3402234047	-1.9896590325	 0.649794277	-0.31169
C	-0.3365447438	-2.9265408072	 1.1014391781	-0.172449
C	 0.9213416578	-2.8333160383	 0.2433863575	-0.080542
O	 1.7677915202	-1.7614311349	 0.6190876218	-0.232136
C	 1.4492371323	-0.4527444039	 0.3516277274	 0.347558
O	 2.3528035808	 0.3473969801	 0.4153184974	-0.339582
H	 0.3866458649	 2.0841758451	 0.2609430162	 0.138709
H	 0.5860550502	 1.52330016	-1.3865485242	 0.128005
H	-1.044819967	 1.6624194299	-0.7045734787	 0.098571
H	-2.0046324868	-0.1999495842	-0.0407389035	 0.109732
H	-2.3022384614	-2.2230311408	 0.8210113321	 0.253223
H	-0.0505728792	-2.7573929954	 2.1503723728	 0.126033
H	-0.7560345011	-3.9355033512	 1.0275494621	 0.114681
H	 1.5260885928	-3.7314990485	 0.3908958614	 0.125982
H	 0.6495366934	-2.7688620065	-0.8172174398	 0.122728
84.0856	106.5725	163.513	234.6168	283.9738	309.3404	325.9868	370.0413	413.1557	487.4494	538.0417	587.8794	668.9866	772.6573	784.334	875.6656	934.8379	953.4514	1012.9694	1066.2158	1074.1871	1083.5766	1107.4422	1137.7564	1219.2365	1263.2527	1314.5295	1319.8378	1393.6221	1404.656	1415.9489	1430.1007	1470.3224	1490.3552	1495.1197	1502.6999	1547.134	1696.4283	1781.7696	2994.9748	3034.593	3037.6516	3071.4549	3091.9302	3105.4848	3110.3316	3159.3128	3667.2107
CC1=CNCCOC1=O	CC1=CNCCOC1=O	
InChI=1S/C6H9NO2/c1-5-4-7-2-3-9-6(5)8/h4,7H,2-3H2,1H3	InChI=1S/C6H9NO2/c1-5-4-7-2-3-9-6(5)8/h4,7H,2-3H2,1H3
