17
gdb 112380	3.29577	1.20776	0.91563	0.8842	72.75	-0.2451	-0.0132	0.2319	1242.8364	0.136578	-455.189307	-455.180716	-455.179772	-455.223322	31.18	
C	 0.0559731848	 1.4487004036	 0.054706493	-0.248852
O	-0.1442847893	 0.0428147891	 0.0987107703	-0.242789
C	 0.6301379341	-0.6251346132	 1.0596508243	 0.003357
C	 0.1071226014	-2.0529215465	 1.267323653	-0.312892
C	 1.3374005768	-2.940429082	 1.2967238248	 0.387913
N	 1.3407625101	-4.1553785567	 1.6553603473	-0.525046
N	 2.4031163751	-2.1544144066	 0.8470987688	-0.35697
C	 2.1000360635	-0.823197049	 0.6213771361	 0.397308
O	 2.8591527085	 0.0029745183	 0.1762084676	-0.354795
H	 1.0818384698	 1.7025038105	-0.2280281959	 0.148266
H	-0.6404732596	 1.8371406752	-0.6915271981	 0.128921
H	-0.1719376372	 1.9082192556	 1.0289058261	 0.104918
H	 0.6471731085	-0.059025557	 2.0058365812	 0.098004
H	-0.4926830695	-2.1868569372	 2.1673923522	 0.141868
H	-0.5114275587	-2.324135202	 0.4061923084	 0.157315
H	 2.2711208946	-4.5723793147	 1.5898877231	 0.212553
H	 3.3326460172	-2.5145222277	 0.6818051279	 0.260922
44.6721	119.9035	131.7082	183.2816	247.288	312.4712	359.9609	412.632	522.5112	540.7875	619.611	628.1621	647.4075	723.6445	822.7504	881.3379	892.3691	963.3536	1028.3508	1057.3849	1106.3699	1160.0851	1174.66	1183.5981	1228.5815	1239.0058	1276.0282	1305.5942	1360.1966	1375.112	1389.517	1465.0598	1477.3012	1483.2854	1517.1202	1768.9876	1845.8554	2968.2397	2988.9655	3074.8506	3085.221	3131.8771	3139.4923	3456.9933	3609.0384
COC1CC(=N)NC1=O	CO[C@H]1C[C]([NH])NC1=O	
InChI=1S/C5H8N2O2/c1-9-3-2-4(6)7-5(3)8/h3H,2H2,1H3,(H2,6,7,8)	InChI=1S/C5H8N2O2/c1-9-3-2-4(6)7-5(3)8/h3H,2H2,1H3,(H2,6,7,8)/t3-/m0/s1
