16
gdb 80805	2.00135	1.6949	1.22519	3.5758	70.74	-0.2655	-0.0099	0.2556	1068.3317	0.122854	-437.824359	-437.816037	-437.815093	-437.857074	31.321	
C	-0.0859526474	 1.5849683804	 0.0188300845	-0.439794
C	-0.0357476153	 0.0720790908	-0.0286374631	-0.011463
C	 1.2342704843	-0.6326527422	-0.5896396107	-0.014612
O	 1.9889074949	-0.2192336356	 0.6228747589	-0.325163
C	 0.6877233245	-0.6904987357	 1.1268667483	 0.265986
C	 0.4276830893	-0.6664203986	 2.5424633792	 0.156912
N	 0.1719146925	-0.6808042733	 3.6701116464	-0.341488
C	 0.8692207688	-1.9295071645	 0.1637640069	 0.090669
O	-0.2206331014	-2.6517895124	-0.2983779414	-0.416556
H	 0.8770481773	 1.9988136782	 0.3242666267	 0.143479
H	-0.3445826286	 1.987974592	-0.9657638374	 0.124372
H	-0.8513724951	 1.9232636192	 0.7245242205	 0.132832
H	-0.9769823665	-0.3872616453	-0.3353255032	 0.109717
H	 1.7318021818	-0.5115568266	-1.5501653716	 0.111698
H	 1.7361604535	-2.5371311239	 0.4394521285	 0.109345
H	-0.3602427525	-3.4098951227	 0.2781385176	 0.304067
115.1066	144.7618	214.1561	219.8329	267.7534	292.5072	346.9255	362.1647	519.7803	532.8785	559.7805	614.2685	689.7002	765.168	804.6764	828.1522	927.7574	948.4151	968.8735	1051.844	1073.8953	1118.5584	1149.3159	1179.4665	1206.0295	1223.2294	1229.4867	1266.9602	1286.7485	1388.2484	1410.6778	1434.985	1492.7293	1502.6787	2350.4876	3042.9953	3078.6844	3103.3387	3106.4463	3138.7589	3144.982	3823.3016
CC1C2OC1(C#N)C2O	C[C@H]1[C@H]2O[C@]1(C#N)[C@H]2O	
InChI=1S/C6H7NO2/c1-3-4-5(8)6(3,2-7)9-4/h3-5,8H,1H3	InChI=1S/C6H7NO2/c1-3-4-5(8)6(3,2-7)9-4/h3-5,8H,1H3/t3-,4+,5-,6-/m0/s1
