22
gdb 120891	5.82325	0.69191	0.66854	2.249	84.63	-0.2146	0.0833	0.2979	1763.4178	0.192763	-404.300486	-404.290931	-404.289987	-404.33546	35.239	
C	 0.0066636472	 1.5999528718	 0.0505711035	-0.380444
C	-0.0178813879	 0.0698609899	 0.0168110599	-0.171477
C	-1.4355463757	-0.4948247221	-0.0864180863	-0.125431
N	-1.4451048531	-1.9436467774	-0.1029860411	-0.079148
C	-0.9621154389	-2.6392117459	-1.3210509364	-0.253579
C	-2.1646201265	-3.576131801	-1.2071102978	 0.430743
C	-2.779845627	-4.4986867975	-2.1543216104	-0.265198
O	-2.0463688539	-4.9711052859	-1.0123064089	-0.263393
C	-2.75714536	-2.6287828806	-0.1638197606	-0.250157
H	 1.0307273243	 1.9787268389	 0.1189738119	 0.114682
H	-0.4458041147	 2.0260602297	-0.8518168162	 0.114223
H	-0.5488228709	 1.986852365	 0.9122191496	 0.115136
H	 0.5752407614	-0.287925545	-0.8348360946	 0.098633
H	 0.4556250661	-0.3405697962	 0.9158943721	 0.10786
H	-2.0232696924	-0.1660853937	 0.7805908554	 0.099687
H	-1.9354150183	-0.0719167241	-0.984037803	 0.065959
H	-0.989655212	-2.0156023301	-2.2302445311	 0.088601
H	 0.0257457219	-3.1022467773	-1.2305872387	 0.11732
H	-3.8549918892	-4.6728737551	-2.1233252593	 0.115724
H	-2.3087787244	-4.6808704808	-3.1198161634	 0.115586
H	-3.0835842414	-3.0815075043	 0.7785819263	 0.115804
H	-3.5694688347	-2.0025300483	-0.5676578408	 0.08887
55.4606	90.5291	100.3767	157.3284	238.9841	284.3685	292.8607	330.4369	353.7039	395.85	437.1949	568.3019	757.6506	765.7873	825.9803	866.7291	892.784	905.8762	931.7594	952.3134	980.3167	1036.3548	1055.9072	1097.187	1119.7067	1126.1488	1134.2662	1157.8454	1181.7332	1188.1367	1203.4864	1219.3946	1268.59	1287.5268	1317.0213	1329.4546	1340.3772	1410.5753	1417.6492	1456.9158	1484.7402	1487.9961	1495.2232	1500.7044	1508.6899	1516.7717	1547.0694	2873.6624	2962.2594	2972.2351	3022.9297	3030.3895	3036.7755	3063.1052	3066.2197	3068.0679	3077.6994	3097.574	3105.572	3162.6557
CCCN1CC2(CO2)C1	CCCN1CC2(CO2)C1	
InChI=1S/C7H13NO/c1-2-3-8-4-7(5-8)6-9-7/h2-6H2,1H3	InChI=1S/C7H13NO/c1-2-3-8-4-7(5-8)6-9-7/h2-6H2,1H3
