17
gdb 126248	1.88534	1.71361	0.95921	1.7448	84.86	-0.2271	-0.018	0.2091	1222.05	0.136514	-380.870911	-380.86214	-380.861196	-380.905302	32.2	
C	-0.2412603738	 1.5876977515	-0.0104316464	-0.366162
C	 0.0054700731	 0.0688840532	 0.0306642068	-0.32115
C	 0.7180302242	-0.4475013606	-1.1825634946	 0.08467
C	 2.085602117	-0.6723652515	-1.3284992025	 0.186684
N	 2.2613781551	-1.1119787256	-2.611660736	-0.286007
N	 1.1193633053	-1.1920309298	-3.3030388215	-0.210972
C	 0.1843283753	-0.7891009054	-2.4432720222	-0.078679
C	 3.1546995286	-0.5221455035	-0.4231529535	 0.280348
C	 4.069904537	-0.3961859199	 0.350405325	-0.456047
H	 0.7048791333	 2.1338771302	-0.0719733138	 0.124899
H	-0.8435514043	 1.8654686132	-0.8810796695	 0.119855
H	-0.7697049668	 1.9200214766	 0.8887165079	 0.112154
H	 0.5906188011	-0.1779370142	 0.9231460205	 0.113571
H	-0.9545841425	-0.4501749281	 0.1347025261	 0.108587
H	 3.1297473836	-1.3776877819	-3.0455124691	 0.277481
H	-0.8503229455	-0.7619117023	-2.7543882542	 0.112661
H	 4.8742032693	-0.2829518317	 1.0345021771	 0.198107
27.3108	128.7484	154.1076	169.1445	225.4778	321.4496	376.6135	469.3976	511.7911	529.05	554.4128	596.3571	673.2795	682.8083	697.7111	745.4502	788.5166	885.5049	951.033	977.5108	1059.0137	1082.4906	1152.0111	1183.6163	1240.3588	1276.2998	1296.2915	1352.8358	1387.6357	1408.6697	1433.7641	1483.9039	1494.6211	1497.7012	1509.0225	1596.1622	2229.2829	3033.7445	3036.4535	3071.2925	3108.2761	3114.048	3240.0172	3500.5876	3668.7351
CCC1=C(NN=C1)C#C	CCc1c([nH]nc1)C#C	
InChI=1S/C7H8N2/c1-3-6-5-8-9-7(6)4-2/h2,5H,3H2,1H3,(H,8,9)	InChI=1S/C7H8N2/c1-3-6-5-8-9-7(6)4-2/h2,5H,3H2,1H3,(H,8,9)
