25
gdb 104011	2.86541	1.30616	1.18809	0.0858	91.68	-0.286	0.0837	0.3697	1221.9209	0.230876	-352.354518	-352.345676	-352.344732	-352.387376	36.217	
C	-0.0474631005	 1.5605556055	 0.0909119486	-0.393031
C	-0.0245209275	 0.0333048585	-0.0527302028	-0.229262
C	 0.7335568275	-0.5120518082	-1.2840934557	 0.362593
C	 0.0826575111	 0.0371404819	-2.5638158393	-0.456994
C	 2.2895900571	-0.2587005946	-1.2295936595	-0.260301
C	 2.806651353	-1.7134008495	-1.2173568151	-0.00743
C	 1.922797443	-2.3870539143	-2.3029354232	-0.236904
C	 0.7881412679	-2.0701309627	-1.2811339526	-0.040278
C	 1.8570966418	-2.3908943243	-0.1910560839	-0.234744
H	 0.9644369381	 1.9799319833	 0.104346665	 0.115564
H	-0.5953817641	 2.0434268104	-0.7233160447	 0.117038
H	-0.5345904496	 1.8491963784	 1.0277599411	 0.109966
H	 0.4065972469	-0.3911787533	 0.8592576054	 0.092297
H	-1.0589951946	-0.3348837897	-0.0955484489	 0.087973
H	 0.1968383983	 1.1230046114	-2.6357014898	 0.114234
H	 0.5217137679	-0.390937334	-3.4678403367	 0.111041
H	-0.9913817944	-0.1842322227	-2.5802136249	 0.105902
H	 2.6503100041	 0.3021866778	-2.0977253921	 0.08946
H	 2.5917898708	 0.2899686216	-0.3319277932	 0.090752
H	 3.8878243726	-1.855993891	-1.1836320856	 0.052817
H	 1.8877168962	-1.9398267584	-3.2990333174	 0.086693
H	 2.1116713316	-3.4599374542	-2.388153968	 0.092351
H	-0.1727232918	-2.5880616232	-1.312730379	 0.050317
H	 2.0403536003	-3.4642846907	-0.0991058317	 0.092084
H	 1.7606160142	-1.9491912379	 0.8034075341	 0.087863
97.8893	172.7688	194.3426	211.7254	251.036	324.8866	369.8434	393.3177	440.91	467.9766	538.3664	583.4681	732.4781	780.9971	818.5084	842.5423	852.8581	860.7259	890.4462	923.1733	939.4833	955.3332	1001.4554	1008.4199	1018.0804	1037.2552	1049.1226	1068.1448	1081.0623	1083.3644	1095.7566	1170.9503	1182.7467	1210.0675	1227.371	1240.1197	1241.7663	1269.1527	1289.8653	1303.2324	1318.1149	1352.189	1370.1761	1409.6565	1414.9977	1479.3507	1488.895	1493.129	1497.7023	1501.7619	1508.048	1514.3626	1533.6381	3012.988	3029.959	3035.4582	3041.946	3057.5748	3062.3213	3069.9468	3083.057	3091.6423	3093.8775	3098.2599	3102.1802	3108.2432	3113.5662	3117.1397	3121.6931
CCC1(C)CC2CC1C2	CC[C@@]1(C)C[C@@H]2C[C@H]1C2	
InChI=1S/C9H16/c1-3-9(2)6-7-4-8(9)5-7/h7-8H,3-6H2,1-2H3	InChI=1S/C9H16/c1-3-9(2)6-7-4-8(9)5-7/h7-8H,3-6H2,1-2H3/t7-,8+,9-/m0/s1
