21
gdb 70245	3.05702	1.30722	1.21793	2.7942	77.76	-0.2516	0.084	0.3355	1149.0421	0.181655	-424.241686	-424.232937	-424.231993	-424.274186	35.274	
C	 0.0663063622	 1.4810361308	-0.0630677086	-0.485661
C	-0.0548398598	-0.0084940188	 0.0935808567	 0.408652
C	-1.3170039207	-0.745571819	-0.3251988229	-0.321845
C	-1.1111474375	-2.2089654524	 0.1669590383	 0.386105
C	-2.413761034	-2.9445817117	 0.4516566367	-0.426178
O	-0.4369672487	-2.9683805191	-0.8306632091	-0.480887
C	-0.1986600438	-2.052313379	 1.4222236732	-0.286138
C	 0.6112445424	-0.807517489	 1.1348796627	-0.014492
O	 1.1421097751	-0.7717718619	-0.209278803	-0.314335
H	 1.0257952431	 1.8344480488	 0.3228180048	 0.130486
H	-0.002911605	 1.7660200379	-1.118459692	 0.130522
H	-0.7391728295	 1.9924306981	 0.4744653698	 0.12365
H	-2.1811955869	-0.2776345984	 0.1623229056	 0.097145
H	-1.4875506921	-0.7288437746	-1.4058269887	 0.112191
H	-3.0104382288	-3.0207264181	-0.4620997102	 0.122603
H	-2.2032379385	-3.9599219792	 0.8003328304	 0.122724
H	-3.0035240608	-2.4271135482	 1.2139691846	 0.104369
H	 0.3868464846	-2.4916223309	-1.0042571505	 0.282836
H	-0.787954991	-1.8950258782	 2.3341116073	 0.099149
H	 0.4113223929	-2.9493659123	 1.5612986576	 0.116082
H	 1.2581277665	-0.3645854448	 1.8885636272	 0.093021
153.1644	181.4825	218.7026	226.245	263.4226	317.0971	359.7178	402.7136	418.8322	445.8986	476.1136	572.0912	591.5169	651.987	701.2259	804.6907	837.1451	868.8385	888.5949	929.9426	957.6619	967.7917	979.8546	1024.2804	1042.7807	1078.672	1106.0685	1169.8732	1175.9606	1212.2145	1231.0941	1274.5051	1296.475	1306.2122	1314.3128	1400.9852	1412.3354	1435.0621	1453.9465	1465.8391	1477.0507	1483.1206	1489.4629	1499.1678	1502.814	3032.5092	3035.6962	3037.4524	3042.9585	3091.4647	3096.0708	3099.3322	3114.9165	3117.4475	3122.3681	3143.1141	3736.9052
CC12CC(C)(O)CC1O2	C[C@]12C[C@@](C)(O)C[C@H]1O2	
InChI=1S/C7H12O2/c1-6(8)3-5-7(2,4-6)9-5/h5,8H,3-4H2,1-2H3	InChI=1S/C7H12O2/c1-6(8)3-5-7(2,4-6)9-5/h5,8H,3-4H2,1-2H3/t5-,6+,7+/m1/s1
