15
gdb 45420	2.76581	1.81163	1.77972	3.9028	63.91	-0.2556	-0.0267	0.2289	848.4129	0.11538	-457.800154	-457.793855	-457.79291	-457.830713	25.457	
O	-0.0291997461	-0.0153830991	 0.0454681168	-0.341048
C	-0.0023521966	 1.1805898621	 0.0114841474	 0.458555
O	-1.139980944	 1.9288577978	 0.0334427162	-0.235991
C	-0.8562695696	 3.3489875627	 0.0240181346	 0.164412
O	-0.135044246	 3.6679463709	 1.1949991883	-0.254796
C	 1.1241236885	 2.9902391796	 1.2269525565	-0.077422
C	 1.2397672517	 2.0732602034	-0.025716634	-0.244305
C	 1.1029500966	 2.9847889673	-1.2279335242	-0.101181
C	-0.0319828722	 3.6791072995	-1.2010278898	-0.073777
H	-1.8200305606	 3.8486022658	 0.0901140837	 0.110229
H	 1.9354801241	 3.7270961416	 1.2313821322	 0.115117
H	 1.1707852019	 2.3982718258	 2.1467344206	 0.130707
H	 2.1405459744	 1.46378822	-0.0067349872	 0.107802
H	 1.8742246274	 3.0533537883	-1.9847933133	 0.120294
H	-0.3552176294	 4.4199527543	-1.9201866377	 0.121404
140.207	244.7663	368.026	429.6388	450.8969	462.0059	618.3569	628.914	660.8409	722.9696	798.6331	825.8828	880.3166	893.0197	944.8249	950.0617	957.9163	1001.7085	1024.7381	1058.9325	1080.2251	1134.7571	1186.3054	1220.9129	1257.0768	1299.2569	1331.2057	1373.7323	1377.9308	1396.817	1518.5093	1681.4869	1875.7018	3031.6971	3081.5493	3147.3758	3154.2906	3204.544	3229.766
O=C1OC2OCC1C=C2	O=C1O[C@H]2OC[C@@H]1C=C2	
InChI=1S/C6H6O3/c7-6-4-1-2-5(9-6)8-3-4/h1-2,4-5H,3H2	InChI=1S/C6H6O3/c7-6-4-1-2-5(9-6)8-3-4/h1-2,4-5H,3H2/t4-,5+/m0/s1
