19
gdb 117453	5.75598	0.57008	0.54657	2.9164	74.51	-0.264	-0.0352	0.2288	2027.7979	0.155156	-460.210306	-460.199648	-460.198704	-460.249253	35.357	
C	-0.0844882841	 1.5610983391	-0.2020927019	-0.387134
C	-0.20470272	 0.0359712387	-0.2369357846	-0.159687
C	 0.9139231627	-0.6173336447	-1.0493715197	-0.31215
C	 0.8198350645	-2.1256404012	-1.089588953	 0.448994
O	-0.0056319831	-2.7981778457	-0.5293892267	-0.341243
O	 1.8193565589	-2.6401774378	-1.8586695494	-0.250703
C	 1.8743187835	-4.0610059228	-1.9937873132	-0.175094
C	 1.6698033584	-4.4437626119	-3.4482187658	 0.146175
O	 2.0208060993	-5.494590026	-3.9121933307	-0.227592
H	 0.8634139934	 1.8769278302	 0.2478951921	 0.116014
H	-0.1296384679	 1.9888941248	-1.2099188973	 0.115823
H	-0.8944674691	 2.0052445042	 0.3837404267	 0.119363
H	-0.1896530977	-0.3682929049	 0.7806327993	 0.11643
H	-1.1718005306	-0.2571363735	-0.659348788	 0.11449
H	 0.9220015471	-0.2542835541	-2.0847003226	 0.132897
H	 1.9015960075	-0.3583578714	-0.6466413499	 0.135188
H	 2.8499387128	-4.4133547806	-1.6486432723	 0.145976
H	 1.0871894523	-4.5205885941	-1.385072115	 0.172265
H	 1.1490318023	-3.6659096382	-4.0511490582	 0.089987
19.8345	33.5116	56.9449	76.0594	115.8965	149.1093	245.0164	295.4916	312.0618	362.0982	383.2577	558.703	584.8431	681.155	747.462	757.6892	883.1847	899.132	919.2801	1044.3067	1049.3812	1054.5613	1118.0282	1123.9322	1131.2403	1178.4202	1249.8757	1264.3124	1319.2993	1322.4302	1351.9843	1400.7332	1411.3462	1415.6344	1454.4236	1455.7624	1488.8294	1500.5267	1508.9023	1827.6273	1844.2232	2885.5316	3029.44	3032.6394	3050.2677	3050.8887	3059.0864	3079.1667	3102.4199	3107.7179	3112.0946
CCCC(=O)OCC=O	CCCC(=O)OCC=O	
InChI=1S/C6H10O3/c1-2-3-6(8)9-5-4-7/h4H,2-3,5H2,1H3	InChI=1S/C6H10O3/c1-2-3-6(8)9-5-4-7/h4H,2-3,5H2,1H3
