15
gdb 128612	2.68541	1.55261	0.99003	1.9221	74.69	-0.2238	-0.0526	0.1712	1128.5563	0.112896	-453.899408	-453.891644	-453.8907	-453.931908	28.845	
C	 0.0135505328	 1.3524236344	 0.1106385802	-0.252852
O	 0.0636692296	-0.0608666186	 0.0217975885	-0.233313
C	 0.609422332	-0.5971034694	-1.0843158912	 0.288998
C	 1.1184211617	 0.0966187403	-2.1267953318	-0.049871
O	 1.6669091282	-0.4695895063	-3.2381969693	-0.237196
N	 1.7311255141	-1.8385001247	-3.3564246097	-0.063701
C	 1.2560142966	-2.5328369086	-2.382910516	-0.016068
C	 0.6434362061	-2.0541557488	-1.1402729879	 0.187831
N	 0.182731046	-2.7912676324	-0.1957190132	-0.520611
H	 1.0202799563	 1.7901398587	 0.0864199287	 0.128366
H	-0.5856966263	 1.7827843887	-0.702612137	 0.128366
H	-0.457443542	 1.5796665042	 1.0671788357	 0.149564
H	 1.1524732425	 1.1734188644	-2.2059273485	 0.139009
H	 1.336233088	-3.6073183358	-2.5364013258	 0.136321
H	 0.3025933045	-3.7796279862	-0.4307073228	 0.215158
94.7298	128.9616	222.46	245.153	327.4835	339.1265	401.7066	489.4284	532.0498	532.2862	612.5625	752.833	769.7284	835.5781	870.9018	883.9344	906.3479	948.5584	1059.1851	1112.8902	1161.4376	1177.6158	1227.7936	1296.7681	1316.9317	1346.4614	1450.4714	1488.9582	1491.2834	1505.8763	1621.2456	1661.9345	1690.304	3003.0656	3062.8877	3147.5105	3158.8281	3242.1558	3437.9879
COC1=CON=CC1=N	COC1=C(C=NO[CH]1)[NH]	
InChI=1S/C5H6N2O2/c1-8-5-3-9-7-2-4(5)6/h2-3,6H,1H3	InChI=1S/C5H6N2O2/c1-8-5-3-9-7-2-4(5)6/h2-3,6H,1H3
