19
gdb 92561	2.68595	1.75293	1.6492	2.7207	73.07	-0.2505	0.0754	0.3259	940.3409	0.161862	-423.028204	-423.021058	-423.020114	-423.059792	28.703	
C	-0.1528149812	 1.5340520445	-0.0461174128	-0.401166
C	-0.0042864289	 0.0174731274	 0.0226142479	 0.120802
O	 0.5117784168	-0.5066344995	-1.209682136	-0.277364
C	 1.6877251199	-1.2665714899	-0.9941129194	 0.183284
O	 2.841593752	-0.4968769414	-1.2517601237	-0.247142
C	 3.1438268985	 0.2651139673	-0.0807704201	-0.10739
C	 2.411967994	-0.4158594081	 1.0717226132	-0.093351
C	 0.8945403791	-0.5427083036	 1.1151665006	-0.083579
C	 1.7271031581	-1.6263312587	 0.4988816862	-0.119655
H	 0.811350528	 2.0322057655	-0.1685326889	 0.12479
H	-0.7908645185	 1.8099408716	-0.8902682503	 0.128048
H	-0.6201381979	 1.9071893747	 0.8713884852	 0.111677
H	-1.0058175171	-0.4166480764	 0.1652409061	 0.076048
H	 1.690344673	-2.0976984072	-1.7007418002	 0.091406
H	 4.2277391029	 0.2310531067	 0.0771469635	 0.10727
H	 2.8582489267	 1.3142370668	-0.2230945386	 0.106433
H	 2.9209701526	-0.4708209304	 2.0272513279	 0.094636
H	 0.4529960228	-0.6728081911	 2.0973544557	 0.090701
H	 1.827028959	-2.6447432783	 0.8491191935	 0.094552
87.9019	190.6846	211.655	283.1245	391.3235	493.5947	529.7846	629.3084	671.2204	718.5576	768.7718	804.5673	817.4015	844.3963	919.9801	936.885	956.9946	968.7619	988.7699	1020.4486	1028.2789	1049.8383	1087.2795	1096.9695	1113.992	1117.6447	1138.0645	1180.7594	1224.0186	1280.6032	1318.2908	1332.7054	1356.1229	1359.8783	1380.5198	1395.3842	1408.4778	1419.3141	1485.5194	1494.0064	1529.6607	2980.0423	3027.5928	3043.9823	3061.278	3111.8261	3113.1001	3131.9237	3166.0071	3177.64	3204.4832
CC1OC2OCC3C1C23	C[C@H]1O[C@H]2OC[C@H]3[C@@H]1[C@@H]23	
InChI=1S/C7H10O2/c1-3-5-4-2-8-7(9-3)6(4)5/h3-7H,2H2,1H3	InChI=1S/C7H10O2/c1-3-5-4-2-8-7(9-3)6(4)5/h3-7H,2H2,1H3/t3-,4+,5-,6+,7-/m1/s1
