19
gdb 59090	2.1384	1.27913	0.9393	3.8013	73.69	-0.2391	-0.0139	0.2252	1291.467	0.156344	-460.14852	-460.138542	-460.137598	-460.183741	36.268	
C	 0.0014356584	 1.5948701922	 0.0527856386	-0.407072
C	-0.0252798626	 0.0656556584	 0.0659000859	 0.104543
O	-1.3513012969	-0.4353142136	 0.2145539143	-0.421982
C	 0.6639366093	-0.4981115572	-1.1704260896	-0.082675
C	 1.9964840688	-1.1576614608	-1.0865220892	 0.065849
O	 2.5908149038	-1.2086607784	 0.1742616177	-0.408514
C	 0.7666128243	-2.015281515	-1.3910566293	-0.182943
C	 0.2291225151	-2.9616403795	-0.3826270694	 0.170325
O	-0.2897858238	-4.0120165833	-0.6792335229	-0.283357
H	 1.0306504818	 1.9666905877	 0.0254461894	 0.126926
H	-0.5228484379	 1.9879140568	-0.8274132528	 0.105601
H	-0.4899433937	 1.9869402459	 0.9466907735	 0.128061
H	 0.5007352394	-0.2862236914	 0.956159645	 0.115877
H	-1.8537896514	-0.1941171931	-0.571637135	 0.280007
H	 0.4764421719	 0.0651320887	-2.0822266326	 0.095354
H	 2.6914218155	-1.0109373838	-1.9129633877	 0.102676
H	 3.1257041634	-2.0077321736	 0.2279470598	 0.299351
H	 0.6558722905	-2.3720997327	-2.4099371301	 0.104219
H	 0.3505784043	-2.6609531873	 0.6761494543	 0.087754
47.9555	90.4119	134.3001	193.7159	215.4148	248.3724	280.4607	300.7941	337.5657	364.8453	432.9529	458.357	493.912	566.6176	636.5638	771.1939	836.6938	873.3027	925.1346	982.8578	1005.1909	1023.787	1050.5451	1085.3312	1099.9182	1135.1964	1167.6341	1189.7534	1232.285	1264.4998	1300.1771	1329.7348	1336.4367	1400.1582	1403.3655	1428.5396	1442.7905	1461.2576	1489.6496	1494.6515	1805.5881	2939.8524	3024.92	3085.5513	3100.8171	3104.6822	3124.1552	3129.9386	3169.427	3799.9161	3810.0341
CC(O)C1C(O)C1C=O	C[C@@H](O)[C@H]1[C@@H](O)[C@H]1C=O	
InChI=1S/C6H10O3/c1-3(8)5-4(2-7)6(5)9/h2-6,8-9H,1H3	InChI=1S/C6H10O3/c1-3(8)5-4(2-7)6(5)9/h2-6,8-9H,1H3/t3-,4+,5-,6+/m1/s1
