17
gdb 42665	2.60048	1.93145	1.70797	3.4456	71.15	-0.2162	-0.0191	0.1971	877.9014	0.139975	-417.999261	-417.992692	-417.991747	-418.030041	26.779	
O	-0.0107474884	 0.0588810549	 0.1062787384	-0.337813
C	-0.0217662221	 1.2593475631	 0.0375705963	 0.481766
C	-1.2075078276	 2.1666497734	-0.0190014506	-0.179526
C	-0.9998573932	 3.4767009678	 0.6912221019	-0.003315
C	 0.1827441078	 3.689331825	 1.6184271982	-0.199063
N	 1.2956565249	 2.7870298039	 1.287279058	-0.302909
C	 1.1789034388	 2.2278908691	-0.0667262164	-0.15597
C	 0.6428567124	 3.2423850224	-1.0871268894	-0.1756
N	-0.8037577908	 3.406907804	-0.7518776762	-0.123101
H	-2.1980270562	 1.7646029236	-0.1966282371	 0.110957
H	-1.9006188655	 4.0117342249	 0.9829395882	 0.107422
H	 0.4713933267	 4.7504548292	 1.5502978427	 0.105397
H	-0.1415475534	 3.5222497293	 2.6539784324	 0.119779
H	 2.1886021624	 3.247698041	 1.4102584147	 0.228177
H	 2.0989009332	 1.7151046787	-0.3433515648	 0.096865
H	 1.1449339591	 4.2137064894	-1.0423611234	 0.106834
H	 0.706603992	 2.8656297203	-2.113408223	 0.1201
134.5299	200.4079	332.5867	406.1824	437.4242	470.6087	566.4809	625.2102	711.6638	731.797	740.1386	780.5212	808.7404	877.8892	901.2517	936.0892	964.5012	997.8079	1042.6583	1069.4787	1088.8763	1100.2076	1162.308	1178.3148	1200.147	1239.0018	1254.2501	1264.9125	1278.4828	1317.0413	1331.0763	1390.4854	1416.6645	1468.0616	1495.3968	1521.8939	1858.067	2972.0465	3022.8193	3045.6476	3093.6479	3131.7663	3136.9069	3188.7235	3549.113
O=C1C2C3CNC1CN23	O=C1[C@H]2[C@H]3CN[C@@H]1CN23	
InChI=1S/C6H8N2O/c9-6-3-2-8-4(1-7-3)5(6)8/h3-5,7H,1-2H2	InChI=1S/C6H8N2O/c9-6-3-2-8-4(1-7-3)5(6)8/h3-5,7H,1-2H2/t3-,4-,5-,8?/m1/s1
