18
gdb 6569	2.95318	2.02167	1.51327	2.3124	68.01	-0.2432	0.0707	0.3139	891.1229	0.152614	-384.891225	-384.88314	-384.882195	-384.922941	31.611	
C	-0.1366384039	 1.5684795944	-0.0034224719	-0.447738
C	 0.0405595654	 0.0590218465	 0.0207305002	-0.016827
C	 1.2000818578	-0.652224046	-0.7343135022	 0.401982
O	 1.3422158655	-0.591022925	-2.1059622528	-0.474642
C	 2.1949880282	-0.1578627762	 0.3649908695	-0.376329
C	 0.9070954507	-0.6572070558	 1.0961668901	 0.402008
O	 0.6138904357	-0.6033895745	 2.443943333	-0.474649
C	 0.9288377018	-1.9055316723	 0.1575509943	-0.362869
H	 0.7939608371	 2.12109617	 0.1453354746	 0.117243
H	-0.5576260025	 1.8820076417	-0.9642668564	 0.124311
H	-0.8341684308	 1.8775145408	 0.7818916182	 0.124348
H	-0.9265167689	-0.4331507974	-0.1353693232	 0.066896
H	 2.1277835384	-1.0888466012	-2.3561399125	 0.283711
H	 3.0952765596	-0.7648599549	 0.5074302929	 0.077437
H	 2.4255514347	 0.9065818511	 0.4048139569	 0.099761
H	 1.2829059586	-1.1026209449	 2.92427538	 0.283713
H	-0.0225123303	-2.4207994651	 0.0038727829	 0.095444
H	 1.762104143	-2.6031802712	 0.2890175366	 0.076199
152.3144	186.2005	234.7082	240.4629	257.9568	295.8679	375.8904	443.9219	487.8237	549.4952	600.627	614.2594	662.7666	737.7485	770.1785	819.2287	973.049	984.9686	991.2321	1070.1464	1079.6079	1099.8758	1118.7645	1121.3568	1125.3335	1154.6382	1164.5186	1164.9246	1278.8275	1333.216	1346.805	1386.0007	1411.8324	1439.5686	1486.3588	1493.9304	1511.1284	1557.2459	3035.6597	3040.9459	3041.4956	3053.4316	3100.9207	3115.2833	3119.4071	3139.0141	3810.1324	3810.7734
CC1C2(O)CC1(O)C2	C[C@H]1[C@@]2(O)C[C@]1(O)C2	
InChI=1S/C6H10O2/c1-4-5(7)2-6(4,8)3-5/h4,7-8H,2-3H2,1H3	InChI=1S/C6H10O2/c1-4-5(7)2-6(4,8)3-5/h4,7-8H,2-3H2,1H3/t4-,5-,6+
