15
gdb 62419	2.55282	1.5247	1.36948	4.0966	73.1	-0.2494	-0.0165	0.2328	1000.6456	0.110673	-416.713914	-416.705582	-416.704637	-416.74662	31.488	
O	 0.0575879741	 1.4382305525	-0.0668793008	-0.457957
C	 0.0080381427	 0.0301393169	-0.0098387775	 0.11638
C	 0.887052319	-0.511145516	 1.0174755645	 0.274617
C	 1.6065647615	-0.9209173763	 1.8890164678	-0.454396
C	-1.372562314	-0.660248156	-0.0499620955	-0.066594
C	-2.0906612305	-0.3156998805	-1.283450068	-0.258015
N	-1.0363956537	-1.36931788	-1.3663870675	-0.139293
C	 0.208717499	-0.6371355062	-1.4011551538	 0.347341
N	 1.0847555226	-0.6621743111	-2.2947320604	-0.505681
H	 0.1338214908	 1.7752098502	 0.8330398619	 0.291216
H	 2.2500328972	-1.2948971116	 2.6474720846	 0.210687
H	-1.8087326824	-1.210968755	 0.7742195162	 0.115993
H	-3.0879564357	-0.7208141969	-1.4164233964	 0.137938
H	-1.9088566585	 0.6411220749	-1.7635605405	 0.147814
H	 1.8709041578	-0.0596571348	-2.0436114247	 0.239949
103.8748	128.8998	175.0596	224.6425	270.9754	287.9605	390.0557	473.5783	503.2577	564.3586	637.8564	659.1138	677.5101	703.2462	736.4278	783.0547	844.2624	871.5127	927.1637	974.1005	1024.0545	1055.1204	1095.1226	1115.9409	1136.2059	1160.2485	1215.1787	1280.5671	1321.5388	1375.993	1501.5435	1811.0719	2232.0036	3128.0495	3197.0584	3222.4385	3471.5821	3497.4536	3801.8197
OC1(C#C)C2CN2C1=N	O[C@@]1(C#C)[C@H]2CN2[C]1[NH]	
InChI=1S/C6H6N2O/c1-2-6(9)4-3-8(4)5(6)7/h1,4,7,9H,3H2	InChI=1S/C6H6N2O/c1-2-6(9)4-3-8(4)5(6)7/h1,4,7,9H,3H2/t4-,6+,8?/m1/s1
