14
gdb 20443	6.26151	1.46386	1.29543	4.2419	65.18	-0.2455	-0.0136	0.2319	916.9722	0.109139	-378.684136	-378.677667	-378.676723	-378.715425	23.773	
C	 0.3087046661	 1.5537962769	 0.1450017924	-0.231769
N	 1.2254509706	 0.4544236195	-0.1649139819	-0.2986
C	-0.2070484137	 0.1572137308	 0.0597307079	-0.155249
C	-0.5584478345	-0.6266901635	 1.25316295	 0.497331
C	-1.4343623869	-1.6521930694	 1.4509659454	-0.355243
C	-1.3047613452	-1.9329679083	 2.8358461697	 0.036595
N	-0.4340956243	-1.1498527	 3.4227419491	-0.13765
O	 0.041429503	-0.3137535605	 2.4140081407	-0.209969
H	 0.4527993251	 1.997830205	 1.1247685641	 0.145018
H	 0.0170820514	 2.2457231688	-0.6408111887	 0.11932
H	 1.4224830084	 0.4266725202	-1.1621583546	 0.239601
H	-0.814507447	-0.0936508043	-0.8053831412	 0.100373
H	-2.0668774881	-2.1328987934	 0.7237740939	 0.117709
H	-1.8157954548	-2.6808361517	 3.4258703631	 0.132531
59.9844	168.0834	180.0696	409.3707	420.5374	645.0209	648.5482	722.8076	800.5135	850.4295	888.4769	905.1094	916.0402	929.0112	947.1046	972.3217	1014.7446	1054.0756	1098.6382	1127.4409	1166.6625	1208.7937	1238.3129	1285.0611	1297.2336	1362.1116	1422.2488	1505.7149	1523.2529	1637.6938	3114.8036	3149.9389	3209.3238	3243.5317	3280.267	3503.4153
C1NC1C1=CC=NO1	C1N[C@H]1c1ccno1	
InChI=1S/C5H6N2O/c1-2-7-8-5(1)4-3-6-4/h1-2,4,6H,3H2	InChI=1S/C5H6N2O/c1-2-7-8-5(1)4-3-6-4/h1-2,4,6H,3H2/t4-/m1/s1
