13
gdb 19488	3.79182	2.05684	1.89676	1.4766	62.77	-0.2375	0.0067	0.2442	738.005	0.09606	-361.415872	-361.409531	-361.408586	-361.446309	24.264	
C	-0.0255367627	-1.2186043051	-0.0113902828	-0.434623
C	 0.010040009	-0.0169152986	 0.0093972917	 0.352773
C	 0.0457077352	 1.4114985397	 0.0429610414	-0.292259
C	 0.4937253497	 2.1819990833	 1.2728461424	 0.047169
O	 1.2495913473	 1.4597589201	 2.2243881848	-0.200553
C	 2.3892104253	 1.0995742912	 1.5720977055	 0.102872
N	 2.5607311764	 1.4967209199	 0.3760478923	-0.247423
C	 1.360206565	 2.2134992177	 0.0315710717	-0.041388
H	-0.0566057353	-2.2795299191	-0.0380849124	 0.198717
H	-0.7555929683	 1.9125445752	-0.4936163947	 0.125715
H	-0.101739521	 2.9739371507	 1.7074571145	 0.123905
H	 3.0736128243	 0.4956938427	 2.1534495847	 0.150927
H	 1.4560459751	 3.0439572923	-0.656354679	 0.114169
127.0832	148.2832	328.9688	353.4188	504.4605	583.3871	632.7066	665.0458	684.834	741.9691	763.1548	793.6397	877.8842	940.4383	943.5668	979.544	1008.2569	1066.285	1081.2471	1097.8022	1121.802	1178.8439	1283.961	1324.5101	1353.57	1386.3674	1664.937	2239.48	3145.3027	3192.0753	3203.8104	3243.7424	3504.9627
C#CC1C2OC=NC12	C#C[C@H]1[C@H]2OC=N[C@@H]12	
InChI=1S/C6H5NO/c1-2-4-5-6(4)8-3-7-5/h1,3-6H	InChI=1S/C6H5NO/c1-2-4-5-6(4)8-3-7-5/h1,3-6H/t4-,5+,6-/m1/s1
