17
gdb 32162	2.83778	1.23619	0.88423	2.6711	79.85	-0.2132	-0.0176	0.1956	1271.9552	0.138164	-418.059334	-418.051044	-418.050099	-418.092499	31.457	
N	-0.1285027538	 1.3536268514	-0.0645410075	-0.590562
C	-0.0503309429	-0.0356302956	-0.0473777002	 0.283553
C	-1.189241997	-0.8405445468	-0.1245757262	-0.231092
C	-1.0612938103	-2.2243434116	-0.0375266495	 0.213523
C	-2.2815925261	-3.1173365998	-0.0929053632	-0.16054
O	-3.2835916768	-2.6507738919	-0.9850926018	-0.407922
C	 0.2194799692	-2.7571253016	 0.110493543	-0.093536
N	 1.3219289014	-2.0069629832	 0.1846506427	-0.263587
C	 1.1849176152	-0.688101677	 0.1090730258	-0.049432
H	 0.7183068765	 1.8275384747	-0.3427966635	 0.25071
H	-0.941065806	 1.7344270363	-0.5265389991	 0.249844
H	-2.173007882	-0.3999225633	-0.2572569455	 0.102331
H	-1.973871289	-4.1469143988	-0.330242832	 0.098902
H	-2.768926121	-3.1502537756	 0.8887583731	 0.128298
H	-2.8890716101	-2.6036165141	-1.8625440499	 0.283341
H	 0.3624725038	-3.8342072034	 0.1666407349	 0.094636
H	 2.0987173989	-0.0976827295	 0.1705531388	 0.091534
55.2731	154.1182	220.4811	235.5023	304.5074	338.0765	376.3637	431.5411	470.2565	540.4488	549.7065	597.2164	639.7819	738.2301	748.3694	889.5435	926.5968	939.6281	976.0744	1004.6089	1029.3362	1065.4727	1104.1156	1181.9375	1203.9169	1211.6199	1306.6216	1324.0588	1358.0923	1383.7917	1415.8471	1481.1054	1496.694	1508.9934	1609.7496	1637.1925	1658.5289	2991.8032	3054.313	3126.9376	3145.8291	3174.8501	3566.3083	3665.7806	3807.8218
NC1=CC(CO)=CN=C1	Nc1cc(CO)cnc1	
InChI=1S/C6H8N2O/c7-6-1-5(4-9)2-8-3-6/h1-3,9H,4,7H2	InChI=1S/C6H8N2O/c7-6-1-5(4-9)2-8-3-6/h1-3,9H,4,7H2
