17
gdb 15623	3.41438	1.76732	1.27292	3.7292	71.48	-0.2408	-0.0184	0.2224	976.6147	0.143123	-363.923138	-363.915138	-363.914194	-363.955845	29.05	
C	-0.2314059879	 1.515011476	-0.0649261475	-0.380392
C	 0.0995785348	 0.0147272563	 0.0333927715	-0.287598
C	 0.7970818937	-0.4998433352	-1.1851535375	 0.236928
C	 2.0463441394	-0.9458158855	-1.3483633541	-0.210144
C	 2.2907120503	-1.3586465752	-2.7770472388	-0.205122
N	 1.013680689	-1.0820276866	-3.3909977297	-0.32952
C	 0.0864217222	-0.5826374191	-2.5067981043	 0.360721
O	-1.0644475038	-0.2803909257	-2.7560130506	-0.391456
H	 0.6804781531	 2.1129702332	-0.1614726001	 0.111445
H	-0.8631742258	 1.7043628356	-0.9357265047	 0.15182
H	-0.7649127694	 1.8499749115	 0.8296228584	 0.111483
H	 0.711999228	-0.1826917276	 0.9198980267	 0.097632
H	-0.8381438653	-0.5410769831	 0.1552322577	 0.122864
H	 2.8149539533	-1.0233405928	-0.5894832854	 0.109427
H	 3.1074100642	-0.7803294358	-3.2340136781	 0.124203
H	 2.5674256934	-2.4208668902	-2.8506768728	 0.124221
H	 0.7917484907	-1.2527088158	-4.3565638305	 0.253489
70.5033	105.351	159.6565	207.0562	285.2545	322.5349	419.4996	472.4015	504.8167	617.7106	743.3929	775.5631	799.3361	810.9627	841.978	953.5934	959.6926	1014.7379	1055.0679	1085.9026	1099.2327	1171.6159	1185.7025	1228.2768	1278.5622	1317.6433	1353.9187	1371.3047	1403.3763	1425.6638	1474.7154	1497.2376	1501.3394	1512.7137	1705.3518	1809.137	2994.1643	3014.3288	3031.0042	3040.9077	3072.3719	3108.4517	3134.4425	3211.9869	3675.0627
CCC1=CCNC1=O	CCC1=CCNC1=O	
InChI=1S/C6H9NO/c1-2-5-3-4-7-6(5)8/h3H,2,4H2,1H3,(H,7,8)	InChI=1S/C6H9NO/c1-2-5-3-4-7-6(5)8/h3H,2,4H2,1H3,(H,7,8)
