20
gdb 110487	3.19701	1.52803	1.35335	0.531	83.31	-0.2026	0.0096	0.2123	1039.7884	0.17223	-365.966422	-365.958863	-365.957919	-365.998304	30.797	
C	 0.0435569652	 1.4961520031	 0.1577526088	-0.383981
C	 0.0473539516	 0.0021362138	-0.155187443	-0.119359
N	-1.279723257	-0.5808966176	 0.0192850562	-0.073425
C	-1.464997885	-1.9796298356	-0.2379860454	-0.023012
C	-1.1375080131	-2.9119266161	 1.0187072754	-0.10396
C	-0.3678760068	-2.3019354365	 2.1235169658	-0.070947
C	-0.8743061944	-1.0920721274	 2.4165403579	-0.116274
C	-1.9352469113	-0.7634771316	 1.3984701869	-0.058615
C	-2.4322775679	-2.1514232625	 0.8794880939	-0.11763
H	 1.0244259811	 1.9365219676	-0.0449938582	 0.111724
H	-0.7045726701	 2.0166908247	-0.4472028579	 0.12254
H	-0.1896418131	 1.6779681025	 1.2124368674	 0.115385
H	 0.308341653	-0.1560577935	-1.2098759492	 0.095592
H	 0.8209047915	-0.5106431204	 0.4380223152	 0.08643
H	-1.427565589	-2.3900144819	-1.2413474076	 0.097775
H	-1.1106536345	-3.9747756733	 0.809624544	 0.081578
H	 0.5102727006	-2.7551991685	 2.5677978991	 0.096229
H	-0.463895543	-0.3764198399	 3.1179923424	 0.094139
H	-2.64840475	 0.0263014714	 1.6316173301	 0.07305
H	-3.4346718677	-2.5583423783	 0.9068372783	 0.092761
89.5442	156.6221	200.9595	284.4276	354.5715	459.4736	496.4377	589.9414	636.6469	675.0609	730.4805	767.502	795.5477	815.9418	819.0959	831.4628	880.6874	917.813	930.2433	953.0355	980.5041	1002.8444	1032.6406	1042.371	1085.2274	1094.5209	1121.7469	1131.3624	1171.9505	1200.6035	1219.2014	1238.5677	1275.9064	1300.0093	1319.4072	1358.9141	1376.559	1389.7502	1409.5994	1489.2193	1495.8396	1509.364	1618.8485	2979.2238	3033.5847	3037.7594	3103.3685	3114.6432	3116.2071	3168.5673	3183.4388	3194.793	3198.8345	3219.5031
CCN1C2C3C=CC1C23	CCN1[C@H]2[C@H]3C=C[C@@H]1[C@@H]23	
InChI=1S/C8H11N/c1-2-9-6-4-3-5-7(6)8(5)9/h3-8H,2H2,1H3	InChI=1S/C8H11N/c1-2-9-6-4-3-5-7(6)8(5)9/h3-8H,2H2,1H3/t5-,6+,7-,8-/m0/s1
