17
gdb 78831	3.60852	1.30398	1.13313	1.6593	77.86	-0.2414	0.056	0.2974	1089.9019	0.135608	-384.59897	-384.591304	-384.59036	-384.630867	30.64	
O	-0.052449205	 1.4846983116	-0.2303455518	-0.431374
C	-0.0353588519	 0.0814493185	-0.1045774941	 0.118948
C	-1.3852707137	-0.6057127238	-0.0950865635	-0.109588
C	-1.7806904846	-0.873769892	-1.5496946886	-0.062367
C	-0.8157657254	-1.7925773826	-0.8492692432	-0.080811
C	 0.3068511131	-0.8021241913	-1.3429485851	-0.118634
C	-0.6766718886	-0.2792609901	-2.4427812432	-0.188836
C	-0.5350990195	-0.9490438499	-3.7220513847	 0.306512
C	-0.4118180709	-1.4989613937	-4.7846409106	-0.44402
H	 0.8503364201	 1.8103496485	-0.1549279224	 0.283043
H	 0.5605946279	-0.2387140732	 0.7611419761	 0.070557
H	-2.1245448599	-0.6085058509	 0.6951752505	 0.091643
H	-2.8085957168	-1.0683924731	-1.8247410138	 0.09641
H	-0.8326217438	-2.8492887569	-0.6334759881	 0.096919
H	 1.3326279933	-1.0533495738	-1.6021925967	 0.077189
H	-0.6828707164	 0.8086563142	-2.5683006592	 0.106258
H	-0.307395648	-1.9804630814	-5.7249644716	 0.188151
119.248	150.5864	221.6189	274.3914	299.4085	414.5239	504.725	525.9331	585.4343	612.0743	628.709	727.1822	784.6642	804.6847	817.9378	839.497	905.3015	928.2312	961.5098	978.9846	1015.7503	1023.1964	1033.7082	1042.6866	1077.2444	1132.1985	1144.8112	1168.0457	1192.4677	1218.4483	1233.7413	1275.7684	1319.9253	1349.3619	1362.5199	1431.2152	2234.0418	3010.3969	3054.7967	3146.249	3200.3456	3209.9485	3242.6371	3505.613	3815.2704
OC1C2C3C2C1C3C#C	O[C@H]1[C@H]2[C@@H]3[C@H]2[C@H]1[C@H]3C#C	
InChI=1S/C8H8O/c1-2-3-4-6-5(3)8(9)7(4)6/h1,3-9H	InChI=1S/C8H8O/c1-2-3-4-6-5(3)8(9)7(4)6/h1,3-9H/t3-,4-,5+,6-,7-,8+/m0/s1
