17
gdb 86705	2.03986	1.59477	1.13095	5.9088	69.89	-0.2382	-0.0313	0.2069	1109.8204	0.1333	-458.958105	-458.949073	-458.948129	-458.992458	32.196	
O	-0.4066308612	 1.2229500308	 1.1439154919	-0.423578
C	-0.0119250565	 0.1838340938	 0.2684513732	 0.098379
C	 0.4297792388	-1.1168316185	 0.9898577748	-0.270156
C	-1.0158095386	-1.7056597774	 0.8256211633	-0.110585
C	-1.8049999322	-1.6412681151	 2.1178232073	 0.169899
O	-2.2749814537	-2.6123280904	 2.6530482113	-0.264836
C	-1.2873432303	-0.5716564259	-0.2086192853	-0.111317
C	-2.5899777264	 0.1835467605	-0.1737155546	 0.158169
O	-3.5311356485	-0.121607221	 0.5125401113	-0.236594
H	 0.3719958801	 1.5439437884	 1.6107953042	 0.292285
H	 0.6564836294	 0.5598292274	-0.5159515682	 0.077295
H	 1.1690305607	-1.6871460506	 0.4230180756	 0.118217
H	 0.7918030195	-0.9832929503	 2.0131487618	 0.113466
H	-1.0746052894	-2.7251734994	 0.4432725448	 0.096166
H	-1.8541119095	-0.6357868985	 2.5835905226	 0.091809
H	-1.1373220158	-0.9318699248	-1.2333577793	 0.109977
H	-2.6334442663	 1.0626268008	-0.8533933347	 0.091402
62.3198	96.7954	110.3277	186.0591	218.1264	284.3181	312.3198	340.6337	391.5934	435.8216	514.3587	691.0699	724.407	806.3542	859.4738	905.2823	927.487	947.4507	974.2399	1051.5065	1054.5671	1075.5395	1137.5265	1152.0671	1201.7511	1226.1539	1238.8099	1268.8764	1293.1447	1319.2387	1338.504	1406.4668	1416.8827	1428.5507	1469.4016	1821.7795	1829.3739	2893.6793	2925.4098	3019.8606	3048.0215	3061.4279	3108.688	3121.9972	3814.1575
OC1CC(C=O)C1C=O	O[C@H]1C[C@@H](C=O)[C@H]1C=O	
InChI=1S/C6H8O3/c7-2-4-1-6(9)5(4)3-8/h2-6,9H,1H2	InChI=1S/C6H8O3/c7-2-4-1-6(9)5(4)3-8/h2-6,9H,1H2/t4-,5+,6-/m0/s1
