21
gdb 107061	3.79403	1.07617	0.95742	2.038	77.53	-0.2473	0.0788	0.3261	1306.4923	0.182491	-424.230585	-424.221553	-424.220609	-424.264395	34.559	
C	 0.4582785593	 1.4677851476	 0.1968310856	-0.381496
C	-0.1032791921	 0.0739435764	-0.1140257652	-0.277687
C	 0.4396179959	-0.5060993552	-1.3963595472	 0.431661
C	 0.1046734993	 0.108064447	-2.7523439888	-0.289196
C	 0.6665965241	-0.8990785306	-3.7782065637	-0.254551
C	 0.666664413	-2.280950045	-3.0702618834	 0.136007
O	 1.6908220603	-3.1543416038	-3.5088956234	-0.440398
C	 0.7500574041	-1.926232033	-1.5969278089	-0.073102
O	 1.8056159298	-0.9784103821	-1.337273565	-0.316878
H	 1.5500308039	 1.4353764571	 0.2598591619	 0.134044
H	 0.1859433632	 2.1941897142	-0.5755088916	 0.118358
H	 0.072871351	 1.8379818066	 1.1511695649	 0.11453
H	 0.1387850937	-0.6103288138	 0.7061127203	 0.10705
H	-1.1979479362	 0.1172736359	-0.1819689057	 0.099641
H	-0.9856312303	 0.1977318055	-2.8349207775	 0.103338
H	 0.5224397129	 1.1119300796	-2.8762925801	 0.109494
H	 0.1043301066	-0.916324287	-4.7140892831	 0.103711
H	 1.7013029299	-0.644809694	-4.0232965719	 0.109495
H	-0.2712882553	-2.8177218773	-3.2571676998	 0.088308
H	 2.5268828622	-2.7487713631	-3.2493469127	 0.286006
H	 0.6042223848	-2.6849997249	-0.8316025649	 0.091662
66.1514	108.6783	156.4924	197.183	238.0118	302.9534	362.9373	400.4431	412.0839	426.6686	566.1481	602.6879	658.3431	691.9982	777.9878	848.5022	857.4137	869.5352	943.0013	957.3406	974.9888	1022.9197	1054.1073	1059.051	1079.3481	1101.942	1108.1597	1174.7813	1214.8392	1231.6818	1268.8962	1280.7324	1301.8676	1319.129	1339.5143	1350.7914	1367.7	1408.9225	1432.6929	1457.7575	1475.2231	1485.9222	1494.3823	1499.6934	1508.9223	3026.7741	3035.5421	3040.3287	3043.0278	3067.3397	3071.6403	3083.3667	3109.6714	3116.8227	3118.0392	3144.4805	3788.6167
CCC12CCC(O)C1O2	CC[C@]12CC[C@@H](O)[C@H]1O2	
InChI=1S/C7H12O2/c1-2-7-4-3-5(8)6(7)9-7/h5-6,8H,2-4H2,1H3	InChI=1S/C7H12O2/c1-2-7-4-3-5(8)6(7)9-7/h5-6,8H,2-4H2,1H3/t5-,6-,7+/m1/s1
