20
gdb 66437	2.4375	1.74145	1.38477	1.8685	83.01	-0.2015	0.0776	0.2791	1057.9586	0.168667	-365.914353	-365.905487	-365.904543	-365.947132	34.19	
C	 0.0615930199	 1.5097492084	 0.096621733	-0.523966
C	-0.020692066	 0.0293216358	-0.0593091627	 0.302371
C	 0.8358857259	-0.9582025827	-0.7695608957	-0.116698
C	-0.3129427418	-1.9891163047	-0.7996353491	-0.229877
C	-0.3320359151	-1.927138299	 0.7116098685	 0.334291
C	-0.5852680354	-2.9343304106	 1.7779576482	-0.519991
N	 0.8298888083	-0.9266374211	 0.7408331281	-0.255122
C	-1.215138494	-0.9770688899	-0.0643848391	 0.235363
C	-2.6972448971	-0.8039272534	-0.1199234084	-0.528872
H	 1.1098980138	 1.818387698	 0.1611858648	 0.134172
H	-0.3970993314	 2.0275746595	-0.7532357994	 0.120156
H	-0.4426482661	 1.8416210194	 1.0113871014	 0.124029
H	 1.7485296305	-0.8400370903	-1.3433723377	 0.089471
H	-0.5973972941	-2.7763620882	-1.4847537819	 0.086954
H	 0.2649368415	-3.6177966946	 1.8810162111	 0.130252
H	-0.7471986546	-2.4477554346	 2.7465150431	 0.127189
H	-1.4732807384	-3.5307159692	 1.542859493	 0.120854
H	-3.0686049516	-0.21238044	 0.7253080632	 0.123254
H	-3.0126194293	-0.3025489335	-1.0427016878	 0.12283
H	-3.2011946851	-1.7763702092	-0.0869564925	 0.12334
169.1488	174.4149	190.966	197.152	199.2564	206.2159	299.8243	333.5706	384.0365	554.2712	621.5183	647.8257	680.8766	747.8451	759.7569	825.0933	841.5647	864.0729	894.2151	915.378	952.0991	991.9681	1013.7832	1082.5118	1098.976	1109.8075	1122.2474	1149.1481	1171.5342	1235.7073	1245.8956	1324.898	1392.0794	1404.6183	1414.4295	1429.6102	1472.7587	1477.3359	1478.4526	1485.3434	1490.513	1495.4249	1509.8724	3016.9712	3024.267	3025.4557	3074.6338	3087.1296	3087.5149	3088.3234	3099.9386	3104.8262	3166.0439	3204.9489
CC12C3C4C(C)(N13)C24C	C[C@@]12[C@@H]3[C@H]4[C@@](C)(N13)[C@@]24C	
InChI=1S/C8H11N/c1-6-4-5-8(6,3)9(5)7(4,6)2/h4-5H,1-3H3	InChI=1S/C8H11N/c1-6-4-5-8(6,3)9(5)7(4,6)2/h4-5H,1-3H3/t4-,5+,6+,7-,8+,9?/m1/s1
