12
gdb 49956	2.56785	1.3173	1.00539	1.9959	66.65	-0.3028	-0.0602	0.2426	1119.4334	0.076041	-431.660959	-431.652677	-431.651733	-431.694437	28.4	
O	 0.1867765128	 0.1753108276	-0.6643910283	-0.24686
C	 0.1048674941	 1.2824799879	-0.2133938323	 0.15124
N	 1.128312065	 1.8750584889	 0.5517814897	-0.090175
C	 2.5163169835	 1.7900196599	 0.218006574	-0.242329
C	 1.7843259388	 3.1324652501	 0.197338129	 0.006837
C	 1.515693302	 3.7251711882	-1.0982299012	 0.272936
N	 1.2854526647	 4.1882605154	-2.1312956295	-0.305163
C	 1.988290513	 4.0800272187	 1.2757421776	 0.277383
N	 2.1690065692	 4.8265730908	 2.1377230942	-0.302462
H	-0.7866088787	 1.928159703	-0.278150789	 0.129693
H	 3.2035392155	 1.6079698003	 1.0381193417	 0.172039
H	 2.7828165101	 1.3675916891	-0.7472309359	 0.17686
81.0029	124.2861	138.7248	177.5012	218.7461	281.1439	337.9443	476.6914	491.2961	558.027	593.4369	595.7435	741.445	845.8648	916.1777	957.084	1032.2397	1094.9097	1131.2265	1150.9963	1235.0793	1370.9559	1409.492	1498.8911	1824.7346	2364.3411	2372.7065	3009.988	3122.2632	3225.2043
O=CN1CC1(C#N)C#N	O=CN1CC1(C#N)C#N	
InChI=1S/C5H3N3O/c6-1-5(2-7)3-8(5)4-9/h4H,3H2	InChI=1S/C5H3N3O/c6-1-5(2-7)3-8(5)4-9/h4H,3H2
