18
gdb 84909	2.7156	1.32181	1.04008	2.1368	73.73	-0.2493	-0.0371	0.2122	1161.5922	0.14788	-439.104508	-439.095944	-439.094999	-439.138264	31.189	
C	-0.111499593	 1.5202418054	 0.0185856101	-0.401772
C	 0.0487596435	-0.0062163919	 0.0673696353	 0.026446
N	 0.6285133294	-0.4751531775	-1.1867350376	-0.267701
C	 1.8289625745	-0.8694305906	-1.2077844341	 0.127192
O	 2.7398581946	-0.9163798989	-0.2062371165	-0.221498
C	 2.3405312291	-0.331418832	 1.0360636771	-0.093135
C	 0.8471479862	-0.5420134074	 1.2962353588	-0.132077
C	 0.4056852891	 0.1102869649	 2.5867444758	 0.148119
O	-0.3883846316	-0.3727643791	 3.3530038111	-0.251847
H	 0.8554149988	 2.0332096638	 0.0458302683	 0.117714
H	-0.6041411647	 1.796290597	-0.9167675804	 0.14123
H	-0.7218161297	 1.8833718388	 0.851367183	 0.126138
H	-0.9562671879	-0.4389440376	 0.12634162	 0.107762
H	 2.2738912024	-1.2533234549	-2.1237716424	 0.130277
H	 2.9594688789	-0.8065092726	 1.8010874472	 0.131489
H	 2.5860083685	 0.738780035	 1.0148362448	 0.119547
H	 0.6408627232	-1.6131945457	 1.3851700269	 0.11458
H	 0.8569505088	 1.1092269832	 2.7903933327	 0.077535
63.3515	93.92	142.4636	233.6869	274.5761	278.6874	328.3399	410.1551	439.4298	507.898	585.6269	620.3225	762.2988	845.1067	878.9523	954.0105	966.1923	977.4268	1004.7651	1026.5397	1090.9508	1119.5558	1142.0385	1150.2392	1190.1437	1256.2736	1279.9023	1333.2061	1339.4763	1366.5639	1403.5111	1406.9385	1422.9419	1438.7228	1487.0857	1496.6956	1511.5896	1732.2177	1825.6221	2858.4281	3021.2735	3037.2637	3040.3272	3070.1493	3099.1542	3108.5035	3126.2526	3163.0955
CC1N=COCC1C=O	C[C@H]1N=COC[C@H]1C=O	
InChI=1S/C6H9NO2/c1-5-6(2-8)3-9-4-7-5/h2,4-6H,3H2,1H3	InChI=1S/C6H9NO2/c1-5-6(2-8)3-9-4-7-5/h2,4-6H,3H2,1H3/t5-,6-/m1/s1
