16
gdb 18150	3.25645	1.98696	1.5961	3.667	64.91	-0.2475	-0.0283	0.2192	844.1381	0.129009	-383.696881	-383.689427	-383.688483	-383.728618	27.529	
C	-0.0894244439	 1.525350539	-0.1931865942	-0.435322
C	 0.0257495186	 0.032009199	 0.0183216797	-0.01675
C	 1.288899599	-0.7453486279	-0.1535301711	 0.083715
O	 2.4360004693	 0.0060239767	 0.272489776	-0.27872
C	 1.9705718598	-0.0315371581	 1.6320227482	 0.041665
C	 1.9578464021	 1.2701786672	 2.395141102	 0.149501
O	 2.3245224098	 2.3384979429	 1.9837038151	-0.23971
C	 0.6406550512	-0.680198856	 1.2185355986	-0.195266
H	 0.8676458999	 2.022129658	-0.0290446673	 0.166078
H	-0.407556818	 1.732002078	-1.2204720153	 0.116343
H	-0.8302525506	 1.9678291127	 0.48089922	 0.11589
H	-0.8335152197	-0.5416900684	-0.3283402828	 0.095247
H	 1.462947084	-1.5656711728	-0.8401139684	 0.108804
H	 2.5735331942	-0.7423372623	 2.2214500485	 0.106539
H	 1.5719871413	 1.1419065234	 3.4354654106	 0.076447
H	 0.1226885029	-1.4409073513	 1.7861749005	 0.105538
104.7056	151.7112	185.7387	241.1081	274.8211	296.8848	471.9112	603.3329	687.9644	707.6557	727.3091	818.8137	842.423	881.4976	985.2401	992.9143	1003.8514	1038.9751	1060.7371	1064.9261	1097.1387	1118.9199	1146.5643	1205.5823	1232.913	1270.1283	1324.4998	1359.9173	1413.3832	1421.2631	1439.7173	1498.745	1508.9316	1840.1394	2843.6284	2973.2135	3038.9987	3095.5734	3117.0781	3150.4573	3181.4654	3207.6253
CC1C2OC(C=O)C12	C[C@H]1[C@H]2O[C@@H](C=O)[C@@H]12	
InChI=1S/C6H8O2/c1-3-5-4(2-7)8-6(3)5/h2-6H,1H3	InChI=1S/C6H8O2/c1-3-5-4(2-7)8-6(3)5/h2-6H,1H3/t3-,4+,5-,6-/m1/s1
