19
gdb 32603	2.77435	1.24102	0.91902	3.7354	79.76	-0.1838	0.0443	0.2281	1314.0587	0.159516	-419.281615	-419.272187	-419.271243	-419.316371	34.224	
C	 0.0205792833	 1.562138638	 0.1676757302	-0.374194
C	-0.0418976554	 0.054155598	-0.0880555719	-0.155213
N	-1.3848921458	-0.485782589	-0.0030973467	-0.087725
C	-2.1284012856	-0.7281796475	 1.1537072556	-0.216639
C	-3.3405216628	-1.2020101207	 0.7929368435	 0.322991
C	-4.5092434378	-1.6271248246	 1.6092763755	-0.496996
N	-3.3421668783	-1.2443785535	-0.6034139305	-0.421353
C	-2.1363104226	-0.8004592262	-1.1297675934	 0.45856
O	-1.8074509263	-0.7080600154	-2.2996569506	-0.452074
H	 1.0535767766	 1.9161623751	 0.0930536353	 0.118463
H	-0.582432697	 2.1008529192	-0.568516878	 0.137964
H	-0.3525310707	 1.8125245523	 1.1658931349	 0.116903
H	 0.3070417047	-0.1745040919	-1.0983286838	 0.146785
H	 0.6002794006	-0.4823380691	 0.6203541514	 0.107472
H	-1.7238158584	-0.5522833602	 2.1362512012	 0.130405
H	-5.4023834369	-1.0304375335	 1.3851823518	 0.132384
H	-4.7687489222	-2.6790214762	 1.4356740533	 0.132524
H	-4.2867416259	-1.5090054765	 2.6723779148	 0.13776
H	-4.0954886395	-1.5509765983	-1.1932086724	 0.261984
43.5192	89.4841	167.9157	181.9216	203.8705	266.6133	278.1815	313.7904	371.694	438.8376	546.4965	592.6714	620.2588	675.2844	697.4415	759.5857	791.0021	836.1021	967.0834	991.9044	1021.3746	1066.5643	1093.0316	1100.1057	1173.3152	1190.255	1256.8842	1279.4915	1376.5175	1398.4014	1407.1873	1411.6151	1424.9366	1435.9088	1475.6294	1483.0491	1491.4716	1501.9566	1503.182	1693.9578	1818.7752	3017.5065	3036.109	3039.096	3061.8436	3099.0233	3114.9783	3122.1641	3125.1785	3275.0651	3691.3787
CCN1C=C(C)NC1=O	CCn1cc(C)[nH]c1=O	
InChI=1S/C6H10N2O/c1-3-8-4-5(2)7-6(8)9/h4H,3H2,1-2H3,(H,7,9)	InChI=1S/C6H10N2O/c1-3-8-4-5(2)7-6(8)9/h4H,3H2,1-2H3,(H,7,9)
