17
gdb 28229	4.70669	1.20352	0.97633	2.2606	77.09	-0.1635	0.046	0.2094	1177.2935	0.138938	-418.024556	-418.016654	-418.01571	-418.05696	30.109	
N	 0.1108636595	 1.368661203	-0.2562310836	-0.603585
C	-0.0233536481	-0.0213827945	-0.0712743227	 0.31601
C	-1.142848451	-0.8388309741	-0.0311982305	-0.414505
C	-0.6239447777	-2.158450935	 0.0089585345	 0.400349
C	 0.7368686947	-2.1278982509	-0.0142268939	 0.154243
C	 1.2885823076	-3.4749059466	 0.3281149996	-0.361691
C	-0.0232404387	-4.3008618153	 0.1082205138	-0.080345
O	-1.1574234501	-3.4011014035	 0.2107531696	-0.291013
N	 1.1177600075	-0.7952518122	-0.0137370576	-0.387531
H	-0.7648474194	 1.7761749368	-0.5589571121	 0.247779
H	 0.4007629841	 1.8468883967	 0.5922021479	 0.243919
H	-2.1702831591	-0.5126457922	-0.0104172026	 0.090986
H	 2.0874197309	-3.8505413248	-0.3212192395	 0.104142
H	 1.6512006207	-3.543062728	 1.3650255357	 0.105849
H	-0.0235932586	-4.7328188812	-0.9000450355	 0.108863
H	-0.1654696909	-5.0998245617	 0.8386148903	 0.112574
H	 2.0164681485	-0.4326922765	-0.2832495233	 0.253955
99.0775	135.1615	181.0436	249.0214	297.3169	322.7653	454.0565	507.3235	534.5587	634.8613	676.2706	707.5846	734.9198	743.4493	806.6886	839.1992	863.0436	931.0199	989.1108	1013.5873	1071.958	1117.5134	1141.7704	1186.163	1189.411	1230.6119	1261.0397	1294.9226	1361.8516	1403.9437	1461.3503	1492.3228	1509.159	1519.7479	1553.2453	1634.6265	1658.3119	2980.8561	3024.6116	3047.8365	3110.5364	3256.3282	3490.1367	3601.4825	3666.7835
NC1=CC2=C(CCO2)N1	Nc1cc2c(CCO2)[nH]1	
InChI=1S/C6H8N2O/c7-6-3-5-4(8-6)1-2-9-5/h3,8H,1-2,7H2	InChI=1S/C6H8N2O/c7-6-3-5-4(8-6)1-2-9-5/h3,8H,1-2,7H2
