17
gdb 84750	2.19818	1.88491	1.2322	2.5377	69.52	-0.2568	-0.0317	0.2251	1021.536	0.137305	-455.195181	-455.187003	-455.186059	-455.227724	31.205	
C	 1.0522601219	 1.2267050061	-0.2134027706	-0.390624
C	-0.0039502753	 0.1359444824	 0.0045021738	-0.003602
N	-0.1268991187	-0.6884192545	-1.2062818863	-0.230059
C	 0.5870216873	-1.7322107563	-1.2753235809	 0.081727
N	 1.4535457467	-2.2039394226	-0.2774234964	-0.340828
C	 1.4597734735	-1.6622148535	 0.9854505323	 0.399628
O	 2.2934972492	-1.9168696349	 1.8306291426	-0.374081
C	 0.2778744735	-0.7365523831	 1.2448864736	 0.010621
O	 0.5032924345	 0.0258963515	 2.3979830673	-0.435673
H	 2.0442898364	 0.7940305131	-0.3832346015	 0.117609
H	 0.7909185727	 1.8272149526	-1.0877880177	 0.128625
H	 1.1048839055	 1.8710129851	 0.6661881077	 0.140919
H	-0.9705920461	 0.6251099947	 0.1602554638	 0.101963
H	 0.5762983974	-2.3494900895	-2.172790277	 0.130026
H	 2.1455751623	-2.9086522088	-0.4908093743	 0.264074
H	-0.5946308693	-1.4028477461	 1.3806104238	 0.102514
H	 1.2516150086	-0.3964213362	 2.8477333899	 0.297162
100.6095	137.8553	225.2849	244.8581	291.2273	316.2802	417.0117	461.3538	486.3578	514.3714	561.4538	583.2416	630.2447	691.7432	819.2117	878.4056	900.9046	926.1742	950.0058	1055.9991	1093.5281	1100.6876	1149.7057	1161.8882	1255.0592	1267.7774	1318.7307	1366.0788	1371.6015	1397.7468	1417.4993	1444.2987	1458.6694	1492.8411	1496.3108	1733.7686	1808.1127	2931.7256	3042.5938	3056.005	3116.1233	3142.4753	3144.2761	3604.7562	3705.1008
CC1N=CNC(=O)C1O	C[C@H]1N=CNC(=O)[C@H]1O	
InChI=1S/C5H8N2O2/c1-3-4(8)5(9)7-2-6-3/h2-4,8H,1H3,(H,6,7,9)	InChI=1S/C5H8N2O2/c1-3-4(8)5(9)7-2-6-3/h2-4,8H,1H3,(H,6,7,9)/t3-,4+/m1/s1
