23
gdb 96600	2.16727	1.44302	1.01066	1.5107	81.66	-0.2427	0.0829	0.3256	1260.6816	0.207868	-425.427242	-425.418354	-425.41741	-425.460268	35.313	
O	-0.0833241484	 1.484155804	 0.1191612782	-0.446224
C	-0.01003736	 0.0566087189	 0.0117120127	 0.150929
C	 0.7441432297	-0.4958119696	 1.2399135664	-0.217289
C	 0.6276451415	-1.9981360394	 1.5340756828	-0.227553
C	 1.0909602105	-2.9307696596	 0.4125211812	-0.063613
O	 0.4546756732	-2.7137332434	-0.8340023269	-0.241371
C	-0.9573267041	-2.8860433149	-0.8543774226	-0.073271
C	-1.6692308775	-1.5656727135	-1.1524750099	-0.200842
C	-1.4634099657	-0.4340403424	-0.1323257154	-0.201697
H	 0.8142229444	 1.8160760717	 0.2259988946	 0.273756
H	 0.5369240924	-0.2119047366	-0.9008044779	 0.079121
H	 1.8064927496	-0.228651522	 1.1409499662	 0.082857
H	 0.3652345138	 0.0567506442	 2.108769536	 0.102765
H	 1.2241241415	-2.2336289169	 2.4247908661	 0.096461
H	-0.4069533826	-2.2378421999	 1.8049019554	 0.10324
H	 2.1586383242	-2.7807646433	 0.2147481056	 0.103401
H	 0.9604573637	-3.9774715214	 0.7341099936	 0.086624
H	-1.1928541048	-3.612244621	-1.6442186233	 0.097696
H	-1.3145310253	-3.3162701617	 0.0913104322	 0.090685
H	-1.333157915	-1.2181010581	-2.1376056509	 0.108633
H	-2.7425557004	-1.7753191547	-1.247129334	 0.091688
H	-1.871822349	-0.719142318	 0.8457603017	 0.089883
H	-2.0457135715	 0.4311830877	-0.4633855416	 0.114119
128.8061	150.959	210.629	227.7701	282.5144	308.8047	325.8737	364.8055	413.436	432.1749	464.2022	521.6221	540.3733	764.8202	834.1305	840.073	849.5899	891.6968	906.0036	943.3152	998.9706	1001.6083	1036.8743	1079.954	1081.5218	1105.8698	1135.8624	1174.9083	1205.9029	1241.3882	1248.5432	1264.4127	1295.5363	1300.5782	1321.9834	1350.2361	1356.0836	1386.6442	1390.055	1401.2924	1404.7519	1420.305	1444.3054	1473.6738	1481.0985	1485.2067	1495.3111	1498.4567	1515.2944	2966.6458	2998.7499	2999.8625	3017.305	3019.7007	3027.9363	3032.8807	3039.0344	3051.9243	3056.0469	3064.2089	3076.3228	3085.2506	3809.2452
OC1CCCOCCC1	OC1CCCOCCC1	
InChI=1S/C7H14O2/c8-7-3-1-5-9-6-2-4-7/h7-8H,1-6H2	InChI=1S/C7H14O2/c8-7-3-1-5-9-6-2-4-7/h7-8H,1-6H2
