16
gdb 9895	5.18066	1.12049	1.05248	3.3724	62.67	-0.275	0.0056	0.2805	1121.9188	0.128497	-420.878499	-420.870137	-420.869193	-420.912203	29.787	
O	 0.3225957153	 1.2292013294	-0.357224397	-0.468847
C	 0.152001197	-0.1357296648	-0.0892236048	 0.413655
C	 1.1448722744	-1.0083486246	-0.8150331576	-0.149728
O	 2.4791356028	-0.6764844579	-0.4015022006	-0.185507
C	 3.2170981458	 0.092505184	-1.2274381493	 0.162642
O	 4.2955460608	 0.5074167203	-0.9261399051	-0.275665
C	-0.3707432612	-0.5417329685	 1.264030353	-0.317195
C	-1.2665162562	-0.6014394238	 0.0429524495	-0.30205
H	 1.0503574377	 1.5468115136	 0.1897298387	 0.296497
H	 0.9940963559	-2.0655181595	-0.5823421043	 0.121252
H	 1.0478328114	-0.8667844183	-1.8990108501	 0.119317
H	 2.7200873051	 0.2806843087	-2.1979394214	 0.086878
H	-0.0207317331	-1.4706557366	 1.7007550182	 0.122753
H	-0.554057747	 0.2563406589	 1.9742945541	 0.124304
H	-2.0266147294	 0.163814964	-0.0582358549	 0.133636
H	-1.5375943492	-1.5723475348	-0.3577705785	 0.118059
46.1626	68.9666	146.3233	232.9193	284.2647	325.0407	373.2167	406.8974	428.8175	497.2377	681.7746	749.4201	775.0415	910.9481	915.9068	934.7103	982.7981	1021.3749	1039.415	1046.946	1063.7758	1082.4037	1159.3574	1187.9762	1258.0452	1315.6723	1327.6325	1366.1961	1407.1451	1431.7452	1453.3842	1491.2174	1500.0673	1863.8751	2961.4258	3028.5964	3103.7006	3137.2645	3141.0214	3222.9293	3236.8111	3795.2903
OC1(COC=O)CC1	OC1(COC=O)CC1	
InChI=1S/C5H8O3/c6-4-8-3-5(7)1-2-5/h4,7H,1-3H2	InChI=1S/C5H8O3/c6-4-8-3-5(7)1-2-5/h4,7H,1-3H2
