21
gdb 80872	2.18328	1.88465	1.52587	1.4388	80.93	-0.2442	0.0759	0.3201	1007.6607	0.184351	-387.057105	-387.049384	-387.04844	-387.088539	32.623	
C	-0.010323177	 1.5178621031	 0.0452452847	-0.507673
C	-0.0115059308	 0.0081094258	-0.0267182105	 0.28978
C	 0.4142843066	-0.7775697669	-1.2981265678	-0.28531
C	-0.3416372955	-1.9536937317	-0.6294291619	-0.096797
C	 0.4270552898	-2.2088121544	 0.6809374125	-0.056215
C	 1.8326362484	-1.6895586452	 0.8536717264	-0.315675
C	 0.670261939	-0.7674774826	 1.1257418495	-0.091887
C	-1.3450326294	-0.8371525046	-0.1544914273	 0.151822
O	-2.1841971327	-1.0295038672	 0.9449987788	-0.447687
H	 1.0098764596	 1.9178051057	 0.052880591	 0.116716
H	-0.5369961843	 1.9571846222	-0.8085400625	 0.112323
H	-0.5091067421	 1.8647103339	 0.9576157245	 0.119732
H	-0.1089145694	-0.4130664946	-2.1852043925	 0.097101
H	 1.4726431359	-0.885049808	-1.531333776	 0.097407
H	-0.6698814674	-2.8233888271	-1.198501439	 0.06102
H	 0.0668192982	-2.9787447472	 1.354731446	 0.0877
H	 2.3497133453	-2.050194347	 1.7380106411	 0.108498
H	 2.4932362024	-1.5410728246	 0.008411519	 0.115466
H	 0.4983281718	-0.4265684925	 2.1417775539	 0.084044
H	-1.9836711096	-0.476106099	-0.9654406109	 0.079485
H	-1.6390808287	-1.3592285182	 1.6685249312	 0.28015
191.4998	215.7593	234.9139	277.6073	308.2172	390.3779	451.5673	474.9303	525.1146	584.8694	648.5897	705.8427	763.0002	794.6144	808.8203	816.8608	833.7848	905.7781	934.0681	945.0371	984.5225	1002.2741	1017.9212	1061.8922	1063.9142	1083.2956	1109.3291	1131.6598	1142.1757	1163.4244	1192.9023	1198.3818	1219.7339	1231.3227	1259.104	1276.805	1314.5438	1334.3577	1376.0345	1412.3387	1450.0404	1481.8545	1492.5869	1493.0859	1533.7322	3024.0066	3074.405	3084.9036	3087.7205	3094.1315	3116.1984	3130.5548	3140.3073	3153.6288	3166.6572	3212.4116	3797.2843
CC12CC(C3CC13)C2O	C[C@@]12C[C@@H]([C@H]3C[C@@H]13)[C@H]2O	
InChI=1S/C8H12O/c1-8-3-5(7(8)9)4-2-6(4)8/h4-7,9H,2-3H2,1H3	InChI=1S/C8H12O/c1-8-3-5(7(8)9)4-2-6(4)8/h4-7,9H,2-3H2,1H3/t4-,5+,6-,7-,8-/m1/s1
