22
gdb 10609	2.50639	1.65601	1.19998	1.3093	78.41	-0.2577	0.0723	0.33	1116.2714	0.198641	-350.194611	-350.184729	-350.183784	-350.229027	36.314	
C	-0.6150779801	-0.3663619864	 0.5831052132	-0.386689
C	 0.9038977266	-0.5845690844	 0.5764978503	-0.254442
C	 1.4994558011	-0.8567091681	-0.7991319202	 0.375073
C	 1.4038543916	 0.3000923338	-1.7709491996	-0.148093
O	 2.0980392411	 1.4146905212	-1.2201004687	-0.422714
C	 2.7551555481	-1.6959197473	-0.8886628727	-0.335935
C	 1.450320053	-2.2420973077	-1.4182668672	-0.038726
C	 0.7705334531	-3.4290431171	-0.7693107419	-0.415123
H	-0.9008439395	 0.5105417211	-0.0064894026	 0.116281
H	-1.1472282195	-1.2307859735	 0.172774746	 0.114564
H	-0.9780088628	-0.2032107993	 1.6029170001	 0.109537
H	 1.4002386402	 0.3021123305	 0.9858620946	 0.116224
H	 1.1517028781	-1.4109553976	 1.2505769938	 0.088374
H	 1.842581144	 0.0022245303	-2.736551442	 0.077487
H	 0.3485419569	 0.5534653332	-1.9588272909	 0.084515
H	 1.9225119363	 2.1801381878	-1.7748687456	 0.285048
H	 3.5276692375	-1.4008913282	-1.591078151	 0.107695
H	 3.1371030109	-2.1202458627	 0.0350486553	 0.103527
H	 1.3636720595	-2.2452456781	-2.503305405	 0.074276
H	 0.8753076832	-3.4200096853	 0.3190051591	 0.117904
H	-0.3002371844	-3.4573211127	-1.0007072035	 0.115312
H	 1.2103949951	-4.3655987496	-1.1303802016	 0.115907
57.6224	109.5921	159.1361	185.5449	202.8975	241.7762	266.5911	276.8122	313.2609	367.3249	415.1581	446.7395	570.4724	694.4413	767.7444	809.7221	874.5001	913.4026	929.9194	959.701	1021.5334	1025.3871	1047.7499	1060.4568	1068.1225	1109.1777	1135.4823	1143.6224	1191.2255	1235.648	1246.4535	1268.538	1318.5922	1336.1223	1384.1854	1408.3233	1411.7982	1430.5445	1461.5827	1480.7401	1492.6882	1497.2746	1499.1099	1502.2698	1510.021	1523.3684	2965.5978	2993.7957	3028.7833	3035.9387	3043.5927	3074.0236	3084.1229	3101.6885	3103.8212	3107.5362	3122.6854	3123.5	3205.4222	3830.647
CCC1(CO)CC1C	CC[C@@]1(CO)C[C@H]1C	
InChI=1S/C7H14O/c1-3-7(5-8)4-6(7)2/h6,8H,3-5H2,1-2H3	InChI=1S/C7H14O/c1-3-7(5-8)4-6(7)2/h6,8H,3-5H2,1-2H3/t6-,7+/m1/s1
