20
gdb 65664	2.97964	1.3672	1.22409	3.4467	79.83	-0.2475	0.0314	0.2789	1107.576	0.171576	-403.12168	-403.113275	-403.112331	-403.15472	32.662	
C	-0.0749696739	 1.6415981649	 0.1755806597	-0.474596
C	 0.0137064915	 0.1192619147	 0.0695824934	 0.394006
N	-1.3393513652	-0.406990272	-0.1321076674	-0.33337
C	-2.0140955935	-0.3022032471	-1.3052079568	 0.146033
O	-1.5598515681	 0.1548938017	-2.3344293452	-0.333468
C	 1.14219796	-0.5502268727	-0.7914230797	-0.061016
C	 2.1461388089	-0.1654963168	 0.3361677282	-0.238079
C	 0.886224781	-0.7140911747	 1.0680399306	-0.114945
C	 0.8997495381	-1.8629513918	 0.0130397482	-0.224828
H	 0.8905435783	 2.1292854359	 0.310817762	 0.120378
H	-0.5287225374	 2.033324725	-0.7385540817	 0.152219
H	-0.7153577082	 1.9222535241	 1.0190817767	 0.107855
H	-1.8478533543	-0.7404606845	 0.6725144244	 0.243559
H	-3.0474317585	-0.6984049842	-1.2247257033	 0.072932
H	 1.2703365082	-0.4429471206	-1.8668817289	 0.095097
H	 3.0351194193	-0.7958750059	 0.4064910005	 0.096463
H	 2.4082418789	 0.8831469358	 0.4675742084	 0.096773
H	 0.7344783076	-0.8005267441	 2.1470820606	 0.065758
H	-0.0312201073	-2.3976920724	-0.1674742315	 0.096642
H	 1.7494268245	-2.5464948454	 0.0725048919	 0.092587
62.0577	151.3701	194.4479	207.9658	230.7606	363.2789	394.1082	444.3892	507.7904	542.8513	586.3715	655.4113	748.9994	798.216	839.5305	897.8756	903.0801	905.1057	949.9621	1002.2874	1015.3874	1027.289	1030.8177	1069.7667	1096.2743	1108.3852	1137.2825	1161.5331	1187.9532	1197.4624	1207.6153	1213.6841	1248.345	1252.9433	1288.5996	1409.9364	1428.5151	1477.9667	1494.8982	1505.6986	1513.8333	1548.0453	1797.3	2919.5099	3043.6957	3071.1135	3076.0075	3087.1073	3112.1279	3136.8838	3138.1875	3152.6074	3154.1372	3616.3949
CC1(NC=O)C2CC1C2	C[C@@]1(NC=O)[C@H]2C[C@@H]1C2	
InChI=1S/C7H11NO/c1-7(8-4-9)5-2-6(7)3-5/h4-6H,2-3H2,1H3,(H,8,9)	InChI=1S/C7H11NO/c1-7(8-4-9)5-2-6(7)3-5/h4-6H,2-3H2,1H3,(H,8,9)/t5-,6+,7-
