15
gdb 78573	2.35782	1.82945	1.28611	2.6557	65.03	-0.2385	0.0027	0.2413	969.9542	0.111551	-457.715579	-457.707945	-457.707001	-457.747485	29.632	
O	-0.1620510517	 1.4726986663	-0.1563728218	-0.430861
C	-0.0051210233	 0.0805093363	-0.0922664653	 0.148879
C	-1.3020504866	-0.7191795747	-0.1060425518	-0.140157
C	-1.770009216	-0.8194057052	-1.5825805956	-0.279884
C	-0.6814543137	-0.2130536392	-2.4116347537	 0.46151
O	-0.6183738719	 0.2298306637	-3.5224690589	-0.340361
C	 0.3842210219	-0.6884019776	-1.3931084351	-0.341862
C	-0.7095141983	-1.7683330978	-0.9713451819	 0.375857
O	-0.6832544138	-3.1220541566	-0.8247222766	-0.444436
H	 0.7028698423	 1.8784179269	-0.2764572765	 0.290234
H	 0.6248486972	-0.2310194554	 0.7522819937	 0.083615
H	-2.032706276	-0.8311054742	 0.6843801757	 0.109736
H	-2.8023871843	-1.0294431711	-1.825364542	 0.114709
H	 1.4158046872	-0.8629670585	-1.6873036908	 0.090741
H	-0.6343205327	-3.5316576329	-1.6966359995	 0.302279
121.1148	163.3962	251.5051	286.0314	297.2503	362.37	423.0034	453.6327	564.07	606.0136	649.8139	695.2541	759.7986	781.9126	844.3999	902.9399	929.5208	960.9224	991.2403	1009.966	1066.4972	1090.2356	1130.3428	1135.7255	1142.0536	1182.1796	1230.1847	1277.8812	1307.6658	1330.9704	1416.9498	1505.8747	1886.8019	3012.2607	3161.4839	3206.5935	3224.2627	3786.8352	3816.3404
OC1C2C3C(=O)C1C23O	O[C@H]1[C@H]2[C@H]3C(=O)[C@@H]1[C@@]23O	
InChI=1S/C6H6O3/c7-4-1-2-5(8)3(4)6(1,2)9/h1-4,7,9H	InChI=1S/C6H6O3/c7-4-1-2-5(8)3(4)6(1,2)9/h1-4,7,9H/t1-,2+,3-,4+,6-/m1/s1
