16
gdb 131156	3.09099	1.35698	1.01809	2.0107	71.85	-0.2072	0.0362	0.2435	1138.6326	0.126205	-434.04376	-434.035981	-434.035037	-434.0766	29.336	
O	 0.271333837	 1.287868576	 0.0342293104	-0.431211
C	 0.1069307148	-0.0448073991	 0.0038730271	 0.391493
C	-0.1200572305	-0.8910137661	-1.0641088217	 0.086859
C	-0.205391633	-2.1753389709	-0.4684208205	-0.0715
N	-0.0456586728	-2.1259372432	 0.8492394525	-0.241271
N	 0.145403583	-0.8034024983	 1.1167534368	-0.260918
N	-0.2126019125	-0.381158653	-2.3819001258	-0.213866
C	 0.3149931772	-1.1869736265	-3.4895674167	-0.222578
C	-1.1509870105	-1.0109652861	-3.3185467547	-0.222572
H	 0.1979369725	 1.5749046787	-0.8885898382	 0.30966
H	-0.3761868483	-3.1318267256	-0.9420122213	 0.105193
H	 0.2927993958	-0.4982976791	 2.0631466663	 0.277873
H	 0.8470223235	-0.6322871235	-4.2573532045	 0.120566
H	 0.7421133373	-2.1554887093	-3.2433836126	 0.12585
H	-1.7251808141	-1.859271554	-2.9555903233	 0.125853
H	-1.6987078893	-0.3266549598	-3.9603810139	 0.120568
53.3163	146.3052	172.8574	282.9014	288.8565	453.7841	461.1196	491.8947	520.8709	568.7474	680.3547	725.1872	734.0646	816.1524	853.2502	876.4347	909.003	959.7537	1034.745	1092.4259	1109.8406	1123.2396	1149.5688	1178.983	1183.452	1226.032	1227.3508	1300.5647	1367.9694	1424.3387	1455.5831	1489.5704	1515.743	1599.9678	1658.3479	3107.1176	3110.8759	3189.4952	3204.9705	3232.1905	3683.7642	3736.5491
OC1=C(C=NN1)N1CC1	Oc1c(cn[nH]1)N1CC1	
InChI=1S/C5H7N3O/c9-5-4(3-6-7-5)8-1-2-8/h3H,1-2H2,(H2,6,7,9)	InChI=1S/C5H7N3O/c9-5-4(3-6-7-5)8-1-2-8/h3H,1-2H2,(H2,6,7,9)
