15
gdb 49160	4.39828	1.24349	1.08091	3.2379	73.09	-0.2452	-0.0726	0.1726	1071.8166	0.112608	-420.558076	-420.551422	-420.550478	-420.589368	26.115	
O	-0.1070582703	-0.0122965092	-0.0147247936	-0.277706
C	-0.0251945051	 1.1974422977	-0.0173105083	 0.061086
C	 1.2285102371	 1.9387828335	-0.0002521678	 0.215264
C	 1.4014387106	 3.2758841196	-0.0018912467	-0.184992
C	 2.8931377148	 3.4690460707	 0.0206387663	-0.099504
C	 3.5245128781	 2.3228633225	-0.8573641179	 0.078918
O	 4.6640717388	 2.1867502719	 0.0523083731	-0.316296
C	 3.4968314339	 2.3286482117	 0.9252489745	 0.078918
C	 2.6349804076	 1.3789241537	 0.0234145324	-0.164192
H	-0.9347170747	 1.8387359082	-0.0335729619	 0.070822
H	 0.6439072716	 4.0490786499	-0.0161559818	 0.13083
H	 3.3509076315	 4.4556916175	 0.0245450944	 0.091075
H	 3.7180430165	 2.3050293901	-1.9321479659	 0.104676
H	 3.6568862466	 2.3178121517	 2.0056180207	 0.104675
H	 2.8141765229	 0.3075942503	 0.0296734623	 0.106425
109.2393	162.6049	231.0299	430.1996	459.8288	531.7778	540.2816	658.3562	677.6085	728.017	804.5364	855.2419	867.0962	889.8957	890.7305	944.5868	973.0034	984.4347	1016.9695	1037.7955	1115.1081	1142.0526	1164.8103	1172.0932	1181.8399	1202.9615	1238.2495	1267.2633	1324.878	1356.6051	1417.8248	1643.7512	1776.0986	2880.7545	3097.561	3101.7496	3155.9861	3176.2917	3220.2933
O=CC1=CC2C3OC2C13	O=CC1=C[C@@H]2[C@H]3O[C@@H]2[C@@H]13	
InChI=1S/C7H6O2/c8-2-3-1-4-6-5(3)7(4)9-6/h1-2,4-7H	InChI=1S/C7H6O2/c8-2-3-1-4-6-5(3)7(4)9-6/h1-2,4-7H/t4-,5+,6-,7+
