20
gdb 119207	1.88084	1.29273	0.89754	0.8969	82.72	-0.2309	0.0413	0.2722	1363.6042	0.167684	-403.071114	-403.060773	-403.059829	-403.106421	37.784	
C	-0.2505176147	 1.4327289517	 0.0840482321	-0.318494
N	 0.0227115278	 0.0037611094	 0.1120755969	-0.100927
C	 1.3754052544	-0.4427761619	-0.152763567	-0.281127
C	 0.792202307	-0.5938237403	 1.2264328881	 0.079627
C	 1.3741090124	 0.2416369617	 2.3620876247	-0.260079
C	 0.3767835687	 0.5368680629	 3.4792027778	-0.078272
O	 1.070255834	 1.2786580713	 4.4718421575	-0.42071
C	 0.3142900424	-1.8989499272	 1.6296634679	 0.316324
C	-0.0536063161	-2.9870398977	 1.986006454	-0.433777
H	 0.5771699363	 2.0716289149	 0.4267782646	 0.106099
H	-0.4814827131	 1.7121962209	-0.9489934641	 0.128961
H	-1.1320136274	 1.6467808709	 0.6958930965	 0.129013
H	 1.4790957791	-1.3103894883	-0.798498155	 0.122483
H	 2.1573502272	 0.309864688	-0.2602869759	 0.107857
H	 2.2223179783	-0.3007159932	 2.7942840165	 0.120937
H	 1.7703261109	 1.1858364002	 1.9796346208	 0.109461
H	-0.4789163823	 1.1056576566	 3.0819522975	 0.087525
H	-0.0155176842	-0.4085842832	 3.8802383656	 0.105813
H	 0.4724185565	 1.422769026	 5.2108542778	 0.287017
H	-0.3908275374	-3.9474558427	 2.2882577638	 0.192271
76.6501	94.4764	129.0697	149.9941	181.2014	215.2317	254.6475	292.7358	334.497	368.0596	410.2691	458.9315	542.4809	562.7353	607.6546	644.722	716.2293	774.8918	815.8583	893.1566	931.7315	1019.9191	1046.0931	1073.1714	1087.6949	1125.4895	1143.0009	1150.5634	1197.6933	1218.3591	1247.0342	1264.3454	1309.3399	1331.5466	1374.0645	1447.4079	1460.6966	1479.4206	1489.9773	1503.557	1510.1473	1528.2596	2234.1503	2974.4427	2987.9722	3018.3446	3053.0206	3070.8639	3080.6669	3103.2836	3105.4634	3178.1913	3502.9675	3832.4358
CN1CC1(CCO)C#C	CN1C[C@]1(CCO)C#C	
InChI=1S/C7H11NO/c1-3-7(4-5-9)6-8(7)2/h1,9H,4-6H2,2H3	InChI=1S/C7H11NO/c1-3-7(4-5-9)6-8(7)2/h1,9H,4-6H2,2H3/t7-,8?/m1/s1
