22
gdb 60928	2.37343	1.23358	0.98322	3.8198	83.67	-0.2355	0.0266	0.2621	1311.5663	0.19296	-404.361853	-404.351515	-404.350571	-404.397071	37.503	
C	-0.4409509414	 0.8890561515	-1.8341347281	-0.420138
C	-0.1580755608	-0.2288684632	-0.8518893974	-0.040453
C	 1.2371895727	-0.4973920415	-0.3323230364	-0.037076
C	 2.4123882441	 0.3668517224	-0.7401998795	-0.413304
C	 0.1541023444	-0.0169756179	 0.6196718892	-0.022181
N	 0.2148899381	 1.2904744597	 1.2080375352	-0.051422
C	 1.233992457	 1.5304898941	 2.2233197322	-0.34491
C	-0.869841327	 2.1277283193	 1.158882542	 0.155951
O	-0.9857521767	 3.1655889264	 1.7761244809	-0.343538
H	 0.092843764	 1.809531469	-1.5908258185	 0.133967
H	-0.1408326057	 0.5872268301	-2.8436968082	 0.121112
H	-1.509627891	 1.124953313	-1.8671634056	 0.124447
H	-0.7572422644	-1.1167758908	-1.037363953	 0.091322
H	 1.4935397784	-1.5469141313	-0.2133710629	 0.088058
H	 2.1800675534	 1.4329478532	-0.6893979926	 0.132104
H	 3.2755573839	 0.1832076032	-0.0920894152	 0.120574
H	 2.7201562222	 0.1419540894	-1.7671657412	 0.120451
H	-0.2345056612	-0.7798457268	 1.29581679	 0.09272
H	 2.235203323	 1.4699474131	 1.7907459772	 0.126651
H	 1.0678108806	 2.5260868481	 2.6342124286	 0.165276
H	 1.1598051585	 0.7916697317	 3.031970287	 0.120261
H	-1.6441334921	 1.7514263671	 0.4672309563	 0.080129
67.8825	113.7283	131.5141	164.	193.1797	206.7163	244.9857	268.545	293.8075	325.8499	361.1724	469.1921	481.1928	590.2667	701.2191	767.3596	781.5159	843.9766	937.7279	960.6728	969.9815	1039.5334	1050.962	1059.1253	1114.4414	1126.6935	1141.2124	1160.8702	1166.1615	1188.4412	1229.7761	1304.9683	1365.8561	1380.3198	1391.6853	1417.5602	1424.1755	1434.6146	1437.5777	1451.4982	1490.2763	1493.1495	1498.793	1505.1627	1514.1914	1517.4592	1793.1371	2979.9065	3021.6508	3035.2449	3038.9325	3078.3833	3090.7081	3092.7074	3101.7184	3116.2057	3127.346	3135.5458	3147.2885	3162.0251
CC1C(C)C1N(C)C=O	C[C@H]1[C@@H](C)[C@H]1N(C)C=O	
InChI=1S/C7H13NO/c1-5-6(2)7(5)8(3)4-9/h4-7H,1-3H3	InChI=1S/C7H13NO/c1-5-6(2)7(5)8(3)4-9/h4-7H,1-3H3/t5-,6+,7-
