14
gdb 11088	7.47969	1.07661	1.05212	4.3947	68.84	-0.2596	-0.0026	0.2571	1083.2474	0.107355	-341.534376	-341.526819	-341.525875	-341.566559	27.448	
C	-0.163642293	-1.2018836935	-0.201722081	-0.469783
C	-0.0804116077	-0.0075762139	-0.0853077451	 0.330766
C	 0.0618609748	 1.4351440025	 0.0517922943	-0.140646
C	-0.1785786933	 1.9737811688	 1.4975402536	-0.248767
C	 1.3710935339	 2.0050247512	 1.6276934539	-0.109704
N	 1.4697035185	 1.9257126232	 0.1518913399	-0.301384
C	 1.9863980627	 3.188363372	 2.2282390916	 0.294507
N	 2.4639205467	 4.1188470326	 2.7197854918	-0.319112
H	-0.2480737456	-2.2551783313	-0.3110560079	 0.208988
H	-0.5018976678	 1.9432418237	-0.7369368974	 0.118514
H	-0.6174192202	 2.9709409871	 1.4981281142	 0.141164
H	-0.7107279225	 1.3208081457	 2.1859270891	 0.135098
H	 1.7436717122	 1.1166429979	 2.1540438774	 0.12405
H	 2.1740545113	 1.2842013941	-0.1972491744	 0.236308
62.947	128.2767	195.3216	217.736	285.7592	455.2401	511.9958	548.2037	579.8625	637.0219	659.2797	666.624	784.4424	823.9076	924.6306	975.2501	1003.1494	1024.0235	1075.1433	1099.8906	1142.4661	1228.6711	1254.6257	1277.6092	1329.7305	1358.0662	1408.4491	1482.6214	2228.9101	2358.7599	3021.021	3053.4633	3108.2209	3177.1073	3500.6481	3534.1127
C#CC1CC(N1)C#N	C#C[C@H]1C[C@@H](N1)C#N	
InChI=1S/C6H6N2/c1-2-5-3-6(4-7)8-5/h1,5-6,8H,3H2	InChI=1S/C6H6N2/c1-2-5-3-6(4-7)8-5/h1,5-6,8H,3H2/t5-,6+/m0/s1
