15
gdb 16124	4.5886	1.66485	1.45702	5.3264	65.68	-0.2515	0.0205	0.272	859.9931	0.122066	-358.829883	-358.823287	-358.822342	-358.860526	25.36	
N	-0.0074490103	-1.1403048593	 0.3570353455	-0.339496
C	 0.0177859003	 0.0055669653	 0.2059923038	 0.235746
C	 0.0352437217	 1.4251667161	-0.0280251857	 0.196722
C	-0.8303908524	 1.9917658004	-1.1539310195	-0.238678
N	-0.3245933626	 3.3620286176	-1.270110267	-0.328234
C	 1.1276286831	 3.3153391416	-1.0654513275	-0.190152
C	 1.2697385589	 2.2740372004	 0.0327084955	-0.052656
N	 0.3026459005	 2.3011199151	 1.1268601487	-0.352232
H	-0.6808468667	 1.3667215899	-2.0501816737	 0.111914
H	-1.8994072299	 1.9938197437	-0.915348277	 0.125456
H	-0.5952944435	 3.8134347935	-2.1338535442	 0.236449
H	 1.7036518195	 2.9765554744	-1.943730185	 0.102927
H	 1.5030844643	 4.3033532973	-0.7756096616	 0.119178
H	 2.2455523586	 1.8646585094	 0.2678232236	 0.120106
H	-0.2885925016	 3.1282142746	 1.046714084	 0.25295
148.9856	164.5201	279.8183	340.4361	412.5986	499.2289	549.015	585.5389	601.3209	689.7602	806.3498	882.9288	893.6231	962.0814	988.5164	1024.0874	1040.1134	1059.2186	1120.3414	1133.4567	1162.1622	1197.5023	1234.6037	1259.3374	1309.1432	1323.6521	1367.4674	1420.7226	1445.59	1509.2096	1524.2722	2361.1319	2958.383	2967.4209	3056.7047	3065.0678	3186.2523	3474.1546	3576.2288
N#CC12CNCC1N2	N#C[C@]12CNC[C@H]1N2	
InChI=1S/C5H7N3/c6-2-5-3-7-1-4(5)8-5/h4,7-8H,1,3H2	InChI=1S/C5H7N3/c6-2-5-3-7-1-4(5)8-5/h4,7-8H,1,3H2/t4-,5+/m1/s1
