15
gdb 70720	2.35032	2.00678	1.30428	2.1171	61.06	-0.2645	-0.0142	0.2504	945.3591	0.112616	-494.907511	-494.90002	-494.899075	-494.939443	28.659	
O	-0.1020609082	 1.3669687083	 0.1156756668	-0.462626
C	-0.0494985112	-0.0173491305	 0.0374996229	 0.240958
C	-0.4775388854	-0.6937836676	-1.2668785537	-0.350955
C	-1.3367366859	-0.783756313	-0.0391948594	 0.023202
O	-1.3525780161	-2.0422111435	 0.5940512266	-0.2286
C	-0.520876564	-2.0846757821	 1.7022189158	 0.001183
O	 0.8596318506	-1.8256862401	 1.3707761059	-0.227724
C	 1.0942025142	-0.6243565066	 0.7944869946	 0.389526
O	 2.1644990606	-0.0818763991	 0.8696205171	-0.351098
H	 0.8187495094	 1.6644728262	 0.1005902735	 0.301053
H	-0.7825884926	-0.0079168344	-2.0486207892	 0.136613
H	 0.0251190222	-1.6001662314	-1.5836492596	 0.141721
H	-2.2748532007	-0.2389782016	 0.0117722049	 0.125799
H	-0.8242864651	-1.3586209453	 2.4692329235	 0.118504
H	-0.5419335977	-3.0995411895	 2.0981659403	 0.142445
95.6645	172.5217	260.1989	278.2007	362.6845	387.8736	426.1709	454.4574	497.1143	566.7663	654.1486	731.8941	805.4902	828.2382	895.1734	923.6146	992.2572	1019.6349	1044.1833	1055.5935	1079.0587	1111.4128	1162.5848	1218.6129	1236.6965	1300.9899	1307.9694	1390.5838	1417.6895	1453.3279	1481.0684	1520.3611	1841.445	3011.5827	3143.3788	3146.3568	3159.421	3245.7994	3752.3992
OC12CC1OCOC2=O	O[C@]12C[C@H]1OCOC2=O	
InChI=1S/C5H6O4/c6-4-5(7)1-3(5)8-2-9-4/h3,7H,1-2H2	InChI=1S/C5H6O4/c6-4-5(7)1-3(5)8-2-9-4/h3,7H,1-2H2/t3-,5-/m1/s1
