15
gdb 116840	3.72405	0.59947	0.51969	4.6407	81.6	-0.2674	-0.0787	0.1887	1985.4498	0.108888	-420.564183	-420.554037	-420.553092	-420.602234	33.959	
O	-0.0780332795	 1.4346698293	 0.0106449423	-0.411865
C	 0.0551239753	 0.0260572326	 0.0017779664	-0.065636
C	-1.368596168	-0.5442380027	 0.0118846577	-0.333419
C	-1.4014775789	-1.9960714705	 0.0041679502	-0.025357
C	-1.4142103256	-3.2036490036	-0.0021693828	 0.111739
C	-1.4525612331	-4.6453734824	-0.008997813	 0.151169
O	-2.4864027203	-5.2852442695	-0.0020571653	-0.267473
C	-0.1494991597	-5.2850742817	-0.0249542164	 0.285851
C	 0.9253485145	-5.8264342232	-0.0382168653	-0.477717
H	 0.8011274086	 1.8239160198	 0.004923274	 0.293437
H	 0.5856833812	-0.3315447447	-0.8929937992	 0.105018
H	 0.6021601987	-0.3411798476	 0.882614945	 0.105021
H	-1.8955535194	-0.1651110452	 0.8962391791	 0.155309
H	-1.9118578339	-0.155473892	-0.8583070598	 0.155307
H	 1.8704250803	-6.3128440887	-0.0501641127	 0.218617
10.826	51.561	75.7485	142.7601	158.0483	227.1811	241.4953	265.1095	343.0011	414.9224	440.71	557.4276	607.6221	648.7216	702.6676	713.1656	774.6344	786.0166	979.6631	1017.1509	1080.7527	1086.2055	1217.8409	1225.3691	1240.2632	1300.7405	1327.973	1455.7347	1462.6221	1528.3999	1720.2806	2215.7355	2334.3264	2986.6111	3018.4865	3033.5837	3071.4194	3494.7022	3836.7335
OCCC#CC(=O)C#C	OCCC#CC(=O)C#C	
InChI=1S/C7H6O2/c1-2-7(9)5-3-4-6-8/h1,8H,4,6H2	InChI=1S/C7H6O2/c1-2-7(9)5-3-4-6-8/h1,8H,4,6H2
