17
gdb 69696	3.14163	1.23266	1.16485	3.8893	72.82	-0.2166	-0.0279	0.1887	1105.2699	0.134011	-421.743001	-421.734989	-421.734045	-421.776046	31.001	
O	 0.1772537657	 1.3173623733	 0.4752841503	-0.450167
C	 0.17312706	-0.0517696403	 0.3138178354	 0.421053
C	-0.7432774571	-0.8985089371	 1.1152451058	-0.343718
C	 0.7501908065	-1.1889592252	 1.1555942266	-0.159074
C	 1.3219326751	-1.8467080153	-0.1347791013	-0.095859
C	 0.3258602698	-2.1775356917	-1.2096384948	-0.105033
C	-1.0125870397	-2.8600161091	-1.0868201702	 0.105242
O	-1.867493577	-2.794441426	-1.9333960227	-0.252277
C	 0.7199085018	-0.728452009	-0.9753390086	-0.169136
H	 1.0748532278	 1.6397290554	 0.33348265	 0.287094
H	-1.0849083304	-0.3983201541	 2.017352519	 0.127551
H	-1.4886538405	-1.5572622359	 0.6827926907	 0.125281
H	 1.2975606543	-1.1642172814	 2.0885046788	 0.098377
H	 2.3382749976	-2.2194678164	-0.1685604124	 0.094887
H	 0.8119889871	-2.5331032007	-2.1197648431	 0.125411
H	-1.1414791706	-3.500700788	-0.1866163572	 0.09273
H	 1.1874738497	-0.1508306285	-1.7640499463	 0.097638
42.6574	118.4197	251.4081	293.451	308.3882	354.7483	408.8713	441.6068	547.8393	592.2844	642.3277	689.8731	763.591	813.845	829.8941	874.2832	914.8995	922.493	959.7591	985.0012	1009.9595	1030.2516	1037.6739	1062.3411	1086.0962	1097.0445	1178.0989	1190.1135	1243.921	1271.7888	1292.4025	1336.595	1379.9118	1424.0465	1436.399	1512.1634	1811.5081	2880.5047	3103.5816	3125.6811	3177.6079	3187.3082	3201.0259	3207.3101	3785.2362
OC12CC1C1C(C=O)C21	O[C@]12C[C@H]1[C@H]1[C@@H](C=O)[C@@H]21	
InChI=1S/C7H8O2/c8-2-3-5-4-1-7(4,9)6(3)5/h2-6,9H,1H2	InChI=1S/C7H8O2/c8-2-3-5-4-1-7(4,9)6(3)5/h2-6,9H,1H2/t3-,4+,5-,6-,7-/m1/s1
