20
gdb 119522	4.24585	0.96066	0.87667	1.871	78.89	-0.2413	0.0184	0.2597	1393.0454	0.171333	-403.154702	-403.146127	-403.145183	-403.18838	32.397	
C	 0.0218779874	 1.5579849346	-0.0709150832	-0.384923
C	-0.0266207532	 0.0314222032	-0.1662500855	-0.15951
C	-1.4053246831	-0.5426744996	 0.1925244317	-0.281748
C	-1.4695462164	-2.0406290508	 0.1080324525	 0.419862
C	-1.669102251	-2.8222815171	-1.1611379573	-0.346617
C	-2.6792910672	-2.9531696555	-0.0345358568	-0.083951
N	-2.4669274192	-4.0532318292	 0.8803658201	-0.259098
C	-1.3341899261	-3.832798064	 1.4154864822	 0.091194
O	-0.6556584507	-2.704329027	 1.0843345638	-0.249743
H	 1.0144870781	 1.9408134023	-0.3269259689	 0.114376
H	-0.6999644748	 2.0226583334	-0.7521754712	 0.112946
H	-0.2149274583	 1.8995843361	 0.9429308758	 0.11635
H	 0.2405925659	-0.2882309399	-1.1812731263	 0.099101
H	 0.7236010416	-0.4077090207	 0.501196411	 0.114657
H	-1.6853432101	-0.2301484983	 1.2068486246	 0.107467
H	-2.1663158703	-0.1316639437	-0.4827129102	 0.101966
H	-1.9819396314	-2.2494203703	-2.0275873791	 0.119673
H	-1.0267534794	-3.6708140465	-1.3718028791	 0.123651
H	-3.7007334295	-2.6182534853	-0.1708006645	 0.102844
H	-0.8361954522	-4.4668162516	 2.1388505704	 0.141502
71.6364	93.2394	120.9785	244.8851	269.6226	308.1977	336.098	404.8236	434.3612	610.2644	705.0451	739.712	755.2507	812.5343	858.4046	884.912	899.4748	920.1052	940.1022	960.6193	999.8405	1030.9033	1048.8177	1061.0338	1091.6379	1114.3676	1134.6963	1138.3374	1218.9531	1254.8473	1277.0539	1308.2858	1329.7518	1344.8295	1378.7563	1408.4267	1415.201	1468.0125	1473.77	1493.7209	1500.3704	1510.558	1666.679	3019.2031	3028.3791	3032.5967	3052.4119	3072.5489	3097.82	3103.9333	3128.7785	3180.4619	3222.3877	3229.0164
CCCC12CC1N=CO2	CCC[C@]12C[C@H]1N=CO2	
InChI=1S/C7H11NO/c1-2-3-7-4-6(7)8-5-9-7/h5-6H,2-4H2,1H3	InChI=1S/C7H11NO/c1-2-3-7-4-6(7)8-5-9-7/h5-6H,2-4H2,1H3/t6-,7+/m1/s1
