15
gdb 42216	3.6987	1.15527	0.99989	2.0454	73.02	-0.2461	-0.0699	0.1762	1161.0466	0.110614	-420.520574	-420.512721	-420.511777	-420.553799	29.174	
O	 0.4890753701	 0.4091382589	-0.9354135378	-0.294878
C	 0.0874767998	 1.053835137	 0.0117758115	 0.216707
C	 0.8688156381	 1.182292504	 1.2315542892	 0.255895
C	 1.4981835188	 1.304667489	 2.2506613008	-0.414756
C	-1.236463881	 1.7771243949	 0.0390038722	-0.092046
C	-2.2478710828	 1.6828371019	-1.1316450712	 0.038575
C	-2.5755313961	 0.214199895	-0.7683300098	-0.230947
C	-2.5521569632	 1.0652029762	 0.5205506777	 0.043451
O	-3.3103049616	 2.1147108775	-0.18385848	-0.309413
H	 2.0673195521	 1.4000842829	 3.1436863496	 0.219366
H	-1.1424681695	 2.7757362679	 0.4716385105	 0.110161
H	-2.2080137462	 2.1707222613	-2.1043008183	 0.108217
H	-3.5712600347	-0.1127168102	-1.0677274399	 0.113473
H	-1.8028566407	-0.5376039364	-0.9242377164	 0.130403
H	-2.8495664931	 0.81874511	 1.5396331818	 0.105792
42.4744	113.3099	183.9379	224.3603	269.1493	422.0759	448.9922	580.1543	635.2121	649.7024	669.1542	712.0146	734.944	826.9288	873.9326	900.819	920.6851	924.9283	952.406	1006.9622	1063.9215	1079.3619	1122.2287	1151.0189	1169.3967	1190.7663	1208.3677	1260.1711	1273.9218	1367.7761	1492.245	1753.9639	2209.1672	3092.6825	3097.5923	3124.7516	3137.4606	3173.593	3493.2127
O=C(C#C)C1C2CC1O2	O=C(C#C)[C@H]1[C@H]2C[C@@H]1O2	
InChI=1S/C7H6O2/c1-2-4(8)7-5-3-6(7)9-5/h1,5-7H,3H2	InChI=1S/C7H6O2/c1-2-4(8)7-5-3-6(7)9-5/h1,5-7H,3H2/t5-,6+,7+
