16
gdb 43683	2.33593	1.50544	1.21482	5.2756	74.93	-0.2538	-0.0654	0.1884	1065.4778	0.12568	-400.800265	-400.792482	-400.791538	-400.832943	29.093	
O	 0.0534328717	-0.0572262956	 0.3042108201	-0.321644
C	 0.0284840948	 1.1342486139	 0.081242747	 0.389466
C	-1.2932923783	 1.8821479543	-0.0967126232	-0.326701
C	-1.1673129822	 3.1357125627	-0.9892442391	-0.186325
C	-0.0207489528	 4.0452696504	-0.489788225	-0.271594
C	 1.2350246896	 3.2709655535	-0.2019746582	-0.041296
C	 1.2575335908	 1.9532702331	 0.0329348419	-0.133169
C	-0.9553841795	 2.7631654423	-2.3940115795	 0.279173
N	-0.7982133043	 2.4803014674	-3.5033322747	-0.315074
H	-2.0411659828	 1.1833415648	-0.4760574283	 0.147632
H	-1.6216333036	 2.2040383481	 0.9006077646	 0.134307
H	-2.1081080035	 3.6962532538	-0.9527381267	 0.135153
H	 0.1817516893	 4.833906312	-1.2209829221	 0.139722
H	-0.352257297	 4.557690554	 0.4246185343	 0.132982
H	 2.1626341696	 3.8379322465	-0.1849260427	 0.119932
H	 2.1838149882	 1.4207981489	 0.2223659715	 0.117435
78.8061	104.0087	190.0481	277.2829	313.3227	392.5612	443.4584	461.3975	574.4589	587.4679	620.7843	735.4243	759.6658	783.6684	881.4657	934.8017	940.6346	962.3533	1027.2792	1056.7031	1072.2777	1134.7969	1199.5525	1226.951	1250.7556	1258.883	1338.3686	1365.4919	1375.2249	1408.5459	1454.0018	1470.8646	1686.1198	1786.8762	2358.3963	3013.9593	3031.9682	3051.6977	3079.4283	3120.8511	3160.7094	3195.8208
O=C1CC(CC=C1)C#N	O=C1C[C@@H](CC=C1)C#N	
InChI=1S/C7H7NO/c8-5-6-2-1-3-7(9)4-6/h1,3,6H,2,4H2	InChI=1S/C7H7NO/c8-5-6-2-1-3-7(9)4-6/h1,3,6H,2,4H2/t6-/m1/s1
