16
gdb 15017	2.46791	1.83325	1.10803	0.7433	75.94	-0.261	0.0357	0.2967	1057.1007	0.127845	-309.378019	-309.369542	-309.368598	-309.411022	31.501	
C	-0.2052770223	-1.0945739952	 0.0968824743	-0.450886
C	-0.0557598002	 0.0957076338	 0.0434368427	 0.343278
C	 0.1020881254	 1.5533964836	-0.0411156594	-0.38725
C	 1.519752755	 1.9369403823	-0.0502235472	 0.343355
C	 2.6734443377	 2.2692586044	-0.0737469676	-0.450931
C	-0.6366228885	 2.1236689896	-1.2563917341	 0.047865
C	-2.1127751426	 2.3964660546	-1.1676064945	-0.271079
C	-1.1315278992	 3.5433372204	-1.2259116157	-0.271069
H	-0.3292118847	-2.1478343265	 0.1503575247	 0.198044
H	-0.3587130006	 1.9932897555	 0.8563385633	 0.129909
H	 3.6956813378	 2.5563102606	-0.0883724812	 0.198046
H	-0.2566610845	 1.7505300603	-2.2014747169	 0.103035
H	-2.7241975442	 2.1895968822	-2.0384696229	 0.116802
H	-2.6090909215	 2.200198922	-0.2227089627	 0.117041
H	-0.967950491	 4.1183615129	-0.3202233892	 0.117039
H	-1.0664876163	 4.1270989395	-2.1369687436	 0.116801
76.2291	125.9996	136.4472	165.3442	326.402	326.9198	342.2121	502.8628	504.0294	563.1591	633.6674	634.4265	642.8389	645.3074	761.8215	831.897	847.3822	906.0201	942.8389	995.1898	1054.3896	1061.9837	1081.9337	1136.5293	1150.0166	1195.0676	1224.0183	1270.2391	1300.363	1395.6671	1471.9396	1505.9454	2239.8306	2245.1686	2990.1953	3132.7792	3136.8611	3167.2384	3211.1527	3225.787	3504.2003	3505.0339
C#CC(C#C)C1CC1	C#CC(C#C)C1CC1	
InChI=1S/C8H8/c1-3-7(4-2)8-5-6-8/h1-2,7-8H,5-6H2	InChI=1S/C8H8/c1-3-7(4-2)8-5-6-8/h1-2,7-8H,5-6H2
