15
gdb 30381	3.28806	1.42704	1.13818	0.3654	78.23	-0.245	-0.0846	0.1604	1067.1787	0.113683	-412.988959	-412.981132	-412.980187	-413.021695	28.122	
C	 0.4448039533	 1.317907991	-0.1799911505	-0.334511
N	 0.2414544702	-0.1146609789	-0.0408875137	-0.288039
C	 0.3615186197	-0.6451275682	 1.1046626566	 0.308172
C	 0.1553209718	-2.1191721954	 1.2499666984	-0.004427
N	 1.0074819225	-2.9048775678	 1.7898977557	-0.180648
C	 2.1683020409	-2.4393907796	 2.3689947377	 0.095192
N	 2.3423646875	-1.3917511331	 3.1014694048	-0.233427
C	 1.3649283824	-0.4231864424	 3.2134478853	 0.069168
N	 0.524297595	-0.0007937523	 2.3377697741	-0.254281
H	 1.4271493262	 1.4997732274	-0.6328497251	 0.134588
H	-0.3026376044	 1.7103574803	-0.8763747317	 0.130213
H	 0.392546804	 1.8657775069	 0.7678822855	 0.132954
H	-0.7800029763	-2.5429918634	 0.8807452217	 0.150989
H	 3.0084988972	-3.1269836911	 2.274884987	 0.140361
H	 1.38101284	 0.0980489366	 4.1709107542	 0.133695
81.6667	101.6925	194.8867	233.0766	296.7138	336.3232	384.5352	423.1642	524.2851	635.0407	664.8518	757.9619	861.25	872.578	942.7287	987.2288	1020.6187	1041.0665	1061.4804	1104.9782	1127.3839	1147.5615	1224.8913	1373.8308	1421.041	1428.2169	1429.43	1485.0877	1492.4074	1571.4327	1652.6313	1687.4095	1737.6546	3016.7384	3078.3419	3099.402	3124.1754	3134.632	3142.7086
CN=C1C=NC=NC=N1	CN=c1cncncn1	
InChI=1S/C5H6N4/c1-6-5-2-7-3-8-4-9-5/h2-4H,1H3	InChI=1S/C5H6N4/c1-6-5-2-7-3-8-4-9-5/h2-4H,1H3
