17
gdb 35176	3.69951	1.23093	1.09709	5.0509	78.3	-0.2676	0.0141	0.2818	1120.8417	0.137571	-380.797809	-380.79051	-380.789566	-380.829714	28.666	
N	-0.1158211823	-1.1588814083	 0.0253875797	-0.33752
C	-0.0634755918	-0.0038135736	 0.037200671	 0.335786
C	 0.0110718662	 1.4360892201	 0.0060552095	-0.351511
N	 0.5872156127	 2.0980870138	 1.2241547256	-0.40181
C	 1.3066483466	 2.1572458324	-0.0191184789	 0.488704
C	 2.7569832432	 1.7502741759	-0.3116380498	-0.12094
C	 2.4855003157	 2.2287618766	-1.7724735543	-0.215041
C	 1.8365633238	 3.3230156624	-0.8677898469	-0.150471
C	 3.1222090314	 3.2335825367	 0.0190305135	-0.223719
H	-0.8402848187	 1.9119567184	-0.4739629271	 0.133233
H	 0.0720428663	 2.9567193044	 1.4093287021	 0.24383
H	 3.2686458366	 0.8463850226	 0.0131731084	 0.100189
H	 3.3646646552	 2.5453426122	-2.3375094804	 0.102145
H	 1.8106735614	 1.6191840124	-2.3774773862	 0.106847
H	 1.2994311493	 4.2188724372	-1.1813921281	 0.081344
H	 3.0295061775	 3.5421096693	 1.06234023	 0.108438
H	 4.0399128268	 3.6114038773	-0.4376163482	 0.100496
100.2007	127.9745	232.5875	298.4974	353.231	431.1215	522.3257	570.9286	621.3997	672.0319	784.2594	795.5337	865.9533	885.323	893.4322	904.9354	915.2204	981.0394	1016.9927	1019.7509	1034.4039	1063.3306	1083.6732	1090.5151	1118.5935	1175.6266	1189.894	1194.1127	1204.5343	1230.1567	1240.0228	1265.4029	1351.9632	1478.6117	1495.3028	1539.012	2358.3173	3063.1492	3064.9616	3110.5825	3132.5521	3134.8419	3141.495	3144.4329	3488.3389
N#CC1NC11C2CC1C2	N#C[C@H]1N[C@]21[C@H]1C[C@@H]2C1	
InChI=1S/C7H8N2/c8-3-6-7(9-6)4-1-5(7)2-4/h4-6,9H,1-2H2	InChI=1S/C7H8N2/c8-3-6-7(9-6)4-1-5(7)2-4/h4-6,9H,1-2H2/t4-,5+,6-,7-/m1/s1
