18
gdb 87919	3.58049	1.15119	1.06122	4.351	74.34	-0.2461	0.057	0.3031	1199.4245	0.147606	-439.094641	-439.086327	-439.085383	-439.127853	31.271	
C	-0.2920635827	 1.4059813583	 0.027825606	-0.415306
C	 0.0217910857	-0.0708289433	 0.1005867793	-0.062875
C	 1.4082316802	-0.5997567717	-0.2456871901	-0.3688
C	 0.9152378779	-0.6541851835	 1.159371216	 0.397795
C	 1.4958550109	 0.0835287509	 2.349186756	-0.180973
O	 0.9533696745	-0.6383591522	 3.4607487997	-0.252825
C	 0.4912844205	-1.8484179826	 3.0276022346	 0.481837
N	 0.0505284419	-2.7878489167	 3.7361608782	-0.578548
O	 0.5663745428	-1.9289488518	 1.6777334893	-0.249874
H	 0.5704902307	 2.0189677893	 0.3104876436	 0.114981
H	-0.5701193203	 1.6915779849	-0.9919709837	 0.129626
H	-1.1237811318	 1.6724466075	 0.6887668385	 0.129306
H	-0.7937700038	-0.7311493132	-0.1813881771	 0.113274
H	 1.4811714677	-1.5408719454	-0.7788013956	 0.138344
H	 2.1871717303	 0.1198077498	-0.4818760719	 0.119418
H	 2.5910280663	 0.0307463927	 2.3831978508	 0.122662
H	 1.1817622159	 1.1268785704	 2.4197932584	 0.131188
H	 0.1172607832	-2.5414062133	 4.7207500282	 0.230771
66.8137	130.4711	184.4387	201.5436	214.8317	325.2222	417.2293	452.7997	513.7286	518.1088	716.5564	721.9801	788.897	802.2629	822.3955	878.0592	890.5471	931.7152	956.0679	1016.2021	1041.6081	1058.207	1084.9778	1100.3503	1117.4814	1132.4837	1181.3595	1215.1204	1231.4298	1278.5043	1357.4452	1396.9485	1409.5871	1429.855	1487.2714	1491.732	1505.9558	1523.014	1802.677	3028.5685	3030.6422	3094.1711	3097.7698	3107.4264	3125.9688	3153.5541	3220.5226	3537.2162
CC1CC11COC(=N)O1	C[C@H]1C[C@]21CO[C]([NH])O2	
InChI=1S/C6H9NO2/c1-4-2-6(4)3-8-5(7)9-6/h4,7H,2-3H2,1H3	InChI=1S/C6H9NO2/c1-4-2-6(4)3-8-5(7)9-6/h4,7H,2-3H2,1H3/t4-,6+/m0/s1
