17
gdb 49168	3.58963	1.3519	1.24286	3.3899	79.54	-0.2385	-0.0596	0.1788	1040.7319	0.138066	-384.696106	-384.689264	-384.68832	-384.727436	27.585	
O	-0.0662501016	-0.0196197742	 0.0295805565	-0.279235
C	-0.0039585468	 1.1917765452	 0.0041977557	 0.041095
C	 1.2362993882	 1.9544082196	-0.0175161959	 0.277611
C	 1.3718088674	 3.2912557086	-0.0118375857	-0.16478
C	 2.8752583014	 3.5974930537	 0.0016680067	-0.110779
C	 3.3520139237	 2.4201625879	-0.9085610365	-0.20492
C	 2.6568492626	 1.3577771314	-0.0025079361	-0.168603
C	 3.2954196438	 1.7515697796	 1.3425724578	-0.074611
C	 3.4230140995	 3.0776962749	 1.3499261571	-0.076839
H	-0.9269856904	 1.8139341815	-0.009450434	 0.06586
H	 0.5827386412	 4.0323763008	 0.0202425333	 0.118337
H	 3.1589083554	 4.6124035683	-0.2730933109	 0.069658
H	 2.9412309492	 2.460964956	-1.9215462125	 0.100563
H	 4.4397091488	 2.3202325492	-0.9378335935	 0.103847
H	 2.7172341913	 0.3089961599	-0.2836282345	 0.08784
H	 3.532233324	 1.0503910419	 2.1308534474	 0.109526
H	 3.7812452223	 3.7178214255	 2.1442763251	 0.105431
96.9519	179.6473	242.6652	429.6474	443.9064	509.292	540.0268	588.751	687.6269	736.5194	752.8276	806.3594	837.4315	873.846	891.0977	902.3409	926.0822	934.8261	947.5187	958.6171	1037.8972	1041.3421	1101.8806	1129.0501	1154.1306	1209.6982	1236.8199	1243.9082	1263.5528	1274.515	1308.5993	1342.3431	1415.7864	1494.7743	1627.0052	1660.2485	1773.2048	2876.4672	3057.3855	3120.3737	3127.0528	3151.2743	3212.9114	3215.9551	3241.7666
O=CC1=CC2CC1C=C2	O=CC1=C[C@@H]2C[C@H]1C=C2	
InChI=1S/C8H8O/c9-5-8-4-6-1-2-7(8)3-6/h1-2,4-7H,3H2	InChI=1S/C8H8O/c9-5-8-4-6-1-2-7(8)3-6/h1-2,4-7H,3H2/t6-,7+/m0/s1
