16
gdb 6515	3.02822	1.84714	1.42486	4.047	66.33	-0.2427	0.0108	0.2534	909.0151	0.128589	-379.909498	-379.900699	-379.899755	-379.942109	32.536	
C	-0.0198473377	 1.5455698377	 0.0610492133	-0.418804
C	 0.0084134872	 0.0333885939	-0.0085963904	 0.27587
N	-1.2215989544	-0.5155291934	-0.525507446	-0.565108
C	 1.3433194834	-0.6554625155	-0.241524916	-0.389872
C	 0.6768212676	-0.7095840038	 1.134415677	 0.226895
O	 1.1904791223	 0.0639585778	 2.1749421563	-0.443017
C	 0.116210987	-1.9787005625	 1.5506747286	 0.252913
N	-0.3193380367	-3.0013670878	 1.8729237565	-0.35484
H	 0.8831199305	 1.9444911428	 0.5236102989	 0.131384
H	-0.1040588452	 1.9581278149	-0.9507321189	 0.115397
H	-0.888797996	 1.8757436948	 0.635626552	 0.140275
H	-1.2835152285	-0.345483585	-1.5252126212	 0.232649
H	-1.2791402015	-1.5192164688	-0.3853576404	 0.245477
H	 1.362023633	-1.5685510977	-0.8264075002	 0.128036
H	 2.2404841079	-0.0470732658	-0.2926633673	 0.125279
H	 1.993081141	-0.3606917415	 2.5001015479	 0.297466
131.4716	144.6055	173.9581	197.1905	256.9275	268.3051	319.5445	394.1322	407.4638	420.3244	468.122	584.2265	602.0747	668.2359	743.4074	846.6518	879.7121	915.6884	927.5052	993.0514	1035.24	1076.4459	1111.8834	1211.7132	1228.8252	1318.9005	1331.4704	1397.939	1416.7432	1466.6207	1482.7917	1501.6592	1658.4696	2340.6898	3042.6688	3112.0963	3128.4534	3153.0932	3226.4484	3493.4453	3576.0174	3789.6771
CC1(N)CC1(O)C#N	C[C@@]1(N)C[C@]1(O)C#N	
InChI=1S/C5H8N2O/c1-4(7)2-5(4,8)3-6/h8H,2,7H2,1H3	InChI=1S/C5H8N2O/c1-4(7)2-5(4,8)3-6/h8H,2,7H2,1H3/t4-,5+/m1/s1
