16
gdb 33899	4.21601	1.27359	1.16963	2.4382	76.42	-0.2271	0.0162	0.2433	1056.0728	0.1243	-400.629066	-400.621831	-400.620887	-400.660562	28.922	
C	 0.0816950269	-1.2239590354	-0.0851787412	-0.382406
C	 0.0638854131	-0.0224751802	-0.0072741471	 0.13088
C	 0.0218994774	 1.3908687336	 0.1083296707	 0.203275
N	 0.1902257081	 2.2896657356	-1.0651274635	-0.354658
C	 1.1357618482	 2.4145219799	 0.0529679911	-0.133259
C	 0.4404145106	 3.2414130639	 1.1679540365	 0.1272
O	-0.4316388355	 4.2980254376	 0.7460689535	-0.288136
C	-1.5812396146	 3.4070616416	 0.7442728514	-0.089403
C	-0.7107048817	 2.2158780295	 1.2044355532	-0.150938
H	 0.1017793135	-2.2832647947	-0.1553470294	 0.189421
H	 0.650876324	 1.7445877844	-1.7932336426	 0.242671
H	 2.1980320207	 2.2615894101	-0.0970746867	 0.105214
H	 1.0682296312	 3.4971274549	 2.0247252378	 0.084448
H	-2.3255659655	 3.7293670837	 1.481267384	 0.099326
H	-2.0332594308	 3.3235090481	-0.2468909925	 0.123975
H	-0.9829842456	 1.6654892474	 2.1015204447	 0.092392
126.4515	145.872	249.1369	318.9085	394.3145	462.779	520.7487	572.2388	582.6998	640.152	669.3865	699.4703	811.1021	814.6011	862.9348	896.6179	910.7713	944.6115	969.6284	1001.3219	1020.6266	1044.3965	1063.3603	1125.0409	1160.937	1188.8816	1211.124	1240.1968	1241.7233	1299.9246	1338.7925	1358.9813	1396.3634	1500.2535	2230.4117	3033.6926	3084.7298	3105.2218	3149.8047	3186.58	3484.341	3502.1939
C#CC12NC1C1OCC21	C#C[C@]12N[C@H]1[C@H]1OC[C@@H]21	
InChI=1S/C7H7NO/c1-2-7-4-3-9-5(4)6(7)8-7/h1,4-6,8H,3H2	InChI=1S/C7H7NO/c1-2-7-4-3-9-5(4)6(7)8-7/h1,4-6,8H,3H2/t4-,5+,6+,7-/m1/s1
