17
gdb 20875	6.74168	1.07393	0.98655	2.3162	69.87	-0.2552	0.013	0.2682	1201.74	0.144436	-360.0815	-360.073731	-360.072787	-360.114498	27.767	
C	 0.0189285952	 1.5414794376	-0.0201575822	-0.381081
C	 0.0612344413	 0.0121039342	-0.0277921484	-0.160147
C	 0.6263427815	-0.5701424234	 1.2802600003	-0.28184
C	 0.7210342633	-2.0611671896	 1.2577642574	 0.345724
N	-0.0052696278	-2.8393059257	 2.0489335793	-0.268454
N	 0.3919159472	-4.0818126105	 1.6774383966	-0.178941
C	 1.3177780851	-4.0029438946	 0.702633305	 0.014816
N	 1.553723922	-2.7416109391	 0.4076526506	-0.300267
H	 1.0211063778	 1.964492697	 0.1121161358	 0.114685
H	-0.3854550962	 1.931660512	-0.9592828264	 0.11169
H	-0.6088114585	 1.9188016059	 0.7949917523	 0.113583
H	-0.9470247182	-0.3882983459	-0.1898604237	 0.099955
H	 0.6740444074	-0.3441803114	-0.8631194466	 0.118078
H	 1.6273718401	-0.1553172983	 1.4522556964	 0.113798
H	 0.0008908906	-0.2762740523	 2.1289003897	 0.115023
H	-0.0010505077	-4.8910673385	 2.1286040025	 0.280257
H	 1.780101657	-4.8688898374	 0.2525052116	 0.143122
51.757	93.5937	124.2545	244.8529	311.4358	342.6868	390.0713	531.6577	681.2877	712.7898	748.7969	802.1879	855.9676	879.021	902.6994	996.2033	1000.9929	1047.1844	1086.3897	1106.2357	1113.7419	1171.0219	1251.752	1290.8975	1308.9648	1321.0444	1358.7432	1383.2347	1412.5244	1470.0994	1471.9301	1490.3757	1496.7048	1499.2085	1510.2734	1561.9534	3027.4279	3028.3393	3039.0426	3065.4863	3088.7958	3102.0164	3102.8096	3255.2067	3668.6327
CCCC1=NNC=N1	CCCc1n[nH]cn1	
InChI=1S/C5H9N3/c1-2-3-5-6-4-7-8-5/h4H,2-3H2,1H3,(H,6,7,8)	InChI=1S/C5H9N3/c1-2-3-5-6-4-7-8-5/h4H,2-3H2,1H3,(H,6,7,8)
