19
gdb 87646	2.66479	1.2641	1.08981	4.0193	76.25	-0.2681	0.0112	0.2793	1207.0596	0.157615	-423.047335	-423.038241	-423.037296	-423.08114	33.65	
C	 0.1377326616	 1.5974813379	 0.2392108113	-0.405877
C	-0.0170490372	 0.0953786638	 0.1435403756	-0.078204
C	 1.1426093976	-0.7697735517	-0.3500324756	-0.367895
C	 0.7175683762	-0.8073926366	 1.0748344567	 0.452582
O	 1.5730153745	-0.2672786158	 2.1191868878	-0.26948
C	 1.1653149402	-1.2411817582	 3.0018746946	 0.452319
O	 1.4863377456	-1.370499046	 4.1388030615	-0.326231
C	 0.2489624615	-1.9386419912	 1.9871987362	-0.292081
C	-1.2252220576	-2.0441457981	 2.357833094	-0.409249
H	 1.133206999	 1.8649916151	 0.6032860388	 0.137011
H	-0.0092741188	 2.0686793005	-0.7379275432	 0.121579
H	-0.5931786788	 2.0249534341	 0.9334668237	 0.124277
H	-1.0090245392	-0.2480608893	-0.1425039735	 0.094178
H	 0.9333265126	-1.6282486715	-0.9801191391	 0.119776
H	 2.0769028945	-0.2621672602	-0.5684043631	 0.131232
H	 0.6545156458	-2.914421923	 1.7013549763	 0.116662
H	-1.635056848	-1.0691445602	 2.6365082436	 0.132067
H	-1.8115610871	-2.4352047063	 1.5206094239	 0.124851
H	-1.3524184423	-2.7222003432	 3.2062665104	 0.142483
86.8534	130.365	167.0282	191.6012	197.9989	210.9056	267.5297	367.6311	428.9583	503.9589	547.2885	556.9712	694.1452	773.1854	802.5131	833.4952	872.5904	884.6977	942.5057	978.4187	1044.9377	1063.3479	1080.8629	1097.8924	1112.1388	1132.4354	1144.5662	1183.399	1222.4944	1255.687	1310.4778	1346.7908	1409.9492	1413.4583	1431.5321	1488.27	1492.5813	1494.8865	1497.2774	1511.9507	1939.3242	3037.7042	3042.4532	3065.5035	3099.3872	3112.8377	3115.4076	3122.4891	3126.5533	3134.7216	3215.0264
CC1CC11OC(=O)C1C	C[C@H]1C[C@]21OC(=O)[C@H]2C	
InChI=1S/C7H10O2/c1-4-3-7(4)5(2)6(8)9-7/h4-5H,3H2,1-2H3	InChI=1S/C7H10O2/c1-4-3-7(4)5(2)6(8)9-7/h4-5H,3H2,1-2H3/t4-,5+,7+/m0/s1
