21
gdb 79198	2.32814	1.86923	1.36947	1.2784	81.77	-0.2395	0.0852	0.3247	1036.8897	0.184263	-387.040189	-387.032281	-387.031336	-387.07206	32.59	
C	-0.1397041838	 1.5789067888	-0.0144721552	-0.436039
C	 0.081069048	 0.0678380529	 0.0381072365	-0.091514
C	 1.2757058971	-0.7756571681	-0.412274875	-0.112728
C	 2.7450537496	-0.3434813293	-0.2386718867	-0.039146
C	 3.1541755475	-1.2739841448	 0.9619053157	-0.210086
C	 2.1405786843	-0.3456120538	 1.7217981886	-0.096208
C	 2.7041645847	 0.7875051982	 0.8246695164	-0.240125
C	 0.833120501	-0.7922565472	 1.0327313037	 0.384661
O	 0.2128676288	-1.9296296315	 1.5626591747	-0.47182
H	 0.4956319766	 2.0684342755	-0.7581689392	 0.128697
H	-1.1770459463	 1.7871489904	-0.2945130007	 0.111061
H	 0.0345015614	 2.0663591985	 0.9491628122	 0.123309
H	-0.8217984944	-0.4756414217	-0.2357604922	 0.091617
H	 1.0729828386	-1.6211665146	-1.0607838784	 0.090826
H	 3.354167751	-0.2575063089	-1.1389775875	 0.057934
H	 2.9007369198	-2.3344942375	 0.8939645272	 0.103508
H	 4.1915378101	-1.1412135681	 1.2822079678	 0.086331
H	 2.1222575519	-0.268110565	 2.8101364121	 0.051726
H	 3.7122760312	 1.0680341128	 1.1399551265	 0.094567
H	 2.1229221157	 1.686128627	 0.6435423517	 0.094528
H	-0.330900403	-1.6503471536	 2.3071593016	 0.2789
116.5519	212.003	236.7002	255.5198	310.0435	330.6201	417.5995	515.3636	538.3615	559.6523	660.0001	702.3649	719.2648	829.6066	840.4216	867.4598	877.2952	910.4829	961.4912	982.0705	996.1633	1003.3752	1030.24	1059.0254	1083.1766	1084.4939	1100.8619	1104.0257	1114.2472	1138.4451	1211.382	1218.9096	1235.7949	1244.616	1250.4071	1292.2896	1313.3834	1324.1834	1359.8559	1416.0178	1455.5348	1489.5206	1503.6463	1505.6306	1536.6303	3037.0483	3054.7884	3077.2705	3093.3739	3099.7847	3105.5731	3108.1522	3121.4515	3121.9042	3169.8923	3183.7561	3794.3443
CC1C2C3CC(C3)C12O	C[C@H]1[C@H]2[C@@H]3C[C@@H](C3)[C@@]12O	
InChI=1S/C8H12O/c1-4-7-5-2-6(3-5)8(4,7)9/h4-7,9H,2-3H2,1H3	InChI=1S/C8H12O/c1-4-7-5-2-6(3-5)8(4,7)9/h4-7,9H,2-3H2,1H3/t4-,5-,6+,7-,8-/m0/s1
