19
gdb 55706	2.21824	1.36822	0.98649	2.1714	82.04	-0.2366	-0.0133	0.2233	1251.8976	0.155797	-385.866229	-385.856356	-385.855412	-385.901677	36.196	
C	 0.4236434076	 0.7830115279	 0.6627244729	-0.481844
C	-0.5513137099	 0.0935843639	-0.2674902956	 0.399026
O	-1.7511893815	 0.1860663173	-0.1395364227	-0.305453
C	 0.0412892566	-0.7687341675	-1.3861589214	-0.377636
C	 0.1501355073	-2.2386593826	-0.957743367	 0.150282
C	-1.1487918653	-3.0214053453	-0.8209928979	-0.285324
C	-0.236088125	-3.3065931938	-1.9758050616	-0.309786
C	 1.2228075112	-2.5484523542	-0.0504099626	 0.29923
C	 2.1284097941	-2.7979012583	 0.7025865202	-0.472656
H	 1.1165114771	 0.0471753995	 1.0856840004	 0.157459
H	 1.0308343337	 1.5013921276	 0.0989449285	 0.137031
H	-0.1147563933	 1.3001720417	 1.4577227664	 0.138012
H	-0.6406360624	-0.7010044225	-2.237933818	 0.120748
H	 1.0262939612	-0.4029671234	-1.6926785665	 0.110826
H	-1.2072570451	-3.7504628257	-0.0221309661	 0.128998
H	-2.0596270266	-2.4607990577	-0.9958170789	 0.144077
H	-0.5202299148	-2.9615172203	-2.9639218305	 0.121594
H	 0.3343781199	-4.2275715496	-1.9633665552	 0.129591
H	 2.9237394851	-3.0292061571	 1.3669469958	 0.195824
33.0964	82.3571	130.5803	161.9241	179.6436	223.9185	285.762	337.0513	391.0919	504.8298	530.7706	543.5103	577.1331	590.4078	649.1779	700.5576	781.7761	802.1388	867.9449	900.2594	932.4541	952.5213	964.0147	1039.5641	1054.243	1065.7676	1088.2795	1155.1952	1192.5476	1240.8335	1269.5918	1315.6753	1342.6088	1382.4931	1460.5402	1468.1935	1471.7893	1476.0772	1498.724	1808.2768	2228.2639	3033.4959	3050.6339	3096.5055	3109.2795	3138.7521	3150.8008	3153.1693	3226.7412	3244.2091	3501.8187
CC(=O)CC1(CC1)C#C	CC(=O)CC1(CC1)C#C	
InChI=1S/C8H10O/c1-3-8(4-5-8)6-7(2)9/h1H,4-6H2,2H3	InChI=1S/C8H10O/c1-3-8(4-5-8)6-7(2)9/h1H,4-6H2,2H3
