14
gdb 29231	3.18628	1.37234	0.95921	3.6504	69.05	-0.1997	-0.0258	0.1739	1119.0598	0.101965	-473.886481	-473.878796	-473.877852	-473.918414	29.733	
O	-0.1077752043	 1.3937857045	 0.0112332853	-0.436773
C	 0.0115869175	 0.0332767068	 0.0033319519	 0.230838
C	 1.1832158378	-0.6522749488	-0.0076277663	-0.087895
N	 1.2004470658	-2.0219893386	-0.0149408824	-0.376954
C	 0.0635808692	-2.8467021732	-0.0121532708	 0.440598
O	 0.1827546027	-4.06312237	-0.019346567	-0.41548
C	-1.1713813057	-2.0946845102	-0.0004823539	-0.423908
C	-1.2076067348	-0.7291347128	 0.0069429542	 0.39632
O	-2.3438304406	-0.0006881314	 0.0178902008	-0.416792
H	 0.77021931	 1.7884101426	 0.0080544763	 0.298501
H	 2.1468922854	-0.1561950539	-0.0110637098	 0.121417
H	 2.079569144	-2.5176830301	-0.0230607572	 0.259601
H	-2.0860196888	-2.6775811906	 0.0021626844	 0.103565
H	-3.0984544281	-0.6007293342	 0.019445667	 0.306962
124.0524	200.2857	251.0052	309.0072	354.6948	374.0975	405.7106	450.4139	468.5505	530.844	597.8129	606.2652	708.9991	734.1882	760.3975	796.1797	821.5044	845.1624	934.7786	1136.5915	1195.2582	1209.3334	1243.6356	1262.3868	1325.0108	1388.0625	1445.9168	1551.1986	1603.9453	1696.3592	1778.6305	3190.4955	3194.5896	3624.7067	3809.8356	3827.4481
OC1=CNC(=O)C=C1O	Oc1c[nH]c(=O)cc1O	
InChI=1S/C5H5NO3/c7-3-1-5(9)6-2-4(3)8/h1-2,8H,(H2,6,7,9)	InChI=1S/C5H5NO3/c7-3-1-5(9)6-2-4(3)8/h1-2,8H,(H2,6,7,9)
