19
gdb 38329	3.81886	1.42237	1.18185	1.7914	79.65	-0.2342	0.0275	0.2616	1063.7095	0.160266	-385.826895	-385.81967	-385.818726	-385.859493	29.117	
C	-0.1622891029	 1.5510374804	 0.0704007766	-0.237108
C	 1.3514523806	 1.2368380807	 0.1150351576	-0.005748
O	 1.0543390679	 0.1135551289	 1.0382565517	-0.318576
C	 0.0524518169	 0.0243393952	-0.0529069021	-0.005744
C	 1.1987451641	 0.2522106726	-1.0796855987	 0.396666
C	 0.8988983892	 0.7716980338	-2.5111928675	-0.36997
C	 1.7922980386	-0.0637476101	-3.3923369958	-0.069962
C	 2.5190747337	-0.9381423411	-2.7008960401	-0.064762
C	 2.2620296654	-0.867634026	-1.2191621564	-0.338662
H	-0.5861937496	 1.8734080775	 1.0217892071	 0.107109
H	-0.5641763513	 2.0998754846	-0.7835345132	 0.101747
H	 2.1922132234	 1.885978389	 0.3685862663	 0.089107
H	-0.6740336913	-0.789402304	-0.0019825276	 0.089109
H	-0.1596542969	 0.6531617968	-2.7788970336	 0.108761
H	 1.1159085394	 1.8434092105	-2.6141328006	 0.108762
H	 1.8162799507	 0.0595725285	-4.4697023342	 0.091067
H	 3.2273701414	-1.637435335	-3.1322031035	 0.091405
H	 3.1730160392	-0.6365574518	-0.6537883652	 0.113396
H	 1.9021791117	-1.8227923006	-0.8177737109	 0.113403
22.7129	217.797	238.3367	360.9943	381.7805	414.2086	529.8155	635.9474	680.1856	743.5164	764.6968	792.2628	798.7266	863.1245	880.5657	920.2779	953.9037	962.4898	984.7363	987.4476	1017.4143	1020.4231	1062.1514	1072.7778	1127.5022	1130.5055	1169.0944	1172.4965	1176.2876	1182.3754	1199.1087	1236.5859	1272.0373	1288.5918	1297.0982	1353.8126	1371.8952	1476.9689	1482.3452	1490.2694	1698.9737	3007.8887	3027.945	3031.0374	3050.2405	3071.1781	3093.6388	3102.3251	3151.2356	3177.7462	3203.1453
C1C2OC1C21CC=CC1	C1[C@H]2O[C@@H]1[C@]12CC=CC1	
InChI=1S/C8H10O/c1-2-4-8(3-1)6-5-7(8)9-6/h1-2,6-7H,3-5H2	InChI=1S/C8H10O/c1-2-4-8(3-1)6-5-7(8)9-6/h1-2,6-7H,3-5H2/t6-,7+
