19
gdb 13560	2.75807	1.52804	1.11282	2.9533	72.44	-0.2463	-0.0212	0.2251	1112.2533	0.163415	-365.05055	-365.041247	-365.040303	-365.085475	32.736	
C	-0.0262147024	 1.4121186525	-0.2992772017	-0.412992
C	 0.1008166273	-0.0533198147	 0.1565758919	-0.063355
C	 0.8110488029	-0.1129951659	 1.495637331	 0.166668
O	 1.8750123176	-0.63793736	 1.697606503	-0.249721
C	-1.2752561544	-0.6905007049	 0.2820392549	-0.025928
N	-1.9474371975	-1.061133358	-0.9735956899	-0.342915
C	-1.580297428	-2.1185163236	-0.0125171762	-0.002035
C	-0.5629142619	-3.1408372376	-0.4592921806	-0.397115
H	 0.9564390418	 1.8676719936	-0.4515047291	 0.127697
H	-0.5799093372	 1.4511415033	-1.2410126873	 0.142212
H	-0.5681459153	 2.0133275427	 0.4401706838	 0.115278
H	 0.7069212491	-0.6094875792	-0.5616631393	 0.100719
H	 0.2600504732	 0.397265937	 2.3236600458	 0.065149
H	-1.8942863231	-0.2260364483	 1.0515297578	 0.080667
H	-2.9407557156	-0.8528872391	-0.9244776348	 0.231434
H	-2.3949258523	-2.5380590124	 0.5777935691	 0.083713
H	 0.191889959	-2.6954984244	-1.1102598752	 0.133335
H	-0.057577294	-3.5913733488	 0.4013959307	 0.126374
H	-1.0538200091	-3.9422108022	-1.021608434	 0.120816
38.9437	56.4866	139.6043	186.2189	206.3252	227.9207	288.9343	323.9024	383.6503	447.0829	533.5174	537.0659	783.0407	820.0623	886.3022	906.613	944.7962	962.8443	1006.2594	1013.9379	1056.9218	1096.6873	1111.4257	1151.8197	1162.4955	1217.7947	1256.222	1274.1637	1279.9064	1321.9899	1396.1106	1404.0029	1424.52	1433.7042	1466.9333	1489.7341	1496.1391	1499.4806	1504.4171	1836.5778	2830.0239	3032.4992	3039.4848	3083.5386	3093.1163	3100.1821	3104.0715	3108.8531	3123.6277	3134.6032	3506.5534
CC(C=O)C1NC1C	C[C@@H](C=O)[C@H]1N[C@H]1C	
InChI=1S/C6H11NO/c1-4(3-8)6-5(2)7-6/h3-7H,1-2H3	InChI=1S/C6H11NO/c1-4(3-8)6-5(2)7-6/h3-7H,1-2H3/t4-,5-,6+/m0/s1
