20
gdb 11672	3.33655	1.71973	1.42463	1.6896	75.32	-0.2312	0.0925	0.3237	985.5027	0.175974	-348.95113	-348.942874	-348.94193	-348.983568	31.601	
C	 0.0669267334	 1.5340969213	 0.0391072686	-0.379893
C	 0.0179532328	 0.0050198098	-0.0549149557	-0.317537
C	 0.6289534379	-0.5246205078	-1.3190445413	 0.425321
C	 0.3279623349	-0.1780040891	-2.8038909666	-0.265852
C	 1.6143921938	-1.0257985284	-2.7344588732	 0.038139
O	 2.0651320576	-0.2013314661	-1.590702091	-0.350846
C	 0.9192636418	-2.0008300588	-1.7472207604	-0.009352
C	 1.7685023462	-2.8780683886	-0.8477752715	-0.431804
H	 1.0973166864	 1.889935727	-0.0442846761	 0.140019
H	-0.5136980841	 1.9982172983	-0.7644442107	 0.117632
H	-0.34193924	 1.8802958183	 0.9926730235	 0.111289
H	 0.5464847518	-0.4419527078	 0.7961398304	 0.112192
H	-1.0188335327	-0.351227303	-0.0020591208	 0.104065
H	-0.5608123619	-0.6167656014	-3.2656823755	 0.08974
H	 0.482544783	 0.8662460291	-3.0768817947	 0.104364
H	 2.3472043874	-1.2348716985	-3.5145140963	 0.088257
H	 0.0550411944	-2.5339045325	-2.1591399719	 0.063346
H	 2.6190560114	-2.3133251015	-0.4601114604	 0.136042
H	 1.1842839126	-3.25573349	-0.0013097678	 0.112294
H	 2.1475895131	-3.7476998304	-1.3955763984	 0.112583
79.5861	149.4923	195.5874	220.5044	253.7861	290.9145	345.5798	435.0706	523.7063	614.9002	674.2834	716.629	766.1111	803.1966	806.1011	894.1926	925.3764	960.2135	989.2107	1017.5092	1033.4835	1058.864	1073.7881	1126.575	1138.2775	1150.8128	1170.4918	1213.3521	1219.3921	1245.4234	1286.3269	1320.7354	1376.4837	1394.9429	1407.8396	1412.8957	1471.3572	1487.2453	1496.6755	1500.419	1506.1563	1508.3555	3025.7555	3032.9188	3042.4401	3044.7313	3061.1799	3061.5078	3089.4998	3110.0309	3112.7022	3123.3752	3131.8221	3145.6948
CCC12CC(O1)C2C	CC[C@@]12C[C@@H](O1)[C@H]2C	
InChI=1S/C7H12O/c1-3-7-4-6(8-7)5(7)2/h5-6H,3-4H2,1-2H3	InChI=1S/C7H12O/c1-3-7-4-6(8-7)5(7)2/h5-6H,3-4H2,1-2H3/t5-,6-,7+/m1/s1
