18
gdb 98161	2.65645	1.16667	1.00767	3.9984	74.14	-0.2354	-0.0019	0.2335	1254.9609	0.145535	-435.281233	-435.270717	-435.269773	-435.316942	37.188	
C	 0.0283474885	 1.4251964791	 0.2471124731	-0.31179
N	-0.0838692792	-0.0189188209	 0.2114491369	-0.301029
C	-1.2575121072	-0.6289872256	-0.1079342483	 0.323701
N	-2.2818835184	 0.0337895564	-0.4871804964	-0.543407
C	-1.1472262782	-2.1771092201	-0.0413820051	 0.116626
C	-0.6016714207	-2.7163757263	-1.3726302552	-0.385777
O	-0.2318905637	-2.6050587961	 0.9659363327	-0.445837
C	-2.4821279148	-2.7520688191	 0.2301369929	 0.257549
N	-3.5119224667	-3.2191532064	 0.4678914436	-0.333093
H	 1.0667187951	 1.6939103304	 0.4517650919	 0.120713
H	-0.2700942457	 1.846892089	-0.7162567586	 0.151562
H	-0.6186789493	 1.868845556	 1.0141359275	 0.133543
H	 0.6043188082	-0.5844126797	 0.6789339908	 0.253015
H	-3.0654152384	-0.5790527751	-0.7036325852	 0.228119
H	 0.3897493553	-2.2906812578	-1.5404539063	 0.141671
H	-0.5264220836	-3.8047988565	-1.3304948444	 0.146006
H	-1.2576334952	-2.4260313834	-2.1951179073	 0.147988
H	-0.6196793662	-2.4198551541	 1.8299756476	 0.300439
47.5288	100.4743	114.8584	150.582	192.819	215.9757	243.3349	262.2561	331.9196	342.1718	377.1597	456.8465	464.4119	523.3415	573.9753	637.5066	727.1414	775.0123	826.1269	901.4481	954.3625	1024.9887	1058.2239	1157.2955	1158.9752	1178.4251	1186.9409	1206.423	1323.8627	1355.7013	1404.5642	1453.642	1473.6809	1480.9802	1486.7567	1512.5599	1554.4071	1713.3284	2355.5282	3025.8333	3062.1267	3093.3205	3135.1865	3147.5401	3152.6768	3507.7361	3658.4044	3794.3102
CNC(=N)C(C)(O)C#N	CNC(=N)[C@@](C)(O)C#N	
InChI=1S/C5H9N3O/c1-5(9,3-6)4(7)8-2/h9H,1-2H3,(H2,7,8)	InChI=1S/C5H9N3O/c1-5(9,3-6)4(7)8-2/h9H,1-2H3,(H2,7,8)/t5-/m0/s1
