20
gdb 114804	2.64319	1.30668	1.15676	3.7372	74.62	-0.2246	0.0595	0.2842	1168.5317	0.170803	-440.234312	-440.225444	-440.2245	-440.267852	33.718	
C	 0.0266775747	 1.6461073718	 0.1004311281	-0.514136
C	 0.0286254883	 0.1405476503	 0.0243716991	 0.263765
N	-1.272789776	-0.5520841698	 0.2602818254	-0.350816
C	-0.6784280608	-1.3832746576	 1.3497275551	-0.189919
C	 0.7237466167	-0.8538387921	 0.9949422982	 0.06906
O	 1.3553180652	-1.54476202	-0.0990233566	-0.335117
C	 0.8603831966	-0.5730107773	-1.073560909	 0.102284
C	 0.1890277346	-1.2733614667	-2.2381984239	-0.082948
O	 1.0947289935	-2.1787508952	-2.8504978473	-0.425761
H	 1.0368806257	 2.0506243396	-0.0146456343	 0.130262
H	-0.5966551081	 2.0710061337	-0.6958379679	 0.13144
H	-0.3723987101	 1.9938125178	 1.0597122786	 0.118602
H	-1.9979617823	 0.0769597766	 0.5847456415	 0.217735
H	-0.9951834892	-1.0934365367	 2.3595628831	 0.098199
H	-0.8242587794	-2.4604572152	 1.2221209347	 0.112025
H	 1.4237410756	-0.6072724039	 1.7968022529	 0.08141
H	 1.7003199926	 0.0378317243	-1.4333694044	 0.074641
H	-0.7215054389	-1.7734405477	-1.8860074012	 0.107759
H	-0.0965286416	-0.5426022008	-3.0034921713	 0.100073
H	 1.4104800629	-2.7536528608	-2.1431152306	 0.291441
82.3851	113.6024	170.1783	211.807	216.52	308.8021	324.0508	388.4934	432.1146	478.2227	525.8309	634.7757	679.616	740.6406	825.8389	857.429	870.3295	924.6992	945.1121	1000.36	1030.9726	1037.3853	1068.5116	1081.2689	1111.9862	1143.302	1151.2437	1177.5597	1214.7713	1231.9919	1235.523	1285.0028	1309.0176	1336.3147	1352.2329	1387.7742	1408.5414	1417.2576	1437.3869	1489.5851	1491.61	1496.4988	1505.6462	3005.7338	3018.6122	3024.6435	3028.3086	3077.0359	3078.7933	3082.749	3087.5788	3105.5892	3539.801	3792.6017
CC12NCC1OC2CO	C[C@]12NC[C@H]1O[C@H]2CO	
InChI=1S/C6H11NO2/c1-6-4(2-7-6)9-5(6)3-8/h4-5,7-8H,2-3H2,1H3	InChI=1S/C6H11NO2/c1-6-4(2-7-6)9-5(6)3-8/h4-5,7-8H,2-3H2,1H3/t4-,5+,6+/m1/s1
