19
gdb 81225	2.36667	1.9439	1.66426	1.1444	74.26	-0.2455	0.0551	0.3006	930.4102	0.159966	-422.9364	-422.929032	-422.928088	-422.967825	29.97	
C	-0.2573366913	 1.5961922293	-0.0876711124	-0.437233
C	 0.0330360751	 0.1054798252	-0.0312253364	 0.011077
C	 1.1781996795	-0.5965486103	-0.7858576708	 0.041777
C	 2.4274040486	 0.2497361952	-0.3305461757	-0.320303
C	 2.156436277	 0.0539682462	 1.1822147918	 0.138076
O	 1.6194800596	 0.911859039	 2.2595514553	-0.313016
C	 0.6545175523	-0.1551534942	 2.5703517796	-0.215366
C	 0.809838258	-0.5950650561	 1.1056984147	 0.359197
O	 1.046832192	-1.7161248068	 0.193951317	-0.371783
H	 0.6027244583	 2.2135884097	 0.1724611615	 0.13784
H	-0.6035503759	 1.8791220494	-1.0881699616	 0.114964
H	-1.0580764827	 1.8480171351	 0.6155815065	 0.12218
H	-0.8804750579	-0.4745098517	-0.1914115186	 0.088884
H	 1.1150347539	-0.9356762046	-1.8193313339	 0.085443
H	 3.383072907	-0.1896934991	-0.62152859	 0.112806
H	 2.3789018274	 1.2681796809	-0.7194782827	 0.122952
H	 2.9177506235	-0.5944056862	 1.6291007588	 0.088518
H	 1.0564656258	-0.8492072598	 3.3181775221	 0.117377
H	-0.3107257802	 0.2468577988	 2.8893994447	 0.116611
132.0572	192.9982	225.026	309.5716	362.1505	396.5674	441.8481	557.4141	598.1031	679.1187	718.5262	747.4151	771.7813	814.9466	848.7495	895.1966	910.0933	939.0221	1000.84	1004.7039	1044.2983	1059.4396	1073.7121	1125.7236	1143.7728	1147.3791	1172.7506	1202.3017	1214.4146	1244.7416	1264.5587	1285.8864	1310.7379	1325.6692	1396.6577	1401.0428	1412.8453	1475.9392	1487.0533	1503.3339	1505.2565	3029.6786	3037.8755	3041.6677	3071.1959	3084.8711	3093.573	3102.9266	3132.055	3134.5152	3144.8857
CC1C2CC3OCC13O2	C[C@H]1[C@H]2C[C@H]3OC[C@@]13O2	
InChI=1S/C7H10O2/c1-4-5-2-6-7(4,9-5)3-8-6/h4-6H,2-3H2,1H3	InChI=1S/C7H10O2/c1-4-5-2-6-7(4,9-5)3-8-6/h4-6H,2-3H2,1H3/t4-,5+,6+,7+/m0/s1
