21
gdb 114733	2.30399	1.51795	1.12408	2.7449	76.96	-0.2361	0.0757	0.3118	1163.2896	0.183307	-424.209544	-424.200876	-424.199931	-424.242733	33.876	
C	-0.6985747884	 1.3510746202	-0.1392787818	-0.401293
C	-0.0610448738	-0.0427600253	-0.1215339997	-0.031858
C	 1.0608703246	-0.2556325237	-1.1333702377	-0.071859
C	 2.4062371518	 0.4094936332	-0.886703635	-0.331369
C	 2.1413704889	-0.9978805474	-0.4165788755	 0.106513
O	 1.7851710948	-1.2026753071	 0.9268699561	-0.28793
C	 0.569666022	-0.4860584126	 1.2350143327	 0.071927
C	 0.9149518591	 0.6088444176	 2.2495253585	-0.065942
O	 1.5845366161	 0.0464045799	 3.3591190346	-0.426299
H	 0.0359204037	 2.1390833267	 0.048373216	 0.122545
H	-1.1468429635	 1.546396753	-1.1183330335	 0.116688
H	-1.4926599293	 1.440675812	 0.6089486954	 0.119212
H	-0.8445497158	-0.7690723387	-0.3684320155	 0.084505
H	 0.7825938268	-0.4963870812	-2.1531243544	 0.091347
H	 3.0542516816	 0.5330951221	-1.7484027699	 0.11469
H	 2.4912145968	 1.1993633218	-0.1492570367	 0.119158
H	 2.6842819679	-1.8407490197	-0.8286417337	 0.101428
H	-0.080325717	-1.2014620999	 1.7531030994	 0.090467
H	 1.5197372586	 1.4015529835	 1.7825705996	 0.084698
H	-0.0014629666	 1.0737868394	 2.6280840905	 0.105029
H	 2.2686002715	-0.5223279938	 2.9829610907	 0.288345
80.4991	136.946	194.4073	212.1547	251.8153	289.5927	382.3422	426.9344	478.1268	489.5421	501.3612	656.0286	715.6861	751.6142	786.1136	822.6629	891.672	938.0837	978.8695	987.9124	998.9065	1030.5962	1045.6066	1064.2767	1086.3716	1094.1026	1104.3913	1136.9519	1157.2364	1174.7735	1207.7092	1229.7416	1287.4703	1323.2793	1335.4425	1353.8529	1376.1676	1390.9871	1401.4292	1415.0761	1443.5165	1474.9934	1496.2861	1502.6142	1508.9951	2980.4789	3020.3603	3038.7904	3040.571	3073.9565	3102.9493	3117.8481	3133.1792	3167.9224	3179.2702	3221.1022	3773.0731
CC1C2CC2OC1CO	C[C@H]1[C@H]2C[C@H]2O[C@H]1CO	
InChI=1S/C7H12O2/c1-4-5-2-6(5)9-7(4)3-8/h4-8H,2-3H2,1H3	InChI=1S/C7H12O2/c1-4-5-2-6(5)9-7(4)3-8/h4-8H,2-3H2,1H3/t4-,5+,6+,7-/m0/s1
