14
gdb 44321	3.53376	1.93084	1.47855	4.6092	64.83	-0.2516	-0.0026	0.2491	838.669	0.103082	-436.58898	-436.583299	-436.582355	-436.618924	23.592	
O	-0.0071717278	 0.0783156773	-0.2010107867	-0.341923
C	 0.0484128961	 1.2540248286	-0.0178657828	 0.42306
O	-1.0519271863	 2.0934848568	 0.0652303966	-0.271499
C	-0.5047261528	 3.4443920017	 0.2890217022	 0.062575
C	 0.7151662096	 3.5528578747	-0.6299571938	-0.088028
C	 1.7709957548	 3.9483558569	 0.445521528	-0.095303
N	 2.5745347478	 2.6461732379	 0.3610178399	-0.414516
C	 1.1471740007	 2.2662816464	 0.1691827208	 0.134687
C	 0.6538436825	 3.2614742442	 1.2727240542	-0.054435
H	-1.3355740059	 4.1406098424	 0.3736574261	 0.10346
H	 0.767758859	 3.6670254792	-1.7124174456	 0.102893
H	 2.2656127985	 4.9035252274	 0.6166223519	 0.102034
H	 3.0781435489	 2.5936302934	-0.5286997331	 0.223498
H	 0.6491832649	 3.0416249331	 2.3381718822	 0.113496
181.3735	317.1839	402.1099	505.8922	550.4278	638.3503	705.3918	714.8314	791.5836	804.7088	823.6292	869.9735	879.3598	898.7427	904.2428	963.2322	999.6625	1017.2424	1042.9019	1092.6332	1116.9621	1131.6269	1152.5356	1188.2453	1212.7727	1235.7667	1279.3027	1288.4403	1309.5539	1346.661	1911.8293	3121.4006	3131.2364	3147.3231	3158.5881	3411.8542
O=C1OC2C3C4NC13C24	O=C1O[C@@H]2[C@H]3[C@@H]4N[C@]13[C@H]24	
InChI=1S/C6H5NO2/c8-5-6-1-3(7-6)2(6)4(1)9-5/h1-4,7H	InChI=1S/C6H5NO2/c8-5-6-1-3(7-6)2(6)4(1)9-5/h1-4,7H/t1-,2+,3+,4-,6-
