16
gdb 83862	2.37545	1.85252	1.38005	3.2703	66.13	-0.246	0.0065	0.2526	956.7333	0.125666	-475.003855	-474.996446	-474.995502	-475.035837	28.709	
O	 0.0807089413	 1.3551806988	-0.1217414527	-0.413297
C	-0.0256392098	-0.0195671068	-0.0373370388	 0.113114
C	-0.459872291	-0.6424891153	 1.2523684735	-0.006099
O	-0.811834175	 0.307870596	 2.2309723678	-0.24869
C	-2.2027969627	 0.4131256234	 2.376988017	-0.005683
O	-2.8233192554	 0.8790555281	 1.1906802375	-0.246039
C	-2.6418100443	 0.0821517148	 0.0779933097	 0.405167
N	-3.4695545236	 0.0668002827	-0.8754344532	-0.518547
C	-1.3938017557	-0.7198426911	 0.0533490918	-0.204159
H	-0.1553167206	 1.7071508302	 0.7480963802	 0.296282
H	 0.7193483557	-0.5328454795	-0.6365995637	 0.118581
H	 0.0088458831	-1.5361243383	 1.6547658251	 0.111234
H	-2.6329638968	-0.556767131	 2.6647291454	 0.111567
H	-2.3946274132	 1.1647740226	 3.1433166882	 0.134783
H	-4.2590167442	 0.6808246786	-0.6652828732	 0.224636
H	-1.4810783779	-1.6604352031	-0.4752468047	 0.127151
96.4596	130.0216	228.0034	338.3439	393.9528	402.8758	434.294	495.0026	569.5955	628.4183	718.7914	757.0497	784.9161	802.1103	861.9601	908.4095	947.6415	967.55	1028.9921	1057.3093	1080.5379	1106.3488	1121.399	1162.6791	1197.4218	1233.2289	1294.6917	1301.1804	1337.756	1354.3509	1377.0461	1446.8389	1452.465	1516.7641	1759.5014	3005.3651	3135.0959	3142.7555	3167.8099	3200.7881	3469.7348	3745.7475
OC1C2OCOC(=N)C12	O[C@H]1[C@H]2OCO[C]([NH])[C@@H]12	
InChI=1S/C5H7NO3/c6-5-2-3(7)4(2)8-1-9-5/h2-4,6-7H,1H2	InChI=1S/C5H7NO3/c6-5-2-3(7)4(2)8-1-9-5/h2-4,6-7H,1H2/t2-,3+,4-/m0/s1
