19
gdb 112469	3.23916	1.0527	0.84413	3.3747	78.	-0.2367	-0.0114	0.2254	1351.8213	0.159247	-423.054838	-423.046018	-423.045074	-423.088787	32.82	
O	-0.012074693	 1.4461944135	 0.0026411177	-0.420817
C	 0.0244567809	 0.0290923093	-0.0551987045	-0.09061
C	-1.4142431478	-0.4843919783	 0.0552290126	-0.038874
C	-1.4644236623	-2.0093709333	-0.1694512146	-0.323071
C	-2.8326285559	-2.5814555085	 0.1598098196	 0.378323
O	-3.4541034281	-3.2756687181	-0.609144533	-0.308922
C	-3.3633350906	-2.2277602631	 1.5448042112	-0.351602
C	-2.8815548499	-0.8908548178	 2.0459869894	-0.083186
C	-2.0343458033	-0.1097180405	 1.3784846202	-0.041915
H	 0.891724331	 1.7738198636	 0.0118425894	 0.290293
H	 0.4646511507	-0.3202285802	-1.0026186217	 0.090722
H	 0.6260693785	-0.3910064717	 0.7673785113	 0.088181
H	-1.9756111362	 0.0122718775	-0.7502516412	 0.107414
H	-1.2059806184	-2.2838851113	-1.1949309675	 0.118636
H	-0.7384977011	-2.4837620261	 0.5076619755	 0.116019
H	-4.4575179999	-2.2804453569	 1.512498671	 0.135008
H	-3.0518907675	-3.0286906802	 2.2340769186	 0.133353
H	-3.2870932813	-0.5590247411	 2.9987828714	 0.093613
H	-1.7517106958	 0.8604699233	 1.7750989845	 0.107434
80.6987	81.7136	134.99	204.9367	252.4948	295.1069	347.8017	401.6939	466.9639	499.5159	535.6695	584.5316	712.0272	725.8536	817.9533	855.3352	912.6241	950.3007	971.0585	1014.2394	1044.8067	1070.1464	1074.6627	1110.5052	1132.5132	1196.4914	1217.5226	1230.7995	1249.9662	1255.4056	1300.6686	1333.6842	1336.4931	1356.5887	1411.0303	1443.563	1454.4987	1467.1224	1519.5923	1724.728	1822.436	2962.8339	2988.2252	2993.5951	3003.0624	3012.8683	3063.4891	3105.6385	3151.4082	3186.6793	3834.8096
OCC1CC(=O)CC=C1	OC[C@H]1CC(=O)CC=C1	
InChI=1S/C7H10O2/c8-5-6-2-1-3-7(9)4-6/h1-2,6,8H,3-5H2	InChI=1S/C7H10O2/c8-5-6-2-1-3-7(9)4-6/h1-2,6,8H,3-5H2/t6-/m1/s1
