13
gdb 129514	5.34041	1.00549	0.85927	7.1588	64.33	-0.245	-0.0308	0.2141	1236.7007	0.089259	-486.07279	-486.064802	-486.063858	-486.106388	28.669	
N	-0.1460315673	 1.3930674161	 0.0807048545	-0.571328
C	 0.115492349	 0.0371575901	 0.1570337607	 0.461369
O	 1.1940835641	-0.4382243101	 0.4025926407	-0.334132
N	-1.0555198344	-0.7245602106	-0.0350780732	-0.466486
C	-1.1295589119	-2.0951864279	-0.0426223935	 0.530918
C	-2.2243752243	-2.908142044	 0.1294790038	-0.240571
N	-1.7777742887	-4.186677887	-0.0386560868	-0.089227
N	-0.5545338181	-4.2322502357	-0.2849682848	-0.021646
O	-0.0689076781	-2.8300648183	-0.3016152393	-0.199953
H	 0.6932731934	 1.9528691259	 0.0783890173	 0.275126
H	-0.8615882061	 1.7124724101	-0.5546722958	 0.258479
H	-1.9382672212	-0.2520469689	 0.0836606288	 0.267734
H	-3.2492613264	-2.6713612898	 0.3558073376	 0.129717
40.5808	82.6692	144.8659	302.439	346.6533	378.4928	402.7282	476.3397	533.6017	551.9136	626.3984	676.511	727.1559	748.4795	757.58	833.848	963.8167	973.6238	1071.3368	1101.8208	1139.7819	1290.832	1313.8877	1398.6238	1483.5041	1519.0832	1619.7107	1633.1483	1852.5556	3288.751	3577.8714	3629.2525	3692.507
NC(=O)NC1=CN=NO1	NC(=O)Nc1cnno1	
InChI=1S/C3H4N4O2/c4-3(8)6-2-1-5-7-9-2/h1H,(H3,4,6,8)	InChI=1S/C3H4N4O2/c4-3(8)6-2-1-5-7-9-2/h1H,(H3,4,6,8)
