15
gdb 34169	3.86806	1.59525	1.3864	4.3731	71.99	-0.2541	0.0097	0.2638	911.8141	0.114966	-379.597083	-379.590896	-379.589952	-379.627595	25.122	
N	 0.0387246209	-1.1100736503	-0.0128998506	-0.34027
C	-0.0013911436	 0.0459692455	 0.0021223654	 0.152137
C	-0.0694638971	 1.4809323624	 0.0275371599	 0.214847
C	-1.0947536555	 2.2663104628	 0.8967657998	-0.288642
C	-0.8345610287	 3.4212786324	-0.0990544072	-0.091684
C	 0.6823999745	 3.7005341347	-0.073904953	-0.040242
C	 1.2339071321	 2.3213614226	 0.0057050477	-0.092726
N	 0.9973167101	 2.9456187327	-1.3365346748	-0.168598
C	-0.4241032932	 2.3985962702	-1.2064085091	-0.019998
H	-2.1000629729	 1.8497061055	 0.7902136371	 0.126619
H	-0.8528810704	 2.4152828003	 1.9517119754	 0.118329
H	-1.5287621509	 4.2435641668	-0.2484095022	 0.094309
H	 1.2188628341	 4.5973239786	 0.2086746429	 0.11075
H	 2.2195646306	 2.0403924581	 0.3526372199	 0.117645
H	-0.99526906	 2.0914583879	-2.0783171912	 0.107525
153.0154	164.1361	392.4293	475.6618	517.694	542.2175	576.5855	730.0354	764.0633	794.8946	814.549	852.2258	861.1982	899.4612	917.4544	956.5452	963.3596	1004.2101	1025.3718	1037.3193	1061.4942	1127.5152	1140.0579	1149.2096	1196.3748	1205.136	1225.0296	1229.1557	1272.8722	1315.6128	1348.7046	1484.2899	2350.9323	3062.6	3126.7968	3155.6446	3164.2981	3196.4054	3209.7063
N#CC12CC3C4C1N4C23	N#C[C@@]12C[C@H]3[C@H]4[C@@H]1N4[C@@H]23	
InChI=1S/C7H6N2/c8-2-7-1-3-4-6(7)9(4)5(3)7/h3-6H,1H2	InChI=1S/C7H6N2/c8-2-7-1-3-4-6(7)9(4)5(3)7/h3-6H,1H2/t3-,4-,5+,6-,7+,9?/m0/s1
