18
gdb 93184	2.85378	1.31866	0.93744	6.1424	73.67	-0.2379	-0.058	0.1799	1229.3791	0.148405	-439.145545	-439.136976	-439.136032	-439.179072	31.94	
C	-0.0187057153	 1.5778157894	 0.0000243788	-0.402111
C	 0.0125364647	 0.0479514867	-0.0122739705	-0.005113
C	 0.7366072369	-0.4845653365	-1.2509914549	-0.152157
N	 0.8260710826	-1.9382971688	-1.23018906	-0.328013
C	 0.8795916572	-2.7537712277	-0.1336626239	 0.307059
O	 1.037312894	-3.9530971958	-0.2068472284	-0.341337
C	 0.6998141614	-2.0453562592	 1.2378864317	 0.299113
O	 0.5886645725	-2.7104573168	 2.2333442902	-0.268934
C	 0.690340847	-0.5267874691	 1.240201025	-0.313217
H	 0.9949050994	 1.9935647844	 0.0307279747	 0.121865
H	-0.517668528	 1.972255734	-0.8911202284	 0.120514
H	-0.5572931991	 1.948516063	 0.8770289914	 0.127404
H	-1.0200653675	-0.3253659202	-0.0456933546	 0.097182
H	 0.2014982804	-0.1865997059	-2.1589121045	 0.118102
H	 1.7396189128	-0.0315220498	-1.307018908	 0.110154
H	 0.9915941437	-2.4201452306	-2.1032555582	 0.252328
H	 1.7392776532	-0.1917534613	 1.2673254794	 0.127668
H	 0.2212170141	-0.1856596059	 2.1672325102	 0.129494
62.1264	101.3019	196.0875	233.4022	276.9689	340.254	369.2363	398.8208	412.5129	457.879	589.1328	618.6121	631.0531	716.6224	750.254	870.6951	898.1498	949.9165	964.327	1059.4311	1081.2359	1104.9167	1147.1123	1181.5514	1215.7284	1283.7644	1290.9473	1310.677	1363.0084	1378.0217	1399.1219	1412.5152	1456.1433	1480.227	1497.9857	1499.2617	1522.915	1800.0205	1835.015	2973.6026	2996.8596	3020.6777	3032.531	3063.2865	3094.25	3099.7034	3110.5144	3593.8993
CC1CNC(=O)C(=O)C1	C[C@H]1CNC(=O)C(=O)C1	
InChI=1S/C6H9NO2/c1-4-2-5(8)6(9)7-3-4/h4H,2-3H2,1H3,(H,7,9)	InChI=1S/C6H9NO2/c1-4-2-5(8)6(9)7-3-4/h4H,2-3H2,1H3,(H,7,9)/t4-/m1/s1
