23
gdb 96164	2.47191	1.38251	0.97293	1.529	85.02	-0.2581	0.0775	0.3355	1270.8707	0.208497	-388.29508	-388.28662	-388.285676	-388.327596	34.54	
O	-0.0971007232	 1.470005605	 0.0711915915	-0.443021
C	 0.0065039523	 0.0494257984	-0.0216026438	 0.14701
C	 0.7916317637	-0.4970258931	 1.182251797	-0.206945
C	 1.0462627181	-2.0126803907	 1.2386751565	-0.195011
C	-0.2264659835	-2.8733190323	 1.3401589788	-0.21976
C	-0.9249590451	-3.0517958545	 0.0041390392	 0.015752
C	-2.4217652439	-2.9270294436	-0.1435573658	-0.326773
C	-1.5164244945	-1.8625636546	-0.7164896231	-0.000808
C	-1.4330548206	-0.4740358557	-0.1135067731	-0.221964
H	 0.7874664494	 1.824096133	 0.2081000365	 0.275682
H	 0.5370192116	-0.2263726173	-0.9501344229	 0.056176
H	 1.7653170808	 0.014194898	 1.2045141198	 0.076127
H	 0.2606944445	-0.1816036957	 2.0908093484	 0.100274
H	 1.6270790276	-2.32795588	 0.3613076054	 0.092375
H	 1.6835379399	-2.2083982703	 2.1094415914	 0.091027
H	 0.0311589346	-3.861517408	 1.7399729147	 0.093125
H	-0.9078765528	-2.4240404453	 2.0732184345	 0.093277
H	-0.4479780232	-3.7883091915	-0.6385074898	 0.07772
H	-2.9385064153	-3.5951006756	-0.8241775972	 0.106889
H	-2.9934089614	-2.6717090645	 0.7439691219	 0.108237
H	-1.4026143115	-1.8752223441	-1.7977976428	 0.079771
H	-1.8864760076	-0.4488545451	 0.8841942762	 0.093992
H	-2.0040000199	 0.2316516671	-0.7265034532	 0.106846
132.0574	160.9738	255.4788	281.5415	295.1827	308.4958	342.6043	400.9651	425.2832	468.7577	520.7865	557.9667	742.9405	809.3496	833.0174	848.7922	867.1444	894.9505	926.6684	939.0754	1003.7595	1038.5508	1039.8045	1055.5412	1063.0859	1079.7105	1094.5133	1107.8817	1141.1406	1185.2276	1218.7969	1232.8326	1236.7993	1255.9658	1269.5154	1300.486	1324.0764	1347.9051	1356.9283	1380.4585	1398.5854	1405.1543	1432.8262	1439.0774	1481.1848	1485.7705	1486.4786	1494.6419	1505.4437	2941.064	2994.5611	3015.3474	3022.1067	3035.9562	3040.2102	3055.9531	3060.1574	3075.8508	3123.3666	3123.828	3135.5668	3207.8119	3813.653
OC1CCCC2CC2C1	O[C@H]1CCC[C@H]2C[C@H]2C1	
InChI=1S/C8H14O/c9-8-3-1-2-6-4-7(6)5-8/h6-9H,1-5H2	InChI=1S/C8H14O/c9-8-3-1-2-6-4-7(6)5-8/h6-9H,1-5H2/t6-,7-,8-/m0/s1
