17
gdb 14958	4.44187	1.59691	1.22359	2.8661	72.76	-0.2386	0.0089	0.2475	992.0736	0.142271	-363.874789	-363.866699	-363.865755	-363.908574	28.434	
C	-0.0303344807	 1.4270742251	 0.4586923022	-0.313173
N	-0.0064262312	-0.0224087258	 0.3248785974	-0.297374
C	-0.9784488884	-0.5873633081	-0.2533846849	 0.400353
C	-0.9900722016	-2.0903738837	-0.4310749611	-0.349226
C	-2.3734813748	-2.6617815745	-0.5517632454	-0.063552
C	-3.3790031926	-1.9099149259	-0.9824152757	-0.079469
C	-3.1709485044	-0.4714899022	-1.3399956244	-0.111343
O	-2.0286222873	 0.1388754049	-0.7316076411	-0.261015
H	 0.8783527896	 1.7527223435	 0.9711229063	 0.111549
H	-0.0789753155	 1.9311320865	-0.5156877995	 0.114509
H	-0.8971043456	 1.7712688046	 1.0383053731	 0.115625
H	-0.4101610896	-2.340131766	-1.3329230528	 0.137588
H	-0.4342834523	-2.5209399203	 0.4045964455	 0.143126
H	-2.518593714	-3.7079971596	-0.3007529417	 0.101912
H	-4.3827064853	-2.3031863294	-1.1103274673	 0.10192
H	-3.0831315844	-0.3539037153	-2.4314335486	 0.12205
H	-4.0278379418	 0.1358919862	-1.026970872	 0.12652
45.7752	49.3638	107.9335	216.1299	241.4367	387.3798	435.2481	511.5319	577.0622	617.2173	676.0808	761.1907	879.0342	932.0184	965.9805	971.1391	1001.1104	1029.5201	1051.3568	1108.2054	1111.4075	1153.6049	1197.9203	1202.4234	1245.9152	1256.5264	1341.4907	1406.1759	1422.3747	1438.6515	1463.7206	1484.2851	1498.5739	1503.8326	1738.6026	1763.3831	2984.6419	2996.1488	3003.3174	3053.3731	3054.5149	3102.0701	3104.5327	3167.7733	3189.7574
CN=C1CC=CCO1	CN=C1CC=CCO1	
InChI=1S/C6H9NO/c1-7-6-4-2-3-5-8-6/h2-3H,4-5H2,1H3	InChI=1S/C6H9NO/c1-7-6-4-2-3-5-8-6/h2-3H,4-5H2,1H3
