18
gdb 39548	3.31018	2.03133	1.6121	1.6224	78.64	-0.2202	0.0163	0.2365	867.7929	0.151363	-364.749621	-364.743577	-364.742633	-364.779639	26.193	
C	-0.009855983	 1.5676882211	 0.0199991909	-0.282728
C	 1.3368218089	 2.2265252306	-0.082346621	-0.066889
C	 2.4597335313	 1.5189881199	-0.1807867824	-0.059992
C	 2.4265527545	 0.0241228171	-0.2098941217	-0.01538
C	 2.1622646435	-0.7705860704	 1.0671579983	-0.094622
C	 0.6334656599	-0.7227921516	 1.2547940411	-0.104346
C	 1.2704276355	-1.684202481	 0.2911482531	-0.036351
N	 1.1612432917	-0.6032233271	-0.8010401363	-0.199127
C	 0.0783552124	 0.0424939797	 0.0582910408	 0.034085
H	-0.5327934207	 1.9102732342	 0.9243310978	 0.109598
H	-0.6414468937	 1.8879586869	-0.8210916944	 0.112527
H	 1.3613993603	 3.3132721107	-0.0936237993	 0.08857
H	 3.4263957847	 2.0087786086	-0.2574636078	 0.086898
H	 3.2785442938	-0.3869320587	-0.7589758841	 0.078289
H	 2.8241842162	-1.0032374738	 1.8924469932	 0.087984
H	 0.1787737279	-0.9354834084	 2.2152450425	 0.085261
H	 1.2122477846	-2.7507351373	 0.1307994418	 0.097911
H	-0.8752205978	-0.3965643807	-0.2514319524	 0.078313
183.583	274.2138	393.6042	474.3807	514.4756	588.9622	691.4495	708.8008	763.8088	791.7323	805.9636	828.6153	869.4622	875.2024	919.4486	925.4583	971.1661	986.361	994.6217	1014.9013	1023.0507	1029.5977	1040.7288	1049.024	1068.1476	1139.7896	1177.6186	1196.7108	1205.4128	1229.0129	1267.9389	1287.7238	1349.3928	1359.9973	1369.0354	1392.482	1424.4594	1464.5125	1722.8521	3001.865	3025.8517	3055.0384	3064.9041	3150.8002	3174.6872	3179.3954	3188.6297	3225.7028
C1C=CC2C3C4C3N2C14	C1C=C[C@H]2[C@H]3[C@@H]4[C@H]3N2[C@H]14	
InChI=1S/C8H9N/c1-2-4-6-7-5(3-1)9(4)8(6)7/h1-2,4-8H,3H2	InChI=1S/C8H9N/c1-2-4-6-7-5(3-1)9(4)8(6)7/h1-2,4-8H,3H2/t4-,5+,6-,7+,8-/m0/s1
