14
gdb 48460	2.02198	1.58585	1.2665	2.6869	64.21	-0.2701	-0.0579	0.2122	1036.7994	0.098409	-473.823768	-473.815182	-473.814238	-473.858267	29.27	
N	-0.0109764287	 1.170266616	-0.7084555861	-0.522705
C	 0.0103957262	 0.0423267632	-0.1699609161	 0.405606
O	 0.9888663278	-0.6579207229	 0.4840196332	-0.247491
C	 0.0872372684	-1.7913948722	 0.7122612387	-0.130486
C	-1.055562007	-1.0531976094	-0.0123521879	-0.059836
C	-2.2352074324	-0.6189866099	 0.8488257436	 0.124852
O	-2.3391279014	-0.9050632609	 2.0116454704	-0.243032
C	-1.4950504301	-1.632284155	-1.3467310721	 0.134263
O	-2.6374404955	-1.6780681083	-1.7145574876	-0.235407
H	 0.8834921607	 1.6557253382	-0.6245615393	 0.244059
H	 0.4679972602	-2.6933689315	 0.2284865716	 0.133017
H	-0.0973811956	-1.9495464624	 1.7747159465	 0.162954
H	-2.9818030806	-0.0013909854	 0.3182315291	 0.132033
H	-0.659877402	-2.0178532294	-1.9709185139	 0.102172
47.6289	76.8942	111.1791	166.121	235.7957	239.7766	308.0298	417.1498	519.4426	604.8186	662.8095	702.9659	793.6665	860.4433	886.9035	922.0421	964.5071	1006.8818	1017.0822	1094.9947	1156.9254	1195.2428	1217.255	1228.537	1347.8048	1412.0253	1425.5302	1504.7755	1804.5568	1823.1224	1841.5375	2898.359	2981.146	3078.5092	3155.1416	3486.8643
N=C1OCC1(C=O)C=O	[NH][C]1OCC1(C=O)C=O	
InChI=1S/C5H5NO3/c6-4-5(1-7,2-8)3-9-4/h1-2,6H,3H2	InChI=1S/C5H5NO3/c6-4-5(1-7,2-8)3-9-4/h1-2,6H,3H2
