23
gdb 101469	3.3136	0.94073	0.77566	1.3381	82.01	-0.2485	0.0803	0.3288	1523.8007	0.205827	-425.433871	-425.423739	-425.422795	-425.469784	36.717	
C	 0.0831791881	 1.6089139679	-0.0245944103	-0.404986
C	-0.031585694	 0.0786697101	-0.019121575	 0.001128
C	 0.5795706616	-0.5250733424	-1.2859800031	-0.08561
O	-0.1138617087	 0.0073037795	-2.4086039875	-0.426992
C	 0.6124472885	-0.523746484	 1.2281042566	 0.149375
C	-0.021689879	-0.1142827007	 2.5767191362	-0.238146
C	 0.1218883059	-1.3832185648	 3.4567589694	-0.230807
C	 0.7644237361	-2.4102137	 2.4982322042	-0.074837
O	 0.4887550507	-1.9441188555	 1.1888519131	-0.26315
H	 1.1329826427	 1.9227169096	 0.032191724	 0.106394
H	-0.3367953962	 2.0115206475	-0.9480845557	 0.138575
H	-0.4468674945	 2.0578783156	 0.8205401819	 0.110678
H	-1.0938329086	-0.200145084	-0.0093066166	 0.083109
H	 1.6536087415	-0.2734138062	-1.3294146229	 0.0748
H	 0.4941439696	-1.6177434029	-1.2446012646	 0.108715
H	 0.2358357891	-0.4108248941	-3.2001364725	 0.285309
H	 1.6871272735	-0.2604707285	 1.2409113563	 0.054724
H	 0.4713836307	 0.758065128	 3.0113379239	 0.104025
H	-1.0758551725	 0.1401171427	 2.4321384229	 0.105831
H	 0.7425129127	-1.2145697189	 4.3403187981	 0.102007
H	-0.854638622	-1.7289735874	 3.8041098394	 0.109148
H	 1.8531568897	-2.464573578	 2.6636542456	 0.085187
H	 0.3549495851	-3.4195150434	 2.5901481768	 0.105524
40.1897	90.0637	103.3857	151.6465	171.3711	225.1381	234.1857	273.7222	336.4046	391.2318	408.0845	530.2756	652.0942	665.611	810.6406	850.8755	889.0331	920.4426	925.3629	934.0825	985.4622	993.2695	1014.7506	1068.0925	1090.5934	1114.1457	1123.6585	1161.7394	1178.7414	1210.2086	1237.2122	1250.9563	1262.5942	1270.2453	1290.4959	1313.4266	1322.4492	1354.6404	1362.8902	1388.7789	1402.6812	1412.7802	1455.9203	1488.0957	1495.1413	1504.8009	1507.3962	1521.5291	1525.3497	2917.8819	2952.8823	2966.581	3022.3591	3031.3395	3046.7907	3054.6691	3068.1976	3088.1178	3096.1956	3100.6277	3118.4124	3135.1421	3836.582
CC(CO)C1CCCO1	C[C@@H](CO)[C@H]1CCCO1	
InChI=1S/C7H14O2/c1-6(5-8)7-3-2-4-9-7/h6-8H,2-5H2,1H3	InChI=1S/C7H14O2/c1-6(5-8)7-3-2-4-9-7/h6-8H,2-5H2,1H3/t6-,7+/m0/s1
