18
gdb 64055	2.30724	1.79175	1.2966	3.4797	73.46	-0.2268	-0.0136	0.2132	1021.7085	0.148213	-439.141378	-439.133022	-439.132078	-439.173766	32.863	
C	 0.7425777322	 1.25273398	-0.15483888	-0.417036
C	-0.1377134771	-0.0051569291	-0.0026202781	 0.264023
O	-1.4906645563	 0.3670124435	 0.1415666387	-0.478079
C	 0.0012266103	-0.9379372466	-1.2189092941	-0.296502
C	 1.3115271355	-1.6795712381	-1.2036305351	-0.120039
C	 1.9134655256	-1.9607899119	-0.0478352549	 0.015434
N	 1.3711818399	-1.5548301443	 1.182405761	-0.340229
C	 0.2948116866	-0.719344792	 1.2920844018	 0.383177
O	-0.2708259845	-0.4985557944	 2.3490524994	-0.393577
H	 1.7905956449	 0.9994162769	-0.3393191171	 0.121703
H	 0.3667220539	 1.8384053552	-0.9986334756	 0.126544
H	 0.6787714904	 1.8673630552	 0.7473260056	 0.126309
H	-1.6448654075	 0.3963922687	 1.0991169697	 0.288858
H	-0.8409432394	-1.6443580085	-1.2056207386	 0.125462
H	-0.1110256079	-0.3469306923	-2.1339615409	 0.114872
H	 1.7582948084	-2.0115287851	-2.1325748484	 0.101735
H	 2.8423572455	-2.5124674553	 0.0284418382	 0.119096
H	 1.7034331295	-1.9655988421	 2.0424123283	 0.258248
111.7695	164.9969	221.4066	242.9648	311.196	347.1396	394.3854	446.6416	468.7465	501.4442	519.0849	564.7644	582.8864	688.5615	734.8198	758.3467	857.5756	875.4971	936.8369	948.3646	986.4567	1001.3689	1076.1396	1095.3668	1156.8254	1189.6653	1195.9091	1242.1903	1299.3209	1356.1405	1393.7979	1424.5998	1433.0762	1462.8977	1473.842	1492.3127	1495.598	1723.1113	1783.3128	3011.9761	3041.2155	3068.9648	3120.7696	3122.7577	3198.6026	3218.9803	3618.6788	3696.8912
CC1(O)CC=CNC1=O	C[C@@]1(O)CC=CNC1=O	
InChI=1S/C6H9NO2/c1-6(9)3-2-4-7-5(6)8/h2,4,9H,3H2,1H3,(H,7,8)	InChI=1S/C6H9NO2/c1-6(9)3-2-4-7-5(6)8/h2,4,9H,3H2,1H3,(H,7,8)/t6-/m1/s1
