16
gdb 54957	3.19912	1.1089	1.03202	5.4235	71.06	-0.2683	0.0129	0.2812	1193.4145	0.123432	-434.092314	-434.083213	-434.082269	-434.126261	33.121	
C	 0.2598538425	 1.2906802506	 0.414677322	-0.450575
C	 0.0138200165	-0.1766327392	 0.1097132151	 0.142344
C	 0.7413484826	-0.8425889143	-1.0362054925	-0.279386
N	 1.0342252068	-1.1862407411	 0.3416496334	-0.136584
C	 2.2430745589	-0.8958638444	 1.0089283801	 0.422857
N	 3.3318474668	-1.4732037858	 0.3992111867	-0.538225
O	 2.2992140057	-0.2344729581	 2.0210047775	-0.36549
C	-1.3391088143	-0.6290328716	 0.3957070289	 0.271525
N	-2.4269166965	-0.9584464514	 0.6033454272	-0.332397
H	 1.2594393454	 1.5873164571	 0.0919268909	 0.137111
H	-0.4791839844	 1.9023591521	-0.1100827433	 0.138252
H	 0.1825313174	 1.4765714602	 1.4870191652	 0.168905
H	 0.2454802977	-1.6086411286	-1.6253744732	 0.143677
H	 1.454341902	-0.2211897168	-1.573379823	 0.141878
H	 3.1798032208	-2.25802518	-0.2143091111	 0.265476
H	 4.161082142	-1.5124291687	 0.9711701362	 0.270633
69.2803	109.2043	156.2957	190.6741	211.819	269.4528	363.0277	368.262	423.3849	454.7814	525.1515	562.0429	584.6215	602.6308	718.9696	750.4497	784.8956	901.1823	953.7932	968.7365	1091.6961	1095.6446	1113.0527	1133.306	1156.2662	1255.1189	1327.3131	1403.2771	1420.6043	1477.8296	1488.4257	1506.5478	1618.8437	1813.8824	2363.0122	3058.5504	3105.7356	3135.4593	3150.7486	3200.8688	3587.0606	3708.5254
CC1(CN1C(N)=O)C#N	C[C@]1(CN1C(=O)N)C#N	
InChI=1S/C5H7N3O/c1-5(2-6)3-8(5)4(7)9/h3H2,1H3,(H2,7,9)	InChI=1S/C5H7N3O/c1-5(2-6)3-8(5)4(7)9/h3H2,1H3,(H2,7,9)/t5-,8?/m1/s1
