15
gdb 49834	2.18958	1.50689	0.97554	2.3342	75.51	-0.2386	-0.0432	0.1953	1169.7611	0.110638	-416.76346	-416.754802	-416.753858	-416.79741	31.094	
N	-0.0531497303	 1.1657814424	-0.074775599	-0.459639
C	-0.084783572	-0.0792981414	 0.1975883024	 0.062513
N	-1.2749729325	-0.7491189158	 0.2942244293	-0.044467
C	-2.5383961164	-0.2619790704	-0.2763726517	-0.281002
C	-2.9225384669	-1.7262910053	-0.5170896636	 0.388237
O	-3.8697458	-2.3045378765	-0.9385220037	-0.259534
C	-1.5175442194	-2.187845077	 0.0291907496	-0.296289
C	-0.6505993861	-2.850890645	-0.924605267	 0.340656
C	 0.0610564331	-3.392315033	-1.7280021519	-0.444716
H	 0.9050078153	 1.508209472	-0.0668817041	 0.22587
H	 0.7791163679	-0.7223686466	 0.3992530823	 0.105255
H	-3.1811361478	 0.2922815652	 0.4153490213	 0.149617
H	-2.4082586083	 0.330478041	-1.1913382944	 0.161085
H	-1.6082101121	-2.7807724852	 0.9490301545	 0.139816
H	 0.6872784356	-3.8741897044	-2.4382368639	 0.212597
69.1081	87.8787	123.693	187.0477	235.8961	298.3217	369.1475	436.329	479.7718	549.0562	595.4835	625.8558	679.4731	737.3039	747.2213	807.3586	854.4252	1000.4788	1024.7483	1034.2346	1047.1791	1107.4929	1118.6881	1181.3485	1213.9766	1283.6656	1314.0188	1363.6352	1426.9291	1474.757	1709.6251	1938.2356	2232.4692	3017.4065	3032.2254	3064.3207	3081.9965	3500.0834	3513.7159
N=CN1CC(=O)C1C#C	[NH][CH]N1CC(=O)[C@H]1C#C	
InChI=1S/C6H6N2O/c1-2-5-6(9)3-8(5)4-7/h1,4-5,7H,3H2	InChI=1S/C6H6N2O/c1-2-5-6(9)3-8(5)4-7/h1,4-5,7H,3H2/t5-/m1/s1
