17
gdb 34258	4.17246	1.3228	1.18914	5.102	76.74	-0.2581	0.0035	0.2616	1048.6225	0.139057	-380.859975	-380.853016	-380.852071	-380.89128	27.6	
N	 0.0663760304	-1.1251980729	-0.1141560016	-0.340265
C	 0.0385711982	 0.0293265505	-0.0422353123	 0.19088
C	-0.0086045537	 1.4549439139	 0.0938493963	 0.209533
C	-1.2240421253	 2.2442317916	 0.5730112146	-0.311388
C	-0.7435978779	 3.366051034	-0.3835358646	 0.011471
C	 0.1116130941	 4.413725569	 0.3197865038	-0.210375
C	 1.2915048557	 3.5734164609	 0.8746735068	-0.253223
C	 1.2231851641	 2.3054307653	 0.0325014483	-0.05738
N	 0.2459620838	 2.4109155137	-1.0665602456	-0.167712
H	-2.1514157081	 1.7795614173	 0.2356863877	 0.134399
H	-1.2976905724	 2.4673588999	 1.6414236124	 0.111708
H	-1.4829785757	 3.7563214036	-1.0807548595	 0.09427
H	 0.4698899659	 5.152664189	-0.4035947974	 0.118409
H	-0.4416680369	 4.9449259274	 1.0992897647	 0.111974
H	 2.2536684676	 4.0734620341	 0.7410948529	 0.12012
H	 1.1844311787	 3.3562409124	 1.9414814579	 0.120399
H	 2.1378064815	 1.7889333803	-0.2392713744	 0.117179
137.31	156.1944	214.4703	361.5022	375.4776	481.3871	548.837	580.3689	671.5856	706.7979	754.8673	819.9247	834.7849	850.1037	871.4819	926.7352	948.3931	990.358	1014.9623	1041.9975	1063.8267	1107.8454	1133.8024	1168.6945	1218.0828	1229.288	1248.7587	1262.2565	1280.7907	1307.3026	1333.357	1340.8433	1405.75	1483.4588	1491.9351	1507.7201	2347.2678	3055.0499	3058.1214	3063.3214	3096.6139	3111.9246	3124.3318	3134.6574	3176.237
N#CC12CC3CCC1N23	N#C[C@@]12C[C@H]3CC[C@@H]1N23	
InChI=1S/C7H8N2/c8-4-7-3-5-1-2-6(7)9(5)7/h5-6H,1-3H2	InChI=1S/C7H8N2/c8-4-7-3-5-1-2-6(7)9(5)7/h5-6H,1-3H2/t5-,6+,7+,9?/m1/s1
