17
gdb 30752	2.94497	1.30943	0.95385	3.2217	72.01	-0.1764	0.0534	0.2298	1205.5295	0.135894	-455.149381	-455.139938	-455.138993	-455.184013	34.284	
C	 0.373530798	 0.7940008654	 0.3788107074	-0.247579
O	-0.4700349907	 0.402491062	-0.702801763	-0.269455
C	-1.47904587	-0.441060444	-0.3653195999	 0.324071
C	-1.4845375911	-1.7549137014	 0.0648574528	-0.037687
N	-0.4317590113	-2.6780904904	 0.3295632733	-0.6415
C	-2.8567483639	-2.1364035566	 0.1736717528	 0.321121
O	-3.2619052107	-3.3716842318	 0.5642477063	-0.455042
C	-3.6422435283	-1.0707429259	-0.1849982711	-0.206237
N	-2.7733318778	-0.0319058262	-0.5032957008	-0.306462
H	 1.1038187184	 1.4938236874	-0.0330658374	 0.132366
H	-0.2026993918	 1.2875652253	 1.1708790634	 0.121127
H	 0.901889876	-0.0668397872	 0.8054164717	 0.112914
H	 0.0688073702	-2.4748246681	 1.1891123431	 0.238437
H	 0.248885	-2.7109702924	-0.4216230698	 0.244163
H	-2.444195074	-3.8834148654	 0.6568595239	 0.291096
H	-4.7099689489	-0.9577070668	-0.2484423255	 0.117222
H	-3.0365767141	 0.8686789459	-0.8612681871	 0.261446
34.4017	130.1307	159.7858	210.8681	231.3209	249.2554	268.6318	300.9886	370.2627	460.6545	532.5572	552.8069	585.5071	611.1742	678.5483	714.6985	746.1174	774.8768	811.5683	1015.3328	1078.5821	1088.399	1173.1891	1189.7516	1204.7762	1221.1942	1248.0778	1317.8987	1353.3053	1455.7369	1462.9035	1486.5065	1502.3498	1525.2547	1602.4068	1647.3648	1677.7281	3012.5574	3075.941	3127.7402	3286.8904	3492.1974	3564.7273	3693.7629	3721.7682
COC1=C(N)C(O)=CN1	COc1c(N)c(O)c[nH]1	
InChI=1S/C5H8N2O2/c1-9-5-4(6)3(8)2-7-5/h2,7-8H,6H2,1H3	InChI=1S/C5H8N2O2/c1-9-5-4(6)3(8)2-7-5/h2,7-8H,6H2,1H3
