15
gdb 46858	2.71298	1.8559	1.22304	5.6127	68.19	-0.2612	-0.0485	0.2128	973.4512	0.114301	-453.941611	-453.934469	-453.933525	-453.973315	27.257	
N	 0.0397401455	 1.0492758284	-0.8963728613	-0.489814
C	 0.075900295	 0.0356066214	-0.1479578021	 0.339624
O	 1.2406935188	-0.5606061034	 0.2573255725	-0.249906
C	 1.1012888567	-1.5682718194	 1.2768506549	-0.119275
C	 0.1199878972	-2.6137423788	 0.8058961242	-0.038823
C	-1.1762780803	-2.8252763786	 1.5347385615	-0.250281
N	-1.1198540801	-2.0183452628	 0.3288098903	-0.075677
C	-1.2126269333	-0.621032878	 0.3462364679	 0.284824
O	-2.1955047503	-0.0089947331	 0.6701863696	-0.303587
H	 0.9883409151	 1.3499970768	-1.1343158819	 0.231808
H	 2.1034367338	-1.9683222561	 1.4355820722	 0.137133
H	 0.759169035	-1.1005105796	 2.2092129277	 0.127659
H	 0.5153145569	-3.4146494889	 0.1856952519	 0.119766
H	-1.6908520607	-3.7758973314	 1.4376166318	 0.142726
H	-1.3329253192	-2.3055103764	 2.4763578208	 0.143824
91.9922	177.0102	251.3436	330.0503	343.3154	409.5236	471.5756	509.112	573.7581	670.7272	717.5742	813.0675	850.7608	921.4561	928.0688	943.4229	978.996	996.2825	1073.1702	1100.5118	1127.1784	1146.5643	1154.427	1179.0631	1271.0177	1298.65	1347.6763	1394.4854	1426.6493	1498.5276	1510.7578	1753.9284	1825.6838	3026.3609	3119.2653	3125.5047	3144.6055	3212.1328	3457.962
N=C1OCC2CN2C1=O	[NH][C]1OC[C@H]2CN2C1=O	
InChI=1S/C5H6N2O2/c6-4-5(8)7-1-3(7)2-9-4/h3,6H,1-2H2	InChI=1S/C5H6N2O2/c6-4-5(8)7-1-3(7)2-9-4/h3,6H,1-2H2/t3-,7?/m1/s1
