16
gdb 10971	2.76174	2.47711	1.83496	2.6961	64.34	-0.2256	-0.0185	0.2071	787.4178	0.130512	-383.730215	-383.723175	-383.722231	-383.761214	26.909	
C	-0.0278024111	 1.5475826751	 0.0303118911	-0.502141
C	-0.0086976067	 0.0427126572	-0.014500846	 0.142761
C	 0.7036854432	-0.8221034772	-1.1241661956	-0.290074
C	-0.2002120935	-1.9558931347	-0.5664236447	-0.019475
O	 0.2771237352	-2.1219602322	 0.7760084793	-0.279039
C	 0.4275029147	-0.7503946875	 1.2315537415	-0.105984
C	-1.2392445609	-0.8213530818	-0.4068399383	 0.41759
O	-2.3889655736	-0.6157397751	-0.6500227417	-0.317137
H	 0.9731333095	 1.9558364729	 0.2064766752	 0.124132
H	-0.4043874869	 1.9618652857	-0.909520142	 0.133318
H	-0.6814867546	 1.9022758127	 0.8340926938	 0.133906
H	 0.4552410572	-0.5107948991	-2.1409469369	 0.121088
H	 1.7771250134	-0.981740273	-1.0009101534	 0.11807
H	-0.3700717649	-2.9171257938	-1.0430900681	 0.102264
H	 1.4706033119	-0.5672147381	 1.5170283894	 0.106807
H	-0.2175625231	-0.568433951	 2.0995522465	 0.113914
142.0711	176.5886	210.2148	280.5306	313.0763	452.3454	478.0455	581.1571	658.962	702.1923	763.8147	836.599	865.2264	911.2619	924.5883	972.8536	993.682	1018.6156	1035.5805	1066.2096	1134.0738	1170.0172	1201.1122	1205.5869	1235.2966	1261.2358	1301.6089	1385.029	1416.1052	1476.1278	1489.545	1490.5567	1529.4981	1905.6367	3016.7905	3034.5533	3059.4417	3069.867	3099.4046	3109.5422	3140.6195	3172.8059
CC12CC(OC1)C2=O	C[C@@]12C[C@@H](OC1)C2=O	
InChI=1S/C6H8O2/c1-6-2-4(5(6)7)8-3-6/h4H,2-3H2,1H3	InChI=1S/C6H8O2/c1-6-2-4(5(6)7)8-3-6/h4H,2-3H2,1H3/t4-,6-/m1/s1
