16
gdb 52207	4.04731	0.80541	0.7633	3.4328	71.28	-0.2618	0.0074	0.2692	1462.711	0.124737	-434.072756	-434.063744	-434.0628	-434.108269	31.179	
O	 0.1082763342	 1.3627790152	-1.16843162	-0.328029
C	 0.1205329618	 1.6236714266	 0.017232545	 0.152729
N	 1.1391911398	 1.3127536148	 0.8607300517	-0.263659
C	 2.3508121534	 0.6631300605	 0.3852834339	-0.188329
C	 3.290842671	 1.6383348673	-0.2920328661	-0.005054
N	 4.0815635356	 2.494488854	 0.5918231616	-0.318503
C	 4.7785302193	 1.482876352	-0.2307390053	-0.195019
C	 5.4014263531	 0.3920414207	 0.4816996807	 0.330659
N	 5.8975606441	-0.496009302	 1.0311093406	-0.332835
H	-0.7125671157	 2.1362391856	 0.536637697	 0.083498
H	 1.1189443399	 1.6690765734	 1.8025487894	 0.260628
H	 2.8492026612	 0.1899304763	 1.2338154874	 0.136069
H	 2.0615951209	-0.1131954906	-0.328210943	 0.149055
H	 2.9019710667	 2.0687874928	-1.2116359839	 0.129853
H	 4.225123128	 3.4154094049	 0.185754281	 0.250252
H	 5.3438218367	 1.8161821485	-1.09658109	 0.138683
33.2365	54.3803	101.41	156.3953	231.6012	267.3364	305.2973	379.4066	461.3797	511.1336	576.6726	620.2382	759.3357	808.8397	839.345	906.321	947.1829	978.6563	1013.7563	1028.5044	1035.2596	1130.6241	1190.5241	1212.2109	1235.8125	1242.5974	1313.4989	1368.4334	1409.2239	1425.6675	1456.2845	1460.8639	1523.4602	1798.5231	2360.0853	2946.5308	3073.7003	3127.2836	3148.8685	3156.9126	3511.5386	3644.668
O=CNCC1NC1C#N	O=CNC[C@H]1N[C@H]1C#N	
InChI=1S/C5H7N3O/c6-1-4-5(8-4)2-7-3-9/h3-5,8H,2H2,(H,7,9)	InChI=1S/C5H7N3O/c6-1-4-5(8-4)2-7-3-9/h3-5,8H,2H2,(H,7,9)/t4-,5+/m0/s1
