20
gdb 87556	2.68476	1.4098	1.18581	1.4607	79.57	-0.2222	0.0786	0.3008	1127.8688	0.170312	-403.07898	-403.070299	-403.069354	-403.111913	33.963	
C	-0.0658194632	 1.5687323517	-0.0779287749	-0.410184
C	 0.0395038847	 0.0533900194	-0.0114099903	-0.058367
C	 1.0799779275	-0.6448599858	-0.9104535814	-0.052223
N	 2.4210070542	-0.1774765529	-0.4780847408	-0.336601
C	 1.7423643832	-1.2755881515	 0.2635180292	-0.174005
C	 0.7624140383	-0.6068866888	 1.1995930367	 0.393264
C	 0.98945506	-0.0486415001	 2.578806055	-0.386
C	 0.0637905714	-1.2263313233	 2.3609146555	 0.005343
O	-1.3223740408	-1.0429583505	 2.4128038753	-0.419801
H	 0.9233357025	 2.0254104694	 0.0084880307	 0.135523
H	-0.5125993984	 1.887137411	-1.0265308949	 0.106385
H	-0.6995679546	 1.9507918343	 0.7293818324	 0.111981
H	-0.9431446259	-0.4120935551	-0.1338228327	 0.091071
H	 0.9257957701	-1.0348660451	-1.9092798949	 0.08825
H	 3.0990682188	-0.6169229545	-1.101223386	 0.224373
H	 2.2047512465	-2.2501586059	 0.3674927411	 0.089211
H	 1.9456461716	-0.2174886241	 3.0639069434	 0.110042
H	 0.5224248729	 0.9054028385	 2.8037306042	 0.113549
H	 0.4077805943	-2.2064536269	 2.6963435348	 0.079961
H	-1.5719499231	-0.9148880698	 3.3338719775	 0.288228
103.6174	147.5926	190.2026	230.3537	233.4912	287.9483	322.9055	385.2055	449.2225	548.9707	584.1663	589.4215	721.9424	814.537	825.74	835.7959	857.4849	880.3728	918.5383	945.381	992.1538	1017.6785	1031.0466	1053.544	1081.6213	1096.6127	1113.5691	1120.4095	1139.9549	1170.6138	1195.8952	1220.0136	1278.2987	1294.2806	1308.1052	1338.2076	1362.5495	1388.3503	1400.8822	1429.9614	1490.4301	1495.6089	1503.1364	3031.978	3066.4463	3080.3718	3092.1733	3121.4556	3124.047	3175.768	3189.8122	3210.6079	3462.6296	3807.1506
CC1C2NC2C11CC1O	C[C@H]1[C@H]2N[C@H]2[C@]21C[C@H]2O	
InChI=1S/C7H11NO/c1-3-5-6(8-5)7(3)2-4(7)9/h3-6,8-9H,2H2,1H3	InChI=1S/C7H11NO/c1-3-5-6(8-5)7(3)2-4(7)9/h3-6,8-9H,2H2,1H3/t3-,4+,5+,6+,7-/m0/s1
