18
gdb 26128	2.49822	1.52292	0.98472	1.7642	75.75	-0.1885	0.0209	0.2093	1184.333	0.147962	-439.108569	-439.099702	-439.098758	-439.142084	33.81	
C	 0.010253806	 1.3242037149	 1.0630466348	-0.391605
C	-0.1986387291	 0.442037374	-0.1670158477	-0.001369
O	 0.8481646623	-0.5371990407	-0.3013703283	-0.424285
C	-1.5301983136	-0.2419650099	-0.1884545718	 0.27562
C	-1.9855657269	-1.3027583525	-0.9268121086	 0.134598
N	-1.2879952844	-1.9953646187	-1.9206475066	-0.613615
C	-3.3539519242	-1.5019058584	-0.5395391378	-0.238987
C	-3.6244639364	-0.5502308444	 0.3917599908	-0.021927
O	-2.5416216766	 0.2255415246	 0.6201707265	-0.190996
H	 1.0067894217	 1.7706143482	 1.0242321492	 0.120789
H	-0.7371988288	 2.1207535791	 1.1039466012	 0.13174
H	-0.0785520269	 0.7372475614	 1.9835891464	 0.113332
H	-0.0716907675	 1.0592446448	-1.0670546005	 0.105387
H	 0.7666665505	-1.1320105969	 0.45421594	 0.276232
H	-0.2865982808	-1.8846400313	-1.8127049481	 0.251715
H	-1.5366205495	-2.9738459582	-1.9767549082	 0.238887
H	-4.0350335332	-2.2500012931	-0.9155458551	 0.104209
H	-4.5057218026	-0.3089189328	 0.9634731938	 0.130274
55.5047	156.2366	177.7244	237.6672	296.9424	305.9587	324.3557	360.4122	431.4751	451.0874	508.5374	608.1904	640.0351	692.9599	718.1376	745.6956	791.5279	809.777	880.8995	907.2804	1016.1295	1038.7966	1079.617	1087.7599	1091.8012	1179.0176	1226.7733	1273.4932	1281.2647	1323.8405	1354.3825	1402.1291	1416.8545	1476.2932	1487.8693	1496.6627	1536.3399	1642.578	1677.1361	3009.9656	3041.2695	3113.6828	3132.7322	3247.5494	3278.5599	3527.8669	3626.0693	3780.911
CC(O)C1=C(N)C=CO1	C[C@@H](O)c1c(N)cco1	
InChI=1S/C6H9NO2/c1-4(8)6-5(7)2-3-9-6/h2-4,8H,7H2,1H3	InChI=1S/C6H9NO2/c1-4(8)6-5(7)2-3-9-6/h2-4,8H,7H2,1H3/t4-/m1/s1
