14
gdb 22026	2.65999	1.6111	1.0039	1.7492	75.02	-0.1874	-0.0303	0.157	1082.018	0.102764	-466.128985	-466.121065	-466.12012	-466.16115	30.168	
N	 0.031196995	 1.2959727116	-0.2330857778	-0.553864
C	 0.025651818	-0.0555531512	-0.0785227745	 0.396701
N	-1.1092748202	-0.6885594111	 0.0389007859	-0.328748
N	-1.0275899129	-2.0378113629	 0.1286750725	-0.100562
N	 0.0523830703	-2.7926589294	 0.121950124	-0.192445
C	 1.2030540773	-2.1800946754	 0.0241712622	-0.067981
C	 1.3139962573	-0.7469823777	-0.0793031583	 0.266891
N	 2.3805312543	-0.0159943801	-0.162106043	-0.28923
O	 3.5386267198	-0.8149632767	-0.128774148	-0.399796
H	 0.9153444749	 1.7491191075	-0.0631795527	 0.273359
H	-0.8135000515	 1.7936726437	-0.0040473338	 0.260842
H	-1.9086777766	-2.5156881555	 0.2060340126	 0.287942
H	 2.0863518122	-2.8021212876	 0.0224476678	 0.141399
H	 4.240068042	-0.1622208151	-0.2180848669	 0.305494
112.1475	214.3623	219.5909	295.1784	338.8627	345.5244	386.1702	405.7468	483.1208	520.6245	554.0965	579.6357	622.0056	636.6576	778.4826	808.126	893.9183	933.3374	985.0487	1034.3609	1161.6654	1240.9947	1279.1911	1356.3385	1393.0791	1451.9071	1513.4305	1578.2525	1610.8881	1649.0447	1673.5622	3242.0421	3587.8161	3676.6275	3716.8913	3829.6618
NC1=NNN=CC1=NO	Nc1n[nH]ncc1=NO	
InChI=1S/C3H5N5O/c4-3-2(7-9)1-5-8-6-3/h1,9H,(H,7,8)(H2,4,5,6)	InChI=1S/C3H5N5O/c4-3-2(7-9)1-5-8-6-3/h1,9H,(H,7,8)(H2,4,5,6)
