17
gdb 128715	3.23105	1.25567	0.9172	2.387	73.03	-0.2126	0.0105	0.2231	1257.2676	0.135015	-455.134677	-455.125122	-455.124177	-455.169529	33.227	
C	-0.0002717773	 1.339255027	-0.0245853055	-0.243349
O	-0.0118492596	-0.0892584064	 0.0351348068	-0.273396
C	-1.2207662033	-0.6619823086	-0.0191833802	 0.453861
N	-2.3448066806	 0.0015470926	-0.1355916655	-0.264921
O	-3.3359574542	-0.9867126839	-0.1487540583	-0.242565
C	-2.7637426335	-2.205292953	-0.0085952414	 0.425099
C	-3.6582279009	-3.3896174864	 0.0278339354	-0.499836
C	-1.4109753789	-2.0757031193	 0.0657464356	-0.082814
N	-0.4271032602	-3.0708083117	 0.239046847	-0.624528
H	 1.0477641495	 1.6335091888	 0.0379817588	 0.131073
H	-0.4399276241	 1.6896830468	-0.9634019642	 0.14311
H	-0.5672537088	 1.7646444869	 0.8091034822	 0.143737
H	-4.5197457102	-3.2025459877	 0.6759082183	 0.14865
H	-4.0421886988	-3.6457431819	-0.9666913617	 0.141594
H	-3.1046629446	-4.2488664653	 0.415112138	 0.146469
H	-0.3177627445	-3.6537851167	-0.5835600369	 0.246871
H	 0.47090958	-2.6439449213	 0.4354339016	 0.250947
67.7913	93.9061	128.4334	154.6323	189.357	195.0946	237.9217	311.6383	345.3925	413.059	529.9955	611.8469	627.7697	737.6729	747.8166	765.6747	828.1218	953.984	988.3412	1030.9799	1064.4054	1083.1305	1180.9109	1219.3112	1244.3136	1257.4562	1319.4189	1408.8757	1458.0534	1475.662	1478.4772	1486.8786	1498.8998	1512.0545	1582.6878	1657.1685	1715.3316	3032.7275	3039.2015	3092.4736	3109.7612	3127.8796	3151.469	3513.5209	3595.0276
COC1=NOC(C)=C1N	COc1noc(C)c1N	
InChI=1S/C5H8N2O2/c1-3-4(6)5(8-2)7-9-3/h6H2,1-2H3	InChI=1S/C5H8N2O2/c1-3-4(6)5(8-2)7-9-3/h6H2,1-2H3
