21
gdb 119722	3.03209	1.05055	0.91857	1.2678	79.94	-0.2293	0.0738	0.303	1388.1957	0.180864	-424.171154	-424.161531	-424.160587	-424.206104	34.877	
C	-0.0661790848	 1.4234639143	-0.6794956616	-0.221169
O	-0.0720544165	 0.06922089	-1.0644100454	-0.23476
C	 0.79301166	-0.7261472632	-0.2870780778	-0.17245
C	 0.7041611528	-2.1425188243	-0.7698232268	 0.426739
O	 1.5769503321	-3.0825811873	-0.1259597002	-0.331782
C	 1.8580554576	-3.7114649881	-1.4085647472	-0.098742
C	 0.8565387742	-2.8108431797	-2.1204480873	-0.199812
C	-0.4782532742	-2.8263387802	-1.3807350448	-0.058549
C	-1.1317157646	-4.0602276958	-0.8009591549	-0.424589
H	-0.3922756243	 1.5517040604	 0.3645683328	 0.107381
H	 0.9334891166	 1.8734123578	-0.7843927017	 0.106769
H	-0.7624172003	 1.9515282097	-1.3353079108	 0.128585
H	 1.8340140565	-0.3688938059	-0.3623936831	 0.095081
H	 0.5156041856	-0.6862743403	 0.7816988076	 0.097782
H	 2.8976749174	-3.5263185095	-1.7013202636	 0.10837
H	 1.6678356525	-4.7909977939	-1.3916764727	 0.103369
H	 0.9791514841	-2.3808122727	-3.1054176374	 0.098692
H	-1.1593702036	-2.1024023255	-1.8210506454	 0.106339
H	-0.4198326865	-4.6420088111	-0.210327298	 0.132597
H	-1.9573082371	-3.7817378039	-0.1373618313	 0.116847
H	-1.5395575573	-4.7045537907	-1.5872761803	 0.113302
66.7201	75.1971	132.1546	174.0732	206.663	238.7526	260.0255	269.2258	345.4143	400.5486	481.6689	600.2858	694.9791	754.5386	770.893	888.0203	928.0039	968.4868	981.9107	988.3314	998.1938	1035.9245	1088.7095	1104.4037	1127.333	1146.212	1156.9273	1169.3568	1176.4388	1186.9975	1232.0241	1243.5608	1266.2162	1329.9945	1337.5377	1408.4443	1419.1675	1480.9232	1482.6192	1485.7391	1493.7595	1503.923	1511.9125	1523.0353	1527.7961	2943.6556	2972.4194	2975.9057	3018.4467	3024.6244	3035.276	3070.9807	3091.8449	3116.3527	3120.9722	3155.2135	3201.5533
COCC12OCC1C2C	COC[C@]12OC[C@H]1[C@H]2C	
InChI=1S/C7H12O2/c1-5-6-3-9-7(5,6)4-8-2/h5-6H,3-4H2,1-2H3	InChI=1S/C7H12O2/c1-5-6-3-9-7(5,6)4-8-2/h5-6H,3-4H2,1-2H3/t5-,6+,7-/m1/s1
