17
gdb 73460	2.2848	1.91212	1.56537	0.6258	66.8	-0.2158	0.0604	0.2761	929.3567	0.135802	-458.911037	-458.903407	-458.902462	-458.942537	30.632	
O	-0.112114013	 1.325544256	-0.0208832652	-0.470377
C	-0.0036358647	-0.0587797822	-0.0643943488	 0.32337
C	 1.0590140177	-0.735243716	-0.9344471549	-0.289506
C	 0.4305583456	-2.114819912	-1.2817823671	-0.212672
C	-0.6894721254	-2.255922739	-0.2556801072	 0.016069
O	-0.0973543081	-2.2000538806	 1.0890241234	-0.307421
C	-0.4671726896	-0.8269334651	 1.1895921113	-0.074409
C	-1.2946166173	-0.836459456	-0.066402942	 0.261952
O	-2.5101024622	-0.3439884868	-0.4648522145	-0.443807
H	 0.6151156431	 1.6664250954	 0.5115229062	 0.286892
H	 1.2463777379	-0.1277937083	-1.8240379791	 0.110169
H	 2.0072102028	-0.8499629925	-0.3996354595	 0.104074
H	 0.0001044422	-2.1099705272	-2.2898839145	 0.10753
H	 1.1457168196	-2.9391689386	-1.2204881564	 0.109108
H	-1.3572313456	-3.1133374257	-0.3644030715	 0.080184
H	-0.5776924581	-0.3731119403	 2.1683300027	 0.106665
H	-3.1958729949	-0.727385821	 0.0934649071	 0.292178
187.4866	214.9903	221.2715	296.3506	317.4925	370.3682	384.5706	422.189	506.5675	572.0977	668.9304	684.7072	728.8496	792.4087	833.0804	871.8203	919.3561	946.2747	997.5755	1012.7669	1022.7887	1053.6169	1066.9687	1150.4268	1165.2348	1204.0577	1222.0267	1262.2958	1268.9198	1283.3593	1304.1851	1319.8989	1337.716	1367.7227	1472.3667	1492.385	1515.3474	3042.2261	3051.2062	3090.6912	3095.1135	3107.4089	3178.7387	3792.3631	3794.0413
OC12CCC3OC1C23O	O[C@@]12CC[C@H]3O[C@@H]1[C@@]23O	
InChI=1S/C6H8O3/c7-5-2-1-3-6(5,8)4(5)9-3/h3-4,7-8H,1-2H2	InChI=1S/C6H8O3/c7-5-2-1-3-6(5,8)4(5)9-3/h3-4,7-8H,1-2H2/t3-,4+,5+,6-/m1/s1
