17
gdb 42664	2.50501	1.92284	1.74688	2.9702	70.28	-0.2243	-0.0159	0.2084	881.5721	0.139099	-421.845485	-421.83892	-421.837976	-421.876413	26.665	
O	-0.0684942321	 0.0784577902	 0.2489764344	-0.341301
C	-0.0792458559	 1.2698702163	 0.0662235943	 0.448101
C	-1.2378783879	 2.1879913502	-0.081111677	-0.246289
C	-1.0184671137	 3.5154025985	 0.6913338269	-0.080526
C	 0.0674778262	 3.5851564615	 1.757795645	-0.235279
C	 1.3708656899	 2.8574633243	 1.3149047403	-0.223761
C	 1.1458080392	 2.1981977146	-0.0563824987	-0.061253
O	 0.7398820739	 3.2065204928	-0.9896158957	-0.264598
C	-0.6318652379	 3.4194430532	-0.7406552481	 0.101416
H	-2.2328899144	 1.8086913705	-0.2677723808	 0.11073
H	-1.9382402018	 4.0488088193	 0.9099755136	 0.101962
H	 0.2803418182	 4.6379076842	 1.9702282193	 0.116002
H	-0.3163266164	 3.1539556444	 2.6879621074	 0.116779
H	 2.1990580386	 3.5644664712	 1.2178018688	 0.117031
H	 1.6688100618	 2.0997604697	 2.0457781974	 0.121169
H	 2.0301309451	 1.6922166401	-0.4427879246	 0.104983
H	-1.1221274427	 3.974901909	-1.5300725324	 0.114833
116.6758	170.3943	325.6458	443.6512	450.2597	503.5849	576.2777	653.5197	699.8937	745.0031	786.2913	814.7389	829.6901	862.7777	902.5908	928.9602	951.5916	989.7249	1040.9006	1055.6161	1069.3932	1084.8061	1100.104	1153.0848	1186.3662	1202.6212	1245.8027	1266.8276	1298.5669	1303.5393	1335.0153	1353.1005	1373.8999	1425.2516	1478.4343	1503.2749	1846.5718	3042.7476	3058.8805	3074.6047	3105.4071	3125.3242	3160.4627	3198.5267	3216.9473
O=C1C2C3CCC1OC23	O=C1[C@H]2[C@H]3CC[C@@H]1O[C@@H]23	
InChI=1S/C7H8O2/c8-6-4-2-1-3-5(6)7(3)9-4/h3-5,7H,1-2H2	InChI=1S/C7H8O2/c8-6-4-2-1-3-5(6)7(3)9-4/h3-5,7H,1-2H2/t3-,4+,5-,7-/m1/s1
