20
gdb 14154	3.79189	1.55247	1.33504	1.1895	74.81	-0.2511	0.0804	0.3314	999.939	0.178329	-349.003603	-348.995732	-348.994788	-349.036189	30.62	
O	-0.1137520234	 1.4350742109	-0.0765458315	-0.420453
C	-0.0700521553	 0.0383154501	-0.0123714913	 0.060272
C	-0.5206346167	-0.6709284596	 1.2395587889	-0.393582
C	-1.3797987266	-0.7002247867	-0.0089113306	 0.361827
C	-2.7015270811	 0.0733811333	-0.0662056346	-0.278065
C	-3.4151301589	-0.5043820517	-1.3010600274	-0.201182
C	-3.0276101628	-1.9921529474	-1.2697860505	-0.196134
C	-1.5412388469	-1.980054334	-0.8493086837	-0.286355
H	 0.547182463	 1.7818914457	 0.531300051	 0.286825
H	 0.7459180277	-0.4130754754	-0.5801480584	 0.077714
H	-0.0018160751	-1.575699625	 1.5428163222	 0.10463
H	-0.863522261	-0.0447012216	 2.0583930218	 0.106951
H	-3.2963293768	-0.1288121199	 0.8336030246	 0.091336
H	-2.5394061785	 1.1517270486	-0.1192445186	 0.115793
H	-4.496372763	-0.3393188069	-1.2867323958	 0.089639
H	-3.0236731276	-0.0355326342	-2.2122862669	 0.100311
H	-3.6263833011	-2.5101483644	-0.5107334291	 0.096563
H	-3.1948005178	-2.5067004096	-2.2203481866	 0.091334
H	-0.8965623283	-1.9345318895	-1.7355272517	 0.098553
H	-1.2592454197	-2.8822308226	-0.2973994118	 0.094023
35.1379	185.6101	225.9145	267.5961	275.7698	349.6353	449.5878	469.9622	520.6704	582.0034	721.628	800.6266	838.977	858.8671	879.1164	908.563	912.4159	961.6809	975.7711	1003.729	1028.3492	1037.7349	1088.7331	1095.8457	1156.2499	1179.2531	1187.6774	1223.707	1249.4754	1268.848	1288.6141	1306.083	1313.6646	1341.7355	1344.8287	1367.4616	1420.9041	1483.2263	1489.8072	1492.9077	1494.9427	1514.2476	3023.3553	3027.3953	3030.6644	3036.0605	3071.9662	3077.591	3085.9085	3093.2939	3111.4781	3112.7492	3201.1971	3808.2125
OC1CC11CCCC1	O[C@H]1CC21CCCC2	
InChI=1S/C7H12O/c8-6-5-7(6)3-1-2-4-7/h6,8H,1-5H2	InChI=1S/C7H12O/c8-6-5-7(6)3-1-2-4-7/h6,8H,1-5H2/t6-/m0/s1
