15
gdb 83507	3.11024	1.54611	1.48566	2.9967	59.39	-0.2707	-0.003	0.2678	914.5515	0.114661	-494.935708	-494.928982	-494.928038	-494.966729	26.632	
O	 0.1100009391	 1.3775324013	-0.0913719002	-0.45019
C	 0.0016806358	-0.0132686079	-0.0279906966	 0.138556
C	 0.3026388492	-0.6219730408	 1.349891566	 0.15305
O	-0.6756105486	-0.0268535793	 2.1773959858	-0.278247
C	-1.8964686576	-0.0369797432	 1.390916808	-0.115949
C	-1.4371323338	-0.6129044285	 0.0288014199	-0.252268
C	-1.0795281648	-2.0648277962	 0.3111042069	 0.451732
O	-1.5715472493	-3.0873836957	-0.0528216437	-0.33416
O	 0.0104462341	-2.0122697441	 1.161335902	-0.229374
H	-0.1001261261	 1.7289846513	 0.7828938648	 0.298395
H	 0.6050876018	-0.4402371608	-0.8309031792	 0.119778
H	 1.2848971634	-0.5126354746	 1.8026030546	 0.118658
H	-2.6488398397	-0.6508300189	 1.8921755207	 0.141626
H	-2.2739901374	 0.9851776332	 1.2901181109	 0.122755
H	-2.1101307561	-0.4608328362	-0.80985496	 0.115638
149.4234	232.9396	270.912	317.3441	409.2596	453.4247	494.5845	550.5297	646.6469	730.761	788.1054	830.1583	840.6507	900.7781	916.666	926.4258	962.4158	1007.1315	1033.7657	1072.7426	1128.3848	1162.2264	1167.9631	1212.7656	1244.2646	1260.6515	1299.0165	1314.9097	1348.1876	1381.5609	1439.4871	1525.8891	1910.9211	3053.8862	3106.5739	3111.3835	3170.8394	3174.8828	3782.0982
OC1C2OCC1C(=O)O2	O[C@H]1[C@H]2OC[C@@H]1C(=O)O2	
InChI=1S/C5H6O4/c6-3-2-1-8-5(3)9-4(2)7/h2-3,5-6H,1H2	InChI=1S/C5H6O4/c6-3-2-1-8-5(3)9-4(2)7/h2-3,5-6H,1H2/t2-,3+,5-/m0/s1
