17
gdb 66653	2.7408	2.12226	1.45083	3.227	74.24	-0.218	-0.0092	0.2087	910.8212	0.136766	-384.667014	-384.660026	-384.659082	-384.698142	28.306	
C	-0.0348663059	 1.4805120941	 0.079215175	-0.496274
C	 0.0032275207	-0.0213223721	 0.037971382	 0.177774
C	-1.2230909316	-0.8917053133	 0.295544434	-0.126413
C	-0.6749873369	-2.3426398131	 0.4741368018	-0.0918
C	-0.0821437871	-2.2898252252	-0.9030015306	-0.091792
C	 0.8344405064	-2.2091535407	 0.3118651934	-0.202473
C	 1.2103100872	-0.7750042785	 0.5286846509	 0.414364
O	 2.2272058395	-0.3152745255	 0.9840671471	-0.344224
C	-0.6289449295	-0.8387606173	-1.084496739	-0.126427
H	 0.7809774505	 1.9043862622	-0.5144210407	 0.134361
H	-0.9798764397	 1.8678685731	-0.3132533127	 0.115269
H	 0.0827731942	 1.8422305514	 1.1053722372	 0.134346
H	-2.1596207529	-0.4973923878	 0.6654058404	 0.097002
H	-1.1462970258	-3.1598860382	 1.0016638817	 0.10075
H	-0.0008187738	-3.0578397913	-1.6592083317	 0.10075
H	 1.5007869469	-3.0207139862	 0.5675900739	 0.107785
H	-1.015571352	-0.3954378016	-1.9918847529	 0.097002
134.8096	175.8553	238.0064	273.3721	443.0901	499.8507	574.0076	615.2648	728.3133	749.4675	769.0386	771.4632	797.9358	850.7326	853.1439	869.1761	903.1731	915.9809	963.8372	965.7187	1010.2052	1039.4611	1054.3614	1076.6425	1104.5393	1119.8141	1170.1264	1202.0535	1257.9154	1279.8041	1298.6401	1347.9996	1402.9061	1422.2434	1486.7269	1496.4334	1846.5368	3038.8629	3106.161	3110.0447	3200.5713	3210.874	3211.1038	3217.9627	3229.1429
CC12C3C4C(C4C1=O)C23	C[C@]12[C@@H]3[C@H]4[C@H]([C@H]4C1=O)[C@H]23	
InChI=1S/C8H8O/c1-8-5-2-3(6(5)8)4(2)7(8)9/h2-6H,1H3	InChI=1S/C8H8O/c1-8-5-2-3(6(5)8)4(2)7(8)9/h2-6H,1H3/t2-,3+,4-,5+,6-,8+
