15
gdb 98941	4.21777	0.81087	0.68538	4.8149	71.83	-0.2485	-0.0604	0.188	1553.2099	0.110424	-453.948725	-453.938826	-453.937881	-453.985078	33.597	
N	-0.2393132161	 1.2896435726	-0.3448897294	-0.48343
C	-0.0151292121	-0.0953810025	 0.0123816101	-0.282507
C	 0.9055003869	-0.3083121289	 1.2280150744	 0.396652
O	 1.4042315358	 0.5990213577	 1.8406396053	-0.301013
N	 1.0911604509	-1.6648521414	 1.5337961272	-0.392742
C	 1.8590887993	-2.2148536255	 2.565876103	 0.31574
O	 2.4955905539	-1.5869444617	 3.3720409172	-0.292236
C	 1.8018559332	-3.6722374341	 2.5578755189	 0.18856
C	 1.7705755292	-4.8741984328	 2.5721630584	-0.3808
H	-0.6191686269	 1.7799268099	 0.4605546154	 0.2409
H	 0.658479595	 1.7350628292	-0.5151155093	 0.240886
H	-0.9781810961	-0.5818345919	 0.2192712606	 0.13275
H	 0.4155354283	-0.6307357609	-0.8448360845	 0.132703
H	 0.6178590107	-2.3349028297	 0.9440036867	 0.265513
H	 1.7546106282	-5.93698536	 2.6001756961	 0.219026
40.7038	58.6405	86.9285	104.4609	193.9937	205.6169	259.0154	283.4468	364.6564	430.2363	546.3303	611.0176	623.0103	668.1882	690.9113	707.7206	765.2622	854.8177	922.0396	935.9302	973.5147	1133.2383	1163.4137	1174.7962	1186.4427	1361.2768	1396.6682	1461.7884	1501.5513	1678.9887	1792.5152	1851.616	2223.3565	3014.7002	3051.6664	3492.0367	3494.9736	3561.645	3603.3226
NCC(=O)NC(=O)C#C	NCC(=O)NC(=O)C#C	
InChI=1S/C5H6N2O2/c1-2-4(8)7-5(9)3-6/h1H,3,6H2,(H,7,8,9)	InChI=1S/C5H6N2O2/c1-2-4(8)7-5(9)3-6/h1H,3,6H2,(H,7,8,9)
