19
gdb 68654	5.1929	0.87956	0.8618	4.4588	77.88	-0.2745	0.0042	0.2787	1388.6262	0.158039	-423.009329	-423.000586	-422.999642	-423.044859	32.304	
C	-0.0035617922	 1.4437951054	-0.0167159596	-0.50509
C	-0.0020467869	-0.0592211966	 0.0086461146	 0.323604
C	 0.6119164503	-1.0262955846	-1.0604246517	-0.305659
C	 0.0040881885	-1.9181953798	 0.0332776051	 0.425003
C	 0.6374316701	-0.9823862988	 1.0972601572	-0.314493
C	-1.2495567678	-1.0024586469	 0.0315510966	-0.315038
O	 0.0582479463	-3.3221603841	-0.0331288841	-0.238084
C	-0.5262559116	-4.0175587856	 0.9640875002	 0.149773
O	-0.5292998099	-5.2112246435	 0.9969437651	-0.274446
H	 1.0183587165	 1.8367527042	-0.0342484169	 0.125421
H	-0.5241302437	 1.8207097785	-0.9032709561	 0.125366
H	-0.5056150159	 1.8516625151	 0.8669737105	 0.124082
H	 0.1232455343	-1.0497147639	-2.0375498449	 0.100948
H	 1.701239934	-1.0325326523	-1.1464268457	 0.101039
H	 1.7285146514	-0.9823596979	 1.1597071083	 0.102783
H	 0.171858003	-0.9622409352	 2.0864696282	 0.095565
H	-1.8569928532	-0.9831412372	 0.9405264484	 0.095857
H	-1.8658836394	-1.0208130765	-0.8708006173	 0.102815
H	-0.9922230237	-3.3709336205	 1.729578272	 0.080555
7.5335	113.5134	135.3755	207.9143	254.4815	280.5166	410.9636	412.1663	463.2076	554.7175	557.1962	626.3905	758.2624	761.191	808.2709	938.7401	960.4437	971.1595	984.4299	988.1724	1046.0687	1087.083	1089.26	1103.2426	1136.0332	1139.5179	1149.4019	1171.207	1195.1549	1212.269	1229.7373	1275.0421	1348.9731	1414.9542	1431.863	1490.1215	1490.5985	1495.791	1497.7734	1562.0264	1865.8321	2975.1508	3031.2181	3050.0153	3053.2124	3062.7708	3099.4349	3100.7548	3119.2603	3123.7904	3128.7337
CC12CC(C1)(C2)OC=O	C[C@@]12C[C@@](C1)(C2)OC=O	
InChI=1S/C7H10O2/c1-6-2-7(3-6,4-6)9-5-8/h5H,2-4H2,1H3	InChI=1S/C7H10O2/c1-6-2-7(3-6,4-6)9-5-8/h5H,2-4H2,1H3/t6-,7-
