23
gdb 120729	2.53588	0.84891	0.71314	2.825	82.6	-0.2577	0.07	0.3277	1681.5204	0.203033	-425.408511	-425.397546	-425.396601	-425.445557	39.254	
C	 0.1728291944	 0.8722712327	 1.6570023659	-0.386069
C	-0.3473598915	-0.5664924435	 1.7953184173	-0.004333
C	-0.8300234506	-0.8581674348	 3.2235215835	-0.397333
C	-1.4683419646	-0.8028852618	 0.8036245226	 0.079918
O	-1.129452831	-0.8257825805	-0.5871718548	-0.274905
C	-1.6659704836	-2.0199056282	-0.0074164322	 0.044601
C	-0.7781052566	-3.2415372619	 0.0079896835	-0.218561
C	-1.3342068707	-4.3549836947	 0.8906053022	-0.076413
O	-0.4834315012	-5.4806413406	 0.7463357499	-0.417206
H	 1.0108427815	 1.0527621914	 2.3377852651	 0.109961
H	 0.5101411059	 1.0644093736	 0.6348424122	 0.132973
H	-0.6137937661	 1.5979160308	 1.8960890089	 0.110786
H	 0.4763024614	-1.247726478	 1.5558286553	 0.080299
H	-1.6652649543	-0.2027995013	 3.4975253264	 0.115338
H	-1.1694105662	-1.8934724771	 3.3321180109	 0.117406
H	-0.0269024313	-0.6891074396	 3.9474142709	 0.117087
H	-2.3656391059	-0.2128165083	 1.0173799916	 0.079294
H	-2.6925221863	-2.2253075645	-0.3242304607	 0.083851
H	-0.6890921774	-3.6264355349	-1.0152037951	 0.118567
H	 0.2326016359	-2.9860637826	 0.3359126261	 0.11769
H	-1.3771140314	-4.0178629365	 1.9389721303	 0.093161
H	-2.3666680164	-4.5928919047	 0.5849724419	 0.08696
H	-0.8258870039	-6.1898740149	 1.2979737484	 0.286926
41.9267	59.3625	82.0013	149.2071	193.5378	219.5993	235.6857	250.6019	268.9419	325.7689	354.5952	418.5048	444.8977	494.3689	557.9821	794.0481	796.0611	848.3915	883.0217	928.4331	959.6966	971.8338	1017.4283	1025.4386	1043.9341	1086.5063	1128.9284	1147.9183	1176.5189	1185.4432	1206.4188	1226.842	1242.069	1294.5584	1306.4086	1318.3312	1330.5101	1341.7419	1395.3613	1410.6643	1422.7242	1463.1118	1486.5641	1490.1944	1490.8332	1497.6426	1503.7345	1514.2057	1527.2029	2959.8888	2985.8779	3026.1461	3029.7557	3042.2592	3045.4785	3054.6191	3067.1127	3091.1932	3097.7684	3105.0018	3108.2181	3117.2681	3830.8541
CC(C)C1OC1CCO	CC(C)[C@H]1O[C@H]1CCO	
InChI=1S/C7H14O2/c1-5(2)7-6(9-7)3-4-8/h5-8H,3-4H2,1-2H3	InChI=1S/C7H14O2/c1-5(2)7-6(9-7)3-4-8/h5-8H,3-4H2,1-2H3/t6-,7+/m0/s1
