16
gdb 15562	3.41711	1.8626	1.42697	2.7627	65.75	-0.2469	-0.0191	0.2278	882.6053	0.130136	-383.754903	-383.74738	-383.746436	-383.78705	27.808	
O	 0.0261952232	 1.4633621608	 0.0466180116	-0.427018
C	 0.1094881092	 0.0449040244	 0.0623478497	 0.107515
C	 0.5738164453	-0.4910758908	 1.4383284004	-0.278482
C	-0.7294114004	-0.7927480373	 2.1421830803	-0.09221
C	-1.7530550992	-0.8478929688	 1.2901351205	-0.05984
C	-1.3021084439	-0.6003870035	-0.1299356254	-0.169458
C	-2.207471074	 0.2766281247	-0.9702721842	 0.15722
O	-3.2432004703	 0.7543377546	-0.5826124364	-0.250755
H	-0.562233714	 1.7300784579	 0.7638421002	 0.290134
H	 0.7980274936	-0.2076942645	-0.746582534	 0.092217
H	 1.1848536315	-1.397981746	 1.3313880196	 0.112984
H	 1.1967444999	 0.254213019	 1.9445990737	 0.116317
H	-0.7945316373	-0.9671510965	 3.2102674413	 0.101598
H	-2.7854547721	-1.0543102281	 1.5408417507	 0.114939
H	-1.1923524156	-1.5504732771	-0.6797170534	 0.103163
H	-1.846452496	 0.4491565911	-2.0081573945	 0.081675
69.8127	113.2613	203.0016	230.2982	361.4581	396.4587	415.3088	484.5954	662.8784	716.1506	774.1209	784.8957	829.0256	866.6499	934.8933	959.1798	978.043	980.8618	1041.7607	1058.3515	1105.8703	1130.3469	1175.6567	1214.9274	1244.6271	1296.4921	1313.8233	1320.3691	1375.0417	1426.2745	1432.9836	1475.9869	1675.1812	1825.851	2888.906	2970.4936	3016.3698	3071.3972	3096.6544	3194.1847	3227.1632	3783.4348
OC1CC=CC1C=O	O[C@H]1CC=C[C@H]1C=O	
InChI=1S/C6H8O2/c7-4-5-2-1-3-6(5)8/h1-2,4-6,8H,3H2	InChI=1S/C6H8O2/c7-4-5-2-1-3-6(5)8/h1-2,4-6,8H,3H2/t5-,6-/m0/s1
