17
gdb 26946	3.07406	1.39179	1.0275	3.4392	75.58	-0.212	0.0265	0.2384	1141.9229	0.137231	-418.02868	-418.020555	-418.019611	-418.061855	30.045	
C	-1.0173906106	 1.0489931224	-0.4355433777	-0.524137
C	-0.2008108345	-0.1777701374	-0.1986245972	 0.217274
C	 0.6392669149	-0.9237976927	-0.9961001136	 0.199251
N	 1.1887123904	-1.9735561081	-0.2854687263	-0.321949
C	 0.6873250584	-1.8785220439	 0.9207972832	 0.000326
N	-0.1577204963	-0.8138404467	 1.027582913	-0.288931
C	 1.0056853137	-0.7503900036	-2.4181868135	-0.015066
C	 0.0189217862	-0.6745779884	-3.5111794867	-0.180076
O	 0.6948241126	 0.497979111	-3.053553693	-0.235232
H	-0.7829059988	 1.8366138534	 0.2910657736	 0.125206
H	-0.8008308776	 1.434779001	-1.4317256318	 0.172865
H	-2.0940753231	 0.848968859	-0.3642017515	 0.124183
H	 0.8971706102	-2.5363000991	 1.7510842942	 0.128454
H	-0.6459930769	-0.5184755235	 1.856939285	 0.262473
H	 1.9890650005	-1.150306713	-2.6629252818	 0.106649
H	 0.2905080564	-1.0079637204	-4.5120020868	 0.117578
H	-1.0415007154	-0.72715828	-3.2695118589	 0.111132
53.5929	157.4715	170.7193	196.2	247.7027	325.7003	405.0207	450.4494	526.9936	662.8352	674.4978	679.4745	737.9469	802.9645	853.218	905.4666	955.7231	989.8253	1000.6187	1068.859	1095.2997	1113.9138	1146.9043	1170.847	1178.9227	1247.5696	1261.3665	1280.3526	1373.6564	1413.8757	1419.1757	1472.7227	1488.5686	1498.7022	1517.6597	1540.1787	1634.8319	3017.751	3062.4391	3081.7019	3121.3602	3154.3736	3173.1651	3250.2524	3656.5119
CC1=C(N=CN1)C1CO1	Cc1c(nc[nH]1)[C@H]1CO1	
InChI=1S/C6H8N2O/c1-4-6(5-2-9-5)8-3-7-4/h3,5H,2H2,1H3,(H,7,8)	InChI=1S/C6H8N2O/c1-4-6(5-2-9-5)8-3-7-4/h3,5H,2H2,1H3,(H,7,8)/t5-/m1/s1
