19
gdb 106850	2.57812	1.2796	1.00589	5.0073	81.66	-0.2718	0.0119	0.2838	1244.1103	0.159535	-382.055709	-382.04684	-382.045896	-382.08957	33.027	
C	 0.0559552081	 1.4902004317	-0.3021689363	-0.383693
C	 0.0105217535	 0.0465576673	 0.2185529977	-0.270029
C	-1.3860005454	-0.5024475872	 0.2428873904	 0.281538
C	-2.4975281517	-0.1520802604	 1.2521116707	-0.289549
C	-3.0103531004	-1.6265234015	 1.1815627637	-0.293511
C	-1.8977984508	-1.9342292476	 0.163518153	 0.138231
N	-1.95894871	-1.029104125	-0.9864041362	-0.374558
C	-1.1918990487	-3.1726788673	 0.0408553021	 0.234167
N	-0.6250593687	-4.1799620043	-0.0135838943	-0.351254
H	 1.0825702417	 1.8667940689	-0.3111676668	 0.121666
H	-0.3347239041	 1.5453530424	-1.3227924223	 0.131854
H	-0.5396433761	 2.1615820384	 0.3256529973	 0.117097
H	 0.6242605469	-0.5992141919	-0.4175677429	 0.126693
H	 0.431673655	-0.0010473737	 1.2300606633	 0.105558
H	-2.1134117547	 0.1041478414	 2.2419187788	 0.119987
H	-3.1893973702	 0.6321402822	 0.9300192874	 0.108276
H	-2.8826962136	-2.1591178447	 2.1253291567	 0.131696
H	-4.0279102508	-1.7927880822	 0.8152826446	 0.112454
H	-2.9118641902	-0.7164508463	-1.1683358471	 0.233377
68.1677	97.5925	161.9125	192.0216	216.3217	272.784	344.4843	393.7904	454.1576	538.9637	574.8489	624.8191	695.9381	759.7453	780.5744	792.6003	830.4721	945.4856	969.9896	980.1343	1018.7333	1074.7838	1085.0476	1099.2055	1131.337	1153.8921	1200.8647	1211.2169	1241.4152	1255.4544	1303.4359	1331.6009	1362.9369	1406.0298	1448.0432	1476.1185	1479.6452	1498.9258	1501.1874	1509.3231	2350.9859	3035.5553	3038.0511	3053.6022	3061.5061	3081.5714	3108.7357	3109.6954	3117.0644	3129.8785	3457.1422
CCC12CCC1(N2)C#N	CC[C@]12CC[C@]1(N2)C#N	
InChI=1S/C7H10N2/c1-2-6-3-4-7(6,5-8)9-6/h9H,2-4H2,1H3	InChI=1S/C7H10N2/c1-2-6-3-4-7(6,5-8)9-6/h9H,2-4H2,1H3/t6-,7-/m0/s1
