18
gdb 12356	2.77712	2.1652	1.49093	3.5533	74.	-0.2331	-0.0471	0.1859	899.8809	0.155166	-347.849595	-347.842055	-347.841111	-347.881292	28.817	
C	-0.2085180934	 1.5057116394	 0.074914741	-0.399908
C	 0.0284030372	-0.0144602413	-0.0229638101	-0.080535
C	 0.8038497842	-0.4275777558	-1.28589698	-0.232612
C	 2.2730370212	 0.0163054994	-1.2471561024	-0.257943
C	 2.9176601238	-0.299105689	 0.072137324	-0.036112
C	 2.2233889115	-0.5483161376	 1.1904859157	-0.145882
C	 0.7464621709	-0.4858552129	 1.2440633104	 0.377741
O	 0.1354243344	-0.7445016608	 2.2628182076	-0.34531
H	 0.7322660559	 2.0636548901	 0.1272118113	 0.120517
H	-0.765823387	 1.8637487293	-0.7967369658	 0.115513
H	-0.7860501656	 1.7401916182	 0.9729805332	 0.137463
H	-0.9496910903	-0.5065316268	-0.0186886136	 0.094394
H	 0.7764404527	-1.5205572605	-1.3729364666	 0.107696
H	 0.3091911747	-0.0274140718	-2.1780648495	 0.098394
H	 2.8370592684	-0.4624211269	-2.0563727031	 0.113125
H	 2.3620240459	 1.0966854403	-1.435653052	 0.123617
H	 4.0054827368	-0.3165650932	 0.1014421737	 0.105749
H	 2.7146493287	-0.7900956602	 2.1281191963	 0.104094
82.6741	190.4892	225.1083	243.42	337.7396	340.4763	448.4815	473.9111	553.8651	644.8281	715.1602	750.8224	832.4326	845.5359	888.4933	956.3256	965.5644	1012.8906	1027.0241	1042.0259	1103.5358	1112.9987	1147.1809	1212.8295	1241.1382	1265.8718	1328.9537	1337.1327	1373.733	1379.2987	1405.8196	1409.8808	1467.2653	1489.0547	1496.3979	1506.4711	1682.3047	1772.3249	3003.3544	3026.9594	3036.362	3051.6066	3057.3601	3070.3897	3103.8758	3119.2858	3145.9421	3185.5854
CC1CCC=CC1=O	C[C@H]1CCC=CC1=O	
InChI=1S/C7H10O/c1-6-4-2-3-5-7(6)8/h3,5-6H,2,4H2,1H3	InChI=1S/C7H10O/c1-6-4-2-3-5-7(6)8/h3,5-6H,2,4H2,1H3/t6-/m0/s1
