16
gdb 105327	2.48984	1.55558	1.19374	2.2799	68.86	-0.2761	0.0063	0.2824	1057.5927	0.122426	-437.835969	-437.827546	-437.826602	-437.869123	30.693	
C	-0.0100972637	 1.3631471594	 0.1044503924	-0.265619
O	-0.0956816248	-0.0457710814	-0.0581740971	-0.273345
C	 0.6369645433	-0.5635461945	-1.1207592386	 0.278359
C	 2.2283019655	-0.5715176284	-1.0472975965	-0.33578
C	 2.1569016832	-2.0994126955	-1.1301025701	 0.054285
O	 1.402668356	-2.5297081501	 0.0063813873	-0.233059
C	 0.6848541778	-2.1093993145	-1.1430750557	-0.032163
C	 0.1756740416	-0.0411291778	-2.4218145062	 0.2321
N	-0.196837791	 0.3708257363	-3.4356399275	-0.33984
H	 1.02550943	 1.6859394793	 0.2767376297	 0.11815
H	-0.4093366113	 1.895774509	-0.7683545117	 0.137218
H	-0.6107844962	 1.6074080785	 0.9818139094	 0.143397
H	 2.6991714109	-0.0808627568	-1.8998208892	 0.136383
H	 2.6359491467	-0.1932436392	-0.1082339588	 0.131282
H	 2.8604756141	-2.7967377139	-1.565962174	 0.121153
H	-0.0433246124	-2.7818881903	-1.5789005134	 0.12748
110.8645	122.5146	163.8848	170.5606	193.843	286.2881	386.453	418.3728	492.7432	552.0186	572.1101	651.8346	796.5781	833.4292	865.4969	903.3473	956.376	970.1823	1029.406	1034.0056	1067.1754	1107.0269	1151.7881	1182.7752	1206.1127	1226.5892	1238.4837	1252.5533	1272.8693	1383.2427	1459.1389	1480.4348	1489.2168	1505.8566	2347.3259	3004.6915	3064.6374	3083.5449	3138.7798	3151.1077	3200.044	3215.1106
COC1(CC2OC12)C#N	CO[C@]1(C[C@H]2O[C@@H]12)C#N	
InChI=1S/C6H7NO2/c1-8-6(3-7)2-4-5(6)9-4/h4-5H,2H2,1H3	InChI=1S/C6H7NO2/c1-8-6(3-7)2-4-5(6)9-4/h4-5H,2H2,1H3/t4-,5-,6-/m1/s1
