25
gdb 57524	2.65383	1.06701	0.99127	1.4069	88.75	-0.2355	0.0622	0.2977	1398.1846	0.22541	-389.483251	-389.472133	-389.471189	-389.519322	42.479	
C	 0.0052680516	 1.234019255	 0.6636362599	-0.400718
C	 0.100189706	-0.2236803781	 0.1724897587	 0.272706
C	 0.9390617694	-1.0447071179	 1.1671626876	-0.40068
C	-1.3233004716	-0.8121535076	 0.1105802826	-0.402081
C	 0.6892564449	-0.2977767299	-1.2647190253	-0.242013
C	 2.1696888517	-0.0351913631	-1.4607388676	 0.424129
O	 2.5186201297	 1.2599003981	-1.029684861	-0.464619
C	 3.1761604055	-1.1480196713	-1.3159759283	-0.320385
C	 2.8452314816	-0.5873083234	-2.6901920251	-0.336247
H	 0.9907500683	 1.6955602178	 0.7343323736	 0.133866
H	-0.5990424056	 1.8390572206	-0.0218020458	 0.100658
H	-0.4725193711	 1.2727814985	 1.6493409377	 0.095633
H	 0.4730917246	-1.0328438174	 2.1588579638	 0.10288
H	 1.0234220445	-2.091925792	 0.8550953941	 0.098587
H	 1.9495026308	-0.6393264884	 1.2674350219	 0.118981
H	-1.9447350792	-0.2714454634	-0.6122829251	 0.106147
H	-1.3080045057	-1.8675345516	-0.1848218993	 0.102151
H	-1.8156193653	-0.7456169806	 1.0869390737	 0.105674
H	 0.4904960605	-1.2987067712	-1.6666855921	 0.087423
H	 0.1338000946	 0.4038536663	-1.9014380096	 0.099
H	 3.4613762582	 1.3893369397	-1.1708740072	 0.27877
H	 4.14440623	-0.9013401064	-0.8897450824	 0.104117
H	 2.8304243991	-2.1449889585	-1.0663805737	 0.117537
H	 2.2723866825	-1.2003037723	-3.3782328066	 0.114777
H	 3.5911478648	 0.0371268169	-3.1729621844	 0.103706
26.6397	111.85	140.2011	174.5731	226.6425	264.1353	278.3208	292.1827	300.3896	305.055	364.8358	382.8557	416.3228	424.9622	452.3664	535.2283	739.9174	747.1449	770.6416	860.5769	886.7372	918.3197	933.438	936.3237	949.754	961.1539	966.7654	990.1999	1048.3231	1052.5432	1063.3186	1070.8928	1161.6893	1183.0687	1184.7752	1229.6706	1269.402	1286.5001	1351.6787	1355.5241	1397.7571	1400.0705	1428.5747	1437.6055	1461.3668	1470.4548	1479.5751	1486.8801	1490.1272	1500.8482	1506.707	1509.27	1521.0478	3013.8788	3019.4284	3024.6208	3032.3023	3056.9759	3083.5911	3085.8437	3088.9556	3094.0938	3111.0844	3119.6082	3124.4202	3145.6285	3199.2901	3214.3819	3824.2093
CC(C)(C)CC1(O)CC1	CC(C)(C)CC1(O)CC1	
InChI=1S/C8H16O/c1-7(2,3)6-8(9)4-5-8/h9H,4-6H2,1-3H3	InChI=1S/C8H16O/c1-7(2,3)6-8(9)4-5-8/h9H,4-6H2,1-3H3
