17
gdb 30277	3.03834	1.62013	1.10867	2.3936	74.49	-0.1917	0.0165	0.2082	1069.5766	0.138915	-418.025694	-418.018279	-418.017335	-418.057707	28.465	
C	-0.169116144	 1.5867953194	-0.0388941685	-0.393878
C	 0.035709599	 0.0723490978	 0.0553802435	-0.118475
C	 0.8948848981	-0.5104476052	-1.1367387009	-0.179564
N	 1.7718476293	-1.6053052701	-0.5851092119	-0.416599
C	 1.7722620267	-1.3095585212	 0.7688947105	 0.355025
C	 0.8538519291	-0.431590757	 1.20949248	 0.208538
N	 0.8842716274	-0.4079463032	 2.5962773023	-0.335546
C	 1.8231120226	-1.2469792174	 2.8952444488	 0.019715
O	 2.4252901573	-1.8670479457	 1.8071841921	-0.203692
H	 0.7921704696	 2.1111031079	-0.0409235915	 0.115262
H	-0.7109454585	 1.8573692283	-0.9517589541	 0.111092
H	-0.7476651854	 1.9487034578	 0.8159373237	 0.132825
H	-0.9520956362	-0.4100490694	 0.0511288739	 0.091966
H	 0.2725542697	-0.9093015732	-1.9404003542	 0.11885
H	 1.5185948507	 0.2925478955	-1.5498541043	 0.107989
H	 2.6835499538	-1.6426694695	-1.0274852773	 0.242217
H	 2.218411521	-1.5136930448	 3.8612932578	 0.144276
91.3163	160.0975	222.0301	268.0419	290.9356	424.0905	486.1032	571.4797	640.8408	652.6501	694.1756	730.843	753.5348	805.2158	907.5196	924.3829	936.0346	983.4048	1036.5271	1040.6889	1095.0457	1129.3313	1142.0788	1225.3474	1270.4793	1295.725	1310.0432	1336.6101	1371.6512	1390.2963	1408.7979	1484.7803	1494.1825	1499.0708	1515.007	1522.4003	1683.9082	2994.1232	3020.8141	3031.9078	3099.5116	3103.7719	3113.3894	3289.4358	3528.8945
CC1CNC2=C1N=CO2	C[C@H]1CNc2c1nco2	
InChI=1S/C6H8N2O/c1-4-2-7-6-5(4)8-3-9-6/h3-4,7H,2H2,1H3	InChI=1S/C6H8N2O/c1-4-2-7-6-5(4)8-3-9-6/h3-4,7H,2H2,1H3/t4-/m0/s1
