14
gdb 132357	1.90576	1.73369	0.91294	1.869	67.51	-0.2607	-0.0271	0.2336	1159.5394	0.099904	-486.011185	-486.003659	-486.002715	-486.043711	27.93	
C	 0.0021232399	 1.4961101448	 0.0358520628	-0.464818
C	 0.0181586078	-0.0068112709	-0.02133672	 0.346332
C	-0.1176826777	-0.6939449603	-1.224638195	-0.325408
C	-0.0914899922	-2.0836332817	-1.1842813216	 0.366269
F	-0.2184220562	-2.7717588716	-2.314452557	-0.066576
C	 0.0642056305	-2.7622853034	 0.0103112208	-0.437144
C	 0.1888773596	-1.9537912979	 1.1370856445	 0.357064
F	 0.3411537478	-2.5539947151	 2.313480221	-0.070732
N	 0.1709129202	-0.6434907481	 1.1543611427	-0.371753
H	 0.9355786639	 1.8665728222	 0.4710257725	 0.147961
H	-0.1255800555	 1.9385988255	-0.95432655	 0.123328
H	-0.8099189112	 1.8398316076	 0.684227096	 0.147964
H	-0.2403381521	-0.1780154185	-2.1680277605	 0.11547
H	 0.0876206151	-3.8414836126	 0.0669770339	 0.132043
75.0612	195.9893	217.1752	256.055	292.9263	340.4585	512.1179	520.3219	566.9149	594.521	600.542	666.5268	748.814	856.6214	868.6562	975.7713	999.9814	1015.5073	1059.2302	1068.4232	1166.5128	1198.8845	1318.1972	1398.1255	1419.673	1449.4968	1474.483	1477.3123	1504.288	1632.9416	1645.8788	3044.7613	3105.6644	3132.8548	3217.9983	3234.2023
CC1=CC(F)=CC(F)=N1	Cc1cc(F)cc(F)n1	
InChI=1S/C6H5F2N/c1-4-2-5(7)3-6(8)9-4/h2-3H,1H3	InChI=1S/C6H5F2N/c1-4-2-5(7)3-6(8)9-4/h2-3H,1H3
