19
gdb 17353	4.37563	1.22575	1.05895	1.7503	72.9	-0.248	0.071	0.319	1169.0635	0.164447	-365.019944	-365.011241	-365.010297	-365.053804	31.66	
C	-0.1475634713	 1.6057456807	-0.0790793771	-0.394874
C	-0.0073673356	 0.105034923	 0.0065190032	 0.008584
N	 1.2963402495	-0.4782221005	-0.3435851884	-0.345691
C	 0.79592823	-0.615183673	 1.038372132	-0.060358
C	 1.5944808924	 0.0872634157	 2.0858828762	 0.080442
O	 1.0140725827	 0.1757177572	 3.3952061812	-0.268884
C	 2.2192296077	-0.5824735901	 3.241197098	 0.073573
C	 2.1553397736	-2.0604504746	 3.5299269456	-0.42164
H	 0.7725829478	 2.1117690171	 0.2198779339	 0.128319
H	-0.3733706192	 1.9085359258	-1.107134732	 0.119008
H	-0.9613480321	 1.956178272	 0.5643496681	 0.12401
H	-0.8891338146	-0.4398481657	-0.3307615581	 0.083069
H	 1.1854390238	-1.3517667687	-0.8499976862	 0.232717
H	 0.4045561273	-1.5834059618	 1.3402233488	 0.081913
H	 2.0647742757	 1.007606844	 1.7401305728	 0.092239
H	 3.097371575	-0.08602223	 3.661265578	 0.087476
H	 1.255215213	-2.5196017043	 3.1163061314	 0.126337
H	 3.032062249	-2.5687342397	 3.1141042741	 0.123975
H	 2.1509846451	-2.2316789172	 4.6114935885	 0.129785
34.8491	123.8546	167.4373	182.5192	222.36	241.7925	377.9209	403.3713	436.6135	471.1685	582.484	771.6678	780.8935	843.5617	852.5079	927.4437	953.5699	982.0068	1009.2889	1014.7602	1048.5717	1091.0305	1105.2355	1148.6922	1164.5037	1171.2674	1224.1682	1255.3835	1272.2569	1300.5615	1343.2066	1406.0663	1412.668	1432.6556	1449.8181	1478.7672	1488.4506	1493.3866	1501.6651	1527.3294	3039.2392	3039.339	3075.5406	3098.9403	3100.2062	3101.2055	3113.9055	3129.1292	3134.676	3143.7571	3512.1277
CC1NC1C1OC1C	C[C@H]1N[C@H]1[C@H]1O[C@H]1C	
InChI=1S/C6H11NO/c1-3-5(7-3)6-4(2)8-6/h3-7H,1-2H3	InChI=1S/C6H11NO/c1-3-5(7-3)6-4(2)8-6/h3-7H,1-2H3/t3-,4+,5-,6+/m1/s1
