16
gdb 27690	2.84669	1.31329	0.90469	2.1543	86.79	-0.1848	-0.0032	0.1816	1252.112	0.123115	-400.755645	-400.746672	-400.745728	-400.789038	33.473	
C	 0.1265552136	 1.4573763324	 0.0282392429	-0.501659
C	-0.0543216246	-0.0178037425	 0.0127965031	 0.351076
C	-1.1616395074	-0.8113295161	-0.0619829697	-0.311579
C	-0.6980594743	-2.1638860192	-0.0333318617	 0.1293
N	-1.4799542221	-3.310999827	-0.0157922262	-0.619809
C	 0.675202259	-2.0979187947	 0.0528757429	 0.166463
O	 1.0661056355	-0.7690767841	 0.0880009507	-0.218945
C	 1.6398093659	-3.1075952709	 0.1065304363	 0.211496
C	 2.4367583115	-4.0147912617	 0.1392560125	-0.420728
H	 0.7415356882	 1.7916949832	-0.8148675148	 0.142887
H	-0.8435878766	 1.9547392437	-0.0339200408	 0.134952
H	 0.6257304286	 1.7863824015	 0.9464668168	 0.144293
H	-2.185928866	-0.4763848608	-0.1201334443	 0.105799
H	-2.3175359979	-3.2498961843	-0.5775044968	 0.248486
H	-0.9602674043	-4.15255674	-0.2281349402	 0.253205
H	 3.1439157011	-4.8048738397	 0.1854435993	 0.184763
115.5398	126.5088	134.3566	203.2721	261.011	296.7354	339.459	381.5211	402.2474	485.3369	533.6285	577.7384	625.9406	638.6866	658.2363	703.1185	726.6805	784.9505	802.6046	991.7204	1017.98	1057.7003	1061.8517	1174.9148	1193.965	1275.8097	1320.7614	1414.3553	1471.5627	1472.049	1495.0399	1581.0377	1640.7916	1670.586	2207.7835	3033.3544	3085.1784	3132.6371	3249.7934	3504.4194	3546.4621	3643.9602
CC1=CC(N)=C(O1)C#C	Cc1cc(N)c(o1)C#C	
InChI=1S/C7H7NO/c1-3-7-6(8)4-5(2)9-7/h1,4H,8H2,2H3	InChI=1S/C7H7NO/c1-3-7-6(8)4-5(2)9-7/h1,4H,8H2,2H3
