17
gdb 71021	4.11691	1.71263	1.42405	2.0121	75.27	-0.2351	-0.0225	0.2126	918.952	0.136592	-380.735241	-380.728597	-380.727653	-380.765751	27.639	
C	-0.0417346261	 1.4914830422	-0.0512311745	-0.515536
C	 0.0544475763	-0.0082656147	-0.0317212407	 0.275957
C	 0.6661700665	-0.9626342974	-1.1505915602	-0.384766
C	 0.1858217622	-1.9053040768	-0.0270176251	 0.324063
N	-0.025267749	-3.236735917	 0.5993207903	-0.285435
C	-0.5775568456	-2.8174204728	 1.6745524533	 0.00866
N	-0.7318199791	-1.3232870534	 1.7744632604	-0.247415
C	 0.5952589456	-0.932399512	 1.0896042635	-0.043007
C	-1.0497354112	-1.04832834	 0.2890904302	-0.042979
H	 0.9494162285	 1.9509779193	-0.1290033572	 0.124264
H	-0.6376634454	 1.8391404394	-0.901857857	 0.124263
H	-0.5142818308	 1.8563538616	 0.8663651914	 0.136683
H	 0.1274977317	-1.0004955824	-2.1014183935	 0.110633
H	 1.7446058586	-0.8865687348	-1.3144947684	 0.110634
H	-0.9266720494	-3.449132466	 2.4832058023	 0.128916
H	 1.5411823692	-0.8894482972	 1.6322664966	 0.08753
H	-2.057507362	-1.1430576482	-0.1189784513	 0.087533
209.9907	228.9032	240.5052	370.1702	457.2902	460.4598	557.1926	584.47	718.005	761.875	773.1788	794.3841	810.7201	834.3762	863.0894	920.3483	937.2157	945.2778	970.0337	999.3705	1055.3202	1057.1554	1116.6921	1121.1446	1147.5754	1166.5754	1179.4346	1201.227	1241.5241	1248.1263	1281.5552	1379.7698	1414.1005	1487.7058	1493.297	1505.9732	1594.8247	3030.8798	3053.4418	3095.8636	3102.8141	3105.5938	3107.919	3118.6297	3212.7725
CC12CC34N=CN(C13)C24	C[C@@]12C[C@@]34[N][CH]N([C@H]13)[C@@H]24	
InChI=1S/C7H8N2/c1-6-2-7-4(6)9(3-8-7)5(6)7/h3-5H,2H2,1H3	InChI=1S/C7H8N2/c1-6-2-7-4(6)9(3-8-7)5(6)7/h3-5H,2H2,1H3/t4-,5+,6-,7-
