16
gdb 22138	5.24312	0.58894	0.53293	0.1964	87.35	-0.2305	-0.027	0.2035	1966.0021	0.119945	-400.646097	-400.635665	-400.63472	-400.684049	35.768	
C	 1.1661324147	 0.5340234549	 0.2614617915	-0.477238
C	-0.2491336732	 0.0327739864	 0.1034742366	 0.20079
N	-1.2339582912	 0.4098541029	 0.8439546527	-0.158961
O	-0.809396638	 1.3349340929	 1.7988831534	-0.392226
C	-0.5404637179	-0.9148043205	-0.9182086528	-0.032948
C	-0.713057135	-1.7147989813	-1.8032592977	 0.203235
C	-0.9551729743	-2.6870552038	-2.8688265523	-0.502609
C	 0.245142063	-3.0295657196	-3.6340313293	 0.315154
C	 1.2222228559	-3.3182725245	-4.2686149336	-0.439188
H	 1.5325805159	 0.311776327	 1.2685432018	 0.150096
H	 1.8256028487	 0.0754575201	-0.4748431823	 0.13528
H	 1.1934227465	 1.6223251935	 0.1485255152	 0.150092
H	-1.6259511149	 1.5275361572	 2.2722846248	 0.311711
H	-1.3850011109	-3.6018082134	-2.4368041127	 0.167103
H	-1.7229522697	-2.2961409212	-3.5513625365	 0.1671
H	 2.0886290307	-3.5716747708	-4.8277786389	 0.202612
12.5246	58.2495	58.5297	120.3201	142.0275	283.4003	288.141	321.3562	322.9819	401.1279	418.6414	483.36	545.3367	573.728	607.154	625.2553	653.6382	762.6431	917.9664	929.8103	964.6874	1044.5413	1046.0792	1058.9042	1226.9092	1292.069	1334.3156	1397.3655	1406.8192	1448.9731	1476.2531	1482.5494	1668.7705	2248.6472	2357.3478	3005.9206	3029.6056	3048.0732	3106.0807	3156.3021	3506.6968	3816.5224
CC(=NO)C#CCC#C	CC(=NO)C#CCC#C	
InChI=1S/C7H7NO/c1-3-4-5-6-7(2)8-9/h1,9H,4H2,2H3	InChI=1S/C7H7NO/c1-3-4-5-6-7(2)8-9/h1,9H,4H2,2H3
