20
gdb 8458	3.83946	1.71793	1.54654	1.3363	74.07	-0.2503	0.0785	0.3289	918.9575	0.178531	-349.001986	-348.994553	-348.993609	-349.032979	30.405	
C	-0.1467006819	 1.5189470873	 0.0136278286	-0.416287
C	 0.0733277534	 0.0079220561	 0.0318723538	 0.058618
C	 1.0182818502	-0.5470758592	-1.0868557388	-0.295722
C	 2.0382485221	-1.2961365912	-0.2021354213	 0.428128
O	 3.0358117416	-2.0426940521	-0.8271448092	-0.486248
C	 1.1275778716	-2.0053829969	 0.8281646246	-0.26272
C	 0.8380324642	-0.5394744464	 1.2648246148	-0.026294
C	 2.3260307148	-0.2462979566	 0.9192358686	-0.290215
H	 0.7968598388	 2.0692325729	 0.0920289316	 0.114197
H	-0.6353833461	 1.8334291851	-0.9149423299	 0.112852
H	-0.7842922547	 1.8329143425	 0.8475989379	 0.111421
H	-0.9048197665	-0.4829366782	-0.0311301138	 0.068473
H	 0.5146475633	-1.2199698873	-1.7868842378	 0.098133
H	 1.4932484486	 0.2542775751	-1.666257992	 0.08271
H	 3.4432085375	-1.4961077968	-1.5075624093	 0.276467
H	 0.2964741913	-2.6095668945	 0.4516073644	 0.086345
H	 1.7056609992	-2.5645227362	 1.5668214122	 0.100149
H	 0.4255474326	-0.3098657225	 2.2470085026	 0.059062
H	 3.0164453922	-0.6360575255	 1.6701207735	 0.099022
H	 2.6137002781	 0.7684111346	 0.6287797198	 0.081911
174.4361	225.2256	235.9846	262.787	356.5942	389.8463	440.9784	469.0304	526.9425	583.3927	669.1972	796.1849	817.6302	839.925	902.7154	910.0255	932.8984	961.8716	983.7819	1008.3204	1016.042	1048.0785	1083.5496	1119.587	1128.5075	1156.4033	1161.6703	1216.0856	1217.1601	1238.266	1245.3489	1273.251	1319.0783	1330.596	1370.8117	1391.4263	1414.8682	1484.1395	1493.2135	1500.4188	1501.266	1530.8632	3027.0251	3028.6707	3030.5741	3050.73	3057.1623	3086.3903	3092.9778	3099.3316	3115.7781	3118.7921	3124.8335	3805.5299
CC1CC2(O)CC1C2	C[C@H]1C[C@]2(O)C[C@H]1C2	
InChI=1S/C7H12O/c1-5-2-7(8)3-6(5)4-7/h5-6,8H,2-4H2,1H3	InChI=1S/C7H12O/c1-5-2-7(8)3-6(5)4-7/h5-6,8H,2-4H2,1H3/t5-,6-,7-/m0/s1
