24
gdb 109783	1.8913	1.39734	0.93978	1.2841	90.82	-0.2146	0.0813	0.2959	1389.4772	0.216218	-368.372127	-368.361913	-368.360969	-368.407436	38.271	
C	 0.2200819353	 1.2273550197	 0.1821139354	-0.379077
C	 0.0829774919	-0.2103601704	 0.7008044722	-0.201339
C	-1.3626155394	-0.6644233442	 0.7602775675	 0.001981
C	-1.8627128883	-1.7437514102	 1.6712355077	-0.018886
C	-0.9771414179	-2.4938265141	 2.644198957	-0.412996
N	-2.274696848	-0.3490682643	 1.8683934799	-0.113556
C	-1.8288712859	 0.3897562184	 3.0144822866	 0.07917
C	-2.3935612704	 1.7779282366	 3.178108671	-0.271157
C	-2.8633107971	 0.6588546144	 4.0763497404	-0.279944
H	 1.2715285799	 1.5205886364	 0.1028610934	 0.108998
H	-0.231731667	 1.3310960007	-0.8104469089	 0.115572
H	-0.2811320087	 1.9348360179	 0.8495752858	 0.131345
H	 0.6252879668	-0.8929606381	 0.0332368836	 0.097643
H	 0.5690377804	-0.2946342341	 1.6767570079	 0.095916
H	-1.8561002	-0.5806803516	-0.2102357334	 0.078935
H	-2.6766580443	-2.3623963831	 1.2908953324	 0.082048
H	-0.1132525655	-1.9175683416	 2.9798747354	 0.118064
H	-1.5463129851	-2.7882713599	 3.5327748215	 0.125073
H	-0.6022472152	-3.4098030337	 2.17488776	 0.119125
H	-0.8098835843	 0.2452505729	 3.3713595984	 0.072057
H	-1.7550785626	 2.5480071467	 3.5967690901	 0.106333
H	-3.0771474805	 2.1150854104	 2.4078865383	 0.119295
H	-3.8553734886	 0.262256748	 3.895291496	 0.118904
H	-2.5490191554	 0.656891863	 5.1141603717	 0.106495
65.1535	89.1073	130.6165	157.1592	179.8861	208.8115	235.1275	277.5194	340.1084	361.8946	488.263	536.3887	567.148	699.0975	748.2677	779.4184	796.9235	826.1098	840.0421	910.4914	952.3997	976.4876	995.5275	1024.4352	1053.3909	1055.2358	1074.0704	1074.3872	1119.6783	1126.3542	1134.6	1163.5496	1195.8471	1200.4356	1206.334	1229.9617	1290.2935	1337.0235	1341.4047	1393.9319	1402.9561	1412.2291	1418.634	1446.6971	1454.8932	1483.0347	1492.0348	1496.8978	1500.0448	1501.9357	1510.0382	3024.1141	3034.9544	3037.4606	3067.7333	3080.4979	3087.551	3092.4868	3095.6744	3105.1149	3113.5459	3133.5591	3135.8624	3140.8453	3221.6908	3235.4839
CCC1C(C)N1C1CC1	CC[C@H]1[C@@H](C)N1C1CC1	
InChI=1S/C8H15N/c1-3-8-6(2)9(8)7-4-5-7/h6-8H,3-5H2,1-2H3	InChI=1S/C8H15N/c1-3-8-6(2)9(8)7-4-5-7/h6-8H,3-5H2,1-2H3/t6-,8+,9?/m1/s1
