20
gdb 9773	3.7735	1.47169	1.37284	1.7454	70.2	-0.2411	0.0613	0.3024	1010.589	0.176687	-386.148034	-386.139313	-386.138369	-386.181324	32.353	
C	 0.2654931157	 1.618478419	 0.1710276525	-0.407717
C	 0.0059866262	 0.1117890501	 0.0590973192	-0.223795
C	 0.5006249126	-0.5137156541	-1.2517796321	 0.358302
O	 1.919596496	-0.365114299	-1.38603381	-0.480439
C	 0.2455808855	-2.0239070139	-1.3640902608	-0.246947
C	 0.3008995606	-2.23513779	-2.876280568	-0.073559
O	-0.3038599899	-1.0716737384	-3.442425375	-0.265342
C	-0.223761787	 0.0043980169	-2.5165641259	-0.09059
H	 1.3361311219	 1.8418958883	 0.1118090553	 0.114085
H	-0.2440358479	 2.1805714164	-0.6194524963	 0.121079
H	-0.0914224818	 2.0047262061	 1.1299918955	 0.121429
H	 0.5050973271	-0.4045549738	 0.887201733	 0.105165
H	-1.0677596463	-0.0867275818	 0.1612780612	 0.096202
H	 2.1081673206	 0.5568502271	-1.5869642288	 0.279384
H	 0.9966924116	-2.5947219793	-0.8143818365	 0.112777
H	-0.7473298474	-2.2678956333	-0.973082657	 0.10037
H	 1.3424422169	-2.3267267302	-3.213274665	 0.103175
H	-0.2581788293	-3.1100908389	-3.2214651665	 0.100847
H	-1.2394255279	 0.353346482	-2.2821734846	 0.091364
H	 0.3225193328	 0.8456227969	-2.9667911102	 0.084209
63.8185	98.9578	174.1482	207.0258	241.8789	285.4168	345.7753	374.7447	411.0642	465.4019	605.5017	663.3029	784.9025	794.4101	863.2883	922.827	937.2838	968.1821	979.4535	1002.8782	1032.3822	1048.457	1094.7993	1122.5051	1175.8791	1191.1298	1199.9445	1250.6364	1257.2395	1311.5486	1327.3976	1338.0787	1371.0756	1379.8556	1406.8335	1417.4931	1471.9116	1478.3484	1502.975	1509.4806	1511.8188	1524.323	2989.0121	3011.9935	3020.1127	3029.6391	3033.7143	3056.7803	3067.0199	3080.9771	3100.4361	3107.7305	3123.0785	3821.5404
CCC1(O)CCOC1	CC[C@@]1(O)CCOC1	
InChI=1S/C6H12O2/c1-2-6(7)3-4-8-5-6/h7H,2-5H2,1H3	InChI=1S/C6H12O2/c1-2-6(7)3-4-8-5-6/h7H,2-5H2,1H3/t6-/m1/s1
