14
gdb 27119	3.34476	1.17574	0.91027	2.5965	65.81	-0.2023	-0.0091	0.1932	1196.2712	0.101716	-470.049245	-470.040996	-470.040051	-470.082792	29.375	
N	-0.3713639206	 1.271784302	 0.4017348109	-0.605292
C	-0.1563819204	-0.0780076857	 0.114754219	 0.214455
C	-1.0578830153	-1.0181851914	-0.3160601706	 0.269024
N	-0.3617643541	-2.2137079223	-0.3923366543	-0.300552
C	 0.9092738328	-1.9421149627	-0.0025127926	 0.01407
N	 1.0653005953	-0.6728457096	 0.3124226433	-0.30287
O	-2.3723753562	-0.9356323437	-0.6955903508	-0.226013
C	-3.2935959166	-0.8074060989	 0.3159947325	 0.156113
O	-4.4543295517	-0.6879233199	 0.091880873	-0.250446
H	 0.5135798671	 1.7515326689	 0.5087739364	 0.255146
H	-0.939617818	 1.7417148701	-0.2921169814	 0.251037
H	-0.7338002048	-3.087723195	-0.7247155187	 0.276964
H	 1.6786322223	-2.6979734015	 0.0328512776	 0.138547
H	-2.8115439897	-0.8258257203	 1.3091442258	 0.109818
55.617	121.7599	148.5184	212.3772	275.2597	289.1291	417.5302	439.7053	460.415	524.1757	653.3424	698.3323	711.5215	785.127	801.5893	857.3746	952.1774	1044.9253	1062.7329	1094.3226	1119.0881	1218.897	1280.6757	1338.3461	1392.843	1401.6349	1487.137	1520.1021	1637.8739	1679.2747	1883.1572	2995.44	3258.3408	3534.1249	3629.4704	3665.9902
NC1=C(NC=N1)OC=O	Nc1c([nH]cn1)OC=O	
InChI=1S/C4H5N3O2/c5-3-4(9-2-8)7-1-6-3/h1-2H,5H2,(H,6,7)	InChI=1S/C4H5N3O2/c5-3-4(9-2-8)7-1-6-3/h1-2H,5H2,(H,6,7)
