16
gdb 28067	5.60562	0.93143	0.79945	3.3851	76.38	-0.1746	0.0251	0.1997	1366.2127	0.125768	-434.090414	-434.081902	-434.080957	-434.123577	31.83	
N	-0.004882598	 1.4310561038	 0.1552024292	-0.595474
C	-0.0844390926	 0.0489981188	 0.0555294516	 0.42261
C	-1.1277417549	-0.8273731697	 0.0346640217	-0.420497
C	-0.5234170735	-2.136528088	 0.0151102463	 0.348664
N	-1.2561693757	-3.3225139726	-0.0096749588	-0.393555
C	-0.7491419903	-4.5927638549	-0.0359188739	 0.075442
N	 0.5029286659	-4.8427612289	-0.0461068972	-0.459024
C	 0.8250455463	-1.9596086696	 0.0223154517	-0.108453
O	 1.0948248349	-0.6008556592	 0.0478206594	-0.186034
H	 0.8478940626	 1.7952614419	-0.2504337027	 0.25598
H	-0.8128944087	 1.9014487687	-0.2280608884	 0.253812
H	-2.179597882	-0.5887987145	 0.0378959694	 0.088262
H	-2.2569540396	-3.2305597614	 0.0008579764	 0.251397
H	-1.5484094556	-5.3435455567	-0.0470727632	 0.085127
H	 0.6578646449	-5.8475630614	-0.0662728251	 0.219744
H	 1.6627676563	-2.6265018762	 0.0102733535	 0.161999
71.843	168.8868	177.8319	180.0778	259.1781	294.6517	374.1762	443.4532	443.592	549.4297	623.5154	654.3509	668.317	707.3445	721.6208	758.2037	796.7971	827.8245	967.6197	999.8489	1029.9428	1086.3585	1108.1883	1140.5688	1205.6335	1219.0266	1276.947	1327.1099	1412.5466	1449.8557	1569.0421	1614.7851	1642.5696	1679.2354	1720.9581	3044.8902	3251.1361	3354.7378	3518.5739	3547.4579	3647.7648	3669.805
NC1=CC(NC=N)=CO1	Nc1cc(NC=N)co1	
InChI=1S/C5H7N3O/c6-3-8-4-1-5(7)9-2-4/h1-3H,7H2,(H2,6,8)	InChI=1S/C5H7N3O/c6-3-8-4-1-5(7)9-2-4/h1-3H,7H2,(H2,6,8)
