18
gdb 84459	3.9842	1.21229	1.07086	1.647	84.73	-0.2253	0.0031	0.2283	1165.3907	0.146816	-364.758151	-364.749898	-364.748954	-364.790523	32.564	
C	-0.2743789692	 1.5330588522	 0.0509456466	-0.396116
C	 0.0535154426	 0.0390615274	 0.0010923954	-0.003167
C	 0.7339515257	-0.441888704	-1.2661731746	-0.094065
C	 1.823651307	-1.1520697216	-0.985815108	-0.158503
C	 2.0501018548	-1.187967397	 0.4961860891	 0.143221
C	 2.2987032844	 0.1662725184	 1.0965979069	-0.272463
N	 0.9464560437	-0.3883769829	 1.1129224875	-0.143296
C	 2.5023427412	-2.3964740311	 1.1264119109	 0.191101
C	 2.9132768518	-3.4115803107	 1.6225480772	-0.381679
H	 0.6166609495	 2.1500135867	-0.0969081821	 0.118385
H	-0.9934087027	 1.7874083744	-0.7337831014	 0.119253
H	-0.7174723302	 1.7909531397	 1.0167662946	 0.132228
H	-0.8898494445	-0.5093766096	 0.1374375839	 0.097989
H	 0.3620386254	-0.2131919964	-2.2584713294	 0.104255
H	 2.4864736393	-1.642480825	-1.686785737	 0.112339
H	 2.7564459672	 0.2380507703	 2.0791382768	 0.124298
H	 2.5549734995	 0.9600556259	 0.3997140913	 0.117112
H	 3.2626645142	-4.3079530265	 2.0717067724	 0.189106
119.1246	134.0846	197.5338	233.4163	274.1669	390.2125	400.6599	492.5844	524.1024	565.5296	599.4762	607.3733	654.6861	724.3266	756.4875	778.4004	790.0766	840.2768	912.731	949.1629	954.5148	984.2165	1052.782	1093.4536	1114.4624	1117.8272	1143.4681	1167.1723	1225.7409	1303.6003	1329.658	1354.2475	1361.3152	1406.4764	1486.3043	1495.5533	1498.4292	1672.2857	2240.2629	2992.6938	3042.9694	3104.6652	3113.3225	3121.3694	3194.3948	3198.3501	3227.3485	3503.4308
CC1C=CC2(CN12)C#C	C[C@H]1C=C[C@]2(CN12)C#C	
InChI=1S/C8H9N/c1-3-8-5-4-7(2)9(8)6-8/h1,4-5,7H,6H2,2H3	InChI=1S/C8H9N/c1-3-8-5-4-7(2)9(8)6-8/h1,4-5,7H,6H2,2H3/t7-,8-,9?/m0/s1
