13
gdb 132961	2.4918	1.96038	1.10485	3.1895	61.97	-0.2754	-0.0641	0.2113	979.9061	0.089968	-494.100111	-494.092586	-494.091642	-494.133488	26.338	
C	-0.0148758658	 1.4728448065	 0.0496667419	-0.363972
N	 0.0039358705	 0.0065266674	 0.0262342378	-0.211006
C	-0.0264167197	-0.6853784403	-1.2498909106	 0.466515
O	-0.0665750776	-0.0414830947	-2.2677039917	-0.361622
N	-0.0053965514	-2.0628368904	-1.1677521738	-0.306479
C	 0.038412031	-2.6166224249	 0.0064866856	 0.081392
N	 0.0680466304	-2.0073344746	 1.2297910948	-0.358095
C	 0.0483645018	-0.720332936	 1.1497561816	 0.447342
F	 0.0732268381	-0.011928662	 2.258082395	-0.041416
H	 0.8850838367	 1.8557686088	 0.5353034511	 0.156146
H	-0.0495199653	 1.7946834654	-0.9889430759	 0.190739
H	-0.8948899052	 1.8321765739	 0.5871670619	 0.156164
H	 0.0538899466	-3.703837779	 0.0418604923	 0.144292
30.2197	99.7376	197.7866	242.7083	328.1526	398.1051	474.0601	527.702	554.6025	614.4173	732.2109	751.0436	817.8509	875.6076	961.141	1026.333	1044.7335	1154.361	1176.5865	1218.2451	1312.4452	1403.4405	1424.6914	1486.9031	1501.9561	1508.0473	1552.1944	1689.3965	1831.4963	3065.1173	3136.0897	3165.9176	3188.2325
CN1C(=O)N=CN=C1F	Cn1c(=O)ncnc1F	
InChI=1S/C4H4FN3O/c1-8-3(5)6-2-7-4(8)9/h2H,1H3	InChI=1S/C4H4FN3O/c1-8-3(5)6-2-7-4(8)9/h2H,1H3
