18
gdb 84404	2.99791	1.43804	1.1413	1.7011	72.23	-0.2506	0.0079	0.2585	1080.9926	0.149797	-439.063617	-439.055774	-439.05483	-439.095898	31.146	
O	-0.230229251	 1.3967337212	 0.6295376979	-0.439494
C	 0.0083950785	 0.1232175592	 0.0343572499	 0.081155
C	 1.0308472311	-0.6514864131	 0.8247905217	-0.091707
C	 0.9052427874	-1.9212862985	 1.201803541	-0.091707
C	-0.2808627718	-2.8010511511	 0.9025919942	 0.081155
O	-0.7128624158	-3.4824702839	 2.0782055785	-0.439494
C	-1.4389522798	-2.0421349249	 0.2820128841	-0.06608
N	-1.9738726641	-0.9594584886	 1.1342915414	-0.359065
C	-1.2989988235	-0.6272712592	-0.1380697007	-0.06608
H	-0.6937320955	 1.208410145	 1.4559772964	 0.287064
H	 0.4155813799	 0.3509556203	-0.9594233358	 0.095536
H	 1.9103972421	-0.0768495848	 1.1046335337	 0.100188
H	 1.6805454966	-2.4005366447	 1.794553698	 0.100188
H	 0.0248669572	-3.5990089081	 0.2133471625	 0.095536
H	-1.0899669199	-2.7972540395	 2.6452806108	 0.287064
H	-2.1636699408	-2.6601790885	-0.2416511382	 0.093335
H	-2.9813142451	-0.8929430876	 1.0226694354	 0.239072
H	-1.9274528853	-0.2721252431	-0.9506796509	 0.093335
76.0807	176.0087	253.4765	264.9157	367.3671	395.0606	427.9862	461.1293	463.4235	545.7904	646.4318	660.7123	738.4056	774.2924	853.2921	863.9472	918.8423	919.8045	943.4893	1009.6461	1022.3675	1060.0065	1063.3538	1081.3924	1130.9079	1165.7476	1182.1144	1213.4403	1262.2696	1266.4528	1280.2997	1346.5154	1368.6078	1379.4811	1402.6147	1427.6826	1442.1787	1454.8869	1726.3337	3025.669	3026.1197	3135.9649	3146.6441	3150.6558	3172.7732	3514.7102	3771.5689	3772.6241
OC1C=CC(O)C2NC12	O[C@H]1C=C[C@@H](O)[C@H]2N[C@@H]12	
InChI=1S/C6H9NO2/c8-3-1-2-4(9)6-5(3)7-6/h1-9H	InChI=1S/C6H9NO2/c8-3-1-2-4(9)6-5(3)7-6/h1-9H/t3-,4+,5-,6+
