17
gdb 47463	2.79894	1.22737	0.96736	4.4017	73.48	-0.2595	0.0068	0.2663	1218.8474	0.137689	-418.068977	-418.060564	-418.059619	-418.102966	30.052	
O	-0.0380767679	 0.0094594729	-0.4076146743	-0.382365
C	-0.0654911871	 1.1837408805	-0.1109853645	 0.421014
C	-1.281362521	 2.044446292	 0.2193303161	-0.332601
C	-0.7530880708	 3.4880099915	 0.1914836894	-0.225729
C	 0.7591003613	 3.3435672646	 0.4714567557	-0.174102
N	 1.0458382678	 1.993440995	 0.006829747	-0.074887
C	 2.3747074069	 1.4398559286	-0.0713879938	-0.302267
C	 3.0720015027	 1.4498458766	 1.2257225612	 0.262472
N	 3.6099058312	 1.488391395	 2.2473435757	-0.305222
H	-2.0938504015	 1.846251166	-0.4813348468	 0.137938
H	-1.6308918655	 1.7501595435	 1.2157975326	 0.14085
H	-0.9005736788	 3.9213332891	-0.8017449942	 0.1218
H	-1.2394449692	 4.1430876073	 0.9159025253	 0.119822
H	 1.3592797412	 4.0794702764	-0.0746134504	 0.117516
H	 0.9955328927	 3.4485136278	 1.5394319829	 0.129265
H	 2.2624847351	 0.4073329944	-0.4197044377	 0.192189
H	 2.9904353733	 1.9851945588	-0.7977606842	 0.154305
55.3834	82.2316	147.6332	172.6848	250.6621	287.7616	378.6639	430.207	541.8937	573.2254	643.2117	686.9386	761.7428	856.165	899.6587	915.0535	931.3492	960.8898	1031.2373	1072.778	1092.8667	1185.1084	1217.7811	1224.5394	1243.8769	1289.4055	1309.0911	1331.4392	1346.0303	1378.347	1440.9466	1458.3895	1468.9022	1500.1015	1537.7872	1813.9784	2360.8493	3010.4786	3029.2396	3053.3967	3057.4923	3072.0582	3089.2101	3119.1859	3128.5018
O=C1CCCN1CC#N	O=C1CCCN1CC#N	
InChI=1S/C6H8N2O/c7-3-5-8-4-1-2-6(8)9/h1-2,4-5H2	InChI=1S/C6H8N2O/c7-3-5-8-4-1-2-6(8)9/h1-2,4-5H2
