20
gdb 101772	4.37221	0.66111	0.60727	1.3357	72.56	-0.2656	0.058	0.3236	1814.4655	0.168842	-477.465101	-477.45419	-477.453246	-477.502532	38.035	
C	-0.0026780195	 1.5680642526	-0.0255434178	-0.388553
C	 0.0003822779	 0.0351632759	-0.0487396288	 0.008119
C	-1.4184985168	-0.5314493567	 0.0334339257	-0.079921
O	-1.9890254123	-0.1109430059	 1.2632515336	-0.422755
C	 0.6980860135	-0.5200175146	-1.2860935462	-0.060673
O	 2.0728502434	-0.1077770114	-1.2388812487	-0.26393
C	 2.8187826043	-0.4680024561	-2.3120677137	 0.493962
N	 4.0893979447	 0.0206939818	-2.1786343811	-0.564298
O	 2.4081861892	-1.1002717819	-3.256681117	-0.397267
H	 1.016966783	 1.9598549457	-0.0432447007	 0.120065
H	-0.5324745718	 1.9670405678	-0.8995673097	 0.10677
H	-0.5072996938	 1.9335583819	 0.8709062706	 0.133174
H	 0.5422252494	-0.3310580816	 0.8331844443	 0.091221
H	-2.0112786639	-0.1706238269	-0.8238545289	 0.087047
H	-1.3846503717	-1.6311432289	-0.0297687112	 0.086172
H	-2.9032675688	-0.4068803626	 1.2878259396	 0.288086
H	 0.6552468209	-1.6142823548	-1.3177791175	 0.112987
H	 0.2426347607	-0.1450536507	-2.2095176193	 0.118603
H	 4.3949739959	 0.3300131936	-1.2716501943	 0.263426
H	 4.7779740458	-0.3656463871	-2.8009923186	 0.267766
26.1457	58.9067	98.2636	120.1726	171.4219	224.8827	245.2109	257.8249	270.5431	330.1301	352.986	417.2522	490.7327	513.7782	536.2039	675.156	784.5575	842.9507	918.123	927.6044	942.3972	962.4545	1068.2699	1098.1213	1115.8203	1126.9695	1171.9263	1176.8711	1243.487	1265.6001	1284.6125	1317.1755	1350.6634	1385.1039	1398.2283	1430.2627	1463.6454	1497.5897	1500.3527	1513.764	1524.7191	1612.1353	1834.377	2956.9285	2985.5477	3027.3027	3033.8062	3038.9221	3081.8034	3108.4478	3138.7636	3614.2963	3743.582	3836.1304
CC(CO)COC(N)=O	C[C@@H](CO)COC(=O)N	
InChI=1S/C5H11NO3/c1-4(2-7)3-9-5(6)8/h4,7H,2-3H2,1H3,(H2,6,8)	InChI=1S/C5H11NO3/c1-4(2-7)3-9-5(6)8/h4,7H,2-3H2,1H3,(H2,6,8)/t4-/m0/s1
