15
gdb 44590	3.47956	1.77205	1.415	4.2504	69.94	-0.2506	-0.0508	0.1998	894.04	0.114944	-416.766256	-416.759935	-416.758991	-416.796897	25.208	
O	 0.0714877717	 0.0311751051	 0.2273792845	-0.283983
C	 0.0785461806	 1.1983403033	-0.0083466489	 0.403259
C	-1.0871508765	 2.2286732846	 0.1244685515	-0.348618
C	-0.6620969649	 3.4019961578	-0.7804201683	-0.053203
C	 0.5549006683	 4.3087054758	-0.678529487	-0.050219
C	 1.6423210556	 4.1985058916	 0.3902756753	-0.190034
N	 1.8002093845	 2.7346642789	 0.5645432229	-0.19754
C	 1.1521407108	 2.1990795482	-0.3989469477	 0.062051
N	 0.6300331733	 3.0503483936	-1.4409289537	-0.124679
H	-2.0209091393	 1.7868963157	-0.2327458366	 0.145825
H	-1.2134923208	 2.4776368867	 1.1822721138	 0.1531
H	-1.4301092395	 3.7606037143	-1.4613227974	 0.114488
H	 0.5082649082	 5.218365885	-1.2708622876	 0.10916
H	 2.5653590245	 4.6841763746	 0.0466469661	 0.130968
H	 1.3876969235	 4.6282598048	 1.3644463631	 0.129426
130.6603	218.5559	322.9228	412.8894	434.3428	541.371	616.0054	662.9321	696.5014	756.7078	792.2158	822.2898	883.1483	927.9902	950.6164	968.6283	985.1547	994.0875	1033.3581	1087.4349	1112.801	1147.7647	1178.6674	1208.8715	1219.6034	1257.1164	1314.5734	1355.5702	1380.4894	1454.0238	1487.8275	1625.6241	1898.6513	3024.5651	3064.4337	3075.3652	3113.8579	3138.3124	3158.7173
O=C1CC2C3CN=C1N23	O=C1C[C@H]2[C@H]3C[N][C]1N23	
InChI=1S/C6H6N2O/c9-5-1-3-4-2-7-6(5)8(3)4/h3-4H,1-2H2	InChI=1S/C6H6N2O/c9-5-1-3-4-2-7-6(5)8(3)4/h3-4H,1-2H2/t3-,4+,8?/m0/s1
