22
gdb 105879	2.06685	1.41457	1.27142	1.7563	82.35	-0.2249	0.0581	0.283	1193.8341	0.193194	-404.308126	-404.298321	-404.297377	-404.342524	36.911	
C	 0.1614552327	 1.7233285542	-0.3378014802	-0.375085
C	-0.1143534092	 0.4351468189	 0.4517049857	-0.297349
C	-1.418343314	-0.1994999184	 0.0523083549	 0.335142
C	-2.7102033521	 0.1063334358	 0.713808651	-0.021664
C	-4.0374006744	 0.4208723399	 0.0567866243	-0.431088
N	-2.1539885278	-1.2544091384	 0.9007051287	-0.204483
C	-2.4511735591	-2.0156077447	-0.3626309073	-0.207048
C	-1.5918290721	-1.037781634	-1.2082406108	 0.035194
O	-2.1408789214	-0.3514070321	-2.3168468005	-0.430286
H	 1.1332253574	 2.148942474	-0.0700168518	 0.110358
H	 0.15897031	 1.5327327814	-1.4157473146	 0.127479
H	-0.6065454065	 2.4773819056	-0.13746785	 0.118863
H	 0.7037117424	-0.2798328353	 0.2929986645	 0.094819
H	-0.1349182714	 0.6467258782	 1.5268147498	 0.106245
H	-2.5662704259	 0.6616783697	 1.6405784477	 0.089511
H	-4.1081492264	 0.0486668736	-0.9641023938	 0.142146
H	-4.8635791025	 0.0110511396	 0.6495487521	 0.117248
H	-4.1680730806	 1.5073448088	 0.0165124643	 0.119535
H	-2.0396848494	-3.0249140448	-0.2932290603	 0.103235
H	-3.5122238251	-2.0773878347	-0.6191932638	 0.104611
H	-0.6365455285	-1.5044968805	-1.4833055675	 0.077885
H	-2.1090937963	-0.9358817968	-3.0810929025	 0.284734
67.1436	118.7611	153.8153	190.7839	204.3315	252.0402	283.7204	318.1086	343.6594	355.1141	415.5804	519.081	567.2215	690.4401	724.4243	740.1563	786.9705	852.8798	879.0843	949.0287	971.8523	980.1839	1039.0627	1069.911	1080.3979	1109.0455	1120.0173	1141.7519	1159.3268	1197.7094	1212.3719	1246.5279	1278.2015	1286.6207	1327.8394	1357.4443	1361.4105	1409.6721	1412.5724	1433.1282	1464.3308	1485.5829	1491.8926	1497.321	1504.358	1508.5553	1514.863	3008.1723	3020.0826	3035.5471	3036.6035	3060.1729	3062.478	3091.8629	3105.6723	3107.5435	3109.7464	3113.6682	3163.1149	3813.3752
CCC12C(C)N1CC2O	CC[C@]12[C@@H](C)N1C[C@H]2O	
InChI=1S/C7H13NO/c1-3-7-5(2)8(7)4-6(7)9/h5-6,9H,3-4H2,1-2H3	InChI=1S/C7H13NO/c1-3-7-5(2)8(7)4-6(7)9/h5-6,9H,3-4H2,1-2H3/t5-,6-,7-,8?/m1/s1
