20
gdb 81744	2.97272	1.23692	1.04736	4.4845	84.56	-0.2665	0.0224	0.2889	1218.2377	0.170847	-366.012288	-366.00326	-366.002315	-366.045678	34.307	
C	-0.4467224159	 1.5401410189	 0.3594920836	-0.408577
C	-0.1073733915	 0.0618049132	 0.2067397263	 0.003827
C	 0.2898227971	-0.4549599496	-1.1838987593	-0.11265
C	 1.6054405907	 0.0963088595	-1.6311317662	-0.328604
C	 1.6089301243	-1.027162848	-0.6170205643	 0.222775
C	 2.2250433454	-2.2847729629	-0.8827915081	 0.179584
N	 2.7244392163	-3.3120699553	-1.0749964975	-0.356008
C	 1.2449339115	-0.5122377829	 0.7938438172	-0.069007
C	 2.235909132	 0.4003107065	 1.503810161	-0.414039
H	 0.3312169147	 2.1926445016	-0.0477689513	 0.11712
H	-1.3798461831	 1.7742603821	-0.1639990559	 0.121814
H	-0.5834526015	 1.8042020412	 1.4134163303	 0.121129
H	-0.9372016033	-0.5338350669	 0.597485773	 0.086603
H	-0.3772887829	-0.9460405089	-1.8817634482	 0.110296
H	 1.9161593379	-0.1945469653	-2.6285548829	 0.139151
H	 1.9370483561	 1.08614641	-1.3334643877	 0.121656
H	 1.0182524868	-1.3648746117	 1.4390284975	 0.094801
H	 2.5264010189	 1.2593748868	 0.8926358394	 0.117156
H	 1.8090994245	 0.7852651898	 2.4357956749	 0.121655
H	 3.1478354619	-0.1500430581	 1.7576234382	 0.131318
99.0108	137.5091	191.2408	204.6683	208.6278	230.8541	294.1003	355.7835	455.4033	492.8825	551.349	584.1269	614.3392	673.6801	752.808	822.0554	849.7681	907.7628	965.0384	968.206	1015.9143	1030.3835	1056.3954	1070.4706	1094.1727	1115.1185	1145.1242	1167.3376	1212.9857	1223.1544	1271.5797	1300.7102	1362.0013	1366.3981	1394.2094	1408.803	1417.9334	1486.4166	1487.9917	1490.0812	1503.7907	1505.2337	2340.3909	3034.3108	3038.0112	3056.1493	3075.0671	3098.1096	3102.9483	3107.4607	3113.9152	3131.0437	3191.1533	3219.227
CC1C2CC2(C#N)C1C	C[C@H]1[C@H]2C[C@@]2(C#N)[C@H]1C	
InChI=1S/C8H11N/c1-5-6(2)8(4-9)3-7(5)8/h5-7H,3H2,1-2H3	InChI=1S/C8H11N/c1-5-6(2)8(4-9)3-7(5)8/h5-7H,3H2,1-2H3/t5-,6+,7-,8-/m1/s1
