19
gdb 115862	2.79446	1.29322	1.15718	1.1811	69.93	-0.2376	0.0724	0.31	1130.6343	0.159544	-460.130511	-460.121761	-460.120817	-460.164231	32.643	
O	-0.0741456828	 1.4228009679	-0.0520712993	-0.428439
C	 0.0328075113	 0.0036338416	-0.0082526935	-0.100809
C	-1.3871080941	-0.5499773188	 0.0465431145	-0.00038
C	-2.2212465408	-0.193402372	-1.2092927018	-0.096268
O	-2.9189967595	-1.3801785719	-1.6396639622	-0.280008
C	-2.5239667971	-2.4848551216	-0.8662823717	 0.027872
C	-1.098319452	-2.9090389382	-1.0882499123	 0.081378
O	-0.4048789224	-2.3628595124	-2.1706349434	-0.426025
C	-1.4745887058	-2.0671453033	 0.1278546893	-0.162235
H	 0.8045055934	 1.7866648886	-0.1927288994	 0.28805
H	 0.5421346765	-0.3941402112	-0.8954614889	 0.115289
H	 0.5919355684	-0.3250839152	 0.8820774669	 0.083972
H	-1.8718100348	-0.1308503752	 0.9356275807	 0.087309
H	-2.9654195683	 0.5841916083	-1.0142555903	 0.115372
H	-1.5710194689	 0.1543614588	-2.0189068985	 0.106097
H	-3.3314361751	-3.1828674468	-0.6742784791	 0.100619
H	-0.8305480451	-3.9432792303	-0.8829036843	 0.097761
H	-1.0763965325	-2.0644321714	-2.7982572353	 0.298032
H	-1.4051942204	-2.536809407	 1.1026405986	 0.092413
73.2863	108.4363	143.7371	183.5848	240.9376	263.9192	358.0552	390.407	434.1078	537.6881	621.1965	711.411	751.5101	776.6437	785.3621	869.934	935.2406	941.351	999.3213	1012.3016	1058.3009	1072.7963	1076.1422	1084.0562	1102.9441	1140.3775	1159.7147	1210.0095	1222.1089	1246.746	1266.7589	1300.4567	1309.164	1336.7538	1352.833	1374.8022	1403.7504	1428.3491	1450.563	1516.8088	1532.6767	2976.5168	3031.7525	3042.8017	3051.8831	3086.6831	3127.472	3165.875	3176.3675	3754.8483	3832.8709
OCC1COC2C(O)C12	OC[C@H]1CO[C@H]2[C@@H](O)[C@@H]12	
InChI=1S/C6H10O3/c7-1-3-2-9-6-4(3)5(6)8/h3-8H,1-2H2	InChI=1S/C6H10O3/c7-1-3-2-9-6-4(3)5(6)8/h3-8H,1-2H2/t3-,4+,5-,6+/m0/s1
