21
gdb 69506	2.37618	1.62191	1.34326	1.369	82.52	-0.2377	0.0747	0.3124	1084.5422	0.180943	-387.053352	-387.044179	-387.043235	-387.08629	36.028	
C	 0.0199620332	 1.5282409872	 0.0705764483	-0.49095
C	-0.0554686994	 0.0277345291	 0.0142334785	 0.321524
C	 1.1057048628	-0.8518383032	-0.3856571057	-0.394536
C	 0.531669735	-1.0037344839	 1.0055092403	 0.233958
C	 1.3306435679	-0.7838146642	 2.2605182807	-0.506047
C	-0.7641703951	-1.7839104977	 0.9174391876	 0.35261
O	-0.8512347327	-3.1639568877	 0.7927826418	-0.468586
C	-1.9509962716	-0.9386457133	 1.3124100242	-0.362471
C	-1.3373764773	-0.7746284378	-0.0657879265	-0.183791
H	 1.0061360325	 1.8682197762	 0.4040862804	 0.114516
H	-0.1613902072	 1.9711611395	-0.9161162778	 0.120445
H	-0.7278974735	 1.9392488748	 0.7582149246	 0.115805
H	 0.9750570604	-1.6414459711	-1.1208574097	 0.112046
H	 2.0713287633	-0.3548237092	-0.4347018634	 0.10125
H	 2.0499006993	 0.0332214149	 2.1399715655	 0.11781
H	 0.6828434175	-0.5346672544	 3.1091806774	 0.113137
H	 1.9022920245	-1.6803046642	 2.5302737886	 0.120049
H	-0.9213515361	-3.5421196765	 1.6757516207	 0.283591
H	-2.8945744668	-1.4763561603	 1.3289967233	 0.108832
H	-1.8651869594	-0.1480228942	 2.0540665607	 0.102026
H	-1.8989842873	-0.990046014	-0.9682123596	 0.088783
158.3765	175.2628	190.3802	206.7286	221.6699	241.5998	265.9068	341.9363	426.3492	442.2226	504.2368	541.9228	591.9228	646.8227	704.8037	776.4081	803.367	896.1014	932.3706	949.0656	961.9405	991.6229	998.7283	1008.8588	1042.7365	1069.2649	1084.1523	1095.5559	1113.6047	1167.327	1200.8619	1219.1695	1274.0449	1307.4494	1345.1028	1375.452	1396.5425	1412.8044	1426.6422	1483.0124	1487.8116	1489.5957	1497.0995	1501.0427	1505.71	3017.5156	3021.3932	3074.646	3078.5487	3089.8977	3093.573	3106.383	3108.5989	3172.1635	3190.3181	3198.5394	3799.7828
CC12CC1(C)C1(O)CC21	C[C@@]12C[C@]1(C)[C@@]1(O)C[C@@H]21	
InChI=1S/C8H12O/c1-6-4-7(6,2)8(9)3-5(6)8/h5,9H,3-4H2,1-2H3	InChI=1S/C8H12O/c1-6-4-7(6,2)8(9)3-5(6)8/h5,9H,3-4H2,1-2H3/t5-,6-,7-,8+/m0/s1
