23
gdb 64364	2.00468	1.82128	1.36557	1.4328	84.55	-0.226	0.0765	0.3024	1105.909	0.20522	-388.290484	-388.281163	-388.280219	-388.324175	36.533	
C	 0.1662709774	 1.6002986655	-0.2073532931	-0.41824
C	-0.0331640595	 0.0886858775	 0.0152889943	 0.213874
C	-1.5256910823	-0.2446711142	 0.045321572	-0.452027
C	 0.7351997152	-0.7263652682	-1.0572476074	-0.270763
C	 2.1668897526	-0.8348301377	-0.489039246	-0.089547
O	 2.1036847694	-0.4084515722	 0.8756943849	-0.30465
C	 0.7491325946	-0.3431152971	 1.2582773888	 0.467499
C	 0.4987166579	 0.105611902	 2.6559997985	-0.337794
C	 0.2747569508	-1.3513115966	 2.2768416609	-0.351511
H	 1.2272490984	 1.864863455	-0.1987213957	 0.126423
H	-0.258120044	 1.9106017838	-1.1684238167	 0.104647
H	-0.327081806	 2.1787116476	 0.5804956783	 0.111845
H	-2.0083377636	 0.0825409478	-0.8815997697	 0.114014
H	-1.6997497726	-1.3195685519	 0.1488611917	 0.116407
H	-2.033042801	 0.2650385176	 0.8724799457	 0.113843
H	 0.2884036321	-1.7201789556	-1.1580449048	 0.101036
H	 0.7093495329	-0.2505096861	-2.0413195316	 0.09904
H	 2.5486353	-1.8626825367	-0.5463016901	 0.095796
H	 2.8787305999	-0.1832252657	-1.0073549606	 0.103539
H	 1.3678996814	 0.3433341212	 3.2588080584	 0.122644
H	-0.3722410127	 0.7225162697	 2.85340835	 0.110454
H	-0.7437414588	-1.7218052345	 2.2459740411	 0.107962
H	 1.0123030081	-2.0680801115	 2.6202036812	 0.115511
61.0105	114.7867	219.9568	228.8778	234.0402	285.2972	310.4557	335.7687	372.4721	412.5372	508.6202	561.9297	614.3033	709.8431	769.2009	791.3596	862.7183	876.1428	899.6259	939.5268	951.485	968.5355	979.5853	989.949	1019.4887	1044.0594	1054.4816	1070.6503	1077.2456	1177.3899	1189.4566	1198.6996	1221.4574	1231.4384	1249.3195	1284.0657	1331.4021	1365.5133	1389.4922	1398.2445	1419.843	1449.9992	1482.5048	1488.7733	1494.7001	1501.4472	1503.5736	1512.2927	1533.3957	3011.3575	3027.5534	3032.9847	3051.3328	3056.6431	3090.3816	3096.9366	3100.341	3107.1514	3114.3632	3129.4504	3134.0434	3213.465	3228.0614
CC1(C)CCOC11CC1	CC1(C)CCOC21CC2	
InChI=1S/C8H14O/c1-7(2)5-6-9-8(7)3-4-8/h3-6H2,1-2H3	InChI=1S/C8H14O/c1-7(2)5-6-9-8(7)3-4-8/h3-6H2,1-2H3
