19
gdb 133867	3.12173	1.95772	1.91143	1.4371	78.33	-0.235	0.0942	0.3291	846.5551	0.163548	-385.826182	-385.820415	-385.81947	-385.855796	26.177	
C	-0.9188814084	-1.7149295635	 0.5203275318	-0.344553
C	 0.5704661558	-1.5683387529	-0.0247076217	-0.130157
C	 0.7549167741	-0.4413460175	 1.0277150704	-0.000595
C	 1.5274841368	 0.8668577989	 0.7781802523	-0.258216
C	 0.5721855104	 1.5442159992	-0.2195256836	 0.089172
C	-0.8814113823	 1.3154216165	 0.3764243728	-0.374663
C	-0.658561307	-0.1846977264	 0.3935047777	 0.275271
C	-0.0220765181	-0.4902921077	-0.9793133455	 0.142381
O	 0.6371214943	 0.6953580097	-1.382249067	-0.289223
H	-1.0129207809	-2.1200943975	 1.5301340079	 0.102277
H	-1.6483634599	-2.1608434743	-0.1614930679	 0.098853
H	 1.2466602329	-2.3954753901	-0.2555924926	 0.06811
H	 0.7554700663	-0.7761789824	 2.068077239	 0.061531
H	 2.5208297687	 0.7500203601	 0.3375622951	 0.107959
H	 1.6270545237	 1.4289171157	 1.7131583396	 0.092543
H	 0.8117392603	 2.565373869	-0.519394583	 0.074501
H	-1.6557330759	 1.6667031602	-0.3099076551	 0.110206
H	-0.9992960273	 1.7911629541	 1.3533516468	 0.104463
H	-0.6539601034	-0.851435101	-1.7957319268	 0.070139
334.1057	400.3102	414.0196	444.2797	473.5781	602.1445	622.1313	705.0189	763.2574	775.0863	822.9493	832.1049	859.7121	874.0566	918.5788	959.4738	964.7903	984.0983	1003.7993	1011.7023	1057.12	1065.0406	1084.8292	1093.1666	1107.2664	1119.8914	1169.0717	1182.7002	1191.9681	1204.2672	1225.1439	1243.8543	1261.0207	1286.3482	1317.376	1322.5514	1367.9913	1408.6474	1473.869	1484.4737	1513.5516	3043.5772	3054.4214	3063.8909	3065.5768	3068.7381	3082.7305	3102.1305	3113.15	3124.6289	3125.2785
C1C2C3CC4CC13C2O4	C1[C@@H]2[C@H]3C[C@@H]4C[C@]13[C@H]2O4	
InChI=1S/C8H10O/c1-4-2-8-3-5(6(1)8)7(8)9-4/h4-7H,1-3H2	InChI=1S/C8H10O/c1-4-2-8-3-5(6(1)8)7(8)9-4/h4-7H,1-3H2/t4-,5-,6-,7+,8+/m1/s1
