18
gdb 114410	3.59813	1.11818	1.07268	3.3032	73.94	-0.2586	0.0266	0.2852	1202.1365	0.147554	-439.051334	-439.043076	-439.042132	-439.084798	30.569	
C	 0.2464579501	 0.9790391749	-0.3610331272	-0.239036
O	-0.0111890182	-0.2710499256	 0.2430336879	-0.23442
C	-1.3499752358	-0.647782621	 0.1858364659	 0.150191
C	-1.9565835468	-1.1724848822	-1.1612159989	-0.290747
C	-2.4159673288	-2.4724159486	-0.4208768918	-0.174746
C	-1.6633891368	-1.9978411749	 0.8568028701	 0.055056
O	-0.645716907	-3.0137738246	 0.6250751034	-0.2575
C	-1.3419338658	-3.5315119898	-0.4562982268	 0.445992
N	-1.1029971221	-4.5284600929	-1.1760655189	-0.550088
H	 1.3136637206	 1.1789614717	-0.2444105918	 0.134889
H	 0.0015003598	 0.9759028504	-1.4332769939	 0.112688
H	-0.3243727553	 1.7872671295	 0.12241194	 0.106554
H	-2.0012995518	 0.1333304909	 0.6134020514	 0.071233
H	-2.7734061364	-0.5662680987	-1.5556786381	 0.112122
H	-1.2273257998	-1.3531589841	-1.9529704478	 0.128879
H	-3.4586308888	-2.7734848374	-0.4738041473	 0.104544
H	-2.0275019764	-2.030391024	 1.8830752581	 0.094738
H	-0.2429516707	-4.9980866335	-0.8874037744	 0.229651
59.8636	103.5887	167.8131	190.7519	236.9083	319.2189	410.0572	429.2886	541.2613	620.3264	712.6937	782.6967	806.5761	845.3528	865.7472	902.1442	914.4811	994.6948	1000.5166	1031.8144	1051.2652	1066.1386	1112.1482	1152.8371	1179.0305	1184.6377	1191.1924	1231.8603	1245.8411	1249.8681	1292.1613	1300.8157	1345.6411	1385.7258	1477.4598	1483.8587	1489.7026	1507.315	1825.9354	2957.571	2978.5105	3028.5444	3078.6571	3121.8999	3123.3617	3136.0717	3158.5599	3476.1263
COC1CC2C1OC2=N	CO[C@H]1C[C@@H]2[C@H]1O[C]2[NH]	
InChI=1S/C6H9NO2/c1-8-4-2-3-5(4)9-6(3)7/h3-5,7H,2H2,1H3	InChI=1S/C6H9NO2/c1-8-4-2-3-5(4)9-6(3)7/h3-5,7H,2H2,1H3/t3-,4+,5-/m1/s1
