21
gdb 119010	2.29575	1.40425	1.12745	1.2342	75.14	-0.2462	0.0815	0.3277	1214.2462	0.18087	-461.356523	-461.346616	-461.345672	-461.391806	35.175	
C	 0.2172357394	 1.1119599507	 0.1147959555	-0.226327
O	 0.0767346974	-0.287365344	 0.0628378471	-0.241389
C	-1.2673644269	-0.7062452414	 0.0161563713	-0.082788
C	-1.325195772	-2.2420427824	-0.0375649695	 0.424662
C	-2.7663354927	-2.731079813	-0.0889288074	-0.423688
O	-0.6328864344	-2.7318462066	-1.1716412259	-0.28984
C	 0.7024381819	-3.0380633471	-0.7898756439	-0.097055
C	 0.6651510819	-3.0909721963	 0.7554980239	-0.09704
O	-0.6874122918	-2.8089252854	 1.0925888094	-0.289849
H	 1.2866452766	 1.3338687863	 0.1479389682	 0.127088
H	-0.2198980547	 1.5983010397	-0.7713760163	 0.107056
H	-0.2623062545	 1.5363727242	 1.0107996769	 0.107065
H	-1.8144259129	-0.3577160831	 0.9073893474	 0.089421
H	-1.7714653406	-0.2969708516	-0.8745889618	 0.089427
H	-3.2704548329	-2.345149817	-0.9785524143	 0.124351
H	-2.7662054204	-3.8217593955	-0.1262546393	 0.129676
H	-3.3131621865	-2.4060085974	 0.7997866809	 0.124358
H	 0.9728951428	-3.9982821451	-1.2410561848	 0.102985
H	 1.3926603876	-2.2663488825	-1.1455197556	 0.109463
H	 0.9148516209	-4.0803190611	 1.1524651545	 0.102979
H	 1.3364200419	-2.3467406714	 1.1958993938	 0.109445
76.9481	78.3903	110.3401	140.8659	183.0374	187.072	237.7464	317.1699	333.2364	366.0406	393.7486	593.7106	668.7609	746.02	827.5103	858.3382	864.8757	909.7227	961.7937	995.0505	1009.4274	1081.5123	1083.2841	1153.4285	1158.2982	1165.5984	1190.1546	1203.2973	1227.8253	1237.1256	1240.804	1269.4042	1281.1958	1380.0531	1391.5581	1408.4925	1420.8631	1477.0334	1483.0198	1486.4175	1486.7697	1497.107	1516.0604	1518.9263	1533.0423	2960.9718	2975.5939	3000.3503	3018.6276	3035.1569	3042.6834	3056.4029	3068.003	3091.9067	3114.2985	3132.7399	3144.8913
COCC1(C)OCCO1	COCC1(C)OCCO1	
InChI=1S/C6H12O3/c1-6(5-7-2)8-3-4-9-6/h3-5H2,1-2H3	InChI=1S/C6H12O3/c1-6(5-7-2)8-3-4-9-6/h3-5H2,1-2H3
