13
gdb 123517	4.24077	1.74725	1.23742	1.006	73.7	-0.2372	-0.0751	0.1621	902.5095	0.094231	-411.827776	-411.822079	-411.821134	-411.857829	22.451	
C	-0.0272963987	 1.2958694572	 0.0096892909	 0.021948
N	 1.1932582095	 1.8251601841	 0.0009401869	-0.257155
C	 2.0694817262	 0.7929415305	-0.0133898869	-0.180703
C	 1.3868780889	-0.4177487434	-0.0136741045	 0.311914
C	 1.6331403924	-1.8018837327	-0.0238997296	-0.057853
N	 0.6628152471	-2.6842485858	-0.0195595969	-0.289648
C	-0.6120694267	-2.1822542327	-0.0044249176	 0.109852
N	-0.9999511111	-0.9363224266	 0.006388427	-0.237269
N	 0.0285585667	-0.0528000643	 0.0014899655	 0.004686
H	-0.9637300455	 1.8299936365	 0.0217538947	 0.156116
H	 3.1375343695	 0.949743558	-0.0228005797	 0.132288
H	 2.6568057307	-2.1706442497	-0.0358662643	 0.142044
H	-1.415334209	-2.9114285212	-0.0008194055	 0.14378
202.0075	229.8743	426.1145	426.3327	574.8635	599.9573	653.6285	672.9452	755.9906	775.6205	819.1681	844.5528	924.5252	930.7248	952.0416	1003.9934	1100.5379	1156.0351	1226.0407	1235.7628	1303.4282	1332.0861	1362.4538	1385.2881	1426.1894	1470.8996	1500.9705	1541.7207	1645.2005	3156.1427	3200.0834	3250.4483	3276.9593
C1=NC=C2C=NC=NN12	c1ncc2cncnn12	
InChI=1S/C5H4N4/c1-5-2-7-4-9(5)8-3-6-1/h1-4H	InChI=1S/C5H4N4/c1-5-2-7-4-9(5)8-3-6-1/h1-4H
