14
gdb 127962	2.99248	1.42529	0.97122	1.4175	71.37	-0.2578	-0.0677	0.1901	1136.6197	0.101307	-470.035032	-470.026941	-470.025997	-470.068981	28.298	
C	 0.0272106256	 1.4526703622	-0.2086060579	-0.344045
N	-0.0472436069	 0.0058292606	-0.276440689	-0.290479
C	-1.0754201282	-0.6176624383	 0.0993925995	 0.397129
O	-2.2060370256	 0.0309019397	 0.6031585706	-0.268614
C	-3.3242044921	-0.6412771059	 1.0121950609	 0.496422
O	-4.2787011143	-0.0588174495	 1.4396375512	-0.352026
N	-3.2465094769	-2.0106475133	 0.8879470834	-0.319556
N	-2.2002138407	-2.7381227594	 0.4129898587	-0.155074
C	-1.1703442943	-2.0715900938	 0.0393306759	-0.034009
H	 0.8901218536	 1.7268940744	 0.4084135593	 0.141046
H	 0.2276284275	 1.837130905	-1.214879157	 0.141069
H	-0.8680805624	 1.9387852246	 0.1897286954	 0.14088
H	-4.0520650917	-2.5406556098	 1.1793650997	 0.290436
H	-0.3180984936	-2.6175139765	-0.3443204907	 0.15682
40.5885	85.8154	130.6452	203.1783	222.9591	427.0316	453.9667	493.2853	543.545	585.9448	608.5417	724.7715	728.4308	753.5221	916.9063	945.5004	982.5616	1053.6124	1124.0364	1128.4849	1164.6989	1177.8898	1329.3708	1354.4567	1434.6763	1449.3012	1492.3761	1492.4393	1682.3744	1756.368	1876.203	3027.2528	3084.7352	3109.3465	3227.3697	3656.5219
CN=C1OC(=O)NN=C1	C[N]c1oc(=O)[nH]nc1	
InChI=1S/C4H5N3O2/c1-5-3-2-6-7-4(8)9-3/h2H,1H3,(H,7,8)	InChI=1S/C4H8N3O2/c1-5-3-2-6-7-4(8)9-3/h3,6H,2H2,1H3,(H,7,8)
