13
gdb 129207	3.14527	1.50172	1.01642	5.1942	77.31	-0.2365	-0.0966	0.1399	1061.4757	0.092099	-411.810203	-411.803074	-411.802129	-411.842033	26.62	
N	-0.0824780194	 1.3422194656	 0.0110226805	-0.534546
C	-0.0311922125	 0.0668275481	 0.0037326802	 0.32674
N	 1.1426073794	-0.7093712416	-0.0079879972	-0.29215
N	 1.2676017213	-2.0396107233	-0.016074815	-0.164026
C	 0.166347385	-2.733321813	-0.0128514728	 0.002137
C	-1.1262838493	-2.1263603213	-0.001280761	-0.202567
C	-1.236617776	-0.7699991361	 0.0068474643	 0.150222
C	-2.5110555247	-0.1305540628	 0.0184803981	 0.268716
N	-3.5674233972	 0.3419361832	 0.0278094011	-0.323994
H	 0.8431121349	 1.7721775045	 0.0074653267	 0.210251
H	 2.0262054211	-0.2190708551	-0.010943645	 0.273913
H	 0.2831451884	-3.8098679063	-0.0194945075	 0.140861
H	-2.0140066111	-2.7480292019	 0.0009815675	 0.144443
99.4109	155.8422	187.4433	362.5421	378.7436	464.9913	482.2967	560.5385	591.7866	611.3263	670.4932	733.3418	776.9813	804.4271	873.5513	890.7707	972.2569	1051.6632	1072.9039	1179.9492	1191.2264	1283.5538	1383.9941	1401.7406	1465.1452	1576.2164	1644.5858	1716.3956	2347.1203	3204.1262	3217.4959	3472.6478	3601.3669
N=C1NN=CC=C1C#N	[NH]C1=C(CC=NN1)C#N	
InChI=1S/C5H4N4/c6-3-4-1-2-8-9-5(4)7/h1-2H,(H2,7,9)	InChI=1S/C5H5N4/c6-3-4-1-2-8-9-5(4)7/h2,7,9H,1H2
