21
gdb 106524	3.00395	1.41368	1.20166	2.4126	77.54	-0.2459	0.0753	0.3211	1112.3012	0.184727	-424.213868	-424.205887	-424.204943	-424.246078	32.293	
O	 0.0165322903	 1.4178843067	-0.0818894213	-0.424499
C	 0.0206265997	 0.0154169138	 0.1038908265	-0.132889
C	-1.3712958893	-0.5627724965	-0.0367519442	 0.406993
C	-2.1021330934	-0.5791417947	-1.4111946319	-0.278469
C	-2.8769935634	-1.805569573	-0.8418453095	-0.027388
C	-1.6223342171	-2.0919635084	 0.033948791	-0.265182
C	-4.0039765394	-1.3135094677	 0.0819024113	-0.224233
C	-3.5733216877	 0.0093693787	 0.7490740352	-0.07311
O	-2.1641073501	 0.08849101	 0.9674535291	-0.326148
H	-0.6916824054	 1.7434175748	 0.4874594044	 0.28598
H	 0.6788161863	-0.4124370181	-0.6591403925	 0.100449
H	 0.4236293946	-0.2615139333	 1.0923976537	 0.088217
H	-2.6552361777	 0.3081860678	-1.7254987858	 0.101676
H	-1.409723319	-0.868331577	-2.2052717954	 0.102785
H	-3.2161117161	-2.5808023002	-1.5318379999	 0.064461
H	-0.8585724758	-2.6576173557	-0.5075194197	 0.095843
H	-1.7720122768	-2.5184311439	 1.0292389004	 0.094684
H	-4.9287498348	-1.1379396799	-0.4794267555	 0.099468
H	-4.2221585732	-2.0823624062	 0.8319918876	 0.103857
H	-3.8892186768	 0.853349494	 0.1205742003	 0.099193
H	-4.0431681051	 0.1421745187	 1.7277401662	 0.108312
106.1366	153.6742	222.9141	278.2042	327.6246	396.3682	438.1397	456.5312	473.0609	504.7255	597.8843	692.6123	804.9489	823.0931	846.404	867.9343	892.7615	918.9704	951.4343	970.5387	1005.2911	1041.6956	1058.525	1079.959	1098.7068	1121.4693	1128.0374	1165.5892	1179.6778	1223.8697	1241.2506	1263.616	1268.3922	1283.442	1324.8589	1335.2543	1363.1542	1376.0466	1410.1954	1444.4061	1469.6321	1491.2306	1496.3437	1502.0348	1526.9717	2969.031	3001.2502	3030.8584	3051.8359	3068.6575	3069.9933	3077.9226	3085.2744	3086.5446	3113.3861	3124.5643	3782.7472
OCC12CC(C1)CCO2	OC[C@@]12C[C@@H](C1)CCO2	
InChI=1S/C7H12O2/c8-5-7-3-6(4-7)1-2-9-7/h6,8H,1-5H2	InChI=1S/C7H12O2/c8-5-7-3-6(4-7)1-2-9-7/h6,8H,1-5H2/t6-,7+
