22
gdb 64083	3.1128	1.19452	1.08903	3.1963	83.51	-0.2537	0.0217	0.2754	1233.8127	0.194892	-404.381292	-404.372166	-404.371221	-404.414655	35.63	
C	-0.0612422424	 1.5410650703	 0.0288411985	-0.427052
C	-0.054739642	 0.0057595457	-0.0115445235	 0.242805
C	-1.5010957702	-0.5190525832	 0.0367107494	-0.418063
C	 0.6886354927	-0.4855796953	-1.2709025038	-0.231094
C	 0.8915651685	-2.0061409114	-1.2562310419	-0.284869
C	 1.4138817097	-2.5334187278	 0.0603562495	 0.380007
N	 2.1687606292	-3.5479846496	 0.1156775462	-0.502254
O	 0.9351906701	-1.9360206552	 1.1966280792	-0.259622
C	 0.737873387	-0.5136398855	 1.1949467203	-0.085251
H	 0.9548615882	 1.9483524986	-0.0118010675	 0.114224
H	-0.6165189037	 1.9453610095	-0.8240952323	 0.118267
H	-0.5386948299	 1.9145638909	 0.9416301374	 0.11401
H	-2.047488825	-0.2422210023	-0.8711665085	 0.112767
H	-1.5388139959	-1.6062351588	 0.1393345647	 0.127618
H	-2.0364916996	-0.0911316232	 0.8911035619	 0.113391
H	 0.1449213729	-0.1895958625	-2.1751164143	 0.097795
H	 1.6664505227	 0.011367271	-1.3165956871	 0.099962
H	-0.0669148231	-2.5070867978	-1.4420841273	 0.1288
H	 1.5717499638	-2.3340224189	-2.044044064	 0.130651
H	 2.3736825011	-3.7703028566	 1.0927095329	 0.216106
H	 1.7214014911	-0.023325954	 1.2338754111	 0.09976
H	 0.217775855	-0.3002180038	 2.1332938288	 0.112042
76.6115	164.5237	198.5832	229.1798	249.0154	276.3018	325.2628	371.312	408.9027	432.8803	459.9323	504.5744	562.0908	695.0854	741.0033	782.9493	873.6043	900.4729	927.3848	932.415	950.7577	979.2925	1005.7096	1043.4091	1047.5773	1057.4356	1129.7236	1158.5306	1193.8079	1239.6361	1244.323	1290.6849	1318.1364	1329.5114	1359.1408	1377.9993	1398.4738	1411.47	1433.9722	1470.5282	1482.9598	1488.8833	1493.4043	1503.2473	1511.2058	1514.7639	1748.0324	3000.7041	3019.1138	3025.9054	3034.9194	3036.2541	3065.9038	3085.2173	3092.5713	3097.3467	3099.1254	3118.2178	3121.9156	3455.824
CC1(C)CCC(=N)OC1	CC1(C)CC[C]([NH])OC1	
InChI=1S/C7H13NO/c1-7(2)4-3-6(8)9-5-7/h8H,3-5H2,1-2H3	InChI=1S/C7H13NO/c1-7(2)4-3-6(8)9-5-7/h8H,3-5H2,1-2H3
