20
gdb 18697	2.95063	2.16263	1.38434	0.2369	80.84	-0.2201	0.0295	0.2496	953.9842	0.179042	-311.88056	-311.873035	-311.872091	-311.911988	29.828	
C	-0.0983879277	 1.5137820616	 0.069144347	-0.477907
C	 0.0049626242	 0.0147375522	-0.0019876207	 0.320318
C	-0.020836533	-0.6657852436	-1.1523347687	-0.154048
C	 0.0794610591	-2.1711171364	-1.2225216402	-0.245452
C	 0.9559448449	-2.7398795499	-0.0907646611	-0.22665
C	 0.5990256999	-2.1435602918	 1.2700148186	-0.022584
C	 1.4698256937	-1.0686801238	 1.8775044818	-0.291046
C	 0.115216438	-0.714095661	 1.2939855987	-0.101309
H	 0.7768918619	 1.9468919007	 0.569748714	 0.122721
H	-0.1816309013	 1.9608302853	-0.9254628499	 0.115768
H	-0.9739661073	 1.8234078226	 0.6548978109	 0.118351
H	-0.1224847461	-0.1251180273	-2.0910063903	 0.073224
H	-0.9275533937	-2.6120043856	-1.1717241572	 0.105646
H	 0.4863583094	-2.4756124848	-2.1935617155	 0.095378
H	 0.8637260292	-3.8306197463	-0.0558346605	 0.093038
H	 2.0051140212	-2.5270007552	-0.3259724342	 0.099484
H	 0.1215841841	-2.8227903743	 1.9692541257	 0.079426
H	 1.5877215088	-1.0384413399	 2.9556887939	 0.104809
H	 2.3503671256	-0.7676930564	 1.3181612957	 0.109283
H	-0.6514656907	-0.4609870063	 2.023590842	 0.081548
118.0865	182.7323	200.4391	267.403	323.7493	383.8676	438.7599	520.9318	571.9939	649.5867	744.1189	782.0579	832.7825	839.8685	886.3362	901.7722	956.6532	982.7705	1010.9988	1035.7827	1056.9634	1064.2656	1080.1125	1108.3963	1126.1767	1136.6252	1178.6936	1219.7366	1228.6046	1253.0733	1324.152	1351.7713	1372.569	1393.8264	1411.4322	1422.3302	1476.8967	1477.3294	1484.1521	1491.3728	1495.5242	1727.6073	2994.1034	3013.6302	3030.6873	3054.4269	3059.8485	3071.4927	3106.5427	3119.3704	3122.2804	3144.6429	3151.1134	3210.0761
CC1=CCCC2CC12	CC1=CCC[C@H]2C[C@@H]12	
InChI=1S/C8H12/c1-6-3-2-4-7-5-8(6)7/h3,7-8H,2,4-5H2,1H3	InChI=1S/C8H12/c1-6-3-2-4-7-5-8(6)7/h3,7-8H,2,4-5H2,1H3/t7-,8-/m0/s1
