21
gdb 78221	2.13631	1.5342	1.40369	1.6768	78.12	-0.2382	0.068	0.3062	1091.858	0.180498	-424.193175	-424.183672	-424.182728	-424.226344	37.307	
C	-0.3890226784	 1.5868653634	 0.2744885798	-0.428519
C	-0.0513110757	 0.1040347375	 0.1518028039	-0.019424
C	 0.4002280254	-0.4641232976	-1.2043603862	-0.146685
C	 1.779105235	-0.0329751848	-1.600876032	 0.086087
O	 2.3386670825	 1.2307067115	-1.3460147086	-0.417216
C	 1.6700398206	-1.0682932162	-0.5401442409	-0.115713
C	 1.234130488	-0.5250671437	 0.8266040349	 0.393792
C	 2.1888919064	 0.3652265721	 1.6100944979	-0.468262
O	 0.8859674738	-1.6703129332	 1.6026926872	-0.482497
H	 0.4485213251	 2.2200629698	-0.0235641389	 0.121255
H	-1.2474559049	 1.8376419687	-0.359627503	 0.108903
H	-0.6602929432	 1.8455009689	 1.3044918135	 0.1075
H	-0.891665198	-0.4947323247	 0.5153823977	 0.077649
H	-0.2693648058	-0.9211655652	-1.9252750685	 0.079547
H	 2.0945036097	-0.4536751976	-2.5576447146	 0.091868
H	 1.9453876273	 1.8542553709	-1.9657056657	 0.286404
H	 2.1020706743	-2.0560992908	-0.6493602498	 0.093349
H	 2.5254630785	 1.2145622079	 1.0160579632	 0.148146
H	 1.6995597111	 0.7461855286	 2.5166984091	 0.094569
H	 3.0629951783	-0.216578792	 1.9193462462	 0.118576
H	 0.5731674499	-1.3558350335	 2.4580650146	 0.270669
147.7263	185.9264	206.8345	227.3293	238.7437	251.8165	270.8579	311.1743	336.0049	383.061	420.2674	451.8124	575.2825	620.2077	662.1653	733.1152	745.2056	810.0885	879.248	955.2169	965.414	978.0538	985.7894	1011.4564	1032.0616	1081.9274	1109.1566	1112.8716	1129.0797	1187.1024	1197.2201	1223.3554	1245.5549	1280.1526	1301.9659	1350.9704	1362.2584	1394.0041	1398.1758	1408.1092	1460.7061	1482.1862	1496.4986	1501.8151	1514.0434	3018.8278	3029.0724	3059.2897	3083.2149	3084.4613	3090.1744	3131.095	3158.5844	3161.4362	3184.7833	3799.9305	3806.5104
CC1C2C(O)C2C1(C)O	C[C@H]1[C@H]2[C@@H](O)[C@H]2[C@]1(C)O	
InChI=1S/C7H12O2/c1-3-4-5(6(4)8)7(3,2)9/h3-6,8-9H,1-2H3	InChI=1S/C7H12O2/c1-3-4-5(6(4)8)7(3,2)9/h3-6,8-9H,1-2H3/t3-,4+,5-,6+,7+/m0/s1
