18
gdb 76471	2.98701	1.46243	1.21633	1.6755	72.82	-0.2322	0.0396	0.2718	1057.4855	0.147489	-438.959598	-438.951625	-438.950681	-438.991951	31.214	
O	 0.1141356625	 1.3918902175	 0.0025631335	-0.436399
C	 0.0236169179	-0.0025380782	-0.0349764934	-0.043085
C	-0.4611983789	-0.7169780185	 1.2352025705	-0.113165
O	-0.8600843599	 0.121288243	 2.2937913976	-0.430472
C	-1.3126977063	-0.6588895456	 0.0171864709	 0.396864
C	-2.7441680375	-0.1982590803	-0.2604053547	-0.138875
C	-2.4579965899	-0.7377428879	-1.6818443465	-0.168321
N	-1.829272598	-1.8376591016	-0.7945955757	-0.197944
C	-3.1025618723	-1.6670132309	 0.0655055412	-0.168105
H	-0.3239407469	 1.6624749235	 0.821620397	 0.28368
H	 0.8247659425	-0.4522129908	-0.6148232088	 0.111135
H	-0.0091688065	-1.6653755623	 1.5223368875	 0.103397
H	-0.0881549456	 0.2791539427	 2.8496593154	 0.297487
H	-3.2400668768	 0.7258363205	 0.0482635312	 0.077515
H	-3.3053536897	-1.0973997351	-2.2719573878	 0.099225
H	-1.729267699	-0.2053623499	-2.2960413282	 0.115866
H	-2.9814607058	-2.0097698525	 1.0951719173	 0.111675
H	-3.9950947399	-2.0917826834	-0.4022999371	 0.099522
120.4587	146.9243	164.535	239.2776	282.7358	374.7323	400.7329	497.4998	568.8892	623.8382	644.0031	681.0463	781.9247	783.1357	815.195	898.7795	908.22	926.1787	973.5457	1026.2781	1046.1275	1078.3619	1092.8828	1095.3882	1104.1445	1143.2611	1151.6098	1164.7149	1197.2843	1216.5804	1220.2913	1251.7235	1263.8967	1307.6375	1344.7327	1410.672	1496.5095	1505.4196	1543.2189	3054.0192	3056.4038	3074.8223	3113.0598	3128.2346	3132.8791	3152.9217	3742.9764	3792.3734
OC1C(O)C11C2CN1C2	O[C@H]1[C@@H](O)[C@]21[C@H]1CN2C1	
InChI=1S/C6H9NO2/c8-4-5(9)6(4)3-1-7(6)2-3/h3-5,8-9H,1-2H2	InChI=1S/C6H9NO2/c8-4-5(9)6(4)3-1-7(6)2-3/h3-5,8-9H,1-2H2/t4-,5+,6+
