16
gdb 31688	5.22204	0.92551	0.79187	3.5737	77.31	-0.1998	-0.0423	0.1575	1384.3945	0.125297	-434.115944	-434.107515	-434.106571	-434.149275	30.316	
C	 0.0742664329	 1.4074126973	 0.1033805271	-0.326927
N	-0.0083027698	-0.0120608886	-0.1677804526	-0.367817
C	-1.2249639918	-0.6438496302	-0.0695245266	 0.339118
C	-2.4909471676	-0.1228231003	-0.0521448713	-0.221457
N	-3.3412459279	-1.2401103975	 0.003290535	-0.046423
C	-4.7309394945	-1.2432626805	 0.0360777954	 0.176857
O	-5.4026374389	-2.2402841254	 0.0928307851	-0.289319
C	-2.5255240824	-2.351071607	 0.0291206425	 0.040737
N	-1.2640052876	-2.0339868066	-0.0124706651	-0.331271
H	 1.1136955324	 1.7307455372	 0.0195125511	 0.131333
H	-0.5071046254	 1.9635569691	-0.6412423137	 0.132531
H	-0.302600076	 1.683414898	 1.1013902048	 0.11471
H	 0.751445319	-0.5785221098	 0.1783060723	 0.248874
H	-2.8773902531	 0.8800213549	-0.0772019811	 0.133172
H	-5.1438112797	-0.2192085523	 0.004100211	 0.10079
H	-2.9417634198	-3.3444252382	 0.0799511461	 0.165092
91.2707	126.8533	153.1175	185.9249	239.8112	243.6818	353.1911	446.0542	493.9064	545.2358	611.6496	619.9432	737.4856	743.7472	812.6572	864.0708	980.2325	1030.9329	1031.641	1097.0194	1153.057	1165.4122	1224.2182	1250.3621	1282.8213	1314.5767	1431.7201	1441.4427	1462.9997	1478.5456	1490.9614	1520.9967	1559.8352	1665.1853	1821.3161	2975.2089	2980.49	3056.2664	3125.7961	3278.237	3294.4898	3616.4856
CNC1=CN(C=O)C=N1	CNc1cn(C=O)cn1	
InChI=1S/C5H7N3O/c1-6-5-2-8(4-9)3-7-5/h2-4,6H,1H3	InChI=1S/C5H7N3O/c1-6-5-2-8(4-9)3-7-5/h2-4,6H,1H3
