17
gdb 34466	3.55349	1.50383	1.2616	4.2974	76.72	-0.2276	0.0206	0.2482	1000.3886	0.139139	-380.849339	-380.842452	-380.841508	-380.880469	27.856	
N	 0.0031478758	-1.0496882763	-0.0131878095	-0.343541
C	 0.0030309111	 0.1074583634	-0.0188177298	 0.182122
C	-0.0193019328	 1.5404854596	-0.0154794537	 0.261815
N	-1.1103299217	 2.1899769385	 0.7158616979	-0.369738
C	-1.4286301979	 3.4127775404	-0.0576161376	-0.166249
C	-0.1150239822	 3.7032023202	-0.7850270895	-0.074857
C	 1.0786366528	 3.7496258711	 0.2309314782	-0.241485
C	 1.3274173886	 2.2698635856	-0.0581615213	-0.095874
C	 0.3898412762	 2.3083179428	-1.2525154739	-0.122828
H	-1.9078529834	 1.5683603827	 0.7800301687	 0.23474
H	-2.2433764744	 3.2588401288	-0.7814523358	 0.096749
H	-1.7165598596	 4.2245959429	 0.6190849283	 0.112649
H	-0.1696502121	 4.5066246733	-1.517105995	 0.085243
H	 1.9009227115	 4.3627254436	-0.144579314	 0.11218
H	 0.8451567014	 4.0353315275	 1.2603199434	 0.114483
H	 2.2548374127	 1.722902083	 0.062276093	 0.106269
H	 0.474344224	 1.903253273	-2.2517262695	 0.108324
142.1448	164.1505	248.61	373.5849	429.9929	493.5811	546.8083	577.0467	603.704	710.0159	729.4236	828.5228	849.8102	859.0273	877.2879	900.6326	969.0136	973.7364	990.56	1021.8337	1047.3317	1069.4008	1100.1259	1119.012	1162.0253	1183.4723	1222.0398	1231.8063	1245.6604	1273.7283	1303.6164	1339.2482	1379.2515	1447.9152	1489.6826	1512.2684	2351.1834	2987.2157	3060.1818	3065.0872	3116.4202	3135.6897	3185.4697	3209.2349	3548.2479
N#CC12NCC3CC1C23	N#C[C@@]12NC[C@H]3C[C@@H]1[C@@H]23	
InChI=1S/C7H8N2/c8-3-7-5-1-4(2-9-7)6(5)7/h4-6,9H,1-2H2	InChI=1S/C7H8N2/c8-3-7-5-1-4(2-9-7)6(5)7/h4-6,9H,1-2H2/t4-,5-,6+,7-/m1/s1
