16
gdb 112401	2.24791	1.41095	0.90987	2.9871	66.11	-0.2463	-0.0407	0.2055	1217.5352	0.123655	-475.078827	-475.070128	-475.069183	-475.113093	31.258	
O	-0.0861711186	 1.4601361516	-0.0106291773	-0.426917
C	 0.0484821803	 0.0507529482	 0.0781400946	-0.073855
C	-1.3646566855	-0.5216289949	 0.0102290494	-0.089558
N	-2.0421936546	-0.2324452038	-1.235037027	-0.310471
C	-2.5188169448	-1.3039278135	-1.9437646868	 0.409003
O	-3.0825991246	-1.2550524295	-3.0124882874	-0.368388
C	-2.2040861409	-2.55689273	-1.1221208709	-0.460295
C	-1.3757585133	-2.0606350892	 0.0514852618	 0.391361
O	-0.7950856297	-2.7180536002	 0.8735969346	-0.304877
H	 0.7920186088	 1.8502495775	-0.0482072768	 0.296718
H	 0.6470651608	-0.3508736883	-0.7534493301	 0.097518
H	 0.5100901864	-0.2680908493	 1.0224163904	 0.118364
H	-1.9245628357	-0.1366463897	 0.8757942677	 0.123048
H	-2.1161064622	 0.7064304136	-1.5951580715	 0.265469
H	-3.1311031957	-3.0225482872	-0.7697024481	 0.167537
H	-1.6730563707	-3.3089216053	-1.7113121626	 0.165342
63.3411	77.2351	120.7973	169.1769	256.4649	313.6533	409.7683	429.3702	468.1913	527.6882	578.8352	598.307	612.7235	679.8605	806.3248	860.9307	932.1726	962.9432	1057.5366	1089.6307	1126.2813	1130.2668	1155.5471	1218.5813	1236.587	1249.2265	1277.2734	1305.0799	1379.0014	1414.6778	1429.6879	1451.3103	1514.4497	1829.0299	1865.8632	2986.1324	2998.9176	3041.8635	3064.6109	3114.3383	3640.6818	3834.0677
OCC1NC(=O)CC1=O	OC[C@H]1NC(=O)CC1=O	
InChI=1S/C5H7NO3/c7-2-3-4(8)1-5(9)6-3/h3,7H,1-2H2,(H,6,9)	InChI=1S/C5H7NO3/c7-2-3-4(8)1-5(9)6-3/h3,7H,1-2H2,(H,6,9)/t3-/m1/s1
