18
gdb 89882	3.8957	0.90344	0.83123	2.5599	75.35	-0.2278	-0.043	0.1848	1412.8756	0.144956	-439.038592	-439.029713	-439.028769	-439.07267	32.196	
C	-0.0650309272	 1.3556109836	-0.2391754063	-0.323458
N	 0.0452674835	-0.0588245234	 0.0395812888	-0.073241
C	 0.842616963	-0.89506093	-0.8852276379	-0.252335
C	 1.4367555822	-1.5910944012	 0.3418797664	 0.412999
C	 0.8462768951	-0.4812087493	 1.2113313242	-0.247391
O	 1.2929723247	-2.9604954286	 0.6141051806	-0.267294
C	 2.6328093963	-2.4306490088	 0.5373237902	-0.159287
C	 3.4181347256	-2.8743219424	-0.6511845992	 0.154172
O	 4.6215289215	-2.8864587749	-0.692881871	-0.24789
H	 0.9158000174	 1.8594384251	-0.340451303	 0.09319
H	-0.6223307186	 1.5072050848	-1.1690741502	 0.127465
H	-0.6187353813	 1.8490622623	 0.5659262645	 0.12735
H	 0.2550566298	-1.519391985	-1.5664356522	 0.123239
H	 1.5933288431	-0.3313344887	-1.4624318368	 0.099916
H	 1.6011687447	 0.2566996484	 1.5275268358	 0.098881
H	 0.2630189064	-0.8007687833	 2.0811279311	 0.124378
H	 3.1798954327	-2.3717221332	 1.4768844946	 0.119122
H	 2.7842878609	-3.1927640755	-1.5086015096	 0.090183
59.0134	112.8445	141.9969	209.5804	231.0804	296.7226	313.3	383.6899	395.4142	433.507	493.6394	559.0134	736.5251	842.0705	910.4014	927.7079	972.5732	985.3663	998.5915	1068.9116	1092.1942	1113.6518	1126.6259	1149.4631	1166.6471	1190.3839	1213.9474	1220.8006	1282.5686	1304.1046	1334.4404	1398.376	1452.959	1483.3726	1486.7049	1493.9234	1497.79	1518.1531	1826.4423	2892.0566	2921.4758	2969.6228	2978.9754	3062.5344	3067.1283	3069.4201	3105.2089	3137.6091
CN1CC2(C1)OC2C=O	CN1CC2(C1)O[C@H]2C=O	
InChI=1S/C6H9NO2/c1-7-3-6(4-7)5(2-8)9-6/h2,5H,3-4H2,1H3	InChI=1S/C6H9NO2/c1-7-3-6(4-7)5(2-8)9-6/h2,5H,3-4H2,1H3/t5-/m0/s1
