18
gdb 12290	3.93874	1.31383	1.11865	1.8138	63.8	-0.2482	0.0569	0.3051	1074.2267	0.152744	-422.050108	-422.041226	-422.040282	-422.08376	32.215	
O	-0.0994606434	 1.400248015	-0.2116403843	-0.426
C	 0.0247832878	-0.003482853	-0.0159427516	-0.094268
C	-1.3777942594	-0.5755756038	 0.027470451	 0.029802
C	-2.2328980892	-0.5642714206	-1.2713887389	-0.27777
C	-2.7406585013	-1.984815588	-0.898594178	 0.14209
O	-2.8359171448	-2.9713820661	-1.8912194647	-0.441218
C	-1.5466151001	-2.1133937558	 0.1028687797	 0.033595
O	-0.4420250713	-2.7617264059	-0.5188422163	-0.439243
H	 0.7825682584	 1.7638726063	-0.3309985643	 0.285956
H	 0.5919547321	-0.4755231943	-0.8295936275	 0.098277
H	 0.5502547574	-0.2309388028	 0.9259168043	 0.084595
H	-1.9250661401	-0.1074057504	 0.8517770851	 0.082795
H	-2.9738582237	 0.2273738521	-1.3921591506	 0.106258
H	-1.6018178923	-0.5935841502	-2.1654135192	 0.099478
H	-3.7052867751	-1.9588545656	-0.3844406094	 0.088993
H	-1.9581024636	-3.031329492	-2.2882681311	 0.275318
H	-1.7464596231	-2.5500701646	 1.0892649307	 0.06121
H	-0.6249143483	-3.7072767504	-0.5048934752	 0.290134
73.7306	95.5132	149.2445	169.3176	246.5174	258.839	304.2713	393.1335	424.7465	481.9119	534.0146	620.7029	701.605	778.7583	863.5159	904.4512	942.4399	955.7099	1056.118	1064.4528	1081.3836	1114.0263	1132.0499	1158.3867	1186.0049	1225.3333	1237.3144	1255.1975	1266.2727	1289.6807	1315.742	1324.7517	1363.3652	1419.2318	1436.9427	1460.4112	1480.5619	1523.6251	2969.8689	3018.2482	3024.7811	3057.0499	3064.9906	3079.2002	3124.7131	3777.0878	3810.8973	3830.8463
OCC1CC(O)C1O	OC[C@H]1C[C@@H](O)[C@H]1O	
InChI=1S/C5H10O3/c6-2-3-1-4(7)5(3)8/h3-8H,1-2H2	InChI=1S/C5H10O3/c6-2-3-1-4(7)5(3)8/h3-8H,1-2H2/t3-,4-,5+/m1/s1
