21
gdb 84451	2.73071	1.55696	1.2529	1.613	83.6	-0.2403	0.0185	0.2588	1106.6289	0.182919	-387.092129	-387.083596	-387.082651	-387.124828	33.336	
C	 0.1740058221	 1.6451371197	 0.0047753016	-0.392157
C	 0.0391040796	 0.1168448964	-0.0282152316	-0.05634
C	 0.7273500955	-0.5483811513	-1.2052242863	-0.069924
C	 1.5076483591	-1.5688419356	-0.8520484559	-0.143723
C	 1.5241757797	-1.8042776724	 0.6387164689	 0.238512
C	 1.1809782371	-3.2242571433	 1.0656025479	-0.4798
C	 2.7086001499	-1.1074192815	 1.3576934524	-0.105431
O	 1.9045974636	 0.0543245857	 1.6423401087	-0.294546
C	 0.6990641734	-0.5941969728	 1.1717210078	 0.078856
H	 1.2235856133	 1.9340285332	 0.0899171364	 0.136266
H	-0.2405629384	 2.0880441373	-0.906460737	 0.1071
H	-0.364409695	 2.0691098669	 0.8584649752	 0.114095
H	-1.0333264127	-0.1306445362	-0.0449933291	 0.075026
H	 0.5774035708	-0.2057292539	-2.2245513677	 0.092238
H	 2.0843829922	-2.1839067272	-1.5361477465	 0.090021
H	 1.9302126244	-3.9356863224	 0.6991183818	 0.117841
H	 1.1436221678	-3.312642931	 2.1563780071	 0.117837
H	 0.2100057655	-3.5329619984	 0.6644074987	 0.12163
H	 3.0335238976	-1.6107312144	 2.2795055297	 0.089503
H	 3.5872535665	-0.8638922686	 0.7489887452	 0.099678
H	 0.0074857281	-0.7819231002	 2.0021090927	 0.063316
99.8139	184.8611	209.1733	212.399	242.9771	267.1444	335.3785	348.1346	482.0746	520.9927	627.931	668.0385	742.437	795.6046	847.1343	874.7697	886.452	925.3114	936.9378	973.5293	982.0256	991.6432	1021.8113	1061.4106	1100.6882	1109.6004	1146.7812	1157.7747	1182.5399	1197.1399	1250.4862	1269.2724	1308.6839	1326.519	1333.6509	1361.6597	1389.8583	1408.0022	1411.0409	1492.3927	1493.3555	1494.632	1502.9974	1523.2842	1679.3949	2982.7309	2995.436	3024.768	3031.0067	3040.0172	3055.187	3090.3279	3100.9773	3101.6892	3133.8779	3166.5811	3192.0108
CC1C=CC2(C)COC12	C[C@H]1C=C[C@@]2(C)CO[C@@H]12	
InChI=1S/C8H12O/c1-6-3-4-8(2)5-9-7(6)8/h3-4,6-7H,5H2,1-2H3	InChI=1S/C8H12O/c1-6-3-4-8(2)5-9-7(6)8/h3-4,6-7H,5H2,1-2H3/t6-,7-,8-/m0/s1
