15
gdb 45964	3.05368	1.63228	1.17311	1.218	67.92	-0.2608	-0.0261	0.2346	998.8987	0.114061	-453.946509	-453.939199	-453.938255	-453.978738	27.404	
N	 0.0146903227	 1.164903999	 0.5374688626	-0.511516
C	 0.0443228465	 0.0030378271	 0.0430506804	 0.390622
O	 1.2042626445	-0.5979347114	-0.360326881	-0.253346
C	 1.1138748004	-1.7023478787	-1.2820382648	-0.187892
C	 0.151770627	-2.7434351534	-0.7287815845	 0.365376
O	 0.4372963665	-3.8931612854	-0.5116785053	-0.311525
N	-1.1132685244	-2.1954596607	-0.4899819958	-0.096496
C	-1.5619255625	-1.8928146006	 0.8583662329	-0.236966
C	-1.2131970299	-0.7941301496	-0.1110371985	-0.11197
H	 0.9513365011	 1.5733778121	 0.5496492895	 0.230446
H	 0.7898937025	-1.3467190626	-2.2683179492	 0.135979
H	 2.115422267	-2.1233226533	-1.3539000509	 0.15474
H	-2.6070264158	-2.0951284375	 1.0699790089	 0.14365
H	-0.8711530694	-2.0969627648	 1.6713620458	 0.150526
H	-2.0335072163	-0.2434603704	-0.5612562401	 0.138372
61.7704	161.9214	209.409	266.4411	387.7116	402.4781	462.6874	540.9446	640.7755	665.8031	712.1058	763.7075	806.7432	907.3946	944.6045	949.9728	974.5402	1020.1511	1064.3655	1083.6279	1112.8406	1139.9568	1163.3247	1179.744	1251.1615	1300.3461	1351.4789	1380.1572	1411.0793	1488.7843	1510.2221	1756.8047	1832.3164	3032.294	3122.2809	3156.7911	3161.4966	3216.815	3471.7836
N=C1OCC(=O)N2CC12	[NH][C]1OCC(=O)N2C[C@@H]12	
InChI=1S/C5H6N2O2/c6-5-3-1-7(3)4(8)2-9-5/h3,6H,1-2H2	InChI=1S/C5H6N2O2/c6-5-3-1-7(3)4(8)2-9-5/h3,6H,1-2H2/t3-,7?/m0/s1
