21
gdb 118442	2.19585	1.12275	0.87727	2.6978	76.17	-0.2367	-0.0154	0.2214	1436.937	0.178619	-461.371982	-461.360915	-461.359971	-461.409358	38.441	
C	-0.2458328049	 1.5477092113	 0.114750388	-0.38584
C	-0.1176746589	 0.0609964706	-0.1659587919	-0.043416
O	-1.3577731729	-0.5566298916	 0.16401555	-0.257992
C	-1.4060768712	-1.9540456923	 0.0278124285	-0.023679
C	-2.6612853475	-2.3973484982	 0.7898827663	-0.074203
O	-3.8302800268	-1.9047919192	 0.1675319941	-0.421133
C	-1.4747610593	-2.401402128	-1.4475012529	 0.387817
C	-1.6088579835	-3.89259236	-1.6970256475	-0.487779
O	-1.431934688	-1.6004337271	-2.3496483693	-0.298068
H	 0.6963506508	 2.056946664	-0.1086112745	 0.117112
H	-1.0311059398	 1.9867831873	-0.5069567826	 0.131438
H	-0.4968135329	 1.7246487863	 1.1646364644	 0.122062
H	 0.1239081639	-0.1162931803	-1.2191755821	 0.121383
H	 0.682708511	-0.3819113698	 0.4499896785	 0.081588
H	-0.5200664283	-2.4310917396	 0.4863850988	 0.07793
H	-2.7416276114	-3.4878251554	 0.807736673	 0.111411
H	-2.5679790874	-2.0441018508	 1.8271497253	 0.103224
H	-3.6860921798	-0.9600110184	 0.033138409	 0.298554
H	-2.6607721269	-4.1745230067	-1.5721993723	 0.165856
H	-1.307979846	-4.1184600674	-2.7210021663	 0.145422
H	-1.0205476602	-4.4859255448	-0.9902342466	 0.128315
41.0612	59.5451	81.7095	119.0218	146.4964	153.1774	241.1513	253.5789	272.7717	333.6442	358.115	446.8226	481.6593	488.5707	600.1487	672.2165	791.2418	823.0349	871.6488	925.8178	963.321	979.4236	1050.5588	1067.1484	1101.4036	1142.2634	1155.2715	1183.6596	1186.4682	1241.7478	1270.7773	1298.2197	1351.015	1377.6272	1388.9928	1401.6699	1429.4838	1437.8396	1465.4475	1476.5428	1483.2721	1501.0722	1502.6763	1523.3997	1819.4439	2939.5413	2967.4139	3003.3528	3039.126	3044.6379	3069.3792	3093.8325	3105.1679	3119.7517	3122.667	3148.8946	3790.6505
CCOC(CO)C(C)=O	CCO[C@@H](CO)C(=O)C	
InChI=1S/C6H12O3/c1-3-9-6(4-7)5(2)8/h6-7H,3-4H2,1-2H3	InChI=1S/C6H12O3/c1-3-9-6(4-7)5(2)8/h6-7H,3-4H2,1-2H3/t6-/m0/s1
