17
gdb 93188	2.9229	1.45279	1.01262	4.757	72.46	-0.2591	-0.0413	0.2178	1151.7186	0.136913	-455.165194	-455.15697	-455.156026	-455.198352	30.684	
C	-0.2643065078	 1.4324781604	 0.0480044677	-0.40703
C	-0.0096791805	-0.0576917651	-0.1009596849	 0.100482
C	 1.0183284648	-0.3891151346	-1.1621849466	-0.093633
O	 1.2030698547	-1.8063627244	-1.24789032	-0.250713
C	 1.251504414	-2.5071247775	-0.0865650758	 0.306983
N	 1.5173452192	-3.7443187276	-0.0570374185	-0.512722
C	 0.9766347031	-1.7896584632	 1.2201700767	 0.325557
N	 1.2181241063	-2.2891390473	 2.3539948034	-0.477369
O	 0.4698375387	-0.5319777939	 1.1633664494	-0.244533
H	 0.6668185637	 1.9641809579	 0.2645113883	 0.135991
H	-0.7009282974	 1.840030509	-0.8682245241	 0.125876
H	-0.9579799204	 1.6086782713	 0.8730964856	 0.147331
H	-0.9469475161	-0.5800282151	-0.3428566622	 0.102085
H	 0.6901209303	-0.0699838191	-2.1538983518	 0.13101
H	 1.9742123484	 0.0977039791	-0.92864152	 0.125879
H	 1.6986869741	-4.0960105019	-0.9982750235	 0.232325
H	 1.6041810048	-3.224125348	 2.2156559062	 0.252481
74.227	92.014	215.2185	219.0277	274.2469	371.1011	416.7074	448.0127	458.616	509.8868	563.6029	656.3028	748.898	777.4306	882.5592	894.4117	926.7235	939.6928	964.1119	1012.6328	1086.236	1143.6235	1152.8429	1160.4556	1184.5	1272.5269	1287.8334	1355.1615	1376.7817	1396.5126	1415.0204	1436.4309	1484.6787	1498.9626	1502.4381	1724.9648	1741.2816	3002.8858	3030.0058	3050.1764	3112.2898	3125.2936	3135.2623	3484.1619	3492.1954
CC1COC(=N)C(=N)O1	C[C@H]1COC(=C([NH])O1)[NH]	
InChI=1S/C5H8N2O2/c1-3-2-8-4(6)5(7)9-3/h3,6-7H,2H2,1H3	InChI=1S/C5H8N2O2/c1-3-2-8-4(6)5(7)9-3/h3,6-7H,2H2,1H3/t3-/m0/s1
