19
gdb 13766	3.25648	1.49211	1.26586	0.8618	78.49	-0.2238	0.0338	0.2576	1050.8899	0.163104	-327.8622	-327.853253	-327.852308	-327.895484	33.695	
C	 0.3882776973	 1.5743754004	-0.0357996055	-0.405201
C	 0.1005064245	 0.0758452642	 0.1226130403	 0.085828
C	 0.6048558399	-0.4377191021	 1.475689129	-0.37181
N	-1.3170545562	-0.3371186254	 0.0036216597	-0.098692
C	-2.3922466226	 0.6168837104	-0.1832046858	-0.249867
C	-2.010873785	-0.3188750172	-1.2926487927	-0.171084
C	-1.3857116519	 0.1763656177	-2.4893611755	 0.340524
C	-0.8599449687	 0.5284440619	-3.5133178694	-0.472288
H	 1.4668820119	 1.7462560632	 0.0357605958	 0.114077
H	 0.0556361395	 1.9583976155	-1.0029343694	 0.129951
H	-0.0915208871	 2.1562372308	 0.7591033743	 0.114419
H	 0.6341009095	-0.4593522951	-0.6722772542	 0.092099
H	 0.0804690205	 0.0626864897	 2.297240353	 0.113554
H	 0.4269796306	-1.5118252672	 1.5684565564	 0.11977
H	 1.6769022491	-0.2466510229	 1.5909301154	 0.105329
H	-3.2999279703	 0.4288874685	 0.3858335832	 0.117404
H	-2.1568215388	 1.6668480772	-0.3339902827	 0.122777
H	-2.6314003903	-1.1982769975	-1.4572669352	 0.113427
H	-0.4018011318	 0.8532690279	-4.4146015066	 0.199782
55.0482	121.809	193.1445	233.8211	263.0061	285.4074	314.5169	350.4915	407.1427	481.4574	540.9746	595.409	627.9254	659.9596	691.8401	796.3786	868.8535	911.2655	927.5353	944.3701	1002.6053	1035.1331	1105.101	1119.5255	1136.2658	1154.7391	1165.7625	1196.7352	1319.669	1347.391	1370.0819	1379.0102	1394.727	1414.9978	1485.4281	1486.9306	1500.7333	1503.1725	1518.7799	2227.8268	3031.9242	3032.217	3038.3706	3096.8458	3101.9161	3105.436	3113.982	3122.2054	3125.2963	3189.6839	3501.7363
CC(C)N1CC1C#C	CC(C)N1C[C@H]1C#C	
InChI=1S/C7H11N/c1-4-7-5-8(7)6(2)3/h1,6-7H,5H2,2-3H3	InChI=1S/C7H11N/c1-4-7-5-8(7)6(2)3/h1,6-7H,5H2,2-3H3/t7-,8?/m1/s1
