16
gdb 19511	3.81697	1.60158	1.55453	3.7377	65.24	-0.2401	-0.0198	0.2203	878.6883	0.131631	-383.737173	-383.730284	-383.72934	-383.768451	25.775	
O	 0.0754296906	-0.0877253165	-0.3570903704	-0.273318
C	 0.0279509231	 1.0455474007	 0.062436933	 0.135751
C	 1.2176030637	 1.9379656287	 0.0872287755	-0.11818
C	 1.1581882239	 3.4428780687	-0.173318229	-0.08296
C	-0.1819037586	 4.1444969877	-0.0350859503	-0.099807
O	-0.725193066	 3.7090405993	 1.20860569	-0.250543
C	 0.3470343311	 3.3803022011	 2.0882641815	-0.099808
C	 1.499778268	 2.9493865404	 1.1979104125	-0.082961
H	-0.9134899976	 1.4777837033	 0.4525357328	 0.102003
H	 2.1001603944	 1.4458893048	-0.3097077458	 0.109195
H	 1.9001186113	 3.8645133946	-0.8407137975	 0.106244
H	-0.0230350585	 5.2346863214	-0.0401524556	 0.103225
H	-0.9115002635	 3.9010592955	-0.8136700614	 0.120843
H	 0.6555193613	 4.254322738	 2.6838335226	 0.103224
H	-0.0176584199	 2.6096723886	 2.7744831907	 0.120845
H	 2.5069285167	 2.9878500639	 1.5951764813	 0.106247
99.311	186.7936	215.3356	236.8399	393.3369	406.3132	509.7753	671.1972	732.9748	763.9889	844.5366	918.6494	926.5718	963.0878	971.8669	996.7743	1062.4402	1071.696	1087.0471	1109.3018	1120.0988	1124.1897	1208.4136	1222.1401	1250.8173	1320.9141	1332.6144	1350.5758	1358.3592	1426.2353	1445.9381	1513.3283	1524.9951	1802.6267	2953.1494	2978.3491	2983.5968	3075.1486	3078.1147	3164.6093	3183.5314	3193.8894
O=CC1C2COCC12	O=C[C@H]1[C@H]2COC[C@@H]12	
InChI=1S/C6H8O2/c7-1-4-5-2-8-3-6(4)5/h1,4-6H,2-3H2	InChI=1S/C6H8O2/c7-1-4-5-2-8-3-6(4)5/h1,4-6H,2-3H2/t4-,5+,6-
