22
gdb 114219	4.55447	0.89883	0.82243	1.7542	89.61	-0.2238	0.02	0.2438	1487.3259	0.195221	-367.204118	-367.195205	-367.19426	-367.238008	34.458	
C	 0.1617029573	 1.5344306467	 0.0185697618	-0.388005
C	 0.0188067909	 0.0096895873	 0.0101840543	-0.177546
C	-1.4373995234	-0.483994483	 0.0468383702	-0.018695
C	-1.569427617	-2.0263653581	-0.0976863562	-0.342179
C	-2.6955594012	-2.4309654028	 0.8592854475	 0.331497
C	-3.8351029936	-3.2975557767	 0.442765022	-0.290385
N	-2.8251650696	-3.7986460439	 1.3922981866	-0.364442
C	-2.8516934739	-1.2738404745	 1.7807268862	-0.122337
C	-2.1763675525	-0.2114671051	 1.3442265899	-0.084585
H	 1.213540012	 1.8316927119	-0.0358498374	 0.113325
H	-0.3554667968	 1.9846567549	-0.8362700057	 0.114045
H	-0.257251701	 1.9764238733	 0.9283751518	 0.118633
H	 0.4988034406	-0.3915344214	-0.8920412907	 0.09398
H	 0.5596685548	-0.4202940569	 0.8633155162	 0.096721
H	-1.9740200412	 0.0111013689	-0.7778452874	 0.076654
H	-1.7456883041	-2.3434688006	-1.1293709805	 0.098136
H	-0.6342750029	-2.4956030533	 0.2355080246	 0.103166
H	-4.8247295637	-3.146001832	 0.8666297816	 0.114378
H	-3.8342397436	-3.6768876277	-0.5766056785	 0.10749
H	-2.1742183634	-4.4143241194	 0.9091435923	 0.226715
H	-3.4698964235	-1.3278946964	 2.669179926	 0.099759
H	-2.1661011544	 0.7596514888	 1.8263125854	 0.093675
50.0151	106.1347	176.6441	217.0307	249.7993	300.7748	320.0046	396.5795	403.1273	521.1682	578.2109	677.2334	763.0902	787.2372	816.053	849.2505	854.8995	903.0902	947.0644	955.8626	963.3128	971.2403	982.521	1003.4821	1051.2116	1077.7447	1111.1033	1124.139	1134.6576	1147.4778	1203.4639	1263.4802	1269.7622	1281.1981	1301.8542	1314.663	1337.7067	1358.685	1376.0869	1414.1085	1422.5515	1483.2401	1487.85	1501.3091	1507.1522	1508.9242	1677.3188	2974.0357	3013.0944	3021.197	3032.5671	3049.2823	3084.9809	3096.5357	3098.7167	3104.1612	3181.703	3187.785	3213.507	3485.1456
CCC1CC2(CN2)C=C1	CC[C@H]1C[C@]2(CN2)C=C1	
InChI=1S/C8H13N/c1-2-7-3-4-8(5-7)6-9-8/h3-4,7,9H,2,5-6H2,1H3	InChI=1S/C8H13N/c1-2-7-3-4-8(5-7)6-9-8/h3-4,7,9H,2,5-6H2,1H3/t7-,8+/m1/s1
