18
gdb 31846	4.84489	1.01378	0.84728	1.3418	84.31	-0.2216	-0.0156	0.206	1364.8735	0.148201	-402.0073	-401.998622	-401.997678	-402.042877	31.439	
C	 0.0785178645	 1.4017675494	 0.0330509939	-0.246573
O	 0.0094880802	-0.012058758	-0.0200437243	-0.265691
C	-1.2198024551	-0.5907487856	-0.0029882643	 0.341159
C	-2.435752969	 0.0908615187	 0.0621207087	-0.129382
N	-3.6224184436	-0.5280410153	 0.0758176705	-0.310703
C	-3.662433173	-1.8604405511	 0.0255796119	 0.31097
C	-5.0203524072	-2.5160859951	 0.0496414341	-0.479915
C	-2.4860882891	-2.6220027064	-0.0426040053	-0.147136
C	-1.2587401917	-1.9876190273	-0.0567866178	-0.161017
H	 1.1396498454	 1.6545039842	 0.0092197099	 0.136655
H	-0.4225032306	 1.8635333573	-0.8273039035	 0.128319
H	-0.3658351118	 1.7937535756	 0.9568235985	 0.128313
H	-2.468858043	 1.1747393268	 0.1044395113	 0.100565
H	-5.1590702345	-3.1831595469	-0.8085140429	 0.125017
H	-5.1548548135	-3.1226351588	 0.9530223339	 0.127319
H	-5.7970005784	-1.7502322822	 0.0288669086	 0.138152
H	-2.5414720471	-3.7052103363	-0.0842356203	 0.094379
H	-0.3263982828	-2.5390371289	-0.109266303	 0.10957
7.3917	85.4487	145.1043	225.7467	248.8163	343.1666	355.5728	435.98	443.9163	526.5127	537.9019	646.1982	738.7929	755.1656	851.3538	861.6508	919.2477	981.3791	995.0835	1032.7456	1060.458	1072.8701	1144.5836	1178.0236	1211.1831	1256.8953	1286.0132	1315.621	1331.7458	1404.6405	1414.3287	1479.1544	1483.5146	1487.0059	1490.6993	1506.0171	1536.5872	1604.7901	1642.8112	3006.2493	3030.3765	3066.7331	3081.5337	3135.0422	3141.6574	3173.4513	3175.8769	3197.7132
COC1=CN=C(C)C=C1	COc1cnc(C)cc1	
InChI=1S/C7H9NO/c1-6-3-4-7(9-2)5-8-6/h3-5H,1-2H3	InChI=1S/C7H9NO/c1-6-3-4-7(9-2)5-8-6/h3-5H,1-2H3
