20
gdb 121448	1.90708	1.1053	0.74659	2.926	75.21	-0.2435	0.0014	0.2449	1530.0612	0.169	-477.405882	-477.395171	-477.394226	-477.443136	37.162	
C	 0.1662629284	 1.5506608728	-0.0274648552	-0.23334
O	 0.2774738557	 0.1368031009	 0.1275805837	-0.242213
C	 0.6559060932	-0.5650563555	-0.9655059738	 0.375295
C	 0.7411854853	-2.0492775255	-0.6263416913	-0.16807
O	-0.1507125495	-2.8453987158	-1.3915880514	-0.399151
N	 0.8757373251	 0.0069310641	-2.072122768	-0.325352
C	 1.2917420075	-0.7491171494	-3.2491583299	-0.176755
C	 0.7465541159	-0.0277393205	-4.4845887546	-0.043122
O	 1.1439759834	 1.3269439917	-4.5025105261	-0.423649
H	 1.1248731252	 1.9860366067	-0.3241809138	 0.13508
H	-0.5779502599	 1.8013027095	-0.7891613681	 0.132463
H	-0.1410135522	 1.9322219132	 0.9470642599	 0.129951
H	 1.7449974354	-2.415375575	-0.8621294168	 0.135042
H	 0.5783179092	-2.1701973289	 0.4511849644	 0.119468
H	-1.0485501363	-2.55905612	-1.1942075856	 0.292943
H	 2.3893009958	-0.7344099883	-3.30060613	 0.108702
H	 0.9552767918	-1.7914474395	-3.2375699466	 0.12196
H	 1.1340368847	-0.4972948261	-5.3952269792	 0.09983
H	-0.3523624156	-0.1246376029	-4.50044147	 0.077861
H	 1.0045150068	 1.6335407984	-3.5963888176	 0.283056
28.571	60.3623	103.3497	136.6035	162.4033	192.7524	224.3382	266.0076	304.8524	350.5537	365.8308	447.1677	489.2158	533.823	584.9616	707.5527	810.4658	910.1845	918.4497	976.6485	1031.9219	1080.5264	1091.463	1101.4488	1115.9653	1179.0405	1192.6141	1215.4139	1225.6186	1267.727	1291.4154	1371.748	1383.8414	1397.3918	1418.7336	1444.2196	1473.0844	1476.788	1478.1624	1495.1741	1500.5883	1510.1212	1752.5511	2960.0751	3008.7457	3034.3529	3041.3461	3069.4736	3075.8218	3093.0267	3111.2038	3148.8	3753.1959	3816.6332
COC(CO)=NCCO	COC(=NCCO)CO	
InChI=1S/C5H11NO3/c1-9-5(4-8)6-2-3-7/h7-8H,2-4H2,1H3	InChI=1S/C5H11NO3/c1-9-5(4-8)6-2-3-7/h7-8H,2-4H2,1H3
