17
gdb 91161	2.80095	1.64004	1.5263	2.6406	72.68	-0.2309	-0.0149	0.2159	951.4837	0.136744	-421.838039	-421.830741	-421.829797	-421.869517	28.993	
C	-0.1697743708	 1.5454998381	-0.0607456434	-0.406652
C	 0.0206081653	 0.0409580555	 0.036413188	 0.147164
O	 0.801631812	-0.4335194326	-1.086303935	-0.301882
C	 1.9166887105	-1.2020407792	-0.5628432304	-0.040754
C	 2.8486151976	-0.2969996249	 0.1968208444	-0.08344
C	 2.1823478768	 0.1187037416	 1.2918810088	-0.088074
C	 0.8027621354	-0.4912163779	 1.2773429201	-0.214377
C	 1.225387973	-1.8593879441	 0.6564173831	 0.431045
O	 1.0627259521	-2.9857592966	 1.0063456802	-0.318112
H	 0.7876706404	 2.0678245148	 0.0078005647	 0.124147
H	-0.627641661	 1.7973951489	-1.0217312091	 0.130971
H	-0.8293270949	 1.9020733723	 0.7376802783	 0.112825
H	-0.95860965	-0.4583361814	 0.0082377339	 0.088031
H	 2.3108416745	-1.8389943347	-1.3496520902	 0.097877
H	 3.8572317641	-0.04110533	-0.0988510143	 0.115117
H	 2.5490278806	 0.778716522	 2.0674461156	 0.115019
H	 0.2410252847	-0.5169960018	 2.2080004755	 0.091094
136.0617	171.5673	232.5592	265.5585	390.753	412.2332	467.8559	531.4448	623.5221	659.9196	723.8435	768.6181	809.0657	818.7257	859.539	881.7995	934.3946	952.8453	961.0155	988.9452	1035.0374	1076.9399	1104.4821	1123.3687	1139.0624	1177.4284	1205.3351	1257.3698	1292.586	1333.5577	1362.6732	1389.5572	1409.1749	1484.4418	1497.3923	1603.9792	1905.5073	2996.0423	3040.4318	3111.3454	3127.3814	3153.3523	3169.1575	3207.1723	3230.785
CC1OC2C=CC1C2=O	C[C@H]1O[C@H]2C=C[C@@H]1C2=O	
InChI=1S/C7H8O2/c1-4-5-2-3-6(9-4)7(5)8/h2-6H,1H3	InChI=1S/C7H8O2/c1-4-5-2-3-6(9-4)7(5)8/h2-6H,1H3/t4-,5+,6+/m1/s1
