20
gdb 103670	3.67926	0.95313	0.92609	4.4842	79.69	-0.274	0.0051	0.2791	1362.9413	0.169404	-403.156925	-403.147295	-403.146351	-403.191859	35.31	
C	-0.0208694923	 1.6411776941	 0.0577844876	-0.393105
C	-0.275481731	 0.1352806691	 0.1769293409	-0.218993
C	 0.6948037164	-0.5914573586	 1.1086288208	 0.436633
C	 0.6372689831	-0.1225663448	 2.5546742481	-0.439133
C	 0.7384074688	-2.1321258974	 0.920398092	-0.360914
C	 2.1769176371	-1.8949206067	 0.3999013657	 0.001247
O	 2.0704895126	-0.4779739521	 0.5930468731	-0.319246
C	 3.2563200253	-2.4960258805	 1.1921704813	 0.273853
N	 4.0967371718	-2.9822221964	 1.8191319726	-0.320385
H	 1.0199255188	 1.8303970633	-0.2199901964	 0.140145
H	-0.662969726	 2.0784988855	-0.7120826056	 0.116586
H	-0.225111284	 2.1681748501	 0.9942463416	 0.120344
H	-1.2984283479	-0.0556005708	 0.5274562937	 0.100465
H	-0.1959968223	-0.3225260339	-0.8163547352	 0.097272
H	-0.3687421136	-0.264844545	 2.9643998129	 0.119478
H	 1.3453193243	-0.6851150258	 3.1690588683	 0.132444
H	 0.8938528192	 0.937199234	 2.6306022534	 0.135444
H	 0.6699688565	-2.7192252373	 1.8359212485	 0.132052
H	 0.0517971388	-2.5309365795	 0.1729962981	 0.120882
H	 2.3378700245	-2.1522363174	-0.6538710316	 0.124932
39.0113	92.3184	139.2219	207.7002	221.8105	240.9587	272.1299	339.2404	351.342	412.1515	464.286	531.7474	565.8583	678.5545	766.7698	785.5111	879.2107	884.8421	910.0733	965.0401	1000.5406	1010.2954	1026.2191	1065.0828	1069.9718	1117.2903	1169.1742	1216.1848	1256.8666	1269.2142	1278.2567	1328.4714	1363.6816	1378.1323	1410.5149	1412.7726	1472.536	1486.5972	1489.1397	1495.2372	1507.1554	1513.3125	2354.6379	3021.2986	3034.3929	3040.6369	3046.7461	3058.6649	3090.8458	3112.3819	3114.0384	3122.2809	3127.2442	3152.1586
CCC1(C)CC(O1)C#N	CC[C@@]1(C)C[C@@H](O1)C#N	
InChI=1S/C7H11NO/c1-3-7(2)4-6(5-8)9-7/h6H,3-4H2,1-2H3	InChI=1S/C7H11NO/c1-3-7(2)4-6(5-8)9-7/h6H,3-4H2,1-2H3/t6-,7+/m1/s1
