13
gdb 27753	3.96461	1.23615	0.94233	4.7297	66.	-0.2162	-0.0416	0.1746	1123.9766	0.090527	-489.951933	-489.944507	-489.943563	-489.983776	27.72	
O	 0.0449620436	 1.3196014103	 0.1301169914	-0.407782
C	 0.0626272618	-0.007330395	 0.0267727935	 0.466918
N	 0.1229624946	-0.6843289897	-1.1090380115	-0.407166
C	 0.1166490467	-1.9814068991	-0.7131717169	 0.368173
O	 0.1666255755	-2.9910164945	-1.561514922	-0.392508
C	 0.0518372113	-2.1072727656	 0.6794053474	 0.075625
N	 0.0176622831	-0.7719567416	 1.1311875126	-0.408336
C	 0.0309238749	-3.3385119611	 1.3715896888	 0.064893
O	 0.0699507874	-4.416486824	 0.7622012925	-0.368685
H	 0.0843175506	 1.6694723281	-0.7702634114	 0.32633
H	 0.147482441	-3.7985735031	-0.9926391342	 0.320694
H	-0.0306214837	-0.4382249784	 2.0786230549	 0.282314
H	-0.0216821669	-3.3225609263	 2.477845415	 0.07953
134.0397	196.7453	237.0144	275.5516	336.1679	343.6054	444.2973	462.4085	471.9937	555.9702	645.101	723.5415	762.7502	784.1051	814.8943	872.3325	1010.8471	1060.7246	1183.0639	1199.669	1256.2435	1316.1704	1382.2835	1486.9499	1502.3414	1535.1163	1624.9174	1636.2333	1700.7528	2932.6548	3379.5795	3676.6034	3792.2745
OC1=NC(O)=C(N1)C=O	Oc1nc(O)c([nH]1)C=O	
InChI=1S/C4H4N2O3/c7-1-2-3(8)6-4(9)5-2/h1,8H,(H2,5,6,9)	InChI=1S/C4H4N2O3/c7-1-2-3(8)6-4(9)5-2/h1,8H,(H2,5,6,9)
