18
gdb 35263	3.10325	1.03964	0.87946	3.7555	77.09	-0.2922	-0.0014	0.2908	1338.4055	0.147702	-401.925638	-401.917199	-401.916255	-401.959619	30.903	
N	-0.1924321778	-1.1685553252	 0.5217341737	-0.332034
C	-0.1085928746	-0.0301064919	 0.3399580004	 0.307772
C	-0.026908515	 1.3925331205	 0.0842248968	-0.110335
O	 0.5962549182	 2.1917525416	 1.0887128419	-0.234884
C	 1.2769254329	 2.0540752008	-0.1616907891	 0.049662
C	 2.5857359359	 1.3255154903	-0.1751714293	 0.012848
C	 3.202731475	 0.9622918916	-1.5583326478	-0.239398
C	 4.5967372684	 1.3455987074	-0.9922546406	-0.21042
C	 3.8803741643	 2.1329771264	 0.1380031748	-0.234373
H	-0.928887978	 1.8164359552	-0.3538222039	 0.138442
H	 1.2339161457	 2.9529598266	-0.7812349332	 0.104766
H	 2.5174267774	 0.442059945	 0.4649077206	 0.101813
H	 3.0513155075	-0.0561217991	-1.9213599455	 0.114773
H	 2.8779021142	 1.6613038183	-2.336440977	 0.101594
H	 5.1287590383	 0.4729228618	-0.6039488457	 0.11213
H	 5.2722990886	 1.90074927	-1.646108756	 0.102715
H	 3.7620094543	 3.1909625026	-0.118458086	 0.103138
H	 4.2794647749	 2.0644159181	 1.1517368958	 0.111791
57.3045	92.4549	134.1136	166.8378	247.1278	319.4059	364.8746	442.2391	574.5972	595.4269	657.7828	765.5908	783.8936	831.3983	874.6249	907.2232	934.3468	951.8655	972.8838	981.0856	1045.0349	1064.831	1096.4772	1147.7887	1192.4129	1207.9109	1240.5112	1255.3953	1259.6279	1272.2407	1283.1626	1285.3952	1330.3834	1383.9006	1463.1404	1479.0925	1487.591	1510.3902	2359.5209	3049.0834	3052.8804	3065.0078	3076.1943	3089.9391	3108.3186	3113.8765	3126.4829	3131.9098
N#CC1OC1C1CCC1	N#C[C@H]1O[C@H]1C1CCC1	
InChI=1S/C7H9NO/c8-4-6-7(9-6)5-2-1-3-5/h5-7H,1-3H2	InChI=1S/C7H9NO/c8-4-6-7(9-6)5-2-1-3-5/h5-7H,1-3H2/t6-,7+/m1/s1
