17
gdb 31868	4.71335	0.98678	0.83444	2.0795	81.25	-0.2051	-0.0088	0.1964	1342.4539	0.138027	-418.065891	-418.057523	-418.056579	-418.099441	31.485	
N	-0.145254469	 1.3647729205	 0.1868246379	-0.565342
C	 0.0102715408	-0.0041791939	 0.0547267204	 0.373117
N	-1.0994446865	-0.700864611	-0.2184380625	-0.335494
C	-1.0029319625	-2.029482842	-0.2916547619	-0.051537
C	 0.1789115703	-2.7472858758	-0.1155297657	 0.243736
C	 0.2014033918	-4.2521417225	-0.1815703809	-0.187803
O	-0.6818870056	-4.6890615938	-1.2069968345	-0.41174
C	 1.3296110604	-2.0005587471	 0.1484654844	-0.155944
C	 1.2580204846	-0.6224120911	 0.2433765728	-0.179441
H	 0.6629552944	 1.9331587459	-0.0124246287	 0.247467
H	-1.0023110626	 1.7098208501	-0.2198980733	 0.253188
H	-1.9202162099	-2.5624820466	-0.5251307513	 0.114629
H	 1.2326582248	-4.5933722186	-0.3678264729	 0.089509
H	-0.1017719708	-4.6768217884	 0.7902399012	 0.098717
H	-0.807684996	-5.6371528538	-1.105798146	 0.288117
H	 2.2852900209	-2.5016853519	 0.2779995262	 0.093903
H	 2.1407032948	-0.0277204099	 0.4537008148	 0.084919
36.4846	120.2737	204.8739	254.0259	316.9146	366.6607	387.7257	422.7691	444.1009	500.167	568.9906	584.8537	657.4209	766.8593	787.8002	844.016	874.4587	961.6777	981.4561	1030.167	1033.7217	1066.5324	1085.8356	1165.9651	1208.5458	1254.6308	1259.3373	1321.2487	1342.4013	1348.4233	1435.2202	1461.9994	1516.5534	1531.7155	1611.7263	1631.2312	1659.448	2953.0633	2978.4006	3160.5094	3173.3413	3184.2074	3574.6335	3688.5124	3827.8144
NC1=NC=C(CO)C=C1	Nc1ncc(CO)cc1	
InChI=1S/C6H8N2O/c7-6-2-1-5(4-9)3-8-6/h1-3,9H,4H2,(H2,7,8)	InChI=1S/C6H8N2O/c7-6-2-1-5(4-9)3-8-6/h1-3,9H,4H2,(H2,7,8)
