20
gdb 116218	2.19649	1.59012	1.0312	2.4638	75.07	-0.2383	0.0647	0.303	1195.4246	0.171288	-440.241475	-440.232533	-440.231589	-440.276176	32.653	
C	 0.0945840106	 1.5255086948	-0.160496769	-0.240362
O	-0.2654807901	 0.1648788925	-0.2805925751	-0.245141
C	 0.6048565417	-0.5893007487	-1.0888016431	 0.033545
C	 1.9487462238	-0.9887586514	-0.4513279306	-0.113812
O	 2.3674848465	-2.1139879076	-1.203608648	-0.253292
C	 1.2118804324	-2.9123663603	-1.4662208076	-0.136559
C	 0.0155319435	-1.9617406548	-1.4122548415	 0.27728
C	-1.3268466493	-2.3585592892	-0.9329508721	-0.281349
N	-1.0778973339	-2.1302677405	-2.3725697484	-0.370571
H	 1.0482941601	 1.658261912	 0.3699932492	 0.114656
H	 0.1763152713	 2.010549173	-1.1452854247	 0.10991
H	-0.6949339591	 2.0172569596	 0.4124096482	 0.132174
H	 0.8048477717	-0.0476172828	-2.0295706902	 0.075025
H	 2.7305022103	-0.2290343203	-0.5256858868	 0.107426
H	 1.7848007207	-1.2327248312	 0.612144643	 0.095207
H	 1.3259572756	-3.3717316628	-2.4516459483	 0.123449
H	 1.1204812355	-3.710153861	-0.7139740588	 0.096523
H	-1.512939765	-3.3954646532	-0.664062303	 0.113951
H	-1.9006986633	-1.6222103181	-0.3809816336	 0.131042
H	-1.4460128329	-1.2166188901	-2.6329317097	 0.230898
32.3164	78.2579	173.2477	183.6361	230.8249	267.1525	311.3218	367.8847	450.7124	502.173	524.4217	627.6393	775.5396	843.8924	899.4328	935.8006	954.0094	981.0654	1008.5655	1045.1673	1071.7914	1075.8767	1099.177	1117.3041	1135.5553	1162.7938	1181.1141	1210.0463	1230.4028	1250.324	1271.0627	1305.5268	1324.5973	1331.9504	1353.9012	1404.5522	1421.7551	1479.942	1490.7969	1505.031	1508.1306	1511.281	1521.1827	2949.4099	2968.6101	2982.4223	2990.2031	3033.5897	3090.2993	3097.9436	3112.7277	3118.7492	3211.2974	3474.3651
COC1COCC11CN1	CO[C@H]1COC[C@]21CN2	
InChI=1S/C6H11NO2/c1-8-5-2-9-4-6(5)3-7-6/h5,7H,2-4H2,1H3	InChI=1S/C6H11NO2/c1-8-5-2-9-4-6(5)3-7-6/h5,7H,2-4H2,1H3/t5-,6-/m0/s1
