18
gdb 133574	2.71755	1.1406	1.0884	2.2714	65.03	-0.2858	0.0788	0.3646	1193.3505	0.142676	-533.461126	-533.451949	-533.451005	-533.495207	34.263	
C	-0.0792943009	 1.5456948364	-0.1348258329	-0.464069
C	-0.0043576373	 0.0326740597	-0.0312743488	 0.331365
C	-1.2547800641	-0.674444581	-0.524657413	-0.447895
C	 1.3191269167	-0.6591716984	-0.25239898	-0.332733
C	 0.7099102638	-0.6314789538	 1.1301123342	-0.211368
C	 1.361035109	 0.1314956022	 2.2452297517	 0.286627
F	 2.2176642108	 1.0778337512	 1.8164488647	-0.085048
F	 0.4531907081	 0.7482815901	 3.0237233417	-0.083989
F	 2.0601494111	-0.6952970581	 3.0424578301	-0.078214
H	 0.8370352779	 2.0315526968	 0.2010629858	 0.133119
H	-0.258887268	 1.8397205003	-1.1749134218	 0.114723
H	-0.9070202515	 1.9357115175	 0.467863032	 0.123598
H	-1.4430938066	-0.4343125331	-1.5772126703	 0.120521
H	-1.1648848243	-1.7619957647	-0.4410926298	 0.114489
H	-2.1347303304	-0.3642587557	 0.0500602272	 0.123076
H	 1.3375135988	-1.6094569018	-0.7747449712	 0.116316
H	 2.1934831885	-0.0386023023	-0.4118257027	 0.129376
H	 0.2699965083	-1.5496227856	 1.5054824432	 0.110106
54.744	138.7979	165.5548	215.9209	246.5177	294.7347	309.2047	363.5827	373.8159	416.6014	472.9285	536.7221	579.9337	661.6945	722.8114	789.8652	875.3935	921.2798	953.1997	976.5838	994.0849	1048.8137	1080.6379	1097.0718	1119.3348	1153.8687	1167.7232	1179.7803	1285.5121	1290.248	1339.7337	1412.7341	1428.7983	1438.5692	1485.1101	1492.7406	1492.9988	1508.2485	1516.8451	3025.8451	3036.1379	3088.5985	3091.8413	3101.4578	3138.3065	3148.3812	3167.1283	3227.2718
CC1(C)CC1C(F)(F)F	CC1(C)C[C@H]1C(F)(F)F	
InChI=1S/C6H9F3/c1-5(2)3-4(5)6(7,8)9/h4H,3H2,1-2H3	InChI=1S/C6H9F3/c1-5(2)3-4(5)6(7,8)9/h4H,3H2,1-2H3/t4-/m1/s1
