18
gdb 74750	3.46062	1.56914	1.42271	3.2852	75.16	-0.23	0.0114	0.2414	975.8242	0.149664	-401.908808	-401.901877	-401.900933	-401.939842	28.558	
C	-0.0058435757	 1.4800095972	 0.0528600326	-0.509859
C	-0.0397969524	-0.0083756715	-0.0221815113	 0.357956
C	-0.0562382323	-0.832747919	-1.075676068	-0.206628
C	 0.0063020245	-2.2501586848	-0.4936045892	 0.002395
O	-0.7095903357	-2.0809464706	 0.7336928473	-0.225233
C	 0.0261904885	-0.9504829341	 1.1984634752	-0.055603
C	 1.4795791655	-1.5039293588	 1.1901153415	-0.050708
N	 1.5495963851	-2.9697482685	 1.3897395502	-0.330802
C	 1.4651241553	-2.4047106306	 0.0242974499	-0.046352
H	 0.9028387287	 1.834873377	 0.556504272	 0.127684
H	-0.0363599873	 1.9336825267	-0.9414806915	 0.128816
H	-0.8529447529	 1.86888056	 0.6319250862	 0.132837
H	-0.0355557071	-0.5771472988	-2.126671482	 0.098688
H	-0.4125118965	-3.0692045822	-1.076260528	 0.084437
H	-0.3718679123	-0.5885284937	 2.1462449941	 0.081593
H	 2.3197575449	-0.8647261715	 1.4368141309	 0.092417
H	 2.520779703	-3.2202074048	 1.572558557	 0.226548
H	 2.2929487368	-2.4880108721	-0.6705488769	 0.091814
156.331	173.6913	257.3567	364.351	379.8272	494.0142	523.8396	589.379	678.7283	748.75	785.7456	802.0539	817.786	868.9541	878.276	891.7727	910.934	926.2328	940.7907	999.06	1004.1193	1050.5292	1064.9381	1071.8904	1128.5074	1137.0333	1183.071	1200.3644	1223.5475	1255.1186	1271.1202	1302.0747	1325.0097	1334.4354	1395.3023	1413.7352	1478.8068	1486.4349	1685.7902	3015.7098	3060.8793	3109.6179	3124.2514	3133.9386	3172.1792	3183.567	3221.839	3473.0276
CC1=CC2OC1C1NC21	CC1=C[C@@H]2O[C@H]1[C@H]1N[C@@H]21	
InChI=1S/C7H9NO/c1-3-2-4-5-6(8-5)7(3)9-4/h2,4-8H,1H3	InChI=1S/C7H9NO/c1-3-2-4-5-6(8-5)7(3)9-4/h2,4-8H,1H3/t4-,5-,6-,7+/m0/s1
