17
gdb 83679	2.51696	1.6512	1.3455	3.1138	71.71	-0.232	0.0007	0.2327	997.0876	0.136825	-417.96476	-417.956694	-417.95575	-417.998115	30.05	
O	 0.2683047056	 1.2301397524	 0.4208273631	-0.407058
C	 0.0727548405	-0.1191521396	 0.1086896289	 0.086968
C	-1.4214167886	-0.481075258	-0.0626016922	 0.011712
C	-2.3814209297	 0.6657302176	-0.4327230335	-0.244393
C	-2.0728309986	 0.3360055436	-1.9178752744	-0.183624
N	-1.2202516864	-0.8435619868	-1.5276905758	-0.144902
C	 0.2475530473	-0.5456874615	-1.4013290723	-0.17047
C	 0.828070093	 0.4596132678	-2.2762246145	 0.290916
N	 1.3076073231	 1.273722687	-2.9434890452	-0.333592
H	 1.2007824183	 1.448481054	 0.3133792251	 0.299774
H	 0.6230198773	-0.7800531342	 0.7906989337	 0.08514
H	-1.793327196	-1.2683253842	 0.5969177571	 0.084229
H	-3.4148706189	 0.4818465195	-0.1348095007	 0.109908
H	-2.0746004545	 1.6521727175	-0.086382523	 0.136333
H	-2.9291218137	 0.0121361181	-2.5146967872	 0.115726
H	-1.5373151466	 1.1109503972	-2.4728088445	 0.13559
H	 0.8213034477	-1.4722212003	-1.5115043545	 0.127741
35.3905	122.8882	172.8046	256.7521	267.221	352.2592	380.2142	497.542	547.606	594.2935	711.8616	748.1325	775.0358	805.9477	853.3605	897.7969	924.08	985.4857	1023.6491	1038.8206	1051.3214	1088.6924	1153.6046	1175.2445	1211.2273	1216.447	1233.0096	1243.5508	1270.0534	1307.5119	1312.5454	1324.9834	1363.1481	1420.6021	1480.1254	1512.4604	2346.4202	3014.129	3050.1959	3058.8284	3078.9586	3090.2392	3106.229	3149.7311	3808.875
OC1C2CCN2C1C#N	O[C@H]1[C@H]2CCN2[C@H]1C#N	
InChI=1S/C6H8N2O/c7-3-5-6(9)4-1-2-8(4)5/h4-6,9H,1-2H2	InChI=1S/C6H8N2O/c7-3-5-6(9)4-1-2-8(4)5/h4-6,9H,1-2H2/t4-,5+,6+/m1/s1
