20
gdb 39951	4.02569	1.13218	1.0319	1.7275	87.27	-0.2148	0.0204	0.2352	1227.6021	0.172231	-365.984167	-365.976259	-365.975315	-366.01681	31.839	
C	-0.1418695147	 1.5138607172	 0.0410228693	-0.314334
C	 1.2421409335	 0.9366560812	-0.0963986593	-0.306765
C	 0.0415551515	 0.0149842853	 0.0031858987	 0.340283
C	-0.2117332556	-0.870538345	 1.2337970727	-0.40667
C	-0.4928319679	-2.2654332688	 0.6508203439	 0.320054
C	 0.1061276788	-3.5057592607	 1.2207940338	-0.285918
N	-1.3389321464	-3.2489163366	 1.3518222851	-0.362707
C	-0.6891869112	-2.0551423683	-0.8099434561	-0.138144
C	-0.3859420877	-0.8050134639	-1.1629226696	-0.149945
H	-0.4167808201	 1.961172047	 0.9911944516	 0.110896
H	-0.5874409884	 1.9971802958	-0.822529881	 0.112413
H	 1.7427038284	 1.0205283763	-1.0554728713	 0.112747
H	 1.9072761957	 0.9893580646	 0.7596492616	 0.111761
H	 0.6251669786	-0.8679309287	 1.9382518973	 0.10305
H	-1.0996836069	-0.5164470628	 1.7728867045	 0.107944
H	 0.3654892376	-4.3392806587	 0.5726506054	 0.114408
H	 0.7419175487	-3.4013963895	 2.0971773077	 0.106963
H	-1.545628813	-2.9123480221	 2.2899956697	 0.226587
H	-1.0168718399	-2.8520346391	-1.4660241728	 0.101637
H	-0.4165855308	-0.4037300032	-2.1702342112	 0.095741
44.77	184.2646	239.4766	300.7768	317.2569	376.1568	389.1424	435.9056	581.1892	609.9224	768.1449	777.6338	789.9041	828.0484	839.6868	858.3554	903.0422	924.3857	936.4012	955.1487	961.525	981.0644	987.8156	1008.1284	1057.2488	1070.6699	1083.1707	1103.8151	1133.9587	1189.1948	1191.9025	1248.3005	1262.5893	1285.2231	1313.3092	1327.003	1360.0323	1426.8793	1464.7579	1481.9599	1497.7412	1508.1622	1670.6653	3021.5809	3078.1282	3095.8382	3121.2545	3125.3167	3181.0063	3184.5887	3200.2428	3215.9878	3217.3071	3484.692
C1CC11CC2(CN2)C=C1	C1CC21C[C@]1(CN1)C=C2	
InChI=1S/C8H11N/c1-2-7(1)3-4-8(5-7)6-9-8/h3-4,9H,1-2,5-6H2	InChI=1S/C8H11N/c1-2-7(1)3-4-8(5-7)6-9-8/h3-4,9H,1-2,5-6H2/t8-/m0/s1
