18
gdb 99047	3.63464	0.81284	0.73347	1.4239	75.76	-0.2479	0.0091	0.257	1572.9621	0.144556	-439.077969	-439.067423	-439.066479	-439.115032	36.566	
C	-0.090109833	 1.5893915384	-0.052679922	-0.400548
C	-0.0237360814	 0.0618815798	 0.0074509834	-0.054429
O	-1.3714644071	-0.4809807184	 0.0825199064	-0.250161
C	-1.8771659707	-0.6667437661	 1.3187467633	 0.428567
O	-1.2956640971	-0.4075967125	 2.3432202404	-0.363149
C	-3.2864024124	-1.2499980273	 1.240605438	-0.273893
N	-3.9274820724	-1.4925472578	 2.5193700719	-0.485561
C	 0.6165410002	-0.5224225336	-1.1644133246	 0.330221
C	 1.1716302933	-0.9742636276	-2.1286829351	-0.443696
H	 0.918399264	 2.0015398406	-0.1413789907	 0.135148
H	-0.6766207289	 1.910427365	-0.9168016364	 0.136001
H	-0.5472564521	 1.9721076206	 0.8627582255	 0.139209
H	 0.5016237009	-0.2440320312	 0.9172055856	 0.141537
H	-3.8971069793	-0.5679281122	 0.6374807735	 0.140367
H	-3.231258279	-2.1811692655	 0.664970812	 0.143122
H	-3.3468947906	-2.1205576954	 3.0684152699	 0.236671
H	-3.9460754583	-0.6266431869	 3.0511919606	 0.235965
H	 1.6611947239	-1.38373513	-2.9777366316	 0.204629
32.1455	50.2542	78.2558	132.0086	177.8527	215.309	228.8184	257.6227	323.7307	363.4459	412.1368	539.1709	556.1253	585.6807	626.7281	678.5701	697.941	832.8655	888.9457	918.7567	924.484	959.9907	1044.8391	1109.1381	1137.6657	1152.5202	1180.1692	1210.3849	1346.2321	1358.6567	1383.7643	1388.0732	1403.0222	1454.4792	1487.9487	1493.5009	1678.2439	1812.8417	2245.9706	3044.6417	3053.2862	3072.0691	3080.6353	3133.3576	3140.5699	3494.5833	3503.1407	3562.3892
CC(OC(=O)CN)C#C	C[C@@H](OC(=O)CN)C#C	
InChI=1S/C6H9NO2/c1-3-5(2)9-6(8)4-7/h1,5H,4,7H2,2H3	InChI=1S/C6H9NO2/c1-3-5(2)9-6(8)4-7/h1,5H,4,7H2,2H3/t5-/m1/s1
