15
gdb 56877	3.39532	1.04481	0.84604	2.895	67.72	-0.2805	-0.0082	0.2724	1290.7122	0.111763	-453.943222	-453.93462	-453.933676	-453.977282	30.704	
O	 0.4197285258	 1.5705612364	-0.0635576601	-0.405858
C	 0.1111872274	 0.1914251456	-0.0900286373	-0.032964
C	 0.6961609253	-0.4793275967	-1.2664284263	 0.26027
N	 1.2004474396	-0.9747379593	-2.1800564878	-0.304124
C	 0.5508829207	-0.4957704201	 1.207958221	 0.104643
C	-0.224730767	-0.0916696417	 2.4756191049	-0.381638
C	-0.6949434703	-1.5322542527	 2.4489161182	 0.442604
N	-1.4391143857	-2.2381689863	 3.1623442494	-0.527756
O	 0.0246681613	-1.8506659157	 1.3014541305	-0.257069
H	 1.3709456176	 1.67852003	-0.1806065372	 0.30367
H	-0.9798807558	 0.1232706691	-0.1628898663	 0.151106
H	 1.6419740012	-0.4990119319	 1.2935458045	 0.108396
H	 0.3810266782	 0.1755821792	 3.3419277809	 0.147942
H	-1.0043232357	 0.6582715036	 2.332074255	 0.152902
H	-1.5043599725	-3.1953854496	 2.8126903106	 0.237877
60.9276	83.0551	130.267	212.7821	256.4045	300.7729	363.6316	390.5533	473.9155	495.1835	535.9219	608.5005	755.4675	833.9445	872.0308	914.5679	963.8429	979.1112	1008.4137	1036.0258	1078.6154	1095.2965	1151.3943	1211.5995	1236.4765	1255.4572	1295.4157	1323.1988	1388.9469	1415.2798	1467.4205	1839.2286	2359.8185	3058.6936	3074.7725	3094.9331	3150.0824	3484.3042	3802.0802
OC(C#N)C1CC(=N)O1	O[C@@H](C#N)[C@H]1C[C]([NH])O1	
InChI=1S/C5H6N2O2/c6-2-3(8)4-1-5(7)9-4/h3-4,7-8H,1H2	InChI=1S/C5H6N2O2/c6-2-3(8)4-1-5(7)9-4/h3-4,7-8H,1H2/t3-,4+/m0/s1
