19
gdb 90303	3.51916	1.46011	1.1803	1.5968	82.95	-0.2118	0.0053	0.2171	1083.3736	0.161002	-381.993154	-381.985722	-381.984778	-382.024762	29.858	
C	-0.097310345	 1.4772552494	-0.0884705475	-0.322272
N	-0.0278184525	 0.0414475828	 0.0942145503	-0.084641
C	-1.2366544242	-0.6360571695	 0.6669382362	-0.250491
C	-0.2630104426	-1.491007655	 1.444954361	 0.217557
C	 0.1881786145	-2.7335656069	 1.597243051	-0.197877
C	 1.6893457508	-2.6998259535	 1.504375912	-0.07315
N	 2.0824828715	-2.3777588941	 0.1038559277	-0.318996
C	 2.0844654281	-1.3008189097	 1.109525155	-0.093555
C	 0.8169227486	-0.4674390326	 1.2204554549	 0.024718
H	 0.8769352612	 1.8503452473	-0.4210213477	 0.122452
H	-0.8303422463	 1.7167671838	-0.8658896687	 0.121351
H	-0.3813335458	 2.0249443041	 0.8308774021	 0.0876
H	-1.8417928095	 0.0380349946	 1.2960156621	 0.091482
H	-1.8833760488	-1.1277737294	-0.0659469334	 0.11836
H	-0.3841575722	-3.6526545544	 1.5613746284	 0.101225
H	 2.3358930247	-3.342269605	 2.0933955085	 0.088848
H	 3.0488089795	-2.6672151196	-0.0396650367	 0.22792
H	 3.0371813864	-0.8878864807	 1.4238587417	 0.081061
H	 0.9217073819	 0.2859171882	 2.0200614831	 0.058408
126.5036	196.5572	236.8054	251.9974	314.4466	389.6622	456.3917	530.6846	636.1772	685.0619	735.4298	795.4464	821.713	837.8633	856.3738	902.8249	920.3069	941.7151	972.0289	994.1745	1035.8896	1079.8935	1093.9959	1111.629	1135.7601	1150.8312	1164.1389	1185.7045	1195.1836	1217.7546	1250.1247	1283.2411	1308.2541	1349.9649	1372.1307	1400.7905	1449.749	1485.1453	1496.4857	1503.491	1725.3855	2920.4082	2948.8761	2963.9613	3058.0753	3074.9887	3100.5078	3157.9861	3167.4648	3204.606	3477.1709
CN1CC2=CC3NC3C12	CN1C[C]2[CH][C@H]3N[C@H]3[C@@H]12	
InChI=1S/C7H10N2/c1-9-3-4-2-5-6(8-5)7(4)9/h2,5-8H,3H2,1H3	InChI=1S/C7H10N2/c1-9-3-4-2-5-6(8-5)7(4)9/h2,5-8H,3H2,1H3/t5-,6-,7+/m1/s1
