19
gdb 81860	2.91533	1.41848	1.11461	2.8553	75.01	-0.2511	-0.0296	0.2214	1128.3986	0.158734	-423.049176	-423.040722	-423.039778	-423.081917	32.97	
C	-0.1442687548	 1.5728597131	 0.2095081799	-0.481888
C	 0.0737530426	 0.0963338362	-0.0135669914	 0.336189
C	-0.8572693536	-0.9130756729	 0.6167934668	-0.33452
C	 0.571118568	-0.8269951152	 1.0964893092	-0.090112
C	 1.5499743251	-1.817776381	 0.5067009912	 0.051435
O	 1.4224225177	-3.1425321724	 0.9555904215	-0.441206
C	 1.2872584245	-1.7198150962	-1.0051846017	 0.341298
O	 1.4457896405	-2.6547139446	-1.7503770546	-0.323533
C	 0.7118454602	-0.3486264429	-1.3275115335	-0.382578
H	 0.7916520416	 2.134182117	 0.1039619611	 0.11664
H	-0.859834364	 1.9826612508	-0.5129241677	 0.122454
H	-0.539358236	 1.766129165	 1.2117799904	 0.119875
H	-1.6240771589	-0.5308645251	 1.2814242981	 0.116092
H	-1.1624126488	-1.7905415556	 0.0534733731	 0.124117
H	 0.7660973187	-0.4323179611	 2.0869948198	 0.090374
H	 2.577849113	-1.4459718662	 0.6816648289	 0.087093
H	 1.5651749733	-3.6959669227	 0.1729700957	 0.289748
H	 0.0277776708	-0.4041084683	-2.1795674548	 0.13087
H	 1.5327276002	 0.3260954724	-1.609327632	 0.127653
92.2319	142.548	220.2711	244.8002	281.9379	335.486	365.0746	402.8585	461.1274	512.9973	522.4795	602.2153	648.6736	718.0612	782.4441	857.2492	905.5103	915.0022	944.9285	991.6041	1002.0322	1054.3571	1062.9452	1083.8938	1094.7766	1139.3468	1173.5235	1186.0365	1226.8498	1240.4754	1304.1259	1317.4474	1353.6222	1401.6057	1420.1354	1424.6078	1456.4765	1488.3386	1496.7271	1504.431	1840.4481	2920.739	3017.9491	3022.6634	3081.022	3087.7356	3100.0655	3124.4073	3175.7282	3210.4223	3715.9322
CC12CC1C(O)C(=O)C2	C[C@]12C[C@H]1[C@@H](O)C(=O)C2	
InChI=1S/C7H10O2/c1-7-2-4(7)6(9)5(8)3-7/h4,6,9H,2-3H2,1H3	InChI=1S/C7H10O2/c1-7-2-4(7)6(9)5(8)3-7/h4,6,9H,2-3H2,1H3/t4-,6+,7+/m0/s1
