23
gdb 100047	2.44708	1.2019	1.0385	1.545	82.46	-0.24	0.0774	0.3174	1309.4483	0.202284	-425.394529	-425.38367	-425.382726	-425.430584	40.392	
C	-0.2799421042	 1.5192598246	-0.1079189518	-0.239135
O	-0.1045986501	 0.1221135533	-0.1083860358	-0.275569
C	 0.7343467823	-0.4555764286	-1.1244196193	 0.348983
C	 0.1513405737	-0.1929331732	-2.5268928716	-0.418883
C	 2.1668457216	 0.0932268021	-1.0451922107	-0.444604
C	 0.6041802281	-1.9510910509	-0.8372948773	-0.008169
C	 1.6551159155	-2.9897170823	-1.1728126183	-0.356191
C	 1.2823078706	-2.7107245357	 0.2650281202	 0.089249
O	 2.1829171435	-2.0489540033	 1.1063998567	-0.41083
H	 0.6544046512	 2.0675502562	 0.0771566998	 0.104661
H	-0.7233361154	 1.8974642339	-1.0404298442	 0.099486
H	-0.9707269134	 1.7404227988	 0.710491642	 0.123274
H	 0.240705603	 0.8589906547	-2.813625922	 0.109954
H	 0.6881858064	-0.7857791371	-3.273378836	 0.117615
H	-0.9063298475	-0.4714284126	-2.5600329575	 0.115653
H	 2.5829838996	-0.0519313834	-0.0492895748	 0.147712
H	 2.8117023157	-0.4089349642	-1.7720778485	 0.10883
H	 2.1802915902	 1.1579042045	-1.2956459317	 0.105456
H	-0.4215043965	-2.2731019386	-0.9981520219	 0.089326
H	 1.3502312275	-3.9213948355	-1.6376933132	 0.107402
H	 2.6288821575	-2.6276086602	-1.4846898977	 0.113838
H	 0.6694211336	-3.4544065422	 0.7749494072	 0.085463
H	 2.9032182072	-2.6577167705	 1.3004142665	 0.286478
39.2801	56.0462	152.8104	191.5436	222.7383	244.3905	266.1847	289.6548	300.4685	325.2834	377.8573	389.0283	417.5705	439.013	507.7841	635.4581	697.1661	794.3423	823.1898	855.3166	913.5453	921.0853	992.8898	1007.5706	1024.806	1063.2875	1082.5628	1113.956	1141.0524	1177.3233	1179.8187	1189.3727	1193.2916	1219.6733	1246.6838	1292.0219	1315.8023	1389.0305	1394.0067	1415.8915	1425.7536	1475.0439	1480.9129	1482.2418	1494.4452	1502.5421	1504.8025	1511.3569	1517.2629	2989.0218	3033.9785	3040.9503	3052.4999	3091.8211	3101.5022	3104.6353	3112.4901	3114.0786	3130.0896	3138.156	3167.3516	3217.8461	3804.6177
COC(C)(C)C1CC1O	COC(C)(C)[C@H]1C[C@H]1O	
InChI=1S/C7H14O2/c1-7(2,9-3)5-4-6(5)8/h5-6,8H,4H2,1-3H3	InChI=1S/C7H14O2/c1-7(2,9-3)5-4-6(5)8/h5-6,8H,4H2,1-3H3/t5-,6+/m0/s1
