16
gdb 126031	3.05028	1.74496	1.16609	5.1793	70.05	-0.231	0.0085	0.2395	1012.2467	0.126852	-434.05859	-434.051365	-434.050421	-434.090588	27.071	
C	 0.0137817746	 1.5716887973	 0.0155889044	-0.407297
C	 0.0259147351	 0.0494665783	 0.0656582392	 0.005118
C	 0.7392226764	-0.6322678724	-1.1458839646	-0.115016
O	 1.5366420183	-1.7295011234	-0.6207954513	-0.278595
C	 1.6451435459	-1.5017159381	 0.7032304789	 0.401918
C	 2.2743905939	-1.9705333451	 1.8288116673	-0.205418
N	 1.8099470147	-1.2171194809	 2.877957211	-0.181541
N	 0.9449525163	-0.3298008769	 2.4673307106	-0.187842
N	 0.8578366599	-0.5002105344	 1.1259802179	 0.029717
H	 1.0291322715	 1.9642143637	-0.0911244817	 0.136112
H	-0.5884447583	 1.9166722344	-0.8303621925	 0.129512
H	-0.418461048	 1.9770459274	 0.9333553548	 0.15838
H	-0.9971470838	-0.3293764016	 0.1784256243	 0.11768
H	 0.0449769356	-1.0435592455	-1.8795621351	 0.139059
H	 1.4151937521	 0.0752761287	-1.6391726183	 0.12966
H	 2.9958071157	-2.7571308014	 1.9607457752	 0.128553
87.8177	135.5437	218.9167	266.5015	322.3393	425.3207	489.5005	611.9788	685.9419	702.9832	718.0414	753.4972	799.2214	903.1578	944.1259	981.9251	999.864	1054.7835	1107.8445	1108.4973	1146.1055	1161.9957	1233.8954	1254.7586	1277.5163	1326.182	1338.8176	1371.7153	1401.3567	1414.7623	1487.9455	1498.1085	1508.3141	1517.0341	1620.4427	3031.8206	3044.3893	3048.3924	3121.2888	3130.3886	3134.9284	3293.7992
CC1COC2=CN=NN12	C[C@H]1COc2cnnn12	
InChI=1S/C5H7N3O/c1-4-3-9-5-2-6-7-8(4)5/h2,4H,3H2,1H3	InChI=1S/C5H7N3O/c1-4-3-9-5-2-6-7-8(4)5/h2,4H,3H2,1H3/t4-/m0/s1
