20
gdb 71995	1.92706	1.79294	1.68956	2.1025	79.43	-0.2117	0.0656	0.2773	1018.5038	0.169813	-403.08032	-403.071409	-403.070465	-403.113144	34.422	
C	-0.0562440007	 1.4709351333	 0.0707475754	-0.517624
C	 0.0594359095	-0.0210676886	-0.0124901154	 0.20091
C	 0.9237700298	-0.8923004956	-0.9009715946	-0.230871
N	 0.0731183412	-2.0889400146	-0.5130791506	-0.200719
C	 0.4283174371	-2.2596900138	 0.9528198716	-0.243738
C	-0.2683673613	-0.9374600789	 1.211168192	 0.274366
O	-0.7756750216	-0.4242085773	 2.3882980292	-0.461706
C	-1.0236331159	-1.0792052049	-0.0729301856	 0.27763
C	-2.4600849759	-1.1288164815	-0.4565412577	-0.530666
H	 0.8880763461	 1.9255512666	 0.3959450149	 0.115338
H	-0.3150223158	 1.9116014702	-0.8985306474	 0.122256
H	-0.8286423256	 1.7611117386	 0.7902431943	 0.128082
H	 0.7970103321	-0.6838850687	-1.9683304134	 0.102328
H	 1.9925803419	-1.0045565393	-0.6792006669	 0.088197
H	-0.1188866805	-3.1112996846	 1.3667169151	 0.110048
H	 1.5005203692	-2.3749016638	 1.1522190453	 0.089297
H	-0.0760427885	 0.0596454947	 2.8423084816	 0.287181
H	-3.0109221548	-0.3276658893	 0.0466517566	 0.132636
H	-2.5926439416	-1.0090057066	-1.5373380382	 0.125701
H	-2.9130138347	-2.0828433258	-0.1651558462	 0.131353
155.7617	167.0925	176.7596	186.7889	233.7438	243.9439	306.7566	367.7598	412.3797	487.0064	529.1683	602.8077	642.6179	675.4104	696.5365	802.8198	845.5281	856.2979	912.9102	943.0083	1014.8752	1052.9023	1083.4619	1117.1504	1131.7128	1144.7052	1150.777	1180.2892	1218.1944	1235.0234	1261.9066	1286.4563	1310.7403	1378.9632	1406.0966	1418.5006	1476.2238	1484.0193	1490.6534	1493.1851	1502.9533	1508.4741	1534.5023	3016.1588	3019.055	3027.2401	3031.0473	3074.4347	3075.4708	3089.5844	3094.6092	3098.852	3104.5124	3781.2568
CC12CN3CC1(O)C23C	C[C@@]12CN3C[C@]1(O)[C@@]23C	
InChI=1S/C7H11NO/c1-5-3-8-4-7(5,9)6(5,8)2/h9H,3-4H2,1-2H3	InChI=1S/C7H11NO/c1-5-3-8-4-7(5,9)6(5,8)2/h9H,3-4H2,1-2H3/t5-,6+,7+/m0/s1
