15
gdb 5557	3.85395	1.2598	0.95421	1.7817	68.66	-0.2442	-0.073	0.1712	1179.7745	0.115965	-399.817305	-399.80813	-399.807186	-399.851708	31.722	
N	 0.4465979259	 2.0031599912	-0.8921373815	-0.729982
H	 0.7766072163	 1.4264466645	-1.661159915	 0.230688
H	 1.1079208737	 1.8725903447	-0.1260369222	 0.272725
H	 0.5472355917	 2.966262031	-1.2006913172	 0.230686
C	-1.2148120061	 0.9437590596	 1.8210093126	-0.417433
C	-0.3201791002	 0.7871764023	 2.7896683185	 0.293234
C	 1.1674792037	 1.0126522911	 2.7768004378	 0.299822
O	 1.8423941124	 1.3946174044	 1.836046244	-0.347242
C	 1.5772806798	 0.6661528491	 4.137777427	-0.295516
C	 0.4609469918	 0.3032337569	 4.7958767797	 0.059485
O	-0.6799124434	 0.3525742073	 4.0633226375	-0.213344
H	-0.8948591343	 1.2854156414	 0.8383710104	 0.19942
H	-2.2636822594	 0.7345553423	 1.9982122759	 0.133072
H	 2.5818143134	 0.6990940638	 4.5268431686	 0.131689
H	 0.3169661047	-0.0237517596	 5.8168525039	 0.152694
49.7033	116.7574	129.3368	149.0083	167.537	226.4952	313.6477	323.8194	383.6	514.6218	520.0119	631.7724	758.8079	768.7063	793.7901	833.6917	839.5605	915.2392	945.1222	1013.0306	1060.0452	1102.1689	1129.2364	1206.1933	1266.9037	1371.1825	1441.121	1614.702	1673.546	1704.8995	1716.5818	1778.7093	3116.4139	3236.2115	3237.0915	3276.7699	3439.2572	3554.6321	3583.0012
[NH3+]CC1=C([O-])C=CO1	N.C=C1C(=O)C=CO1	
InChI=1S/C5H7NO2/c6-3-5-4(7)1-2-8-5/h1-2,7H,3,6H2	InChI=1S/C5H4O2.H3N/c1-4-5(6)2-3-7-4;/h2-3H,1H2;1H3
