18
gdb 38952	3.15142	1.73967	1.45227	1.2348	69.68	-0.2302	0.0806	0.3109	933.8621	0.150956	-439.060754	-439.054024	-439.05308	-439.091933	26.913	
C	-0.1409741842	 1.4145906787	 0.2721405245	-0.244329
C	 1.1866853005	 0.7850208914	 0.0612366259	-0.042719
C	 1.9492103117	 0.3653122189	 1.3100900111	 0.089661
O	 2.2088228662	 1.4392437658	 2.2146126631	-0.265893
C	 1.596781175	 1.0964960887	 3.4414857078	 0.017293
O	 0.4998678755	 0.2737416585	 3.13545904	-0.249059
C	 0.9649547671	-0.5647448913	 2.0760030336	 0.0405
C	-0.1391130537	-0.9206238094	 1.0756513646	-0.191861
N	-0.056483324	-0.0075860838	-0.0832798855	-0.105477
H	-0.4170201653	 1.6817701042	 1.2873649406	 0.132747
H	-0.5612798372	 2.0479723716	-0.5038155278	 0.115696
H	 1.7489388137	 0.9731542749	-0.8481172334	 0.091876
H	 2.8912587502	-0.1304907568	 1.051634786	 0.08283
H	 2.3147524033	 0.562643514	 4.091345751	 0.086686
H	 1.2386903454	 2.0023460048	 3.9385874714	 0.122596
H	 1.4580948395	-1.4518039165	 2.4955694464	 0.081577
H	 0.0135334889	-1.9392579667	 0.7037348197	 0.111753
H	-1.1278011627	-0.8744291672	 1.541072991	 0.126121
107.1842	193.8532	256.5483	339.5506	383.0726	504.2162	591.8961	683.1003	740.4571	744.6415	797.1247	833.8745	874.8802	892.4514	966.1627	971.3235	992.0325	1015.9935	1038.9353	1074.9556	1096.9836	1111.2439	1115.5598	1123.6488	1168.9928	1185.2899	1230.4448	1243.3206	1259.1334	1284.2604	1306.2735	1344.0505	1359.6811	1371.8299	1394.8995	1427.9754	1481.1039	1504.5953	1539.2619	2931.9413	3010.1001	3045.5528	3052.3268	3090.6032	3100.652	3116.1074	3155.7941	3208.0035
C1C2C3OCOC3CN12	C1[C@H]2[C@H]3OCO[C@H]3CN12	
InChI=1S/C6H9NO2/c1-4-6-5(2-7(1)4)8-3-9-6/h4-6H,1-3H2	InChI=1S/C6H9NO2/c1-4-6-5(2-7(1)4)8-3-9-6/h4-6H,1-3H2/t4-,5-,6+,7?/m0/s1
