17
gdb 86511	4.18553	0.66216	0.62925	2.9846	81.9	-0.2623	-0.0586	0.2038	1746.9205	0.134062	-421.788609	-421.779183	-421.778239	-421.824804	32.702	
O	 0.4020705921	 0.4351487508	-0.8147549623	-0.427266
C	-0.2964160772	-0.3780126796	 0.0933070598	 0.159361
C	 0.1557544517	-0.398007363	 1.5797592847	-0.263123
C	-1.3540760166	-0.2799780317	 1.9976416643	-0.203151
C	-1.6495236779	 0.2099416767	 0.534366956	-0.239148
C	-1.9689657172	-1.5476670116	 2.324654927	 0.162918
C	-2.4696511796	-2.621129068	 2.570923088	-0.035169
C	-3.0806911385	-3.8803280403	 2.9000209135	 0.022518
O	-2.9931053288	-4.884813227	 2.2295715851	-0.233983
H	 1.1694727519	-0.0485390048	-1.1357049539	 0.287116
H	-0.4183060815	-1.3995145851	-0.2897956871	 0.088291
H	 0.7119125409	-1.2606268842	 1.94963008	 0.113621
H	 0.6876336928	 0.5246878177	 1.8245777837	 0.116753
H	-1.5619646264	 0.4524745599	 2.7811406714	 0.112631
H	-1.6148834896	 1.3011159526	 0.4889574637	 0.12305
H	-2.5570922057	-0.152974876	 0.0516242176	 0.119691
H	-3.6600041803	-3.8691750965	 3.8461841386	 0.09589
30.9973	49.2474	102.6279	120.3792	236.67	252.9269	261.8902	370.6055	377.8677	464.3615	558.3525	591.7573	674.4988	775.0892	821.9248	887.0211	914.2804	961.8474	973.9414	1022.473	1044.251	1074.3406	1132.07	1164.7344	1173.991	1202.3311	1247.389	1264.2504	1267.6041	1322.7256	1350.6277	1423.4952	1434.1641	1465.6296	1493.0609	1762.63	2317.9614	2913.0747	3018.3267	3068.5962	3072.5617	3081.3173	3137.1013	3143.5961	3822.0273
OC1CC(C1)C#CC=O	O[C@H]1C[C@@H](C1)C#CC=O	
InChI=1S/C7H8O2/c8-3-1-2-6-4-7(9)5-6/h3,6-7,9H,4-5H2	InChI=1S/C7H8O2/c8-3-1-2-6-4-7(9)5-6/h3,6-7,9H,4-5H2/t6-,7-
