16
gdb 23113	2.59518	1.29629	0.97593	2.9266	69.08	-0.2529	-0.0391	0.2138	1183.7079	0.122948	-474.986172	-474.977654	-474.97671	-475.020042	30.478	
O	-0.2828148526	 1.4437502872	 0.0131291823	-0.389596
N	 0.0062356449	 0.0720280828	 0.0942042152	-0.214719
C	-1.0619726085	-0.6154051202	 0.0663148803	 0.344779
C	-2.4980251831	-0.1545867045	-0.0348627963	-0.153161
O	-3.2510525429	-1.333811825	-0.2597934458	-0.25284
C	-2.5560308716	-2.4275575593	 0.3314713735	-0.095403
C	-1.0656271881	-2.1271823002	 0.1146362168	-0.209445
C	-0.5104509882	-2.7078057185	-1.1903779137	 0.152803
O	-1.0640505335	-3.5420456198	-1.8530060678	-0.226188
H	 0.5927614333	 1.8440675478	 0.0475801845	 0.312006
H	-2.7935601776	 0.355634263	 0.8972112694	 0.119952
H	-2.6599470277	 0.5419739	-0.8626200396	 0.14304
H	-2.7834301212	-2.5060373164	 1.4051428409	 0.096034
H	-2.8695587712	-3.3401100022	-0.1779512809	 0.141272
H	-0.4188811061	-2.495006695	 0.9196822618	 0.126613
H	 0.477469834	-2.2870395896	-1.4754327907	 0.104851
73.8694	80.8229	165.5117	181.9862	229.6853	292.6623	342.8753	406.5519	480.4745	529.6635	614.7279	684.0146	726.5813	829.8	875.5897	941.1518	970.0911	985.6975	1002.4371	1054.6365	1088.8074	1120.0244	1196.7723	1221.0156	1231.2642	1256.2667	1299.8949	1335.0076	1379.7669	1404.0923	1415.497	1489.7602	1510.0194	1757.9636	1836.908	2910.5987	2970.3069	2993.7563	3052.8643	3085.5056	3125.2594	3817.969
ON=C1COCC1C=O	ON=C1COC[C@H]1C=O	
InChI=1S/C5H7NO3/c7-1-4-2-9-3-5(4)6-8/h1,4,8H,2-3H2	InChI=1S/C5H7NO3/c7-1-4-2-9-3-5(4)6-8/h1,4,8H,2-3H2/t4-/m1/s1
