17
gdb 10690	2.37712	1.92395	1.51289	3.2556	68.59	-0.2798	0.0247	0.3046	935.7366	0.140938	-363.868076	-363.859449	-363.858505	-363.901079	31.608	
C	 0.1020544689	 1.4444352274	-0.318331511	-0.417422
C	 0.0174189117	-0.0287855268	 0.0805508719	 0.05416
O	 0.618021075	-0.273371355	 1.3403565106	-0.427685
C	-1.4185188753	-0.5678555389	 0.040032543	 0.189364
C	-1.9829565509	-1.0840262511	-1.2742314152	-0.297978
C	-1.6312851098	-2.0541769682	-0.1869107998	-0.298128
C	-2.3157983563	 0.0979569243	 0.9500158383	 0.2282
N	-2.9936244159	 0.6559765135	 1.7046441186	-0.353785
H	 1.1412839449	 1.7793390231	-0.274024011	 0.130465
H	-0.2759188871	 1.6024271152	-1.3331644637	 0.122402
H	-0.4921838717	 2.0654292063	 0.3614368013	 0.136216
H	 0.5984817933	-0.630759731	-0.6282666818	 0.091688
H	 0.1824931183	 0.2883500742	 1.992766175	 0.292011
H	-3.0294412515	-0.8964028963	-1.4818746597	 0.140855
H	-1.3302314608	-1.0112299768	-2.1374788192	 0.130139
H	-0.7322290633	-2.6515417136	-0.2878124124	 0.137824
H	-2.4386985393	-2.5348698261	 0.3518427052	 0.141674
65.8832	137.4897	180.8866	230.6648	242.4678	265.8847	316.9889	358.945	446.3711	484.1089	578.9603	604.2938	687.7307	779.6783	870.0191	903.6142	936.967	961.5586	973.3913	1036.3071	1066.1096	1089.3854	1094.8356	1130.9581	1192.1287	1260.9959	1283.9542	1319.3435	1376.8053	1407.4519	1423.0498	1469.5641	1491.4084	1494.7704	1498.2949	2342.1301	3036.6679	3042.7925	3107.2628	3126.5603	3141.4634	3147.9893	3227.6979	3242.1861	3788.581
CC(O)C1(CC1)C#N	C[C@@H](O)C1(CC1)C#N	
InChI=1S/C6H9NO/c1-5(8)6(4-7)2-3-6/h5,8H,2-3H2,1H3	InChI=1S/C6H9NO/c1-5(8)6(4-7)2-3-6/h5,8H,2-3H2,1H3/t5-/m1/s1
