14
gdb 45641	5.88825	0.88779	0.77889	3.7465	67.76	-0.2629	-0.0288	0.2342	1344.9312	0.10155	-432.929741	-432.921734	-432.92079	-432.963261	28.506	
O	 0.070914907	-0.0433898397	 0.0023360338	-0.346299
C	-0.0139897282	 1.1563096976	 0.0087600052	 0.40486
C	-1.2404272235	 2.0785785355	 0.0315971527	-0.301598
N	-0.7350367892	 3.4522838976	 0.0312466609	-0.27283
C	 0.5367932571	 3.3625386353	 0.0127934181	 0.414766
C	 1.498358828	 4.520917186	 0.0053310396	-0.475619
C	 0.8432372201	 5.8257096588	 0.0207331648	 0.309438
N	 0.3790651594	 6.8819514688	 0.0322244575	-0.293397
N	 1.0477073932	 2.0655398569	-0.0009002014	-0.387706
H	-1.877014614	 1.8952003992	-0.8406258278	 0.160794
H	-1.85126213	 1.8861554896	 0.9201403729	 0.160874
H	 2.1660117583	 4.4471033542	 0.8737551233	 0.177977
H	 2.141983665	 4.4557511026	-0.8817258195	 0.177956
H	 2.0168262968	 1.7904979677	-0.015627	 0.270784
39.9937	118.2181	140.8668	243.5209	289.9445	378.9711	430.0938	439.4306	498.8621	545.4355	635.4189	680.9276	736.3197	882.8654	945.0412	951.4494	979.6	989.1153	1056.2358	1149.2653	1179.3108	1215.0568	1233.1348	1284.8506	1345.6823	1436.7128	1445.9168	1452.0778	1712.6253	1865.6337	2382.7	3029.4939	3057.283	3061.0169	3092.9714	3649.2937
O=C1CN=C(CC#N)N1	O=C1CN=C(CC#N)N1	
InChI=1S/C5H5N3O/c6-2-1-4-7-3-5(9)8-4/h1,3H2,(H,7,8,9)	InChI=1S/C5H5N3O/c6-2-1-4-7-3-5(9)8-4/h1,3H2,(H,7,8,9)
