22
gdb 109310	2.11671	1.58131	1.06828	1.6245	89.11	-0.2142	0.0208	0.235	1232.7009	0.195308	-367.208613	-367.199583	-367.198639	-367.242516	34.594	
C	-0.1512058499	 1.7052909419	-0.1237082978	-0.370598
C	-0.0509222956	 0.1786843117	 0.0627815411	-0.316169
C	-1.3904976678	-0.5056404816	 0.0491633851	 0.275603
C	-2.0307865916	-0.9868514111	-1.0214035333	-0.180638
C	-3.3721544112	-1.5935037335	-0.6864247165	-0.263914
C	-3.6012294429	-1.1547183511	 0.7821839756	-0.28405
C	-2.2185308658	-0.7253925089	 1.2804419409	 0.275929
C	-1.6140057887	-1.2302823609	 2.5470914694	-0.292732
N	-2.1505201926	 0.1387754899	 2.4719772164	-0.368711
H	 0.8393875357	 2.1695724105	-0.0856798331	 0.113619
H	-0.6053521824	 1.9437140264	-1.0899020278	 0.124487
H	-0.7711394941	 2.170033102	 0.649883984	 0.121321
H	 0.576143976	-0.2350492904	-0.7343177537	 0.109383
H	 0.4739889701	-0.0356061419	 1.0030092803	 0.097938
H	-1.6279261713	-0.9838534563	-2.029342113	 0.084524
H	-4.1699670552	-1.2528584659	-1.3562518478	 0.102705
H	-3.3399544306	-2.6877411968	-0.7834077564	 0.105713
H	-4.2673518397	-0.287079182	 0.8221909571	 0.114536
H	-4.0483477076	-1.937195136	 1.4000687954	 0.099359
H	-2.1839491778	-1.9111390724	 3.1747587488	 0.115351
H	-0.5366870057	-1.371721034	 2.5940498773	 0.107972
H	-1.3842560614	 0.8028182105	 2.387492788	 0.228372
74.9898	84.4479	151.8007	194.9917	262.2747	270.5089	311.4269	381.7549	404.8025	517.3656	609.7669	676.7909	705.9753	782.8113	798.4863	835.7674	870.0026	897.8693	925.3572	940.294	959.3818	979.5266	1004.3978	1049.6936	1059.0314	1068.6447	1090.3246	1110.3718	1156.0019	1180.7486	1235.6717	1253.6462	1265.1336	1287.8922	1298.1636	1323.2945	1345.7278	1364.2567	1397.8061	1411.6019	1482.3332	1485.0305	1495.1012	1500.1031	1505.0017	1511.1614	1703.942	3008.523	3020.733	3035.9218	3046.713	3059.8472	3063.7852	3097.5122	3102.7332	3105.2745	3113.6882	3179.9457	3181.1188	3492.9057
CCC1=CCCC11CN1	CCC1=CCC[C@]21CN2	
InChI=1S/C8H13N/c1-2-7-4-3-5-8(7)6-9-8/h4,9H,2-3,5-6H2,1H3	InChI=1S/C8H13N/c1-2-7-4-3-5-8(7)6-9-8/h4,9H,2-3,5-6H2,1H3/t8-/m1/s1
