14
gdb 36564	2.68074	0.9082	0.71098	4.6723	73.02	-0.2853	-0.0261	0.2593	1479.1664	0.099412	-395.689285	-395.679984	-395.67904	-395.724404	31.982	
C	 0.2789398288	-0.6790279503	 0.5827247774	-0.437184
C	 0.0243786366	 0.4285335467	 0.1941638726	 0.335818
C	-0.2171658065	 1.8106044685	-0.2549250565	-0.286907
N	 0.9843799657	 2.6472531156	-0.360973926	-0.283549
C	 1.6757045791	 2.8038427199	 0.9199467723	-0.271879
C	 2.8723598019	 3.6298663976	 0.7560780045	 0.262816
N	 3.8310770499	 4.260968714	 0.6311045059	-0.286051
C	-0.9164204382	 1.8161541572	-1.5535567571	 0.304152
N	-1.4644053269	 1.813839808	-2.5691833031	-0.302355
H	 0.4882736731	-1.6663242472	 0.9167531787	 0.222751
H	-0.8851846413	 2.3004811813	 0.4683038547	 0.167953
H	 1.615094236	 2.2483822027	-1.0501444531	 0.254478
H	 0.9994049287	 3.3062935002	 1.6228039107	 0.164046
H	 1.9726189233	 1.8501096959	 1.3856533991	 0.155908
55.45	99.8536	102.8466	128.9939	210.38	217.6453	322.927	363.3553	390.2035	482.5903	520.0726	575.1644	639.4739	666.9376	689.54	766.5772	887.1024	960.515	993.1838	1034.8551	1101.4491	1127.6866	1244.4058	1307.0613	1310.3123	1392.412	1492.1509	1500.9077	2235.4074	2373.0908	2375.3995	2982.0679	3013.3137	3053.0365	3496.188	3524.112
C#CC(NCC#N)C#N	C#C[C@@H](NCC#N)C#N	
InChI=1S/C6H5N3/c1-2-6(5-8)9-4-3-7/h1,6,9H,4H2	InChI=1S/C6H5N3/c1-2-6(5-8)9-4-3-7/h1,6,9H,4H2/t6-/m1/s1
