19
gdb 71602	2.10839	1.98024	1.70014	1.5073	74.47	-0.2267	0.0752	0.3019	946.4899	0.15949	-422.987482	-422.979631	-422.978687	-423.019199	31.521	
C	 0.0070265978	 1.5163909545	-0.0347500812	-0.510073
C	 0.0132641445	 0.0065732517	 0.0102120236	 0.268178
C	 0.7897188941	-0.7331823825	-1.0810901554	-0.143066
O	 0.5751289354	-2.1053562988	-0.7198431569	-0.281572
C	-0.2418072973	-1.9834561102	 0.4220859031	 0.064613
C	 0.2381851399	-0.8195223356	 1.3348071149	-0.138703
C	-1.2263273826	-0.5602533915	 1.7583603301	-0.333815
C	-1.2874112797	-0.8376965601	 0.2352826532	 0.339351
O	-2.3596701027	-0.7703742568	-0.6333472061	-0.478688
H	 1.0275750116	 1.9126316759	 0.0115211976	 0.118875
H	-0.4454679122	 1.8718640288	-0.9668884733	 0.130285
H	-0.5569271466	 1.952635122	 0.7939660311	 0.12371
H	 0.3908708801	-0.5400002453	-2.0849748181	 0.107507
H	 1.8631869159	-0.5044171803	-1.0751570826	 0.096668
H	-0.5098307101	-2.9587618249	 0.8282760064	 0.08036
H	 1.1260147074	-0.8112194641	 1.9630165038	 0.080141
H	-1.6806913009	-1.3076701635	 2.416188858	 0.087669
H	-1.4762127266	 0.4491472116	 2.0883345005	 0.103066
H	-2.9640668279	-1.4953083611	-0.4412491787	 0.285494
180.0465	191.14	220.9743	243.4717	276.9933	314.4657	417.4474	462.1383	480.7825	631.4216	661.0295	707.1705	726.0791	768.7744	840.1311	913.2337	944.1628	957.1884	976.2331	985.8454	1016.2885	1022.3952	1074.232	1082.2198	1101.786	1130.6555	1164.5252	1191.9613	1202.8843	1231.6633	1241.3882	1254.5603	1288.3389	1330.289	1354.7858	1408.5359	1417.2842	1491.6453	1496.1435	1516.7924	1525.5409	3013.5229	3033.3537	3053.1702	3054.2102	3092.1114	3111.1395	3123.8344	3127.7395	3146.7939	3809.6934
CC12COC3C1CC23O	C[C@@]12CO[C@H]3[C@@H]1C[C@@]23O	
InChI=1S/C7H10O2/c1-6-3-9-5-4(6)2-7(5,6)8/h4-5,8H,2-3H2,1H3	InChI=1S/C7H10O2/c1-6-3-9-5-4(6)2-7(5,6)8/h4-5,8H,2-3H2,1H3/t4-,5-,6+,7-/m0/s1
