21
gdb 92096	2.67174	1.53863	1.09608	0.9572	84.33	-0.2347	0.02	0.2547	1166.5215	0.183633	-387.080403	-387.072179	-387.071234	-387.11288	32.932	
C	-0.4423576624	 1.4708426106	-0.0186665212	-0.395004
C	 0.0659992683	 0.0278489483	 0.0091509343	 0.0804
O	 0.7674807901	-0.1715738221	-1.2168413727	-0.259465
C	 1.0906609594	-1.5053828279	-1.463649756	 0.124909
C	 2.3302875659	-1.7539854256	-2.2680659711	-0.33894
C	 2.3121589996	-2.0552826409	-0.7812731125	-0.033829
C	 3.0201668528	-1.1268126825	 0.1962553455	-0.27695
C	 2.1305781884	-0.7049807275	 1.3480498343	-0.091937
C	 0.884722164	-0.2400800175	 1.2519345211	-0.024265
H	 0.4016071337	 2.1656841655	-0.0529962469	 0.127548
H	-1.0626860577	 1.6311593828	-0.9042478985	 0.122126
H	-1.0373116157	 1.6900532629	 0.8724039652	 0.113358
H	-0.8116987756	-0.6453632381	 0.0265068942	 0.071688
H	 0.227756222	-2.155920671	-1.6149384949	 0.077804
H	 2.3279933146	-2.5764592486	-2.9746901462	 0.110586
H	 2.8830659733	-0.8784002788	-2.5911940805	 0.121799
H	 2.2787917502	-3.100183082	-0.485904074	 0.083703
H	 3.9183442675	-1.6177795243	 0.5851016732	 0.098198
H	 3.371384347	-0.2362554855	-0.3369896357	 0.119665
H	 2.5566170552	-0.7945953136	 2.3451113239	 0.085727
H	 0.3546070396	 0.0062358559	 2.1715338085	 0.08288
86.9611	184.7736	229.4775	249.0507	305.8235	325.7943	370.9409	398.2725	455.7917	560.2347	649.0943	695.2573	750.9379	794.6608	809.2952	839.5015	864.1016	912.877	938.0597	982.4395	1000.0718	1022.6815	1044.5279	1061.2239	1079.0989	1114.9812	1129.07	1134.7222	1159.5105	1189.8818	1240.1377	1244.1658	1264.4524	1329.2737	1333.6769	1359.9081	1389.0227	1400.2646	1419.8749	1423.6893	1475.6207	1484.5222	1489.5397	1498.6486	1726.6605	2921.7536	3036.8691	3045.5189	3070.7099	3084.1632	3120.5005	3125.297	3126.559	3134.4017	3145.7998	3152.5146	3223.1112
CC1OC2CC2CC=C1	C[C@H]1O[C@H]2C[C@H]2CC=C1	
InChI=1S/C8H12O/c1-6-3-2-4-7-5-8(7)9-6/h2-3,6-8H,4-5H2,1H3	InChI=1S/C8H12O/c1-6-3-2-4-7-5-8(7)9-6/h2-3,6-8H,4-5H2,1H3/t6-,7-,8+/m1/s1
