19
gdb 103514	2.91163	1.322	1.26503	2.0254	75.48	-0.2479	-0.0128	0.2351	1107.0609	0.158349	-423.011922	-423.003363	-423.002419	-423.044824	33.228	
C	-0.1061706075	 1.5848141091	 0.2173910804	-0.396422
C	-0.0615384997	 0.0636547537	 0.0481205606	-0.192429
C	 0.706035214	-0.4116365226	-1.1919559489	 0.327464
O	 0.0060785759	 0.098282546	-2.3303043553	-0.466699
C	 2.1781838406	-0.0205077402	-1.2274497998	-0.153087
C	 2.9843210681	-1.0726550074	-1.3991179251	-0.101361
C	 2.1893987707	-2.3377271634	-1.4259265532	-0.010379
O	 1.4619247492	-2.5772471148	-0.194241381	-0.253995
C	 0.7805781635	-1.9464190814	-1.2758868675	-0.032082
H	 0.8876597543	 2.0022564222	 0.4095514299	 0.111395
H	-0.5077262375	 2.0617889983	-0.6802622126	 0.133162
H	-0.743648393	 1.857166982	 1.0637865284	 0.111679
H	 0.3883242885	-0.4148334987	 0.9228413577	 0.119488
H	-1.0845295459	-0.3218909829	-0.0401753671	 0.103592
H	 0.5667590708	-0.0391713742	-3.1016465421	 0.277873
H	 2.4973754309	 1.0090797995	-1.1160875354	 0.110697
H	 4.0652474059	-1.0436492094	-1.4657791954	 0.109689
H	 2.5267868539	-3.2320538818	-1.9400699133	 0.1011
H	-0.0590843626	-2.4855390739	-1.7082169104	 0.100314
88.495	143.55	180.0455	231.4546	283.4507	327.6181	357.202	398.8674	420.3995	473.0797	603.8845	640.1644	756.3326	768.0117	795.8205	820.2499	855.2671	874.5643	944.8537	969.4349	981.4522	1001.932	1037.4832	1047.0631	1080.3291	1104.0925	1128.5776	1167.3447	1199.0789	1243.0827	1286.5331	1302.0271	1339.2013	1374.6547	1388.9748	1405.8488	1411.3484	1479.3501	1499.3033	1509.3498	1651.8518	3035.9711	3041.9475	3091.3071	3105.2504	3126.4342	3145.1776	3169.61	3195.276	3218.7976	3805.8642
CCC1(O)C=CC2OC12	CC[C@@]1(O)C=C[C@H]2O[C@@H]12	
InChI=1S/C7H10O2/c1-2-7(8)4-3-5-6(7)9-5/h3-6,8H,2H2,1H3	InChI=1S/C7H10O2/c1-2-7(8)4-3-5-6(7)9-5/h3-6,8H,2H2,1H3/t5-,6-,7-/m1/s1
