21
gdb 57891	3.08907	1.04026	0.88222	3.2036	80.81	-0.24	-0.0222	0.2178	1398.6036	0.180334	-424.241118	-424.231171	-424.230227	-424.276511	36.88	
C	-0.0506965347	 1.5637692941	 0.091076689	-0.388221
C	-0.0715285977	 0.0362540357	 0.0127728738	-0.07391
C	 0.7309244365	-0.6067148699	 1.1648679564	-0.39087
C	-1.4955096579	-0.5121086628	 0.0319675261	 0.41639
O	-2.4363953993	 0.1693398961	 0.4238385915	-0.385299
C	-1.7026288957	-1.8914977409	-0.4531428938	-0.188745
C	-2.8172608605	-2.7283194522	 0.1931411234	-0.326504
C	-3.061607861	-2.1687339916	-1.1567337753	 0.154019
O	-3.9569908285	-1.1492047321	-1.3895682076	-0.418526
H	 0.9795899521	 1.9319905817	 0.075888805	 0.107228
H	-0.5895264285	 2.0118675657	-0.7480945783	 0.12278
H	-0.5307181375	 1.9092370517	 1.0102301852	 0.133374
H	 0.3842259445	-0.2908562963	-0.9319993807	 0.090233
H	 0.3107897805	-0.3171730804	 2.1336558411	 0.131357
H	 0.7281441019	-1.6991608143	 1.107505	 0.12205
H	 1.7710634692	-0.2692404466	 1.1326187229	 0.122961
H	-0.8308869485	-2.4179553264	-0.8242500777	 0.092903
H	-2.6243560423	-3.7892596856	 0.3079536737	 0.121272
H	-3.3285446205	-2.2513428907	 1.0229942816	 0.13646
H	-3.0046868436	-2.8384784423	-2.0088704242	 0.115639
H	-3.8191890785	-0.4885678629	-0.6870581122	 0.30541
40.2336	62.2526	179.4868	195.2403	211.1096	227.5777	245.7964	323.4808	335.6809	412.4321	455.2325	487.604	586.9521	636.4212	723.8528	773.1064	790.607	824.3728	881.506	915.1725	933.298	971.4727	998.8512	1050.4325	1068.5282	1088.999	1113.9019	1117.4661	1141.1126	1146.5813	1202.4725	1235.9718	1309.2159	1353.2775	1363.8217	1396.2362	1409.2048	1421.131	1451.2885	1484.5203	1486.0109	1488.5681	1500.9055	1509.7956	1729.3239	3014.0168	3036.554	3046.0375	3109.1657	3111.4682	3116.1102	3125.913	3131.5675	3166.1821	3177.5851	3227.7497	3614.4938
CC(C)C(=O)C1CC1O	CC(C)C(=O)[C@H]1C[C@H]1O	
InChI=1S/C7H12O2/c1-4(2)7(9)5-3-6(5)8/h4-6,8H,3H2,1-2H3	InChI=1S/C7H12O2/c1-4(2)7(9)5-3-6(5)8/h4-6,8H,3H2,1-2H3/t5-,6+/m0/s1
