17
gdb 26303	3.90152	1.05295	0.86055	3.7958	72.31	-0.1951	0.0177	0.2128	1313.1389	0.135763	-455.167546	-455.158737	-455.157793	-455.201246	32.969	
C	 0.4697528319	 0.9993017839	-0.6730641384	-0.408533
C	-0.0300250923	-0.019432977	 0.3486116129	 0.001656
O	 0.1684039403	 0.4197186034	 1.695135647	-0.426908
C	-1.4634258216	-0.3985339599	 0.1419970055	 0.297637
C	-2.34687908	-0.1480764784	-0.8334676969	-0.152494
O	-3.5609942315	-0.7465048573	-0.5405506185	-0.219268
C	-3.4454474465	-1.371697858	 0.6908695162	 0.467336
N	-4.352347633	-1.9800567863	 1.3316788953	-0.604345
N	-2.132501748	-1.1949083794	 1.0749559688	-0.386246
H	 1.5095858396	 1.2532281898	-0.4561537883	 0.13441
H	 0.413809758	 0.5969342093	-1.6891169495	 0.129305
H	-0.1295051313	 1.9154915243	-0.6349164349	 0.118787
H	 0.5864599163	-0.9253610971	 0.2821274834	 0.112727
H	-0.3360060572	 1.233699094	 1.8126329158	 0.28463
H	-2.2798162723	 0.373889137	-1.7709937729	 0.148778
H	-5.2307497488	-1.9558018964	 0.8211209658	 0.224382
H	-1.8117845537	-1.365468352	 2.0121075689	 0.278145
59.8511	117.9011	161.6904	229.5563	248.4543	321.9475	351.5689	396.3748	455.4815	468.0594	524.1515	591.4552	680.6863	714.841	727.5703	748.2737	764.1405	888.3786	915.4789	992.7531	1039.8862	1061.8353	1079.3183	1101.1462	1125.9121	1224.3466	1237.5591	1286.744	1348.2182	1356.4379	1402.4573	1419.5968	1433.7496	1491.0971	1496.0175	1703.7682	1793.8955	3027.2169	3039.8176	3109.452	3132.7542	3302.6443	3543.1179	3690.0102	3787.5172
CC(O)C1=COC(=N)N1	C[C@@H](O)C1=CO[C@@H]([NH])N1	
InChI=1S/C5H8N2O2/c1-3(8)4-2-9-5(6)7-4/h2-3,8H,1H3,(H2,6,7)	InChI=1S/C5H9N2O2/c1-3(8)4-2-9-5(6)7-4/h2-3,5-8H,1H3/t3-,5+/m1/s1
