23
gdb 61398	2.34067	1.09873	0.91393	4.4775	86.21	-0.2389	0.0368	0.2757	1422.2699	0.203015	-384.486254	-384.475155	-384.47421	-384.522208	41.239	
C	-1.0741457234	 1.3013694024	 0.9208832809	-0.412939
C	 0.0095041613	 0.4946321648	 0.185603493	-0.103671
N	 0.9134601702	-0.1279012441	 1.1498797346	-0.304675
C	 2.3272865474	-0.3587673519	 0.7736844378	 0.262981
C	 3.085912035	 0.9551154015	 0.484811891	-0.405338
C	 2.9676412785	-1.0592178456	 1.9824083164	-0.404883
C	 2.3978426504	-1.2861825916	-0.4489280674	-0.393611
C	-0.6444985419	-0.5321598113	-0.6554903076	 0.312808
N	-1.176079847	-1.3105282797	-1.3240379399	-0.339925
H	-0.6110856359	 2.1369552399	 1.454482369	 0.123924
H	-1.8076483256	 1.7012277905	 0.2177625486	 0.144034
H	-1.5934166514	 0.6635897601	 1.6412503142	 0.147824
H	 0.5263898178	 1.1770670973	-0.5080004209	 0.109264
H	 0.8867891003	 0.4110192576	 2.0082229977	 0.215654
H	 3.059419172	 1.619927949	 1.3557011382	 0.103551
H	 4.136509584	 0.7560361474	 0.2493006867	 0.118306
H	 2.6625495943	 1.4953377343	-0.3682714775	 0.113422
H	 2.4436960767	-1.9923198394	 2.2049935211	 0.127258
H	 4.020606167	-1.2835363477	 1.788078337	 0.114676
H	 2.9240118079	-0.4228393367	 2.8743781002	 0.103265
H	 1.9918108598	-0.8150254035	-1.3489022896	 0.120688
H	 3.4399797467	-1.5454553004	-0.6586018165	 0.110901
H	 1.838355146	-2.2077863829	-0.2700131471	 0.136486
40.9147	87.1155	163.2934	193.4547	213.7115	232.5286	263.8209	276.9494	286.861	319.664	337.4702	347.0849	416.2416	439.1554	490.2022	570.1544	594.3084	689.2904	760.7037	816.5738	905.0683	913.2835	936.298	956.7767	989.4055	1043.486	1043.8313	1068.6947	1109.4253	1167.8313	1231.8876	1253.2725	1273.7949	1320.2262	1358.613	1398.1575	1400.6288	1404.8251	1428.4295	1474.4039	1480.3579	1481.7307	1484.663	1492.5979	1499.1514	1505.062	1514.7589	1522.9933	2356.0278	2971.4026	3025.0983	3030.2583	3044.5076	3046.594	3092.4848	3096.7295	3099.2859	3110.1601	3122.1911	3122.7474	3127.8032	3138.18	3530.6362
CC(NC(C)(C)C)C#N	C[C@@H](NC(C)(C)C)C#N	
InChI=1S/C7H14N2/c1-6(5-8)9-7(2,3)4/h6,9H,1-4H3	InChI=1S/C7H14N2/c1-6(5-8)9-7(2,3)4/h6,9H,1-4H3/t6-/m1/s1
