17
gdb 50741	2.45997	1.51456	0.99393	4.3697	70.22	-0.2368	-0.0257	0.211	1152.397	0.137494	-455.182209	-455.174055	-455.173111	-455.21531	30.256	
O	-0.4409735759	 0.6838826216	-0.8392336531	-0.259995
C	 0.1224443841	 1.0198254905	 0.1704320118	 0.154181
C	 1.3060586828	 1.9780538573	 0.1578153495	-0.180016
N	 1.3172259148	 2.7765843373	-1.0461120542	-0.305127
C	 2.4302226497	 3.7070957408	-1.0655502965	-0.163315
C	 2.1727602163	 4.7489388028	 0.0213407426	-0.132498
N	 1.8517928704	 4.0860285692	 1.281233318	-0.329769
C	 1.3515443964	 2.8294692383	 1.432198831	 0.432034
O	 1.0173312004	 2.3717554085	 2.5104774016	-0.37987
H	-0.1448947436	 0.6337854469	 1.1712167465	 0.123339
H	 2.1935093009	 1.3101786921	 0.260833202	 0.111384
H	 1.2531405892	 2.1848914818	-1.8650525614	 0.239231
H	 3.4093776725	 3.2228162159	-0.8893552693	 0.090087
H	 2.4746714018	 4.2058249983	-2.0374854106	 0.114887
H	 3.0590310422	 5.3761322074	 0.166477937	 0.112274
H	 1.343084893	 5.3964352492	-0.2914246302	 0.12172
H	 1.8400053051	 4.6359549121	 2.1287453453	 0.251451
75.688	134.6271	161.4907	202.9548	287.3148	343.2433	405.9376	465.5272	505.012	559.1193	623.3809	663.4661	708.391	750.8035	789.8342	907.1729	923.2561	1012.1637	1035.0321	1080.8588	1108.0914	1132.9063	1186.2908	1240.5543	1259.8871	1276.3004	1314.8016	1345.454	1381.3538	1397.8727	1413.9534	1471.4998	1482.884	1498.9016	1521.2129	1784.0948	1826.3686	2833.6971	2923.4137	2977.4994	3016.465	3068.1312	3091.4609	3562.2736	3602.4077
O=CC1NCCNC1=O	O=C[C@H]1NCCNC1=O	
InChI=1S/C5H8N2O2/c8-3-4-5(9)7-2-1-6-4/h3-4,6H,1-2H2,(H,7,9)	InChI=1S/C5H8N2O2/c8-3-4-5(9)7-2-1-6-4/h3-4,6H,1-2H2,(H,7,9)/t4-/m1/s1
