20
gdb 68543	2.1214	1.92389	1.60034	2.5984	78.95	-0.2188	0.011	0.2297	986.3369	0.170023	-403.101722	-403.093063	-403.092119	-403.133958	34.907	
C	-0.0181864786	 1.523034725	-0.0450208332	-0.527203
C	-0.0016843851	 0.0184254	 0.0062734815	 0.252034
N	 0.425534598	-0.758081116	-1.239638557	-0.353559
C	-0.256276139	-1.8982390127	-0.5068809879	-0.140624
C	 0.6603557046	-2.00929688	 0.7048842121	-0.069681
C	 0.8305510138	-0.7297739915	 1.0489069338	-0.108875
C	-1.3321483958	-0.854206972	 0.0203818608	 0.416133
C	-2.1564806032	-1.0960852063	 1.2770377976	-0.490703
O	-2.1773264054	-0.3721694707	-1.0135283503	-0.480848
H	 0.9643718376	 1.9045218712	-0.3401588637	 0.130241
H	-0.7598481605	 1.8749293626	-0.767649092	 0.13236
H	-0.2689479859	 1.9465157044	 0.9334495188	 0.115782
H	-0.218055282	-0.4737080702	-1.9825242191	 0.21804
H	-0.5263867167	-2.7905153247	-1.072806017	 0.058487
H	 1.0290988999	-2.9161993587	 1.1615920021	 0.103742
H	 1.3814106542	-0.2841016294	 1.8649988654	 0.101175
H	-1.5493069622	-1.4391628648	 2.1139625693	 0.13205
H	-2.672622351	-0.1750575996	 1.567644558	 0.124974
H	-2.9222015642	-1.8597780447	 1.0844342147	 0.10549
H	-3.0049361285	-0.8617806017	-0.981234024	 0.280985
182.3034	192.1622	205.5588	238.2829	243.6136	282.8687	326.2219	400.4674	432.7567	504.4115	561.852	594.0517	630.2573	645.6086	728.7403	741.3584	817.43	852.4149	894.777	910.1683	927.7281	946.3555	961.1787	1060.0153	1085.7063	1105.5202	1112.6261	1151.511	1165.1347	1172.0259	1211.3245	1254.1603	1285.7606	1312.0313	1356.2724	1393.5854	1399.7426	1412.3153	1485.3216	1487.9278	1497.0971	1501.0941	1620.8191	3019.3521	3036.1224	3084.9926	3103.2394	3113.7282	3115.7426	3150.9709	3220.8706	3248.0881	3427.1153	3820.8884
CC12NC(C=C1)C2(C)O	C[C@@]12N[C@@H](C=C1)[C@]2(C)O	
InChI=1S/C7H11NO/c1-6-4-3-5(8-6)7(6,2)9/h3-5,8-9H,1-2H3	InChI=1S/C7H11NO/c1-6-4-3-5(8-6)7(6,2)9/h3-5,8-9H,1-2H3/t5-,6+,7-/m0/s1
