20
gdb 94296	3.13167	1.21148	1.03888	2.9941	80.87	-0.2549	0.0317	0.2865	1227.2719	0.170848	-403.150839	-403.142295	-403.14135	-403.184088	33.026	
C	-0.4486637072	 1.4440829517	-0.1927674081	-0.427813
C	 0.1724191708	 0.0572838046	-0.2090411292	-0.014953
C	 1.6380800048	-0.1377245591	-0.6986143292	-0.24067
C	 1.8206817532	-1.2250672523	 0.3966956105	-0.296381
C	 0.5884204816	-0.6404685458	 1.1069044727	 0.431551
C	 0.7157758016	 0.1121084063	 2.4498538479	-0.435855
C	-0.2657302071	-0.926837714	 2.9441867421	 0.420718
N	-0.8226518712	-1.1692004789	 4.041028457	-0.544855
O	-0.363156284	-1.5660274653	 1.7255343641	-0.282585
H	 0.1999760736	 2.1681800883	 0.3122699858	 0.115894
H	-0.61328844	 1.8069244006	-1.2127840082	 0.12159
H	-1.4177639143	 1.4427802047	 0.3181402656	 0.126621
H	-0.480828963	-0.6411845718	-0.7449736889	 0.092266
H	 1.7846529602	-0.4396512257	-1.736999205	 0.106297
H	 2.249014513	 0.7483417072	-0.5016933753	 0.105423
H	 1.6016090117	-2.2271241893	 0.018485013	 0.121188
H	 2.75940963	-1.2517932491	 0.9548478119	 0.104652
H	 1.6986903737	 0.0770151252	 2.9234088282	 0.134188
H	 0.3380734387	 1.1356039361	 2.4694925909	 0.137166
H	-1.4370482262	-1.9823735433	 3.9693281942	 0.225558
78.069	100.3064	208.4547	214.9811	258.8982	310.2347	412.212	424.9265	479.059	499.0004	521.1294	671.8294	782.9717	784.3924	861.9759	864.9231	876.8968	896.057	935.5499	948.4234	972.863	1016.5064	1043.3762	1062.2377	1087.4333	1145.7983	1169.4435	1175.7759	1192.4878	1224.0274	1248.526	1266.8454	1272.0856	1297.2711	1318.2719	1376.7669	1410.661	1462.1471	1477.8781	1495.9359	1496.3427	1498.8097	1825.7954	3028.0516	3042.6802	3061.0711	3064.7173	3084.8349	3096.5853	3098.0222	3112.6743	3126.1313	3138.6581	3472.5183
CC1CCC11CC(=N)O1	C[C@H]1CC[C@]21C[C]([NH])O2	
InChI=1S/C7H11NO/c1-5-2-3-7(5)4-6(8)9-7/h5,8H,2-4H2,1H3	InChI=1S/C7H11NO/c1-5-2-3-7(5)4-6(8)9-7/h5,8H,2-4H2,1H3/t5-,7+/m0/s1
