19
gdb 59853	3.22315	0.93515	0.81181	1.4846	73.81	-0.2484	-0.0669	0.1815	1489.5147	0.154854	-460.221831	-460.211161	-460.210217	-460.258843	36.767	
C	 0.0159199294	 1.387391524	-0.0128150142	-0.398268
C	-0.0885794663	-0.1329335025	 0.0320195793	 0.141583
C	-1.515982682	-0.6502140476	-0.0524535843	-0.392721
O	 0.6095515637	-0.6984552414	-1.1169821739	-0.232893
C	 1.9243076301	-0.8599207882	-1.0106485849	 0.347364
O	 2.6036405375	-0.5786036797	-0.0513552728	-0.356351
C	 2.5290049642	-1.4779149222	-2.297093645	 0.284525
C	 4.0165810224	-1.7188614819	-2.2266534403	-0.470725
O	 1.8393597532	-1.7265669921	-3.2516050671	-0.263562
H	 1.0590671794	 1.7045161522	 0.0502647462	 0.140575
H	-0.4209278162	 1.7757290097	-0.9380005651	 0.128111
H	-0.5253016521	 1.8216909087	 0.8333522463	 0.122928
H	 0.4099652797	-0.5093901756	 0.9299255911	 0.111294
H	-1.998750816	-0.3051237154	-0.9715516093	 0.132708
H	-1.5347368138	-1.7430109559	-0.0427616267	 0.129172
H	-2.0952249607	-0.2859579403	 0.8010946793	 0.122022
H	 4.5399118515	-0.7773753778	-2.031542585	 0.156768
H	 4.2517291206	-2.3763649868	-1.3836863574	 0.156139
H	 4.3600318551	-2.1593580172	-3.1627123463	 0.14133
31.7372	67.8893	89.3231	113.9257	136.4436	216.9666	245.4281	267.8256	306.3933	372.5309	399.866	434.3981	484.4111	527.8142	603.9362	725.8823	820.8498	864.0878	919.2162	935.1128	952.5705	984.3545	1036.8583	1134.6925	1162.3456	1168.2727	1204.0678	1314.954	1363.917	1383.1106	1390.7895	1401.4956	1418.1391	1452.6786	1460.184	1481.0357	1486.2631	1495.0808	1510.5283	1792.9914	1830.4685	3043.1994	3047.3022	3049.5672	3072.6672	3110.9294	3114.32	3123.5066	3125.9748	3134.5027	3162.354
CC(C)OC(=O)C(C)=O	CC(C)OC(=O)C(=O)C	
InChI=1S/C6H10O3/c1-4(2)9-6(8)5(3)7/h4H,1-3H3	InChI=1S/C6H10O3/c1-4(2)9-6(8)5(3)7/h4H,1-3H3
