16
gdb 5781	5.83824	1.38532	1.20201	0.8292	70.05	-0.2178	0.0232	0.241	993.8162	0.132204	-346.615959	-346.609148	-346.608204	-346.647718	25.875	
C	 0.1719949761	 1.5852273687	 0.0671317982	-0.268554
C	 1.3040796448	 0.6176368132	-0.1590421416	-0.249975
C	-0.10878655	 0.1032584898	 0.039511887	-0.122091
C	-0.4810209029	-0.6349750499	 1.2682687952	 0.247002
C	-1.0166172286	-0.1394850957	 2.4179429342	-0.101436
O	-1.2231667875	-1.1288131312	 3.3293342825	-0.144879
C	-0.8174585212	-2.2872651937	 2.7464380086	 0.007817
C	-0.3558791339	-2.0532551109	 1.4929018852	-0.288716
H	 0.1324894108	 2.0943479236	 1.0234302688	 0.113505
H	-0.1731282145	 2.1838182673	-0.7682435934	 0.11233
H	 1.7377737182	 0.548843908	-1.1505671531	 0.110966
H	 2.006364702	 0.4667004721	 0.6530400266	 0.117445
H	-0.5883387159	-0.2646269398	-0.8643306537	 0.092767
H	-1.3059344768	 0.8503424149	 2.7292088466	 0.132546
H	-0.9200539171	-3.1747443643	 3.3489977977	 0.133523
H	 0.0334361865	-2.7852901123	 0.8021601012	 0.10775
43.3688	155.7759	185.508	375.2215	436.549	592.3545	621.0088	674.1531	735.2611	780.5327	795.4604	827.0669	836.5315	889.7785	898.1916	928.4955	984.08	1052.6897	1059.052	1082.178	1091.354	1114.3442	1132.714	1194.3661	1199.4551	1214.3638	1249.0916	1275.9675	1379.7637	1420.3435	1466.8454	1501.1369	1543.1101	1636.6591	3129.0157	3134.3959	3140.623	3214.8474	3229.6328	3249.7298	3276.779	3282.9757
C1CC1C1=COC=C1	C1CC1c1cocc1	
InChI=1S/C7H8O/c1-2-6(1)7-3-4-8-5-7/h3-6H,1-2H2	InChI=1S/C7H8O/c1-2-6(1)7-3-4-8-5-7/h3-6H,1-2H2
