17
gdb 107546	2.50208	1.43703	1.14456	3.3962	69.67	-0.2458	-0.0334	0.2125	1108.6937	0.132856	-458.901239	-458.89248	-458.891536	-458.935141	31.439	
C	 0.0264870873	 1.3371777898	 0.3338577126	-0.257109
O	-0.0350902029	 0.0318605322	-0.229811283	-0.271797
C	-1.2639269259	-0.5570575708	-0.1404123638	 0.324979
C	-1.9006744167	-1.054188936	 1.1442746119	-0.364426
C	-1.6420412697	-2.0031142906	 0.0044529561	 0.023422
O	-2.6824825299	-1.9146813425	-0.9747889957	-0.278722
C	-2.3443621677	-0.5455117659	-1.2620570117	-0.022779
C	-3.4512671261	 0.4586697009	-1.0855291466	 0.139617
O	-4.4943148234	 0.252954222	-0.5215330733	-0.244679
H	 1.061259597	 1.6713906241	 0.2404265974	 0.137228
H	-0.6268425073	 2.0382915687	-0.203793598	 0.114871
H	-0.2622848172	 1.32742491	 1.3923324982	 0.123787
H	-1.1917912677	-1.136836275	 1.9628493908	 0.125623
H	-2.921422911	-0.8019654143	 1.414960047	 0.145363
H	-1.0609924485	-2.9152206156	 0.0525629383	 0.12277
H	-1.8832247167	-0.4478415482	-2.2537719071	 0.107697
H	-3.1924964936	 1.4667128913	-1.4909195331	 0.074156
81.3399	97.9464	124.4843	175.88	223.6322	252.47	327.4007	384.187	442.0191	465.6389	650.8956	716.1152	750.8756	855.7527	886.2652	891.2052	961.2317	997.7555	1008.6754	1042.0965	1072.1058	1075.9753	1087.7951	1122.2934	1179.4505	1191.8607	1201.5638	1227.6312	1273.3708	1346.372	1386.4029	1416.9348	1460.9255	1487.9752	1498.9413	1505.0173	1830.1731	2842.1138	3000.962	3031.261	3062.5251	3123.1458	3134.5359	3201.0373	3220.8593
COC12CC1OC2C=O	CO[C@]12C[C@H]1O[C@H]2C=O	
InChI=1S/C6H8O3/c1-8-6-2-4(6)9-5(6)3-7/h3-5H,2H2,1H3	InChI=1S/C6H8O3/c1-8-6-2-4(6)9-5(6)3-7/h3-5H,2H2,1H3/t4-,5+,6-/m1/s1
