15
gdb 79919	2.66256	1.5828	1.34409	6.6293	71.95	-0.1732	-0.0185	0.1547	977.2548	0.11175	-453.862009	-453.853962	-453.853018	-453.894191	31.211	
N	-0.044193903	 1.2439182346	 0.1008812765	-0.602251
C	 0.0818759924	-0.0807628665	 0.1280764448	 0.456642
N	-0.9698393054	-0.9429262449	 0.1217241321	-0.277607
H	-1.9178336585	-0.7257736333	-0.156694996	 0.252773
C	-0.3079724087	-2.2408149858	-0.1488510769	-0.171133
C	 0.8350557485	-2.1145490938	 0.8741437665	 0.169014
O	 1.7652874735	-3.1578819701	 0.8148524543	-0.446132
C	 1.3339102075	-0.8309568885	 0.0738458976	-0.447198
C	 0.7805194006	-1.7067267635	-1.1771332347	 0.367182
O	 1.0694810404	-1.886975633	-2.3094688498	-0.285683
H	 0.8108685343	 1.7756012472	 0.1049050262	 0.287671
H	-0.9192136037	 1.7198496017	-0.0512810562	 0.264501
H	-1.0076946657	-3.0750489137	-0.2531835379	 0.081986
H	 0.4869208175	-1.9218886995	 1.8988657273	 0.060822
H	 2.6201387902	-2.7332316509	 0.6659739461	 0.289415
105.3314	154.7409	273.4613	293.2464	319.2518	350.247	369.9031	419.394	460.8025	525.1193	565.8227	607.3566	654.0587	736.7494	772.202	812.0759	873.0988	893.6918	953.2484	977.9318	992.9239	1016.0025	1112.4293	1133.8307	1191.053	1216.9643	1324.7197	1338.1036	1374.0647	1389.1242	1560.782	1659.837	1916.3754	3007.9338	3072.9239	3567.8113	3581.7382	3716.1427	3762.2593
NC1=[NH+]C2C(O)[C-]1C2=O	N[C]1N[C@@H]2[C@@H](O)[C]1C2=O	
InChI=1S/C5H5N2O2/c6-5-1-3(8)2(7-5)4(1)9/h2-3,8H,(H2,6,7)/q-1/p+1	InChI=1S/C5H6N2O2/c6-5-1-3(8)2(7-5)4(1)9/h2-3,7-8H,6H2/t2-,3+/m1/s1
