25
gdb 117703	3.52669	0.7176	0.71163	2.6989	90.08	-0.2454	-0.0233	0.222	1757.8586	0.225342	-389.514058	-389.502428	-389.501483	-389.551624	41.87	
C	 0.100527314	 1.6757044507	-0.0766448729	-0.376327
C	-0.0190335094	 0.1507848654	 0.0192318395	-0.194002
C	 0.6567348544	-0.5546518725	-1.1643429945	-0.17098
C	 0.6258491558	-2.1051675448	-1.177354893	 0.240317
C	 1.4261394433	-2.6721937595	 0.0117451293	-0.418945
C	-0.8220716246	-2.6271586956	-1.1299006468	-0.411623
C	 1.2835876929	-2.5448322298	-2.5247892955	-0.284702
C	 1.4534221183	-4.0398276159	-2.6692440466	 0.14305
O	 0.699482145	-4.7560783515	-3.280373709	-0.24505
H	 1.1497073487	 1.9917548994	-0.0839471489	 0.113825
H	-0.3630461816	 2.0524726811	-0.9951867577	 0.114962
H	-0.389359469	 2.1673029831	 0.7695092836	 0.112148
H	 0.4249712387	-0.183565571	 0.9642359946	 0.098696
H	-1.0791022236	-0.1242243833	 0.0632804377	 0.10203
H	 0.1903038946	-0.1957851478	-2.0923086938	 0.091043
H	 1.706059673	-0.2306478799	-1.2113770597	 0.087217
H	 1.0132075998	-2.3275960945	 0.9638919506	 0.120505
H	 1.4001696157	-3.7664526899	 0.0310985851	 0.117702
H	 2.4762835769	-2.3613050063	-0.0288451062	 0.1093
H	-1.4327924139	-2.1668375571	-1.9142102987	 0.113499
H	-0.8593410044	-3.7100045806	-1.2791448897	 0.130078
H	-1.290145875	-2.4083462971	-0.1658682681	 0.114179
H	 0.6660999089	-2.194979146	-3.3582438465	 0.116365
H	 2.2744589314	-2.0782151401	-2.6011707744	 0.100813
H	 2.3441501903	-4.4692582665	-2.1560131486	 0.075902
37.5717	68.2455	77.9188	111.9687	149.4916	233.9678	250.6254	254.3769	283.9877	308.3033	320.1202	330.6689	397.5925	409.2741	523.0485	530.4934	731.4087	746.8536	840.0011	868.8465	914.2018	922.7157	946.2019	960.0192	992.1612	1018.9475	1047.5893	1053.2333	1103.4804	1115.004	1189.3983	1204.9567	1234.8886	1255.0704	1306.0491	1314.0791	1326.9151	1353.8973	1394.1932	1405.1041	1412.1109	1427.9806	1433.1467	1467.052	1480.5864	1483.3567	1492.885	1496.5163	1500.7984	1506.6944	1508.88	1515.2302	1822.6268	2864.7323	2999.419	3021.8737	3028.8474	3030.6296	3032.2763	3033.7203	3038.5844	3067.6057	3090.4323	3095.7585	3098.1041	3102.6125	3103.9957	3109.3506	3115.0546
CCCC(C)(C)CC=O	CCCC(C)(C)CC=O	
InChI=1S/C8H16O/c1-4-5-8(2,3)6-7-9/h7H,4-6H2,1-3H3	InChI=1S/C8H16O/c1-4-5-8(2,3)6-7-9/h7H,4-6H2,1-3H3
