18
gdb 56298	7.11207	0.50635	0.47828	4.6794	74.45	-0.2487	0.021	0.2697	2145.3247	0.146734	-435.300417	-435.289971	-435.289027	-435.33811	35.311	
N	-0.0754449822	 1.3391651111	 0.1120385114	-0.524963
C	 0.0605854631	-0.0002611558	-0.1164983309	 0.419341
O	 1.1331822795	-0.5132368519	-0.3700261289	-0.354873
C	-1.2385162804	-0.798928334	-0.0242152335	-0.339385
C	-0.975505906	-2.2997421714	 0.0482401051	-0.11771
N	-2.2338747036	-3.0393556034	-0.0244765206	-0.30779
C	-2.0293577777	-4.4827741206	 0.0051373131	-0.259606
C	-3.3089599994	-5.1968343707	-0.022670751	 0.254551
N	-4.318136994	-5.7584765319	-0.0198416571	-0.298089
H	 0.7272460874	 1.9273853584	-0.0426952828	 0.262817
H	-0.9758773923	 1.7746668243	 0.2107677832	 0.259229
H	-1.8187581841	-0.4605575209	 0.8440022431	 0.110839
H	-1.8507062209	-0.5828001799	-0.9087138014	 0.141877
H	-0.3498881573	-2.5884869671	-0.8020111012	 0.134437
H	-0.3877784524	-2.5319765651	 0.9533195306	 0.097991
H	-2.8395584238	-2.7748212584	 0.7467491256	 0.227848
H	-1.450593587	-4.7740873983	-0.8802085868	 0.160395
H	-1.4584690189	-4.8427731643	 0.8811609823	 0.133093
26.5736	43.969	79.9932	114.9654	129.1948	173.1491	216.4967	304.4064	325.7256	394.2339	476.3911	508.5646	556.2773	627.9478	646.2495	782.1436	812.487	859.5754	942.6665	991.9325	1042.9852	1070.3544	1086.5924	1130.4741	1145.7109	1194.0489	1250.064	1276.0145	1314.3084	1348.498	1389.9746	1426.6023	1469.3707	1489.9801	1498.5278	1513.8681	1619.4263	1798.2577	2368.5527	2935.7766	2956.348	3025.7188	3050.1539	3063.1853	3085.6989	3511.0164	3599.7547	3734.4077
NC(=O)CCNCC#N	NC(=O)CCNCC#N	
InChI=1S/C5H9N3O/c6-2-4-8-3-1-5(7)9/h8H,1,3-4H2,(H2,7,9)	InChI=1S/C5H9N3O/c6-2-4-8-3-1-5(7)9/h8H,1,3-4H2,(H2,7,9)
