18
gdb 81058	2.59445	1.57879	1.17101	4.3847	72.67	-0.2513	0.0146	0.2659	1070.5357	0.148259	-439.069352	-439.060932	-439.059988	-439.102636	32.286	
N	 0.1366418385	 1.1127462975	 0.4005561502	-0.533523
C	-0.0456463869	-0.1085785512	-0.1624856111	 0.277848
O	 0.8374672294	-0.7040697697	-0.7671385752	-0.382123
C	-1.3987165151	-0.7357722077	-0.0230937187	 0.207164
C	-2.5616904959	-0.5985556448	 0.9991781342	-0.307943
C	-2.9981164849	-1.7335215228	 0.0196225363	-0.095042
C	-2.4917601076	-0.8345717564	-1.1437008632	-0.250229
C	-1.5438596044	-2.2756060794	 0.1440274007	 0.163268
O	-1.0343265677	-3.085695768	-0.8725423972	-0.457096
H	 1.034468932	 1.5615630748	 0.3156319546	 0.264107
H	-0.6009749914	 1.5793066685	 0.8980051951	 0.265923
H	-2.346403911	-0.8878998071	 2.0320070926	 0.099418
H	-3.1532999545	 0.3192813718	 0.9525488717	 0.094282
H	-3.9253562728	-2.3046567213	 0.0594934659	 0.081117
H	-3.0570088906	 0.0800500813	-1.340402029	 0.087983
H	-2.1918962092	-1.3449761019	-2.0567373764	 0.123481
H	-1.2749298304	-2.6569846584	 1.1395609047	 0.063222
H	-0.1644984476	-2.7171095752	-1.0870024752	 0.298144
48.3329	139.5166	192.1797	202.5386	295.3664	338.5991	413.6315	446.6286	496.1719	521.5404	588.0146	637.6489	663.6361	744.5695	798.141	838.169	893.5002	934.1634	946.2904	983.2574	1022.7421	1053.9672	1082.3519	1087.7655	1138.7115	1152.2251	1161.2027	1171.4124	1207.6945	1217.4371	1243.0247	1250.7259	1377.3842	1405.2852	1417.4229	1488.6584	1528.3574	1614.1056	1755.6182	2999.4847	3049.3332	3069.3027	3114.3142	3118.5459	3164.6038	3599.4777	3725.3426	3739.8156
NC(=O)C12CC(C1)C2O	NC(=O)[C@@]12C[C@@H](C1)[C@H]2O	
InChI=1S/C6H9NO2/c7-5(9)6-1-3(2-6)4(6)8/h3-4,8H,1-2H2,(H2,7,9)	InChI=1S/C6H9NO2/c7-5(9)6-1-3(2-6)4(6)8/h3-4,8H,1-2H2,(H2,7,9)/t3-,4-,6-/m1/s1
