21
gdb 121993	2.36952	0.7601	0.59828	3.4208	77.92	-0.2588	0.0068	0.2656	1863.4699	0.178988	-461.379832	-461.368802	-461.367858	-461.417657	37.284	
C	-0.0182891251	 1.3690650794	 0.0487977892	-0.229852
O	-0.0221812809	-0.0360733651	-0.035834276	-0.231516
C	-1.3147539797	-0.5878924803	 0.0736179903	-0.062491
C	-1.1828105808	-2.1055083797	 0.0254346368	-0.200887
C	-2.521395927	-2.836352172	 0.0313057716	 0.099435
C	-2.3738656818	-4.3514228047	-0.0561147229	-0.393947
O	-3.196933969	-2.4995402352	 1.2675323008	-0.18896
C	-4.5244609802	-2.2944084309	 1.2314220727	 0.171117
O	-5.1733478983	-2.0635078031	 2.2076208321	-0.277642
H	 1.0194452086	 1.6992935434	-0.0399713215	 0.128071
H	-0.6080007539	 1.829376171	-0.7602082383	 0.102998
H	-0.4236706485	 1.721826931	 1.0101556545	 0.108141
H	-1.7937444858	-0.274758232	 1.0141847378	 0.108786
H	-1.9568600385	-0.2313614774	-0.752920961	 0.078224
H	-0.6387330846	-2.3824863335	-0.8841961726	 0.113793
H	-0.5808902593	-2.4426808275	 0.8762736902	 0.122823
H	-3.1392415423	-2.475500973	-0.803860528	 0.088336
H	-1.7980489889	-4.7272715189	 0.7945863447	 0.138654
H	-3.3526253971	-4.8399135253	-0.0502591518	 0.124614
H	-1.8559778741	-4.6313705569	-0.9783271646	 0.125806
H	-4.9416725629	-2.3525602692	 0.2060475561	 0.074498
42.1934	65.7254	72.8256	122.4444	142.843	158.8817	222.1942	227.1095	262.1605	280.8903	316.76	423.6134	497.0089	536.8741	612.1646	806.8228	893.3173	952.2587	984.8165	989.042	1046.9467	1051.3628	1116.8249	1135.6908	1159.5634	1170.7777	1182.3805	1213.3747	1230.2355	1254.642	1302.543	1312.1615	1375.7065	1384.5069	1411.6402	1431.7422	1441.2667	1479.1405	1481.7281	1485.2317	1488.7563	1496.8269	1505.3867	1535.8271	1863.2973	2934.9919	2936.2834	2970.0536	3000.4141	3002.6287	3014.1838	3041.8671	3048.8429	3093.6922	3115.315	3117.2361	3123.4241
COCCC(C)OC=O	COCC[C@@H](C)OC=O	
InChI=1S/C6H12O3/c1-6(9-5-7)3-4-8-2/h5-6H,3-4H2,1-2H3	InChI=1S/C6H12O3/c1-6(9-5-7)3-4-8-2/h5-6H,3-4H2,1-2H3/t6-/m1/s1
