18
gdb 96934	3.28124	1.23835	1.18092	2.671	74.22	-0.2365	0.0315	0.268	1134.779	0.147159	-439.076393	-439.067619	-439.066675	-439.110662	31.847	
C	-0.2587027693	 1.3288898292	 0.5045544498	-0.331424
N	-0.2065601883	-0.1207988694	 0.423910059	-0.317825
C	-1.1346659977	-0.7563752852	-0.1328519586	 0.433879
C	-1.2115983888	-2.2687829269	-0.2725258256	-0.328378
C	-2.5657530187	-2.5280235105	-0.9051650693	-0.134745
C	-3.7729346882	-2.0352233677	-0.133595063	 0.078501
O	-3.6032501537	-1.7398436458	 1.2164448083	-0.415926
C	-3.1368763936	-1.1587014279	-1.1844267552	 0.018335
O	-2.251801176	-0.171939349	-0.7109591232	-0.251263
H	 0.4930615265	 1.7577106314	-0.1693003294	 0.125165
H	-1.2335762772	 1.7610372696	 0.2507868696	 0.116586
H	 0.0142340033	 1.6379704314	 1.5192523139	 0.122079
H	-0.4011810312	-2.6260405352	-0.9142843124	 0.130974
H	-1.0926855796	-2.7312156987	 0.709384058	 0.149717
H	-2.6837924675	-3.3498347445	-1.5999954028	 0.1018
H	-4.7301389334	-2.4865715203	-0.3942218705	 0.095481
H	-3.8794678333	-0.8289218469	 1.3652154668	 0.298346
H	-3.6506826733	-0.8628451436	-2.0910285255	 0.1087
47.5569	71.9209	146.457	200.1838	232.0743	252.0236	268.0244	461.8362	521.941	592.3935	608.8553	701.9865	738.5496	781.8329	790.7723	825.7553	942.3665	967.1992	1032.3442	1048.8995	1064.7118	1070.0198	1098.9119	1124.6473	1132.3362	1151.0514	1194.6725	1196.006	1224.959	1295.284	1319.7151	1337.3472	1362.0266	1431.8361	1438.6915	1467.5346	1493.2508	1498.3459	1811.7912	3014.5099	3069.6579	3073.3661	3086.7594	3104.2327	3117.3658	3183.8604	3194.308	3805.3173
CN=C1CC2C(O)C2O1	CN=C1C[C@H]2[C@@H](O)[C@H]2O1	
InChI=1S/C6H9NO2/c1-7-4-2-3-5(8)6(3)9-4/h3,5-6,8H,2H2,1H3	InChI=1S/C6H9NO2/c1-7-4-2-3-5(8)6(3)9-4/h3,5-6,8H,2H2,1H3/t3-,5+,6-/m0/s1
