23
gdb 94803	2.78484	1.32015	1.09479	1.3561	85.54	-0.2572	0.0672	0.3244	1231.5655	0.206384	-388.295568	-388.286381	-388.285437	-388.329506	36.192	
C	-0.3452999181	 1.4593669049	 0.0231766795	-0.438125
C	 0.0791877821	-0.0071263169	 0.0415082756	 0.035502
C	 0.8992963054	-0.4697953244	-1.1755265664	-0.209117
C	 1.4351439742	-1.8491293705	-0.748332316	-0.304073
C	 1.5968981176	-1.7416884712	 0.7778073462	 0.404602
C	 1.4854571269	-2.9670787557	 1.6544161583	-0.32671
C	 2.8117157099	-2.2732329304	 1.4901435589	-0.300489
C	 0.9848145782	-0.4141559798	 1.2285688092	 0.004671
O	 2.0489312514	 0.5180321048	 1.4363320105	-0.434037
H	 0.5252857012	 2.1196404812	-0.0519250691	 0.117837
H	-0.9898161773	 1.6706583533	-0.8360141856	 0.117365
H	-0.9057287783	 1.7308678269	 0.9260052341	 0.106367
H	-0.8210163532	-0.6356570213	 0.1074409508	 0.069775
H	 0.3145842155	-0.5022640931	-2.0994580961	 0.086762
H	 1.7303405341	 0.2276009948	-1.3298794888	 0.108079
H	 0.7071553383	-2.6297927016	-1.0011795542	 0.09454
H	 2.3714193609	-2.1095879748	-1.2509087131	 0.097041
H	 0.9721923482	-2.875586938	 2.6067323167	 0.106047
H	 1.3405797976	-3.9237816387	 1.1617934496	 0.104417
H	 3.5731945737	-2.758967891	 0.8883675008	 0.105534
H	 3.1989764104	-1.6903349034	 2.3176023713	 0.121239
H	 0.4073508879	-0.5251258925	 2.1581209004	 0.05158
H	 1.6616168937	 1.3352368175	 1.7658882873	 0.281193
35.2301	166.6039	216.5186	224.7465	253.2715	279.562	316.8817	348.8812	376.2789	445.8028	505.9027	547.7943	613.7645	768.5412	785.143	817.1119	871.3584	893.4814	911.4876	939.6448	955.7071	971.2582	973.722	999.7382	1015.1432	1056.447	1075.1692	1092.7222	1130.3665	1150.851	1188.3318	1190.6805	1212.1429	1226.3498	1287.7273	1297.4493	1309.7104	1325.9422	1338.2893	1365.8266	1387.1504	1403.637	1426.6362	1469.2025	1486.7268	1498.0288	1502.1137	1503.5753	1507.4056	2983.7937	3003.3045	3023.6556	3025.7172	3043.5809	3075.2984	3087.5886	3093.389	3100.3225	3117.7311	3132.6959	3198.473	3223.0496	3817.6309
CC1CCC2(CC2)C1O	C[C@H]1CCC2(CC2)[C@H]1O	
InChI=1S/C8H14O/c1-6-2-3-8(4-5-8)7(6)9/h6-7,9H,2-5H2,1H3	InChI=1S/C8H14O/c1-6-2-3-8(4-5-8)7(6)9/h6-7,9H,2-5H2,1H3/t6-,7-/m0/s1
