23
gdb 92509	2.60377	1.43322	1.02216	0.1513	94.21	-0.2106	0.0301	0.2407	1263.113	0.206324	-351.154872	-351.145873	-351.144929	-351.188157	35.281	
C	-0.2200324182	 1.537398768	 0.0628837204	-0.399975
C	-0.0147746059	 0.0206826301	-0.0046779583	-0.044867
C	 0.8287040109	-0.4256822664	-1.2463981279	-0.250776
C	 1.5112815128	-1.7205158862	-0.7739356125	-0.032412
C	 3.0565142392	-1.9812741441	-0.649993273	-0.237586
C	 2.8444197372	-2.2920465034	 0.8808549737	-0.320877
C	 1.5213480805	-1.5748583309	 0.7204782051	 0.221272
C	 0.7735423399	-0.5741622408	 1.1805842643	 0.140556
C	 0.6944363143	-0.0354386872	 2.5745899225	-0.500431
H	 0.73922625	 2.0620690995	 0.142781612	 0.111037
H	-0.7218482606	 1.8986996965	-0.8411252695	 0.111486
H	-0.8359829961	 1.8286566666	 0.9200683303	 0.11138
H	-1.0118129355	-0.4456661	-0.0571558446	 0.071268
H	 0.2199928557	-0.5369928122	-2.1494676075	 0.08762
H	 1.5832940471	 0.3450109447	-1.4503506023	 0.091775
H	 1.0000515117	-2.6229681596	-1.1334411079	 0.067404
H	 3.4840085498	-2.7803423461	-1.2611585692	 0.094841
H	 3.6346085439	-1.0644593803	-0.7931680643	 0.10289
H	 2.7436832143	-3.3689111543	 1.0569112826	 0.106615
H	 3.5652188516	-1.8874262139	 1.5963160346	 0.103903
H	 0.9299194569	 1.0348793359	 2.6163913378	 0.122713
H	-0.3166714557	-0.1463642146	 2.9895368914	 0.12266
H	 1.3840706762	-0.5614003612	 3.2408604623	 0.119504
97.5842	142.4348	166.2063	217.2348	242.6911	259.3579	304.6398	378.729	433.1016	492.6826	535.1492	614.8023	663.8111	702.1561	801.7945	821.4443	875.1238	899.9563	904.7962	915.4858	991.2098	1020.5631	1021.0904	1048.8112	1075.895	1089.7215	1127.4015	1136.063	1151.9441	1183.7194	1199.5987	1226.9795	1238.1868	1248.2282	1260.3049	1302.1144	1312.3959	1341.9448	1351.2996	1404.6467	1412.1538	1472.6663	1478.1364	1481.7328	1486.6809	1488.0695	1499.0568	1501.7521	1767.0674	2966.0844	3011.9704	3014.1708	3022.3934	3026.4102	3038.8601	3055.3885	3058.242	3079.1415	3092.162	3092.542	3096.7313	3105.3899	3117.6441
CC1CC2CCC2=C1C	C[C@H]1C[C@H]2CC[C]2[C]1C	
InChI=1S/C9H14/c1-6-5-8-3-4-9(8)7(6)2/h6,8H,3-5H2,1-2H3	InChI=1S/C9H14/c1-6-5-8-3-4-9(8)7(6)2/h6,8H,3-5H2,1-2H3/t6-,8+/m0/s1
