17
gdb 85382	1.95493	1.71782	0.97377	3.9193	69.49	-0.2589	-0.0353	0.2235	1181.9438	0.134967	-459.03261	-459.024251	-459.023307	-459.065968	31.102	
C	-0.1754870328	 1.4517736206	 0.0831478264	-0.397616
C	-0.0364604917	-0.0569032158	-0.027353795	 0.111349
C	 0.7757352314	-0.5092212356	-1.2397533087	-0.324438
C	 1.0347271581	-2.0100757262	-1.2226312947	 0.388399
O	 1.4571446774	-2.6206416011	-2.1706356121	-0.294429
C	 0.7144776545	-2.6796694776	 0.1105617556	-0.45112
C	 0.9851227947	-1.7925290186	 1.3165319942	 0.404603
O	 1.4987019485	-2.1757667891	 2.3288057649	-0.314265
O	 0.6076598505	-0.4957894612	 1.1920481994	-0.232652
H	 0.8102416207	 1.9227476435	 0.1394259213	 0.136367
H	-0.7034577717	 1.8477875138	-0.7891663112	 0.125981
H	-0.7366874388	 1.7174192435	 0.9821462092	 0.139448
H	-1.0366034674	-0.5119125366	-0.0638504656	 0.096336
H	 0.2801638765	-0.2412571597	-2.1773478516	 0.14181
H	 1.7507401961	-0.0038575155	-1.2356318815	 0.148953
H	-0.3623689139	-2.9068037131	 0.0999074366	 0.160074
H	 1.2519457079	-3.6209074314	 0.2158809829	 0.161198
71.1845	118.121	150.489	235.4106	273.4377	383.3552	396.4801	438.5014	475.7748	529.4614	531.7519	568.093	641.847	786.9962	833.8518	897.1242	911.2234	950.4467	989.8388	1062.8407	1093.3019	1131.6327	1170.9001	1186.8858	1235.7211	1264.7868	1271.5878	1294.3369	1376.6296	1390.5067	1415.947	1434.5489	1436.5614	1484.2427	1498.6444	1831.3676	1864.4222	3002.9013	3017.9033	3035.7592	3048.2538	3101.2843	3123.7537	3131.4318	3154.2811
CC1CC(=O)CC(=O)O1	C[C@H]1CC(=O)CC(=O)O1	
InChI=1S/C6H8O3/c1-4-2-5(7)3-6(8)9-4/h4H,2-3H2,1H3	InChI=1S/C6H8O3/c1-4-2-5(7)3-6(8)9-4/h4H,2-3H2,1H3/t4-/m0/s1
