17
gdb 28289	5.03937	1.25576	1.01788	3.6407	82.49	-0.2075	-0.0089	0.1986	1148.6247	0.138496	-380.924533	-380.917245	-380.916301	-380.956084	28.453	
C	-0.021295611	 1.4716906741	 0.0595435846	-0.48681
C	 0.0004005733	-0.018552566	-0.0166308933	 0.25345
C	-0.034611856	-0.7793950832	-1.1219969774	-0.124435
N	 0.0036756932	-2.1429412467	-0.7704278737	 0.010872
C	 0.0010003023	-3.4035483082	-1.3201102096	-0.158597
C	 0.0624367926	-4.2490555719	-0.235695086	-0.098496
N	 0.1022582167	-3.547506479	 0.9565778571	-0.363877
C	 0.06516901	-2.2903761544	 0.5903695965	 0.390147
C	 0.0689633249	-0.9231870756	 1.2117872404	-0.4657
H	 0.8756206849	 1.8613259163	 0.5572602303	 0.131962
H	-0.0742113815	 1.9198000983	-0.9365114925	 0.128137
H	-0.8818572112	 1.8316206726	 0.6373299412	 0.131926
H	-0.0846903971	-0.480660429	-2.1588331008	 0.132401
H	-0.0420863588	-3.5803468447	-2.3813060894	 0.127112
H	 0.080189087	-5.3283597768	-0.2478010998	 0.10542
H	 0.9714674541	-0.735337473	 1.8066407788	 0.143244
H	-0.7845953035	-0.7650499627	 1.8826693235	 0.143245
124.6196	174.498	247.7504	265.445	289.8848	450.8917	481.5132	533.7405	631.1991	699.198	713.8814	745.7284	815.014	827.375	839.6215	879.4253	928.0451	948.4015	1015.4879	1058.9712	1088.707	1137.7568	1150.2932	1152.8109	1202.3195	1246.8406	1293.981	1314.762	1406.3865	1416.5856	1446.791	1454.2448	1476.9269	1492.8052	1498.3606	1584.2037	1693.7242	3018.1145	3034.4903	3061.143	3064.1341	3110.2444	3244.4709	3248.2651	3283.6753
CC1=CN2C=CN=C2C1	CC1=Cn2ccnc2C1	
InChI=1S/C7H8N2/c1-6-4-7-8-2-3-9(7)5-6/h2-3,5H,4H2,1H3	InChI=1S/C7H8N2/c1-6-4-7-8-2-3-9(7)5-6/h2-3,5H,4H2,1H3
