19
gdb 22251	2.82339	1.0575	0.90378	3.4947	75.22	-0.2391	0.0138	0.2529	1340.2256	0.156104	-456.344801	-456.333944	-456.333	-456.381457	38.353	
C	-0.0844399117	 1.6535363954	 0.2177417805	-0.386912
C	-0.08334577	 0.1185556131	 0.1096782973	-0.190818
C	 0.7043600479	-0.468214207	 1.295662353	 0.413515
N	 2.0531115118	-0.5683633158	 1.0917278948	-0.525173
O	 0.1764593551	-0.8061742939	 2.3360645039	-0.362095
C	-1.4639931524	-0.5004648677	 0.0592561119	 0.389551
C	-1.580012501	-1.9986874398	-0.0057751791	-0.476467
N	-2.4557250855	 0.3030619584	 0.0606147742	-0.172933
O	-3.6839094701	-0.371897087	 0.0049640256	-0.400905
H	 0.9401427433	 2.0375888497	 0.2096091774	 0.098184
H	-0.6336490416	 2.0961315687	-0.6148904799	 0.132819
H	-0.5685725827	 1.9691234454	 1.1443598686	 0.14702
H	 0.4371358351	-0.1703525067	-0.8158716881	 0.085792
H	 2.4981444931	-0.170361151	 0.2831318714	 0.259173
H	 2.6292236031	-0.8031223461	 1.884203156	 0.2613
H	-1.7583989388	-2.3993761178	 0.9970040465	 0.165271
H	-2.4170879175	-2.2923779965	-0.6416938834	 0.14366
H	-0.6574804742	-2.4478316156	-0.3835100141	 0.114556
H	-4.3126342541	 0.3571784943	-0.0054103466	 0.304462
37.2064	63.857	84.1432	149.7299	209.1004	222.0641	251.5884	263.2768	314.5013	322.3648	375.2599	399.6983	443.4508	528.0311	570.042	595.9464	700.9479	758.0553	772.7295	843.6195	967.4055	1000.4268	1020.7581	1043.9142	1093.1446	1101.5923	1119.3341	1238.0165	1255.6656	1337.7192	1373.3425	1396.973	1399.4522	1411.0809	1477.6137	1484.0577	1486.2029	1497.8182	1617.5744	1735.1745	1797.3718	2992.3266	3049.2624	3050.2902	3113.6212	3123.9211	3138.59	3143.496	3596.4648	3730.8921	3822.4284
CC(C(N)=O)C(C)=NO	C[C@@H](C(=O)N)C(=NO)C	
InChI=1S/C5H10N2O2/c1-3(5(6)8)4(2)7-9/h3,9H,1-2H3,(H2,6,8)	InChI=1S/C5H10N2O2/c1-3(5(6)8)4(2)7-9/h3,9H,1-2H3,(H2,6,8)/t3-/m1/s1
