16
gdb 100231	2.70585	1.13315	0.96684	5.7901	69.23	-0.2768	0.0032	0.2801	1228.4598	0.123119	-434.073624	-434.063853	-434.062909	-434.108451	34.548	
N	-0.0510225015	 1.5036525629	 0.029467208	-0.502681
C	 0.0066081901	 0.0460176109	-0.0179454927	 0.036945
C	 0.7587266592	-0.4948990203	-1.2727157137	-0.083965
O	 0.203150088	 0.020602387	-2.4587225858	-0.415644
C	 0.6938232953	-0.4998465943	 1.257956891	-0.382
C	 0.0800774129	-0.0486234465	 2.5041830497	 0.297316
N	-0.3816253603	 0.2879374418	 3.5074339262	-0.293481
C	-1.376847426	-0.4706337423	-0.1097131849	 0.311791
N	-2.4302942226	-0.9157212256	-0.2741177794	-0.328631
H	 0.8782468388	 1.8737088267	 0.2117812669	 0.239364
H	-0.3294511146	 1.8428656121	-0.8881099741	 0.254577
H	 1.7914610063	-0.1318802901	-1.227719246	 0.11796
H	 0.7770308732	-1.5944036633	-1.2653704886	 0.112273
H	-0.641677069	-0.4187328203	-2.6144874817	 0.306006
H	 0.6942098568	-1.5942760388	 1.2379581066	 0.172245
H	 1.7424338035	-0.1786407699	 1.2463192685	 0.157924
60.4016	108.4314	126.7038	176.5762	194.343	248.4193	268.1427	336.5483	376.5073	392.4021	417.0323	437.5016	481.6706	590.4643	694.9958	721.9491	848.8803	916.4378	944.0717	948.4136	1021.0482	1078.7193	1105.9993	1151.7415	1214.4138	1267.9365	1339.8411	1364.7484	1389.2787	1418.8727	1460.8341	1490.8888	1661.4852	2357.3139	2372.9755	3000.056	3043.5208	3075.8483	3093.6377	3484.0869	3567.0229	3792.9251
NC(CO)(CC#N)C#N	N[C@@](CO)(CC#N)C#N	
InChI=1S/C5H7N3O/c6-2-1-5(8,3-7)4-9/h9H,1,4,8H2	InChI=1S/C5H7N3O/c6-2-1-5(8,3-7)4-9/h9H,1,4,8H2/t5-/m0/s1
