17
gdb 37646	3.24319	2.42308	2.14928	0.953	72.08	-0.2123	0.0602	0.2725	741.1188	0.140526	-380.775491	-380.770391	-380.769447	-380.804562	23.271	
C	-0.0309751753	 1.5244856911	 0.0233461481	-0.169486
C	 1.5106389873	 1.4998475879	-0.0343698814	-0.033312
C	 1.3692226256	 0.0407075475	-0.5650850759	-0.002082
C	 1.8989655358	-0.8648127904	 0.5681290935	-0.080488
C	 2.6113348439	 0.059502621	 1.587208934	-0.068896
C	 1.2808923265	 0.4451033504	 2.1704451754	-0.078933
C	 0.5359197928	-0.558777882	 1.2518838635	-0.017894
N	-0.0552024976	 0.0236458572	-0.0167363549	-0.159851
N	 2.0480308079	 1.3818682162	 1.3381018991	-0.099421
H	-0.4877807391	 1.9907261747	 0.9019680278	 0.108154
H	-0.4988645245	 1.9159898561	-0.8839153411	 0.109018
H	 2.0686077169	 2.2534834546	-0.5939051984	 0.075068
H	 1.5162198895	-0.1847469622	-1.6230155504	 0.072
H	 2.2571435041	-1.8705324347	 0.3673979039	 0.078828
H	 3.5922890554	-0.0429206017	 2.0350366285	 0.097378
H	 1.0012747909	 0.7579579565	 3.170425003	 0.092767
H	-0.0750813402	-1.313345412	 1.7485803454	 0.07715
372.0597	417.4441	569.7087	620.9691	692.2219	700.5364	739.8389	779.5007	817.0395	842.7949	858.1766	878.1279	888.8324	902.8782	927.9128	944.5778	956.2365	978.7055	995.6437	1018.3348	1042.0538	1065.281	1096.9248	1139.457	1179.5288	1193.4948	1201.176	1211.1344	1218.5502	1235.158	1250.4496	1264.395	1288.7166	1300.349	1302.906	1355.2412	1494.6401	3048.8361	3080.7337	3093.257	3099.9415	3105.7484	3158.2573	3166.0452	3189.8236
C1C2C3C4C5C(C4N13)N25	C1[C@@H]2[C@H]3[C@H]4[C@@H]5[C@H]([C@H]4N13)N25	
InChI=1S/C7H8N2/c1-2-4-3-5(8(1)4)7-6(3)9(2)7/h2-7H,1H2	InChI=1S/C7H8N2/c1-2-4-3-5(8(1)4)7-6(3)9(2)7/h2-7H,1H2/t2-,3-,4+,5+,6-,7+,9?/m1/s1
