17
gdb 125423	5.60876	0.97107	0.88435	4.3631	75.79	-0.2276	0.0061	0.2337	1322.3565	0.138409	-414.198174	-414.189851	-414.188906	-414.232819	29.625	
C	-0.2120034222	 1.4637051973	 0.0880769746	-0.498755
C	-0.0503360043	-0.0118543409	-0.0514682302	 0.356365
N	-0.0637793746	-0.7064232825	-1.1772310068	-0.352431
C	 0.148829088	-1.9904521662	-0.7632122128	 0.350536
N	 0.2832144166	-2.1324892366	 0.5485883737	-0.299615
N	 0.1580680865	-0.8537622882	 0.9836922275	-0.229308
C	 0.2141824128	-3.1330451868	-1.6951917869	-0.095557
C	 1.3089618215	-4.1382399403	-1.5533873135	-0.228625
N	-0.0682145362	-4.4904452638	-1.1979570531	-0.319116
H	 0.7472723684	 1.9782476291	-0.0353400126	 0.153175
H	-0.8882612272	 1.8302315758	-0.6861883859	 0.164435
H	-0.6170966594	 1.7332668813	 1.0675091147	 0.130124
H	 0.204388335	-0.6536291915	 1.9693561885	 0.276862
H	-0.1763627371	-2.9119514493	-2.6832362207	 0.1055
H	 1.6993692974	-4.6333001169	-2.4384426332	 0.118861
H	 2.0277529894	-3.9708078825	-0.7563590809	 0.121669
H	-0.1776841247	-4.4374785481	-0.1866649122	 0.245881
26.0215	52.094	155.5628	170.5599	269.2125	310.8605	428.2217	455.2899	538.0214	662.97	697.8747	729.6626	782.0484	831.8808	892.2696	975.6297	993.0935	1001.8925	1031.1473	1061.1614	1076.4703	1105.361	1139.8425	1174.9725	1196.0703	1255.5848	1279.4497	1309.9446	1332.7703	1406.9242	1426.1429	1455.8476	1478.2243	1500.6731	1507.1589	1538.9373	1586.8954	3043.477	3104.44	3108.4331	3142.2411	3165.6368	3200.4912	3492.0192	3661.0893
CC1=NC(=NN1)C1CN1	Cc1nc(n[nH]1)[C@H]1CN1	
InChI=1S/C5H8N4/c1-3-7-5(9-8-3)4-2-6-4/h4,6H,2H2,1H3,(H,7,8,9)	InChI=1S/C5H8N4/c1-3-7-5(9-8-3)4-2-6-4/h4,6H,2H2,1H3,(H,7,8,9)/t4-/m1/s1
