18
gdb 89653	3.00122	1.29116	1.07137	2.2262	80.44	-0.2284	0.0257	0.2541	1159.8382	0.146034	-401.879026	-401.870099	-401.869155	-401.912237	34.385	
C	-0.0290794684	 1.5227052874	 0.0572767995	-0.51586
C	 0.1709202408	 0.0436824355	-0.0308211837	 0.235345
N	-0.702376501	-0.9197874885	 0.670763456	-0.427971
C	 0.7767920633	-0.94199605	 0.9344655407	 0.182775
C	 1.3646181353	-1.7827937589	-0.2045805802	-0.327946
C	 0.705566137	-0.7776830793	-1.2244294276	 0.113461
O	-0.2536985975	-1.2649764633	-2.1169274415	-0.437969
C	 1.2964937832	-0.7254687447	 2.2380507473	 0.149551
C	 1.7515111978	-0.5451089565	 3.3382562232	-0.40018
H	 0.8432136352	 2.0576130816	-0.3317263588	 0.132286
H	-0.9015478514	 1.8337196297	-0.5284431627	 0.137807
H	-0.1818260658	 1.836505846	 1.0953504848	 0.128296
H	-1.1417771407	-0.4310819289	 1.45053276	 0.236054
H	 2.4555783213	-1.765741049	-0.2351278644	 0.114997
H	 1.0024803913	-2.8120249989	-0.2559426559	 0.108307
H	 1.4521761624	-0.2375991756	-1.8113379966	 0.092648
H	-0.9656069808	-1.61390639	-1.5626891073	 0.289615
H	 2.1519517581	-0.3886959667	 4.3091908273	 0.188781
104.0113	119.8292	180.0224	186.9886	257.4538	293.0354	360.1284	447.139	473.4663	521.8682	532.9785	557.9952	583.4872	638.9719	662.3094	685.8453	733.2879	809.2509	856.5898	938.5821	981.0233	1029.036	1058.4847	1097.998	1107.4458	1115.2456	1150.7566	1202.1418	1231.9792	1285.3169	1330.7733	1343.0419	1404.348	1429.5846	1450.38	1479.1691	1483.9375	1495.6125	2230.4875	3028.6711	3070.2806	3088.8445	3095.0139	3103.6708	3134.8616	3479.1056	3501.7637	3749.2531
CC12NC1(CC2O)C#C	C[C@]12N[C@]1(C[C@H]2O)C#C	
InChI=1S/C7H9NO/c1-3-7-4-5(9)6(7,2)8-7/h1,5,8-9H,4H2,2H3	InChI=1S/C7H9NO/c1-3-7-4-5(9)6(7,2)8-7/h1,5,8-9H,4H2,2H3/t5-,6-,7+/m1/s1
