18
gdb 53006	4.36246	0.91624	0.84431	1.7286	88.68	-0.2183	0.0092	0.2274	1430.78	0.147707	-364.773319	-364.76463	-364.763686	-364.809111	31.953	
C	-0.0067392499	 1.4973823675	-0.0580445775	-0.506647
C	-0.0159141602	 0.0432876424	-0.0014549879	 0.214817
C	-0.0289767222	-1.1613794104	 0.0465435299	-0.156332
C	-0.0069884245	-2.5911955283	 0.1055737631	 0.203974
N	-0.372988265	-3.3915595626	-1.1172035035	-0.375588
C	-1.23849727	-3.4532702927	 0.0706511191	-0.102481
C	-0.9881204821	-4.6678366448	 0.956960134	-0.264465
C	 0.4458117586	-4.4749568499	 1.4096602843	-0.076357
C	 0.9717810404	-3.3331918192	 0.9659040498	-0.14378
H	 1.0115695055	 1.8910183359	 0.0345001405	 0.15089
H	-0.4142878785	 1.859117768	-1.0086382357	 0.149407
H	-0.6066682222	 1.9350418328	 0.7478316096	 0.148887
H	-0.798705395	-2.7507191201	-1.7863894177	 0.230114
H	-2.2252774489	-3.0063689312	 0.0223770029	 0.096796
H	-1.6830736542	-4.6964411826	 1.8061639152	 0.108634
H	-1.1200854874	-5.6036456463	 0.4006276857	 0.122234
H	 0.9713750353	-5.2160428038	 2.001035449	 0.09834
H	 1.9737809503	-2.9679884647	 1.1509859693	 0.101557
6.8621	90.6948	98.5082	251.7306	282.9078	315.287	386.9911	429.6086	494.073	525.6723	555.6368	699.8694	742.7002	779.4153	835.7606	880.0067	919.4964	943.522	955.2403	969.2172	1009.9767	1045.4429	1052.1006	1053.8981	1113.3659	1127.3026	1168.855	1194.3391	1256.2463	1317.7525	1328.7104	1362.9078	1411.9537	1427.5299	1464.6145	1476.0214	1478.7441	1670.2342	2364.28	3024.1314	3025.5335	3060.871	3084.9843	3087.7702	3173.3854	3194.5363	3224.8901	3472.4452
CC#CC12NC1CC=C2	CC#C[C@]12N[C@H]1CC=C2	
InChI=1S/C8H9N/c1-2-5-8-6-3-4-7(8)9-8/h3,6-7,9H,4H2,1H3	InChI=1S/C8H9N/c1-2-5-8-6-3-4-7(8)9-8/h3,6-7,9H,4H2,1H3/t7-,8+/m0/s1
