19
gdb 86971	2.38076	1.36289	1.12099	1.924	81.67	-0.2455	0.0119	0.2575	1168.0211	0.159434	-385.868563	-385.859912	-385.858967	-385.901651	33.732	
O	 0.0817768721	 1.4922610972	 0.0739144295	-0.438747
C	 0.0945384431	 0.0691922932	-0.0279920624	 0.105949
C	-1.3158500529	-0.5178295624	 0.1102929127	-0.238585
C	-1.3403986391	-2.0294335857	-0.2135682167	-0.189618
C	-0.8674073548	-2.2618145606	-1.6718312646	-0.259232
C	 0.3164045157	-1.4075911159	-2.0409435976	-0.05016
C	 0.7511723236	-0.3842362359	-1.3069464941	-0.087577
C	-0.5387561213	-2.794240666	 0.7419397388	 0.35591
C	 0.1164493162	-3.4222949284	 1.5306452785	-0.49567
H	-0.3684014027	 1.831604323	-0.7079743321	 0.273363
H	 0.7021423989	-0.2540898343	 0.826409483	 0.11009
H	-1.70115338	-0.328496333	 1.1154750911	 0.113424
H	-1.9795157208	-0.0061847591	-0.5994524425	 0.086832
H	-2.3766018328	-2.3807072132	-0.1311441798	 0.106025
H	-0.6272381995	-3.3206895824	-1.8176189378	 0.119008
H	-1.7017829667	-2.0469422373	-2.3551509547	 0.109025
H	 0.8298405185	-1.6659837247	-2.9644494521	 0.090435
H	 1.623826376	 0.1886223494	-1.611447788	 0.092394
H	 0.6932124465	-3.9790044138	 2.2270270389	 0.197133
92.8004	105.5748	184.2356	275.902	286.8851	339.6004	364.9983	400.4515	424.6775	536.295	568.8905	613.6264	629.6514	635.8859	717.0696	781.2782	793.2352	896.1592	925.369	933.8772	971.0281	1010.3725	1060.7945	1067.7979	1088.4536	1097.8004	1165.5773	1218.8695	1221.126	1251.5899	1289.972	1333.5111	1343.6663	1372.6691	1386.2342	1402.8579	1427.3317	1469.91	1486.7674	1721.2127	2232.2816	3003.1581	3018.0533	3028.4756	3038.0598	3061.2873	3097.8674	3143.3239	3167.7293	3504.3399	3794.8391
OC1CC(CC=C1)C#C	O[C@H]1C[C@@H](CC=C1)C#C	
InChI=1S/C8H10O/c1-2-7-4-3-5-8(9)6-7/h1,3,5,7-9H,4,6H2	InChI=1S/C8H10O/c1-2-7-4-3-5-8(9)6-7/h1,3,5,7-9H,4,6H2/t7-,8-/m1/s1
