21
gdb 97862	5.39037	0.5947	0.56474	1.3145	89.08	-0.2374	0.0367	0.2741	1999.4642	0.182796	-387.071122	-387.06102	-387.060075	-387.110043	35.093	
O	-0.04835813	 1.400246625	 1.1033302713	-0.409713
C	 0.0593241884	 0.3727529268	 0.1230886359	-0.218883
C	-1.2400147517	-0.2549197644	-0.0770571657	 0.157017
C	-2.3074161945	-0.7840583497	-0.2540705444	 0.008996
C	-3.5933650638	-1.4289648564	-0.4739797546	-0.148982
C	-4.1260128438	-1.3404703241	-1.9242434843	-0.196178
C	-5.252604431	-2.3952645109	-1.9800419402	-0.212955
C	-4.9206881142	-3.4371787355	-0.8681643395	-0.213016
C	-3.6099011517	-2.953780726	-0.2107777145	-0.196057
H	 0.8265370405	 1.7885613362	 1.2062688321	 0.287519
H	 0.4168349665	 0.7785775204	-0.837845819	 0.112676
H	 0.7878398537	-0.3947883499	 0.4329420684	 0.112679
H	-4.333013565	-0.9595582458	 0.1910790146	 0.101723
H	-4.461094748	-0.3338412972	-2.1863050033	 0.102575
H	-3.3136127681	-1.6025845123	-2.6109706933	 0.104699
H	-6.2225485923	-1.9277415456	-1.7841081547	 0.101019
H	-5.3223137525	-2.8544343878	-2.9696835004	 0.099413
H	-5.7268314578	-3.4719049998	-0.128718123	 0.101003
H	-4.819539902	-4.4500853688	-1.2667424203	 0.099301
H	-2.7396508125	-3.4023830061	-0.7025134822	 0.104646
H	-3.54314558	-3.1958348981	 0.8528170572	 0.102517
10.2332	18.3658	73.7338	89.554	159.8567	224.4982	256.1614	284.4608	428.9965	505.4134	508.2856	566.723	627.7087	752.0551	819.1894	832.3825	887.6938	899.4471	956.5373	973.1629	975.8358	1028.7053	1044.2679	1055.3674	1081.4742	1163.7952	1185.7365	1198.906	1229.8869	1246.2893	1256.6042	1258.4763	1293.3906	1309.5048	1322.7264	1328.7471	1338.5099	1377.817	1459.7035	1486.6948	1494.7448	1498.0664	1504.675	1518.5767	2368.3839	2958.2006	2974.8474	2998.3238	3044.8249	3045.689	3049.6663	3058.944	3079.9126	3096.5056	3102.4774	3111.4069	3815.8896
OCC#CC1CCCC1	OCC#CC1CCCC1	
InChI=1S/C8H12O/c9-7-3-6-8-4-1-2-5-8/h8-9H,1-2,4-5,7H2	InChI=1S/C8H12O/c9-7-3-6-8-4-1-2-5-8/h8-9H,1-2,4-5,7H2
