15
gdb 66954	2.64266	1.95679	1.42622	0.9392	63.94	-0.2315	0.0552	0.2867	903.4551	0.111354	-457.648561	-457.641544	-457.6406	-457.679736	27.973	
O	 0.0478790159	 1.367583465	-0.1233231768	-0.45583
C	 0.0702662643	 0.0052772682	-0.0180040746	 0.2509
C	-0.2311580164	-0.9178515937	-1.1948208255	 0.050244
O	 0.4751402815	-2.1476623632	-0.9908219589	-0.28962
C	 0.0606130111	-2.0434577587	 0.4051360703	-0.076132
C	-1.0851894529	-1.0328806711	 0.0266203745	-0.223631
C	 0.8905027917	-0.853554558	 0.9136198758	 0.436703
C	 2.1962867308	-0.7229934361	 1.5405910577	-0.281395
O	 0.9684283774	-0.5202187774	 2.2878814367	-0.299613
H	-0.1280646683	 1.7261132992	 0.756000654	 0.300398
H	-0.4361280257	-0.5730102294	-2.2000260655	 0.123817
H	-0.0123905137	-2.9878567812	 0.938524627	 0.100576
H	-2.1459394836	-0.9718286781	 0.220190856	 0.115334
H	 2.761560086	-1.611324119	 1.8166752739	 0.12439
H	 2.7876897518	 0.1763134735	 1.3782534752	 0.123858
159.6476	184.5013	247.3709	317.056	377.426	411.9725	510.0264	572.41	634.1362	659.3858	765.0194	794.5573	821.2898	857.3153	878.0567	917.9573	938.9356	950.459	985.6712	1014.5246	1038.4917	1094.1357	1111.1653	1132.2722	1160.1278	1172.7148	1200.9385	1230.674	1309.1705	1322.8768	1445.0134	1479.0472	1548.6037	3090.6016	3160.1816	3179.2428	3207.7827	3228.815	3769.27
OC12C3OC(C13)C21CO1	O[C@]12[C@H]3O[C@H]([C@@H]13)[C@]12CO1	
InChI=1S/C6H6O3/c7-6-2-3(9-4(2)6)5(6)1-8-5/h2-4,7H,1H2	InChI=1S/C6H6O3/c7-6-2-3(9-4(2)6)5(6)1-8-5/h2-4,7H,1H2/t2-,3-,4+,5+,6+/m1/s1
