21
gdb 118869	3.60124	0.96876	0.89399	2.1673	78.08	-0.2348	0.0811	0.3159	1378.8861	0.180882	-424.180879	-424.171498	-424.170554	-424.215001	35.66	
C	 0.0396807615	 1.670331931	 0.1739143661	-0.443007
C	 0.0044313524	 0.1506188432	 0.1203889457	 0.399823
C	-1.38364402	-0.4136275176	-0.1920789579	-0.234541
C	-1.9546992684	 0.0215004181	-1.5452834656	-0.075575
O	-3.1952574444	-0.6095669492	-1.8297090186	-0.41974
O	 0.9720955946	-0.3844382086	-0.8573680982	-0.336973
C	 1.5384143396	-1.2292255329	 0.1445181467	 0.10847
C	 2.1883671589	-0.4254346	 1.2235334318	-0.318904
C	 0.6888658304	-0.6452606097	 1.2446749333	-0.166353
H	 1.0169246491	 2.0337431807	 0.4984679348	 0.119925
H	-0.1642980861	 2.0966686832	-0.812702603	 0.132277
H	-0.7175299974	 2.0449542928	 0.8707297607	 0.119541
H	-1.312372064	-1.509064443	-0.1781552038	 0.087402
H	-2.0805604488	-0.129135809	 0.6063078288	 0.101255
H	-2.1704750355	 1.094131745	-1.5489149661	 0.110313
H	-1.2117114235	-0.1695202204	-2.3324138699	 0.108977
H	-3.0270664936	-1.55207237	-1.9284030727	 0.27978
H	 1.7926234626	-2.2464378921	-0.1302230631	 0.100234
H	 2.7288151331	-0.9974408003	 1.9719583717	 0.114912
H	 2.620120925	 0.5427744867	 0.9887418042	 0.116368
H	 0.1710971246	-1.1214053978	 2.0670739852	 0.095814
82.7671	98.3681	143.0576	204.7472	237.0121	284.9902	296.4292	338.5562	355.4411	407.6869	482.1287	552.7277	685.0151	761.0861	780.0706	812.9883	846.0541	896.4277	954.0387	960.2873	978.9903	1000.6586	1023.2591	1040.9387	1051.2283	1062.2137	1074.5556	1087.3591	1121.0171	1152.1943	1186.1893	1220.1809	1264.1456	1282.8537	1313.8931	1344.9344	1355.5058	1399.501	1412.8655	1423.5734	1470.0335	1473.5173	1489.9155	1498.3576	1517.403	3009.4162	3018.7882	3043.1266	3058.4055	3089.5331	3111.7893	3118.8603	3127.0734	3175.9504	3195.3905	3209.0788	3815.5164
CC1(CCO)OC2CC12	C[C@@]1(CCO)O[C@H]2C[C@@H]12	
InChI=1S/C7H12O2/c1-7(2-3-8)5-4-6(5)9-7/h5-6,8H,2-4H2,1H3	InChI=1S/C7H12O2/c1-7(2-3-8)5-4-6(5)9-7/h5-6,8H,2-4H2,1H3/t5-,6+,7+/m1/s1
