21
gdb 72699	2.53161	1.94673	1.60118	1.835	81.32	-0.2407	0.0859	0.3266	956.0039	0.184613	-387.028504	-387.021325	-387.020381	-387.059343	31.053	
C	-0.0899117225	 1.4611999309	 0.1231824111	-0.448638
C	-0.0270129573	-0.0669673947	 0.0243937482	 0.298623
C	 1.2685164914	-0.4365939057	-0.7682919374	-0.204008
O	 2.005378356	-0.5294544431	 0.5036350183	-0.37045
C	 0.7420349898	-0.7678936737	 1.1408022623	 0.454265
C	-0.0798426465	-0.461210169	 2.4110112759	-0.326833
C	-1.0931064056	-1.406243065	 1.6194262521	-0.025855
C	 0.1621834287	-2.2052071246	 1.1989846778	-0.282737
C	-1.4196196067	-0.7264482632	 0.2425595768	-0.324267
H	 0.8943597384	 1.8823428082	 0.3504618922	 0.130163
H	-0.4248263452	 1.877702218	-0.8343375867	 0.111636
H	-0.7935300919	 1.8040717952	 0.8868271024	 0.113289
H	 1.2638621975	-1.3999164879	-1.2896393553	 0.103805
H	 1.689587485	 0.3395283167	-1.4127177156	 0.106337
H	 0.2554507105	-0.9596480386	 3.3230485896	 0.105361
H	-0.3532076656	 0.5735778724	 2.6193871566	 0.10163
H	-1.913847499	-1.8756048857	 2.1600107662	 0.071168
H	 0.1076886275	-2.7984224636	 0.2830286041	 0.089543
H	 0.6066125907	-2.7886428535	 2.0079240587	 0.097682
H	-2.219247024	 0.0177487181	 0.2850323103	 0.095638
H	-1.7083285813	-1.4846311113	-0.4912931874	 0.103646
208.4395	249.0639	282.7789	343.5548	381.1492	426.4452	477.2068	509.9029	541.0572	590.2122	702.7553	784.4407	805.0335	830.3097	859.6865	893.3037	908.2934	933.662	945.7932	958.4637	975.2981	995.2705	1006.3547	1030.0605	1073.2614	1118.5469	1134.1703	1142.5897	1155.0957	1166.0729	1204.7041	1219.8626	1242.6247	1258.3658	1267.5395	1286.3451	1312.4647	1330.3552	1407.7258	1481.8495	1492.3188	1498.1104	1505.0758	1514.1543	1529.9061	3028.0779	3035.5655	3054.38	3063.7665	3076.7642	3091.2222	3098.0317	3101.8162	3113.07	3124.0354	3128.7124	3140.6516
CC12COC11CC(C1)C2	C[C@@]12CO[C@]31C[C@H](C3)C2	
InChI=1S/C8H12O/c1-7-2-6-3-8(7,4-6)9-5-7/h6H,2-5H2,1H3	InChI=1S/C8H12O/c1-7-2-6-3-8(7,4-6)9-5-7/h6H,2-5H2,1H3/t6-,7-,8-/m1/s1
