14
gdb 28734	5.14926	0.89462	0.79492	4.6312	67.83	-0.1983	-0.0063	0.192	1357.6431	0.100284	-473.861721	-473.853459	-473.852515	-473.89573	29.346	
N	-0.0116746821	 1.4998816896	-0.0394844926	-0.593611
C	-0.0397842509	 0.1147147781	-0.054945837	 0.384693
C	-0.9656147672	-0.8199763845	 0.2996724347	-0.253637
C	-0.3202170506	-2.0979848843	 0.1352905236	-0.27808
C	 0.9287733742	-1.828140647	-0.3031913019	 0.374818
O	 1.9788288702	-2.5966498629	-0.6860209671	-0.211457
C	 2.707698069	-3.1972843111	 0.3132115576	 0.161528
O	 3.6160547607	-3.9236824124	 0.0753075177	-0.247193
O	 1.1285868433	-0.4788014533	-0.4214200041	-0.186667
H	 0.5560921147	 1.8911819988	-0.7808210016	 0.261166
H	-0.9359495611	 1.9084190846	-0.041280232	 0.259503
H	-1.9752898496	-0.6355922952	 0.6282145198	 0.105026
H	-0.7421131688	-3.0767428111	 0.296577776	 0.122422
H	 2.3239056081	-2.9246487695	 1.3120609568	 0.101488
33.4934	120.0069	149.9673	173.214	268.0553	318.8421	397.3436	473.0066	505.1697	630.2274	657.7186	682.8496	734.5863	756.9386	816.919	825.922	996.5944	1002.8089	1030.5231	1039.4683	1093.7104	1111.3024	1243.439	1270.5113	1297.8191	1399.726	1437.0394	1616.5822	1655.6269	1674.0151	1888.249	2991.6309	3260.8029	3272.8719	3545.1539	3647.3078
NC1=CC=C(OC=O)O1	Nc1ccc(OC=O)o1	
InChI=1S/C5H5NO3/c6-4-1-2-5(9-4)8-3-7/h1-3H,6H2	InChI=1S/C5H5NO3/c6-4-1-2-5(9-4)8-3-7/h1-3H,6H2
