16
gdb 48335	2.33676	1.32061	1.04802	4.0031	68.85	-0.2716	-0.0537	0.2179	1158.1244	0.122456	-437.877221	-437.868205	-437.867261	-437.912866	30.659	
O	-0.3454128919	 0.1575667892	-0.5591089828	-0.23638
C	-0.123593801	 1.1817411173	 0.0298369652	 0.112169
C	 1.2130615699	 1.8994827545	 0.0121153333	 0.169723
C	 1.4701222787	 2.6680034861	 1.3174473372	-0.437219
C	 1.6074978844	 1.7813168581	 2.4731147828	 0.265761
N	 1.7120556894	 1.059728248	 3.3693371464	-0.291172
C	 2.4040555734	 1.0923392814	-0.5491237282	-0.115394
O	 2.6061350669	 2.0381540617	-1.6225813759	-0.262145
C	 1.4293971684	 2.7718794518	-1.2677424966	-0.115938
H	-0.9236848143	 1.6981542298	 0.6085315366	 0.088369
H	 2.3838112608	 3.2639269496	 1.2208483755	 0.169693
H	 0.6506157607	 3.3718722461	 1.51030958	 0.159331
H	 3.2787198396	 1.0138876061	 0.1052691094	 0.119999
H	 2.1179088902	 0.1029898202	-0.9181006649	 0.139697
H	 0.6370680724	 2.6816506439	-2.0210436521	 0.122134
H	 1.6319499825	 3.8338824762	-1.0797820859	 0.111371
33.0872	64.1882	69.8918	122.211	256.4002	275.9746	327.9124	356.5756	391.9104	471.5284	633.2733	706.8689	845.9256	879.8277	906.1141	912.4722	956.3248	991.9039	1012.8733	1049.3673	1101.9014	1159.3193	1165.2898	1168.1686	1241.4754	1306.6679	1316.7555	1331.4184	1372.8217	1429.0016	1463.322	1505.4754	1529.054	1833.5293	2363.647	2869.503	3009.6559	3037.1286	3041.2419	3058.2167	3083.9337	3099.7236
O=CC1(CC#N)COC1	O=CC1(CC#N)COC1	
InChI=1S/C6H7NO2/c7-2-1-6(3-8)4-9-5-6/h3H,1,4-5H2	InChI=1S/C6H7NO2/c7-2-1-6(3-8)4-9-5-6/h3H,1,4-5H2
