15
gdb 14078	3.86983	1.62914	1.3527	4.2375	62.86	-0.2473	0.0124	0.2597	925.897	0.117861	-399.797873	-399.790107	-399.789163	-399.830062	27.874	
C	-0.0431011656	 1.5425797937	-0.0671840609	-0.418953
C	-0.0315007987	 0.0425294871	 0.0570965955	-0.014704
O	 1.2356823854	-0.6196884835	-0.1199319539	-0.275662
C	 0.6422554466	-0.6568411334	 1.1533097928	 0.267724
C	 1.2801059734	-0.1518302446	 2.4657977004	-0.245324
N	 0.7998530599	-1.4059766618	 3.0601014867	-0.346845
C	 0.2297668368	-1.9285608659	 1.9169587171	 0.375301
O	-0.356593574	-2.9467536838	 1.6757156155	-0.360093
H	 0.8170023326	 1.9865290649	 0.4405729726	 0.128405
H	-0.0094979186	 1.8382735442	-1.1206429991	 0.138488
H	-0.9604855356	 1.9534983033	 0.3676118875	 0.129487
H	-0.8597244081	-0.484777137	-0.4178331123	 0.116827
H	 2.3695183435	-0.0575924065	 2.4281423592	 0.12865
H	 0.8371824042	 0.7533942824	 2.8939541928	 0.118503
H	 0.7903556382	-1.7291107692	 4.014693046	 0.258196
106.1741	142.8321	168.3164	187.6094	258.5059	307.8701	437.0024	469.4073	547.6649	635.0244	719.9646	785.5911	817.238	902.3086	936.0971	992.8187	1041.7909	1061.6179	1098.0212	1131.1244	1153.2178	1162.5381	1196.2336	1279.765	1339.6119	1382.1475	1410.8049	1474.487	1489.9599	1520.4803	1527.9809	1901.7709	3038.9184	3041.3939	3092.2516	3105.1064	3106.3036	3128.7863	3636.2047
CC1OC11CNC1=O	C[C@H]1O[C@]21CNC2=O	
InChI=1S/C5H7NO2/c1-3-5(8-3)2-6-4(5)7/h3H,2H2,1H3,(H,6,7)	InChI=1S/C5H7NO2/c1-3-5(8-3)2-6-4(5)7/h3H,2H2,1H3,(H,6,7)/t3-,5+/m1/s1
