18
gdb 89647	4.81032	1.02318	0.96599	2.35	72.03	-0.2362	0.0706	0.3068	1234.155	0.148116	-439.011668	-439.003716	-439.002772	-439.044371	30.681	
O	-0.1733150779	 1.4359409425	-0.1413401619	-0.435243
C	-0.0933171929	 0.0411403677	-0.1268542388	 0.16084
C	 0.5746288357	-0.6576637508	 1.1259036813	-0.339608
C	-0.7732557881	-1.3259539687	 1.4128868601	 0.373837
N	-1.754066632	-0.2265409967	 1.5627623302	-0.405695
C	-1.3919868545	-0.7127694856	 0.2026300647	-0.146142
C	-1.0172256321	-2.6516751173	 2.0302550019	-0.079834
C	-1.5330949691	-2.7929420522	 3.4007362241	-0.179501
O	-2.3885674371	-2.9859719547	 2.2671571367	-0.237817
H	-0.730378441	 1.6675513108	 0.6150523586	 0.290637
H	 0.3670460204	-0.2706037615	-1.0666737908	 0.091285
H	 1.3580091111	-1.3635989011	 0.8379622054	 0.105012
H	 0.9465908687	 0.0149693849	 1.9026429847	 0.105238
H	-2.6428454242	-0.6713789484	 1.7975233064	 0.244651
H	-2.1574934657	-1.0893119726	-0.4649807562	 0.101393
H	-0.4184449086	-3.4693498017	 1.6264965886	 0.100766
H	-1.3107664441	-3.6931982537	 3.9704504547	 0.123702
H	-1.7351174386	-1.8993414709	 3.9878331204	 0.12648
85.6664	116.7949	169.4482	238.5732	330.2875	362.5267	434.0676	506.7227	523.4936	620.4045	671.0462	694.8506	820.3837	849.6359	878.0148	880.9227	930.9145	962.256	983.8831	993.2272	1019.603	1077.3128	1101.3319	1121.8091	1131.4891	1152.9038	1157.2797	1171.4886	1214.1701	1229.7373	1275.2825	1288.9321	1305.1812	1345.3855	1393.0028	1447.6604	1460.0176	1487.1596	1524.4399	3060.1324	3093.1869	3093.9309	3101.7572	3121.9256	3186.1083	3191.6897	3463.7345	3745.5713
OC1CC2(NC12)C1CO1	O[C@H]1C[C@]2(N[C@@H]12)[C@H]1CO1	
InChI=1S/C6H9NO2/c8-3-1-6(4-2-9-4)5(3)7-6/h3-5,7-8H,1-2H2	InChI=1S/C6H9NO2/c8-3-1-6(4-2-9-4)5(3)7-6/h3-5,7-8H,1-2H2/t3-,4+,5-,6-/m0/s1
