18
gdb 12111	4.67625	1.31456	1.21512	2.8664	68.18	-0.2372	0.0793	0.3165	1043.451	0.152796	-384.900175	-384.892183	-384.891238	-384.932668	30.426	
O	 0.4762210156	-0.7338358823	 1.1785025725	-0.480565
C	 0.0910056054	-0.1696826685	-0.0444347491	 0.460766
C	-1.3750571619	-0.2490492267	-0.3241466525	-0.315653
C	-0.7405560739	 1.0942852976	-0.0054176934	-0.321169
C	 1.110678377	-0.3715699328	-1.1529975537	-0.318934
C	 2.3595193926	 0.4521636534	-0.9167882971	 0.09401
O	 3.0572210189	 0.2002127155	 0.3193221665	-0.245613
C	 3.7064820914	-0.1309318378	-0.9126190724	-0.178598
H	 1.3928144127	-0.4702257485	 1.3358297311	 0.294005
H	-1.7061000994	-0.4400739389	-1.3394241921	 0.107003
H	-1.9834720063	-0.7061853971	 0.44770876	 0.124335
H	-0.9351827325	 1.5148280727	 0.974126174	 0.119126
H	-0.6437399888	 1.821787224	-0.8052972717	 0.101885
H	 1.3667554164	-1.4363246278	-1.1999742111	 0.10917
H	 0.6822830816	-0.0896436046	-2.1214035243	 0.103997
H	 2.2682901603	 1.5160188037	-1.137417601	 0.102799
H	 3.8266358364	-1.1959580765	-1.1048047305	 0.122261
H	 4.5698161346	 0.4862664146	-1.1546486453	 0.121175
70.6209	108.7891	180.9251	289.5714	312.442	369.5456	408.5992	444.8251	467.4727	544.0063	733.5152	773.3025	786.199	854.2125	896.6907	915.2396	938.4807	941.0962	971.7843	996.2647	1045.4638	1075.2024	1096.9214	1102.553	1157.9274	1171.5363	1189.6448	1218.2533	1275.4079	1295.2664	1319.989	1330.8724	1431.2814	1439.1071	1452.1349	1466.455	1512.3147	1527.1641	3034.72	3079.8056	3089.3451	3112.4031	3128.134	3134.4733	3178.3904	3216.6162	3230.6178	3754.0865
OC1(CC1)CC1OC1	OC1(CC1)C[C@H]1OC1	
InChI=1S/C6H10O2/c7-6(1-2-6)3-5-4-8-5/h5,7H,1-4H2	InChI=1S/C6H10O2/c7-6(1-2-6)3-5-4-8-5/h5,7H,1-4H2/t5-/m1/s1
