18
gdb 32612	4.4968	1.03088	0.90638	6.5239	85.9	-0.2031	-0.0171	0.186	1312.0463	0.150124	-398.168569	-398.160304	-398.15936	-398.202103	30.772	
C	 0.2390033607	 1.4585963409	 0.1166421655	-0.373345
C	 0.0022760941	-0.04295268	-0.0611164452	-0.174193
N	-1.4100512907	-0.4134774761	-0.0258718131	-0.06275
C	-2.1010058521	-0.4909377654	 1.1747126559	 0.004995
C	-3.4167438804	-0.757677674	 1.1921772341	-0.162355
C	-4.1471748078	-0.9624523129	-0.0564762875	 0.327935
N	-5.4052820431	-1.2078195554	-0.0512547699	-0.543202
N	-3.3859041072	-0.8785631095	-1.247987977	-0.342015
C	-2.1320125568	-0.6181753252	-1.1739931557	 0.096268
H	 1.3110733627	 1.6762866342	 0.0939380681	 0.129046
H	-0.2461900826	 2.0271045871	-0.6820696749	 0.13662
H	-0.1592311953	 1.8096139816	 1.0732499805	 0.134044
H	 0.406056853	-0.3814756834	-1.0197632239	 0.128567
H	 0.5233026527	-0.6082094729	 0.7195225831	 0.126822
H	-1.5072848377	-0.3327405771	 2.0671703624	 0.127124
H	-3.9583267884	-0.8303751603	 2.1260774352	 0.11787
H	-5.7164019763	-1.3198393902	-1.018652349	 0.208724
H	-1.5444336445	-0.5514308415	-2.0896952383	 0.119844
59.4057	75.4113	148.286	218.8683	342.4784	367.2072	431.4055	452.026	468.6271	512.5195	669.9099	738.7722	743.3373	792.7845	828.7277	838.2918	901.5914	963.4182	967.6771	975.2377	1011.9867	1066.3859	1097.9577	1134.5826	1186.9626	1239.5907	1282.0021	1327.9036	1389.8692	1410.3349	1413.0996	1437.3956	1461.2291	1488.7583	1491.0473	1507.3548	1616.7893	1678.5481	1722.9346	3042.432	3045.3513	3089.6131	3118.9215	3123.5106	3130.7965	3201.0702	3228.8797	3455.3692
CCN1C=CC(=N)N=C1	CCN1C=CC(=NC1)[NH]	
InChI=1S/C6H9N3/c1-2-9-4-3-6(7)8-5-9/h3-5,7H,2H2,1H3	InChI=1S/C6H10N3/c1-2-9-4-3-6(7)8-5-9/h3-4,7H,2,5H2,1H3
