21
gdb 103493	2.67419	1.32398	1.15016	0.4862	77.98	-0.226	0.0722	0.2982	1185.7	0.182258	-424.212083	-424.203037	-424.202093	-424.245798	34.632	
C	-0.2313147278	 1.5397826805	-0.039188496	-0.401906
C	 0.0844350335	 0.0430461901	 0.0791348705	-0.229964
C	 0.6939214775	-0.5239632468	-1.1853525763	 0.360193
O	 1.8828183705	 0.1026334775	-1.6070639307	-0.475857
C	 0.7305708676	-2.0033083721	-1.5109057042	-0.12544
C	-0.2133329768	-2.9685053201	-0.7952839466	-0.270291
C	-1.5610400849	-2.7088264683	-1.5032126244	-0.061658
O	-1.4988561833	-1.3680393268	-2.0059597116	-0.258726
C	-0.158144437	-1.0762352228	-2.309003725	 0.00448
H	 0.674603798	 2.126555286	-0.2260430742	 0.11059
H	-0.9391920149	 1.7275658282	-0.8535363588	 0.126351
H	-0.6765365983	 1.9188356826	 0.8851602593	 0.11589
H	 0.7795313599	-0.1250440128	 0.9111431571	 0.10011
H	-0.8375397016	-0.4955285527	 0.310651331	 0.108932
H	 1.6530139965	 0.9775317568	-1.9390195738	 0.283632
H	 1.6598950481	-2.3701346539	-1.9286850866	 0.101185
H	 0.1146501676	-4.0037855261	-0.9198721612	 0.107265
H	-0.2790811448	-2.772520173	 0.2792020362	 0.110131
H	-1.7028429946	-3.41421619	-2.3356999504	 0.095801
H	-2.4301990758	-2.7745123309	-0.8428888881	 0.107943
H	 0.0432109706	-0.8000244953	-3.3407132663	 0.091338
64.0191	130.1067	159.6199	226.2954	263.7788	272.178	284.6662	348.8083	395.8155	486.8121	512.4315	649.6007	711.767	732.7611	785.1515	849.3885	855.4749	890.0048	943.1578	967.5441	975.4933	1017.0049	1023.9443	1053.153	1072.1675	1100.502	1121.733	1132.8366	1184.1784	1223.4178	1242.1145	1273.1156	1283.222	1302.3321	1311.8229	1319.7307	1369.9979	1385.8002	1403.0908	1436.3334	1469.1242	1496.6349	1502.0232	1511.4197	1518.8838	2991.4042	3032.0966	3034.1057	3055.8773	3087.2615	3089.9513	3102.7279	3108.8871	3111.8531	3139.5545	3189.5454	3799.1084
CCC1(O)C2CCOC12	CC[C@@]1(O)[C@H]2CCO[C@@H]12	
InChI=1S/C7H12O2/c1-2-7(8)5-3-4-9-6(5)7/h5-6,8H,2-4H2,1H3	InChI=1S/C7H12O2/c1-2-7(8)5-3-4-9-6(5)7/h5-6,8H,2-4H2,1H3/t5-,6+,7+/m0/s1
