18
gdb 73062	3.21646	1.08866	0.97723	2.9189	74.71	-0.236	0.0297	0.2657	1259.6874	0.146992	-439.069433	-439.060738	-439.059794	-439.103507	31.946	
C	-0.1885280667	 1.5234501998	 0.0836331415	-0.49139
C	 0.0486517317	 0.0495191648	 0.0889799269	 0.399388
O	-1.0987711357	-0.8080089457	-0.0772997054	-0.33233
C	-0.5695869594	-1.7376419325	 0.9144056608	-0.104968
C	 0.7201151476	-0.9444668385	 1.0318082376	-0.196577
C	 1.261637859	-0.6900602681	-0.3704875045	-0.011987
N	 1.1601051265	-1.6346088779	-1.4373622424	-0.287015
C	 2.2418980704	-2.2230077131	-2.011843339	 0.152402
O	 3.3920327215	-2.0515681019	-1.6667612327	-0.327075
H	 0.7451057352	 2.060068181	 0.273571318	 0.132044
H	-0.5726468728	 1.8456258412	-0.890771425	 0.136226
H	-0.9188792012	 1.805247338	 0.8481940079	 0.13246
H	-1.1872512609	-1.717970314	 1.8176767247	 0.118369
H	-0.5025737271	-2.7613030199	 0.5287031204	 0.109176
H	 1.3110409805	-0.7957251418	 1.9255728167	 0.106341
H	 2.192912389	-0.1347058183	-0.3858631981	 0.130889
H	 0.236465503	-1.8026345802	-1.8079861623	 0.259938
H	 1.9506427894	-2.8847437828	-2.8519159351	 0.074109
36.2426	144.8691	184.8692	200.3406	223.392	263.4172	302.6184	323.6039	538.1139	551.6401	599.8011	664.3165	742.8682	793.8675	840.1108	903.3848	935.9273	966.5388	982.9924	997.049	1024.3336	1036.6044	1090.8701	1107.2125	1126.585	1164.2313	1192.7973	1228.5421	1258.9207	1320.8023	1339.9503	1406.8577	1427.9697	1453.8565	1474.5854	1495.5467	1514.4501	1539.6604	1803.1138	2934.3138	3033.909	3035.7073	3086.4184	3100.8389	3121.0648	3186.4068	3204.8388	3615.7704
CC12OCC1C2NC=O	C[C@]12OC[C@H]1[C@H]2NC=O	
InChI=1S/C6H9NO2/c1-6-4(2-9-6)5(6)7-3-8/h3-5H,2H2,1H3,(H,7,8)	InChI=1S/C6H9NO2/c1-6-4(2-9-6)5(6)7-3-8/h3-5H,2H2,1H3,(H,7,8)/t4-,5+,6-/m0/s1
