17
gdb 49217	3.91783	0.93712	0.78279	3.1573	83.67	-0.2523	-0.0595	0.1928	1403.2455	0.135007	-384.685712	-384.677182	-384.676238	-384.71929	31.628	
O	-0.0952172328	-0.0078751135	 0.0509005194	-0.268136
C	-0.0176302299	 1.2009662359	 0.064116854	 0.066278
C	 1.2440461894	 1.944690674	 0.0498409564	 0.240933
C	 1.3342929724	 3.282711949	 0.0301828802	-0.152546
C	 2.7597377235	 3.7551833399	-0.02626483	-0.268742
C	 3.5672166946	 2.4688738469	 0.3433729238	-0.170153
C	 2.6038688783	 1.2872258069	 0.0072259199	-0.321723
C	 4.8753456349	 2.382393451	-0.2863169268	 0.305969
C	 5.9503138091	 2.3126739632	-0.8201258493	-0.449176
H	-0.9303272475	 1.8377380983	 0.0923503527	 0.068492
H	 0.4844041303	 3.9579100257	 0.0176071814	 0.113579
H	 3.009173431	 4.1027734948	-1.0379659793	 0.134589
H	 2.9718053818	 4.5891034448	 0.6502163758	 0.124435
H	 3.7040010932	 2.4773463457	 1.4317341339	 0.114888
H	 2.6986811981	 0.4561285893	 0.7099341848	 0.132476
H	 2.805644441	 0.8810566812	-0.9907457249	 0.131788
H	 6.9023047026	 2.247491857	-1.2858883822	 0.19705
72.2505	114.9335	131.8278	208.2755	246.5253	295.7054	435.8485	453.7514	509.7893	521.3231	576.4728	628.0883	637.5884	727.811	829.6818	838.0481	881.7781	922.1318	985.625	1023.7632	1040.2433	1047.4092	1055.8052	1145.0813	1193.3947	1206.5321	1265.7286	1297.0208	1308.3293	1357.3848	1365.3216	1419.348	1475.7238	1489.3439	1681.2776	1784.6638	2237.9452	2877.6354	3021.2265	3028.9015	3048.5111	3077.1262	3104.2352	3187.616	3504.1266
O=CC1=CCC(C1)C#C	O=CC1=CC[C@@H](C1)C#C	
InChI=1S/C8H8O/c1-2-7-3-4-8(5-7)6-9/h1,4,6-7H,3,5H2	InChI=1S/C8H8O/c1-2-7-3-4-8(5-7)6-9/h1,4,6-7H,3,5H2/t7-/m0/s1
