17
gdb 44772	2.49551	2.1463	1.5855	4.0094	74.25	-0.2264	0.0201	0.2465	888.7225	0.138425	-417.890602	-417.884072	-417.883128	-417.921173	27.462	
N	-0.0892551475	 1.1670615794	 0.1980799668	-0.558537
C	-0.0397735795	-0.0808615228	 0.0656858599	 0.429031
O	 1.0910610175	-0.8767491114	 0.1039460999	-0.245664
C	 0.5178849513	-2.1824285056	-0.0850739342	 0.033257
C	-0.7128817927	-2.1543648621	 0.9342556384	-0.322615
C	-1.1643905448	-1.0855793497	-0.1519526327	 0.168315
N	-2.2046146639	-0.5482688431	-1.1037421914	-0.381133
C	-1.2302245921	-0.9948981576	-2.2122796922	-0.246481
C	-0.5850058459	-2.0026853716	-1.1938940831	-0.016206
H	 0.8450745053	 1.5495528521	 0.3562828621	 0.225108
H	 1.3003459206	-2.9390625923	-0.0675936344	 0.100879
H	-1.3119861034	-3.0644148017	 0.930769637	 0.11955
H	-0.485047841	-1.8230907251	 1.9504173375	 0.124293
H	-2.9963162261	-1.1907834344	-1.1223625591	 0.221695
H	-1.7066836309	-1.426182047	-3.095196022	 0.111699
H	-0.6080398879	-0.1452823462	-2.4941232569	 0.149072
H	-1.1671996688	-2.9269994612	-1.2357009655	 0.087738
162.8368	250.8479	312.9644	381.4105	460.6998	521.5304	585.7817	639.9796	655.6807	716.8653	770.3568	793.5418	825.286	863.1802	886.6976	893.3189	927.5874	956.6123	992.3026	1007.1925	1024.664	1044.5631	1085.4188	1114.5033	1134.401	1149.894	1176.0027	1193.7977	1213.2655	1256.0929	1276.7455	1328.4732	1369.2642	1394.7277	1490.1103	1493.4668	1809.3965	3063.8477	3074.3595	3078.1172	3140.0267	3149.8442	3156.732	3468.6598	3470.4134
N=C1OC2CC11NCC21	[NH][C]1O[C@H]2C[C@]31NC[C@@H]23	
InChI=1S/C6H8N2O/c7-5-6-1-4(9-5)3(6)2-8-6/h3-4,7-8H,1-2H2	InChI=1S/C6H8N2O/c7-5-6-1-4(9-5)3(6)2-8-6/h3-4,7-8H,1-2H2/t3-,4-,6-/m0/s1
