17
gdb 65442	3.19579	0.91565	0.89202	3.2001	77.06	-0.2532	-0.0047	0.2485	1363.9632	0.132235	-421.799562	-421.789946	-421.789002	-421.834771	34.35	
C	 0.0141349527	 1.4966370123	 0.285830874	-0.467373
C	 0.0663173788	-0.0105843046	 0.0853006888	 0.08828
C	 1.3967968339	-0.6414494671	-0.334414045	-0.346521
C	 0.8963497825	-0.8570902559	 1.0498309852	 0.081783
O	 1.6170258737	-0.2110037126	 2.0756488446	-0.187185
C	 1.0283687892	-0.173734708	 3.2946598954	 0.17264
O	 1.5407620261	 0.3529409464	 4.2337326166	-0.266245
C	-1.1398741017	-0.6188158582	-0.4090724209	 0.27402
C	-2.1544001615	-1.1228692607	-0.8140012136	-0.446231
H	 0.9496541675	 1.864675285	 0.7119974533	 0.13976
H	-0.1565161734	 1.9997230764	-0.6700040411	 0.135136
H	-0.8024401263	 1.7695792301	 0.9611405623	 0.132362
H	 1.3805430843	-1.4768693946	-1.0233398178	 0.136038
H	 2.232521408	 0.0401283715	-0.4464309713	 0.140455
H	 0.5104253643	-1.8337363206	 1.3254808232	 0.124789
H	 0.0469351799	-0.6838848942	 3.3127445226	 0.090034
H	-3.0496261379	-1.5645924252	-1.1759850661	 0.198259
41.1974	93.1623	115.8584	164.6465	202.703	244.7208	251.9585	335.3552	413.723	457.3066	529.7311	548.0846	597.0723	639.1153	652.8777	697.1956	827.9274	894.5763	929.2482	972.4522	1044.4994	1054.2563	1074.6783	1102.0869	1114.6626	1171.0396	1176.173	1273.844	1295.4261	1392.1061	1416.1121	1432.5404	1477.4099	1491.3773	1502.6345	1872.5516	2234.1422	2965.9237	3046.5815	3112.8391	3136.1627	3146.5486	3157.5001	3241.8317	3502.7342
CC1(CC1OC=O)C#C	C[C@]1(C[C@H]1OC=O)C#C	
InChI=1S/C7H8O2/c1-3-7(2)4-6(7)9-5-8/h1,5-6H,4H2,2H3	InChI=1S/C7H8O2/c1-3-7(2)4-6(7)9-5-8/h1,5-6H,4H2,2H3/t6-,7-/m1/s1
