19
gdb 112464	3.19473	1.09847	0.8699	2.8168	78.77	-0.243	-0.0166	0.2265	1339.8537	0.158665	-423.047004	-423.038147	-423.037203	-423.081186	32.532	
C	-0.0095076836	 1.3836990896	-0.0947366356	-0.243029
O	-0.0835188851	-0.0131090072	 0.0804389353	-0.244023
C	 0.7050952752	-0.5133907086	 1.1542940129	 0.078571
C	 0.062448984	-1.836210196	 1.5940018598	-0.322072
C	 0.965619632	-2.6321028579	 2.5194061974	 0.372526
O	 0.5974351163	-3.0587209875	 3.5874487919	-0.307087
C	 2.377660276	-2.8731666727	 1.9946737242	-0.353074
C	 2.8794398089	-1.761102049	 1.1116802216	-0.065027
C	 2.1450859014	-0.7120004141	 0.7466019867	-0.073086
H	 1.0006668985	 1.7255205331	-0.3651257858	 0.107363
H	-0.6899672779	 1.640585586	-0.9101455774	 0.131731
H	-0.3221885177	 1.9227294292	 0.8131552749	 0.108899
H	 0.6575854263	 0.2070003169	 1.9899433813	 0.084235
H	-0.9022082916	-1.6714912691	 2.0763804754	 0.123435
H	-0.0991454778	-2.4256921933	 0.6815802678	 0.132896
H	 3.0384499603	-3.0438758389	 2.8520069247	 0.1351
H	 2.3674534479	-3.8218638662	 1.4356701229	 0.138397
H	 3.9130008143	-1.836780432	 0.7827036583	 0.098568
H	 2.5799527727	 0.0621811176	 0.1206295738	 0.095677
75.2852	79.4928	109.5315	174.3423	265.5872	306.0632	355.541	401.05	460.8093	501.4286	548.4865	579.1073	695.7621	731.2264	826.8284	889.5942	918.8254	960.1517	995.5085	1008.4814	1031.211	1092.0457	1123.4648	1137.7126	1181.7178	1198.7338	1214.1463	1227.895	1246.0985	1287.5508	1333.736	1349.6389	1373.6879	1415.485	1444.7795	1467.4729	1478.3958	1490.6215	1509.7904	1722.631	1824.2891	2941.6862	2977.4718	2999.3663	3024.2272	3034.035	3065.5421	3115.3788	3126.3904	3150.8195	3176.6592
COC1CC(=O)CC=C1	CO[C@H]1CC(=O)CC=C1	
InChI=1S/C7H10O2/c1-9-7-4-2-3-6(8)5-7/h2,4,7H,3,5H2,1H3	InChI=1S/C7H10O2/c1-9-7-4-2-3-6(8)5-7/h2,4,7H,3,5H2,1H3/t7-/m1/s1
