19
gdb 89177	2.39573	1.55164	1.17637	1.4305	71.93	-0.221	0.0643	0.2854	1097.5835	0.156859	-460.123114	-460.113894	-460.11295	-460.15606	36.171	
C	-0.09771279	 1.5904331415	 0.0420679706	-0.460709
C	 0.0778731665	 0.0915246206	 0.116738516	 0.317762
O	-1.0895223541	-0.6180425421	-0.2678845186	-0.48827
C	 1.3425190139	-0.6847107182	-0.2352109795	-0.238134
C	 2.5989682916	-0.0582619084	 0.3417644131	 0.10974
O	 2.984049118	 1.1672002591	-0.2544543233	-0.430115
C	 1.9606785429	-0.0376022046	 1.7790222266	-0.355781
C	 0.7264121834	-0.7056639155	 1.202554332	 0.406784
O	 0.0578312382	-1.6805747457	 1.8992460071	-0.46528
H	 0.8117047025	 2.1147342518	 0.3350291805	 0.140424
H	-0.3243971407	 1.8910392563	-0.9884496903	 0.105998
H	-0.9304078744	 1.908400703	 0.6780986638	 0.116704
H	-1.1735781832	-0.5732345148	-1.2260569966	 0.288642
H	 1.3210938194	-1.418241983	-1.0340008412	 0.078955
H	 3.429115562	-0.7757644843	 0.3090927372	 0.081037
H	 3.791514827	 1.4677342014	 0.1752481937	 0.28331
H	 2.4904119458	-0.6889469338	 2.4776352366	 0.11381
H	 1.8180494235	 0.9454334441	 2.2380317553	 0.099533
H	-0.7586465122	-1.8460640475	 1.406611417	 0.295589
152.2852	192.7398	212.4727	213.8943	254.1598	291.0294	296.8296	316.4167	397.337	430.9635	465.8641	475.184	483.9431	608.3517	639.3937	694.069	721.2592	848.8047	901.868	919.8881	981.0833	996.5244	1001.6233	1046.737	1100.9488	1117.5676	1146.2821	1172.9711	1203.0704	1214.7134	1254.53	1281.4812	1311.3369	1315.7654	1410.6704	1420.7883	1430.4553	1456.197	1484.4431	1499.198	1505.1603	3010.4144	3027.8594	3053.9431	3087.794	3114.9788	3154.6864	3168.0932	3747.6507	3809.0372	3810.4877
CC1(O)C2C(O)CC12O	C[C@@]1(O)[C@H]2[C@@H](O)C[C@@]12O	
InChI=1S/C6H10O3/c1-5(8)4-3(7)2-6(4,5)9/h3-4,7-9H,2H2,1H3	InChI=1S/C6H10O3/c1-5(8)4-3(7)2-6(4,5)9/h3-4,7-9H,2H2,1H3/t3-,4+,5+,6-/m0/s1
