17
gdb 97494	2.29277	0.7202	0.55368	4.2766	92.82	-0.2529	-0.0659	0.187	1991.1016	0.13231	-384.658661	-384.647769	-384.646824	-384.699487	35.433	
C	-0.0118104951	 1.5793103037	 0.1308464994	-0.368656
C	-0.0474076938	 0.0445271871	 0.0189300788	-0.321813
C	-1.3949458819	-0.5039667702	-0.0266790114	 0.007569
C	-2.5177383967	-0.9475315456	-0.0637041251	 0.078156
C	-3.8511913368	-1.5030430427	-0.109773362	 0.13457
O	-4.0624793481	-2.6990999502	-0.1984551516	-0.275081
C	-4.9157320998	-0.5269000622	-0.0422817805	 0.094178
C	-5.8166619114	 0.2743603515	 0.0130813084	-0.011265
C	-6.9077454705	 1.2301763762	 0.0784547275	-0.501034
H	 1.023080351	 1.9316066978	 0.1608527105	 0.121281
H	-0.5100287269	 2.0430273518	-0.7244502856	 0.133676
H	-0.517448878	 1.9145283047	 1.0401024868	 0.133673
H	 0.4940543131	-0.2787119056	-0.8795964664	 0.144446
H	 0.4866935078	-0.4058007813	 0.8656634242	 0.144448
H	-7.554440745	 1.0219017107	 0.9377945232	 0.163995
H	-6.5387803031	 2.2568279285	 0.1706038394	 0.157809
H	-7.5280270448	 1.1710476258	-0.8226166955	 0.164048
8.8348	12.098	45.5793	115.1691	124.6353	161.1218	210.1123	239.2392	315.9921	381.5898	416.579	441.7039	510.4699	562.3464	662.9523	773.1583	778.9849	859.438	973.2371	1043.9565	1053.571	1078.2534	1098.4678	1112.2312	1262.3287	1282.2091	1347.1496	1409.3818	1410.917	1462.1565	1469.7747	1472.7611	1495.2644	1504.2157	1711.2412	2331.4338	2341.7361	3022.8432	3031.2013	3047.9725	3051.0698	3094.5205	3098.7776	3122.8305	3127.6867	8.8379	12.097	45.5794	115.169	124.6354	161.1218	210.1123	239.2392	315.9918	381.5892	416.5786	441.7038	510.4699	562.3464	662.9522	773.1583	778.9849	859.438	973.2371	1043.9564	1053.5709	1078.2534	1098.4679	1112.2311	1262.3287	1282.2091	1347.1496	1409.3818	1410.9171	1462.1565	1469.7746	1472.7611	1495.2645	1504.2157	1711.2412	2331.4338	2341.736	3022.8432	3031.2013	3047.9725	3051.0698	3094.5205	3098.7776	3122.8305	3127.6867
CCC#CC(=O)C#CC	CCC#CC(=O)C#CC	
InChI=1S/C8H8O/c1-3-5-7-8(9)6-4-2/h3H2,1-2H3	InChI=1S/C8H8O/c1-3-5-7-8(9)6-4-2/h3H2,1-2H3
