15
gdb 62353	3.87405	1.12232	1.10853	2.8554	73.85	-0.2437	-0.021	0.2227	1120.6761	0.109972	-420.572298	-420.564088	-420.563144	-420.60489	31.467	
O	-0.1537902425	 1.3542413524	 0.0436396538	-0.454255
C	-0.0797966502	-0.0421224333	-0.0006959538	 0.223792
C	 1.0418221578	-0.6117109781	 0.7084770511	 0.254395
C	 1.9989054796	-1.0547174241	 1.2855817659	-0.402041
C	-1.359505522	-0.8014511557	 0.016218973	-0.112036
C	-2.4557371872	 0.0012885992	-0.7043044694	-0.368364
C	-1.5737560236	-0.0625137697	-1.9750866536	 0.414585
O	-1.7584862053	 0.2308332912	-3.1202854251	-0.308002
C	-0.4805991128	-0.821507356	-1.270357735	-0.262933
H	 0.6399870637	 1.7094943363	-0.372534832	 0.294879
H	 2.8373969736	-1.447433984	 1.8062179463	 0.201956
H	-1.5272977579	-1.6173025158	 0.7057873689	 0.120593
H	-3.3722729468	-0.5757122431	-0.8570855051	 0.133171
H	-2.6956616546	 0.9871657313	-0.3052245537	 0.14313
H	 0.1760070081	-1.5778935706	-1.6808471712	 0.121129
104.6312	126.5712	159.8564	272.2555	311.4308	357.1312	424.2954	451.9532	519.4401	553.4207	592.6234	610.9403	657.2959	681.1667	688.6544	830.0587	844.4354	881.6115	960.6294	978.6432	989.5992	1025.829	1068.1545	1104.9482	1152.9419	1214.4601	1246.5412	1259.0896	1284.53	1406.3729	1450.5799	1889.0373	2236.359	3074.1954	3140.6676	3203.6574	3216.4796	3499.8729	3801.8647
OC1(C#C)C2CC(=O)C12	O[C@@]1(C#C)[C@H]2CC(=O)[C@@H]12	
InChI=1S/C7H6O2/c1-2-7(9)4-3-5(8)6(4)7/h1,4,6,9H,3H2	InChI=1S/C7H6O2/c1-2-7(9)4-3-5(8)6(4)7/h1,4,6,9H,3H2/t4-,6-,7-/m0/s1
