16
gdb 54962	3.2076	1.08259	0.97984	4.04	71.45	-0.2466	-0.0089	0.2376	1218.8126	0.124352	-434.095298	-434.086173	-434.085229	-434.129165	33.607	
N	-0.0611670971	 1.2084564211	 0.4140650549	-0.531988
C	-0.0078544227	 0.015325766	-0.2332793201	 0.443211
O	 0.9975948883	-0.3719112949	-0.811440631	-0.385836
C	-1.2784439327	-0.7818698362	-0.1970402221	-0.167222
C	-1.5667128583	-1.7241417819	-1.3441416909	-0.31674
C	-1.1739005089	-2.3016643835	 0.0027730557	 0.15278
N	 0.1062010335	-2.8983103747	 0.2767417803	-0.579118
C	-2.250624257	-2.8785747492	 0.7832379483	 0.283691
N	-3.1235882359	-3.3420838091	 1.3834317832	-0.340712
H	 0.7820896079	 1.7567804975	 0.4663160842	 0.27029
H	-0.8563536326	 1.4915514524	 0.9589629684	 0.269046
H	-2.1307999753	-0.309384716	 0.2779828383	 0.110402
H	-2.5921209668	-1.8102351245	-1.6834343231	 0.138046
H	-0.7980578763	-1.7752662866	-2.107176671	 0.14841
H	 0.1443494682	-3.8301655533	-0.1250845631	 0.239651
H	 0.8327539957	-2.3334523272	-0.1579117619	 0.266087
73.0144	108.6439	157.2913	226.3743	239.2351	272.746	311.7864	367.3657	387.779	429.1762	550.889	585.5513	602.0205	631.4385	677.6948	764.0565	817.0109	852.2458	902.9171	923.9688	992.8169	1035.6778	1070.9622	1087.7311	1133.6558	1187.137	1279.1924	1309.7065	1363.2763	1441.8008	1465.9909	1620.8291	1651.8087	1770.5368	2355.0101	3141.4507	3173.7509	3243.1165	3473.3777	3561.8014	3603.7778	3739.5104
NC(=O)C1CC1(N)C#N	NC(=O)[C@H]1C[C@]1(N)C#N	
InChI=1S/C5H7N3O/c6-2-5(8)1-3(5)4(7)9/h3H,1,8H2,(H2,7,9)	InChI=1S/C5H7N3O/c6-2-5(8)1-3(5)4(7)9/h3H,1,8H2,(H2,7,9)/t3-,5+/m1/s1
