19
gdb 84931	2.47955	1.5373	1.09896	2.2764	77.69	-0.232	-0.015	0.217	1143.6773	0.15912	-423.045841	-423.03732	-423.036376	-423.07901	32.355	
C	-1.3289817161	 0.5111957255	 0.1153617042	-0.408364
C	 0.1585039498	 0.1715517679	 0.0268343056	-0.124828
C	 0.806631933	 0.7563778825	-1.2203179435	-0.062973
C	 2.0912263108	 0.6863686597	-1.5680526262	-0.068774
C	 3.1944082302	-0.0174017047	-0.8286515546	-0.138815
O	 2.7981086254	-0.6684466624	 0.3625436525	-0.232377
C	 2.374659802	 0.2038833636	 1.3836068663	-0.180684
C	 0.9287663698	 0.7006049767	 1.2403014657	 0.351318
O	 0.461095515	 1.4598574907	 2.0525159963	-0.304865
H	-1.4755952229	 1.5930038972	 0.1772368862	 0.133433
H	-1.8588706355	 0.1359532568	-0.7652656122	 0.111054
H	-1.7804096728	 0.0682015846	 1.006329873	 0.123383
H	 0.3003389061	-0.9161036079	 0.0154016905	 0.116059
H	 0.1328496299	 1.3235573232	-1.8584152357	 0.098531
H	 2.4135072435	 1.1790094104	-2.4839494008	 0.095248
H	 3.6298667547	-0.7994707442	-1.4634637292	 0.125731
H	 4.0082360632	 0.7007581859	-0.6169468864	 0.10299
H	 2.4306815591	-0.3534964146	 2.3254370812	 0.14102
H	 3.0366941748	 1.0779589793	 1.4826662069	 0.122913
78.6149	107.9784	203.6259	240.0079	284.2051	314.4255	357.7418	392.6255	421.028	510.8035	569.7068	611.3856	669.684	769.2764	779.4901	880.3215	905.4947	958.6503	995.0782	1008.5466	1041.3329	1061.7139	1089.1851	1114.3882	1142.2817	1194.3813	1242.7157	1265.7485	1272.9587	1315.8952	1329.1324	1356.2757	1406.4523	1407.3554	1416.5044	1450.8456	1481.8646	1491.2355	1493.8531	1721.1949	1820.214	2936.7393	2995.0416	3034.3827	3043.3114	3046.455	3073.6986	3118.5244	3126.431	3136.7572	3160.1628
CC1C=CCOCC1=O	C[C@H]1C=CCOCC1=O	
InChI=1S/C7H10O2/c1-6-3-2-4-9-5-7(6)8/h2-3,6H,4-5H2,1H3	InChI=1S/C7H10O2/c1-6-3-2-4-9-5-7(6)8/h2-3,6H,4-5H2,1H3/t6-/m0/s1
