15
gdb 25721	2.76634	1.57672	1.01102	1.7702	72.62	-0.2159	-0.043	0.1729	1106.5693	0.112739	-454.011409	-454.002983	-454.002039	-454.044991	30.303	
C	-0.0197492707	 1.5267823231	-0.0313920053	-0.486284
C	-0.0387079779	 0.0133379978	 0.0333147409	 0.296928
O	-0.0486588834	-0.5986115952	 1.1018108683	-0.370069
C	-0.0393226504	-0.7309931198	-1.1931633815	 0.162684
C	-0.031804784	-2.0989291184	-1.3973433221	 0.276487
N	-0.1036787963	-3.0706679824	-0.4633791199	-0.589054
N	 0.0217637324	-2.3616685933	-2.7540495919	-0.312723
C	 0.0369062454	-1.1813833744	-3.2978291555	 0.076916
O	 0.0007354599	-0.1455255903	-2.4567928859	-0.185308
H	 0.8632167329	 1.8793696115	-0.5749034535	 0.141348
H	-0.896335233	 1.9001859807	-0.5714497171	 0.142207
H	-0.0133932164	 1.9264550248	 0.9831049044	 0.140237
H	 0.0188948583	-2.766044066	 0.4922085242	 0.282427
H	 0.1599377712	-4.0045552809	-0.7280243795	 0.266308
H	 0.0744858421	-0.9532129473	-4.3525353855	 0.157896
57.6161	108.1993	160.6565	167.2129	306.0828	319.9458	343.56	434.1539	503.1584	562.2174	590.6308	636.7228	641.6861	741.8548	771.3567	875.811	932.6554	963.4829	1031.2975	1041.9326	1111.643	1167.993	1199.016	1327.5791	1342.8515	1383.0727	1461.5165	1472.9849	1486.496	1531.2411	1581.5563	1667.4959	1717.8409	3041.7068	3103.1241	3155.1996	3266.9041	3564.3196	3713.8944
CC(=O)C1=C(N)N=CO1	CC(=O)c1c(N)nco1	
InChI=1S/C5H6N2O2/c1-3(8)4-5(6)7-2-9-4/h2H,6H2,1H3	InChI=1S/C5H6N2O2/c1-3(8)4-5(6)7-2-9-4/h2H,6H2,1H3
