19
gdb 116115	2.6003	1.25006	0.88189	4.9536	72.94	-0.232	0.0611	0.2931	1293.2607	0.16175	-456.394385	-456.385507	-456.384563	-456.42828	33.016	
O	-0.091023158	 1.4266955392	 0.1302220843	-0.426188
C	 0.0268108741	 0.0189570254	-0.0219471739	-0.091879
C	-1.3856112282	-0.5552011733	 0.0037833451	 0.059036
C	-1.3997025129	-2.0747971225	-0.1610795972	-0.21057
C	-2.816796418	-2.6041152822	 0.0571826338	-0.16905
N	-3.3051416881	-2.143824138	 1.3454332751	-0.338831
C	-3.0520638949	-0.8870752858	 1.8627163702	 0.433522
O	-3.6698063671	-0.4401673691	 2.8139520696	-0.417241
N	-2.0121888358	-0.2082824455	 1.2682236466	-0.343382
H	 0.7806703454	 1.7919577155	 0.304720367	 0.294702
H	 0.5111985627	-0.2422644494	-0.9757360171	 0.089808
H	 0.6101276508	-0.4252942359	 0.7979989768	 0.09809
H	-1.9329764797	-0.100859231	-0.8397509627	 0.085669
H	-1.0481854516	-2.3468405705	-1.1606860182	 0.105476
H	-0.7263683125	-2.5295229503	 0.5744796699	 0.115067
H	-3.4646209599	-2.2750045047	-0.7717920512	 0.102516
H	-2.8175334555	-3.6991404945	 0.0492485014	 0.110675
H	-4.1474408772	-2.5509741453	 1.7190580838	 0.247548
H	-1.9046717436	 0.7440273579	 1.5808188866	 0.255032
75.8229	119.7759	133.3111	185.3727	244.0097	266.1928	369.8988	433.6128	466.2822	489.6405	520.5645	563.8078	602.0897	678.7345	761.7439	837.3973	923.5983	935.1044	982.6352	999.2825	1058.5457	1093.0628	1117.6636	1147.1072	1182.2857	1204.308	1230.1731	1263.6676	1274.8606	1325.537	1351.7122	1372.705	1394.5919	1428.7009	1449.8337	1460.8282	1477.6275	1486.0446	1510.3866	1529.6286	1802.4779	2951.9244	2966.9361	2976.8812	3021.4146	3042.6563	3063.229	3098.1535	3641.832	3645.1464	3841.2462
OCC1CCNC(=O)N1	OC[C@H]1CCNC(=O)N1	
InChI=1S/C5H10N2O2/c8-3-4-1-2-6-5(9)7-4/h4,8H,1-3H2,(H2,6,7,9)	InChI=1S/C5H10N2O2/c8-3-4-1-2-6-5(9)7-4/h4,8H,1-3H2,(H2,6,7,9)/t4-/m1/s1
