19
gdb 65646	3.59438	1.2018	1.11757	2.3415	76.12	-0.2591	-0.0348	0.2244	1147.631	0.158825	-423.011098	-423.002873	-423.001929	-423.044185	31.791	
O	-0.0018127758	 1.3376963896	 0.2126354909	-0.478023
C	 0.026057211	-0.0442247958	 0.0518026711	 0.344232
C	 0.3551014874	-0.8988365991	 1.326242424	-0.310658
C	-0.9227049407	-1.7536486914	 1.1099719039	-0.008227
C	-2.1479172995	-1.2855484397	 1.9304914024	-0.221368
C	-2.4566368722	-0.2051308765	 0.847300806	-0.237835
C	-1.3451163228	-0.7971903427	-0.061822175	-0.089699
C	 0.9118296598	-0.409291461	-1.1119890378	 0.108406
O	 1.445277043	 0.4276817818	-1.801731519	-0.284535
H	 0.5079085818	 1.7035011938	-0.5286842392	 0.290776
H	 1.3047577975	-1.4399624522	 1.29102059	 0.104752
H	 0.3418137621	-0.2823064936	 2.2282338807	 0.120495
H	-0.7673182825	-2.8250498946	 0.9812068127	 0.065793
H	-2.9281719191	-2.0486879617	 1.9926900232	 0.101381
H	-1.938666019	-0.92628703	 2.9426202956	 0.099517
H	-3.4597793958	-0.2630288605	 0.4206921582	 0.102291
H	-2.2669365696	 0.8280986824	 1.1431990507	 0.128846
H	-1.6521628357	-1.1382352859	-1.052603706	 0.065642
H	 1.03828129	-1.4934195132	-1.3111213226	 0.098211
61.4362	96.6016	203.276	271.765	315.3131	353.7235	364.8322	427.2714	508.1087	530.0818	701.2436	740.5543	752.6124	823.1611	841.2559	867.7414	897.353	901.4345	955.0771	964.7355	998.8596	1036.0127	1062.9843	1089.6322	1108.8681	1152.0629	1160.1587	1206.8248	1237.6245	1244.379	1267.6401	1284.8383	1290.6871	1293.2116	1316.5259	1387.3787	1434.3021	1470.4345	1480.9714	1499.6416	1804.0973	2925.1669	3049.74	3055.6114	3073.789	3082.7128	3095.5076	3103.7244	3116.1213	3132.6467	3676.3929
OC1(CC2CCC12)C=O	O[C@]1(C[C@H]2CC[C@@H]12)C=O	
InChI=1S/C7H10O2/c8-4-7(9)3-5-1-2-6(5)7/h4-6,9H,1-3H2	InChI=1S/C7H10O2/c8-4-7(9)3-5-1-2-6(5)7/h4-6,9H,1-3H2/t5-,6-,7-/m1/s1
