21
gdb 41190	2.77736	1.7704	1.58673	1.3058	83.08	-0.2258	0.0743	0.3001	970.0142	0.185228	-387.001571	-386.994523	-386.993579	-387.032437	30.257	
C	-0.0437613703	 1.6027090129	-0.200517341	-0.29842
C	 1.5277908208	 1.4696399955	 0.0523191128	-0.29826
C	 1.1577036956	 0.2046874915	 0.8823339403	 0.435415
C	 1.2253061464	-1.3455271754	 1.0085267936	-0.322077
C	-0.3740092638	-1.2487389231	 0.8952071846	-0.09494
C	-0.9557445914	-0.9504870506	 2.27280852	-0.220767
C	-0.4211746318	 0.4132915817	 2.7375746026	-0.065782
O	 0.8628271121	 0.7142361527	 2.2004268854	-0.313723
C	-0.0623975167	 0.0426358755	 0.0254508111	 0.0053
H	-0.515336548	 2.1969957167	 0.5813991999	 0.123192
H	-0.3705054622	 1.9616065027	-1.1789190873	 0.097539
H	 2.0598573437	 1.240804436	-0.8744534043	 0.101331
H	 2.0256347237	 2.2804424674	 0.5879605994	 0.105799
H	 1.66183299	-1.8476743665	 0.1425258026	 0.101146
H	 1.6343925972	-1.7553014103	 1.9361770438	 0.095911
H	-0.8877560051	-2.0745895115	 0.3978198351	 0.068835
H	-2.0506769731	-0.92012052	 2.2422882291	 0.098678
H	-0.6755337382	-1.751230236	 2.9671032108	 0.101869
H	-1.1348484664	 1.1955498908	 2.4391826527	 0.089659
H	-0.3208929976	 0.4653654563	 3.8260216367	 0.103377
H	 0.2831326651	-0.3623905764	-0.9315100079	 0.085918
184.8094	222.0036	278.9191	353.8828	406.1354	422.2929	512.6426	533.0209	646.0933	664.2853	751.6284	773.2853	804.9612	823.3282	827.1064	869.6133	898.9115	929.8856	944.8539	1015.386	1035.9433	1040.9925	1054.0117	1070.0528	1109.8521	1125.5868	1138.3643	1171.4844	1179.6461	1206.7706	1220.1306	1225.5377	1241.7485	1244.8133	1269.1656	1283.4378	1315.8443	1364.1457	1409.427	1423.0378	1470.1962	1473.7387	1485.4227	1494.1156	1518.744	2982.8128	3029.1576	3034.6663	3055.5873	3064.0981	3065.1007	3077.0163	3077.6289	3080.4106	3124.8471	3128.5836	3150.5137
C1CC23CC(CCO2)C13	C1C[C@@]23C[C@@H](CCO2)[C@@H]13	
InChI=1S/C8H12O/c1-3-8-5-6(7(1)8)2-4-9-8/h6-7H,1-5H2	InChI=1S/C8H12O/c1-3-8-5-6(7(1)8)2-4-9-8/h6-7H,1-5H2/t6-,7-,8+/m1/s1
