17
gdb 19409	3.02994	2.28643	1.69091	1.9302	68.29	-0.2374	0.0636	0.3011	821.4721	0.142167	-363.792648	-363.785416	-363.784471	-363.823745	28.314	
O	-0.0317659041	 1.4687471605	 0.0144212347	-0.428566
C	-0.0046260302	 0.0590859128	 0.0447983897	 0.006954
C	 0.1992835926	-0.6566851361	 1.3857290158	-0.071365
C	-0.9115155379	-0.3660259302	 2.3126107295	-0.239507
N	-1.1375586194	-1.3835263072	 1.2655001703	-0.166064
C	-1.3820807423	-0.5983643067	 0.0249154662	 0.384415
C	-2.6986061845	-0.0006225266	-0.3481362683	-0.316201
C	-2.1213278338	-1.1587229092	-1.141004405	-0.353087
H	 0.8748530286	 1.792822908	 0.0147421207	 0.284162
H	 0.6568404031	-0.3439360281	-0.733862498	 0.076975
H	 1.0982334404	-1.1839394075	 1.6885618866	 0.0905
H	-0.8502469432	-0.7907748912	 3.3097329384	 0.117736
H	-1.4328023683	 0.5846905677	 2.2407525334	 0.129787
H	-3.5422576286	-0.2065726119	 0.3025288363	 0.118615
H	-2.6914153128	 0.9886695527	-0.7921377455	 0.128572
H	-1.7356421135	-0.9656884945	-2.1371869937	 0.113132
H	-2.575778856	-2.1344637424	-1.0078515511	 0.123943
130.4855	196.3795	233.4341	264.4926	274.9472	405.6631	506.4474	577.4624	603.1985	759.3959	767.6646	776.0055	805.0962	896.3453	914.24	957.2525	976.1936	985.0401	1029.7949	1047.2683	1060.2019	1073.331	1110.526	1126.1778	1153.3421	1188.4497	1196.8211	1210.0126	1257.8349	1300.1972	1348.4708	1377.421	1436.8513	1452.1866	1491.191	1505.4171	3011.1546	3116.1076	3127.4946	3132.4208	3162.2977	3208.4736	3211.8657	3226.0935	3812.7968
OC1C2CN2C11CC1	O[C@H]1[C@H]2CN2C21CC2	
InChI=1S/C6H9NO/c8-5-4-3-7(4)6(5)1-2-6/h4-5,8H,1-3H2	InChI=1S/C6H9NO/c8-5-4-3-7(4)6(5)1-2-6/h4-5,8H,1-3H2/t4-,5+,7?/m1/s1
