13
gdb 17017	5.84726	1.33875	1.25036	1.9756	60.86	-0.2515	-0.0359	0.2156	925.101	0.095327	-398.54086	-398.534186	-398.533242	-398.572164	24.197	
O	-0.0209887933	-0.0513769101	-0.1931542047	-0.252574
C	-0.0098680437	 1.1289670803	 0.0568743689	 0.131696
C	 1.2663375368	 1.932964143	 0.0433526332	-0.064162
C	 1.2191626914	 3.3470999047	-0.6272213533	-0.171981
N	 0.3809783381	 3.7916519231	 0.5682140753	-0.31484
C	 1.485346633	 2.955429145	 1.2088011552	-0.171973
C	 2.4492974725	 3.7028398559	 0.2494060722	 0.449012
O	 3.4458722673	 4.3489161962	 0.2427484613	-0.307287
H	-0.9317517744	 1.6831428574	 0.3086029903	 0.113418
H	 2.1127644182	 1.2956417903	-0.2153093527	 0.112238
H	 0.9518388558	 3.6002581469	-1.6510406821	 0.11806
H	 0.5119904929	 4.7877234713	 0.7617064568	 0.240332
H	 1.5215861554	 2.7619096759	 2.2788449595	 0.118061
88.4873	132.462	240.9147	284.3683	444.5045	466.3486	525.9619	676.7368	756.7098	792.8983	805.75	880.3753	960.2066	960.7419	1026.8605	1074.5843	1104.6206	1115.3783	1124.1017	1167.2783	1187.4519	1191.7418	1251.1901	1280.9594	1329.2803	1418.5971	1813.4975	1919.759	2975.508	3120.4619	3150.6948	3153.4457	3422.0583
O=CC1C2NC1C2=O	O=C[C@H]1[C@H]2N[C@@H]1C2=O	
InChI=1S/C5H5NO2/c7-1-2-3-5(8)4(2)6-3/h1-4,6H	InChI=1S/C5H5NO2/c7-1-2-3-5(8)4(2)6-3/h1-4,6H/t2-,3+,4-
