20
gdb 76133	2.21035	1.35849	1.12614	6.4186	76.11	-0.2443	0.0266	0.2709	1197.0741	0.170633	-440.316364	-440.306887	-440.305943	-440.350148	35.899	
C	-0.1125606458	 1.5643914446	-0.1873500783	-0.466858
C	-0.0057257921	 0.0534296873	-0.0752463124	 0.302522
C	-1.2110184744	-0.5836985042	 0.5951631142	-0.441999
C	 0.6670519055	-0.7542917144	-1.1531776165	-0.08628
N	 1.2737087758	-0.0671786916	-2.2791659792	-0.53731
H	 2.4729167645	 0.8094449901	-1.3339610212	 0.316215
H	 1.8187132689	-0.7143623005	-2.8404148311	 0.254269
H	 0.570442711	 0.3457128486	-2.8834057374	 0.250794
C	 1.3429409241	-0.6166318831	 0.2088065917	-0.215896
C	 2.6084008017	 0.1647515977	 0.454609995	 0.407745
O	 3.0314770536	 0.9729075027	-0.5312186959	-0.38807
O	 3.2068971137	 0.0695212893	 1.4956310362	-0.34656
H	 0.780254911	 2.0302422121	-0.6032525551	 0.138755
H	-0.9709032516	 1.8416104707	-0.8111086371	 0.111054
H	-0.2773568221	 1.9986624494	 0.8044569827	 0.133426
H	-2.1321574004	-0.3407056351	 0.0523690815	 0.116599
H	-1.1232616581	-1.6732601216	 0.6383801525	 0.117728
H	-1.3213358854	-0.2162282808	 1.6210901928	 0.130726
H	 0.2302361192	-1.7296103718	-1.3647401395	 0.091385
H	 1.296969741	-1.4802834392	 0.8618753272	 0.111754
93.5462	157.7854	176.7004	191.8954	219.1545	258.7412	302.7098	336.3713	364.7966	393.9002	430.9452	475.0853	535.7107	663.5427	696.9711	782.6878	803.7201	847.3633	931.5413	963.194	966.3811	984.9935	1007.0509	1019.1051	1052.1917	1092.0561	1153.2098	1164.9409	1228.5079	1257.5594	1279.6177	1328.1784	1363.9948	1413.6464	1425.4734	1447.9627	1483.3797	1488.3856	1492.7453	1505.8036	1514.0098	1651.0561	1843.7318	3025.7489	3033.1963	3088.0166	3091.2094	3099.6269	3107.4167	3151.9874	3182.753	3253.0459	3499.787	3575.9527
CC1(C)C([NH3+])C1C([O-])=O	CC1(C)[C@@H](N)[C@H]1C(=O)O	
InChI=1S/C6H11NO2/c1-6(2)3(4(6)7)5(8)9/h3-4H,7H2,1-2H3,(H,8,9)	InChI=1S/C6H11NO2/c1-6(2)3(4(6)7)5(8)9/h3-4H,7H2,1-2H3,(H,8,9)/t3-,4-/m0/s1
