19
gdb 22812	2.72474	1.39827	0.96504	2.3908	85.59	-0.1831	-0.0062	0.1769	1216.2375	0.160729	-419.187526	-419.178835	-419.177891	-419.220546	33.635	
C	-0.0794935053	 1.5451278817	-0.0988943227	-0.474772
C	-0.0223416057	 0.0389440556	 0.0160541172	 0.194495
C	-0.1332950712	-0.7133952217	-1.1094754099	-0.060884
N	-0.1360785491	-2.0894229356	-1.16752458	-0.303836
C	 0.3363570412	-2.8061767015	 0.0084932232	-0.173499
C	-0.2721086255	-2.1496790103	 1.2473471249	-0.270995
C	 0.0731866391	-0.6717655763	 1.2931890967	 0.291547
N	 0.3713016263	-0.2500184264	 2.4722274906	-0.243308
O	 0.677439383	 1.1236289041	 2.5252471767	-0.403888
H	 0.8533187767	 2.0190765965	 0.2160288271	 0.13358
H	-0.2787295333	 1.8313097559	-1.1370914865	 0.095512
H	-0.869788117	 1.9710238844	 0.5266797611	 0.125027
H	-0.2598197764	-0.2266190382	-2.0724728821	 0.101345
H	 0.1236785958	-2.4843851962	-2.0578962846	 0.241148
H	 0.0323900821	-3.8546890848	-0.0650345333	 0.106676
H	 1.4362957312	-2.7743932172	 0.0780515066	 0.104943
H	-1.3630772084	-2.2639933001	 1.2015908533	 0.117347
H	 0.079925675	-2.6343667558	 2.1594596071	 0.118932
H	 0.8563148616	 1.2442325459	 3.4630300746	 0.30063
72.8172	194.8814	212.8339	259.7815	283.6801	334.5392	357.2592	373.9318	388.812	426.9681	502.9162	507.9483	617.5206	671.2998	696.9486	773.0806	895.5323	911.8524	938.0854	975.0967	1013.5232	1062.2759	1070.3485	1080.31	1146.5552	1204.2333	1233.777	1241.1105	1296.726	1352.5278	1368.1703	1390.16	1401.9378	1423.7678	1471.0526	1474.2118	1497.597	1498.8807	1516.8545	1680.0339	1690.1945	2967.4306	3026.9706	3034.1085	3076.0211	3097.0029	3109.3854	3119.9031	3170.024	3616.0082	3824.9922
CC1=CNCCC1=NO	CC1=CNCCC1=NO	
InChI=1S/C6H10N2O/c1-5-4-7-3-2-6(5)8-9/h4,7,9H,2-3H2,1H3	InChI=1S/C6H10N2O/c1-5-4-7-3-2-6(5)8-9/h4,7,9H,2-3H2,1H3
