16
gdb 133823	3.64155	2.0505	1.81134	1.1422	77.34	-0.2034	-0.0617	0.1417	806.242	0.124066	-363.400341	-363.394025	-363.393081	-363.430443	26.575	
C	 0.5849963986	-0.0446435682	 0.8402894725	-0.500132
C	 1.9014746905	-0.0732572197	 0.1266736247	 0.320455
C	 2.2302793537	-0.6030791815	-1.1933669617	-0.135939
N	 2.1187580544	 0.8984701025	-1.0185370762	-0.206637
C	 3.6618417985	 1.0145541384	-0.9667037043	-0.018269
C	 4.2317608733	 0.8933921153	 0.4522805678	-0.090501
C	 3.2333367043	-0.157483466	 0.8628565833	-0.052001
C	 4.4864575285	-0.6587216454	 0.3079220414	-0.135462
C	 3.7632177819	-0.4943089721	-0.9698062668	 0.043418
H	 0.5830057265	 0.744825125	 1.599849268	 0.128248
H	 0.3937766643	-0.9976301001	 1.342995226	 0.126564
H	-0.2291429597	 0.1517386322	 0.1384851743	 0.132975
H	 1.6542825089	-1.1814236546	-1.9052407182	 0.105339
H	 4.0560344015	 1.6421884059	-1.7671969746	 0.082198
H	 4.7139835534	 1.5998909084	 1.1228604259	 0.088723
H	 5.1935427115	-1.3899366601	 0.6807269278	 0.111021
195.1273	239.9999	285.8333	491.2281	517.0248	549.7502	557.2914	624.7292	694.4028	751.0549	783.7169	795.4721	849.0221	861.5948	877.6069	933.0496	961.7439	972.9007	996.0044	1000.2577	1024.8043	1055.8728	1086.7561	1103.0135	1140.5192	1175.0016	1189.5659	1208.3207	1238.2596	1260.8939	1361.3407	1399.8228	1434.6351	1482.4384	1491.1817	3037.5145	3101.0233	3101.7633	3125.5864	3140.1131	3174.6565	3187.6773
CC12C3N1C1C=C2C=C31	C[C@@]12[C@H]3N1[C@H]1[C@H]4[C@]52[C@H]4[C@]315	
InChI=1S/C8H7N/c1-8-4-2-5-6(3-4)9(8)7(5)8/h2-3,6-7H,1H3	InChI=1S/C8H7N/c1-6-5-7-3-2(8(3,6)7)4(7)9(5)6/h2-5H,1H3/t2-,3+,4-,5+,6-,7+,8+,9?/m0/s1
