18
gdb 98810	3.00191	1.25441	0.89984	3.2407	77.54	-0.2395	0.0036	0.2431	1282.7303	0.148527	-435.311697	-435.30244	-435.301496	-435.346588	32.546	
C	 0.0832276775	 1.3892382511	 0.2717883398	-0.328984
N	-0.0414271505	-0.0464860944	 0.1383960287	-0.355763
C	-1.2465081015	-0.6420375686	-0.0502810399	 0.477573
O	-2.3288340407	-0.0894131418	-0.1296601906	-0.414178
N	-1.1538788136	-2.0375374807	-0.1551795467	-0.132553
C	-2.2138616042	-3.0268538052	-0.3600287236	-0.159849
C	-1.0969154818	-4.1178183509	-0.3211951179	-0.360257
C	-0.1183782893	-2.9559561234	-0.1117191618	 0.401494
N	 1.1200736849	-2.7316357628	 0.0499643693	-0.578222
H	 0.7159256868	 1.8095987418	-0.5184063613	 0.123968
H	-0.9155007546	 1.820032562	 0.1920309086	 0.16587
H	 0.5123706283	 1.6636841831	 1.2423229893	 0.123967
H	 0.775936711	-0.645801096	 0.1832141727	 0.274692
H	-2.9412492038	-3.0643739535	 0.4543185086	 0.131078
H	-2.736434109	-2.917710358	-1.3132769377	 0.131077
H	-1.1545724061	-4.817201694	 0.5147833239	 0.136281
H	-0.9503421118	-4.6712973527	-1.2504239628	 0.136273
H	 1.6634917283	-3.5911546857	 0.0414619614	 0.227535
65.2817	84.2876	106.6039	155.8317	160.6644	183.6283	307.2054	371.3751	436.6193	520.059	585.8978	626.6201	760.442	771.7679	785.8408	817.2936	823.3153	926.8392	989.1445	1036.0645	1059.6667	1155.1838	1159.2467	1169.2172	1187.3033	1190.7666	1209.8508	1236.9704	1262.0831	1334.0813	1415.268	1444.1377	1466.7631	1499.0552	1504.52	1525.4616	1607.0896	1764.1322	1794.8204	3024.226	3066.5279	3073.0033	3086.2549	3114.8938	3142.578	3151.4487	3513.6186	3522.9529
CNC(=O)N1CCC1=N	CNC(=O)N1CC[C]1[NH]	
InChI=1S/C5H9N3O/c1-7-5(9)8-3-2-4(8)6/h6H,2-3H2,1H3,(H,7,9)	InChI=1S/C5H9N3O/c1-7-5(9)8-3-2-4(8)6/h6H,2-3H2,1H3,(H,7,9)
