15
gdb 24072	7.1123	0.77805	0.71498	3.5175	74.1	-0.2025	0.0107	0.2132	1481.6733	0.113666	-416.832225	-416.824099	-416.823155	-416.86642	28.999	
N	-0.2556320467	-1.0268893838	 0.2784958325	-0.291497
C	-0.0941151895	 0.0932500735	 0.0495009137	 0.253697
C	 0.1202272581	 1.5051816494	-0.2733461738	-0.27681
N	 1.4010756997	 1.9647830134	 0.2645135561	-0.411053
C	 1.6932548333	 3.3156340988	 0.1216673616	 0.444676
C	 2.8381330021	 3.9987111649	-0.1611939752	-0.298395
C	 2.4965846183	 5.3897740757	-0.0403227924	-0.155707
C	 1.184361008	 5.4424403352	 0.2856581289	-0.027186
O	 0.6764861679	 4.1688352302	 0.3948184294	-0.182086
H	 0.0309781012	 1.6298847752	-1.3648244495	 0.149229
H	-0.6780133538	 2.0975682931	 0.1821738261	 0.184876
H	 2.1759986213	 1.3835156489	-0.0246650687	 0.256746
H	 3.7944192396	 3.5750244872	-0.4220947868	 0.103994
H	 3.1522775589	 6.2330830593	-0.1905354849	 0.114199
H	 0.4786788616	 6.2360972388	 0.458980643	 0.135318
40.6567	56.9186	110.5874	213.9395	313.2846	382.6428	418.3633	502.5882	601.3472	656.9966	676.4169	710.2139	758.7068	765.4264	840.1699	898.5446	953.6566	961.282	995.8857	1032.5081	1083.2887	1111.6188	1179.7374	1230.8841	1257.9297	1303.8006	1360.1087	1420.3412	1481.6611	1489.9898	1569.7572	1655.5451	2372.3454	2976.3625	3097.4476	3254.3979	3266.599	3298.8508	3592.7254
N#CCNC1=CC=CO1	N#CCNc1ccco1	
InChI=1S/C6H6N2O/c7-3-4-8-6-2-1-5-9-6/h1-2,5,8H,4H2	InChI=1S/C6H6N2O/c7-3-4-8-6-2-1-5-9-6/h1-2,5,8H,4H2
