17
gdb 35201	3.56277	1.15754	1.07822	5.2848	77.85	-0.256	0.0173	0.2733	1154.7779	0.136963	-380.823281	-380.81564	-380.814696	-380.855616	29.599	
N	-0.1172246147	-1.121287446	-0.0714257652	-0.339321
C	-0.0611612861	 0.0327898581	-0.0205712836	 0.334668
C	 0.0223147708	 1.471279455	-0.0073862007	-0.286954
N	 0.6209253415	 2.0902412924	 1.2050821493	-0.366909
C	 1.3424946134	 2.1769424057	-0.0478113016	 0.376831
C	 2.7704390378	 1.624627949	-0.2107327688	-0.310736
C	 3.1253025693	 2.9124823797	-0.9760368048	-0.03986
C	 2.2304783482	 3.0739966485	-2.1679174487	-0.277394
C	 1.6918320402	 3.4381222484	-0.8063339581	-0.147031
H	-0.8189082963	 1.9704278906	-0.4810694628	 0.129984
H	 0.1317681114	 2.9596714506	 1.409740663	 0.242748
H	 3.2616322009	 1.5416569127	 0.7608014253	 0.128642
H	 2.8842745563	 0.6839120743	-0.757171013	 0.121172
H	 4.0520718405	 3.4613587179	-0.8720368851	 0.099666
H	 2.4523106573	 3.9193813102	-2.811350837	 0.120125
H	 1.8474574374	 2.2020018947	-2.6926473712	 0.11966
H	 1.341590292	 4.4345967981	-0.5622143272	 0.094709
91.1397	119.6964	184.4457	294.6314	354.1834	388.1859	473.591	478.694	568.8328	626.55	754.3447	781.7289	816.0421	844.2483	896.8462	924.6782	931.1116	960.8905	968.0509	1006.532	1043.3313	1045.4858	1058.7056	1088.2722	1103.4407	1149.1968	1189.8127	1197.9317	1242.8823	1251.9316	1302.1219	1320.2024	1366.3699	1453.3005	1478.3613	1495.6642	2355.7867	3061.3816	3111.7669	3123.9067	3147.3969	3175.8857	3196.4143	3207.399	3488.3852
N#CC1NC11CC2CC12	N#C[C@H]1N[C@]21C[C@H]1C[C@@H]21	
InChI=1S/C7H8N2/c8-3-6-7(9-6)2-4-1-5(4)7/h4-6,9H,1-2H2	InChI=1S/C7H8N2/c8-3-6-7(9-6)2-4-1-5(4)7/h4-6,9H,1-2H2/t4-,5-,6-,7-/m1/s1
