21
gdb 108045	3.61671	1.30841	1.19153	1.8403	81.37	-0.235	0.0749	0.3099	1131.314	0.183291	-387.048833	-387.040969	-387.040025	-387.081085	31.623	
C	-0.0210779429	 1.5963622566	-0.0221708431	-0.381028
C	-0.0038908197	 0.0628023221	 0.0123096658	-0.293347
C	-1.3894531721	-0.547278521	 0.0242347271	 0.3576
C	-2.2666428856	-0.3917344885	 1.3047814803	-0.287361
C	-2.8216920463	-1.8172157365	 1.0859880064	 0.107375
O	-3.8299325508	-1.8453753542	 0.050357417	-0.306748
C	-2.8188610902	-1.8641647258	-0.9827229209	 0.107381
C	-2.2631328841	-0.4500412955	-1.2644429042	-0.287366
C	-1.6915035261	-2.1037190231	 0.0591458862	-0.163373
H	 0.9949021451	 2.0025322276	-0.029915241	 0.112806
H	-0.5352836998	 1.9674121521	-0.9151602626	 0.120254
H	-0.5376840182	 2.0071022161	 0.8518560416	 0.120257
H	 0.5498769776	-0.316816376	-0.8571871756	 0.091243
H	 0.5476115712	-0.2773569619	 0.8994015848	 0.091245
H	-1.6339246243	-0.3599676682	 2.1997526837	 0.094869
H	-2.9969196751	 0.4210797186	 1.3471399156	 0.100529
H	-3.1018860534	-2.428022077	 1.9463833452	 0.075462
H	-3.0967363575	-2.513396265	-1.8152833506	 0.075462
H	-2.9932500414	 0.3599621172	-1.3456191888	 0.100528
H	-1.6279688425	-0.4588546729	-2.1582001221	 0.094869
H	-0.9659328641	-2.9131782745	 0.0785080451	 0.069345
85.4598	151.6623	207.7808	294.9041	311.5182	353.341	393.6242	459.0691	616.0334	659.1245	751.059	783.6958	817.5139	833.8293	859.2696	868.5849	901.7859	933.3571	963.6398	973.0913	985.9621	998.9965	1016.2517	1039.1209	1100.0165	1109.2018	1148.5356	1150.149	1162.2535	1185.5559	1226.6608	1238.9774	1257.0728	1266.14	1288.0376	1321.3786	1321.7324	1351.1908	1369.0127	1406.1589	1462.055	1471.9615	1485.9912	1499.0752	1506.6023	3005.9635	3032.3502	3033.2475	3035.4231	3038.0176	3086.2489	3089.5099	3096.4818	3100.0017	3100.7886	3105.4067	3145.5278
CCC12CC3OC(C1)C23	CC[C@@]12C[C@H]3O[C@@H](C1)[C@@H]23	
InChI=1S/C8H12O/c1-2-8-3-5-7(8)6(4-8)9-5/h5-7H,2-4H2,1H3	InChI=1S/C8H12O/c1-2-8-3-5-7(8)6(4-8)9-5/h5-7H,2-4H2,1H3/t5-,6+,7+,8-
