21
gdb 113260	4.47118	0.71698	0.6844	2.9273	80.33	-0.2444	-0.021	0.2233	1664.8263	0.179254	-424.216942	-424.206375	-424.205431	-424.253369	37.501	
C	-0.1277557755	 1.6621004963	 0.0854189017	-0.46464
C	-0.0161320986	 0.1459824816	 0.0631371384	 0.310731
C	-1.2338651226	-0.5402671334	-0.5483516238	-0.341919
C	-1.4087157936	-0.2089410026	-2.0170123174	 0.164464
O	-2.4317309463	 0.1764321483	-2.5219288493	-0.242749
C	 1.3388683414	-0.489253735	-0.1758844489	-0.320517
C	 0.6866362735	-0.5989997445	 1.1805743762	-0.028488
C	 1.2830067891	 0.0761803147	 2.3881375487	-0.112162
O	 2.2914983221	-0.7850038854	 2.9030794648	-0.41693
H	 0.7810244336	 2.1379002565	 0.4603124691	 0.119778
H	-0.3068033631	 2.053161549	-0.9227312822	 0.127546
H	-0.9650504412	 1.9891668506	 0.712974899	 0.12226
H	-1.1103521105	-1.6302231377	-0.4797935651	 0.117401
H	-2.1573177743	-0.2742581111	-0.0228234179	 0.11736
H	-0.4878490409	-0.354866306	-2.6287308063	 0.075881
H	 1.4059852437	-1.3805323249	-0.7908543269	 0.110517
H	 2.1942275223	 0.1728491517	-0.2654737436	 0.114442
H	 0.2658032076	-1.5714773291	 1.4238885358	 0.089592
H	 1.7041585603	 1.0558751684	 2.1179843943	 0.083341
H	 0.4982362504	 0.2553073388	 3.1410625968	 0.088167
H	 2.6217257725	-0.4009334663	 3.7208512164	 0.285924
53.9444	58.9949	86.2056	148.5288	164.6928	219.8221	250.0474	272.4333	297.7316	358.8615	367.161	434.8779	485.2934	579.3358	700.9134	799.363	852.5394	884.9474	914.2124	941.8872	973.9945	1013.1323	1034.5609	1061.1425	1070.2399	1093.5836	1117.374	1131.072	1172.0477	1206.0879	1248.6071	1256.6167	1285.4768	1312.5968	1345.8256	1408.3401	1423.2867	1425.9412	1454.6688	1469.3995	1491.2381	1494.4636	1508.6547	1519.8939	1833.0962	2860.4282	2966.3528	3000.7164	3015.5706	3029.3757	3081.6673	3083.6063	3120.5934	3128.1684	3138.3127	3210.7118	3824.9542
CC1(CC=O)CC1CO	C[C@@]1(CC=O)C[C@H]1CO	
InChI=1S/C7H12O2/c1-7(2-3-8)4-6(7)5-9/h3,6,9H,2,4-5H2,1H3	InChI=1S/C7H12O2/c1-7(2-3-8)4-6(7)5-9/h3,6,9H,2,4-5H2,1H3/t6-,7+/m0/s1
