22
gdb 13885	3.81351	1.35288	1.06277	1.7146	77.7	-0.2381	0.0798	0.318	1170.454	0.200797	-350.21936	-350.210415	-350.209471	-350.253265	32.979	
C	-0.0359689697	 1.5593775076	 0.0121433308	-0.392205
C	-0.0416239321	 0.0244533337	 0.0056370943	 0.016912
C	-1.4834297641	-0.5056867169	-0.0036561367	-0.394435
C	 0.7720263398	-0.5426529188	-1.1689762758	 0.029917
C	 2.2573956313	-0.1371236498	-1.2136902638	-0.247685
C	 2.857959625	-1.2381429143	-2.0864488785	-0.070918
O	 2.1321967569	-2.4233007514	-1.7758887964	-0.263907
C	 0.8797612515	-2.0825615291	-1.1839321797	-0.078805
H	 0.9773882267	 1.9629888638	 0.0940608875	 0.115048
H	-0.4809674313	 1.9559888558	-0.9085491772	 0.111328
H	-0.618362804	 1.9479654554	 0.8540899698	 0.110545
H	 0.4413215205	-0.3209436402	 0.9321702838	 0.071171
H	-2.0043767166	-0.2034426471	-0.9201985464	 0.112482
H	-1.5191779926	-1.5977725979	 0.055536265	 0.118586
H	-2.0509286939	-0.1090221271	 0.8445249016	 0.111114
H	 0.2975897054	-0.2158106514	-2.105530035	 0.069981
H	 2.425438287	 0.8625963175	-1.621066799	 0.102189
H	 2.6880815159	-0.1717735361	-0.2053797284	 0.10207
H	 2.7483456515	-0.9923872342	-3.1553123057	 0.086254
H	 3.9197150086	-1.4226493921	-1.8918227014	 0.101945
H	 0.8482533578	-2.4868903404	-0.160405304	 0.089983
H	 0.0701516865	-2.554442767	-1.7535676049	 0.098429
47.7863	99.8998	156.8898	185.991	235.0603	248.6025	322.8146	353.2941	414.6024	459.4279	578.0614	677.2027	825.5369	877.4381	896.1571	927.9117	930.2742	964.223	970.0973	976.8973	994.6579	1060.2096	1085.329	1123.8482	1159.844	1187.0573	1193.8949	1201.5349	1238.2356	1256.3652	1296.2436	1315.8325	1344.4782	1352.3669	1369.802	1387.1234	1401.9181	1414.0501	1423.2352	1487.5256	1488.5996	1494.577	1505.6694	1511.3748	1522.3058	1534.5112	2968.2749	2982.0898	2988.6365	3004.2516	3024.8862	3029.4506	3034.5748	3043.5267	3066.0449	3088.6707	3095.0985	3102.3832	3104.431	3108.5169
CC(C)C1CCOC1	CC(C)[C@H]1CCOC1	
InChI=1S/C7H14O/c1-6(2)7-3-4-8-5-7/h6-7H,3-5H2,1-2H3	InChI=1S/C7H14O/c1-6(2)7-3-4-8-5-7/h6-7H,3-5H2,1-2H3/t7-/m0/s1
