21
gdb 112880	2.02057	1.4788	1.01814	1.8442	78.79	-0.2434	-0.0242	0.2192	1268.1386	0.181094	-424.263706	-424.254153	-424.253209	-424.298603	35.274	
C	 0.219841621	 1.5685318546	-0.022281107	-0.389768
C	 0.3522922577	 0.0472380045	 0.0612371994	-0.177056
C	 0.6513108216	-0.5920152912	-1.3001494537	 0.018868
O	 1.8736755353	-0.1497309691	-1.8741073496	-0.285475
C	 2.8589649658	-1.2040071223	-1.9062870139	 0.116823
C	 3.8475900002	-1.0668062613	-0.7493296472	-0.393347
C	 2.0630369748	-2.5147888841	-1.8813242826	-0.354171
C	 0.7481215243	-2.1173784537	-1.2176619008	 0.369749
O	-0.0660805054	-2.8457397437	-0.7142598636	-0.312416
H	 1.1340683807	 2.0123294392	-0.4259691286	 0.132154
H	-0.61002903	 1.8565026302	-0.6773670516	 0.114691
H	 0.0336280851	 2.0022155445	 0.9647211368	 0.112862
H	 1.1471889144	-0.222923083	 0.7667420313	 0.098527
H	-0.5708446786	-0.4088362634	 0.4367596754	 0.118644
H	-0.164203686	-0.3356051692	-1.994625331	 0.102459
H	 3.3965298254	-1.0775223961	-2.8514216872	 0.087792
H	 3.3643911024	-1.2559409298	 0.2153687129	 0.120893
H	 4.6704290817	-1.7811354267	-0.8612395123	 0.116713
H	 4.2654766429	-0.0568101778	-0.7314659449	 0.129233
H	 1.8317061295	-2.8642223151	-2.894531715	 0.138018
H	 2.5452183974	-3.3348571463	-1.3459973967	 0.134807
57.9953	75.3569	112.0825	168.8206	238.1926	256.2489	305.3743	343.5301	384.0917	420.974	498.2937	540.2182	638.0669	701.0319	760.8603	800.3327	827.4544	885.1002	918.0604	931.1732	988.3591	1013.297	1050.7765	1084.9443	1115.1185	1127.7682	1142.2574	1182.0122	1210.3262	1262.6763	1281.3742	1286.8892	1334.6349	1362.3584	1379.0923	1386.5894	1407.1512	1410.2334	1448.989	1476.6469	1490.8857	1494.3966	1497.2667	1508.9239	1851.734	2984.0859	3032.1778	3034.9805	3036.8917	3043.6688	3056.2378	3075.6734	3102.7931	3104.4066	3119.2206	3120.0904	3122.77
CCC1OC(C)CC1=O	CC[C@H]1O[C@@H](C)CC1=O	
InChI=1S/C7H12O2/c1-3-7-6(8)4-5(2)9-7/h5,7H,3-4H2,1-2H3	InChI=1S/C7H12O2/c1-3-7-6(8)4-5(2)9-7/h5,7H,3-4H2,1-2H3/t5-,7+/m0/s1
