19
gdb 11669	3.44154	1.63863	1.37378	2.9628	71.9	-0.2213	0.0681	0.2894	975.157	0.16558	-364.975995	-364.967889	-364.966945	-365.008502	30.53	
C	-0.0784064356	 1.5565690701	-0.0709025212	-0.443253
C	 0.111638704	 0.0537655012	 0.0162651931	 0.038736
N	 1.3250889578	-0.5810407043	-0.7121950448	-0.164733
C	 2.1496605538	-0.1384975751	 0.5126752901	-0.21227
C	 0.8567951128	-0.6698326431	 1.1738051038	 0.324481
C	 0.5012711013	-0.7481063229	 2.6348833126	-0.229355
O	 1.4885325275	-1.5432407765	 3.2772433173	-0.420521
C	 1.0027369029	-1.8167771808	 0.1481546985	-0.19616
H	-0.2367115233	 1.8456166603	-1.1152634661	 0.133233
H	-0.9705880484	 1.8503417793	 0.4928163213	 0.117629
H	 0.7631948862	 2.1364942467	 0.3135875871	 0.119965
H	-0.8151001353	-0.4416658781	-0.2987540463	 0.066614
H	 3.0609246235	-0.7240162824	 0.6525196076	 0.10742
H	 2.3697701042	 0.9290057437	 0.5472531255	 0.096365
H	 0.463284906	 0.2684803919	 3.0602852484	 0.08752
H	-0.504766917	-1.1864737832	 2.7446392645	 0.086194
H	 1.2756342929	-1.589336876	 4.2138149397	 0.290001
H	 0.0984129168	-2.3456882579	-0.1679345287	 0.092451
H	 1.8481317101	-2.4982206329	 0.2632277277	 0.105683
76.3031	142.2168	162.8555	233.3941	258.4394	315.2335	367.5103	446.9951	575.9923	600.3702	653.73	753.2566	786.0935	833.9137	891.8778	912.0433	962.5666	993.9423	1031.4187	1054.5721	1072.7554	1107.2964	1129.9444	1153.1544	1164.5167	1173.2987	1190.5399	1202.0149	1245.377	1267.7764	1277.241	1332.8481	1404.408	1430.1086	1463.6585	1489.7598	1493.8283	1511.8245	1520.0313	1557.3819	2955.8	2984.0415	3023.7833	3039.4705	3050.5421	3073.7832	3098.9057	3120.629	3125.2742	3137.7356	3830.9035
CC1N2CC1(CO)C2	C[C@H]1N2C[C@]1(CO)C2	
InChI=1S/C6H11NO/c1-5-6(4-8)2-7(5)3-6/h5,8H,2-4H2,1H3	InChI=1S/C6H11NO/c1-5-6(4-8)2-7(5)3-6/h5,8H,2-4H2,1H3/t5-/m1/s1
