19
gdb 64959	3.06524	1.18846	0.99159	1.7878	77.12	-0.2452	-0.0247	0.2205	1255.1163	0.157385	-423.017212	-423.00805	-423.007106	-423.051691	33.682	
C	 0.2685715746	 1.3553443411	-1.0423065248	-0.461536
C	-0.1085995103	 0.2510866388	-0.08600098	 0.30412
C	 0.8762525063	-0.7873598575	 0.2917473848	-0.220035
O	 0.5453442843	 0.2585157043	 1.1949238171	-0.259172
C	-1.573478684	-0.1401992748	-0.0718011525	 0.326161
O	-2.2723654916	 0.1182023691	-1.0326315378	-0.344797
C	-2.094910015	-0.8431781965	 1.1307799058	-0.118361
C	-3.5647632762	-0.6274182707	 1.4636645999	-0.251454
C	-3.1356918541	-1.9336947708	 0.8958281725	-0.253822
H	 1.3470857077	 1.526646015	-1.0186750511	 0.121461
H	-0.0393061335	 1.0934229992	-2.0567655213	 0.14631
H	-0.2395056572	 2.2857809166	-0.7721180851	 0.135236
H	 0.5412974123	-1.7826363525	 0.5801802831	 0.123064
H	 1.8720182004	-0.7370684891	-0.1465267911	 0.12517
H	-1.4069009597	-0.9599023974	 1.9566890361	 0.112265
H	-3.8239010046	-0.5679704451	 2.5142267102	 0.120225
H	-4.0962866361	 0.0506614838	 0.8060158772	 0.139569
H	-3.3811079028	-2.1312144326	-0.1414041308	 0.136662
H	-3.0904893905	-2.8025341013	 1.5423696378	 0.118935
56.9438	66.451	164.3798	175.8748	235.386	284.2104	308.1613	322.5256	378.393	471.0749	524.3066	724.4683	754.9132	796.8207	820.4088	829.8783	846.4933	900.9697	922.0313	938.2215	1002.7708	1056.8537	1083.837	1095.6015	1102.2056	1109.0442	1139.7103	1143.0662	1166.5013	1211.3853	1221.2689	1290.7296	1366.377	1409.3272	1415.0636	1454.1982	1476.8866	1485.8284	1493.2597	1522.0757	1772.6731	3053.1769	3083.7729	3122.799	3140.6145	3142.4638	3143.4982	3173.1086	3211.1227	3228.6697	3244.2374
CC1(CO1)C(=O)C1CC1	C[C@]1(CO1)C(=O)C1CC1	
InChI=1S/C7H10O2/c1-7(4-9-7)6(8)5-2-3-5/h5H,2-4H2,1H3	InChI=1S/C7H10O2/c1-7(4-9-7)6(8)5-2-3-5/h5H,2-4H2,1H3/t7-/m0/s1
