19
gdb 108157	3.33497	1.50547	1.26311	1.5224	82.2	-0.2118	-0.0292	0.1826	1047.6956	0.158703	-385.774234	-385.766445	-385.765501	-385.806333	30.886	
C	-0.2234759741	 1.3260422351	 0.2946506605	-0.253816
O	 0.215161588	 0.0174640166	-0.0278848521	-0.295022
C	 0.8795644758	-0.6268505282	 1.0009971597	 0.448164
C	 2.3141547276	-0.1879694239	 1.383322601	-0.328933
C	 2.6100022816	-1.265893743	 2.4131154517	-0.109493
C	 1.7053543736	-2.2603632335	 2.300208067	 0.054635
C	 0.4821106873	-2.1983810606	 3.2276279829	-0.268808
C	-0.1087488295	-1.4251516454	 1.9953838566	-0.121868
C	 0.8405888132	-2.1021305197	 1.0392243517	-0.185599
H	 0.6177723925	 2.0014256986	 0.5016980663	 0.112431
H	-0.7690666687	 1.701152729	-0.5739949143	 0.127891
H	-0.8907529093	 1.3206018792	 1.1674610686	 0.111022
H	 2.9322915704	-0.1436466525	 0.475450078	 0.114274
H	 2.3863708469	 0.7918619796	 1.870428832	 0.107371
H	 3.0455119483	-0.9956257869	 3.3714026538	 0.094565
H	-0.0779681389	-3.1302083677	 3.3716538544	 0.105147
H	 0.6132612653	-1.6843196985	 4.1843372217	 0.099046
H	-1.1716655659	-1.2737058735	 1.8224938699	 0.092897
H	 0.6587363158	-2.8064927847	 0.2383188209	 0.096098
89.7996	163.9532	189.7507	275.6235	359.0855	373.2435	400.2967	485.9818	557.9402	616.0816	669.6926	752.6546	808.0944	838.6809	844.9831	880.2668	915.6547	937.9744	988.116	1010.0946	1017.1678	1037.5381	1061.427	1067.0856	1104.433	1146.3516	1173.5314	1181.3479	1185.744	1210.6464	1238.4332	1244.7589	1279.211	1307.152	1366.907	1474.3055	1480.7039	1489.7403	1502.2987	1507.1325	1595.5315	2996.0572	3003.6904	3022.8018	3048.7754	3055.2783	3088.9635	3121.9219	3138.2376	3158.305	3199.1857
COC12CC=C3CC1C23	CO[C@@]12C[CH][C]3C[C@@H]1[C@@H]23	
InChI=1S/C8H10O/c1-9-8-3-2-5-4-6(8)7(5)8/h2,6-7H,3-4H2,1H3	InChI=1S/C8H10O/c1-9-8-3-2-5-4-6(8)7(5)8/h2,6-7H,3-4H2,1H3/t6-,7+,8+/m1/s1
