18
gdb 70528	2.56406	1.72634	1.2575	1.0084	71.43	-0.2418	0.0145	0.2563	1017.1679	0.149228	-439.068187	-439.060437	-439.059493	-439.100075	30.687	
O	 0.168961591	 1.328299978	-0.2520728025	-0.471574
C	 0.0790777629	-0.0600003294	-0.0944353832	 0.41839
C	-0.5075492831	-0.8064706625	-1.2532866548	-0.349614
C	-1.2854339751	-0.6856472682	 0.0468055102	-0.089091
C	-1.4468681741	-1.8662050572	 0.9908209305	-0.199466
N	-1.1150806205	-1.590557529	 2.3906038433	-0.259628
C	-0.0994470107	-0.9535930201	 2.7812100806	 0.133248
O	 0.9640698214	-0.3848606387	 2.1404220276	-0.240404
C	 1.1704106984	-0.6706191286	 0.7415029813	-0.160401
H	 0.0908474572	 1.7231145332	 0.6245227662	 0.287354
H	-0.8360447398	-0.2008512807	-2.0897404882	 0.13009
H	-0.0904719584	-1.7714489587	-1.5229587098	 0.115246
H	-2.108207793	 0.0227087011	 0.0341182404	 0.100619
H	-2.4896786869	-2.2001102484	 0.9729598824	 0.113866
H	-0.8624171415	-2.7258872818	 0.6388698019	 0.109349
H	 0.028915293	-0.7696605602	 3.8487081712	 0.121419
H	 1.243800727	-1.7523507898	 0.5976990355	 0.114736
H	 2.1370635523	-0.220995659	 0.5026056473	 0.125862
132.7107	174.0022	212.9702	339.5684	343.041	357.9032	406.7299	425.5138	444.4766	549.2392	586.5208	745.419	800.0531	832.588	903.5839	908.4121	934.3102	955.4181	960.6039	979.2253	1002.8248	1041.9539	1066.6683	1097.3783	1133.5621	1157.3409	1233.2354	1260.4614	1293.7849	1314.2619	1334.361	1367.6204	1398.2207	1431.8269	1436.0203	1484.3629	1494.7606	1515.0645	1747.9589	3022.074	3056.9118	3063.6054	3116.6008	3131.975	3134.2596	3158.1163	3227.3708	3788.472
OC12CC1CN=COC2	O[C@]12C[C@H]1CN=COC2	
InChI=1S/C6H9NO2/c8-6-1-5(6)2-7-4-9-3-6/h4-5,8H,1-3H2	InChI=1S/C6H9NO2/c8-6-1-5(6)2-7-4-9-3-6/h4-5,8H,1-3H2/t5-,6-/m0/s1
