16
gdb 62288	3.4488	1.52797	1.33282	1.4738	73.92	-0.2501	0.0243	0.2743	973.1785	0.123617	-400.645965	-400.638346	-400.637402	-400.677684	30.127	
O	-0.0216477332	 1.4126096937	-0.055680579	-0.480515
C	-0.011408222	-0.0002540124	-0.0574967754	 0.263723
C	 0.7969396144	-0.5310139723	 1.0347418501	 0.26858
C	 1.5008217516	-0.9111865242	 1.9320283337	-0.444202
C	-1.3759904601	-0.6597439941	-0.1647083818	-0.094849
C	-1.7630463285	-0.7006422814	-1.6047951029	-0.04611
C	-0.6592295787	-0.0681608519	-2.4348303959	-0.253496
C	 0.2662316512	-0.7382107899	-1.4076339248	-0.065628
N	-0.8541870943	-1.7632809683	-1.0508984481	-0.159892
H	 0.8060347353	 1.7195651961	 0.3291705657	 0.286742
H	 2.1092966404	-1.2637539608	 2.7281687544	 0.201819
H	-2.0697706967	-0.8592051164	 0.6427092236	 0.102618
H	-2.7793858408	-0.9347439783	-1.900859039	 0.101801
H	-0.5788763093	-0.55417076	-3.4101012941	 0.110262
H	-0.6140590052	 1.0183590757	-2.5367704638	 0.117815
H	 1.2657137362	-1.0913450956	-1.6504633125	 0.091333
136.0316	143.5242	229.7642	255.9004	309.5767	448.932	487.8181	513.2212	529.2554	625.2429	664.0962	675.574	761.2754	785.2393	817.264	827.8265	890.2773	943.3045	969.95	1013.2641	1040.0627	1059.13	1076.0135	1089.6846	1118.2078	1136.5008	1173.5935	1203.5686	1242.314	1262.9896	1307.1759	1361.7183	1405.8341	1486.6706	2234.2839	3066.7528	3124.3916	3149.6059	3180.2578	3198.7482	3499.8192	3817.1128
OC1(C#C)C2C3CC1N23	O[C@@]1(C#C)[C@H]2[C@H]3C[C@@H]1N23	
InChI=1S/C7H7NO/c1-2-7(9)5-3-4-6(7)8(4)5/h1,4-6,9H,3H2	InChI=1S/C7H7NO/c1-2-7(9)5-3-4-6(7)8(4)5/h1,4-6,9H,3H2/t4-,5+,6-,7-,8?/m1/s1
