17
gdb 34299	3.37586	1.47328	1.30671	1.6941	73.07	-0.2565	0.0218	0.2783	1003.5598	0.13706	-421.799177	-421.791866	-421.790922	-421.830744	29.236	
C	 0.0128363342	-1.1352711895	-0.0307668917	-0.330844
C	-0.0124713959	 0.0655344199	-0.0261434203	 0.097801
C	-0.0091789899	 1.5085108501	 0.0367877782	 0.255313
C	-0.8022731299	 2.1548358844	 1.2101124755	-0.267917
C	-1.0517019123	 3.582340555	 0.6425086687	-0.238949
C	-0.3501305571	 3.4549912399	-0.7212082497	 0.174722
O	 1.062081406	 3.4907393529	-0.5155842033	-0.272776
C	 1.3884511423	 2.1834916395	-0.0317454572	-0.113537
O	-0.62637331	 2.1266398984	-1.1173407493	-0.274656
H	 0.0283141921	-2.1972452231	-0.0465910734	 0.192269
H	-1.7326351789	 1.6086275874	 1.3708305994	 0.12191
H	-0.2301651357	 2.1449694737	 2.1399412683	 0.11236
H	-2.1171894861	 3.7896807575	 0.5177789977	 0.111124
H	-0.605976549	 4.3765105326	 1.2437217024	 0.115173
H	-0.6245033907	 4.1611487345	-1.5039098424	 0.094034
H	 1.8743187393	 2.2403490551	 0.9477338757	 0.107943
H	 2.0467935414	 1.6714678618	-0.7408993585	 0.116029
135.1823	155.3659	187.9204	338.4549	403.9349	481.6386	514.7063	529.423	592.4663	630.3577	647.3856	681.2593	785.3553	828.1124	833.6846	874.2011	933.8884	943.9194	962.69	995.7624	1020.3368	1060.5059	1105.2005	1117.3141	1182.6072	1192.8191	1211.1495	1243.5896	1286.2069	1311.1264	1323.8659	1337.9928	1383.1502	1477.5712	1498.4283	1524.7234	2249.3467	3038.6978	3071.1501	3082.5518	3088.1784	3121.0314	3138.5317	3139.5649	3501.0996
C#CC12CCC(OC1)O2	C#C[C@@]12CC[C@@H](OC1)O2	
InChI=1S/C7H8O2/c1-2-7-4-3-6(9-7)8-5-7/h1,6H,3-5H2	InChI=1S/C7H8O2/c1-2-7-4-3-6(9-7)8-5-7/h1,6H,3-5H2/t6-,7+/m0/s1
