16
gdb 23250	3.02402	1.44567	1.10873	3.0286	73.95	-0.2318	-0.0597	0.1721	1079.625	0.124702	-437.855731	-437.848065	-437.847121	-437.888043	29.513	
O	-0.0782132669	 1.3336701999	-0.1680106312	-0.350689
N	 0.0290213522	-0.0378058174	-0.0390364817	-0.204681
C	-1.0931294873	-0.6412013409	 0.057417412	 0.255585
C	-1.149100551	-2.1487263822	 0.1942416667	-0.301385
C	-2.5560470771	-2.4335576322	 0.716279014	-0.049641
C	-2.960915986	-1.7222251453	 1.9632971132	-0.288385
C	-3.3844024109	-1.161105588	 0.6071805553	-0.142988
C	-2.5056184289	-0.0785559881	 0.0682870523	 0.36172
O	-2.8588040014	 1.0048975925	-0.3276517054	-0.3194
H	 0.845542408	 1.6074561101	-0.2076785093	 0.313651
H	-1.0165995628	-2.6138583751	-0.7904847681	 0.128319
H	-0.3598664972	-2.5351425439	 0.8455900622	 0.127289
H	-3.0058734393	-3.3923421702	 0.4888471274	 0.099771
H	-3.7585384986	-2.1487115183	 2.5606286476	 0.129085
H	-2.2096372429	-1.1855651623	 2.534899649	 0.130446
H	-4.43577973	-1.1432195185	 0.351971746	 0.111302
68.2325	190.5612	217.8895	278.918	334.8709	370.1722	432.6201	477.9441	522.0586	594.2866	680.3518	695.7423	785.6951	814.6138	838.3258	892.1775	939.7854	967.1442	1009.4951	1035.1452	1068.1345	1081.5623	1103.6317	1147.277	1183.2085	1203.9757	1229.595	1298.3696	1327.6942	1377.5402	1420.3282	1476.9103	1490.7579	1704.4249	1820.0065	3032.8768	3085.4705	3129.7435	3184.1706	3205.0754	3221.271	3799.9938
ON=C1CC2CC2C1=O	ON=C1C[C@H]2C[C@H]2C1=O	
InChI=1S/C6H7NO2/c8-6-4-1-3(4)2-5(6)7-9/h3-4,9H,1-2H2	InChI=1S/C6H7NO2/c8-6-4-1-3(4)2-5(6)7-9/h3-4,9H,1-2H2/t3-,4-/m1/s1
