17
gdb 85645	2.02578	1.68569	1.20172	4.2106	73.51	-0.2592	0.0028	0.262	1091.2244	0.135175	-421.843658	-421.835078	-421.834134	-421.877063	31.975	
C	 0.8054294306	 1.3529726447	-0.2121705695	-0.400342
C	 0.0623531507	 0.0338201907	-0.0456598965	 0.120995
C	 0.2730999735	-0.9790920902	-1.1912533617	-0.258419
C	 1.4354036321	-1.8572801856	-0.6833020795	-0.309217
C	 2.753424226	-1.4454103713	-1.1484150353	 0.351309
C	 3.835895964	-1.0974832658	-1.5376231972	-0.477535
C	 1.3287452966	-1.7009992748	 0.8556103291	 0.431373
O	 1.8368933143	-2.3847391579	 1.691507627	-0.332448
O	 0.5355783389	-0.6432504937	 1.1430534703	-0.22166
H	 1.8665782957	 1.1815471422	-0.4138661781	 0.143479
H	 0.3807054955	 1.9179931669	-1.0480366403	 0.121649
H	 0.7142062573	 1.956001454	 0.6949762666	 0.13579
H	-1.0008881601	 0.2229780293	 0.1251381789	 0.101065
H	-0.6205153104	-1.5957749149	-1.3174278891	 0.119848
H	 0.4915004712	-0.4907242317	-2.1413376487	 0.128035
H	 1.2862326533	-2.9153688186	-0.9167349457	 0.13925
H	 4.798398431	-0.8015796132	-1.8754888502	 0.206828
77.1586	109.2619	141.9384	211.979	245.5774	333.147	400.0562	421.1566	454.1085	525.7411	633.2793	640.5555	667.84	700.0471	735.9414	791.0548	867.2777	894.457	946.0243	997.5535	1046.0002	1061.2834	1128.0374	1131.0923	1169.425	1204.4602	1240.7052	1305.3576	1335.9536	1367.3627	1391.3565	1414.6549	1485.725	1494.1678	1497.0886	1887.0306	2237.1564	3043.87	3063.2858	3070.7217	3080.3312	3118.3788	3130.1057	3134.7723	3502.3994
CC1CC(C#C)C(=O)O1	C[C@H]1C[C@@H](C#C)C(=O)O1	
InChI=1S/C7H8O2/c1-3-6-4-5(2)9-7(6)8/h1,5-6H,4H2,2H3	InChI=1S/C7H8O2/c1-3-6-4-5(2)9-7(6)8/h1,5-6H,4H2,2H3/t5-,6+/m0/s1
