21
gdb 93006	2.59685	1.48969	1.10646	1.2099	83.51	-0.2234	0.0215	0.2449	1167.4182	0.182969	-387.094619	-387.086039	-387.085095	-387.127122	34.566	
C	 0.1021001291	 1.5621751154	 0.0251039207	-0.391273
C	 0.0336198816	 0.0300783026	 0.0168662008	 0.007403
C	 0.5424383753	-0.5430802288	-1.3251467676	-0.278002
C	 0.7591339865	-2.0340742932	-1.2910005664	-0.087412
C	 1.0720088746	-2.6822005006	-0.1682112001	-0.109581
C	 1.238038561	-1.9897579817	 1.1359193	 0.354805
O	 1.023413111	-2.7723498425	 2.2813134076	-0.476877
C	 2.2399820224	-0.8472409905	 1.2355097069	-0.353357
C	 0.7508648321	-0.5714577896	 1.2149191211	-0.053892
H	 1.1407923992	 1.905244991	-0.0399019687	 0.114494
H	-0.4469513758	 1.9879474618	-0.8216843907	 0.108448
H	-0.3272881461	 1.9738194671	 0.9444053084	 0.111102
H	-1.0206800367	-0.2662466513	 0.1108534638	 0.080087
H	-0.1687075535	-0.2826639936	-2.1175619211	 0.101892
H	 1.4800798362	-0.0377534133	-1.6034891353	 0.107367
H	 0.6747526583	-2.5790893591	-2.2270188879	 0.086952
H	 1.2237399357	-3.7587785055	-0.1654589675	 0.080581
H	 1.7857569424	-3.3516674156	 2.3896316374	 0.279369
H	 2.7467433961	-0.7295215054	 2.1875253666	 0.109725
H	 2.8421083798	-0.6197894219	 0.3623452819	 0.113636
H	 0.3278343107	-0.3046073354	 2.1791866401	 0.094534
125.8641	168.8366	236.1623	251.1355	282.2489	297.7755	368.5472	398.6753	428.8491	461.5216	531.8977	567.012	671.6032	708.9831	750.7158	829.0959	890.0492	913.2361	914.5462	938.5711	959.8634	980.1395	991.54	1019.2584	1049.7827	1054.2589	1108.5079	1118.2603	1181.275	1185.251	1219.4351	1247.6676	1271.1648	1318.3896	1333.7861	1364.8943	1374.3341	1406.6719	1414.7916	1422.3766	1477.5838	1487.3284	1498.1003	1499.3995	1710.0237	2987.743	3004.6194	3027.0197	3052.6293	3095.8494	3098.4351	3128.9429	3149.5485	3152.4424	3173.2793	3220.2899	3793.8635
CC1CC=CC2(O)CC12	C[C@H]1CC=C[C@@]2(O)C[C@@H]12	
InChI=1S/C8H12O/c1-6-3-2-4-8(9)5-7(6)8/h2,4,6-7,9H,3,5H2,1H3	InChI=1S/C8H12O/c1-6-3-2-4-8(9)5-7(6)8/h2,4,6-7,9H,3,5H2,1H3/t6-,7-,8+/m0/s1
