16
gdb 132505	3.12008	1.36475	0.95591	3.0707	77.6	-0.2084	-0.0152	0.1932	1178.0879	0.124775	-442.107843	-442.09969	-442.098745	-442.140574	30.918	
C	-0.0288698249	 1.5031173497	 0.0530217961	-0.466788
C	-0.008768705	 0.00058809	-0.0275135698	 0.301022
C	 0.1805410475	-0.6871454521	-1.2213396492	-0.156718
C	 0.1856052657	-2.081757577	-1.2273759746	-0.151346
C	-0.0001129221	-2.778931586	-0.0369842381	 0.149657
N	-0.0748816279	-4.1647905051	 0.0602237068	-0.597878
C	-0.1742892326	-1.9697269324	 1.0986473114	 0.284667
F	-0.3404770168	-2.611527061	 2.2680808237	-0.093252
N	-0.1826341272	-0.6701417227	 1.1288874501	-0.360854
H	 0.1335486483	 1.9575179575	-0.927479147	 0.115969
H	-0.9885877159	 1.8571880841	 0.4441121973	 0.137609
H	 0.7466073167	 1.8647178651	 0.7364173901	 0.136799
H	 0.3249264232	-0.1408966251	-2.1466734028	 0.094647
H	 0.3298482652	-2.6288787903	-2.1541750592	 0.097987
H	 0.4492486581	-4.6707565707	-0.6385789408	 0.25017
H	 0.0892908279	-4.5169179441	 0.9919499362	 0.258309
80.3772	133.5786	235.2841	294.2411	303.4181	311.0982	358.9672	466.597	480.7915	531.3458	573.9544	615.1073	638.2662	727.9653	768.8959	808.3711	846.961	948.9254	956.3175	1032.4911	1059.1809	1085.2253	1163.2953	1229.8027	1290.5769	1304.9142	1381.3925	1411.4476	1465.2803	1475.9156	1496.3431	1513.5765	1619.8674	1637.1584	1667.5059	3036.7626	3093.7248	3122.007	3171.3455	3194.9176	3566.7467	3670.1447
CC1=CC=C(N)C(F)=N1	Cc1ccc(N)c(F)n1	
InChI=1S/C6H7FN2/c1-4-2-3-5(8)6(7)9-4/h2-3H,8H2,1H3	InChI=1S/C6H7FN2/c1-4-2-3-5(8)6(7)9-4/h2-3H,8H2,1H3
