23
gdb 58425	1.95509	1.32517	1.1823	2.2178	81.66	-0.2468	0.0633	0.3102	1262.4498	0.202691	-425.417164	-425.406175	-425.40523	-425.45247	41.148	
C	 2.6689929909	 0.5655894853	 0.9448750491	-0.41383
C	 1.5278550517	-0.4068786173	 0.6203360005	 0.099503
O	 0.2707000434	 0.1450482933	 0.9936530354	-0.445223
C	 1.4855898824	-0.7877048184	-0.8518224691	 0.35176
O	 1.1327927119	 0.3260304841	-1.6562255385	-0.48203
C	 2.3746921958	-1.8359426401	-1.4813839321	-0.100916
C	 3.4254813203	-2.6212220783	-0.7235993078	-0.415242
C	 0.8734095666	-2.0747568008	-1.3271076188	-0.064287
C	 0.2759138715	-3.108728953	-0.3972134144	-0.41426
H	 3.6482907067	 0.1136058338	 0.7551061098	 0.113622
H	 2.5869508229	 1.4795693917	 0.3454449186	 0.100077
H	 2.6164224798	 0.8578850106	 1.9965878161	 0.126359
H	 1.6508513568	-1.3059649609	 1.231267017	 0.078361
H	 0.01668551	 0.7221588095	 0.261748491	 0.283007
H	 1.9184969549	 0.8725045291	-1.7705610266	 0.283488
H	 2.669583148	-1.5856717763	-2.4982887241	 0.083384
H	 3.1224286015	-2.8551988754	 0.2996532177	 0.120792
H	 3.6340689331	-3.5718936403	-1.2267787702	 0.120137
H	 4.3687858926	-2.0665697779	-0.6666970381	 0.117502
H	 0.3183762708	-1.9482097652	-2.2527381265	 0.094586
H	 0.886057895	-3.285184273	 0.4919384735	 0.115711
H	-0.7144373023	-2.7924957819	-0.0546882852	 0.133288
H	 0.1659260556	-4.0698157488	-0.9108345074	 0.114213
74.7103	117.4766	153.0298	170.7866	194.3213	237.6037	251.837	253.9973	282.1521	294.3897	350.1066	395.9353	451.2393	482.9523	524.3472	532.8004	578.472	721.6205	773.954	846.0696	891.6444	923.1444	1003.9001	1010.8931	1023.8327	1052.209	1083.7403	1102.9251	1113.9078	1138.1423	1143.7827	1176.2114	1229.1217	1275.656	1303.4278	1318.7101	1363.0249	1367.5248	1396.7088	1414.511	1420.3893	1433.0948	1462.6137	1489.1303	1491.0259	1493.954	1501.0429	1502.4658	1516.5164	3030.4805	3032.0334	3039.0614	3065.6099	3085.4747	3098.1774	3099.3006	3109.2791	3118.3156	3121.7511	3130.341	3148.7984	3768.3645	3792.9155
CC(O)C1(O)C(C)C1C	C[C@@H](O)[C@@]1(O)[C@@H](C)[C@H]1C	
InChI=1S/C7H14O2/c1-4-5(2)7(4,9)6(3)8/h4-6,8-9H,1-3H3	InChI=1S/C7H14O2/c1-4-5(2)7(4,9)6(3)8/h4-6,8-9H,1-3H3/t4-,5+,6-,7+/m1/s1
