16
gdb 11277	5.40736	1.27956	1.10122	1.1536	77.51	-0.2307	-0.0255	0.2051	1072.2614	0.129203	-346.582582	-346.574628	-346.573684	-346.615016	29.287	
C	 0.0917565158	 1.5528518012	-0.0831041446	-0.387839
C	-0.042257178	 0.0354849722	 0.0528577165	 0.104853
O	 0.5750598404	-0.6095729392	-1.0677219223	-0.278055
C	 1.4921315304	-1.6031568532	-0.6374531677	-0.171245
C	 1.5322935702	-1.4801272767	 0.8738370506	 0.178777
C	 0.6479234359	-0.5515670746	 1.2518383877	-0.228486
C	 2.3842834434	-2.269904713	 1.6768128726	 0.216403
C	 3.1315058005	-2.9683008686	 2.3138063575	-0.419976
H	 1.1449433275	 1.8473664233	-0.0688691538	 0.122021
H	-0.3505361782	 1.8817652064	-1.0274908016	 0.129262
H	-0.428001351	 2.0604867215	 0.73615711	 0.113251
H	-1.116436407	-0.220802865	 0.0643581369	 0.085301
H	 1.1564094622	-2.6050696866	-0.9477696621	 0.11157
H	 2.4771317796	-1.4302700555	-1.0933646255	 0.115775
H	 0.4356697038	-0.2491110413	 2.2687434324	 0.112236
H	 3.7833823446	-3.576831571	 2.8902616835	 0.196152
76.8111	124.1572	149.5756	235.5286	282.6658	354.4529	477.6871	516.946	535.0846	556.8811	604.5853	639.7049	726.7861	842.6688	871.9956	909.7561	923.2854	1018.1438	1044.7404	1070.9675	1103.4144	1135.1965	1196.5199	1204.7094	1273.1696	1331.1991	1368.4264	1378.3734	1399.5581	1485.5711	1494.55	1524.5855	1685.0917	2225.7646	2941.3183	2981.4976	3016.4881	3038.9237	3113.5526	3124.0639	3226.4764	3502.9025
CC1OCC(=C1)C#C	C[C@H]1OCC(=C1)C#C	
InChI=1S/C7H8O/c1-3-7-4-6(2)8-5-7/h1,4,6H,5H2,2H3	InChI=1S/C7H8O/c1-3-7-4-6(2)8-5-7/h1,4,6H,5H2,2H3/t6-/m1/s1
