20
gdb 90159	3.36558	1.47989	1.34019	1.2296	78.33	-0.2099	0.0741	0.284	1044.7284	0.171925	-403.082958	-403.075148	-403.074204	-403.114784	31.299	
C	-0.1710126109	 1.4888195052	 0.0138836619	-0.327397
N	 0.088647872	 0.0625611996	 0.0135507253	-0.112357
C	 1.1335809193	-0.4840252581	-0.906881088	-0.243896
C	 1.8101456908	-1.1474184255	 0.2970797204	 0.344251
C	 2.2114406943	-0.1512806491	 1.3498474989	-0.39574
C	 0.7511466707	-0.5452736728	 1.1764319767	 0.216058
C	 0.1739587014	-1.7007306063	 1.96325544	-0.311697
C	 1.2253630623	-2.8327947802	 1.7127523805	-0.098017
O	 1.9324963431	-2.5159267863	 0.4966197229	-0.294732
H	 0.7280211756	 2.1132914145	 0.1659145917	 0.092053
H	-0.6227388152	 1.7787264679	-0.940759738	 0.118677
H	-0.8844773746	 1.725348919	 0.8098287512	 0.12186
H	 0.7198880825	-1.19264996	-1.6303789973	 0.115145
H	 1.7364939318	 0.2668863719	-1.4348904501	 0.095839
H	 2.7142384907	-0.5571270829	 2.2207359532	 0.121895
H	 2.5421323256	 0.8433435664	 1.0659642476	 0.113801
H	 0.0327518228	-1.5297972115	 3.0346726911	 0.104288
H	-0.7928958	-1.9606848923	 1.5239720408	 0.121095
H	 1.9383671487	-2.8857534036	 2.5464886486	 0.10379
H	 0.777145509	-3.822938406	 1.5911202927	 0.115083
146.6133	178.1312	208.4188	252.5167	277.4178	375.9113	405.3535	453.0848	580.5718	590.8087	659.4866	718.2247	816.0063	820.8299	855.6702	866.6188	921.4223	938.4742	943.217	959.9218	1014.1435	1031.5695	1049.6426	1107.2826	1148.6748	1160.9074	1188.3541	1207.0981	1226.1446	1228.796	1237.5148	1284.0643	1313.8103	1331.1573	1351.3908	1396.0203	1449.7347	1473.9561	1485.7245	1488.6546	1500.767	1506.27	1524.7972	2941.0554	3009.4648	3012.2206	3055.4954	3057.436	3080.3537	3084.2976	3101.0015	3108.4262	3124.4977	3216.881
CN1CC23CC12CCO3	CN1C[C@@]23C[C@@]12CCO3	
InChI=1S/C7H11NO/c1-8-5-7-4-6(7,8)2-3-9-7/h2-5H2,1H3	InChI=1S/C7H11NO/c1-8-5-7-4-6(7,8)2-3-9-7/h2-5H2,1H3/t6-,7+/m1/s1
