23
gdb 82762	2.59233	1.81622	1.45617	0.1271	87.78	-0.2752	0.0921	0.3673	1032.3759	0.210307	-351.163859	-351.156643	-351.155699	-351.194918	31.083	
C	-0.0306603067	 1.5765015242	 0.0197567367	-0.431649
C	 0.0655965935	 0.0514858003	-0.0248204585	 0.060076
C	 0.9381780063	-0.5465981408	-1.1514702851	-0.043373
C	 2.3760929624	-0.159436108	-0.7062510264	-0.246314
C	 2.0784396424	-1.1439848347	 0.442528748	-0.022643
C	 1.2534583823	-1.9838842382	-0.5802456226	 0.011717
C	 0.1451151267	-2.7261720761	 0.1805674729	-0.248319
C	 0.0515382032	-1.928945697	 1.5177685389	-0.217404
C	 0.8053383477	-0.6297633348	 1.1803745202	-0.021144
H	 0.9408808093	 2.0580625529	 0.1627111531	 0.116816
H	-0.4630026546	 1.9700810186	-0.9074986595	 0.109212
H	-0.6756122692	 1.8957289425	 0.8458602835	 0.110555
H	-0.957285156	-0.3371070029	-0.0968890033	 0.061039
H	 0.5952287946	-0.3991042003	-2.1778041432	 0.049256
H	 3.137708102	-0.5501918671	-1.3866119594	 0.091608
H	 2.5994235189	 0.8847696346	-0.4760109081	 0.086751
H	 2.8634055929	-1.5814512343	 1.062073848	 0.052226
H	 1.8431654011	-2.5876278897	-1.2723099928	 0.059835
H	-0.8028653572	-2.7293853211	-0.36792648	 0.097809
H	 0.4137944788	-3.7730958156	 0.3502984248	 0.093415
H	-0.9789023278	-1.7458694457	 1.8385298953	 0.0899
H	 0.5545304634	-2.4714165865	 2.3267281203	 0.089752
H	 0.9777907159	 0.0312002597	 2.0330524969	 0.05088
182.0856	218.6881	259.0952	293.9044	356.0611	416.912	489.6605	586.3664	673.3523	702.4366	780.4653	797.8064	814.3643	846.4777	868.4423	891.7901	908.2288	932.3118	949.9515	970.821	1012.8061	1016.3967	1024.534	1052.9261	1065.282	1073.805	1094.7688	1117.9494	1139.6759	1150.8928	1196.2976	1211.9409	1220.6196	1242.451	1248.7027	1266.2612	1272.5706	1302.1814	1317.4958	1322.8078	1335.722	1356.8369	1399.0696	1411.2909	1488.3351	1493.4776	1498.8356	1506.5929	1519.7677	3021.5676	3028.9219	3032.1265	3045.5419	3058.196	3071.013	3079.7995	3085.7183	3088.2105	3089.6815	3093.2965	3101.3466	3105.6454	3113.6367
CC1C2CC3C2CCC13	C[C@H]1[C@H]2C[C@@H]3[C@H]2CC[C@H]13	
InChI=1S/C9H14/c1-5-6-2-3-7-8(5)4-9(6)7/h5-9H,2-4H2,1H3	InChI=1S/C9H14/c1-5-6-2-3-7-8(5)4-9(6)7/h5-9H,2-4H2,1H3/t5-,6-,7+,8-,9+/m1/s1
