15
gdb 34695	4.09395	1.50596	1.38618	2.9365	70.46	-0.2475	0.0286	0.2762	918.7337	0.115244	-379.621146	-379.614948	-379.614004	-379.651814	24.984	
N	 0.0592354998	-1.1664415309	 0.0534097733	-0.325576
C	 0.0273600537	-0.0113634518	 0.0364874762	 0.277647
C	-0.0158643449	 1.4500087568	 0.0119619783	-0.178495
C	-0.535482864	 2.0799472718	 1.2984153481	-0.079227
C	 0.5981628317	 2.2993004719	 2.2878424293	-0.101142
C	 0.0887727673	 3.4392481675	 1.4474469908	-0.039696
N	 1.3352917715	 3.4589063243	 0.5856128516	-0.163647
C	 1.8498017052	 2.3045275317	 1.3988356532	-0.032562
C	 1.369749675	 2.0828874989	 0.0133912187	-0.060638
H	-0.6007423102	 1.7738824451	-0.8561340564	 0.135313
H	-1.5376658198	 1.8935077123	 1.660150659	 0.117278
H	 0.5373976821	 2.1093057568	 3.3489129355	 0.109321
H	-0.4247398052	 4.361461638	 1.6807817094	 0.111381
H	 2.8810972587	 2.2482382944	 1.7235011802	 0.110154
H	 2.0516246089	 1.9377531833	-0.8157002874	 0.119892
121.8253	156.7747	374.7371	488.303	501.4081	600.3106	707.9122	738.0182	761.7386	778.7073	796.8415	838.4272	855.6179	905.4566	940.9286	975.2013	982.139	996.7181	1021.8995	1041.0694	1048.2128	1058.7178	1068.6767	1094.2183	1169.2659	1228.2698	1236.0475	1252.4839	1295.9706	1325.951	1371.2712	1381.5184	2360.3043	3059.1756	3190.8947	3200.7909	3209.4648	3216.9461	3233.8407
N#CC1C2C3C2N2C3C12	N#C[C@H]1[C@H]2[C@@H]3[C@H]2N2[C@@H]3[C@@H]12	
InChI=1S/C7H6N2/c8-1-2-3-4-6(3)9-5(2)7(4)9/h2-7H	InChI=1S/C7H6N2/c8-1-2-3-4-6(3)9-5(2)7(4)9/h2-7H/t2-,3-,4+,5+,6-,7-,9?/m0/s1
