18
gdb 126719	4.04038	0.90276	0.80084	3.8521	75.28	-0.247	-0.0003	0.2467	1460.0017	0.148167	-435.265625	-435.256496	-435.255551	-435.30137	32.052	
C	-0.0543399861	 1.5301434186	-0.2856909313	-0.377477
C	-0.045895073	 0.0701684994	 0.168952148	-0.146587
N	-1.3512354685	-0.5638133982	 0.0419530772	 0.082563
C	-1.9405125133	-1.1040670185	-1.0501745594	-0.18208
C	-3.1843392242	-1.5030909495	-0.6102389803	 0.255454
C	-4.2848827607	-2.1861375347	-1.3632028626	-0.165015
O	-3.8044875825	-3.1936493427	-2.2447164611	-0.414581
N	-3.2824849585	-1.1917698836	 0.7128178217	-0.252225
N	-2.1786738621	-0.6184435653	 1.1042055647	-0.153493
H	 0.9394525903	 1.9673234564	-0.1519199307	 0.128078
H	-0.3259625179	 1.6148773912	-1.3419034715	 0.129173
H	-0.7706737245	 2.1087711293	 0.303115829	 0.148329
H	 0.6731678055	-0.5178740531	-0.4090719985	 0.126414
H	 0.2236471242	-0.0066221258	 1.2242694663	 0.148301
H	-1.4508619594	-1.1690172454	-2.0070712807	 0.149954
H	-5.0119966489	-2.5740466365	-0.6365631855	 0.11606
H	-4.8169449884	-1.4759126427	-2.0059362076	 0.12385
H	-3.344683232	-3.8477535891	-1.7077676176	 0.283283
27.0386	47.7118	106.4726	157.9275	218.268	271.8818	348.2262	367.1634	415.9999	456.3046	634.6533	676.349	722.1736	767.9541	794.8277	808.7088	971.9454	977.44	1036.8529	1054.3093	1067.9736	1091.805	1105.1921	1158.4212	1196.6601	1245.7989	1288.6171	1318.6946	1365.0496	1389.8368	1394.8478	1413.8246	1429.2228	1474.6015	1491.3288	1496.1936	1501.693	1505.1921	1578.0559	3015.5742	3046.8458	3065.2829	3065.7214	3112.6094	3125.3265	3137.5723	3284.3291	3809.1394
CCN1C=C(CO)N=N1	CCn1cc(CO)nn1	
InChI=1S/C5H9N3O/c1-2-8-3-5(4-9)6-7-8/h3,9H,2,4H2,1H3	InChI=1S/C5H9N3O/c1-2-8-3-5(4-9)6-7-8/h3,9H,2,4H2,1H3
