20
gdb 120385	3.07642	1.12191	0.92162	1.1652	75.46	-0.239	0.0222	0.2612	1311.0176	0.170968	-440.288594	-440.279287	-440.278343	-440.323631	33.393	
C	 0.606095056	 0.8841746135	 0.2501643917	-0.239293
O	 0.781471171	 0.4808444135	-1.0902985485	-0.233425
C	-0.2254819922	-0.3881454906	-1.5774192723	-0.082026
C	 0.0010864722	-1.8540508473	-1.18621165	-0.023044
N	-1.1377955386	-2.6722822701	-1.6480257836	-0.280256
C	-0.6287291629	-3.6541100296	-2.2672627363	 0.115437
O	 0.7092354961	-3.7652142974	-2.3897508146	-0.231062
C	 1.2669056228	-2.5545686316	-1.7845059795	 0.102111
C	 2.0621127907	-1.805253462	-2.8425418749	-0.407863
H	-0.3655069386	 1.3798812965	 0.3972655843	 0.110707
H	 0.6748250338	 0.0471535358	 0.9606647943	 0.107807
H	 1.4036032572	 1.5958429544	 0.4778317207	 0.129308
H	-1.2183855204	-0.0855655374	-1.2157907527	 0.106276
H	-0.2263926726	-0.2841317716	-2.6663916928	 0.109395
H	 0.0329416834	-1.9092413326	-0.091238762	 0.088837
H	-1.1899289372	-4.457783188	-2.7325214777	 0.138674
H	 1.9360856104	-2.8912680184	-0.988007959	 0.094921
H	 1.4341694845	-1.5508137021	-3.7012760054	 0.124895
H	 2.4636740867	-0.8806804706	-2.4217538299	 0.146241
H	 2.8875848077	-2.4266568642	-3.1996633119	 0.122358
44.1425	74.691	114.9729	171.9623	230.5829	254.9357	276.0352	334.8802	395.2196	467.6881	521.7201	558.458	724.4349	762.0737	842.0852	911.9756	944.1359	968.1865	997.2749	1013.2924	1044.3861	1068.8819	1126.8218	1142.6936	1156.3499	1171.216	1182.9139	1222.5451	1284.0964	1303.2667	1314.4883	1352.6965	1363.4214	1379.9004	1407.4627	1412.7982	1477.7002	1488.8612	1490.0153	1494.2794	1506.9365	1512.3282	1703.6773	2979.8687	3011.7115	3018.7382	3030.5578	3049.2315	3067.0121	3090.2109	3113.2589	3121.1158	3139.6199	3208.6746
COCC1N=COC1C	COC[C@H]1N=CO[C@H]1C	
InChI=1S/C6H11NO2/c1-5-6(3-8-2)7-4-9-5/h4-6H,3H2,1-2H3	InChI=1S/C6H11NO2/c1-5-6(3-8-2)7-4-9-5/h4-6H,3H2,1-2H3/t5-,6+/m0/s1
