25
gdb 77566	2.17645	1.41191	1.27675	0.2644	92.64	-0.2409	0.0816	0.3225	1229.6512	0.227042	-352.347041	-352.336769	-352.335825	-352.380977	40.255	
C	-0.4317981917	 1.530984034	 0.4037781463	-0.41743
C	-0.1041124257	 0.0524924581	 0.220578946	-0.085893
C	 0.2759913233	-0.4580285691	-1.1831608555	 0.376157
C	-0.7032099255	-1.0540137888	-2.1556110719	-0.500988
C	 1.5947952089	 0.1266645681	-1.612011081	-0.357677
C	 1.5919618575	-1.0197883917	-0.6379460979	-0.128373
C	 1.244493383	-0.5598534947	 0.7911704731	 0.328757
C	 2.2319668569	 0.3903363831	 1.4701203723	-0.443777
C	 0.9632826959	-1.7586949094	 1.7006197938	-0.441761
H	 0.3568488579	 2.1844325749	 0.0193052336	 0.112536
H	-1.3575099305	 1.7876459738	-0.1237057266	 0.111931
H	-0.5786894393	 1.776658402	 1.4613686206	 0.111451
H	-0.9431379655	-0.5375219823	 0.6072093006	 0.061949
H	-1.3628756964	-0.2874556941	-2.5814952406	 0.11669
H	-0.1876458072	-1.5407763183	-2.9904791864	 0.114487
H	-1.3406814266	-1.8047359836	-1.673441139	 0.11236
H	 1.8985437414	-0.1326217048	-2.6222427389	 0.104353
H	 1.907535367	 1.1233341186	-1.3121162867	 0.100332
H	 2.0719660693	-1.9648922701	-0.872815182	 0.072356
H	 2.4863558267	 1.2508021868	 0.8458613558	 0.10951
H	 1.826061664	 0.7739472323	 2.4133627608	 0.108521
H	 3.1664114689	-0.1333099284	 1.7028100068	 0.109337
H	 1.8890296982	-2.2957796734	 1.9399328813	 0.107129
H	 0.509256806	-1.4396510756	 2.6460376635	 0.107653
H	 0.2815378534	-2.4690639374	 1.2211362617	 0.110389
119.1793	184.9101	191.6888	202.6798	206.5986	233.0074	241.6745	264.7144	315.6007	346.0383	361.0371	437.0817	489.5913	536.5779	566.1552	681.2016	728.6652	802.3857	835.3554	898.0313	941.6321	948.2187	972.0486	976.0112	1007.3403	1016.3231	1048.3702	1053.1026	1070.6864	1093.7974	1117.9693	1131.3523	1180.9395	1207.2243	1233.914	1249.7328	1289.7118	1304.9536	1372.9235	1396.7862	1400.6372	1406.3115	1418.9434	1427.9459	1481.3771	1483.0119	1485.5987	1491.813	1495.8172	1498.2728	1499.7921	1509.2624	1512.5417	3014.5189	3017.2682	3026.1224	3027.5903	3032.8995	3070.4786	3080.643	3085.5968	3089.0463	3089.4119	3092.6984	3102.6831	3107.8985	3113.863	3153.4887	3189.1239
CC1C2(C)CC2C1(C)C	C[C@H]1[C@@]2(C)C[C@H]2C1(C)C	
InChI=1S/C9H16/c1-6-8(2,3)7-5-9(6,7)4/h6-7H,5H2,1-4H3	InChI=1S/C9H16/c1-6-8(2,3)7-5-9(6,7)4/h6-7H,5H2,1-4H3/t6-,7+,9-/m1/s1
