16
gdb 25021	4.102	1.12453	0.94867	3.7953	73.85	-0.2114	0.0196	0.2311	1221.003	0.125058	-437.892523	-437.884956	-437.884012	-437.925068	28.798	
N	-0.1764449316	 1.2257575369	-0.1957021186	-0.581672
C	-0.0309511553	-0.0170956256	-0.0843735367	 0.495913
O	 1.1096592365	-0.7252117979	 0.1898852885	-0.218015
C	 0.7517269835	-2.0676171303	 0.2076000867	-0.186653
C	-0.551525921	-2.1777286576	-0.0447336523	 0.353776
O	-1.0621890478	-0.9002807094	-0.2312055347	-0.233867
C	-1.4742217754	-3.3042901889	-0.1537437336	-0.114949
C	-2.9103068575	-3.1697623426	 0.3183510232	-0.26707
C	-2.618134573	-3.2669689064	-1.150410661	-0.267073
H	 0.7103144288	 1.7012412911	-0.0505131028	 0.235654
H	 1.52814243	-2.78273464	 0.4096933361	 0.157421
H	-0.9916481723	-4.2621933774	 0.0056455772	 0.100612
H	-3.3477159971	-4.0240614079	 0.8220635248	 0.121984
H	-3.2124625046	-2.2053195436	 0.708771007	 0.140973
H	-2.7242838051	-2.3677535575	-1.7454049981	 0.140983
H	-2.8519634183	-4.1890071828	-1.6700741856	 0.121982
82.0484	128.9368	151.1942	227.4423	385.0097	407.9099	499.256	612.7715	648.4308	714.6871	736.8676	753.298	776.4812	794.086	824.5357	904.7469	907.6623	922.8308	991.2446	1013.0261	1062.4606	1068.5292	1090.9897	1110.5161	1121.5772	1201.5313	1203.9487	1214.9051	1274.5917	1354.2647	1403.9309	1465.8337	1499.2314	1736.5094	1811.1323	3143.9114	3146.8959	3174.2515	3228.9395	3243.3366	3308.3703	3546.1671
N=C1OC=C(O1)C1CC1	[NH][C@H]1OC=C(O1)C1CC1	
InChI=1S/C6H7NO2/c7-6-8-3-5(9-6)4-1-2-4/h3-4,7H,1-2H2	InChI=1S/C6H8NO2/c7-6-8-3-5(9-6)4-1-2-4/h3-4,6-7H,1-2H2/t6-/m0/s1
