16
gdb 35303	5.89599	0.95153	0.89653	1.681	84.74	-0.229	0.019	0.248	1277.0021	0.12259	-363.496307	-363.487927	-363.486982	-363.529137	32.305	
C	 0.0385788589	-1.2554071416	-0.1685123608	-0.464463
C	 0.0354086426	-0.0590545327	-0.0512062003	 0.345582
C	 0.0139839141	 1.3841331266	 0.0803422437	-0.175147
C	-0.2615090013	 2.0261665122	 1.4989647488	-0.300533
C	 1.060411893	 2.8015277483	 1.3640862409	 0.228991
N	 2.1150318016	 1.7502808294	 1.2391321407	-0.353151
C	 1.3553060846	 2.1443908548	 0.0462881147	-0.123333
C	 1.3512471603	 4.1127684611	 1.8235259129	 0.147449
C	 1.5795030313	 5.2235204687	 2.2278561792	-0.398691
H	 0.053450496	-2.3126255636	-0.2653085746	 0.195662
H	-0.673712291	 1.8183450791	-0.6517027685	 0.111443
H	-1.1455324682	 2.6642838445	 1.4982090407	 0.120882
H	-0.2914978623	 1.3294691478	 2.3370430777	 0.125429
H	 3.0130330772	 2.2325185933	 1.1999126771	 0.24027
H	 1.8479446061	 2.5467918237	-0.8302721219	 0.110404
H	 1.7835154471	 6.2031212785	 2.5831981697	 0.189206
82.7528	108.3388	181.8837	204.4429	307.9632	408.2017	449.5783	491.1934	528.4776	566.7758	586.1513	621.6709	633.121	643.657	665.3446	689.1721	795.779	870.1939	912.4399	968.3757	978.7914	1000.4498	1044.2804	1080.2541	1120.6605	1151.1962	1210.5379	1230.3978	1268.6117	1314.3987	1359.1273	1404.7337	1474.8004	2233.1088	2237.75	3061.5231	3088.75	3155.0928	3194.8444	3478.9646	3502.2352	3504.7733
C#CC1CC2(NC12)C#C	C#C[C@H]1C[C@]2(N[C@@H]12)C#C	
InChI=1S/C8H7N/c1-3-6-5-8(4-2)7(6)9-8/h1-2,6-7,9H,5H2	InChI=1S/C8H7N/c1-3-6-5-8(4-2)7(6)9-8/h1-2,6-7,9H,5H2/t6-,7-,8+/m0/s1
