18
gdb 24304	2.91442	2.19125	1.43124	1.9133	81.64	-0.197	-0.0033	0.1937	911.1966	0.151561	-364.773937	-364.767491	-364.766547	-364.804503	26.872	
C	-0.1041446051	 1.5305178705	-0.1415136569	-0.184477
C	 1.445750901	 1.6809648563	 0.0331721812	-0.086067
C	 2.0814809565	 2.216872739	 1.3637303054	-0.228164
C	 2.5380383712	 0.9359949706	 2.1820515763	-0.297532
C	 1.6325451595	-0.1423867048	 1.6047196774	 0.112151
C	 1.3297099667	 0.2229043189	 0.3326308261	 0.117807
N	-0.0127419364	-0.0188482666	-0.0035579329	-0.097599
C	-0.5085942083	-0.7365148539	 1.0968054134	-0.104719
C	 0.4720907491	-0.8723566759	 2.0560048257	-0.194364
H	-0.6865458591	 1.9423138095	 0.6835117708	 0.130476
H	-0.5220696128	 1.819667368	-1.1059632699	 0.126981
H	 1.9608377544	 2.0187357179	-0.8685849471	 0.080237
H	 2.9108617258	 2.9060053953	 1.1749035716	 0.09988
H	 1.3345797028	 2.7713976269	 1.9428884914	 0.104897
H	 3.6038743586	 0.7341227786	 2.0263378962	 0.111151
H	 2.3953285974	 1.0754711562	 3.2568233773	 0.107433
H	-1.4993156325	-1.1708175269	 1.0771510308	 0.106553
H	 0.3611157411	-1.4277048498	 2.9787332731	 0.095354
128.2144	264.0848	302.8243	362.5996	491.996	582.9245	624.3378	671.6044	715.8278	737.5127	771.2447	790.8826	839.3924	850.9612	882.4435	889.7765	938.1008	954.5887	1006.384	1036.3864	1072.3394	1102.4597	1128.1656	1133.1506	1169.4998	1190.5497	1224.3867	1237.8002	1272.0127	1291.6683	1301.9283	1320.9917	1325.6829	1410.0145	1452.4685	1474.1222	1482.8938	1494.907	1596.9097	3037.0185	3039.2751	3070.978	3079.6274	3086.1355	3098.5296	3154.4116	3207.6123	3230.0473
C1C2CCC3=C2N1C=C3	C1[C@H]2CC[C]3[C]2N1C=C3	
InChI=1S/C8H9N/c1-2-7-5-9-4-3-6(1)8(7)9/h3-4,7H,1-2,5H2	InChI=1S/C8H9N/c1-2-7-5-9-4-3-6(1)8(7)9/h3-4,7H,1-2,5H2/t7-/m1/s1
