20
gdb 108881	3.46105	0.89094	0.80619	4.6414	86.5	-0.2524	0.006	0.2584	1491.7572	0.171734	-366.053597	-366.044432	-366.043487	-366.08822	33.575	
C	-0.4473636693	 1.4947468018	-0.060306084	-0.375669
C	 0.1827380529	 0.0994984981	 0.1007958723	-0.289887
C	 0.7821455316	-0.4363117221	-1.166490963	 0.337017
C	 2.0722634178	-0.6933076806	-1.3869723261	-0.183953
C	 2.3156116982	-1.2924257164	-2.7624212152	-0.169863
C	 0.9699517702	-1.0131025255	-3.4998134752	-0.226249
C	-0.0629351188	-0.8154875805	-2.3682265609	-0.311765
C	 3.4797488772	-0.737968116	-3.4555773129	 0.262644
N	 4.3987952228	-0.2973559126	-4.001201224	-0.330004
H	 0.2983401439	 2.2231310953	-0.3929033075	 0.126756
H	-1.26068575	 1.4888828504	-0.7923959101	 0.121095
H	-0.8607273312	 1.8414134968	 0.8913771562	 0.119145
H	 0.9531217673	 0.1358126897	 0.8785756524	 0.107929
H	-0.5883267059	-0.5980013746	 0.4569165576	 0.106574
H	 2.8771015267	-0.552769717	-0.6751824644	 0.1082
H	 2.4883312916	-2.3751961936	-2.6730043005	 0.126863
H	 1.0697848304	-0.0896588403	-4.0756710798	 0.130634
H	 0.7095573902	-1.8117044944	-4.197185051	 0.114752
H	-0.6198172782	-1.7395775536	-2.1565689373	 0.11167
H	-0.8120371973	-0.0592795948	-2.6245253266	 0.114112
51.3362	100.7128	124.4489	156.2681	214.0355	243.5993	325.3676	351.2984	470.6848	535.4085	565.2346	567.725	647.648	786.2039	836.8492	851.0974	878.5248	891.623	960.7854	975.5812	1017.3926	1029.3659	1062.8766	1071.605	1101.248	1157.033	1194.3551	1234.0693	1260.9959	1277.3852	1301.2564	1306.5649	1343.6139	1355.0033	1372.6131	1406.998	1479.8109	1484.4379	1497.541	1499.7985	1507.8113	1715.0474	2354.917	2995.7511	3008.0877	3012.8488	3039.482	3065.1895	3066.3585	3076.9101	3110.8893	3114.462	3122.3363	3204.0839
CCC1=CC(CC1)C#N	CCC1=C[C@@H](CC1)C#N	
InChI=1S/C8H11N/c1-2-7-3-4-8(5-7)6-9/h5,8H,2-4H2,1H3	InChI=1S/C8H11N/c1-2-7-3-4-8(5-7)6-9/h5,8H,2-4H2,1H3/t8-/m1/s1
