21
gdb 67654	2.88301	1.83262	1.59072	0.1953	84.95	-0.2315	0.0933	0.3248	963.0171	0.185528	-349.928374	-349.92145	-349.920506	-349.959112	29.788	
C	-0.0472176064	 1.5144340896	-0.0183365114	-0.506831
C	-0.0000429395	 0.013664226	 0.016513506	 0.34697
C	-0.1755225201	-0.8311283425	-1.2402003326	-0.099249
C	 0.6627768388	-2.0834199081	-1.4427272953	-0.22814
C	 0.863043665	-2.6059752284	-0.0127779145	-0.043149
C	 1.874520264	-1.6972187513	 0.7455520797	-0.241762
C	 0.6815404354	-0.8057651982	 1.1448814975	-0.079593
C	-0.3205747378	-1.9540187989	 0.8278417069	-0.040937
C	-1.1312956547	-1.0151868824	-0.0932960603	-0.137122
H	 0.9392819875	 1.9397103939	-0.2420928387	 0.116949
H	-0.7426832775	 1.8731431629	-0.7847825716	 0.114771
H	-0.3728667612	 1.9254591493	 0.9446023176	 0.114077
H	-0.5243563748	-0.280077179	-2.1086400352	 0.074192
H	 0.1039318153	-2.7991385557	-2.0589174274	 0.090111
H	 1.6207443452	-1.8959223454	-1.9413496111	 0.092407
H	 1.0168999204	-3.6846210729	 0.0456077159	 0.058974
H	 2.2991215079	-2.1970212668	 1.6217897669	 0.091079
H	 2.6882801117	-1.2584143339	 0.1582959217	 0.085191
H	 0.6780439117	-0.291344343	 2.108712992	 0.055494
H	-0.8047207002	-2.5424005547	 1.6039745086	 0.060218
H	-2.2054149906	-0.8833388005	-0.1425267446	 0.076348
202.7194	207.3642	263.9733	315.9071	402.2054	476.4459	574.0184	617.8982	679.9244	694.2172	792.5422	812.1937	830.3169	844.9625	885.6481	890.6419	912.1347	926.5819	946.5848	981.0988	984.5759	1024.2424	1026.6928	1061.2823	1068.2233	1097.7222	1114.37	1133.956	1183.6494	1192.2624	1206.9769	1226.4161	1233.8106	1248.2146	1257.3116	1287.5472	1308.9238	1335.5612	1338.5198	1413.0296	1443.3013	1482.8711	1486.3943	1498.2691	1499.9108	3014.8791	3020.5106	3035.5705	3061.9898	3071.8486	3076.3512	3086.3642	3090.1396	3094.4958	3136.8138	3155.3528	3181.8065
CC12C3CC4CC1C4C23	C[C@@]12[C@H]3C[C@H]4C[C@@H]1[C@H]4[C@@H]23	
InChI=1S/C9H12/c1-9-5-2-4-3-6(9)8(9)7(4)5/h4-8H,2-3H2,1H3	InChI=1S/C9H12/c1-9-5-2-4-3-6(9)8(9)7(4)5/h4-8H,2-3H2,1H3/t4-,5-,6+,7+,8+,9+/m1/s1
