14
gdb 129862	5.40019	1.27622	1.03805	2.7404	70.25	-0.209	0.0131	0.2221	1066.8428	0.104197	-432.878573	-432.871515	-432.87057	-432.910014	27.062	
N	-0.0095588303	 1.3740477713	 0.0164658728	-0.594188
C	-0.1135506877	-0.0095487644	 0.0144839521	 0.303172
C	-1.1932744492	-0.8320555152	 0.0836737262	-0.399831
C	-0.6946042148	-2.1841597428	 0.0400502966	 0.215795
C	 0.6734155159	-2.0324790435	-0.0533898591	 0.458486
N	 1.2599453963	-3.2421235607	-0.1019891543	-0.362489
N	 0.3040859424	-4.2232041974	-0.0429154223	-0.226308
C	-0.8649085423	-3.5915328813	 0.0422771237	-0.156757
O	 1.0971539069	-0.7636872893	-0.0740976085	-0.24934
H	 0.5201921809	 1.7286516362	 0.8066530884	 0.24917
H	 0.4065697303	 1.7395546688	-0.8344281637	 0.249173
H	-2.2103973803	-0.4816631248	 0.1563317275	 0.120595
H	 2.2288223732	-3.4972008602	-0.1704338868	 0.27792
H	-1.7699245812	-4.1775939766	 0.1008162374	 0.114602
113.4984	150.9742	315.9819	323.2963	333.4194	398.8079	520.8529	571.6814	603.5785	659.6667	749.9051	758.7196	773.6096	825.7427	833.9581	871.8992	872.4148	979.7867	1058.4574	1140.7887	1184.7549	1211.1049	1228.776	1262.0197	1321.7209	1423.1277	1485.5744	1562.8713	1596.7925	1651.9889	1688.5376	3247.6637	3266.7896	3494.0392	3559.4777	3695.0913
NC1=CC2=C(NN=C2)O1	Nc1cc2c([nH]nc2)o1	
InChI=1S/C5H5N3O/c6-4-1-3-2-7-8-5(3)9-4/h1-2H,6H2,(H,7,8)	InChI=1S/C5H5N3O/c6-4-1-3-2-7-8-5(3)9-4/h1-2H,6H2,(H,7,8)
