19
gdb 24347	3.35827	1.46324	1.06339	1.1959	80.61	-0.2103	0.0223	0.2326	1123.7011	0.16327	-385.942982	-385.935879	-385.934935	-385.974434	28.865	
C	-0.026510656	 1.543170694	-0.0526082891	-0.193815
C	 1.3933200054	 2.1301517137	 0.0055268188	-0.193815
C	 2.074227292	 1.8274293429	 1.354236336	-0.324191
C	 1.9015832349	 0.3790271225	 1.7171811121	 0.188972
C	 2.5409368744	-0.3970130923	 2.631702093	-0.133127
O	 2.0168292672	-1.6530450735	 2.6468465987	-0.148339
C	 1.0216817743	-1.6762635138	 1.7185813198	-0.133123
C	 0.9018032143	-0.4654616469	 1.1128180573	 0.188966
C	-0.0035612031	 0.0036763542	 0.0084477909	-0.324191
H	-0.6123883827	 1.9352438592	 0.7894187099	 0.09898
H	-0.5345538348	 1.8671426753	-0.9670080345	 0.092765
H	 1.9917568537	 1.705236649	-0.8113597266	 0.09898
H	 1.3639205438	 3.2127797676	-0.1564758134	 0.092765
H	 3.1339450711	 2.1036782636	 1.3193194178	 0.104914
H	 1.619369579	 2.4610410782	 2.1286010381	 0.110175
H	 3.3468616165	-0.2193508475	 3.3251089299	 0.129496
H	 0.5074589099	-2.6172839687	 1.6092785892	 0.129496
H	-1.0182994184	-0.3902719279	 0.1335356241	 0.104916
H	 0.3564108485	-0.3818378694	-0.955812092	 0.110176
103.4072	205.2839	310.3079	313.0483	371.2854	434.5217	486.9345	615.5095	644.5499	651.3436	691.3125	730.1984	760.3778	829.7041	856.0073	906.0746	922.2769	944.953	965.3271	1066.3495	1081.7405	1099.6183	1155.0525	1165.5995	1171.6178	1180.2744	1244.2558	1268.3035	1289.6389	1298.9636	1353.2053	1362.632	1368.5764	1381.8657	1404.4766	1480.5491	1482.6806	1490.8258	1500.4422	1579.2443	1644.9216	3005.2205	3005.9238	3018.063	3024.0636	3057.9694	3058.6867	3072.1362	3074.2402	3266.3288	3271.3247
C1CCC2=COC=C2C1	C1CCc2cocc2C1	
InChI=1S/C8H10O/c1-2-4-8-6-9-5-7(8)3-1/h5-6H,1-4H2	InChI=1S/C8H10O/c1-2-4-8-6-9-5-7(8)3-1/h5-6H,1-4H2
