15
gdb 62436	3.99705	1.27922	1.24363	1.7405	72.27	-0.2312	0.0109	0.2421	1022.2317	0.112822	-416.752834	-416.745088	-416.744144	-416.784771	29.936	
N	-0.1112601024	 1.4676636379	 0.0415611745	-0.558233
C	-0.0383210748	 0.0345829787	 0.0058835214	 0.01873
C	 1.0144575233	-0.5980393839	-0.7448980799	 0.300404
C	 1.9027881578	-1.111130487	-1.3754355921	-0.431845
C	-0.4627139668	-0.724343822	 1.261844004	 0.024667
O	-1.1844442478	 0.0265819024	 2.2142313191	-0.205276
C	-2.3336459104	 0.3889559	 1.5832348338	 0.118824
N	-2.5477237055	-0.0411191368	 0.4054669687	-0.262932
C	-1.3629128733	-0.7705683962	 0.0451724794	-0.073184
H	 0.7528703357	 1.8547227312	 0.4067261469	 0.239214
H	-0.2470885896	 1.8393326796	-0.8930128192	 0.241936
H	 2.6865321485	-1.5580079025	-1.9355469286	 0.195642
H	 0.1470410932	-1.5084046484	 1.6898226043	 0.127066
H	-2.9943422064	 1.015084379	 2.1683721324	 0.147313
H	-1.4690415115	-1.606437732	-0.6335260646	 0.117675
131.4876	144.745	211.6199	241.1034	298.1029	413.0743	451.4172	510.8618	568.7259	576.7472	607.3628	665.8124	722.3765	751.5042	805.7486	872.3117	898.5127	909.6769	944.3131	1022.0317	1029.2615	1071.7353	1089.8921	1117.2524	1160.3653	1256.2913	1276.8002	1297.5786	1327.9548	1366.4439	1655.7755	1663.4541	2221.3372	3201.3785	3210.7385	3243.3809	3500.8646	3502.3323	3582.5694
NC1(C#C)C2OC=NC12	N[C@@]1(C#C)[C@H]2OC=N[C@@H]12	
InChI=1S/C6H6N2O/c1-2-6(7)4-5(6)9-3-8-4/h1,3-5H,7H2	InChI=1S/C6H6N2O/c1-2-6(7)4-5(6)9-3-8-4/h1,3-5H,7H2/t4-,5+,6-/m1/s1
