19
gdb 116904	4.57398	0.56116	0.5442	0.8326	82.57	-0.2474	0.0309	0.2783	2057.4437	0.156182	-422.973851	-422.963413	-422.962469	-423.010914	36.331	
C	 0.2008370047	 1.2095864215	 0.6502405873	-0.465846
C	-0.0108273906	-0.0668465194	-0.137660122	 0.220181
C	 0.5876024834	-0.2155079799	-1.4812904475	-0.209535
O	 1.1818152654	-0.8511087127	-0.3551370419	-0.259756
C	-1.1982404218	-0.8220970287	 0.1900444058	 0.041749
C	-2.2016494448	-1.4187201431	 0.4882519004	 0.088518
C	-3.392904595	-2.1682928375	 0.8626488268	-0.331989
C	-3.1345705531	-3.1483764088	 2.0131972973	-0.063199
O	-4.3638866686	-3.8015642504	 2.2785050382	-0.415003
H	 1.1278805751	 1.6959729653	 0.3369184778	 0.126777
H	-0.6348789062	 1.8988507603	 0.4961354038	 0.130462
H	 0.2657742805	 0.9890348784	 1.7196924491	 0.134935
H	 0.1184935425	-0.8801235151	-2.2044231357	 0.118726
H	 1.1476292745	 0.6190215897	-1.9032520167	 0.112688
H	-4.1941385203	-1.4830737587	 1.165417008	 0.139355
H	-3.7765294786	-2.733901277	 0.0048359027	 0.139434
H	-2.3488597763	-3.8590893816	 1.7177732875	 0.103215
H	-2.768445747	-2.5938150773	 2.8900102093	 0.099228
H	-4.2220385338	-4.4358931151	 2.9868661296	 0.290057
28.3642	70.8688	74.1484	127.9242	186.7048	216.2452	236.1981	297.1353	321.6993	360.2461	394.4886	458.3122	537.7424	571.7606	652.0084	793.2636	796.1186	873.0773	924.8753	996.0426	1028.8599	1071.8412	1081.0978	1087.8377	1098.0037	1137.3326	1167.5643	1221.589	1238.1656	1286.1784	1304.9478	1332.6707	1371.2466	1411.1328	1456.3628	1476.6988	1478.8755	1494.9714	1521.2946	1528.0086	2365.3486	2986.2385	3017.5975	3031.4108	3044.202	3069.2829	3079.2098	3115.3915	3128.8138	3171.7098	3834.8917
CC1(CO1)C#CCCO	C[C@]1(CO1)C#CCCO	
InChI=1S/C7H10O2/c1-7(6-9-7)4-2-3-5-8/h8H,3,5-6H2,1H3	InChI=1S/C7H10O2/c1-7(6-9-7)4-2-3-5-8/h8H,3,5-6H2,1H3/t7-/m1/s1
