16
gdb 67008	2.6973	2.00623	1.40074	1.6489	68.53	-0.224	-0.0272	0.1968	911.0972	0.125033	-437.851458	-437.84444	-437.843495	-437.882661	28.146	
O	 0.1191702935	 1.3139949798	-0.1755940539	-0.48463
C	 0.0600449163	-0.0590080831	-0.0767614005	 0.348076
C	-0.3832817384	-0.8337142355	-1.3343696601	-0.127008
C	-0.1226665051	-2.3125047571	-1.1569543478	-0.192796
N	-0.7417165097	-2.2404449353	 0.227330445	-0.13047
C	 0.3255219977	-2.0726079886	 1.2315591089	-0.292935
C	 0.9445241781	-0.7041117799	 0.9341229104	 0.318499
O	 1.8713923207	-0.1403232659	 1.4704397956	-0.349622
C	-1.2299471753	-0.8567417737	-0.0911630703	-0.122589
H	 0.8660877929	 1.5728931764	 0.3860271332	 0.299394
H	-0.5327661317	-0.2621662699	-2.2426167193	 0.112698
H	-0.738129778	-2.942619143	-1.8060539857	 0.120684
H	 0.9129408091	-2.6708205561	-1.1804858894	 0.10836
H	-0.1095131528	-2.0529833325	 2.2381943361	 0.140717
H	 1.0527767407	-2.8875906084	 1.1971512882	 0.137335
H	-2.221394028	-0.4939129872	 0.1468120394	 0.114287
108.5159	255.6644	270.956	352.0579	365.9312	416.6176	476.7529	554.6766	609.5479	630.8377	712.8253	723.6261	820.5224	870.7797	913.3387	924.3622	942.5965	983.7185	1009.5163	1025.3418	1055.5178	1097.6761	1103.3706	1156.4053	1190.7327	1206.8637	1231.8556	1274.6943	1290.3555	1319.9656	1384.8199	1441.2286	1457.5342	1514.0887	1816.0917	3031.5288	3041.4954	3085.2606	3109.1097	3188.3818	3204.2633	3713.8159
OC12C3CN(CC1=O)C23	O[C@@]12[C@H]3CN(CC1=O)[C@@H]23	
InChI=1S/C6H7NO2/c8-4-2-7-1-3-5(7)6(3,4)9/h3,5,9H,1-2H2	InChI=1S/C6H7NO2/c8-4-2-7-1-3-5(7)6(3,4)9/h3,5,9H,1-2H2/t3-,5+,6-/m0/s1
