23
gdb 63753	3.01283	1.305	1.17577	0.4825	92.55	-0.2196	0.0274	0.247	1199.564	0.206301	-351.152418	-351.14366	-351.142716	-351.185134	35.316	
C	-0.128899314	 1.5297038363	-0.1002974702	-0.438519
C	-0.0465180611	 0.0074149138	-0.0250336957	 0.317846
C	-1.3828828479	-0.6414159511	-0.3704061353	-0.454194
C	 1.2102917889	-0.5481867694	-0.8229157359	-0.373312
C	 1.91891257	-0.5712598308	 0.507197802	 0.324323
C	 2.9859714488	-0.1605143609	 1.1837027665	-0.243178
C	 2.5928123599	 0.0876926984	 2.6389166531	-0.235142
C	 1.035363167	 0.2520058917	 2.5745457165	-0.252703
C	 0.6482989286	-0.5317295161	 1.3041667714	-0.06553
H	 0.8353485809	 1.9958761332	 0.125827222	 0.117938
H	-0.4273544762	 1.8495827006	-1.1050720591	 0.109381
H	-0.8682731587	 1.9230310405	 0.6063757891	 0.111953
H	-1.7027998468	-0.3766490364	-1.3852065104	 0.110902
H	-1.3217102445	-1.7334388	-0.3135240752	 0.109066
H	-2.1680411045	-0.3135101435	 0.3210720343	 0.113258
H	 1.0082011264	-1.545060968	-1.230404327	 0.10258
H	 1.6293391292	 0.0787596057	-1.6151428399	 0.103925
H	 3.9764819398	 0.0462481767	 0.7943691725	 0.086817
H	 2.8794064744	-0.7496539996	 3.2914628768	 0.101371
H	 3.083727127	 0.9767344621	 3.0506181783	 0.097844
H	 0.5367176824	-0.1055069964	 3.4800119628	 0.089953
H	 0.7908876087	 1.3139293541	 2.4659396466	 0.101301
H	 0.2420629017	-1.5246358109	 1.5379498167	 0.064122
95.1337	193.2259	224.7952	241.4567	266.9075	296.6149	322.8363	365.5344	380.839	479.8705	577.3283	630.6815	655.4859	768.649	792.5027	807.4792	855.6899	889.6223	906.7879	932.0402	954.7021	957.8191	971.4408	1014.5923	1032.0336	1051.0824	1090.4733	1120.1694	1146.4528	1164.4105	1190.7716	1217.9459	1222.2857	1258.8249	1265.2421	1290.624	1307.7756	1332.4957	1350.5634	1400.7935	1418.0695	1473.635	1480.4248	1486.282	1489.6427	1497.7429	1501.4269	1507.7069	1737.8038	3002.1515	3009.6554	3018.4766	3024.9044	3037.5223	3045.1682	3058.8612	3082.945	3088.7955	3090.2699	3093.7976	3094.4079	3099.4271	3192.7492
CC1(C)CC2=CCCC12	CC1(C)C[C]2[CH]CC[C@@H]12	
InChI=1S/C9H14/c1-9(2)6-7-4-3-5-8(7)9/h4,8H,3,5-6H2,1-2H3	InChI=1S/C9H14/c1-9(2)6-7-4-3-5-8(7)9/h4,8H,3,5-6H2,1-2H3/t8-/m1/s1
