18
gdb 6162	3.45959	1.41721	1.29668	1.8063	69.73	-0.2422	-0.0131	0.2291	1032.6066	0.150547	-384.954188	-384.945074	-384.94413	-384.987687	33.377	
C	-0.1773073404	 1.4670902333	-0.0606637643	-0.483058
C	 0.1322785505	-0.0137241812	 0.0542140204	 0.384517
O	 0.419491414	-0.5246376375	 1.1187883039	-0.328943
C	 0.0604769537	-0.793733411	-1.215030017	-0.156656
C	 0.8133656174	-2.1181573078	-1.3160712514	-0.342451
C	-0.679617792	-2.1290472735	-1.285028908	 0.409368
C	-1.4397654657	-2.6897837068	-0.1076215008	-0.46467
O	-1.3356382161	-2.2716081682	-2.5203440671	-0.463098
H	 0.5385758718	 1.9505975058	-0.7355971701	 0.140696
H	-1.1717208974	 1.6137903042	-0.4975558048	 0.142513
H	-0.129341792	 1.9359349913	 0.9226595761	 0.139271
H	-0.0271701551	-0.2145914959	-2.1272957793	 0.098142
H	 1.3034432671	-2.3296296278	-2.2592419428	 0.11613
H	 1.343406499	-2.4102119793	-0.4156711741	 0.13602
H	-0.9313853575	-2.4664565378	 0.8309445562	 0.159968
H	-2.4517468864	-2.2740587467	-0.0750851114	 0.122813
H	-1.525374157	-3.7793482582	-0.2037417446	 0.106107
H	-1.4105301636	-3.2154935029	-2.7020492109	 0.283331
65.3708	140.5573	156.8907	181.5166	239.9112	260.6801	319.3323	343.7003	384.296	422.4134	464.4081	593.6115	607.08	706.3868	776.9587	850.2036	927.4279	945.5624	975.7827	983.9076	1041.2626	1052.2758	1071.4668	1094.6212	1114.4419	1189.1987	1246.0005	1296.3071	1359.3634	1376.9921	1402.3136	1417.0686	1461.7785	1464.339	1475.2451	1495.7984	1502.9952	1784.1627	3028.1095	3033.6269	3091.535	3093.7025	3135.234	3150.7052	3153.0121	3178.5712	3235.6799	3790.7326
CC(=O)C1CC1(C)O	CC(=O)[C@H]1C[C@]1(C)O	
InChI=1S/C6H10O2/c1-4(7)5-3-6(5,2)8/h5,8H,3H2,1-2H3	InChI=1S/C6H10O2/c1-4(7)5-3-6(5,2)8/h5,8H,3H2,1-2H3/t5-,6+/m1/s1
