20
gdb 78711	2.89705	1.65603	1.48591	0.6357	84.11	-0.1996	0.0108	0.2104	1004.3062	0.17123	-365.969148	-365.96127	-365.960326	-366.000833	32.064	
C	-0.0446465185	 1.5456932611	-0.0221357091	-0.324802
N	 0.0298591396	 0.0980177209	 0.1159217441	-0.073851
C	-0.9486518814	-0.5811627194	 0.9152285548	-0.063025
C	 0.0408802708	-1.559793668	 1.4504855995	-0.149747
C	 1.1416658934	-0.5901228537	 0.9148377166	-0.068613
C	 1.5030807969	 0.2670532615	 2.100179439	-0.116796
C	 0.4524145653	 0.2900621789	 2.9363822574	-0.142038
C	-0.5956365743	-0.6516915938	 2.4758776189	 0.307876
C	-1.6781587815	-1.1609282189	 3.3938213722	-0.499519
H	 0.8299664384	 1.9062854774	-0.5737542382	 0.114922
H	-0.9356375986	 1.7824340291	-0.6145907767	 0.116318
H	-0.1105079206	 2.0926320472	 0.9299072475	 0.103071
H	-1.9810385238	-0.6864325716	 0.5965316944	 0.09363
H	 0.0456610771	-2.6428461752	 1.461990939	 0.08958
H	 1.9471201174	-0.9574601327	 0.2786796644	 0.071058
H	 2.3697085842	 0.915452033	 2.138782116	 0.094136
H	 0.3304133538	 0.9377949642	 3.7975295486	 0.092566
H	-2.2771351987	-0.3386601118	 3.8009137796	 0.119051
H	-2.3611041245	-1.8336381963	 2.8636577431	 0.115893
H	-1.258568455	-1.7185105819	 4.2395354288	 0.12029
162.486	195.5991	197.0338	253.5683	298.7062	318.4017	450.397	470.1941	556.2883	632.1052	646.1045	679.7835	752.1093	777.6137	818.7316	849.626	872.4112	896.2897	926.1589	939.8776	974.547	984.2096	1047.5452	1080.2995	1090.6531	1103.1523	1143.413	1162.7165	1199.9966	1200.664	1234.2637	1258.6246	1281.248	1308.8722	1349.9128	1394.1455	1420.3181	1439.2322	1477.0249	1489.8112	1501.5078	1509.7194	1622.6494	2990.9705	3021.2685	3062.4714	3080.4278	3091.8555	3096.0036	3105.8771	3157.6833	3186.0703	3186.3392	3214.3999
CN1C2C3C1C=CC23C	CN1[C@H]2[C@H]3[C@@H]1C=C[C@@]23C	
InChI=1S/C8H11N/c1-8-4-3-5-6(8)7(8)9(5)2/h3-7H,1-2H3	InChI=1S/C8H11N/c1-8-4-3-5-6(8)7(8)9(5)2/h3-7H,1-2H3/t5-,6+,7-,8+/m0/s1
