17
gdb 110049	2.39798	1.5283	1.06856	5.5042	64.16	-0.2606	0.0025	0.2631	1115.4728	0.136332	-496.135644	-496.127204	-496.12626	-496.168877	31.297	
O	-0.118439119	 1.4987356886	-0.1975833629	-0.427791
C	 0.04300052	 0.0974733842	-0.1879364173	-0.078036
C	-1.3031665034	-0.6029640844	 0.0582596966	-0.181397
C	-1.3408016193	-2.1325042635	 0.0434582891	 0.059417
O	-0.1297723689	-2.5982972925	 0.6142248209	-0.42356
C	-2.5512288755	-2.4075195322	 0.9561418552	-0.104057
O	-2.5852868056	-1.3261448078	 1.9019638016	-0.216927
C	-1.8713543319	-0.2732610057	 1.4347780819	 0.470414
O	-1.7414555223	 0.7450476939	 2.0601411752	-0.360797
H	-0.4991125278	 1.7310834855	 0.6614269859	 0.298752
H	 0.4330890442	-0.189792954	-1.169422138	 0.108103
H	 0.7684398322	-0.2328145796	 0.5660827433	 0.115221
H	-2.0223327222	-0.2194164197	-0.6774931041	 0.121978
H	-1.4939386411	-2.5459793378	-0.9615096957	 0.08494
H	-0.1418787726	-3.5605202132	 0.6239339342	 0.292388
H	-3.4919619846	-2.4222516286	 0.3929730779	 0.119944
H	-2.4526914121	-3.3406972831	 1.5164015862	 0.121407
81.441	146.2469	185.8821	188.5524	249.3262	285.8619	348.8142	415.4715	475.7122	518.7283	559.3072	659.8075	727.0627	770.1379	832.3343	866.7543	942.6759	998.2886	1015.7207	1066.8763	1081.7816	1105.6703	1137.7335	1175.3448	1200.6834	1217.974	1232.995	1282.4668	1322.8682	1344.4664	1386.9463	1391.7425	1430.4046	1456.5869	1501.6276	1512.3216	1853.9536	3020.2185	3025.571	3037.4596	3043.7205	3082.5485	3104.4083	3737.0176	3821.3419
OCC1C(O)COC1=O	OC[C@H]1[C@@H](O)COC1=O	
InChI=1S/C5H8O4/c6-1-3-4(7)2-9-5(3)8/h3-4,6-7H,1-2H2	InChI=1S/C5H8O4/c6-1-3-4(7)2-9-5(3)8/h3-4,6-7H,1-2H2/t3-,4-/m0/s1
