13
gdb 46245	2.89692	1.35516	1.08099	7.1466	63.98	-0.2872	-0.0335	0.2537	1071.2248	0.08938	-452.735421	-452.727853	-452.726909	-452.768044	27.11	
O	-0.1180045763	 0.0636103619	-0.1916173242	-0.30642
C	-0.0313114947	 1.2212354618	 0.0329459355	 0.462389
O	-1.0072337079	 2.0875172767	 0.4897173358	-0.244322
C	-0.1005073877	 3.2315616033	 0.5141992186	-0.151778
C	 1.0058154937	 2.3316055544	-0.0316405978	 0.115206
N	 2.4064638479	 2.211556145	 0.2960941409	-0.331445
C	 2.0395890328	 2.6245710999	-1.0700829448	-0.27341
C	 2.3400292905	 1.705461392	-2.1422236505	 0.358693
N	 2.5784758636	 1.0093467776	-3.0327076856	-0.316121
H	-0.4557240632	 4.0304869132	-0.1397952158	 0.141773
H	 0.0435870843	 3.5953685813	 1.5348434403	 0.139315
H	 2.73537425	 3.0094739041	 0.8355229163	 0.259123
H	 2.1509138471	 3.6711968888	-1.3446104988	 0.146996
92.3959	106.851	185.0236	257.4936	261.4681	340.0367	476.8523	515.2289	566.6268	673.6846	745.6008	779.0358	823.4368	909.7193	922.6158	951.2038	981.9942	1049.2199	1071.1221	1106.2528	1151.2147	1189.1811	1248.1007	1308.3271	1363.4111	1473.7235	1511.3628	1963.3028	2369.3112	3065.9593	3128.402	3140.5637	3504.4784
O=C1OCC11NC1C#N	O=C1OC[C@]21N[C@H]2C#N	
InChI=1S/C5H4N2O2/c6-1-3-5(7-3)2-9-4(5)8/h3,7H,2H2	InChI=1S/C5H4N2O2/c6-1-3-5(7-3)2-9-4(5)8/h3,7H,2H2/t3-,5-/m0/s1
