14
gdb 128618	3.19467	1.4085	0.99382	4.7027	69.4	-0.2497	-0.0666	0.1832	1118.1019	0.101897	-466.159782	-466.151909	-466.150965	-466.192776	28.162	
C	-0.0299939686	 1.3965756736	 0.0944915372	-0.243691
O	-0.0369295063	-0.0340309703	-0.0698759064	-0.260386
C	 0.5831553774	-0.4993992762	-1.1481891418	 0.550717
N	 1.190267943	 0.2311280917	-2.0055885808	-0.37347
C	 1.7733384652	-0.4498466761	-3.0711145287	 0.39445
N	 2.1207020178	 0.1440075245	-4.1382347564	-0.487173
N	 2.0266610859	-1.8707288155	-2.9227108124	-0.201496
N	 1.4178394816	-2.5341985479	-2.0623400297	-0.039612
N	 0.5170294876	-1.865360365	-1.2491912893	-0.317063
H	 0.9916754984	 1.7584031989	 0.2259255015	 0.156028
H	-0.4703582551	 1.8801521386	-0.7795052322	 0.160732
H	-0.6254658084	 1.5827701082	 0.9873272084	 0.143253
H	 2.5611471262	-0.5363077887	-4.7599815264	 0.232047
H	 0.1719568253	-2.4234222158	-0.483012873	 0.285662
75.5904	133.1468	140.4853	210.8605	229.5799	419.1279	440.1841	498.654	572.4451	584.4545	631.487	723.2791	745.8999	794.8283	897.415	925.8453	975.1299	1024.4463	1071.3282	1142.7341	1179.3208	1226.305	1318.2182	1329.3588	1432.1656	1476.6854	1483.0084	1498.331	1619.8296	1698.3927	1732.2287	3062.8694	3145.3936	3172.516	3479.7277	3636.1917
COC1=NC(=N)N=NN1	COC1=N[C@@H]([NH])N=NN1	
InChI=1S/C3H5N5O/c1-9-3-5-2(4)6-8-7-3/h1H3,(H2,4,5,6,7)	InChI=1S/C3H6N5O/c1-9-3-5-2(4)6-8-7-3/h2,4H,1H3,(H,5,6,7)/t2-/m1/s1
