15
gdb 54676	2.9054	1.46603	0.98037	2.657	70.97	-0.2497	-0.0551	0.1946	1124.2316	0.114307	-454.010638	-454.002905	-454.001961	-454.04313	29.127	
N	-0.0297192535	 1.3287853637	 0.0095643403	-0.544383
C	 0.0649237345	-0.0205568741	 0.002703264	 0.322766
O	 1.1110656359	-0.6476637156	-0.0093181939	-0.375483
C	-1.2569923535	-0.7285387296	 0.0119363046	 0.142978
C	-1.4063707011	-2.0564185359	 0.0095493483	-0.178021
C	-2.861706287	-2.3926488438	 0.0207290351	-0.142997
O	-3.5298055474	-1.1239183326	 0.0296601355	-0.243647
C	-2.6025128629	-0.1203834702	 0.0246713804	 0.384096
N	-2.8776391725	 1.1188867522	 0.0301826866	-0.580745
H	 0.8213377109	 1.8656721758	 0.0020517248	 0.258163
H	-0.9422381274	 1.7738757398	 0.0172015918	 0.287479
H	-0.6043174891	-2.7813479072	 0.0008629328	 0.153894
H	-3.1787752008	-2.9578773921	-0.8653013818	 0.142117
H	-3.1640655996	-2.9626336004	 0.9088516496	 0.142115
H	-3.8833691666	 1.28226314	 0.0388835118	 0.231669
76.5808	160.3325	220.7292	226.2875	357.626	377.7095	411.6652	426.0851	563.2087	637.1391	643.5142	741.1119	757.8191	806.2572	814.4858	852.4672	876.5907	947.4093	993.9549	1036.329	1078.6263	1134.6767	1149.4696	1197.6442	1234.6297	1335.9511	1380.8771	1399.4869	1492.7698	1623.8795	1690.9405	1746.6242	1787.1873	3021.6012	3052.4321	3247.1551	3473.2487	3505.2198	3695.4008
NC(=O)C1=CCOC1=N	NC(=O)C1=C(OC[CH]1)[NH]	
InChI=1S/C5H6N2O2/c6-4(8)3-1-2-9-5(3)7/h1,7H,2H2,(H2,6,8)	InChI=1S/C5H6N2O2/c6-4(8)3-1-2-9-5(3)7/h1,7H,2H2,(H2,6,8)
