21
gdb 116187	2.24675	1.36883	1.11025	2.7522	73.95	-0.2412	0.066	0.3072	1199.0797	0.181259	-461.35714	-461.347325	-461.346381	-461.391621	36.611	
C	-0.5184495346	 1.4971441337	-0.0310624692	-0.462831
C	 0.0260522435	 0.0703215562	 0.0172875176	 0.337887
O	-1.050146817	-0.861814	-0.1519688163	-0.476362
C	 1.1401401462	-0.1980453255	-1.0259152186	-0.091536
O	 2.0733971566	-1.0950732385	-0.4434467826	-0.268657
C	 1.5646642743	-1.5401572868	 0.8161216257	-0.083915
C	 0.7049280826	-0.3796918037	 1.3312579058	-0.014494
C	 1.5591560753	 0.69065263	 2.0073138653	-0.10709
O	 2.1334067042	 0.097432041	 3.1645134921	-0.421704
H	 0.2624133505	 2.2461864261	 0.1281375308	 0.120503
H	-0.9653332169	 1.6953931709	-1.0131072093	 0.106906
H	-1.2980513712	 1.633038483	 0.7235968378	 0.129667
H	-1.4147238339	-0.7366876574	-1.0347711432	 0.274831
H	 0.7010087127	-0.6310829979	-1.9375617248	 0.08084
H	 1.6662100096	 0.7225829474	-1.3116691487	 0.092013
H	 0.9551210155	-2.4444973558	 0.6914447004	 0.099262
H	 2.4131760162	-1.7600744916	 1.4668447441	 0.118388
H	-0.0565848905	-0.7201011682	 2.0375535158	 0.09447
H	 2.3400773778	 1.0418031763	 1.3146308264	 0.096778
H	 0.9384223748	 1.5561767882	 2.2812732744	 0.087462
H	 2.7449587941	 0.7287002926	 3.5540087864	 0.287581
71.8905	103.319	162.328	191.3126	251.0303	257.2324	286.4435	299.1218	331.693	349.1458	380.3733	475.5941	519.5236	609.4963	708.664	837.8686	864.4464	899.1395	936.762	940.1942	976.802	992.0195	1039.2597	1065.8614	1099.9399	1114.8445	1149.7499	1175.181	1187.2029	1227.7937	1237.5029	1257.7489	1275.1498	1303.681	1350.2045	1356.8961	1364.7605	1404.4796	1413.064	1458.7752	1491.82	1492.9757	1507.2255	1520.5057	1523.2717	2975.9039	2982.9826	3009.9561	3020.3486	3025.7992	3029.3252	3088.6694	3092.9471	3115.6769	3120.6184	3804.3126	3834.7651
CC1(O)COCC1CO	C[C@@]1(O)COC[C@H]1CO	
InChI=1S/C6H12O3/c1-6(8)4-9-3-5(6)2-7/h5,7-8H,2-4H2,1H3	InChI=1S/C6H12O3/c1-6(8)4-9-3-5(6)2-7/h5,7-8H,2-4H2,1H3/t5-,6-/m1/s1
