17
gdb 43647	5.22674	0.86725	0.77608	3.0753	81.32	-0.2402	-0.0474	0.1928	1413.5831	0.135184	-384.694342	-384.685869	-384.684925	-384.728203	31.552	
O	 0.0420694036	-0.0503804078	-0.0835825006	-0.327381
C	 0.0299453281	 1.1561579908	-0.0226389429	 0.381607
C	-1.2248391961	 2.042321302	 0.0824833813	-0.365031
C	-0.7122841835	 3.4971502806	 0.0609810015	-0.045146
C	-1.1939161927	 4.3419291898	 1.2691318871	-0.368941
C	-0.6956325644	 5.711523076	 1.2448799275	 0.296045
C	-0.2710528233	 6.8350557492	 1.1943743645	-0.437474
C	 0.7917907443	 3.3438805561	 0.0166315234	-0.042989
C	 1.1964692901	 2.070194919	-0.0304026184	-0.186357
H	-1.9103113257	 1.8114262736	-0.7372199022	 0.13426
H	-1.7506546591	 1.799185473	 1.0121325746	 0.132173
H	-1.0439028312	 4.0177145417	-0.8462520597	 0.106655
H	-2.290779762	 4.3503336864	 1.2772940075	 0.138901
H	-0.8807767745	 3.8485719636	 2.1983862216	 0.136454
H	 0.0941160707	 7.8318490328	 1.1658498854	 0.200285
H	 1.4382449484	 4.2147159169	 0.0270501624	 0.129603
H	 2.2160075673	 1.7089377465	-0.0733309328	 0.117336
45.0227	85.1172	140.5535	223.4031	294.9574	352.1396	390.9353	453.764	495.5872	604.2621	626.0597	649.6256	655.5691	738.753	815.0573	826.8815	837.1866	889.5892	962.2124	998.491	1015.3895	1055.4474	1065.3879	1121.3223	1169.5947	1183.9845	1215.1066	1258.1808	1284.0632	1331.8715	1351.7693	1367.4093	1453.2858	1473.2382	1650.0251	1818.0542	2237.5735	3019.5464	3028.0716	3058.6632	3060.2535	3104.9911	3196.8105	3228.3885	3505.1275
O=C1CC(CC#C)C=C1	O=C1C[C@@H](CC#C)C=C1	
InChI=1S/C8H8O/c1-2-3-7-4-5-8(9)6-7/h1,4-5,7H,3,6H2	InChI=1S/C8H8O/c1-2-3-7-4-5-8(9)6-7/h1,4-5,7H,3,6H2/t7-/m0/s1
