19
gdb 11598	5.8929	0.85464	0.80974	3.4638	72.34	-0.2428	0.0358	0.2787	1431.6572	0.164924	-365.089822	-365.080635	-365.079691	-365.125058	32.657	
N	-0.0728108056	 1.3017055338	 0.0291164067	-0.522305
C	 0.0585792082	-0.0433112722	-0.1795736809	 0.405851
O	 1.1367530004	-0.5611212566	-0.3981673406	-0.358774
C	-1.2482773524	-0.8323589175	-0.1243887844	-0.304425
C	-1.0296446753	-2.2954723637	 0.2753712249	-0.195833
C	-2.2840703244	-3.1324230752	 0.1534104565	 0.027804
C	-2.6719303654	-3.7303392959	-1.1775452104	-0.25721
C	-2.1888363089	-4.6208894439	-0.0579476121	-0.275726
H	 0.7378192072	 1.8828624696	-0.1099288371	 0.258189
H	-0.9717741406	 1.742924512	 0.1106603458	 0.255267
H	-1.9595218267	-0.3418979041	 0.5515948138	 0.097516
H	-1.6978569396	-0.7903627667	-1.1260498187	 0.128946
H	-0.2357070512	-2.7068190333	-0.3561652552	 0.121814
H	-0.6483929367	-2.336755085	 1.3034964211	 0.102174
H	-3.1123501737	-2.7994067355	 0.7755448326	 0.075243
H	-3.7215700108	-3.7656438618	-1.448133144	 0.107262
H	-2.0029514976	-3.5703195166	-2.0173717843	 0.111956
H	-1.1981726583	-5.0542247419	-0.1494796698	 0.113678
H	-2.9093441885	-5.2624647051	 0.4373185063	 0.108573
30.8211	62.5911	115.8856	129.9475	183.3822	258.5053	323.7926	393.6266	463.9938	521.1344	608.7034	663.791	768.3679	778.0762	826.7274	828.3449	870.782	924.6989	958.3237	1034.6109	1058.1949	1062.1128	1078.9412	1085.5033	1138.364	1147.871	1198.8335	1223.3572	1234.6637	1254.9067	1311.3193	1346.1958	1400.4365	1419.1236	1464.3416	1469.6397	1492.1194	1507.617	1616.6618	1796.883	3018.5859	3032.3388	3055.8919	3086.4847	3124.9984	3126.6873	3133.1013	3204.7421	3220.3472	3599.9334	3736.7956
NC(=O)CCC1CC1	NC(=O)CCC1CC1	
InChI=1S/C6H11NO/c7-6(8)4-3-5-1-2-5/h5H,1-4H2,(H2,7,8)	InChI=1S/C6H11NO/c7-6(8)4-3-5-1-2-5/h5H,1-4H2,(H2,7,8)
