18
gdb 119814	5.74335	0.79967	0.71438	2.6524	74.97	-0.2379	-0.0257	0.2121	1562.3276	0.146589	-439.128162	-439.119236	-439.118292	-439.16271	32.111	
C	-0.1209808865	 1.4883702997	 0.0121993857	-0.391546
C	-0.0076545984	-0.0234464236	 0.0039370427	-0.040339
O	-1.3458200838	-0.560036064	 0.0110021538	-0.262276
C	-1.449724763	-1.8886306576	 0.0057508935	 0.428143
N	-0.4630282151	-2.6979577258	-0.0050299058	-0.315941
C	-0.9750060985	-4.0640739304	-0.0075488305	-0.269798
C	-2.5115099351	-3.9717938311	 0.0042502489	 0.391009
O	-3.2911906893	-4.8848709473	 0.0053286645	-0.299024
C	-2.8373556907	-2.4722167165	 0.0130767822	-0.456416
H	 0.87827112	 1.9338270899	 0.0070270869	 0.12418
H	-0.6618298174	 1.8449903749	-0.8688761567	 0.129845
H	-0.6487803944	 1.8362935129	 0.9045918424	 0.129842
H	 0.5162011655	-0.3942377179	-0.8832126821	 0.122644
H	 0.5290063337	-0.4029533792	 0.8796660933	 0.122668
H	-0.6348127707	-4.6194528066	-0.8911339109	 0.137742
H	-0.6218588604	-4.627557727	 0.8657612982	 0.137714
H	-3.4161908524	-2.1909012208	 0.8990423763	 0.155762
H	-3.4287079934	-2.1832030093	-0.8620809323	 0.155791
48.8736	75.8093	143.8977	146.6953	248.7974	280.4951	340.0271	378.3256	450.4575	507.9761	544.8639	635.7559	733.1621	792.7496	808.9048	820.7558	877.582	929.4602	1012.2199	1049.261	1075.7391	1128.6211	1134.2046	1166.2132	1182.76	1197.2246	1217.6086	1288.7204	1295.9149	1362.4864	1407.2631	1424.3288	1443.8683	1459.2487	1485.6663	1496.4821	1520.1322	1704.9319	1865.0798	3026.1622	3046.6273	3048.0196	3054.3168	3058.0046	3085.5199	3096.4686	3121.2204	3126.098
CCOC1=NCC(=O)C1	CCOC1=NCC(=O)C1	
InChI=1S/C6H9NO2/c1-2-9-6-3-5(8)4-7-6/h2-4H2,1H3	InChI=1S/C6H9NO2/c1-2-9-6-3-5(8)4-7-6/h2-4H2,1H3
