24
gdb 113216	3.56639	0.87173	0.85419	1.0761	91.16	-0.2243	0.0842	0.3084	1542.0675	0.215814	-368.371873	-368.361639	-368.360695	-368.407439	38.541	
C	-0.6890942421	-0.0539152693	-3.1549505348	-0.368171
C	-0.2773353438	-0.7577088531	-1.8556899458	-0.210132
C	-1.4649962569	-1.0516941877	-0.9617602652	-0.002659
C	-2.290581282	-2.311013906	-1.1167143742	-0.328951
C	-1.4717328705	-2.0951454899	 0.1364172222	 0.331724
C	-0.2483957488	-2.9631747761	 0.3738570592	-0.482623
N	-2.2843957303	-1.6897949221	 1.270230947	-0.10481
C	-2.6046459007	-2.6270945816	 2.3375429981	-0.230518
C	-1.693165235	-1.4709100117	 2.5824349628	-0.229231
H	 0.1799349614	 0.154379807	-3.7870900819	 0.106846
H	-1.3872255552	-0.6704974158	-3.7307026739	 0.117984
H	-1.1863736952	 0.8994763494	-2.9457144982	 0.114378
H	 0.2525079037	-1.6845448883	-2.1031829842	 0.09121
H	 0.4436681172	-0.1293682915	-1.3155751445	 0.094988
H	-2.0466579158	-0.1714983898	-0.6998291658	 0.086963
H	-3.3677910123	-2.2355708711	-1.0268697384	 0.11202
H	-1.9415734755	-3.0626119112	-1.8186811267	 0.100592
H	 0.1996278453	-3.2710349508	-0.5730311368	 0.12167
H	 0.5256087138	-2.4372734479	 0.9433556324	 0.118674
H	-0.5035976454	-3.8803012957	 0.9158063985	 0.117166
H	-3.6347462772	-2.605443579	 2.6837145032	 0.112794
H	-2.1537553613	-3.6169628354	 2.3301383598	 0.10889
H	-0.6414518589	-1.7010621637	 2.7364090069	 0.108588
H	-2.0432584147	-0.5897996485	 3.1140657502	 0.112611
39.0787	80.8541	131.2496	159.5644	210.6479	249.1589	279.0707	293.8852	334.0558	358.9707	426.4014	456.7222	550.5762	653.4697	771.0127	799.3222	814.9981	829.1491	897.283	910.5626	929.5437	951.9472	980.3204	999.7858	1033.256	1052.8185	1057.1142	1104.109	1114.1058	1114.5214	1119.7046	1133.674	1172.2428	1174.2487	1195.0577	1227.1031	1294.5674	1309.4045	1341.0546	1352.039	1407.0419	1412.4453	1419.5982	1477.8842	1482.4909	1488.6114	1497.8465	1498.7702	1506.4779	1508.9393	1524.6705	3015.0978	3031.579	3033.5636	3055.5575	3087.9466	3099.9671	3100.4581	3103.55	3103.9594	3121.5466	3127.0192	3141.6131	3174.096	3188.7772	3219.1319
CCC1CC1(C)N1CC1	CC[C@H]1C[C@]1(C)N1CC1	
InChI=1S/C8H15N/c1-3-7-6-8(7,2)9-4-5-9/h7H,3-6H2,1-2H3	InChI=1S/C8H15N/c1-3-7-6-8(7,2)9-4-5-9/h7H,3-6H2,1-2H3/t7-,8-/m0/s1
