15
gdb 131553	3.16234	1.59145	1.14767	1.8529	66.5	-0.2187	0.029	0.2477	1009.6025	0.115683	-453.944576	-453.937429	-453.936485	-453.976286	27.364	
O	 0.055826071	 1.4813166153	 0.2185177895	-0.42444
C	 0.0532666725	 0.0788862015	-0.0214454511	-0.046628
C	 0.6534806062	-0.7520743164	 1.1748556424	-0.122471
O	-0.4383867049	-1.4650505623	 1.8541103426	-0.284502
C	-1.4643957021	-1.3393898499	 1.0009133526	 0.491041
C	-1.3059047171	-0.5459235354	-0.1048406242	 0.080112
C	-2.556890805	-0.6300924828	-0.7590614539	-0.157463
N	-3.4024569953	-1.4190677857	-0.1007695641	-0.232498
N	-2.7014440165	-1.855162365	 1.0012352751	-0.344458
H	-0.7152268677	 1.6795864127	 0.7618119511	 0.27949
H	 0.6823764302	-0.0515511083	-0.9068458333	 0.102171
H	 1.3584392119	-1.5111340581	 0.8244968026	 0.126867
H	 1.1359704187	-0.1009782773	 1.9054277666	 0.133666
H	-2.8874618446	-0.1603616207	-1.6739932649	 0.119481
H	-3.1402365872	-2.4815921275	 1.6530675891	 0.279633
101.7085	152.0943	286.1782	316.8785	336.4771	435.2161	455.954	501.1976	645.7657	665.9206	716.4265	750.4489	775.7805	877.4355	893.4904	953.2413	967.6908	996.8677	1047.7568	1076.7311	1158.8538	1213.2954	1227.1893	1252.0849	1289.9747	1320.3483	1352.7049	1410.0388	1431.9124	1457.4857	1490.6073	1592.2129	1626.6504	3060.2601	3073.2866	3138.1999	3243.9235	3687.2826	3799.4311
OC1COC2=C1C=NN2	O[C@H]1COc2c1cn[nH]2	
InChI=1S/C5H6N2O2/c8-4-2-9-5-3(4)1-6-7-5/h1,4,8H,2H2,(H,6,7)	InChI=1S/C5H6N2O2/c8-4-2-9-5-3(4)1-6-7-5/h1,4,8H,2H2,(H,6,7)/t4-/m0/s1
