19
gdb 70698	2.25586	1.91997	1.23739	3.3851	76.89	-0.2498	0.0163	0.2661	1053.0421	0.161226	-419.203656	-419.195538	-419.194594	-419.236217	31.574	
C	 0.0572786438	 1.534147438	 0.0151879564	-0.465391
C	 0.0970919394	 0.0240308624	-0.0090581353	 0.229917
N	-0.8092539846	-0.733119399	 0.8933606483	-0.350027
C	 0.6346305966	-0.7430152563	 1.1562379569	-0.091419
C	 1.3229820629	-2.0783794467	 0.9181818649	-0.218565
C	 1.7774349919	-2.1775959185	-0.5331482078	-0.089014
O	 0.7295940506	-1.8492336863	-1.457208317	-0.252708
C	 0.1889939806	-0.5987794721	-1.3727639887	 0.38009
N	-0.2735740588	-0.0001386387	-2.3877489715	-0.522179
H	 0.9554226684	 1.9597408238	-0.4424600442	 0.128494
H	-0.8019301507	 1.9006610429	-0.5514243145	 0.152516
H	-0.008235673	 1.8980268289	 1.0460551612	 0.102278
H	-1.2816739129	-0.0739905423	 1.5083696036	 0.231863
H	 0.9981066561	-0.1476684822	 1.9907053907	 0.087879
H	 2.1959867902	-2.1883270745	 1.5703521418	 0.103473
H	 0.6247876342	-2.8878874483	 1.1504478142	 0.126751
H	 2.6315839262	-1.5101070135	-0.7137223856	 0.106038
H	 2.0808778814	-3.1934458528	-0.7958034546	 0.120034
H	-0.1386005521	-0.5764730046	-3.2212632991	 0.219969
72.5678	183.2345	214.7729	232.1858	300.398	317.4179	418.8599	435.7916	492.8507	520.8151	613.6337	685.5445	729.052	787.688	867.4276	890.8291	923.6608	935.0067	944.1612	979.3507	1034.7116	1043.9251	1089.0925	1118.7036	1129.9225	1143.1818	1181.396	1250.0609	1263.1368	1292.0551	1309.5518	1370.3254	1385.0718	1414.7839	1436.1712	1445.6596	1470.0588	1474.8115	1500.8948	1510.4823	1746.1145	3010.3267	3036.8492	3047.9896	3095.0185	3105.4329	3107.9992	3126.4177	3131.8881	3462.6457	3490.0365
CC12NC1CCOC2=N	C[C@]12N[C@H]1CCO[C]2[NH]	
InChI=1S/C6H10N2O/c1-6-4(8-6)2-3-9-5(6)7/h4,7-8H,2-3H2,1H3	InChI=1S/C6H10N2O/c1-6-4(8-6)2-3-9-5(6)7/h4,7-8H,2-3H2,1H3/t4-,6-/m0/s1
