15
gdb 11390	4.26078	1.4761	1.16897	4.8968	63.79	-0.2408	-0.0278	0.213	983.0399	0.119722	-399.838949	-399.831432	-399.830487	-399.871071	27.521	
O	-0.0885811811	 1.4453605773	-0.0875059313	-0.422308
C	 0.0396442899	 0.0370301227	 0.029490012	-0.080265
C	-1.3812424889	-0.5315078174	 0.0419261317	-0.016453
N	-2.0912854874	-0.2577140281	-1.1856214429	-0.319249
C	-2.4749459942	-1.3950809298	-1.864829861	 0.39736
O	-3.0248618754	-1.4470090751	-2.9441714839	-0.384863
C	-2.0551953141	-2.5238024481	-0.9732413313	-0.190651
C	-1.4314648679	-2.0388535314	 0.1008094321	-0.088102
H	 0.7846108137	 1.8222017004	-0.2285206598	 0.295405
H	 0.5905338271	-0.3945811558	-0.8185179469	 0.103404
H	 0.5561901942	-0.2468777442	 0.95980787	 0.092546
H	-1.902367424	-0.0911202674	 0.9064009197	 0.109062
H	-2.1242773327	 0.6600514147	-1.5961917672	 0.260804
H	-2.2538595495	-3.5559039699	-1.2245848471	 0.12499
H	-1.0092427997	-2.5961468677	 0.927428596	 0.11832
76.5748	138.07	185.4586	247.3756	309.5109	422.5811	449.5966	488.6126	521.46	676.7421	695.5007	786.0586	830.9421	901.7464	931.2507	976.1263	1011.266	1056.1235	1077.395	1103.025	1142.5666	1207.1381	1230.6422	1253.4719	1301.3075	1336.2071	1381.2792	1410.3143	1448.0194	1513.223	1654.1709	1823.7111	2977.2656	2987.04	3027.1755	3212.7015	3248.9789	3674.1387	3836.9802
OCC1NC(=O)C=C1	OC[C@H]1NC(=O)C=C1	
InChI=1S/C5H7NO2/c7-3-4-1-2-5(8)6-4/h1-2,4,7H,3H2,(H,6,8)	InChI=1S/C5H7NO2/c7-3-4-1-2-5(8)6-4/h1-2,4,7H,3H2,(H,6,8)/t4-/m0/s1
