21
gdb 86204	2.34121	1.50103	1.17956	2.5855	74.18	-0.242	0.0486	0.2906	1149.4499	0.18132	-461.371646	-461.361888	-461.360944	-461.405927	36.792	
C	-0.1533369781	 1.4735771011	-0.2204851349	-0.421736
C	-0.0134318779	-0.0134422376	 0.0609932171	 0.144159
O	 0.4531336875	-0.6640896236	-1.118072292	-0.29242
C	 1.2504291014	-1.811529745	-0.7918410148	 0.108484
C	 2.5992442092	-1.7088466125	-1.4915782145	-0.39923
C	 1.3326299363	-1.8452210095	 0.7675987826	 0.0959
O	 2.5471715785	-2.3010876997	 1.3060462514	-0.439811
C	 0.9851545934	-0.3975759745	 1.1591527246	 0.032218
O	 2.210957023	 0.3285370425	 1.0951150213	-0.438926
H	 0.821194878	 1.9047694114	-0.4636616918	 0.125308
H	-0.8179977488	 1.6309742886	-1.073680308	 0.133806
H	-0.5780953843	 1.9973208466	 0.643038199	 0.106343
H	-0.9977865136	-0.4232325091	 0.3521396609	 0.063663
H	 0.7236416975	-2.7067546656	-1.1502752165	 0.069806
H	 3.1346128243	-0.814235723	-1.1625677337	 0.123014
H	 3.2102135154	-2.5884487114	-1.272189578	 0.121725
H	 2.4499839855	-1.6434801274	-2.5728836323	 0.116414
H	 0.5498899778	-2.5074458855	 1.1516901607	 0.089452
H	 3.1335114969	-1.5332579249	 1.3221455558	 0.293734
H	 0.5472459455	-0.3296978683	 2.1625956784	 0.071669
H	 2.0851713026	 1.1944980976	 1.4920837248	 0.296429
62.3484	113.1517	189.3292	225.5596	236.9828	248.9364	266.9636	292.0109	336.1949	403.1042	441.3025	476.6648	505.2458	563.6073	708.8839	767.9857	789.6774	841.2194	873.8715	942.8493	964.499	1008.1389	1044.0448	1094.5192	1108.0007	1135.9353	1146.8149	1151.5359	1176.3742	1202.1291	1265.6122	1314.1888	1331.1481	1337.4173	1369.1082	1379.0276	1390.5975	1400.7964	1407.7497	1423.5117	1453.8316	1485.7895	1488.3797	1501.9879	1505.3288	2933.8682	2998.2734	3030.4027	3040.229	3047.6605	3060.0727	3112.8103	3122.8741	3128.5924	3130.4365	3766.9233	3845.6355
CC1OC(C)C(O)C1O	C[C@H]1O[C@@H](C)[C@@H](O)[C@H]1O	
InChI=1S/C6H12O3/c1-3-5(7)6(8)4(2)9-3/h3-8H,1-2H3	InChI=1S/C6H12O3/c1-3-5(7)6(8)4(2)9-3/h3-8H,1-2H3/t3-,4+,5+,6-
