19
gdb 47497	2.67798	1.49464	1.09148	4.2571	76.08	-0.2542	0.0143	0.2684	1137.3233	0.160246	-423.063104	-423.055152	-423.054208	-423.095829	31.087	
O	 0.0571836938	 0.0583770025	 0.5039689906	-0.321209
C	-0.0198912499	 1.1609366056	 0.0356323928	 0.386719
C	-1.345213699	 1.8894310978	-0.1484973165	-0.321813
C	-1.326487377	 3.0486004931	-1.1487325859	-0.22482
C	-0.0741033706	 3.8928884779	-0.9038147509	-0.277756
C	 1.1428446879	 3.0151278596	-1.0500171664	 0.466862
C	 1.8392447047	 2.8648675119	-2.3773916314	-0.317594
C	 2.5172858892	 3.5746039703	-1.2187438092	-0.330351
O	 1.1275741889	 1.8271559121	-0.2610736518	-0.270068
H	-2.0920712492	 1.13113068	-0.3930901145	 0.136991
H	-1.6068971435	 2.2666774602	 0.8494054034	 0.139435
H	-1.3082428756	 2.6619102495	-2.1745158092	 0.112703
H	-2.2366632505	 3.647472417	-1.0480674584	 0.104196
H	-0.0049414264	 4.7242140674	-1.6114866038	 0.106916
H	-0.1030114718	 4.3259725323	 0.1050304649	 0.108014
H	 2.20302632	 1.87648149	-2.6319299636	 0.132606
H	 1.4853688026	 3.455113787	-3.2161089763	 0.116065
H	 2.6294536703	 4.6526487643	-1.2588766638	 0.117968
H	 3.3206368959	 3.0477894915	-0.71730197	 0.135136
84.8169	89.8499	223.6799	268.8763	355.7656	392.1756	432.9373	469.2269	523.6344	542.7702	618.3428	718.112	771.219	807.7145	855.7357	900.6171	910.1393	948.8799	956.9146	986.8654	1015.5261	1055.0127	1061.1954	1081.3186	1097.0289	1154.7155	1186.9703	1199.025	1235.9695	1265.8654	1309.3496	1335.4835	1355.2047	1376.1609	1399.5388	1453.3172	1459.7455	1484.4681	1497.5048	1503.1285	1843.9337	3021.8153	3030.2626	3039.6865	3084.3972	3088.7815	3111.9859	3135.4888	3139.3163	3223.0674	3236.1971
O=C1CCCC2(CC2)O1	O=C1CCCC2(CC2)O1	
InChI=1S/C7H10O2/c8-6-2-1-3-7(9-6)4-5-7/h1-5H2	InChI=1S/C7H10O2/c8-6-2-1-3-7(9-6)4-5-7/h1-5H2
