14
gdb 29252	3.29514	1.44041	1.00352	3.2276	69.29	-0.2142	-0.0379	0.1764	1090.3944	0.103066	-470.062888	-470.055237	-470.054293	-470.095046	29.165	
N	 0.0416187292	 1.4316117662	 0.1974784929	-0.586821
C	-0.0442164709	 0.0620852872	-0.0223874298	 0.101707
C	-1.1636387688	-0.6579107103	-0.1945506266	-0.020383
O	-1.172354175	-2.0060962597	-0.4674557351	-0.227964
C	-0.0129743616	-2.7112715085	-0.6073311954	 0.471033
N	 0.0305939368	-3.9452075135	-0.8791181919	-0.567154
N	 1.148814685	-1.9786425181	-0.4221004291	-0.399051
C	 1.2528886528	-0.6367817198	-0.1189376407	 0.439072
O	 2.3236925311	-0.0886676901	 0.0606349967	-0.380023
H	 0.9663396033	 1.6839619567	 0.525208026	 0.267984
H	-0.6948726661	 1.8347734438	 0.7574003579	 0.252115
H	-2.1718404668	-0.2701632304	-0.1390938914	 0.134385
H	-0.9072870843	-4.325387744	-0.9791006648	 0.232997
H	 2.0099521753	-2.5018120294	-0.5017362786	 0.282104
91.5073	152.8333	263.8725	305.5411	344.4927	381.4556	389.9072	454.1087	553.7279	608.2043	652.222	673.8982	714.2574	740.4151	787.8344	802.9156	815.2479	846.3275	911.3809	1074.0917	1131.5764	1205.2319	1276.7042	1299.4161	1401.269	1411.1626	1461.6017	1624.9257	1716.7765	1775.9335	1792.2476	3227.4322	3539.4522	3541.3044	3617.905	3653.5797
NC1=COC(=N)NC1=O	NC1=CO[C]([NH])NC1=O	
InChI=1S/C4H5N3O2/c5-2-1-9-4(6)7-3(2)8/h1H,5H2,(H2,6,7,8)	InChI=1S/C4H5N3O2/c5-2-1-9-4(6)7-3(2)8/h1H,5H2,(H2,6,7,8)
