19
gdb 29778	2.44193	1.5191	0.94939	1.0319	80.83	-0.1607	0.0582	0.2189	1236.8821	0.158035	-419.236292	-419.22576	-419.224816	-419.27191	37.108	
C	 0.0263419993	 1.4516133024	-0.0010018602	-0.33833
N	-0.0353635835	 0.0084384037	-0.0030884071	-0.047943
C	-0.0410209328	-0.8051218514	-1.1366793668	-0.208619
C	 0.0068739135	-2.111181113	-0.7177012531	 0.154045
N	-0.0950459162	-3.2799363361	-1.5035714091	-0.604187
C	 0.0660028542	-2.1208200204	 0.7162268545	 0.090372
C	 0.0904092492	-3.3271506377	 1.6026865178	-0.527
C	 0.0485355806	-0.7951561851	 1.0931091592	 0.299647
O	 0.0935345215	-0.2005890778	 2.317428625	-0.447294
H	 1.0376920548	 1.8214405088	-0.2137958724	 0.127646
H	-0.6558645384	 1.851312949	-0.7569349628	 0.131124
H	-0.2793558458	 1.8228466923	 0.9778821221	 0.153322
H	-0.1013057029	-0.3721831581	-2.1216016194	 0.096231
H	 0.0044558892	-3.0785357222	-2.4911606802	 0.233652
H	 0.6046608791	-3.9691284068	-1.2513477399	 0.235621
H	 1.073202505	-3.8179790838	 1.6417427047	 0.116605
H	-0.1766949592	-3.0813113383	 2.6384681606	 0.095153
H	-0.6309937668	-4.0795438663	 1.2629894091	 0.137285
H	 0.0898034991	-0.8937727894	 2.9843428982	 0.302671
71.6176	80.6526	109.7637	146.5384	187.5656	205.0267	230.6239	271.8588	282.041	309.8408	339.4461	555.0888	569.9373	577.1933	607.6908	631.7331	681.2701	742.0938	806.2131	872.9064	1017.1381	1058.5564	1078.1186	1114.3571	1148.7566	1168.9068	1218.8877	1246.664	1297.2164	1387.7323	1420.5687	1437.9017	1458.6095	1475.7852	1492.2301	1505.389	1511.1251	1571.4458	1599.8397	1641.7814	1665.2919	2996.0235	3017.1626	3041.7401	3072.3463	3085.4828	3146.2548	3262.4386	3510.6916	3600.5683	3841.2176
CN1C=C(N)C(C)=C1O	Cn1cc(N)c(C)c1O	
InChI=1S/C6H10N2O/c1-4-5(7)3-8(2)6(4)9/h3,9H,7H2,1-2H3	InChI=1S/C6H10N2O/c1-4-5(7)3-8(2)6(4)9/h3,9H,7H2,1-2H3
