16
gdb 14064	3.49497	1.6415	1.50204	1.7347	60.77	-0.2168	0.0381	0.2549	897.7634	0.129195	-420.817636	-420.809733	-420.808789	-420.849951	29.129	
O	 0.0291172274	 1.4171852243	 0.227941968	-0.425981
C	 0.0552379933	 0.0199155587	 0.0701836158	-0.065552
C	-0.5310807684	-0.8064628045	 1.2116413799	 0.000436
O	-0.9856764154	-0.1265631153	 2.3437004248	-0.42972
C	-1.2812000582	-0.6375120409	-0.0798700247	 0.388935
C	-2.6405436247	 0.0116582861	-0.2795816346	-0.34922
C	-2.85957802	-1.1561973915	-1.2692136282	-0.076582
O	-1.529626808	-1.6805476517	-1.0184231796	-0.310922
H	 0.8639107361	 1.6850340691	 0.6290145368	 0.298184
H	 0.8875942882	-0.3877696117	-0.5012620128	 0.104141
H	-0.0827925641	-1.7688067062	 1.442728727	 0.110881
H	-0.8938754012	 0.8150654842	 2.1422734442	 0.285586
H	-3.2772751948	 0.0138747689	 0.6064600786	 0.125346
H	-2.6200429449	 1.0079794813	-0.7230376478	 0.124863
H	-3.6347701785	-1.8775795574	-0.9891565319	 0.110381
H	-2.9875772767	-0.8739278532	-2.3196223557	 0.109222
85.2589	143.8097	166.5784	235.579	274.5992	286.7452	443.6519	477.7344	490.3812	629.4265	649.4673	797.3101	814.8559	881.9901	890.8892	956.2027	968.04	1012.4575	1057.0229	1092.1127	1130.9265	1151.2538	1162.8882	1172.171	1210.1925	1233.7969	1250.3252	1298.0866	1335.2733	1357.0948	1401.8682	1485.8821	1493.6804	1530.8436	3032.3233	3077.6383	3083.9085	3119.5819	3139.2734	3153.4365	3742.3602	3793.3173
OC1C(O)C11CCO1	O[C@H]1[C@@H](O)[C@]21CCO2	
InChI=1S/C5H8O3/c6-3-4(7)5(3)1-2-8-5/h3-4,6-7H,1-2H2	InChI=1S/C5H8O3/c6-3-4(7)5(3)1-2-8-5/h3-4,6-7H,1-2H2/t3-,4+,5+
