19
gdb 38978	2.99383	1.73366	1.27478	1.7099	75.17	-0.2505	0.0949	0.3455	1007.1013	0.161803	-422.994897	-422.98787	-422.986926	-423.026132	28.685	
C	 0.0459616018	 1.4642476339	 0.0959241855	-0.354653
C	 1.3590956156	 0.7390569776	-0.0576945156	-0.095492
C	 1.7417118936	 0.0744063586	 1.2717630065	-0.251404
C	 0.4133004867	-0.7330356764	 1.2253664644	 0.056706
O	 0.6942532225	-2.1065339969	 0.9895222155	-0.253728
C	-0.2543757627	-2.7002368112	 0.1382317647	 0.013884
O	-0.2495338406	-2.1504136628	-1.1515944523	-0.229333
C	-0.698888434	-0.7961003641	-1.1356441574	-0.212628
C	 0.0314161627	-0.0217968617	-0.0812445052	 0.342607
H	-0.2310348679	 1.914916326	 1.0475050183	 0.106155
H	-0.2753573644	 2.0347849149	-0.7712010617	 0.114229
H	 2.033988407	 0.9556472338	-0.8771050615	 0.090327
H	 2.5870619254	-0.6107118621	 1.1978300387	 0.123211
H	 1.8847846353	 0.7460132916	 2.1239519899	 0.09565
H	-0.2821476079	-0.6316190316	 2.0724083313	 0.060789
H	 0.0288737349	-3.7497549868	 0.0389271083	 0.117703
H	-1.2671497613	-2.6194512162	 0.5789302012	 0.071347
H	-0.5313403551	-0.3923141701	-2.1388282297	 0.112635
H	-1.7852900617	-0.7761006565	-0.937867991	 0.091995
147.1934	162.8772	302.2232	367.5287	391.054	425.3457	470.0489	485.5684	612.6068	681.2658	777.9006	818.1325	870.0986	901.8137	925.2093	953.721	962.6547	998.9221	1016.3089	1025.2678	1041.497	1061.7526	1090.5485	1094.4659	1133.1937	1178.263	1205.3296	1235.0597	1249.9698	1264.0457	1284.2188	1311.6512	1324.3743	1352.7254	1372.9262	1422.5833	1442.6175	1471.8345	1489.541	1502.3527	1508.2008	2914.4701	2949.9582	2982.6101	3054.6412	3078.2879	3096.04	3114.9196	3132.1171	3178.8405	3188.4487
C1C2CC3OCOCC123	C1[C@H]2C[C@@H]3OCOC[C@]123	
InChI=1S/C7H10O2/c1-5-2-7(5)3-8-4-9-6(1)7/h5-6H,1-4H2	InChI=1S/C7H10O2/c1-5-2-7(5)3-8-4-9-6(1)7/h5-6H,1-4H2/t5-,6+,7-/m1/s1
