15
gdb 132092	3.01516	1.42002	0.97122	2.2179	76.4	-0.2005	-0.0613	0.1391	1131.4602	0.113072	-458.130091	-458.122222	-458.121278	-458.162651	29.491	
C	 0.0726784932	 1.5259874641	 0.0531002882	-0.503071
C	-0.1085234273	 0.0452827934	-0.0458860559	 0.229215
C	-0.143364282	-0.6632745997	-1.2061745923	 0.236891
F	-0.0102313574	-0.0398368799	-2.3823838406	-0.079969
N	-0.3085214408	-2.0008040891	-1.2656716908	-0.261964
C	-0.4430700613	-2.6612540487	-0.1586279891	-0.080038
C	-0.4295373137	-2.0580840424	 1.1751553763	 0.342218
N	-0.5534367934	-2.6181495158	 2.3242559151	-0.566136
N	-0.2530294448	-0.6756786494	 1.1119260583	-0.381959
H	 0.9694136915	 1.7742956418	 0.6327587304	 0.146895
H	 0.1729969694	 1.9565321295	-0.9426592152	 0.163907
H	-0.7842450073	 1.9943230352	 0.5512366034	 0.146891
H	-0.5757096053	-3.7396404505	-0.2177763731	 0.125916
H	-0.674516037	-3.62306131	 2.215205185	 0.215149
H	-0.2350575737	-0.2011905984	 2.0042007103	 0.266056
105.9297	115.6429	181.2444	274.6157	336.4295	352.8656	453.6801	488.7333	495.4644	555.0584	599.3437	665.3268	710.2993	753.5904	774.8843	805.2062	923.0734	931.1208	1025.9309	1060.7566	1125.3426	1168.1386	1289.59	1305.6052	1368.9745	1408.7231	1420.2516	1471.5344	1485.1845	1497.0813	1576.0865	1673.6212	1698.6531	3030.9124	3081.9941	3151.2562	3160.2254	3506.6354	3603.8618
CC1=C(F)N=CC(=N)N1	C[C@@H]1C(=NC=C([NH])N1)F	
InChI=1S/C5H6FN3/c1-3-5(6)8-2-4(7)9-3/h2H,1H3,(H2,7,9)	InChI=1S/C5H7FN3/c1-3-5(6)8-2-4(7)9-3/h2-3,7,9H,1H3/t3-/m1/s1
