17
gdb 82038	2.73645	1.43111	1.25874	2.2653	69.04	-0.265	-0.0446	0.2203	1044.9179	0.13487	-458.940021	-458.931879	-458.930935	-458.972605	31.496	
O	 0.0623951925	 1.3759175892	 0.1269093673	-0.435545
C	-0.0512291941	-0.0107390279	 0.047776939	 0.06035
C	-1.4368967853	-0.6619647057	 0.0525050921	-0.061101
C	-2.2394945698	-0.1862536051	-1.1167435472	-0.296676
C	-1.192570305	-1.2380703495	-1.3549498672	-0.101075
C	 0.1898229812	-0.5886450221	-1.4264435705	 0.274265
O	 0.3710080051	 0.4113821217	-2.3892403544	-0.480118
C	 1.3412718895	-1.551789873	-1.4556116026	 0.101978
O	 2.2907279802	-1.3879060541	-2.1862384798	-0.281875
H	 0.1722886975	 1.6844437165	-0.7857822813	 0.296415
H	 0.6125641817	-0.4711098504	 0.7894722098	 0.081052
H	-1.8862478903	-1.1494510718	 0.9081762167	 0.093279
H	-3.2600201185	-0.5514451846	-1.1584665092	 0.120506
H	-2.1073971441	 0.8184020958	-1.5033420391	 0.129493
H	-1.4392351813	-2.216693857	-1.7488362366	 0.093984
H	 1.2529503628	 0.2555874632	-2.7686969661	 0.29824
H	 1.2806578679	-2.4081001451	-0.7551286908	 0.106827
101.0151	115.9175	229.0234	261.4178	307.4393	332.1518	399.2893	417.3907	495.6264	557.4866	576.4877	622.1088	747.9463	793.0015	831.7664	839.8429	888.1244	941.4002	992.9036	1009.0719	1020.0585	1055.7199	1082.9166	1083.4296	1097.5	1146.1283	1189.0051	1205.6884	1264.1503	1290.5215	1336.9059	1367.6088	1378.9938	1423.076	1430.9641	1497.7681	1800.2714	2942.9034	3030.9444	3136.7696	3181.5271	3197.4185	3221.0262	3656.3841	3703.9102
OC1C2CC2C1(O)C=O	O[C@H]1[C@H]2C[C@H]2[C@]1(O)C=O	
InChI=1S/C6H8O3/c7-2-6(9)4-1-3(4)5(6)8/h2-5,8-9H,1H2	InChI=1S/C6H8O3/c7-2-6(9)4-1-3(4)5(6)8/h2-5,8-9H,1H2/t3-,4+,5-,6+/m0/s1
