18
gdb 57114	2.90623	1.2029	0.92695	4.6474	72.13	-0.2618	0.0129	0.2747	1252.4278	0.148008	-439.09685	-439.087967	-439.087023	-439.131227	32.076	
O	-0.1977650597	 1.3999214839	 0.0758115805	-0.409735
C	-0.0228294815	-0.0020966568	 0.1570781636	-0.036627
C	 0.3926718838	-0.5630934528	-1.1427857641	 0.270249
N	 0.7412476265	-0.9429130517	-2.1767230431	-0.318882
C	 0.9708242862	-0.4026747227	 1.2745080213	 0.111023
C	 0.4648096624	 0.005421345	 2.6706282045	-0.259283
C	-0.15679007	-1.2988961085	 3.1973824549	-0.226712
C	 0.7471736845	-2.3495449674	 2.5510468507	-0.061417
O	 1.1020689792	-1.817896198	 1.2722051248	-0.265515
H	 0.6153663797	 1.7883391601	-0.2678357345	 0.298261
H	-1.0070126266	-0.4134383865	 0.406243634	 0.137535
H	 1.9430287445	 0.05477938	 1.0414160037	 0.081505
H	 1.3080338231	 0.3080876005	 3.2983339188	 0.110276
H	-0.2315341067	 0.8444855621	 2.6199574831	 0.129141
H	-0.1683543249	-1.3586481449	 4.2878775731	 0.111045
H	-1.1867635367	-1.412523599	 2.843249173	 0.112895
H	 1.6540979687	-2.5141714372	 3.151982965	 0.099131
H	 0.2623789277	-3.316433436	 2.3905130808	 0.117112
61.6755	68.4797	128.062	213.6768	240.6971	265.7074	310.9417	360.3098	423.0604	525.9155	601.3946	608.1973	720.2607	845.3383	881.9347	908.1538	929.4436	948.9442	961.4145	1012.1551	1064.6733	1078.61	1114.6906	1141.2404	1190.9786	1203.9801	1242.9872	1266.9107	1288.7968	1313.975	1327.4925	1344.2852	1385.6781	1393.8589	1415.9028	1489.4991	1500.3118	1527.3708	2358.0013	2992.5822	2999.4351	3052.3877	3064.8447	3067.2717	3089.3676	3112.3067	3124.766	3800.0239
OC(C#N)C1CCCO1	O[C@@H](C#N)[C@H]1CCCO1	
InChI=1S/C6H9NO2/c7-4-5(8)6-2-1-3-9-6/h5-6,8H,1-3H2	InChI=1S/C6H9NO2/c7-4-5(8)6-2-1-3-9-6/h5-6,8H,1-3H2/t5-,6+/m0/s1
