19
gdb 68635	2.66836	1.44232	1.17314	2.7485	75.89	-0.239	-0.0243	0.2147	1110.6327	0.15885	-423.024472	-423.016262	-423.015318	-423.057214	31.631	
C	 0.0454885592	 1.5215472781	 0.0978338458	-0.496223
C	-0.0079575782	 0.0216384288	 0.0168076698	 0.391899
C	 0.807133111	-0.706695419	-1.0801201449	-0.251542
C	 0.5901977253	-2.1663113703	-0.5788001413	-0.226643
C	-0.2829130971	-1.8164506208	 0.6416590866	 0.057452
O	 0.4296216904	-0.6878090965	 1.2271341107	-0.329288
C	-1.3307304712	-0.8215473791	 0.0664450294	-0.128962
C	-2.3297753951	-0.3469413073	 1.0803323546	 0.144212
O	-3.5050678291	-0.2019012952	 0.8467301972	-0.268462
H	 1.0816318899	 1.8527434812	 0.2218873192	 0.134505
H	-0.3453280572	 1.9634564237	-0.8241904335	 0.13188
H	-0.5393851159	 1.9020867589	 0.9388064856	 0.134814
H	 0.4185918954	-0.5242295619	-2.0852652156	 0.105706
H	 1.8545021746	-0.3973980058	-1.0477264179	 0.111084
H	 0.0791836497	-2.8097284294	-1.2992975197	 0.107074
H	 1.5181715307	-2.6516791081	-0.2699565572	 0.114529
H	-0.543203799	-2.5967352416	 1.356823008	 0.089286
H	-1.8280981036	-1.0630455293	-0.875923746	 0.084294
H	-1.9082160798	-0.1375187962	 2.0857234792	 0.094385
80.7439	168.2618	192.9793	241.5446	256.5867	327.7959	361.951	401.6875	497.2633	578.3438	620.0053	701.0305	785.7099	828.4946	873.6882	879.9585	920.941	937.8045	957.5533	1000.7968	1009.2522	1054.0929	1068.8278	1113.1607	1152.1023	1175.1483	1186.3934	1213.3222	1240.9192	1257.8547	1290.0799	1294.9704	1318.6858	1352.2519	1415.8285	1420.9748	1475.2306	1481.6078	1492.3159	1497.7448	1817.9807	2915.6638	3041.8275	3064.7818	3073.3693	3091.6982	3109.219	3112.2254	3123.3235	3125.1253	3127.9811
CC12CCC(O1)C2C=O	C[C@@]12CC[C@@H](O1)[C@H]2C=O	
InChI=1S/C7H10O2/c1-7-3-2-6(9-7)5(7)4-8/h4-6H,2-3H2,1H3	InChI=1S/C7H10O2/c1-7-3-2-6(9-7)5(7)4-8/h4-6H,2-3H2,1H3/t5-,6-,7+/m1/s1
