18
gdb 80053	2.51402	1.96094	1.4827	1.5563	74.91	-0.218	-0.0079	0.21	946.8904	0.148691	-401.912538	-401.905006	-401.904062	-401.944053	30.316	
C	-0.1088356317	 1.5122919364	-0.0241372313	-0.503868
C	 0.034316251	 0.0208737878	 0.054249816	 0.272225
C	 0.6767038858	-0.7857714074	-1.0503642838	-0.115375
C	 1.3638054941	-2.0731728307	-0.7456633498	-0.098331
C	 0.5505001627	-2.8141277385	 0.0115586898	-0.092161
C	-0.6581868698	-1.9778133353	 0.3367294227	-0.112115
C	-0.2215077192	-0.8100817978	 1.3033952487	 0.094044
O	 0.7659227805	-0.9849417086	 2.2791457892	-0.435685
N	-0.7758844208	-0.9455748089	-0.7892054744	-0.168823
H	 0.7187441847	 2.0042477348	 0.4990273553	 0.129949
H	-0.1064948421	 1.8558573662	-1.0628588069	 0.126515
H	-1.0446881485	 1.8423772645	 0.4396256294	 0.126435
H	 0.9266453031	-0.2348789817	-1.9527563326	 0.09221
H	 2.3535585888	-2.327254927	-1.1024130015	 0.109001
H	 0.7561025776	-3.7853056692	 0.4426520482	 0.113156
H	-1.5840776113	-2.5025669604	 0.5663071474	 0.078291
H	-1.1022655098	-0.4210715069	 1.8198758205	 0.105386
H	 1.5317181348	-1.3738699773	 1.8397711333	 0.279147
152.8077	177.8088	228.062	257.5172	312.8068	405.5743	469.4417	503.238	590.7389	626.0583	723.4123	734.2487	768.1172	806.5537	829.3816	847.2819	873.6202	940.0555	960.7498	981.0076	1007.7945	1056.1792	1075.7711	1088.452	1111.7623	1140.6061	1160.7215	1223.4752	1255.9474	1277.1053	1301.3637	1314.2067	1355.4093	1399.3764	1417.3807	1443.0823	1482.8104	1491.6313	1649.0764	3030.3525	3089.898	3095.2411	3108.1935	3125.6865	3151.7916	3208.2427	3232.6526	3784.9305
CC12C3C=CC(C1O)N23	C[C@@]12[C@H]3C=C[C@@H]([C@H]1O)N23	
InChI=1S/C7H9NO/c1-7-5-3-2-4(6(7)9)8(5)7/h2-6,9H,1H3	InChI=1S/C7H9NO/c1-7-5-3-2-4(6(7)9)8(5)7/h2-6,9H,1H3/t4-,5+,6+,7+,8?/m0/s1
