21
gdb 78487	3.01969	1.29005	1.26601	1.6292	80.68	-0.2335	0.0747	0.3082	1124.0427	0.184556	-387.060332	-387.052346	-387.051402	-387.092717	31.952	
O	 0.3019682549	 1.2388450038	-0.1748419363	-0.445243
C	 0.1187997698	-0.1463718431	-0.0546670521	 0.155311
C	-0.3876704075	-0.6614562436	 1.2612928062	-0.136386
C	-1.293953307	-0.6509129475	 0.0014411192	-0.136381
C	-1.4092488284	-2.1853251271	 0.0615079628	-0.020171
C	-0.7338139741	-3.076843352	-0.9970380915	-0.224418
C	 0.7280358463	-3.2859162429	-0.5192119811	-0.214296
C	 0.7178296479	-3.0937274936	 1.0209159087	-0.224419
C	-0.4934525701	-2.1959798453	 1.3345760464	-0.020172
H	-0.3899437031	 1.6835852144	 0.3267277669	 0.280963
H	 0.8983678279	-0.6429089793	-0.6196087596	 0.096818
H	-0.4000993836	-0.000737878	 2.1226851026	 0.07765
H	-2.1093041956	 0.0191522956	-0.2533412773	 0.077652
H	-2.4392496411	-2.4893395305	 0.2597726184	 0.06992
H	-1.2513148959	-4.0421788783	-1.0357820536	 0.095299
H	-0.7820148397	-2.650321876	-2.0037344658	 0.100735
H	 1.1072850808	-4.2731281293	-0.8002898806	 0.09122
H	 1.3961030403	-2.56155022	-0.9937347215	 0.109964
H	 0.5823409698	-4.0635064768	 1.5132088603	 0.095299
H	 1.6602894087	-2.6787254419	 1.3913540917	 0.100735
H	-1.0113742705	-2.5059550387	 2.2446900462	 0.06992
99.9504	163.7384	190.0389	205.7618	291.4232	342.4142	423.8555	512.318	604.1602	637.7402	718.0514	774.6162	791.1905	823.8005	843.8197	885.5057	894.9722	917.5737	952.1683	978.0833	991.2446	1023.5335	1069.8314	1071.0732	1087.8156	1100.5556	1120.9217	1121.4987	1145.3792	1174.5998	1191.4556	1257.6324	1259.891	1267.2605	1278.2537	1311.5142	1321.7593	1330.1591	1350.1875	1356.2748	1364.4891	1450.226	1483.1196	1487.6115	1513.0998	3034.5751	3034.7633	3052.5049	3071.4368	3073.7298	3083.5052	3085.6898	3098.3243	3147.9137	3159.307	3182.7287	3805.5164
OC1C2C1C1CCCC21	O[C@H]1[C@H]2[C@@H]1[C@H]1CCC[C@@H]21	
InChI=1S/C8H12O/c9-8-6-4-2-1-3-5(4)7(6)8/h4-9H,1-3H2	InChI=1S/C8H12O/c9-8-6-4-2-1-3-5(4)7(6)8/h4-9H,1-3H2/t4-,5+,6-,7+,8+
