21
gdb 114226	4.56149	0.90503	0.82974	1.3609	86.25	-0.218	0.0283	0.2463	1440.06	0.182908	-387.084092	-387.075207	-387.074263	-387.118054	34.137	
O	 0.0383307076	 1.4171296077	 0.1000708729	-0.423759
C	 0.0365455188	-0.0005539956	 0.0120133237	-0.083858
C	-1.4158060382	-0.4714571604	 0.0235027581	-0.023749
C	-1.552919762	-2.0135273803	-0.1185902924	-0.339553
C	-2.6439778097	-2.4204720701	 0.8841091516	 0.357053
C	-3.8405745468	-3.2616205291	 0.4807377185	-0.30972
C	-2.7835145435	-3.8376290101	 1.3865120525	-0.31597
C	-2.8087453881	-1.2392284756	 1.7717107323	-0.143604
C	-2.1447364808	-0.1768603906	 1.3174495758	-0.083451
H	 0.9507877964	 1.7159490894	 0.1488715093	 0.286207
H	 0.5283708299	-0.3427588927	-0.9135766867	 0.082535
H	 0.5726700597	-0.4554205288	 0.860801893	 0.083848
H	-1.9184488909	 0.0458861947	-0.806399124	 0.086297
H	-1.7835042032	-2.3206809523	-1.1422882183	 0.099295
H	-0.6040046985	-2.4921448234	 0.1557688502	 0.097981
H	-4.8069379868	-3.0154743721	 0.908651293	 0.110558
H	-3.8840556709	-3.6141383719	-0.5449049115	 0.110264
H	-2.1106154638	-4.5842378655	 0.9759303231	 0.108436
H	-3.0291882307	-3.9897021892	 2.4328025841	 0.109402
H	-3.4261449022	-1.2679924061	 2.663858141	 0.089054
H	-2.1244812164	 0.8055952721	 1.7724826141	 0.102735
41.846	118.6794	184.5729	214.5929	256.888	290.0895	300.279	386.5617	403.2103	546.7136	575.9952	695.0294	777.1434	782.4061	813.0716	844.7042	859.511	922.9333	933.2063	942.8681	970.288	990.8001	1025.5564	1056.5566	1072.4825	1072.9855	1086.5642	1102.8804	1131.6421	1190.3416	1194.7369	1240.7337	1241.7428	1283.7957	1294.8742	1311.9249	1322.9253	1354.6886	1408.1034	1452.4829	1465.684	1487.8051	1499.2967	1519.7186	1677.1025	2957.1146	2984.4058	3005.891	3021.9513	3085.1714	3119.6764	3124.3571	3178.9222	3198.4273	3214.6733	3218.8709	3831.7935
OCC1CC2(CC2)C=C1	OC[C@H]1CC2(CC2)C=C1	
InChI=1S/C8H12O/c9-6-7-1-2-8(5-7)3-4-8/h1-2,7,9H,3-6H2	InChI=1S/C8H12O/c9-6-7-1-2-8(5-7)3-4-8/h1-2,7,9H,3-6H2/t7-/m1/s1
