12
gdb 129786	3.67606	1.67782	1.15293	3.3078	63.75	-0.2166	-0.026	0.1906	943.9774	0.080016	-468.790559	-468.784146	-468.783202	-468.821224	24.896	
N	 0.0518448399	 1.3846025796	 0.1823572389	-0.594487
C	-0.0850575854	 0.0338698261	 0.0667054075	 0.373153
C	-1.1442954835	-0.8358937585	 0.0420460578	 0.073574
N	-2.5286846427	-1.0112029466	 0.0489097558	-0.34408
C	-2.6532167339	-2.2899321461	-0.0055932332	 0.043542
O	-1.4808668622	-3.0469491349	-0.0510658053	-0.215358
C	-0.5195919814	-2.0901733369	-0.0200645004	 0.467848
N	 0.7848709512	-2.1077043155	-0.0385938359	-0.296156
O	 1.0543726993	-0.6887080202	 0.0190195387	-0.224354
H	 0.9384398088	 1.7584582388	-0.1222262575	 0.275952
H	-0.7501159223	 1.9284119753	-0.0957705123	 0.279828
H	-3.564135318	-2.8680336909	-0.0212326143	 0.160537
193.7837	256.8257	279.4458	331.3792	406.5277	507.6672	571.7408	627.7743	631.7384	655.1986	703.6252	779.4062	797.8145	845.2741	884.9793	909.5357	1020.3864	1048.0047	1133.0667	1273.3029	1313.089	1395.1294	1447.1602	1569.4451	1614.1422	1647.3726	1725.7029	3278.3742	3581.751	3693.4022
NC1=C2N=COC2=NO1	Nc1c2ncoc2no1	
InChI=1S/C4H3N3O2/c5-3-2-4(7-9-3)8-1-6-2/h1H,5H2	InChI=1S/C4H3N3O2/c5-3-2-4(7-9-3)8-1-6-2/h1H,5H2
