24
gdb 5890	4.02094	0.86305	0.84686	1.3507	82.29	-0.2598	0.0663	0.3261	1539.3206	0.220478	-351.424364	-351.413561	-351.412617	-351.459929	39.69	
C	-0.1786117301	 1.567903436	-0.0395422628	-0.379978
C	-0.0555068292	 0.042630879	 0.0088278996	-0.164544
C	 0.7717307121	-0.4564664211	 1.1988421717	-0.172018
C	 0.892387138	-1.9838350307	 1.2368145735	-0.174734
C	 1.5745667183	-2.5664281983	 2.4883864476	 0.338498
C	 1.5530686097	-4.1009885219	 2.4232365002	-0.41072
C	 3.0161056991	-2.0618041851	 2.6559232367	-0.414384
O	 0.7745819954	-2.1258568789	 3.5951232814	-0.45953
H	 0.805509073	 2.0428499989	-0.1236227635	 0.110672
H	-0.7792972925	 1.8952199592	-0.8941809753	 0.108021
H	-0.6532245323	 1.9544559095	 0.8692551735	 0.114148
H	-1.0578597087	-0.4039465269	 0.0526896469	 0.094003
H	 0.3942641008	-0.3181637363	-0.9262883403	 0.089057
H	 1.7686489171	 0.001115685	 1.1528302722	 0.086847
H	 0.3168597964	-0.1146339691	 2.1350686494	 0.113805
H	-0.1135034798	-2.4194894034	 1.1832744998	 0.095945
H	 1.4334728501	-2.338640482	 0.3503132003	 0.086204
H	 2.1169959173	-4.4740502457	 1.5618982792	 0.111435
H	 2.0017390974	-4.5331611664	 3.3257594276	 0.09778
H	 0.5235806797	-4.4625855981	 2.3484098628	 0.119657
H	 3.0383069722	-0.9780778865	 2.7907653961	 0.125151
H	 3.4814892851	-2.5215807738	 3.5361796449	 0.098978
H	 3.6319906068	-2.3178387012	 1.787402599	 0.112638
H	 1.183423874	-2.4548708223	 4.4024614897	 0.273069
64.0256	76.8931	125.1604	146.8663	229.774	247.1298	257.3983	278.9079	282.812	300.3065	343.3868	389.3823	432.0662	480.8618	528.7865	737.6977	765.4195	792.4231	903.026	910.983	915.5938	930.4128	967.3954	1006.1561	1035.2848	1070.7709	1083.7443	1110.6768	1162.5599	1203.5159	1219.438	1262.3777	1293.1534	1325.8275	1338.0998	1362.2424	1386.2624	1395.5278	1402.3061	1412.4192	1417.1458	1470.5671	1482.4974	1486.3872	1488.321	1499.6658	1500.2658	1501.4858	1510.3719	1514.1053	3008.924	3016.0948	3022.8377	3024.8612	3028.3164	3030.8341	3038.726	3053.727	3081.2321	3086.8533	3094.1998	3095.6116	3099.2764	3114.5792	3126.0217	3808.4968
CCCCC(C)(C)O	CCCCC(C)(C)O	
InChI=1S/C7H16O/c1-4-5-6-7(2,3)8/h8H,4-6H2,1-3H3	InChI=1S/C7H16O/c1-4-5-6-7(2,3)8/h8H,4-6H2,1-3H3
