20
gdb 22367	3.16009	1.11594	0.87648	1.2089	78.38	-0.2496	-0.0016	0.248	1341.9085	0.170391	-440.263978	-440.25481	-440.253866	-440.297621	35.27	
C	-0.0605474959	 1.5251814314	 0.011413659	-0.40473
C	 0.0867726812	 0.0062326993	 0.0017451323	 0.024431
C	 0.9623254371	-0.5441540092	-1.1422654327	-0.238373
C	 1.300749222	-1.9814636783	-0.7256044271	 0.063716
O	 2.5580228055	-2.3714213611	-1.2391953371	-0.442745
C	 1.2484266367	-1.930422207	 0.8018991115	 0.371183
C	 0.7638947761	-0.5782037971	 1.2629403395	-0.299125
N	 1.5375778937	-2.8661552945	 1.6130692163	-0.234013
O	 1.9437908084	-4.0325891331	 0.9079263874	-0.412448
H	 0.9181132245	 2.0116196213	 0.0977228647	 0.116236
H	-0.5306426465	 1.8835173503	-0.9102804437	 0.116539
H	-0.6768629919	 1.8611860286	 0.8519122579	 0.114937
H	-0.9125976434	-0.4431997572	-0.083747408	 0.079208
H	 0.481392055	-0.4861448175	-2.1217242877	 0.101977
H	 1.9033774746	 0.0169976337	-1.1973255011	 0.112078
H	 0.5101092776	-2.6735928524	-1.0628719532	 0.085925
H	 2.7633955848	-3.2186772719	-0.8242544131	 0.294308
H	 1.6275308237	 0.0459854179	 1.5337778003	 0.121364
H	 0.1158872026	-0.6334461379	 2.1407834738	 0.119507
H	 2.1642169943	-4.6373993154	 1.623365081	 0.310026
79.981	116.728	214.2534	235.3243	261.3495	287.8336	310.8348	397.8954	411.1259	427.1188	468.1699	484.6547	515.3619	615.1065	684.14	778.2828	848.4211	898.4064	925.8963	939.0246	950.1642	993.2421	1057.0636	1090.6302	1114.2602	1153.0604	1160.7034	1217.2713	1241.3149	1272.2614	1282.9525	1297.0683	1343.6225	1351.8684	1384.9242	1387.1334	1411.4987	1428.5311	1467.7739	1493.3466	1497.3511	1499.7854	1751.6225	2951.9269	3001.4641	3014.7492	3026.8758	3042.1713	3093.2099	3099.3554	3100.7634	3104.6894	3778.5935	3831.6657
CC1CC(O)C(C1)=NO	C[C@H]1C[C@@H](O)C(=NO)C1	
InChI=1S/C6H11NO2/c1-4-2-5(7-9)6(8)3-4/h4,6,8-9H,2-3H2,1H3	InChI=1S/C6H11NO2/c1-4-2-5(7-9)6(8)3-4/h4,6,8-9H,2-3H2,1H3/t4-,6-/m1/s1
