16
gdb 83476	3.42247	1.23171	1.05849	2.8541	65.39	-0.2373	0.0118	0.2491	1120.5554	0.123703	-474.985781	-474.977525	-474.976581	-475.019142	30.426	
O	 0.6635889648	 1.0371039009	 0.6114017469	-0.435663
C	 0.1266982401	-0.1893171497	 0.2445604358	 0.052805
C	-0.9421363799	-0.8522931079	 1.0474104632	 0.000551
O	-1.7423495717	 0.1665183015	 1.6531605578	-0.300304
C	-2.2113877995	 0.6213387909	 0.3459993234	-0.142945
C	-1.2604708567	-0.3416599684	-0.361218101	 0.277683
N	-1.4975692954	-1.0145490203	-1.5806252102	-0.406845
C	-2.5455634452	-1.8727453979	-1.7737516184	 0.13698
O	-3.3629154933	-2.1651823366	-0.9310172234	-0.310846
H	 0.1666129707	 1.3198341423	 1.392194997	 0.299909
H	 0.8643722886	-0.8574914203	-0.1932798555	 0.113051
H	-0.9283123739	-1.835350504	 1.5019694752	 0.121354
H	-3.2621138204	 0.355523287	 0.2135687207	 0.146634
H	-2.0498786774	 1.6941531576	 0.1954644016	 0.111537
H	-0.901620202	-0.8095104955	-2.3686530154	 0.254189
H	-2.5573582888	-2.2783387896	-2.8049456377	 0.08191
50.6921	121.9122	214.3303	216.3953	251.5646	298.3586	373.8727	456.3228	508.5259	540.2605	592.9352	660.3875	786.16	803.4748	897.3519	918.82	941.2908	983.8036	1020.9681	1031.3818	1057.2405	1088.9335	1132.1352	1140.9443	1171.0105	1221.8146	1274.4113	1310.2978	1317.2872	1393.3181	1429.3944	1466.3953	1498.5167	1514.1537	1810.2498	2939.0495	3046.1268	3121.958	3151.1613	3194.6816	3608.4371	3743.1639
OC1C2OCC12NC=O	O[C@H]1[C@H]2OC[C@@]12NC=O	
InChI=1S/C5H7NO3/c7-2-6-5-1-9-4(5)3(5)8/h2-4,8H,1H2,(H,6,7)	InChI=1S/C5H7NO3/c7-2-6-5-1-9-4(5)3(5)8/h2-4,8H,1H2,(H,6,7)/t3-,4+,5+/m0/s1
