16
gdb 65372	4.3131	0.99547	0.92804	3.399	70.68	-0.2816	0.0144	0.296	1249.4048	0.122669	-437.849197	-437.840546	-437.839602	-437.882782	31.557	
O	-0.1388308211	 1.3580517544	 0.1358804553	-0.434969
C	-0.0393932821	-0.0269110818	 0.0371772167	 0.241759
C	-0.6380919932	-0.9079981342	 1.1215798072	-0.349166
C	-1.340189918	-0.7706145291	-0.2010798548	-0.0987
C	-2.6161520914	 0.0142158354	-0.2889161297	 0.061446
C	-3.8252799213	-0.4363920043	 0.4160101157	-0.172795
O	-3.0650057198	 0.6773068034	 0.8880120976	-0.220545
C	 1.1510128578	-0.5026824261	-0.6396274616	 0.245022
N	 2.1104806243	-0.8742219381	-1.1682217673	-0.341957
H	 0.4543012117	 1.662555241	 0.8321521464	 0.300338
H	-0.1379770559	-1.8373757854	 1.3654761668	 0.137724
H	-1.0850964576	-0.3657580908	 1.9473987194	 0.151378
H	-1.2793845723	-1.6052604793	-0.8931451253	 0.125486
H	-2.7410912229	 0.5961508684	-1.2016202891	 0.113456
H	-4.8075039057	-0.1959118503	 0.0134693833	 0.123194
H	-3.7768367925	-1.3294972131	 1.0370344695	 0.118329
79.3396	115.1125	132.3486	185.9656	259.2949	284.1778	332.2076	390.7624	431.8256	580.5555	593.2809	614.9705	705.0105	773.1215	853.5332	896.3826	902.2374	937.782	995.615	1012.2714	1074.958	1082.8437	1111.1741	1143.3506	1163.9668	1167.9776	1231.4026	1254.9347	1294.1035	1347.9271	1396.1453	1427.3792	1467.5168	1526.0383	2347.5454	3088.968	3117.6361	3143.4279	3160.449	3179.1236	3243.9829	3798.9276
OC1(CC1C1CO1)C#N	O[C@]1(C[C@H]1[C@H]1CO1)C#N	
InChI=1S/C6H7NO2/c7-3-6(8)1-4(6)5-2-9-5/h4-5,8H,1-2H2	InChI=1S/C6H7NO2/c7-3-6(8)1-4(6)5-2-9-5/h4-5,8H,1-2H2/t4-,5+,6+/m0/s1
