21
gdb 61919	3.33127	0.77891	0.69558	5.2015	84.47	-0.2413	0.0446	0.2858	1653.6722	0.181681	-383.258596	-383.248656	-383.247712	-383.294521	35.872	
C	 0.1842992699	 1.6192304705	 0.0001394728	-0.4265
C	 0.1005992517	 0.0876833482	-0.0890417358	 0.056228
C	 0.8076932575	-0.5535927231	 1.1161352691	-0.177872
C	 0.915243477	-2.0845128485	 0.9841124618	-0.338235
C	 1.5212917476	-2.7078747545	 2.1568820968	 0.253307
N	 2.002179036	-3.1856424536	 3.0931463389	-0.312537
N	-1.238975648	-0.5101163772	-0.1985335442	-0.07488
C	-2.4208908979	 0.1698564864	 0.3179466304	-0.223794
C	-2.2095717266	 0.0038405466	-1.1487616734	-0.226386
H	 1.2299042344	 1.9336199679	-0.0697388175	 0.124811
H	-0.3572935318	 2.1123022868	-0.8124361761	 0.121294
H	-0.2075884828	 1.9928236728	 0.9515227258	 0.125448
H	 0.6273960224	-0.2259242956	-1.001267826	 0.085897
H	 1.8078739487	-0.1220290255	 1.225599962	 0.114219
H	 0.2544348239	-0.3073184645	 2.0298148543	 0.120268
H	-0.0835880095	-2.5008947853	 0.8240716784	 0.169275
H	 1.5122586512	-2.3485442227	 0.1029781513	 0.143367
H	-3.1283704349	-0.4599954847	 0.8502224814	 0.120011
H	-2.3241841102	 1.1762000299	 0.7174360963	 0.114674
H	-1.9690124074	 0.9006032732	-1.7164396957	 0.111986
H	-2.760999741	-0.7472166871	-1.7084480408	 0.119418
44.6006	62.4032	111.4952	124.3913	213.558	236.8732	288.1098	292.1449	364.4071	399.0492	470.3818	512.5792	568.1886	690.8623	782.8006	819.1577	886.7095	909.8682	936.7542	953.0899	979.4417	1030.308	1033.4052	1084.8458	1111.7954	1121.2708	1123.359	1148.7351	1166.4966	1181.2279	1215.9591	1271.6671	1309.6659	1332.9347	1346.5675	1375.9538	1387.4879	1408.0935	1470.3763	1483.1474	1488.1099	1495.6485	1508.4137	1523.9812	2360.0987	3007.2396	3037.9718	3041.4074	3049.4439	3082.9443	3097.1972	3103.4574	3108.4388	3111.1458	3112.7729	3175.8786	3194.3797
CC(CCC#N)N1CC1	C[C@@H](CCC#N)N1CC1	
InChI=1S/C7H12N2/c1-7(3-2-4-8)9-5-6-9/h7H,2-3,5-6H2,1H3	InChI=1S/C7H12N2/c1-7(3-2-4-8)9-5-6-9/h7H,2-3,5-6H2,1H3/t7-/m0/s1
