17
gdb 47988	4.55637	0.77344	0.73621	4.6455	86.78	-0.2592	-0.0557	0.2036	1539.9033	0.135445	-384.638848	-384.630388	-384.629444	-384.673164	30.4	
O	-0.1536197564	 0.0912983562	 0.5178967813	-0.236719
C	-0.0086845135	 1.1684463179	-0.0170681024	 0.014277
C	 1.2158396059	 1.9173352723	-0.0349219056	 0.025272
C	 2.2367895446	 2.5681216919	-0.064063699	 0.129196
C	 3.4443625096	 3.3271654256	-0.0924516122	-0.216561
C	 3.8810357578	 4.1565253755	-1.2959904424	-0.056864
C	 2.6679588422	 4.7444205498	-2.0246516268	-0.233904
C	 2.2493296041	 5.4608785273	-0.6964745349	-0.233871
C	 3.4754518641	 4.8499873548	-0.009526045	-0.056961
H	-0.8473414507	 1.6644335726	-0.5485845384	 0.092895
H	 4.2822303259	 2.8632903645	 0.4214539815	 0.12414
H	 4.8674886118	 3.9971116216	-1.7147046991	 0.10001
H	 2.9539551239	 5.4536386443	-2.8034760942	 0.111427
H	 1.9625562048	 4.0217159636	-2.4426082165	 0.113107
H	 2.3147157365	 6.5475347377	-0.7754492267	 0.111458
H	 1.2784687278	 5.1923196914	-0.2723699252	 0.113086
H	 4.0917704917	 5.3235757531	 0.7452583357	 0.100012
54.528	75.0174	113.4785	167.7993	221.0691	325.8658	354.998	487.8924	550.4439	650.524	743.6753	759.1968	782.3099	784.0148	854.0703	934.6072	941.9582	956.9963	988.9221	1019.2668	1021.5801	1072.3283	1087.0448	1098.0487	1147.2928	1221.1892	1223.6778	1242.8679	1257.5391	1304.9363	1336.7604	1408.5106	1423.0988	1474.8398	1497.0151	1759.7741	2307.7889	2907.5388	3065.1027	3070.7649	3113.1232	3129.8836	3146.0555	3178.7245	3191.1942
O=CC#CC1C2CCC12	O=CC#C[C@H]1[C@H]2CC[C@@H]12	
InChI=1S/C8H8O/c9-5-1-2-6-7-3-4-8(6)7/h5-8H,3-4H2	InChI=1S/C8H8O/c9-5-1-2-6-7-3-4-8(6)7/h5-8H,3-4H2/t6-,7+,8-
