16
gdb 43958	3.54082	1.47111	1.44242	3.3818	68.96	-0.2492	-0.022	0.2272	943.5241	0.125617	-437.77117	-437.764594	-437.763649	-437.802005	26.821	
O	-0.3181704452	 0.0209325901	-0.6552006438	-0.285441
C	-0.1225892926	 1.0840878716	-0.1851939359	 0.365257
O	-1.0950138748	 2.0272340775	 0.2528647125	-0.319192
C	-0.015186607	 2.7294398144	 0.9889100725	 0.363958
C	 0.9402983499	 3.9780705052	 1.0377517636	-0.264566
N	 2.0533119906	 2.8859159012	 1.0363493147	-0.169309
C	 1.7917312072	 2.2466481915	 2.3637505854	-0.159633
C	 0.2441940257	 2.1089514993	 2.3782587453	-0.271977
C	 1.0066493724	 2.1536338719	 0.1095952118	-0.132544
H	 0.9881952909	 4.5741011124	 0.1289798422	 0.137209
H	 0.9461971344	 4.6012085998	 1.9355748016	 0.121178
H	 2.310018377	 1.2873122028	 2.4098898294	 0.12578
H	 2.1880755638	 2.8920890678	 3.1510908799	 0.116928
H	-0.2477502968	 2.6649603587	 3.180029608	 0.11348
H	-0.0936907338	 1.070881876	 2.4251643888	 0.124121
H	 1.0843757684	 2.6818438599	-0.8446236761	 0.134749
131.2245	216.6429	336.9597	392.9049	438.8001	525.5786	563.3913	569.4788	653.7685	714.4366	767.156	797.5604	828.1949	852.2213	907.8936	917.3817	953.4392	964.789	976.1078	1016.0013	1066.9515	1106.4844	1132.8087	1187.7025	1208.1853	1216.5861	1241.8604	1269.8169	1314.0305	1328.421	1379.7638	1498.3373	1498.8318	1520.2145	1948.7066	3065.6167	3069.8031	3072.6272	3078.586	3109.3479	3129.7632	3171.1877
O=C1OC23CN(CC2)C13	O=C1O[C@@]23CN(CC2)[C@@H]13	
InChI=1S/C6H7NO2/c8-5-4-6(9-5)1-2-7(4)3-6/h4H,1-3H2	InChI=1S/C6H7NO2/c8-5-4-6(9-5)1-2-7(4)3-6/h4H,1-3H2/t4-,6+/m0/s1
