21
gdb 78985	2.61339	1.8898	1.44524	0.1495	85.21	-0.2312	0.0915	0.3227	1006.006	0.183054	-349.891002	-349.883274	-349.88233	-349.922551	31.914	
C	-0.3210363803	 1.4777247971	-0.1850273815	-0.422313
C	-0.0494828845	-0.0206432974	-0.1001897629	 0.017367
C	 1.112775331	-0.5548913812	-0.9830326045	-0.116378
C	 1.2660467247	-2.0523659456	-0.6391496631	-0.072105
C	 1.0718930704	-2.0013453028	 0.8838138044	-0.072109
C	 2.4469212134	-1.8521153934	 0.2793959974	-0.172948
C	 2.1557453954	-0.3184245662	 0.1908937123	 0.384556
C	 3.1890796033	 0.7655667647	 0.286321084	-0.541029
C	 0.8499309958	-0.4858092215	 1.0789382003	-0.116375
H	 0.5922488278	 2.0721767601	-0.0887157469	 0.117506
H	-0.782714838	 1.7377853059	-1.1442247549	 0.111674
H	-1.0058911285	 1.7966143496	 0.608774449	 0.111673
H	-0.9913230239	-0.5737151876	-0.2017112883	 0.059594
H	 1.2718981666	-0.2258555803	-2.0109099496	 0.05439
H	 1.0017673002	-2.918590431	-1.2313430194	 0.08055
H	 0.6603719118	-2.8288792867	 1.4465925077	 0.080551
H	 3.3546827305	-2.4258644127	 0.4143416524	 0.080384
H	 3.9394210922	 0.6584887303	-0.506542947	 0.118747
H	 2.7546953247	 1.7660911536	 0.1981497134	 0.123127
H	 3.7167539671	 0.7163494138	 1.2466598484	 0.118746
H	 0.7491530802	-0.0884811488	 2.0899230489	 0.054391
181.0938	198.8804	210.0158	246.0425	282.8652	284.6494	476.1792	536.8237	593.9564	703.9386	740.6684	793.9397	805.1263	809.886	845.8577	854.9412	889.6232	903.4192	915.6472	950.31	981.5375	992.3121	1028.0187	1035.347	1061.1338	1062.1489	1094.7787	1114.1354	1152.6781	1156.8416	1162.8441	1196.6484	1210.9863	1245.7475	1255.3892	1281.8629	1339.7673	1349.4164	1382.5418	1403.8624	1415.8302	1482.1279	1488.6396	1496.3294	1501.3836	3018.7983	3024.6056	3030.7444	3075.5239	3087.0787	3094.898	3101.6966	3104.2464	3111.0291	3187.7086	3191.9462	3206.815
CC1C2C3C4C3C2(C)C14	C[C@H]1[C@@H]2[C@@H]3[C@H]4[C@@H]3[C@]2(C)[C@@H]14	
InChI=1S/C9H12/c1-3-6-4-5-7(3)9(6,2)8(4)5/h3-8H,1-2H3	InChI=1S/C9H12/c1-3-6-4-5-7(3)9(6,2)8(4)5/h3-8H,1-2H3/t3-,4-,5+,6+,7-,8+,9-
