22
gdb 96486	2.47813	1.4382	1.03028	2.2272	83.16	-0.2482	0.0095	0.2577	1231.8361	0.195881	-404.355849	-404.347071	-404.346127	-404.388931	34.09	
C	-0.0427685733	 1.5900212378	 0.0339479764	-0.39669
C	-0.0373682164	 0.0528954693	 0.0361326742	 0.030869
C	 0.4909791292	-0.4563737856	-1.3260094209	-0.173061
C	 0.3422689162	-1.9614722488	-1.635079643	-0.22964
C	 1.5384727429	-2.8265171756	-1.2310452397	-0.076318
O	 1.9742943927	-2.5827277627	 0.1113007121	-0.222204
C	 0.9966892669	-2.7583971972	 1.053534148	 0.086542
N	 0.4059891901	-1.8239945259	 1.653641366	-0.213944
C	 0.7401903502	-0.447797063	 1.2754648442	-0.153296
H	 0.9764522206	 1.9875205901	-0.0433675057	 0.11496
H	-0.6155493403	 1.9831455388	-0.8120430912	 0.110299
H	-0.4849420511	 1.9872122421	 0.9528065938	 0.114819
H	-1.0749706535	-0.2917073044	 0.1453203968	 0.082335
H	-0.0566110883	 0.0964333161	-2.0984781332	 0.094237
H	 1.5432605013	-0.1605108282	-1.4364454696	 0.096792
H	-0.5717002476	-2.3465042643	-1.1676267792	 0.111431
H	 0.2105148372	-2.1034090828	-2.7148886612	 0.097996
H	 1.3021873192	-3.8932382328	-1.3649802517	 0.098839
H	 2.410628877	-2.594308028	-1.8488110987	 0.117525
H	 0.7593487366	-3.8023805287	 1.2775322545	 0.106195
H	 1.8163779406	-0.3272235753	 1.0982212139	 0.106938
H	 0.4701750898	 0.1834948691	 2.1275507041	 0.095376
112.6965	138.4051	200.7416	220.5247	260.1177	293.0825	313.0146	360.9144	398.4384	476.4107	501.4778	581.5388	701.4941	768.0899	846.0877	882.2228	907.9553	911.0918	954.6122	965.877	986.6617	1021.2532	1035.7771	1078.3372	1096.2052	1126.0172	1151.5137	1172.9651	1225.0525	1262.6498	1284.9121	1312.2243	1318.2345	1352.1295	1375.5215	1381.5641	1392.4959	1394.7765	1413.5546	1415.6999	1477.6255	1480.7591	1497.9902	1499.0446	1501.3662	1506.3186	1749.5294	2992.9969	3009.3544	3015.644	3022.898	3028.7622	3030.9448	3056.7866	3062.4828	3072.831	3092.3026	3093.1287	3094.0208	3104.8336
CC1CCCOC=NC1	C[C@H]1CCCOC=NC1	
InChI=1S/C7H13NO/c1-7-3-2-4-9-6-8-5-7/h6-7H,2-5H2,1H3/b8-6-	InChI=1S/C7H13NO/c1-7-3-2-4-9-6-8-5-7/h6-7H,2-5H2,1H3/b8-6-/t7-/m0/s1
