15
gdb 128536	3.10687	1.35475	0.95915	1.0948	64.23	-0.1961	0.0434	0.2395	1154.4759	0.111559	-491.07755	-491.068078	-491.067133	-491.11244	32.778	
C	 0.0602171565	 0.6325018088	 0.63787905	-0.253179
O	-0.1317450966	 0.6721888813	-0.7782762099	-0.272845
C	 0.4430974447	-0.3223997301	-1.477396942	 0.397849
C	 0.7564892938	-1.643614286	-1.2085107082	 0.044898
O	 0.5644210825	-2.3277422795	-0.0363115523	-0.470225
C	 1.293230813	-2.1153002863	-2.4249467291	 0.32926
O	 1.7453670407	-3.3810409811	-2.5946922622	-0.44849
N	 1.3156920574	-1.201309256	-3.3778445044	-0.338043
N	 0.8012126342	-0.0950300614	-2.767737873	-0.292337
H	-0.3606238317	-0.2790037023	 1.0699664547	 0.154775
H	 1.1263611271	 0.6888358741	 0.8858938751	 0.127692
H	-0.4568478582	 1.5074946189	 1.0338445502	 0.134534
H	 1.0133764749	-3.175537073	-0.1223603771	 0.305575
H	 2.0689892011	-3.4512323106	-3.5011682822	 0.305437
H	 0.6421888606	 0.7457062431	-3.2929733596	 0.2751
34.632	128.9395	156.3783	175.6985	198.3195	227.6377	255.6525	307.2705	356.9728	392.3741	456.5122	537.5615	614.1777	657.5093	708.9716	736.6275	812.5966	1013.7333	1078.4817	1127.9282	1180.8985	1215.0767	1219.9128	1292.6715	1316.5658	1337.717	1469.2051	1477.4394	1487.9263	1504.5261	1579.3228	1591.0837	1706.0013	3031.4315	3110.4235	3148.3047	3698.9176	3802.0089	3821.3385
COC1=C(O)C(O)=NN1	COc1c(O)c(O)n[nH]1	
InChI=1S/C4H6N2O3/c1-9-4-2(7)3(8)5-6-4/h7H,1H3,(H2,5,6,8)	InChI=1S/C4H6N2O3/c1-9-4-2(7)3(8)5-6-4/h7H,1H3,(H2,5,6,8)
