20
gdb 103151	2.00231	1.51223	1.19283	4.2665	74.62	-0.2541	0.0119	0.2661	1174.8393	0.169556	-440.315214	-440.305255	-440.304311	-440.349856	36.324	
C	-0.0677349488	 1.640120595	-0.0203779957	-0.395765
C	 0.1507867217	 0.1261530264	 0.0842884859	-0.248527
C	 0.8210979124	-0.4770020622	-1.160875643	 0.060946
N	 2.1228709837	 0.0873057211	-1.5052411736	-0.561155
C	 0.7777183509	-2.0317625463	-1.3083993007	 0.143471
C	 0.1954167265	-2.9289594622	-0.2412051459	-0.418524
O	-0.1419647265	-1.8862899451	-2.458818039	-0.262781
C	-0.0871229893	-0.5281463626	-2.4012896646	 0.467428
O	-0.6021984459	 0.2641036794	-3.1281416337	-0.346245
H	 0.8814833199	 2.1775088666	-0.1080301175	 0.108325
H	-0.6752948921	 1.8854550738	-0.8960525078	 0.150775
H	-0.579540403	 2.0161517778	 0.8698569541	 0.117975
H	 0.7768805346	-0.1067084569	 0.9572704416	 0.09682
H	-0.8132165	-0.3636953493	 0.2591705751	 0.108949
H	 1.9945144985	 0.9763652962	-1.979244885	 0.248656
H	 2.6617690544	 0.2784334223	-0.6646364597	 0.229816
H	 1.7356550835	-2.4059265519	-1.6764236918	 0.104629
H	-0.7917162208	-2.5915738871	 0.0832767909	 0.131224
H	 0.0958912814	-3.948416605	-0.6252200618	 0.137561
H	 0.858630989	-2.96003374	 0.6295473922	 0.126421
84.0857	105.7209	140.9176	185.6858	207.791	230.5704	235.4627	283.5781	309.1777	329.7609	425.8682	490.0171	575.0715	700.4377	735.3448	741.2592	795.7211	843.0696	862.4924	891.713	962.6888	1031.6959	1050.1319	1054.1594	1095.7044	1145.0666	1156.1907	1188.3725	1220.6909	1273.1577	1303.9601	1364.2406	1370.0863	1381.2376	1411.8564	1415.7196	1476.9618	1488.5374	1497.7583	1500.1106	1511.1999	1649.5578	1920.0403	3009.8949	3043.9094	3044.3375	3065.7744	3088.9581	3111.2158	3112.6877	3123.4446	3130.9279	3484.6595	3567.9042
CCC1(N)C(C)OC1=O	CC[C@@]1(N)[C@@H](C)OC1=O	
InChI=1S/C6H11NO2/c1-3-6(7)4(2)9-5(6)8/h4H,3,7H2,1-2H3	InChI=1S/C6H11NO2/c1-3-6(7)4(2)9-5(6)8/h4H,3,7H2,1-2H3/t4-,6-/m1/s1
