18
gdb 104957	2.51108	1.3457	1.03044	2.6582	79.31	-0.2499	-0.0566	0.1933	1207.3153	0.145181	-401.902747	-401.893182	-401.892238	-401.937336	34.925	
C	-0.4399033604	 0.8931298365	 0.913723418	-0.385909
C	 0.2530422449	-0.3201818076	 0.2793182274	-0.264694
C	 0.6733130817	-0.0915378625	-1.1612670766	 0.204197
C	 0.5363591678	-1.2082482281	-2.154771706	-0.281484
N	-0.3486163929	-0.0504153308	-2.2331658766	-0.336907
C	 1.820318398	 0.8649456986	-1.3513407976	 0.222094
O	 2.490970072	 1.2540864719	-0.4164084922	-0.309323
C	 2.1177916634	 1.286555276	-2.710876202	 0.277378
C	 2.4197784627	 1.6525190316	-3.8167649056	-0.418756
H	 0.2351939221	 1.7513065581	 0.9488816304	 0.145454
H	-1.3333118418	 1.1849764726	 0.350873271	 0.112182
H	-0.7510525981	 0.6651726133	 1.9373695885	 0.116276
H	 1.1414150117	-0.5790820375	 0.86374675	 0.125193
H	-0.4146901653	-1.1898474711	 0.3094043881	 0.087775
H	 1.2435190331	-1.296562077	-2.974066851	 0.13424
H	 0.1556694921	-2.1504502455	-1.7687134052	 0.122161
H	-1.255494183	-0.2676100898	-1.8251668643	 0.238118
H	 2.6784178221	 1.9819472913	-4.7936352763	 0.212006
50.4095	106.9726	139.996	188.536	218.6412	234.3315	290.1007	308.129	352.2773	458.8774	480.0271	560.3795	644.2735	674.8322	706.577	740.4215	764.8566	844.1419	867.7741	937.2375	970.1221	994.8465	1036.4994	1087.3639	1113.4268	1128.894	1144.6583	1251.497	1282.2836	1327.4451	1380.0421	1393.4344	1410.2107	1472.459	1496.4968	1504.1658	1511.4371	1748.0131	2214.2508	3032.4648	3040.2488	3082.7732	3106.6881	3110.0157	3130.8256	3200.4933	3491.7676	3495.5707
CCC1(CN1)C(=O)C#C	CC[C@]1(CN1)C(=O)C#C	
InChI=1S/C7H9NO/c1-3-6(9)7(4-2)5-8-7/h1,8H,4-5H2,2H3	InChI=1S/C7H9NO/c1-3-6(9)7(4-2)5-8-7/h1,8H,4-5H2,2H3/t7-/m0/s1
