12
gdb 123317	2.00096	1.92973	0.98235	4.5021	75.83	-0.2568	-0.035	0.2218	1086.8632	0.079149	-394.533839	-394.526469	-394.525525	-394.565944	27.175	
C	 0.0028238616	-1.1493058431	-0.0036345581	-0.401082
C	-0.015611381	 0.0527635709	 0.0032345349	 0.27732
C	 0.0104081094	 1.4670220262	 0.01074799	 0.162983
N	-1.1049388473	 2.1998793805	 0.0287700402	-0.282861
N	-0.674095047	 3.4729848388	 0.0304285588	-0.189768
C	 0.6671354043	 3.597794831	 0.0143411093	-0.094171
C	 1.1692167094	 2.3082938992	 0.0009256002	 0.014145
C	 2.5279650396	 1.9185566558	-0.0182251953	 0.187554
N	 3.6405395678	 1.5984984981	-0.0339148704	-0.345336
H	 0.016761706	-2.2114423734	-0.0096671166	 0.204751
H	-1.3578404326	 4.2122336866	 0.0430830055	 0.293734
H	 1.1658566598	 4.5531702494	 0.0133914814	 0.172733
103.3959	158.3283	192.8989	205.1392	448.4789	470.5399	522.3426	538.2497	578.8803	621.1871	633.9727	663.0234	670.0993	682.9791	763.0503	824.8767	951.2275	1089.1149	1134.5967	1230.4981	1327.3385	1358.1942	1458.8611	1497.6515	1573.1207	2247.5383	2352.8205	3277.5669	3501.0172	3665.2974
C#CC1=NNC=C1C#N	C#Cc1n[nH]cc1C#N	
InChI=1S/C6H3N3/c1-2-6-5(3-7)4-8-9-6/h1,4H,(H,8,9)	InChI=1S/C6H3N3/c1-2-6-5(3-7)4-8-9-6/h1,4H,(H,8,9)
