20
gdb 97450	3.74521	0.72981	0.67658	3.7211	80.66	-0.2444	0.0289	0.2733	1742.4054	0.16801	-440.25735	-440.247083	-440.246139	-440.293947	35.672	
C	-0.9042251351	 0.5404680523	-0.3758507529	-0.313931
N	 0.3771975322	-0.0851114872	-0.1241773144	-0.205763
C	 0.8069657044	-0.884984857	-0.9924845336	 0.129631
O	 2.0103392752	-1.4862662171	-0.827257596	-0.208876
C	 2.3832041382	-2.4264731391	-1.8336224027	-0.127088
C	 1.678363139	-3.7462888492	-1.6448362913	 0.048956
O	 0.3516883573	-3.8553612749	-2.1786411605	-0.256953
C	 1.3743663536	-4.6895402077	-2.7349540104	 0.079407
C	 1.728797994	-4.4947926685	-4.1880451666	-0.42252
H	-0.7861296064	 1.630250622	-0.3848548171	 0.125102
H	-1.3748137651	 0.2358449882	-1.3250315398	 0.097324
H	-1.5956186381	 0.3033845315	 0.4408833329	 0.127171
H	 0.285135018	-1.1600666269	-1.919971372	 0.092501
H	 2.188445936	-2.0171556336	-2.8307062253	 0.11275
H	 3.4631200028	-2.557873003	-1.7169252881	 0.125655
H	 1.7831375313	-4.1510764653	-0.6367458548	 0.107429
H	 1.2796668686	-5.7364659632	-2.4389556154	 0.096141
H	 1.8078801074	-3.4399578902	-4.4568405009	 0.12822
H	 2.6800118192	-4.9873300466	-4.4165896221	 0.128294
H	 0.9591248976	-4.9468920146	-4.8219328289	 0.136549
40.0783	58.5892	84.5073	156.1231	191.6435	205.9247	219.076	266.4916	317.6886	382.5368	434.7365	475.2711	492.4197	615.0956	765.8218	839.7613	908.5065	978.4418	984.3402	1010.1146	1030.4697	1070.8377	1095.382	1119.2484	1141.7282	1155.4541	1171.9489	1179.4665	1218.9568	1299.6323	1314.4094	1371.5793	1403.7601	1413.6449	1423.7621	1450.0313	1466.9364	1481.6434	1484.3385	1489.6217	1505.1065	1512.198	1779.1433	2968.7634	3022.5957	3040.6396	3046.8965	3057.2243	3075.8703	3083.6536	3095.6164	3103.3312	3108.9116	3137.9375
CN=COCC1OC1C	CN=COC[C@H]1O[C@H]1C	
InChI=1S/C6H11NO2/c1-5-6(9-5)3-8-4-7-2/h4-6H,3H2,1-2H3	InChI=1S/C6H11NO2/c1-5-6(9-5)3-8-4-7-2/h4-6H,3H2,1-2H3/t5-,6+/m0/s1
