19
gdb 91714	2.58388	1.63359	1.47495	4.3679	73.74	-0.2583	0.0173	0.2757	998.8474	0.162151	-423.088789	-423.081475	-423.08053	-423.12038	29.445	
C	-0.1430539222	 1.5586804303	 0.0204248171	-0.415375
C	 0.032982852	 0.0414582609	 0.0031313557	 0.031253
C	 0.8765410413	-0.5103645613	-1.1960718883	-0.249371
C	 1.9903908192	-1.3461542521	-0.4927274241	-0.157717
C	 1.2298885765	-1.9270832118	 0.7161292228	-0.24754
C	 0.82218782	-0.5303202182	 1.2029797097	 0.094584
O	 2.101829444	 0.1591511556	 1.264745059	-0.244773
C	 2.8602714101	-0.3196205266	 0.2246517247	 0.447072
O	 3.9619635326	 0.0774220811	-0.0142059425	-0.351032
H	 0.8244219681	 2.0661222182	 0.0639546123	 0.141557
H	-0.6663087149	 1.8971831312	-0.8793434091	 0.116979
H	-0.7295461795	 1.8792145715	 0.888085039	 0.115254
H	-0.9560582384	-0.4308392402	 0.0046687441	 0.079585
H	 0.2814359284	-1.1538907342	-1.8492844165	 0.108407
H	 1.2968330759	 0.2889890655	-1.8121768887	 0.122844
H	 2.5590236874	-2.0144926384	-1.1348585405	 0.093864
H	 0.3787285309	-2.5551346414	 0.4417814898	 0.108151
H	 1.8679662533	-2.4568058399	 1.427643859	 0.118511
H	 0.3483202853	-0.4384129103	 2.1794764264	 0.087748
112.0552	197.7487	240.6194	270.6609	375.3873	433.4963	468.716	504.6998	570.8112	732.0734	743.518	772.9078	833.8181	847.7309	878.5196	918.5407	942.1928	961.5287	965.5656	980.8718	1018.0409	1054.2001	1076.2329	1089.7296	1145.5661	1172.3285	1201.0865	1206.3898	1248.0592	1284.6325	1304.5906	1313.6427	1328.5112	1364.1363	1373.8005	1414.478	1491.1157	1497.0513	1501.8169	1505.6251	1893.8398	3035.503	3038.6018	3061.4476	3067.9839	3100.4871	3107.0827	3121.3628	3123.8702	3131.4801	3151.9011
CC1CC2CC1OC2=O	C[C@H]1C[C@@H]2C[C@H]1OC2=O	
InChI=1S/C7H10O2/c1-4-2-5-3-6(4)9-7(5)8/h4-6H,2-3H2,1H3	InChI=1S/C7H10O2/c1-4-2-5-3-6(4)9-7(5)8/h4-6H,2-3H2,1H3/t4-,5+,6+/m0/s1
