21
gdb 92935	2.1975	1.49898	1.21843	0.7415	89.55	-0.2426	0.0176	0.2602	1161.4501	0.181194	-349.939556	-349.930188	-349.929244	-349.972968	36.673	
C	-0.7945943724	 1.06045347	 0.0140139314	-0.41882
C	 0.1706403579	-0.1116213317	-0.1356811643	 0.012394
C	 1.3641558055	 0.1294817534	-1.0917187547	-0.28422
C	 2.4151119477	-0.8167030204	-0.565746884	-0.084547
C	 2.1231056206	-1.2543198229	 0.6559626279	-0.085678
C	 0.8328850953	-0.6418774769	 1.1944125129	 0.05918
C	 1.1811113234	 0.4826448151	 2.2027171612	-0.42425
C	-0.0254815631	-1.6260822252	 1.8540082674	 0.308771
C	-0.7391616805	-2.4243291328	 2.4022366483	-0.47993
H	-0.2925052942	 1.9625051448	 0.3781417861	 0.115559
H	-1.2491738199	 1.3050364518	-0.9518000434	 0.11308
H	-1.6050677185	 0.8182344146	 0.7093092698	 0.123908
H	-0.3872051956	-0.9643765051	-0.5376459243	 0.090347
H	 1.0943864606	-0.0596787476	-2.1369679003	 0.103857
H	 1.71688616	 1.1710828538	-1.0498766856	 0.103222
H	 3.3124260386	-1.0705004631	-1.1195111192	 0.09519
H	 2.7272841768	-1.9182656521	 1.2634057375	 0.099639
H	 1.7861794886	 1.2561545801	 1.720492882	 0.116572
H	 0.2769794488	 0.9428181601	 2.6101186929	 0.124385
H	 1.7559327316	 0.0734786601	 3.0382670095	 0.121266
H	-1.3651078512	-3.1355980758	 2.8814165089	 0.190075
89.971	142.6575	173.5374	247.8804	249.9783	270.6978	284.2622	319.6415	454.5246	466.1972	510.7043	529.6884	568.4866	617.9178	627.6434	674.1849	752.1234	759.9523	875.3341	921.6744	933.6388	958.8213	972.3913	976.4605	1015.9702	1084.1508	1097.3519	1126.6972	1159.2433	1183.5704	1188.4061	1225.8953	1303.6492	1336.8016	1364.8349	1370.218	1402.0332	1412.1537	1484.0307	1487.5487	1490.5123	1502.4626	1507.1634	1685.0087	2228.4455	2995.3443	3032.4193	3039.0897	3040.6277	3058.8036	3097.6406	3104.8866	3115.3181	3119.6927	3183.7733	3210.5594	3502.3892
CC1CC=CC1(C)C#C	C[C@H]1CC=C[C@]1(C)C#C	
InChI=1S/C9H12/c1-4-9(3)7-5-6-8(9)2/h1,5,7-8H,6H2,2-3H3	InChI=1S/C9H12/c1-4-9(3)7-5-6-8(9)2/h1,5,7-8H,6H2,2-3H3/t8-,9-/m0/s1
