16
gdb 85704	2.51061	1.38291	1.06092	2.4777	69.29	-0.2706	0.0192	0.2898	1126.6282	0.123489	-437.859798	-437.851471	-437.850527	-437.893006	30.861	
O	 0.6693975268	 0.6000609269	-0.9813155306	-0.419154
C	 0.1319613139	-0.3319928865	-0.0900465405	 0.063591
C	 0.1776772889	-0.0666776333	 1.4474046544	-0.290971
C	-1.2621827967	-0.6698222448	 1.5700335752	-0.245561
C	-2.2205107524	 0.0076959267	 2.4224098329	 0.280435
N	-2.9869450402	 0.5748247671	 3.0770537824	-0.329332
C	-1.3896200078	-0.482935865	 0.0387024457	 0.395966
C	-2.4386179322	 0.210667983	-0.7081114564	-0.269911
O	-2.2375444486	-1.2122742904	-0.8031227332	-0.261105
H	 0.2985890147	 1.4659020367	-0.7773348403	 0.28519
H	 0.5909205178	-1.2933148746	-0.3416375906	 0.117613
H	 0.9623653572	-0.5556166924	 2.023829934	 0.131445
H	 0.1779398525	 1.0036401928	 1.668135374	 0.125209
H	-1.2311279649	-1.7342706642	 1.8199609185	 0.140889
H	-3.3468685583	 0.5209666807	-0.1954861596	 0.145974
H	-2.1733074607	 0.7707405475	-1.602933456	 0.12972
68.9045	124.1687	200.5388	207.4264	274.5192	333.4218	354.4536	409.4765	498.657	526.4265	576.2841	590.196	711.6001	821.899	858.0574	900.6892	916.4507	1017.4097	1028.2398	1056.2821	1081.3781	1125.8226	1136.3258	1159.5872	1170.8317	1193.8248	1243.3883	1265.382	1319.2211	1345.2141	1423.1416	1440.1897	1482.4267	1527.7796	2353.429	3072.1347	3075.7891	3081.8171	3092.5999	3148.934	3188.7242	3802.3957
OC1CC(C#N)C11CO1	O[C@H]1C[C@@H](C#N)[C@]21CO2	
InChI=1S/C6H7NO2/c7-2-4-1-5(8)6(4)3-9-6/h4-5,8H,1,3H2	InChI=1S/C6H7NO2/c7-2-4-1-5(8)6(4)3-9-6/h4-5,8H,1,3H2/t4-,5-,6-/m0/s1
