20
gdb 63091	2.7081	1.41525	1.25615	3.2379	80.83	-0.2495	0.027	0.2765	1114.5638	0.171651	-403.167092	-403.15856	-403.157616	-403.199752	33.209	
C	-0.0570364917	 1.5472364054	 0.0571167534	-0.468845
C	 0.0340669979	 0.0343458747	-0.0224675268	 0.314983
C	-1.1613580059	-0.677233735	 0.5888106089	-0.45439
C	 0.6767043021	-0.6615048422	-1.194423607	-0.12113
C	 1.5997011014	 0.1434702159	-2.0909460576	-0.118948
O	 2.6366894992	 0.6767004399	-1.2470853998	-0.247995
C	 2.6108595072	 0.0965202063	-0.0008203966	 0.409504
N	 3.5252044685	 0.2243229317	 0.8618411819	-0.552959
C	 1.3642759703	-0.6943913892	 0.1577471282	-0.160141
H	 0.8147223114	 2.0496218175	-0.3658608471	 0.140169
H	-0.9458648821	 1.9027319295	-0.477230639	 0.114041
H	-0.1502752296	 1.8669583307	 1.100588429	 0.126119
H	-2.0879326766	-0.3824588698	 0.0829372705	 0.118687
H	-1.0683880894	-1.7648224811	 0.5115068739	 0.116028
H	-1.2656825764	-0.4235264152	 1.6494117886	 0.125524
H	 0.2044758375	-1.5423614827	-1.6141223924	 0.094936
H	 2.060985541	-0.4934831451	-2.8548489062	 0.116978
H	 1.1115144025	 0.9868107212	-2.590665138	 0.117786
H	 4.2935556671	 0.7816839751	 0.4846222918	 0.219995
H	 1.4059244855	-1.5661603476	 0.7968888842	 0.109658
122.4895	185.9439	198.0347	213.4985	227.1644	268.372	349.6934	406.9742	440.7389	459.1606	619.0442	654.0978	731.987	759.2345	827.382	859.9949	891.2954	903.1547	970.9764	979.4104	986.5621	1006.2451	1025.6114	1051.3989	1078.9947	1106.6145	1124.5464	1152.5142	1215.247	1230.9637	1276.196	1309.8767	1327.3641	1394.0325	1411.7818	1420.0339	1436.8265	1485.4883	1491.7338	1505.2017	1512.2255	1521.6952	1772.793	3025.9712	3031.1288	3033.4865	3072.8586	3087.6168	3091.0162	3103.6266	3132.4641	3174.562	3207.7004	3473.204
CC1(C)C2COC(=N)C12	CC1(C)[C@H]2CO[C]([NH])[C@@H]12	
InChI=1S/C7H11NO/c1-7(2)4-3-9-6(8)5(4)7/h4-5,8H,3H2,1-2H3	InChI=1S/C7H11NO/c1-7(2)4-3-9-6(8)5(4)7/h4-5,8H,3H2,1-2H3/t4-,5-/m0/s1
