19
gdb 61183	3.55201	0.83654	0.77117	1.3621	83.49	-0.2585	0.026	0.2845	1506.4382	0.15487	-385.820299	-385.809665	-385.808721	-385.855896	38.88	
C	 0.0144546451	 1.5970081942	 0.1098070443	-0.415281
C	 0.0056807876	 0.068227302	 0.0205575862	 0.022716
C	-1.432440705	-0.504437093	 0.0546569729	-0.369769
C	-2.1547813912	-0.1861246815	 1.2793058666	 0.294262
C	-2.7335208665	 0.0794549592	 2.2992410528	-0.440915
C	 0.7171145427	-0.4496727358	-1.2570559377	-0.064896
O	 0.0572988335	-0.0235805518	-2.4484974539	-0.425228
C	 2.1390539344	-0.0970075163	-1.2717550901	 0.283909
C	 3.2979818059	 0.222791134	-1.2917446453	-0.426046
H	 1.0369118946	 1.9844880585	 0.1104763342	 0.12637
H	-0.5242981749	 2.0413854785	-0.7349858273	 0.110742
H	-0.4818412055	 1.9274010132	 1.0250608511	 0.137332
H	 0.5567507023	-0.3400884809	 0.8762624658	 0.096108
H	-1.980691355	-0.1267145459	-0.8163097765	 0.145017
H	-1.389924102	-1.5954137599	-0.0629431754	 0.125446
H	-3.2560297649	 0.30779471	 3.1947844237	 0.192679
H	 0.6313870386	-1.5438848178	-1.2703877307	 0.115481
H	 0.342728644	 0.8772929378	-2.6341344432	 0.291039
H	 4.3260058563	 0.4895679656	-1.3129575874	 0.201033
61.8341	83.1737	109.837	174.7697	206.0058	231.0634	257.4819	286.2438	324.6751	344.5344	353.2074	443.9478	512.0712	575.8569	613.2817	627.0375	636.2176	670.4492	678.5171	821.9656	873.1907	893.5266	974.207	993.834	1012.5781	1099.8305	1110.4587	1130.1587	1240.2145	1258.1017	1292.2028	1315.9072	1361.6486	1375.2909	1410.8836	1419.2974	1474.4811	1500.9538	1506.7587	2231.0844	2236.4608	3019.9458	3027.595	3036.5948	3041.4421	3068.1577	3107.1847	3129.4915	3501.1814	3507.0714	3818.212
CC(CC#C)C(O)C#C	C[C@@H](CC#C)[C@@H](O)C#C	
InChI=1S/C8H10O/c1-4-6-7(3)8(9)5-2/h1-2,7-9H,6H2,3H3	InChI=1S/C8H10O/c1-4-6-7(3)8(9)5-2/h1-2,7-9H,6H2,3H3/t7-,8-/m0/s1
