17
gdb 51028	2.41065	1.26679	0.9852	3.6302	74.62	-0.246	-0.0247	0.2213	1227.7628	0.132515	-421.775826	-421.766494	-421.76555	-421.811059	32.994	
O	-0.4372385621	 0.4372212537	 0.6133149462	-0.245202
C	 0.1199724358	 0.9637547156	-0.3146558341	 0.162333
C	 1.2758034711	 1.9378197548	-0.1664797052	-0.323451
C	 1.2255790285	 3.0734971694	-1.1975567263	 0.18284
C	 2.5353879801	 3.9002609064	-1.3617733279	-0.334774
C	 2.5750196758	 3.3055670036	-2.7814204982	-0.067128
O	 1.3697822876	 2.5425336368	-2.5481319877	-0.304568
C	 0.0063102439	 3.8631680857	-1.0547759863	 0.342517
C	-0.9975917383	 4.5104028873	-0.9205312738	-0.45773
H	-0.1674110395	 0.7466631615	-1.3651610502	 0.104191
H	 1.2866133406	 2.3285076163	 0.8550054668	 0.130537
H	 2.2046392121	 1.375574443	-0.3328224021	 0.126306
H	 2.4036415932	 4.9796932578	-1.3015226155	 0.129816
H	 3.3421600573	 3.5903465895	-0.6959921945	 0.119794
H	 2.4452242973	 4.0257608307	-3.5967760257	 0.116145
H	 3.4277888885	 2.656943351	-3.0102532627	 0.110933
H	-1.8890628119	 5.077393247	-0.8082662026	 0.207443
55.6253	67.3946	87.7795	140.2074	185.0552	216.5692	335.9888	388.4254	462.2205	518.5957	548.423	637.2846	673.1641	679.7839	779.2956	784.5226	865.4714	904.4803	973.8508	985.9859	1011.3072	1023.9823	1093.0547	1143.6549	1158.8179	1185.926	1215.5296	1260.032	1280.1219	1310.1588	1350.4241	1426.7652	1438.2848	1488.0806	1532.1788	1832.7371	2232.5228	2915.636	3025.9601	3030.8693	3072.8526	3091.081	3104.1992	3154.1308	3498.7452
O=CCC1(CCO1)C#C	O=CC[C@]1(CCO1)C#C	
InChI=1S/C7H8O2/c1-2-7(3-5-8)4-6-9-7/h1,5H,3-4,6H2	InChI=1S/C7H8O2/c1-2-7(3-5-8)4-6-9-7/h1,5H,3-4,6H2/t7-/m0/s1
