25
gdb 57541	3.3553	0.77382	0.75505	0.9127	90.17	-0.2432	0.0803	0.3236	1710.3673	0.225748	-389.481496	-389.470377	-389.469432	-389.519076	41.163	
C	 0.2092283853	 1.6578755718	 0.2458278169	-0.413874
C	 0.0944277546	 0.1415530501	 0.0210438663	 0.376707
C	 0.5665275187	-0.6320263374	 1.2638113515	-0.4115
C	-1.3537997554	-0.2336357846	-0.3104791253	-0.395187
O	 0.8203210001	-0.26918718	-1.1479123885	-0.28946
C	 2.2059987484	 0.0096944944	-1.2145984148	-0.08425
C	 2.7593964929	-0.6592832833	-2.4450445227	 0.023824
C	 2.6508450622	 0.0194500368	-3.7844057701	-0.247297
C	 3.9930019345	-0.0974935082	-3.1057464242	-0.274846
H	 1.2239466849	 1.9540307972	 0.5277049693	 0.113017
H	-0.0692029673	 2.199882639	-0.6632221919	 0.117735
H	-0.4604128769	 1.9741110555	 1.0516273692	 0.112545
H	-0.0852929941	-0.416379406	 2.1162667918	 0.111868
H	 0.5374811241	-1.7088160987	 1.0724556713	 0.117703
H	 1.5851820723	-0.3610531394	 1.5561826497	 0.11276
H	-1.685915115	 0.2985804704	-1.206210839	 0.116711
H	-1.4294233416	-1.3069660607	-0.5059286318	 0.11739
H	-2.0236580241	 0.019466148	 0.5166202184	 0.105808
H	 2.3932938381	 1.0939856772	-1.2740473245	 0.078125
H	 2.7315583249	-0.3613317591	-0.32139316	 0.084504
H	 2.6572389659	-1.7405325525	-2.4412206003	 0.086085
H	 2.4588275871	-0.5935699157	-4.657798581	 0.110679
H	 2.1802706453	 0.9965892771	-3.8160731638	 0.111562
H	 4.4298781429	 0.8030828417	-2.6858915555	 0.108635
H	 4.7202573023	-0.7928633234	-3.509602861	 0.110753
14.909	55.6154	108.0992	145.5093	197.2508	246.7998	253.6046	267.3758	299.0057	336.6004	361.1859	393.7263	452.5168	480.7156	503.8261	748.8138	774.096	815.1527	840.8694	888.1323	905.3531	918.7254	929.3261	953.2612	965.1756	1030.7564	1037.6713	1052.1652	1060.4826	1075.9179	1106.2542	1135.9038	1194.557	1196.712	1224.1536	1228.064	1250.526	1272.8471	1284.6344	1372.5261	1392.2339	1394.7281	1421.0169	1440.1297	1470.5426	1470.8511	1483.2187	1485.7001	1498.1938	1499.6122	1506.1499	1515.1521	1523.7822	2968.1305	3001.0921	3035.6599	3037.6594	3044.9248	3103.626	3108.8891	3111.1189	3113.3266	3119.2149	3120.3015	3129.4547	3135.5054	3152.2787	3207.4266	3223.1267
CC(C)(C)OCC1CC1	CC(C)(C)OCC1CC1	
InChI=1S/C8H16O/c1-8(2,3)9-6-7-4-5-7/h7H,4-6H2,1-3H3	InChI=1S/C8H16O/c1-8(2,3)9-6-7-4-5-7/h7H,4-6H2,1-3H3
