19
gdb 86291	1.77481	1.59309	1.21847	2.6428	72.11	-0.2448	-0.0248	0.22	1137.5713	0.155967	-460.156217	-460.146146	-460.145202	-460.191344	36.34	
C	 0.1308135796	 1.6875924159	-0.1806969234	-0.473691
C	-0.0534266288	 0.178557955	-0.0438179805	 0.149548
C	-1.4657486064	-0.2414597379	-0.3607617844	 0.100076
O	-2.0143259484	-1.2080213744	 0.1107279006	-0.266552
C	 1.0316498125	-0.6570621097	-0.8652414886	 0.120422
O	 1.632059793	-0.0842747055	-1.9895384383	-0.418709
C	 1.8364279553	-0.8356982598	 0.4438575773	-0.329337
C	 0.5616400726	-0.443585845	 1.2369624875	 0.098246
O	 0.6905830317	 0.4731098999	 2.2992822927	-0.432199
H	 1.1615006787	 1.9933829692	 0.0202514696	 0.118156
H	-0.1334918091	 2.0146329677	-1.1913568712	 0.126976
H	-0.4987503178	 2.2217503265	 0.5357528547	 0.14146
H	-1.9842089421	 0.3902175733	-1.1188597261	 0.075658
H	 0.5970293055	-1.6006949523	-1.2037360179	 0.109236
H	 2.1309371051	 0.6898442932	-1.7087003207	 0.285362
H	 2.2988826388	-1.8075887448	 0.6303925709	 0.105902
H	 2.5946290733	-0.0520530284	 0.5480385802	 0.101962
H	-0.0244197125	-1.3222657707	 1.5279221164	 0.098266
H	 0.9149547191	-0.0154837721	 3.0966907712	 0.289219
49.3247	98.3868	169.978	176.1575	192.3601	235.8107	246.4415	250.5944	318.5986	359.8276	452.1243	474.429	539.5043	548.8992	660.8143	743.0677	795.6394	874.8899	914.0266	948.3116	1003.4341	1048.5253	1070.7699	1122.4872	1137.7124	1145.286	1174.4055	1211.9641	1233.8867	1255.3813	1296.8938	1321.8532	1323.591	1406.3833	1420.2359	1429.9877	1447.9334	1482.7934	1488.5127	1502.7213	1810.8563	2861.3302	3041.9439	3048.3197	3052.6128	3083.7628	3110.2672	3115.1602	3119.1945	3814.7954	3829.3583
CC1(C=O)C(O)CC1O	C[C@@]1(C=O)[C@@H](O)C[C@H]1O	
InChI=1S/C6H10O3/c1-6(3-7)4(8)2-5(6)9/h3-5,8-9H,2H2,1H3	InChI=1S/C6H10O3/c1-6(3-7)4(8)2-5(6)9/h3-5,8-9H,2H2,1H3/t4-,5+,6+
