14
gdb 133216	2.44344	1.74526	1.02446	1.2373	69.85	-0.2411	-0.057	0.1841	1065.476	0.100006	-477.946386	-477.938755	-477.93781	-477.978587	28.617	
C	 0.1311158109	 1.4643386772	 0.0587498953	-0.45116
C	-0.0054250968	-0.0276961496	 0.0186005859	 0.333008
N	-0.0829233804	-0.5579279258	-1.1559834532	-0.136324
O	-0.2112010932	-1.943350229	-1.2520597992	-0.23751
C	-0.2520963156	-2.6995777069	-0.137972381	-0.025822
C	-0.1745499923	-2.1854820931	 1.0973553985	 0.150982
F	-0.2195447573	-2.9758939468	 2.1713458894	-0.069291
C	-0.0403016006	-0.7636008065	 1.2999108224	 0.132415
N	 0.045015047	-0.1302517693	 2.4135512224	-0.539169
H	 1.049113373	 1.738082034	 0.5869743032	 0.155416
H	 0.1425800302	 1.8699217769	-0.9529879594	 0.142478
H	-0.6951343876	 1.8965330886	 0.6307542631	 0.155422
H	-0.3534856531	-3.7548178414	-0.3590559607	 0.161258
H	 0.0045275459	-0.7899399183	 3.1935208833	 0.228298
92.866	175.0816	269.5905	291.6017	309.1429	318.947	441.2517	452.7268	516.5426	524.5742	574.2339	675.5915	762.706	861.039	886.1032	888.9648	912.6343	967.1823	1045.4573	1059.5323	1182.026	1237.178	1296.2897	1338.0414	1406.9294	1461.8395	1466.1684	1467.2988	1631.5622	1668.0626	1709.3145	3054.8385	3114.9563	3160.4266	3220.3741	3456.635
CC1=NOC=C(F)C1=N	CC1=NO[CH]C(=C1[NH])F	
InChI=1S/C5H5FN2O/c1-3-5(7)4(6)2-9-8-3/h2,7H,1H3	InChI=1S/C5H5FN2O/c1-3-5(7)4(6)2-9-8-3/h2,7H,1H3
