15
gdb 45902	2.43895	1.89981	1.29184	3.4048	68.13	-0.2486	-0.0163	0.2323	960.7511	0.11425	-453.973281	-453.965814	-453.964869	-454.005433	28.087	
O	 0.3576074356	 0.4726929832	-0.8086809803	-0.345093
C	-0.0470521729	 1.2442286694	 0.0154894566	 0.428504
N	-1.2995487494	 1.7962707139	 0.0300261978	-0.338955
C	-1.6826549428	 2.9582633677	 0.7241603001	-0.005231
C	-0.9144223684	 4.0463373159	 0.7988546359	-0.064188
C	 0.4044989347	 4.2078466183	 0.0837447604	-0.240783
N	 1.573534321	 3.7286816109	 0.8372987262	-0.235672
C	 1.6159973257	 2.5497758314	 1.266046436	 0.134334
O	 0.6834635933	 1.5414455936	 1.1637660578	-0.226784
H	-1.9232339497	 1.4055492972	-0.6615962503	 0.270617
H	-2.654903177	 2.9068124066	 1.2051872996	 0.117883
H	-1.2523668994	 4.8678796144	 1.4220464558	 0.111294
H	 0.3609349332	 3.7020560319	-0.8901812335	 0.135381
H	 0.5752275993	 5.2674974207	-0.1204181983	 0.119455
H	 2.4543000369	 2.2047480348	 1.8661861561	 0.139238
90.3174	126.3067	223.3458	258.1669	314.0436	439.8748	513.5952	540.5261	566.0495	577.8891	696.4366	764.9173	787.3826	828.3392	835.8082	920.2597	957.8464	961.4116	974.2928	1057.8959	1092.125	1105.9802	1226.4143	1258.4048	1302.5009	1359.8864	1408.8429	1423.3833	1467.6034	1504.8885	1711.0835	1747.4494	1853.4123	3020.4107	3088.5046	3166.9192	3175.2812	3193.049	3609.2261
O=C1NC=CCN=CO1	O=C1NC=CCN=CO1	
InChI=1S/C5H6N2O2/c8-5-7-3-1-2-6-4-9-5/h1,3-4H,2H2,(H,7,8)/b3-1-,6-4-	InChI=1S/C5H6N2O2/c8-5-7-3-1-2-6-4-9-5/h1,3-4H,2H2,(H,7,8)/b3-1-,6-4-
