25
gdb 118460	1.93944	0.98853	0.69463	2.0098	85.88	-0.2515	0.0738	0.3253	1696.0902	0.226625	-426.618151	-426.606392	-426.605448	-426.655271	42.6	
C	-0.033545724	 1.4130557495	 0.9238359453	-0.392001
C	-0.0194427573	-0.0324195346	 0.396436925	 0.031548
C	 0.6358095804	-0.9371578623	 1.4516462554	-0.401359
C	-1.4444241691	-0.4920647578	-0.0326836358	 0.031875
C	-1.8443905133	 0.2057626717	-1.3407212109	-0.092395
O	-3.2650722378	 0.2217762384	-1.4423034217	-0.41717
C	-1.5718346882	-2.022809121	-0.1467753778	-0.187186
C	-2.9521515044	-2.5512174839	-0.5283234429	-0.085602
O	-2.8927580507	-3.9698133266	-0.4052960843	-0.427206
H	 0.9841057809	 1.7603666615	 1.1300322273	 0.110214
H	-0.4849170516	 2.1197462232	 0.2223358333	 0.112292
H	-0.5991619906	 1.4723971823	 1.8613061179	 0.114761
H	 0.6184113466	-0.0620902454	-0.5004933899	 0.067636
H	 0.0105505084	-1.0155759252	 2.3492215058	 0.113765
H	 0.8208735779	-1.9481867519	 1.0821870311	 0.121078
H	 1.599151673	-0.5172222026	 1.7594605818	 0.105815
H	-2.1527620687	-0.1447556529	 0.7337068571	 0.077642
H	-1.4546934082	 1.2324618051	-1.3650431879	 0.087069
H	-1.3921062736	-0.3326176808	-2.190322852	 0.084519
H	-3.5003310358	 0.6041001987	-2.292823361	 0.284502
H	-0.8398421444	-2.4038303725	-0.8722762755	 0.094029
H	-1.3222747749	-2.4858448281	 0.8123328963	 0.108653
H	-3.7137739604	-2.1240945276	 0.1425486728	 0.087471
H	-3.2234921122	-2.2510646622	-1.5476690691	 0.088698
H	-3.741566232	-4.3255752348	-0.6830974302	 0.281353
51.9263	96.5694	111.7076	124.1691	154.3555	218.7072	226.3037	256.6262	271.2553	287.1126	319.3915	336.3496	363.5045	372.9704	452.81	494.8114	532.2921	803.7844	849.7034	884.3642	928.0168	940.8693	968.1797	984.5098	1021.2473	1045.9722	1065.7682	1079.5939	1126.5858	1140.3016	1168.9725	1192.1403	1222.0197	1245.507	1254.8199	1277.7058	1299.7797	1325.6565	1340.6954	1347.8251	1375.5105	1385.8305	1402.9688	1424.0802	1456.5537	1462.82	1487.4855	1489.6225	1495.8333	1507.0763	1516.2284	1520.9019	1525.4527	2963.5351	2982.3582	2983.8531	3004.9894	3017.8666	3022.7878	3028.3826	3033.7299	3041.702	3087.2924	3090.0258	3096.475	3109.7597	3120.5578	3826.7209	3831.4205
CC(C)C(CO)CCO	CC(C)[C@@H](CO)CCO	
InChI=1S/C7H16O2/c1-6(2)7(5-9)3-4-8/h6-9H,3-5H2,1-2H3	InChI=1S/C7H16O2/c1-6(2)7(5-9)3-4-8/h6-9H,3-5H2,1-2H3/t7-/m1/s1
