17
gdb 24627	4.21763	1.36008	1.12862	3.6484	80.54	-0.2091	0.0414	0.2505	1080.2977	0.138545	-380.855092	-380.847896	-380.846952	-380.887235	27.759	
C	 0.1162027688	 1.5545486137	-0.0077302414	-0.317976
C	 1.3559313419	 0.6986318055	-0.1243182616	-0.31798
C	 0.0064866021	 0.0576338733	 0.0237158017	 0.176764
C	-0.515577961	-0.8564610176	 1.1840098597	-0.243905
N	-1.164165547	-1.6512168897	 0.1182103296	-0.005169
C	-1.9170879544	-2.6647200401	-0.4277224831	-0.175914
C	-1.8620543545	-2.3995553126	-1.7843858176	-0.093582
N	-1.109751749	-1.2696778669	-2.0824497154	-0.38732
C	-0.7233657638	-0.8741853238	-0.8946167632	 0.354603
H	-0.0449850699	 2.09420053	 0.9197039694	 0.119199
H	-0.2468041085	 2.061711024	-0.894608119	 0.136944
H	 1.8408068467	 0.6204479835	-1.0909215647	 0.136925
H	 2.0307825334	 0.6610533516	 0.7245072115	 0.119198
H	 0.2509664737	-1.4060969965	 1.7371884661	 0.131771
H	-1.2222725992	-0.3890728079	 1.875261593	 0.131805
H	-2.3992759103	-3.4405070732	 0.14140181	 0.129511
H	-2.3309447891	-2.9702992032	-2.572333855	 0.105128
55.8071	139.0091	211.5705	266.5648	433.0659	507.5199	515.8857	617.7273	713.9139	721.985	743.1616	779.7383	829.5453	855.2133	857.1168	931.7758	939.8514	993.2196	1045.8296	1061.2407	1065.7644	1083.2998	1097.5005	1137.5512	1142.2918	1191.6228	1207.2271	1245.6832	1275.1668	1342.5401	1409.8122	1445.6847	1460.9426	1468.4564	1502.2724	1514.4314	1594.2651	3053.966	3110.2639	3132.5031	3135.4578	3215.107	3229.239	3244.8073	3288.5751
C1CC11CN2C=CN=C12	C1CC21Cn1ccnc21	
InChI=1S/C7H8N2/c1-2-7(1)5-9-4-3-8-6(7)9/h3-4H,1-2,5H2	InChI=1S/C7H8N2/c1-2-7(1)5-9-4-3-8-6(7)9/h3-4H,1-2,5H2
