25
gdb 60139	3.24722	0.92402	0.8721	0.2702	92.49	-0.2462	0.0832	0.3294	1513.5463	0.229075	-352.334573	-352.324835	-352.323891	-352.369389	37.596	
C	 0.0836315847	 1.4944979823	-0.0688261359	-0.391317
C	-0.0071305029	-0.0277293315	 0.1005422664	 0.048255
C	 0.5150410441	-0.4543157591	 1.4792490009	-0.377653
C	-1.4464191258	-0.5177184961	-0.1578582592	-0.210337
C	-1.5840391845	-2.0268287035	-0.2434786709	 0.005618
C	-1.8915565998	-2.9719391347	 0.8922566299	-0.053553
C	-2.9062163193	-2.3759152729	 1.8773650333	-0.229065
C	-3.9161310803	-2.1818687754	 0.7000661187	-0.226141
C	-2.8849786416	-2.7860900588	-0.2639281668	-0.094254
H	 1.1087091375	 1.8508102399	 0.0784598983	 0.106822
H	-0.2405001132	 1.8064182206	-1.0674922767	 0.107365
H	-0.5528992638	 2.0082353226	 0.6619937337	 0.109683
H	 0.6394835133	-0.4883019171	-0.6613327139	 0.066969
H	-0.0888189253	-0.0076626574	 2.2788010327	 0.108006
H	 0.4836738289	-1.5397769353	 1.6049750561	 0.120032
H	 1.5498145368	-0.1266366848	 1.6261365307	 0.10515
H	-2.103956726	-0.1092579701	 0.6191953631	 0.093528
H	-1.7965461445	-0.0846414028	-1.1051032224	 0.089039
H	-0.8661154655	-2.4681420506	-0.9354564182	 0.077832
H	-1.2521924935	-3.8207578007	 1.1075847969	 0.076362
H	-3.2640762326	-3.1102274894	 2.6024157448	 0.100638
H	-2.5922302223	-1.4812667625	 2.4246187474	 0.09521
H	-4.8015568702	-2.8108494529	 0.8150943127	 0.099742
H	-4.2472253825	-1.1607666479	 0.4850718093	 0.094517
H	-3.1230252816	-3.470041912	-1.0707422007	 0.077552
53.9035	79.7439	139.4585	216.8388	233.8468	241.1879	264.069	342.9428	356.4292	422.2001	455.0937	548.4413	705.9006	766.1387	789.8549	792.1756	830.527	884.9267	916.3442	927.1762	949.5962	954.8863	962.7802	970.6677	1006.7693	1013.0674	1028.5209	1076.2364	1099.7622	1118.6074	1144.7938	1159.3393	1194.7845	1213.4248	1224.4863	1245.5067	1263.5982	1271.6969	1305.2997	1311.6639	1352.3784	1368.8691	1378.0674	1398.6131	1419.062	1452.2586	1473.4947	1485.7811	1488.2297	1496.2955	1502.888	1507.7249	1511.1019	2990.2455	3009.9126	3021.4216	3027.1188	3045.1918	3050.9429	3057.4051	3084.1746	3090.1958	3093.5404	3095.8887	3105.2207	3112.0086	3114.0994	3162.4616	3175.0579
CC(C)CC1C2CCC12	CC(C)C[C@H]1[C@H]2CC[C@@H]12	
InChI=1S/C9H16/c1-6(2)5-9-7-3-4-8(7)9/h6-9H,3-5H2,1-2H3	InChI=1S/C9H16/c1-6(2)5-9-7-3-4-8(7)9/h6-9H,3-5H2,1-2H3/t7-,8+,9-
