18
gdb 54280	2.2337	1.37213	1.05612	5.5225	76.14	-0.2576	-0.0247	0.2329	1198.0405	0.145758	-401.975089	-401.965669	-401.964724	-402.009975	34.02	
C	 1.1755669025	 0.1568134494	 0.2742589268	-0.500246
C	-0.1013020569	-0.4249628596	 0.8559729711	 0.353978
O	-0.2055006055	-0.6319344962	 2.0458907119	-0.312695
C	-1.2591863981	-0.724136738	-0.05906924	 0.236996
C	-2.5557256781	-1.0316085374	 0.6850575858	-0.417255
C	-3.184766231	 0.1721417692	 1.2328331635	 0.277329
N	-3.6870888402	 1.1306527462	 1.6373451004	-0.313033
C	-1.3541844671	-0.0756864575	-1.4278671593	-0.297151
C	-0.9811645715	-1.5194103133	-1.3333739462	-0.316706
H	 1.9780540474	 0.0337252972	 1.0019448272	 0.152005
H	 1.4649400004	-0.2938924637	-0.6785676495	 0.133332
H	 1.0295634353	 1.2288273623	 0.0972759761	 0.157639
H	-3.2725151913	-1.5147263277	 0.0132625043	 0.141213
H	-2.3461034393	-1.7193303322	 1.5090351426	 0.172021
H	-2.3506525982	 0.180909507	-1.7703043319	 0.137458
H	-0.5923168785	 0.6407077759	-1.7098507293	 0.13088
H	 0.0422875073	-1.8103521216	-1.5383396106	 0.132462
H	-1.7162664272	-2.2685914902	-1.6061147927	 0.131773
53.5937	66.1984	125.2659	144.9869	255.3278	276.0733	319.6092	351.1826	380.5041	416.0798	502.5476	549.2387	606.6915	692.9505	782.5598	837.1506	881.7044	913.6539	936.5042	964.689	984.2239	1023.4089	1051.5483	1067.2351	1091.2056	1145.214	1192.0987	1230.0433	1308.9124	1344.3852	1358.2507	1385.8015	1445.2723	1460.5781	1473.847	1482.2793	1504.4708	1785.7114	2364.0241	3044.2631	3057.4474	3107.7184	3109.8135	3142.4401	3147.4488	3156.6205	3222.8367	3236.6785
CC(=O)C1(CC#N)CC1	CC(=O)C1(CC#N)CC1	
InChI=1S/C7H9NO/c1-6(9)7(2-3-7)4-5-8/h2-4H2,1H3	InChI=1S/C7H9NO/c1-6(9)7(2-3-7)4-5-8/h2-4H2,1H3
