14
gdb 28966	2.9931	1.5531	1.02901	3.5242	76.4	-0.2755	-0.0864	0.1891	1074.178	0.102673	-395.799346	-395.791678	-395.790733	-395.83213	27.308	
C	-0.0362470526	 1.5261417125	-0.0024339396	-0.510747
C	-0.0103848026	 0.0247515006	-0.0017051197	 0.206136
C	-0.0339022317	-0.7298758388	-1.1766980961	-0.026399
N	-0.011653977	-2.0612068104	-1.199920043	-0.241594
C	 0.0356813656	-2.6671836539	-0.0114502639	 0.063628
N	 0.0625708534	-2.078300958	 1.1806207196	-0.299195
C	 0.0391821658	-0.7399759782	 1.1725265219	 0.162183
C	 0.0677517188	-0.0797659417	 2.4538894827	 0.25413
N	 0.08930214	 0.4953756154	 3.4570120701	-0.32682
H	 0.8508581828	 1.9384738989	 0.4892166053	 0.160046
H	-0.0733105368	 1.9126188365	-1.023629737	 0.136295
H	-0.9062825006	 1.9081606804	 0.5414592829	 0.160028
H	-0.0723905387	-0.2263709547	-2.1410035232	 0.127633
H	 0.0542706336	-3.7534680085	-0.01524128	 0.134673
66.1526	125.0269	147.3001	223.4201	330.1728	398.2359	443.3249	472.3537	559.9806	622.1801	633.2895	738.2822	815.2909	861.2547	946.5979	1009.7182	1018.3827	1070.5284	1141.3068	1193.8928	1231.9517	1279.1268	1319.422	1420.6472	1435.0221	1452.6607	1479.64	1493.934	1576.8149	1609.9783	2351.9128	3042.1506	3100.6843	3126.9282	3150.4998	3180.1753
CC1=CN=CN=C1C#N	Cc1cncnc1C#N	
InChI=1S/C6H5N3/c1-5-3-8-4-9-6(5)2-7/h3-4H,1H3	InChI=1S/C6H5N3/c1-5-3-8-4-9-6(5)2-7/h3-4H,1H3
