13
gdb 12615	3.16323	2.1856	1.35108	3.8648	54.92	-0.2565	-0.0425	0.214	836.7211	0.095489	-435.783362	-435.776208	-435.775264	-435.814955	26.058	
O	 0.2354019999	 1.3248592041	 0.4255981268	-0.419646
C	-0.0054419573	 0.0113078596	 0.0402445096	-0.053428
C	-1.4711488085	-0.3743185228	-0.1624500699	 0.362041
O	-2.4400693528	 0.0656019997	 0.3843348281	-0.273633
C	-1.4785699621	-1.4572201672	-1.2646461203	-0.276549
N	-0.1821165955	-1.2760763813	-1.9032906948	-0.325223
C	 0.6207929037	-0.3474634638	-1.3111655337	 0.380249
O	 1.6405634175	 0.1452876153	-1.7430375221	-0.380239
H	 1.0283892948	 1.5946875822	-0.0623489007	 0.301847
H	 0.3920401545	-0.7193238563	 0.7742374128	 0.122979
H	-1.5982287762	-2.4535735372	-0.8190410838	 0.144902
H	-2.3161775533	-1.2859294792	-1.9480699291	 0.151818
H	 0.0322654753	-1.623976153	-2.8253904529	 0.264881
80.8395	168.9218	229.4551	269.7903	377.7046	403.194	482.4782	543.0791	564.5043	607.5387	683.6327	716.7435	796.3945	904.7878	978.1023	1053.4653	1096.8174	1171.6319	1199.4912	1214.28	1256.2547	1320.4727	1372.2393	1406.3505	1433.6247	1502.5278	1828.6431	1890.5022	2905.48	3023.2081	3082.8165	3628.818	3720.8938
OC1C(=O)CNC1=O	O[C@H]1C(=O)CNC1=O	
InChI=1S/C4H5NO3/c6-2-1-5-4(8)3(2)7/h3,7H,1H2,(H,5,8)	InChI=1S/C4H5NO3/c6-2-1-5-4(8)3(2)7/h3,7H,1H2,(H,5,8)/t3-/m0/s1
