19
gdb 74357	5.17852	0.78799	0.7188	4.2915	80.13	-0.2345	-0.0167	0.2178	1568.8902	0.157146	-423.045173	-423.035731	-423.034787	-423.080706	33.153	
C	 0.0884125106	 1.4854389616	-0.1347077201	-0.49327
C	-0.0105234129	-0.002076121	-0.0417218924	 0.299052
C	-1.0676426324	-0.7602405111	 0.2377345074	-0.213689
C	-0.69479686	-2.2165736424	 0.2184072909	 0.075639
C	-1.4825824316	-3.052659871	-0.8125602376	-0.281603
C	-1.0100648259	-4.4900707723	-0.8629748104	 0.154291
O	-1.7283861827	-5.4472807892	-0.7194699125	-0.243395
O	 0.6984917543	-2.2296315149	-0.1107144212	-0.280748
C	 1.1816744278	-0.8988803942	-0.2617586338	-0.153353
H	 0.8145648396	 1.8792382396	 0.5873713562	 0.133677
H	 0.435126068	 1.7974183388	-1.1278358807	 0.133005
H	-0.8747133803	 1.9649344677	 0.0556869094	 0.132219
H	-2.0712836203	-0.4149175046	 0.4531039335	 0.103808
H	-0.8278881369	-2.6783820277	 1.210985372	 0.094645
H	-2.5525259473	-3.0430805422	-0.5836785046	 0.114971
H	-1.3259224539	-2.6016582815	-1.8013454489	 0.118413
H	 0.0795478942	-4.6068575913	-1.0436166589	 0.095468
H	 1.6224127319	-0.7706661471	-1.2632367739	 0.104961
H	 1.983754188	-0.7042714172	 0.4688311058	 0.10591
45.8328	68.5486	89.9311	140.2615	166.3462	237.2368	287.677	357.2163	419.1765	446.5874	536.8476	609.8202	752.837	815.7836	845.239	861.9038	905.7397	972.0926	997.9862	1001.653	1027.8136	1074.1038	1086.8609	1096.6976	1116.1762	1196.1832	1211.8027	1225.2792	1265.9108	1298.6141	1346.9418	1368.4521	1388.3124	1414.3917	1421.1004	1450.5328	1478.6596	1488.5557	1522.3903	1732.5591	1827.897	2913.4142	2959.0246	2969.7916	2987.4653	3022.1247	3028.4735	3068.6049	3101.371	3119.198	3211.9029
CC1=CC(CC=O)OC1	CC1=C[C@@H](CC=O)OC1	
InChI=1S/C7H10O2/c1-6-4-7(2-3-8)9-5-6/h3-4,7H,2,5H2,1H3	InChI=1S/C7H10O2/c1-6-4-7(2-3-8)9-5-6/h3-4,7H,2,5H2,1H3/t7-/m1/s1
