25
gdb 99762	1.75359	1.24804	0.91007	1.6599	85.44	-0.2541	0.0684	0.3226	1461.7913	0.225782	-426.623893	-426.612047	-426.611103	-426.660821	43.419	
C	 0.3786036355	 1.2622735081	-0.3822714545	-0.384981
C	 0.1200018177	-0.1919661636	 0.0429437123	 0.028755
C	 0.7850315809	-0.4268254574	 1.4102062744	-0.397555
C	-1.3847366482	-0.5847375269	 0.062702032	 0.065102
C	-2.1682003865	-0.0516583456	-1.1476092137	-0.111942
O	-2.5480585346	 1.2945625141	-0.8740467437	-0.424914
C	-1.5597870915	-2.1138487121	 0.1756918036	 0.103846
C	-2.9451321588	-2.54978839	 0.6597092215	-0.414166
O	-1.2648059572	-2.6517742806	-1.1168755571	-0.437044
H	 1.4559915489	 1.4616666262	-0.3834503177	 0.09563
H	-0.0042238508	 1.4832752473	-1.3802643074	 0.108579
H	-0.0958331091	 1.9663713674	 0.3087264338	 0.117488
H	 0.6031057609	-0.8501899193	-0.6919609196	 0.083488
H	 0.3343372414	 0.2183538597	 2.174340897	 0.111443
H	 0.7032944808	-1.4603350782	 1.7585300553	 0.108096
H	 1.8519662826	-0.1848914009	 1.36432198	 0.108811
H	-1.8480354649	-0.1312006234	 0.9492740225	 0.075859
H	-1.5492490441	-0.1200505271	-2.0527780283	 0.099235
H	-3.0587535113	-0.6680077679	-1.3275855557	 0.088296
H	-2.9515100821	 1.6556367842	-1.6688466844	 0.282324
H	-0.8263584529	-2.4946007498	 0.900606504	 0.065923
H	-3.7401724261	-2.2011594482	-0.0049924946	 0.126058
H	-3.0045468377	-3.6438392798	 0.7074477463	 0.101421
H	-3.1414628823	-2.16568556	 1.6659926503	 0.119357
H	-1.3489354809	-3.6087886661	-1.0680580065	 0.28089
43.2021	76.2997	123.3356	183.3159	197.6931	219.0168	234.7714	245.4019	258.2857	287.4842	299.2017	320.6743	353.3149	413.4777	418.0853	481.4733	494.0474	626.3558	803.3177	848.417	911.4177	931.2891	944.4481	962.9796	992.8237	1013.2426	1053.3897	1068.9906	1081.059	1138.4567	1163.4806	1182.8796	1194.4694	1205.6072	1258.1894	1274.0358	1303.7067	1335.7036	1358.1577	1369.7776	1389.9289	1401.3581	1408.0453	1419.888	1424.3969	1456.7779	1478.0894	1490.3393	1492.1243	1498.1112	1503.7166	1509.3842	1523.8372	2995.603	3001.5846	3011.7021	3023.0048	3027.1445	3028.2964	3034.4991	3037.3113	3089.1672	3092.0792	3099.6347	3103.1539	3119.2592	3127.3845	3823.4548	3826.1833
CC(C)C(CO)C(C)O	CC(C)[C@@H](CO)[C@@H](C)O	
InChI=1S/C7H16O2/c1-5(2)7(4-8)6(3)9/h5-9H,4H2,1-3H3	InChI=1S/C7H16O2/c1-5(2)7(4-8)6(3)9/h5-9H,4H2,1-3H3/t6-,7-/m1/s1
