25
gdb 121981	5.47258	0.49929	0.47736	2.8739	91.27	-0.2469	-0.019	0.2279	2352.2682	0.225722	-389.517146	-389.505407	-389.504463	-389.55574	40.924	
C	 0.1319618752	 1.5649654403	 0.1418380704	-0.380968
C	 0.0398069104	 0.0374517784	 0.0982039491	-0.161945
C	-1.3967544201	-0.4761793621	-0.0560426096	-0.17512
C	-1.4830964565	-2.0063852409	-0.10127173	-0.179529
C	-2.9119821462	-2.5790473007	-0.1410292699	 0.009377
C	-3.6830467002	-2.1621472399	-1.4025893408	-0.391744
C	-2.8736399621	-4.1181022688	-0.0119430101	-0.276203
C	-4.2406760893	-4.7141001313	 0.2292841669	 0.158766
O	-4.7504425168	-5.5846463448	-0.4281196481	-0.242459
H	 1.167551183	 1.9000706194	 0.2562766191	 0.112151
H	-0.2626362342	 2.0123414189	-0.7772864514	 0.114039
H	-0.4443300533	 1.972679032	 0.9799030805	 0.113545
H	 0.6505733293	-0.3435147601	-0.7310499663	 0.095628
H	 0.4776166087	-0.3831761574	 1.0132635235	 0.094237
H	-2.0061005178	-0.1016863255	 0.7789167616	 0.091052
H	-1.831910394	-0.0456195677	-0.9664928215	 0.09846
H	-0.925449779	-2.3779635099	-0.9729053291	 0.094909
H	-0.9691797272	-2.4122869287	 0.7807726019	 0.089426
H	-3.4515022928	-2.187705657	 0.7350841748	 0.075118
H	-3.1561655613	-2.492642299	-2.3056327227	 0.119082
H	-4.6828296944	-2.6075166635	-1.4265794463	 0.124803
H	-3.8043094984	-1.0774554697	-1.4623821727	 0.12023
H	-2.4374123564	-4.5847460509	-0.9012150698	 0.116786
H	-2.2506758677	-4.3881160803	 0.8535461997	 0.113094
H	-4.7773132091	-4.2727582807	 1.1042178107	 0.067265
44.082	51.1303	63.2741	97.1158	114.0874	137.3835	227.0182	236.5329	246.3289	275.2975	301.9015	402.9851	426.9915	491.542	534.6773	734.248	777.9533	786.6518	870.0568	904.5571	916.5645	932.2164	974.6353	1008.2468	1038.9181	1043.1627	1070.1817	1087.5889	1150.2769	1158.9774	1182.9494	1224.4543	1252.7098	1264.845	1298.7357	1318.0706	1332.6331	1355.5148	1374.9726	1382.4126	1399.7709	1413.1616	1418.9317	1430.9231	1459.8378	1480.5148	1485.8164	1497.5837	1499.5619	1500.2518	1504.4028	1512.895	1834.3212	2837.3681	2987.5649	3000.1489	3006.0386	3008.5651	3017.1462	3028.9723	3030.8923	3032.9609	3039.6566	3063.8957	3088.1987	3095.7575	3096.4829	3101.7306	3115.3351
CCCCC(C)CC=O	CCCC[C@@H](C)CC=O	
InChI=1S/C8H16O/c1-3-4-5-8(2)6-7-9/h7-8H,3-6H2,1-2H3	InChI=1S/C8H16O/c1-3-4-5-8(2)6-7-9/h7-8H,3-6H2,1-2H3/t8-/m1/s1
