17
gdb 121722	4.19629	0.6935	0.61379	3.2891	70.41	-0.2635	0.0077	0.2713	1760.018	0.134938	-492.317841	-492.307896	-492.306951	-492.354589	33.706	
O	 0.0991766287	 1.2375744893	-0.527219758	-0.42301
C	-0.1175210656	-0.1181064283	-0.1568095104	-0.077865
C	-1.5761147353	-0.2297654157	 0.2625863664	-0.148173
N	-2.4515225702	 0.1700858722	-0.8208071722	-0.363424
C	-3.4730979451	-0.5930089809	-1.2580024725	 0.546361
O	-3.8263135026	-1.6604284661	-0.8140189412	-0.405822
O	-4.0761637849	 0.0510277969	-2.3265650498	-0.23216
C	-5.1517964913	-0.5672225595	-2.8996322781	 0.121151
N	-5.7064789269	-0.0050169101	-3.8801424329	-0.433278
H	 0.9661134352	 1.3117877493	-0.935727565	 0.296189
H	 0.0776945484	-0.7983947025	-0.9985722462	 0.103107
H	 0.5268742098	-0.4160253528	 0.6839842991	 0.098398
H	-1.8261148912	-1.2577833063	 0.5311522743	 0.147961
H	-1.7445166149	 0.4061958775	 1.1411038535	 0.122976
H	-2.2455976364	 1.0297689664	-1.3045435554	 0.270684
H	-5.4027837299	-1.5099425564	-2.412370125	 0.141769
H	-6.488389978	-0.5741815931	-4.2005417467	 0.235135
30.0057	66.8195	96.6481	123.46	144.873	185.3797	264.664	294.152	331.4446	433.9843	506.8373	546.5063	563.9866	758.5045	771.2919	848.2878	874.9428	915.2081	992.0158	1060.6288	1071.2563	1096.2226	1107.696	1161.059	1216.2091	1241.147	1261.4045	1283.9928	1311.5314	1386.7346	1398.2347	1454.8805	1488.1506	1515.0277	1539.6585	1749.1249	1836.8786	2985.9025	3017.293	3037.7096	3129.6015	3136.1975	3508.476	3647.3254	3839.6537
OCCNC(=O)OC=N	OCCNC(=O)O[CH][NH]	
InChI=1S/C4H8N2O3/c5-3-9-4(8)6-1-2-7/h3,5,7H,1-2H2,(H,6,8)	InChI=1S/C4H8N2O3/c5-3-9-4(8)6-1-2-7/h3,5,7H,1-2H2,(H,6,8)
