16
gdb 24054	7.17316	0.74805	0.68304	1.5023	76.68	-0.2424	0.0025	0.2449	1562.5268	0.12406	-400.751465	-400.743064	-400.74212	-400.785939	30.135	
C	 0.0526704842	-1.2256481376	-0.0083848622	-0.42547
C	 0.083613792	-0.0465266069	 0.2221638879	 0.288272
C	 0.1429123668	 1.3864946515	 0.479634455	-0.353198
C	 1.1625738515	 2.0959240937	-0.4316445651	-0.322947
C	 1.2188115902	 3.5616125934	-0.1635196985	 0.415946
N	 0.5438997703	 4.2551998195	 0.6983614293	-0.306652
C	 0.9884921057	 5.561755598	 0.5241122931	-0.119574
C	 1.9233239655	 5.58236283	-0.4509528703	-0.041703
O	 2.0840630267	 4.3015533183	-0.9050963719	-0.183642
H	 0.0132764156	-2.2691861958	-0.1997903463	 0.194474
H	-0.844534457	 1.8387582017	 0.3369248173	 0.149961
H	 0.4038345486	 1.5732826467	 1.5269834745	 0.149943
H	 2.1582295852	 1.6598436339	-0.2902312286	 0.141284
H	 0.9063754361	 1.9260282243	-1.4837706016	 0.14129
H	 0.6007758773	 6.3779034245	 1.112374293	 0.125549
H	 2.5294884913	 6.3392705149	-0.9173498356	 0.146468
37.2422	60.4441	106.0141	210.508	250.6613	350.5616	382.8555	497.7339	619.0325	626.8911	647.6422	685.0403	757.0845	761.4857	782.4754	863.3143	932.2352	950.5682	980.5627	1039.8478	1042.0884	1107.255	1138.4097	1167.3306	1188.6028	1202.0874	1297.4937	1303.6884	1361.8501	1412.8403	1468.0272	1483.1839	1559.7461	1618.3809	2241.6153	3040.1686	3051.5052	3066.1604	3088.392	3265.6145	3302.1722	3507.2395
C#CCCC1=NC=CO1	C#CCCc1ncco1	
InChI=1S/C7H7NO/c1-2-3-4-7-8-5-6-9-7/h1,5-6H,3-4H2	InChI=1S/C7H7NO/c1-2-3-4-7-8-5-6-9-7/h1,5-6H,3-4H2
