19
gdb 59029	3.12529	1.16441	1.06593	2.6295	76.93	-0.244	-0.0026	0.2414	1217.789	0.158179	-423.011948	-423.003071	-423.002127	-423.046015	33.119	
C	 0.0244464613	 1.5735879789	 0.079061196	-0.402614
C	-0.0223684085	 0.0409541942	 0.0302544648	 0.00867
O	 0.72781428	-0.526533255	 1.1063824191	-0.42898
C	-1.4264171386	-0.4975226139	-0.0055690758	 0.356211
C	-1.9686638243	-1.2943677824	-0.9334693321	-0.203922
C	-3.4096883752	-1.6540816752	-0.6371780535	-0.289613
C	-3.6548060259	-0.9889338893	 0.7120083928	 0.047282
O	-2.825643425	-1.4717428199	 1.7697570274	-0.257111
C	-2.4319831132	-0.2578006538	 1.0854634898	-0.096791
H	 1.0648324855	 1.908289785	 0.1061217846	 0.126563
H	-0.4662803553	 2.0113464667	-0.7961532649	 0.11801
H	-0.4757999608	 1.9574956053	 0.9755200179	 0.109974
H	 0.4976783736	-0.296105326	-0.8733207805	 0.090531
H	 0.2229003939	-0.4112797401	 1.918845684	 0.286165
H	-1.4372117445	-1.6870967005	-1.7939603206	 0.100602
H	-4.0967921154	-1.2657205752	-1.4002245	 0.113451
H	-3.5662882802	-2.7385174601	-0.5895555488	 0.129011
H	-4.6518016347	-0.674246892	 1.0083354155	 0.096763
H	-2.4303389127	 0.6353791033	 1.7041341541	 0.095798
44.0351	107.9481	159.0839	202.0104	242.943	308.021	319.1001	352.2982	412.249	497.8466	595.5133	700.3445	742.7068	819.849	826.9838	862.7806	867.1362	905.4834	926.4365	954.5383	1001.2736	1012.2103	1037.4844	1079.1833	1087.6521	1103.5499	1183.296	1203.6482	1247.845	1256.7472	1291.3228	1310.8004	1346.2871	1375.0013	1396.1729	1408.7671	1417.0751	1460.0951	1488.5517	1494.0037	1695.4837	3026.3298	3031.5487	3049.3609	3062.9038	3101.3966	3120.5605	3145.2498	3157.2137	3188.5264	3805.8192
CC(O)C1=CCC2OC12	C[C@@H](O)C1=CC[C@H]2O[C@@H]12	
InChI=1S/C7H10O2/c1-4(8)5-2-3-6-7(5)9-6/h2,4,6-8H,3H2,1H3	InChI=1S/C7H10O2/c1-4(8)5-2-3-6-7(5)9-6/h2,4,6-8H,3H2,1H3/t4-,6-,7+/m1/s1
