19
gdb 31963	3.19246	0.98282	0.81655	1.9958	79.84	-0.2151	0.0223	0.2374	1447.88	0.160446	-419.252638	-419.243337	-419.242393	-419.288131	33.401	
C	-0.1653501341	 1.5907776518	 0.6210789207	-0.372332
C	 0.0912007986	 0.1395246036	 0.1758555696	-0.290177
C	 0.9452747081	-0.629806918	 1.1327314237	 0.341651
N	 2.2386106282	-0.8506403386	 1.0087488667	-0.302547
C	 2.6091589725	-1.5398450271	 2.1403495364	-0.181034
C	 1.5324033397	-1.7521381386	 2.9624502558	 0.256586
C	 1.3590291765	-2.4364080599	 4.2740776783	-0.19295
O	 0.6770100376	-1.6251193613	 5.2311209077	-0.418225
N	 0.4714560628	-1.1639107219	 2.2987427541	-0.323519
H	 0.7791216838	 2.1308724986	 0.731830298	 0.13563
H	-0.7795396923	 2.1189018338	-0.1145088082	 0.117313
H	-0.6876016063	 1.6278578161	 1.5829507766	 0.110124
H	-0.8665546945	-0.3763689985	 0.0320658653	 0.102934
H	 0.6065662849	 0.1338402955	-0.7879621658	 0.134924
H	 3.6293485861	-1.8584685692	 2.2975576535	 0.103897
H	 0.7351182724	-3.3336363456	 4.1798763657	 0.119589
H	 2.3433994375	-2.7647875017	 4.6365381992	 0.108445
H	 1.1916575358	-0.8171054255	 5.3352754136	 0.283673
H	-0.4655157273	-1.0970523134	 2.661704249	 0.266017
31.5481	63.3476	105.6229	175.8811	205.5888	257.6724	346.9846	372.9836	408.3475	469.7331	552.7293	615.4648	671.3475	749.5419	751.1453	788.8463	849.8314	959.5674	966.4441	1012.9732	1021.851	1055.4654	1070.1602	1082.7385	1176.8855	1197.1523	1213.1815	1267.6781	1298.8628	1346.8522	1357.1211	1403.5713	1412.8546	1418.0769	1457.8371	1478.3734	1496.9748	1499.9189	1504.7795	1540.6938	1621.8216	3007.2137	3030.8673	3036.7124	3050.0807	3093.8255	3111.6618	3121.0397	3240.8033	3655.2776	3801.7773
CCC1=NC=C(CO)N1	CCc1ncc(CO)[nH]1	
InChI=1S/C6H10N2O/c1-2-6-7-3-5(4-9)8-6/h3,9H,2,4H2,1H3,(H,7,8)	InChI=1S/C6H10N2O/c1-2-6-7-3-5(4-9)8-6/h3,9H,2,4H2,1H3,(H,7,8)
