15
gdb 15463	2.90738	2.05371	1.48311	3.0456	67.58	-0.2588	0.0152	0.274	870.1087	0.119582	-362.646951	-362.639658	-362.638714	-362.678654	27.23	
N	-0.0265366445	 1.2230818221	-0.4267339136	-0.533463
C	-0.0263278616	 0.0212379323	-0.0505579135	 0.416657
O	 1.0711106726	-0.6856867504	 0.3444209741	-0.236384
C	 0.7121659787	-2.0387229495	 0.6782139319	-0.081499
C	-0.6173593496	-2.2866067569	-0.0405492125	-0.241728
C	-1.2625272657	-0.8819485128	 0.0135816907	-0.249363
C	-2.0083106323	-0.6596942596	 1.2486156555	 0.348183
C	-2.6118690193	-0.5063463608	 2.2762394738	-0.482236
H	 0.915148942	 1.6161938536	-0.378013971	 0.224858
H	 1.5233457216	-2.6905525633	 0.3476449961	 0.123564
H	 0.6068954828	-2.1206091987	 1.7661531887	 0.126575
H	-0.4388983731	-2.5675361896	-1.0826032089	 0.120081
H	-1.2237765554	-3.0575764342	 0.4352225398	 0.126148
H	-1.9018665756	-0.6749552107	-0.8475365063	 0.135358
H	-3.1520221706	-0.3491215113	 3.176973345	 0.203249
88.6612	142.951	174.8996	253.7356	387.2469	431.875	504.7564	635.6641	641.2354	663.1212	672.2278	676.7948	841.8735	870.4795	892.2349	923.3076	958.462	997.1379	1040.9188	1095.2996	1126.4467	1187.9381	1216.2615	1264.1728	1278.4574	1317.7325	1343.7578	1405.4559	1489.015	1520.7835	1781.3463	2238.3041	3043.4325	3066.2715	3090.2886	3112.3967	3138.9668	3472.566	3503.9485
N=C1OCCC1C#C	[NH][C]1OCC[C@H]1C#C	
InChI=1S/C6H7NO/c1-2-5-3-4-8-6(5)7/h1,5,7H,3-4H2	InChI=1S/C6H7NO/c1-2-5-3-4-8-6(5)7/h1,5,7H,3-4H2/t5-/m1/s1
