17
gdb 72301	3.1636	1.85776	1.37992	1.7215	79.7	-0.1894	-0.0148	0.1746	928.147	0.136626	-384.621024	-384.614097	-384.613152	-384.651706	29.059	
O	-0.0579360779	 1.4007126644	-0.0446478295	-0.46414
C	-0.0436672474	 0.0141994342	-0.1060725817	 0.390222
C	 0.79310809	-0.642313999	-1.2128735631	-0.332223
C	 0.1916653656	-2.03918391	-1.2391108447	-0.100464
C	-0.8847666638	-2.1026226303	-0.4338603114	 0.072223
C	-0.876925776	-2.966630193	 0.7929782422	-0.165564
C	-0.5113212938	-2.1110575425	 1.765627656	-0.076352
C	-0.5631310153	-0.6769304054	 1.2946651992	-0.143079
C	-1.3228876157	-0.7067731555	 0.0041616504	-0.164001
H	 0.8308923632	 1.7030348946	 0.1704336838	 0.288129
H	 0.7189207019	-0.0388088762	-2.1312457992	 0.108899
H	 1.8632425839	-0.7233115515	-0.9756692654	 0.105703
H	 0.7982644637	-2.9029345633	-1.4931774783	 0.09308
H	-0.8921475191	-4.0465613771	 0.8357738773	 0.108309
H	-0.2379055457	-2.3859188923	 2.7779880972	 0.098637
H	-0.7556530739	 0.1103467538	 2.0165227666	 0.08876
H	-2.3186714297	-0.3069904308	-0.1673175596	 0.091863
222.7179	241.0886	292.3963	321.9229	372.901	445.9318	498.3354	556.0188	601.2228	647.119	719.2849	752.8992	786.9471	835.5282	850.5045	876.2316	903.3528	925.778	942.1059	962.7321	1022.5459	1028.4489	1074.8339	1099.3642	1113.7493	1158.7969	1163.9197	1219.8277	1255.4993	1287.9257	1296.4937	1316.8529	1334.9385	1436.1117	1482.0461	1582.3436	1623.9696	2978.164	3022.7567	3139.6775	3165.5592	3173.704	3195.7561	3237.8451	3805.6942
OC12CC=C3C=CC1C23	O[C@@]12C[CH][C]3C=C[C@@H]1[C@@H]23	
InChI=1S/C8H8O/c9-8-4-3-5-1-2-6(8)7(5)8/h1-3,6-7,9H,4H2	InChI=1S/C8H8O/c9-8-4-3-5-1-2-6(8)7(5)8/h1-3,6-7,9H,4H2/t6-,7+,8+/m1/s1
