17
gdb 107817	3.49853	1.53975	1.3377	2.291	71.54	-0.2295	-0.0013	0.2282	975.27	0.136383	-421.774258	-421.767091	-421.766147	-421.805714	29.109	
O	 0.0021432468	 1.3552790366	 0.2131168737	-0.419341
C	 0.0521520155	-0.0408628561	-0.0126127177	-0.17019
C	-1.3349199455	-0.6006842026	-0.1878210863	 0.3826
O	-2.1285725579	-0.3340418353	 1.075641408	-0.341795
C	-2.5905258077	-1.6592889092	 1.0215410755	 0.097078
C	-3.1089279331	-2.0564846209	-0.4177999686	-0.140598
C	-3.2868224538	-0.9317192941	-1.3660829536	-0.066622
C	-2.2334674989	-0.104988428	-1.2898980768	-0.147063
C	-1.6496571747	-2.1200841643	-0.0277526455	-0.227971
H	-0.587483184	 1.4858938691	 0.96566547	 0.299799
H	 0.6344807251	-0.197459575	-0.9273951173	 0.114049
H	 0.5588001768	-0.5692341626	 0.8093892349	 0.094548
H	-2.9958435867	-2.096659953	 1.925807043	 0.113337
H	-3.6910613924	-2.9683873252	-0.4734379567	 0.091535
H	-4.1867138281	-0.7725471175	-1.9474209669	 0.105429
H	-2.1094502229	 0.8577390659	-1.7659709694	 0.114867
H	-0.9797055587	-2.9657798778	-0.1206621263	 0.100338
97.4341	167.4162	278.8229	368.1402	411.8525	440.545	454.1348	610.4792	658.8608	680.7887	718.8266	748.8704	778.4501	808.2335	819.5781	849.2691	926.6909	934.6085	979.8705	988.6321	1019.0302	1043.2394	1059.5324	1081.6505	1093.4106	1114.9952	1157.8391	1206.4533	1237.6127	1269.1911	1312.1216	1363.7983	1373.2404	1387.3061	1435.113	1493.6882	1624.8156	2990.1125	3071.9138	3181.9324	3187.9847	3199.4979	3207.5819	3238.8004	3792.654
OCC12OC3C(C=C1)C23	OC[C@@]12O[C@H]3[C@@H](C=C1)[C@@H]23	
InChI=1S/C7H8O2/c8-3-7-2-1-4-5(7)6(4)9-7/h1-2,4-6,8H,3H2	InChI=1S/C7H8O2/c8-3-7-2-1-4-5(7)6(4)9-7/h1-2,4-6,8H,3H2/t4-,5+,6-,7-/m0/s1
