19
gdb 14552	4.04728	1.53234	1.4506	2.4962	70.97	-0.2344	0.0832	0.3176	954.3429	0.165881	-365.013453	-365.005473	-365.004529	-365.045507	30.638	
C	-0.2110739332	 1.6286983715	-0.1995216565	-0.47672
C	-0.1071096549	 0.1191606742	-0.1614907772	 0.30445
C	-1.2667938882	-0.5478490907	 0.5680106337	-0.106689
O	-1.2120599777	-0.2762440642	 1.9563955907	-0.423604
C	 0.5641699879	-0.7114656344	-1.1844341049	-0.076298
C	 1.7891586787	-0.0366705134	-1.8010823057	-0.265295
C	 2.3183363954	 0.116907072	-0.3534400739	-0.156958
N	 1.1337862249	-0.6070457887	 0.2304354112	-0.188467
H	 0.6460822729	 2.1195496659	-0.6619462008	 0.117896
H	-1.1018725296	 1.9204785137	-0.7664038035	 0.122038
H	-0.3256521735	 2.0120493775	 0.818845972	 0.138811
H	-2.2242443627	-0.1553050073	 0.2090987971	 0.103036
H	-1.2481157224	-1.6304532182	 0.37275204	 0.087637
H	-0.3334602984	-0.5670013662	 2.2326017609	 0.28938
H	 0.1250968492	-1.6361768645	-1.5495637578	 0.090019
H	 2.3933229681	-0.7210798564	-2.3987782364	 0.113946
H	 1.6067557772	 0.8694374311	-2.3857462975	 0.106328
H	 3.2219522816	-0.463942419	-0.1587287982	 0.1132
H	 2.4645661145	 1.1291904771	 0.0343406868	 0.10729
92.0259	158.5426	184.6513	256.6391	291.972	344.4064	360.9888	458.0165	493.2941	564.9576	661.2577	762.6338	787.4257	844.3256	861.0068	937.6688	954.8498	974.8881	990.5649	1024.8235	1049.1855	1079.5673	1103.6429	1111.0764	1150.9395	1211.2561	1217.5231	1232.3024	1266.925	1301.7501	1315.6579	1380.1372	1412.8456	1432.3329	1433.0554	1476.8045	1494.5702	1500.4575	1503.1294	1518.4282	2990.5835	3043.3099	3056.8169	3062.7269	3073.122	3104.0375	3105.5362	3123.6712	3138.1144	3144.1218	3774.7423
CC1(CO)C2CCN12	C[C@@]1(CO)[C@H]2CCN12	
InChI=1S/C6H11NO/c1-6(4-8)5-2-3-7(5)6/h5,8H,2-4H2,1H3	InChI=1S/C6H11NO/c1-6(4-8)5-2-3-7(5)6/h5,8H,2-4H2,1H3/t5-,6-,7?/m1/s1
