19
gdb 77512	2.39568	1.64005	1.45489	1.7367	75.68	-0.2316	0.0063	0.2379	1032.985	0.156599	-422.990953	-422.981996	-422.981051	-423.023769	34.737	
C	 0.0513800331	 1.5079478108	-0.0950033374	-0.520544
C	-0.0194270924	 0.0130034271	 0.0360193579	 0.314002
O	 0.3045077172	-0.7458003353	-1.1786665283	-0.348996
C	-0.3143396836	-1.8756592155	-0.469252561	 0.339306
C	-0.6546297647	-3.0712770031	-1.3126905796	-0.518743
C	 0.619822779	-2.0078839004	 0.753949701	-0.113977
C	 0.8189460103	-0.7352405372	 1.0910243157	-0.112319
C	-1.3497496256	-0.8348525165	 0.0545267994	 0.045042
O	-2.037991695	-1.1264807093	 1.2353102482	-0.426962
H	 1.0757062893	 1.8310525659	-0.3062930538	 0.134058
H	-0.5921142746	 1.8596767872	-0.9065377419	 0.124265
H	-0.2695881897	 1.985820486	 0.8366022126	 0.121713
H	 0.2532667773	-3.5377718129	-1.7076565296	 0.131284
H	-1.1882875084	-3.814407952	-0.7117444565	 0.130089
H	-1.2894383545	-2.7851007032	-2.1557564277	 0.124944
H	 0.9754403682	-2.9256322024	 1.1993649101	 0.106911
H	 1.3855776393	-0.296239071	 1.8995521128	 0.105393
H	-2.0209447469	-0.5111612884	-0.7511550779	 0.075932
H	-2.7964783881	-0.5394355298	 1.2991823259	 0.288603
161.8998	175.8082	185.5906	205.2041	219.2272	242.5656	276.2364	348.6916	374.0619	582.4672	589.8376	607.2093	611.7047	635.1423	727.2426	789.316	817.69	824.4987	870.0123	891.0054	895.6023	903.4984	1049.4855	1080.0895	1099.2781	1153.9894	1162.7936	1176.3662	1181.0828	1222.8634	1274.0248	1334.7137	1347.4581	1409.9251	1415.9675	1445.3407	1480.6226	1481.0456	1494.1491	1495.6107	1628.7586	3031.4844	3037.3304	3040.945	3106.2158	3111.3023	3113.6094	3118.2337	3223.4871	3251.7058	3836.4963
CC12OC(C)(C=C1)C2O	C[C@@]12O[C@@](C)(C=C1)[C@H]2O	
InChI=1S/C7H10O2/c1-6-3-4-7(2,9-6)5(6)8/h3-5,8H,1-2H3	InChI=1S/C7H10O2/c1-6-3-4-7(2,9-6)5(6)8/h3-5,8H,1-2H3/t5-,6+,7-
