12
gdb 48459	2.06607	1.54392	1.34796	5.1132	61.97	-0.2854	-0.0917	0.1938	1001.0512	0.074	-472.615069	-472.606698	-472.605754	-472.648917	28.361	
O	-0.9120426086	 1.1960142439	 0.6157766684	-0.203793
C	 0.1228957577	 0.8931607279	 0.0997889819	 0.128121
C	 1.3357314331	 1.8310570672	 0.0063569419	 0.028142
O	 2.5319752613	 1.1348441766	-0.3775622828	-0.296484
C	 2.7013134887	 1.8355254439	-1.6317108449	-0.186854
C	 1.4164282404	 2.617200043	-1.3752830837	 0.315123
O	 0.7483431387	 3.4214291993	-1.9242754597	-0.215147
C	 1.4926778979	 2.6782748479	 1.1796112134	 0.297809
N	 1.6376813125	 3.3647992819	 2.0974811546	-0.31006
H	 0.314665256	-0.0818160971	-0.3944288256	 0.118159
H	 3.6102201674	 2.4478029401	-1.6567095662	 0.166333
H	 2.6778951748	 1.1669771454	-2.4999023474	 0.158653
70.1758	96.4068	121.1401	161.3842	198.6398	289.8811	389.5452	448.8288	492.0193	545.6059	587.5264	686.962	744.0807	864.3332	949.192	997.9358	1017.0175	1047.8653	1095.4215	1136.4724	1173.854	1303.1231	1378.6833	1477.3077	1840.9422	1956.4231	2357.5035	2927.7308	3036.3781	3089.9017
O=CC1(OCC1=O)C#N	O=C[C@]1(OCC1=O)C#N	
InChI=1S/C5H3NO3/c6-2-5(3-7)4(8)1-9-5/h3H,1H2	InChI=1S/C5H3NO3/c6-2-5(3-7)4(8)1-9-5/h3H,1H2/t5-/m1/s1
