21
gdb 104626	2.39918	1.26357	0.98655	4.9596	83.09	-0.241	0.0278	0.2688	1298.9096	0.181844	-383.27361	-383.263774	-383.26283	-383.308223	36.478	
C	-0.0064401119	 1.355043673	 0.3881165271	-0.40014
C	-0.1924410532	-0.1500508688	 0.1776679624	-0.241409
C	-1.6414659284	-0.5677437124	-0.1344523787	 0.18608
C	-1.8969058894	-2.1095905106	-0.0860070388	-0.321614
C	-2.7383803591	-1.8539742484	 1.1941236644	 0.090885
C	-2.1584660364	-2.3702370459	 2.5042026063	-0.413651
N	-2.6349809313	-0.3885320068	 0.9557023887	-0.352031
C	-2.0802325367	 0.0731431158	-1.3876045068	 0.280452
N	-2.4058624705	 0.5617785321	-2.3834658638	-0.356045
H	 1.0395182267	 1.5843903017	 0.6099397935	 0.123102
H	-0.2955664212	 1.9166387842	-0.5048654513	 0.150612
H	-0.6077090523	 1.7261260937	 1.2253868026	 0.11768
H	 0.4450591762	-0.4923061256	-0.6467517358	 0.118514
H	 0.124646255	-0.7003386924	 1.0707353605	 0.103404
H	-2.4594548155	-2.4974298649	-0.9349865942	 0.129166
H	-0.9917826532	-2.7049822881	 0.0511489141	 0.112919
H	-3.7778934558	-2.1908437984	 1.1083832077	 0.08636
H	-1.1016963022	-2.103987548	 2.6146334914	 0.117502
H	-2.7048664901	-1.9564458322	 3.3592741844	 0.124889
H	-2.2398456467	-3.4614833164	 2.5567393834	 0.125564
H	-2.3052155642	 0.1647464284	 1.7398742731	 0.217761
71.3551	107.4685	153.5136	163.5183	200.6519	235.6034	254.3855	335.7128	344.6603	390.9261	421.3743	543.4108	575.5863	624.828	687.4503	774.3264	799.806	858.0844	906.6608	930.5794	947.4782	996.1732	1019.4732	1038.1881	1077.952	1122.6211	1148.6987	1174.1568	1191.5738	1221.568	1262.9635	1302.6876	1321.0839	1351.4659	1360.5126	1404.8329	1412.9458	1418.9209	1474.8663	1484.4797	1492.1135	1494.6479	1499.6972	1503.6807	2349.3785	3025.984	3029.0694	3031.7423	3038.5906	3070.6575	3080.8025	3095.8327	3101.3764	3104.92	3121.3371	3144.4208	3523.7096
CCC1(CC(C)N1)C#N	CC[C@]1(C[C@@H](C)N1)C#N	
InChI=1S/C7H12N2/c1-3-7(5-8)4-6(2)9-7/h6,9H,3-4H2,1-2H3	InChI=1S/C7H12N2/c1-3-7(5-8)4-6(2)9-7/h6,9H,3-4H2,1-2H3/t6-,7+/m1/s1
