16
gdb 43333	3.00475	1.53954	1.13495	5.1519	79.5	-0.2423	-0.0645	0.1777	1052.3318	0.126855	-400.743406	-400.736238	-400.735294	-400.775637	27.809	
O	-0.0135939107	 0.0845738021	-0.7235973206	-0.340659
C	-0.0183808896	 1.2020695574	-0.2254509346	 0.331126
C	-1.3234897777	 1.8699643631	-0.0099103671	-0.160613
C	-1.6370113795	 2.9786553649	 0.6706128226	-0.02201
C	-0.7871509195	 3.8261723867	 1.5282149419	-0.090457
N	-0.0377852764	 3.1796071482	 2.6222736597	-0.316292
C	 0.7213622326	 3.828895301	 1.5366029979	-0.090457
C	 1.5837609944	 2.9844690577	 0.688521506	-0.02201
C	 1.2818307852	 1.874667117	 0.0045762188	-0.160613
H	-2.1228544743	 1.3330666595	-0.5135680946	 0.113374
H	-2.6764007064	 3.2996487646	 0.6321561665	 0.106687
H	-1.234707106	 4.790890853	 1.7584111296	 0.095278
H	-0.0434379015	 3.7801583309	 3.4435775892	 0.241309
H	 1.1628450486	 4.7952187203	 1.7717423338	 0.095278
H	 2.6223482787	 3.3092129589	 0.6616193681	 0.106687
H	 2.0886799721	 1.3406683447	-0.4901498372	 0.113374
39.4058	230.9625	243.8695	314.0144	362.9961	482.2979	488.1172	509.7215	652.872	698.2256	736.9701	766.7934	820.2716	842.6201	860.6867	869.0811	951.0883	961.0262	977.809	1028.702	1029.8505	1114.957	1176.1409	1210.1562	1214.5365	1234.5421	1289.0341	1313.866	1417.0321	1425.5404	1449.2648	1468.0258	1698.9693	1703.8538	1725.6095	3117.0256	3124.9435	3142.7851	3144.6863	3174.513	3176.2652	3493.5618
O=C1C=CC2NC2C=C1	O=C1C=C[C@H]2N[C@H]2C=C1	
InChI=1S/C7H7NO/c9-5-1-3-6-7(8-6)4-2-5/h1-4,6-8H	InChI=1S/C7H7NO/c9-5-1-3-6-7(8-6)4-2-5/h1-4,6-8H/t6-,7+
