19
gdb 22488	3.03857	0.80292	0.67093	3.8364	76.76	-0.247	-0.0018	0.2452	1658.143	0.157305	-456.334972	-456.324579	-456.323634	-456.371812	36.198	
C	 0.4548323609	-0.120721482	-1.4919884454	-0.375946
C	-0.089661258	-0.1301006806	-0.0510138419	-0.273394
C	-1.5633401485	-0.4407927659	 0.0001990086	 0.340006
C	-1.9716514958	-1.8498463678	 0.3437201968	-0.203145
N	-3.4023365884	-2.0406815563	 0.2820654846	-0.279462
C	-3.9667759838	-3.2578948046	 0.4593452609	 0.153125
O	-3.3480225816	-4.276973569	 0.6921165778	-0.331431
N	-2.5012465751	 0.3923870327	-0.2362647185	-0.18021
O	-2.0199939118	 1.6711050181	-0.548443963	-0.399023
H	 1.5269254883	 0.0956466869	-1.4912761604	 0.12105
H	 0.3075108249	-1.0894683549	-1.9795324922	 0.122501
H	-0.0515168839	 0.6433999492	-2.0856873839	 0.142523
H	 0.451540619	-0.8716536419	 0.5461223991	 0.108468
H	 0.0763725037	 0.8499062058	 0.4054235346	 0.133791
H	-1.4667542971	-2.5515854819	-0.3353171598	 0.141259
H	-1.5910528622	-2.0954129542	 1.3463002225	 0.138259
H	-3.9610296902	-1.2261234706	 0.0777420149	 0.258422
H	-5.070619518	-3.2232903553	 0.367810467	 0.074537
H	-2.8323598525	 2.1732022825	-0.6719547117	 0.30867
26.0535	69.3923	99.6455	136.5491	214.0889	225.2432	234.3529	292.1462	296.3545	333.7227	396.9254	425.0807	546.6002	596.0151	636.926	753.2756	807.8799	865.5822	973.6496	986.2283	1019.0826	1035.2424	1044.2781	1091.1215	1104.0149	1205.8236	1238.7972	1244.8306	1292.066	1350.3717	1371.8732	1405.1149	1418.787	1424.4561	1484.2462	1495.1519	1500.1283	1509.9972	1516.446	1737.8407	1800.9581	2937.2974	3001.6622	3021.2783	3044.8843	3048.2843	3094.1311	3114.285	3135.7116	3622.9097	3822.0465
CCC(CNC=O)=NO	CCC(=NO)CNC=O	
InChI=1S/C5H10N2O2/c1-2-5(7-9)3-6-4-8/h4,9H,2-3H2,1H3,(H,6,8)	InChI=1S/C5H10N2O2/c1-2-5(7-9)3-6-4-8/h4,9H,2-3H2,1H3,(H,6,8)
