15
gdb 45771	3.07504	1.23882	0.95661	2.3506	72.55	-0.2514	-0.0198	0.2316	1188.5209	0.112407	-416.814646	-416.806437	-416.805493	-416.848475	29.57	
O	-0.1377852663	 0.0075217712	-0.5365297479	-0.369559
C	-0.1235256692	 1.1762746218	-0.2335072426	 0.398792
C	-1.2552151326	 2.1997385017	-0.111559083	-0.291299
N	-0.6365774587	 3.4652045146	 0.2947492319	-0.254603
C	 0.6129095697	 3.2219845417	 0.3891651671	 0.077211
N	 1.0107759079	 1.9183207384	 0.0965640717	-0.104621
C	 2.3542624743	 1.3613532446	 0.1226475196	-0.319216
C	 3.0484117359	 1.5998632791	 1.3843046759	 0.293987
C	 3.6249403158	 1.818979475	 2.4146572589	-0.435028
H	-1.7805697755	 2.308327871	-1.0665054899	 0.155401
H	-1.9955290458	 1.8708771444	 0.6256790787	 0.156603
H	 1.3611010958	 3.9502966737	 0.6834982231	 0.149812
H	 2.2266938019	 0.2881472569	-0.0605723642	 0.179566
H	 2.94757597	 1.761963632	-0.7097409107	 0.151371
H	 4.134408367	 1.9977130539	 3.3295553513	 0.211582
37.5575	89.3178	176.3613	221.5033	261.9207	325.9573	411.9747	463.7861	546.1344	601.6862	630.8188	675.2006	688.1822	749.792	885.1446	926.5198	945.2237	980.7398	988.0312	993.3259	1082.4492	1182.1225	1183.0695	1259.7665	1298.7426	1328.1539	1372.8468	1410.9252	1436.9843	1482.3227	1679.0181	1835.1766	2245.8988	3019.742	3056.1704	3071.4529	3091.812	3201.8365	3503.1747
O=C1CN=CN1CC#C	O=C1CN=CN1CC#C	
InChI=1S/C6H6N2O/c1-2-3-8-5-7-4-6(8)9/h1,5H,3-4H2	InChI=1S/C6H6N2O/c1-2-3-8-5-7-4-6(8)9/h1,5H,3-4H2
