13
gdb 130248	3.20152	1.48731	1.01798	5.3631	65.12	-0.2481	-0.0579	0.1902	1063.9849	0.090618	-486.071311	-486.063728	-486.062784	-486.103533	28.427	
N	 0.1128931047	 1.4254665581	-0.0026559544	-0.568025
C	-0.0070947714	 0.0444799621	-0.0182184395	 0.497247
N	-1.1724995239	-0.4704363394	-0.2249845736	-0.205851
O	-1.2024494094	-1.8887111549	-0.3934152268	-0.254771
C	-0.1467910266	-2.6915825002	-0.1412946698	 0.409315
O	-0.2637420405	-3.8848053398	-0.2041286776	-0.319395
C	 1.1801942208	-2.0403228735	 0.172215947	 0.250748
N	 2.2518800839	-2.6797532352	 0.3902652138	-0.504375
N	 1.1545582053	-0.6575526373	 0.1568380439	-0.376812
H	 0.6002291506	 1.7902308189	 0.8071631501	 0.263957
H	-0.7895450488	 1.869069856	-0.1195961131	 0.277675
H	 2.0490553513	-3.679217267	 0.33175027	 0.255147
H	 2.0402305141	-0.1739785178	 0.2127349801	 0.27514
104.1855	107.257	290.0379	324.5011	343.0693	368.3158	436.2374	479.7642	510.6963	566.2025	616.8179	649.6	681.2567	765.3676	787.8388	820.9471	919.7481	954.9113	1056.2938	1138.0542	1182.021	1201.657	1321.3415	1426.8065	1546.6999	1632.5618	1703.6911	1745.6961	1838.0585	3483.8749	3535.0324	3602.6404	3635.5257
NC1=NOC(=O)C(=N)N1	NC1=NOC(=O)[C]([NH])N1	
InChI=1S/C3H4N4O2/c4-1-2(8)9-7-3(5)6-1/h(H4,4,5,6,7)	InChI=1S/C3H4N4O2/c4-1-2(8)9-7-3(5)6-1/h(H4,4,5,6,7)
