19
gdb 117097	2.60287	0.90946	0.72305	2.9726	77.92	-0.2597	-0.0336	0.2262	1594.2815	0.155107	-423.010684	-423.000128	-422.999184	-423.047821	37.257	
C	-0.0434728711	 1.5380111281	-0.0629409913	-0.387795
C	-0.0105818289	 0.00932702	-0.0001137272	-0.164387
C	 0.6606501846	-0.6110564521	-1.2267626286	-0.290586
C	 0.7340930149	-2.1180065888	-1.1918704173	 0.351785
O	 0.3461443552	-2.7925716056	-0.2653228987	-0.315623
C	 1.3647011599	-2.8557096014	-2.4068527102	-0.107549
O	 1.4680479656	-4.2242410164	-2.126988029	-0.414572
C	 0.5726609106	-2.5853764595	-3.6130010867	 0.32837
C	-0.0839548157	-2.3635925837	-4.5949478026	-0.479277
H	 0.9673790588	 1.9577691127	-0.1156193014	 0.115606
H	-0.5930919212	 1.8899634685	-0.943036516	 0.117116
H	-0.5308266867	 1.9567186872	 0.8224308128	 0.119638
H	 0.5155035782	-0.3215300376	 0.9015440752	 0.115659
H	-1.0282526039	-0.3862861482	 0.0868909733	 0.116199
H	 0.1494499341	-0.3228821881	-2.1542424829	 0.146292
H	 1.6888813236	-0.2370635293	-1.3441693175	 0.128321
H	 2.3732170448	-2.4342169304	-2.5516927325	 0.118252
H	 0.9740316388	-4.343941721	-1.2975719858	 0.296739
H	-0.6571566216	-2.1790129944	-5.4700780137	 0.205811
25.5934	56.3028	90.1453	121.4804	162.5323	233.438	248.152	319.2145	321.8008	401.0482	407.0253	444.1877	558.0553	580.8742	628.2029	675.5476	705.7844	753.5382	827.986	897.4596	903.4689	973.3207	1040.9051	1051.615	1099.9478	1133.2576	1151.0094	1228.6611	1262.4892	1324.0817	1328.0802	1338.2573	1398.6588	1415.6061	1433.1005	1447.4016	1488.0827	1500.9267	1508.1426	1805.4831	2230.838	2970.9181	3012.7099	3030.8368	3049.3	3054.8854	3078.4939	3102.8791	3107.6898	3501.2622	3653.4589
CCCC(=O)C(O)C#C	CCCC(=O)[C@@H](O)C#C	
InChI=1S/C7H10O2/c1-3-5-7(9)6(8)4-2/h2,6,8H,3,5H2,1H3	InChI=1S/C7H10O2/c1-3-5-7(9)6(8)4-2/h2,6,8H,3,5H2,1H3/t6-/m0/s1
