17
gdb 20935	7.19843	1.07857	0.95216	2.5905	71.44	-0.187	0.0304	0.2174	1207.9672	0.144371	-360.053049	-360.045132	-360.044188	-360.085859	28.884	
C	-0.0312624588	 1.5318127576	 0.0363232722	-0.401185
C	-0.051230425	 0.0112554703	-0.0767477789	-0.107584
N	 0.8437420498	-0.4356127607	-1.1366427004	-0.405345
C	 0.8958935116	-1.8063337707	-1.4092453751	 0.252848
C	 1.422426115	-2.4257224068	-2.5310866843	-0.150936
N	 1.298839269	-3.7651052441	-2.3161061511	-0.172683
N	 0.7344100905	-4.0663940179	-1.1425536214	-0.229927
C	 0.4817826431	-2.8817253307	-0.5828430071	-0.070533
H	 0.9836473952	 1.8934108824	 0.2255408752	 0.129541
H	-0.3927389461	 2.0011255456	-0.8864417361	 0.113286
H	-0.6784005454	 1.866316459	 0.8517811455	 0.121228
H	 0.2934566691	-0.4298608108	 0.8664528584	 0.114291
H	-1.0863426828	-0.3422426496	-0.2278834336	 0.090739
H	 0.738704839	 0.1207836405	-1.9749353381	 0.22413
H	 1.8632554096	-2.0269910126	-3.4304363115	 0.118908
H	 1.5764750817	-4.5101846033	-2.9308688106	 0.27152
H	 0.0161035044	-2.8395443683	 0.389558057	 0.101702
66.7863	82.9029	147.6487	250.0552	318.0208	342.0461	423.7183	467.2923	590.7173	650.6727	690.2739	731.7073	761.6454	820.5267	847.9492	927.3366	948.8068	1015.3371	1066.7579	1081.8623	1151.7282	1170.0542	1174.5042	1271.3252	1290.4619	1320.8842	1370.883	1396.1249	1403.7801	1421.7864	1484.7076	1496.9494	1500.3471	1518.9435	1529.4897	1634.7702	2947.1747	3031.6618	3041.8481	3100.3377	3121.7296	3255.214	3262.016	3560.5564	3682.1693
CCNC1=CNN=C1	CCNc1c[nH]nc1	
InChI=1S/C5H9N3/c1-2-6-5-3-7-8-4-5/h3-4,6H,2H2,1H3,(H,7,8)	InChI=1S/C5H9N3/c1-2-6-5-3-7-8-4-5/h3-4,6H,2H2,1H3,(H,7,8)
