17
gdb 128541	1.97689	1.83049	1.00357	2.2323	71.35	-0.2061	0.0413	0.2474	1164.8065	0.135255	-455.150527	-455.141108	-455.140163	-455.184979	33.433	
C	-0.0288560477	 1.4741362877	-0.1357868824	-0.25256
O	-0.0045609141	 0.0941458741	 0.2201169555	-0.289304
C	-1.2070151145	-0.5535866825	 0.0870353605	 0.04201
C	-1.9498262666	-1.0096917391	 1.1571805142	 0.37875
O	-1.7497182186	-0.9201754412	 2.4869616869	-0.436198
N	-3.0158506231	-1.6531623534	 0.6422406599	-0.269093
N	-3.0164744157	-1.6476778899	-0.7210236246	-0.304831
C	-1.9154099198	-0.9840022179	-1.065091082	 0.274137
C	-1.5602171241	-0.7818670075	-2.5028694421	-0.496527
H	 0.9665543644	 1.8712636512	 0.0766227012	 0.128587
H	-0.2478098954	 1.609906556	-1.2018030681	 0.124236
H	-0.7768152657	 2.0243048734	 0.449742353	 0.114181
H	-0.8891386501	-0.499019618	 2.6088601629	 0.312557
H	-3.7471282002	-2.1257989078	 1.1439018893	 0.277161
H	-1.6990947666	 0.2595324686	-2.8170493555	 0.124811
H	-0.5132181696	-1.0417350007	-2.6906988002	 0.130754
H	-2.1964998628	-1.4103371928	-3.1297081685	 0.14133
62.7928	115.9317	152.3314	157.8124	194.072	248.3302	265.4116	342.8362	378.8522	438.5645	446.8856	550.891	578.7252	679.4606	699.4981	741.4127	797.271	994.1895	1042.036	1064.5687	1076.6094	1141.7048	1177.6818	1184.6954	1215.3362	1270.6049	1377.5811	1406.0022	1428.5948	1473.7653	1480.6895	1486.3177	1492.4113	1506.1376	1524.0055	1596.2033	1661.0042	3007.0464	3029.8571	3069.9223	3083.402	3122.4959	3130.9968	3685.7359	3789.4414
COC1=C(O)NN=C1C	COc1c(O)[nH]nc1C	
InChI=1S/C5H8N2O2/c1-3-4(9-2)5(8)7-6-3/h1-2H3,(H2,6,7,8)	InChI=1S/C5H8N2O2/c1-3-4(9-2)5(8)7-6-3/h1-2H3,(H2,6,7,8)
