20
gdb 88385	2.17924	1.44097	1.13865	4.3661	79.53	-0.231	0.0253	0.2563	1180.039	0.169441	-399.294714	-399.28463	-399.283686	-399.329398	37.292	
C	 1.6289622929	 0.9539677398	-0.9841504785	-0.335014
N	 0.8397378196	-0.1089106891	-0.3792739104	-0.080776
C	 1.5029254667	-1.2549098917	 0.2207779575	-0.267983
C	 0.728386645	-0.294218239	 1.0604462519	 0.013469
C	 1.3857642101	 0.5710356304	 2.1658866561	 0.039629
C	 1.034825288	-0.0682660396	 3.5291406741	-0.394686
N	 2.8394243431	 0.7629555267	 2.1338900526	-0.530019
C	 0.7684383565	 1.9153641748	 2.107472667	 0.311491
N	 0.2668002804	 2.954303443	 2.0428650385	-0.345126
H	 2.6697359289	 1.0187830846	-0.6313223095	 0.091573
H	 1.6649532255	 0.7809471732	-2.0643331747	 0.131979
H	 1.1404627663	 1.9164115408	-0.810242773	 0.153796
H	 1.0983002013	-2.23603559	-0.0168049093	 0.121661
H	 2.5896742685	-1.2227914784	 0.2992866126	 0.096389
H	-0.280963295	-0.5830603735	 1.3523004098	 0.103425
H	 1.4581352201	-1.0768823872	 3.5710754963	 0.123509
H	 1.4626902074	 0.528926266	 4.3357274711	 0.14783
H	-0.0457718156	-0.1414777281	 3.6676719065	 0.138268
H	 3.3049201856	-0.1383785654	 2.1560630211	 0.235608
H	 3.137300715	 1.2502996325	 1.2976110805	 0.244975
53.3846	126.0843	177.9452	187.0856	222.5285	246.7507	258.0416	282.0336	295.903	369.2109	398.1989	463.1549	486.1848	579.3269	628.1421	694.0571	765.1669	804.654	865.0196	923.466	955.5464	1008.6794	1032.7532	1043.2213	1091.1337	1131.7878	1140.036	1156.6206	1168.0506	1202.0854	1216.6173	1320.5862	1364.8842	1389.4012	1409.9821	1448.6232	1487.5327	1488.6945	1493.2045	1503.0466	1513.957	1651.7122	2356.5909	2979.7781	3049.0388	3071.6391	3082.7823	3103.4487	3118.1285	3126.4936	3151.1479	3166.2587	3515.4632	3610.7019
CN1CC1C(C)(N)C#N	CN1C[C@H]1[C@@](C)(N)C#N	
InChI=1S/C6H11N3/c1-6(8,4-7)5-3-9(5)2/h5H,3,8H2,1-2H3	InChI=1S/C6H11N3/c1-6(8,4-7)5-3-9(5)2/h5H,3,8H2,1-2H3/t5-,6-,9?/m0/s1
