21
gdb 113677	3.59033	0.86559	0.80216	2.7482	83.17	-0.2219	0.0182	0.2402	1549.8515	0.18147	-420.412071	-420.401673	-420.400729	-420.448425	36.695	
C	 0.8690986479	 1.644792794	 0.0129179037	-0.37359
C	 0.7261497186	 0.144695593	-0.2306425624	-0.128896
N	 0.7830393831	-0.5644067765	 1.0531769904	-0.086244
C	-0.4506352266	-0.7819628979	 1.7794162173	-0.240938
C	 0.278437506	-1.9392281043	 1.1740662597	-0.127512
C	-0.3737778772	-2.651747824	 0.0184091768	 0.433551
O	-1.2334245783	-2.143642213	-0.6869525574	-0.389251
N	 0.0848997434	-3.9232216291	-0.1717322171	-0.327978
C	-0.413285108	-4.7843474541	-1.2254031563	-0.334053
H	 1.7933638739	 1.8666398912	 0.5543364905	 0.12058
H	 0.8823218259	 2.1857743737	-0.938260216	 0.111676
H	 0.0306297596	 2.0271411108	 0.6045470139	 0.117088
H	-0.1928780773	-0.0722659316	-0.7875272586	 0.131146
H	 1.5676623844	-0.2164267704	-0.834225174	 0.09574
H	-0.4139614345	-0.6276172105	 2.8548742831	 0.111717
H	-1.3866155899	-0.5204357129	 1.2894109828	 0.135166
H	 0.8971069105	-2.5654572543	 1.8160218873	 0.077974
H	 0.8164236363	-4.2655432771	 0.4282537105	 0.248101
H	-1.2076780899	-4.241119564	-1.7382706635	 0.172809
H	 0.3731343974	-5.0308440113	-1.9479760768	 0.126795
H	-0.8187617853	-5.7168070218	-0.8176668737	 0.126117
44.4034	75.5328	82.9196	132.7775	157.7544	211.6033	239.4724	273.7481	320.9176	387.9241	401.4154	471.7412	506.4775	678.3384	731.9276	790.6826	814.9531	860.6006	904.5851	954.4063	1012.8074	1049.3499	1062.3682	1101.8636	1121.6782	1128.3733	1137.3883	1154.0829	1171.7424	1204.1197	1229.352	1309.0703	1334.0039	1383.3616	1403.6651	1410.5705	1439.4251	1487.5511	1490.0344	1492.3996	1499.9922	1500.6917	1519.9587	1560.0451	1758.4996	3026.1542	3027.2991	3037.6975	3066.0626	3079.1758	3095.1221	3102.0612	3106.8863	3116.983	3154.7801	3187.5558	3651.8916
CCN1CC1C(=O)NC	CCN1C[C@H]1C(=O)NC	
InChI=1S/C6H12N2O/c1-3-8-4-5(8)6(9)7-2/h5H,3-4H2,1-2H3,(H,7,9)	InChI=1S/C6H12N2O/c1-3-8-4-5(8)6(9)7-2/h5H,3-4H2,1-2H3,(H,7,9)/t5-,8?/m0/s1
