17
gdb 89650	4.90279	1.0291	0.98208	2.0523	68.41	-0.2528	0.0537	0.3065	1213.2699	0.13486	-458.891968	-458.883989	-458.883045	-458.924909	30.196	
O	-0.1469712619	 1.3904410047	-0.1977857563	-0.431733
C	-0.1899927921	-0.0062494208	-0.1769635998	 0.141053
C	 0.596093387	-0.7690360932	 0.9649179486	-0.361856
C	-0.7515391825	-1.3250691512	 1.4419093208	 0.435317
O	-1.5836653192	-0.1876567768	 1.7222434275	-0.302082
C	-1.4852409955	-0.6430331377	 0.3588240126	-0.085616
C	-1.0413991842	-2.600603245	 2.1429744191	-0.073202
C	-1.7929258832	-2.6357015178	 3.406833476	-0.171931
O	-2.4054035543	-3.0119607861	 2.1719062772	-0.22705
H	-0.5317508755	 1.6814172457	 0.639251063	 0.289501
H	 0.0874640135	-0.3575164703	-1.1733654608	 0.098864
H	 1.2739971787	-1.5301319768	 0.5701137724	 0.112382
H	 1.12425604	-0.1375277317	 1.6831256217	 0.110368
H	-2.412493183	-0.899685512	-0.1396888926	 0.117573
H	-0.3262619447	-3.3980336781	 1.9369889731	 0.097695
H	-1.6227559995	-3.4475710376	 4.1122132643	 0.117393
H	-2.1455146536	-1.6974066154	 3.8281257134	 0.133322
71.6009	109.8952	153.6073	235.7733	317.9551	376.3851	431.4411	491.497	513.757	632.1791	680.43	725.415	814.7934	858.6303	878.6505	889.6981	934.4221	947.362	989.8798	1009.6361	1052.8679	1098.9363	1119.3067	1122.2068	1156.951	1166.6899	1169.0227	1197.2328	1244.6121	1263.376	1282.7108	1313.5273	1401.3563	1436.6073	1459.7471	1487.8653	1521.4055	3064.0633	3092.5281	3093.7729	3105.6469	3125.7229	3191.1832	3196.0335	3770.2512
OC1CC2(OC12)C1CO1	O[C@H]1C[C@]2(O[C@@H]12)[C@H]1CO1	
InChI=1S/C6H8O3/c7-3-1-6(4-2-8-4)5(3)9-6/h3-5,7H,1-2H2	InChI=1S/C6H8O3/c7-3-1-6(4-2-8-4)5(3)9-6/h3-5,7H,1-2H2/t3-,4+,5-,6-/m0/s1
