14
gdb 123698	4.19483	1.63674	1.28416	4.018	66.42	-0.22	0.006	0.226	916.6415	0.104061	-432.824517	-432.818458	-432.817514	-432.854818	24.564	
C	-0.0010774602	 1.4805883093	 0.0978535632	-0.315157
C	 1.2928624127	 0.7308069401	 0.0197853099	 0.07449
O	 2.0118408028	 0.4439445281	 1.2458378765	-0.267838
C	 1.178243572	-0.3774814666	 1.9073252448	 0.454431
C	 0.0198497194	-0.7431733033	 1.2833887979	 0.232059
N	-0.6634703891	-1.5861496233	 2.0940755673	-0.286615
N	 0.0207715374	-1.7550702979	 3.1933552419	-0.13948
N	 1.1742754362	-0.9913168498	 3.0947788946	-0.343045
C	-0.0351636221	-0.0403228295	-0.0208799271	-0.197733
H	-0.2997619084	 1.922700779	 1.0417160403	 0.136156
H	-0.2610811684	 2.0585859853	-0.7826293726	 0.128603
H	 1.9761804069	 0.8454405249	-0.8106193386	 0.12198
H	 1.8390632444	-0.9942784526	 3.8498987145	 0.285709
H	-0.4034009236	-0.5130718839	-0.9230277525	 0.116442
162.4362	273.0857	383.3766	452.5255	461.7029	504.3509	628.9204	690.0651	709.0332	753.4816	779.6476	787.4355	812.7211	921.9899	944.1831	956.7484	1020.3559	1038.6636	1064.9372	1081.7999	1114.5795	1183.0635	1192.6814	1235.2314	1278.9467	1352.0881	1362.1472	1436.7569	1464.1096	1562.8094	1628.1246	3135.3683	3187.9111	3210.7213	3228.2313	3677.0601
C1C2OC3=C(N=NN3)C12	C1[C@H]2Oc3c(nn[nH]3)[C@@H]12	
InChI=1S/C5H5N3O/c1-2-3(1)9-5-4(2)6-8-7-5/h2-3H,1H2,(H,6,7,8)	InChI=1S/C5H5N3O/c1-2-3(1)9-5-4(2)6-8-7-5/h2-3H,1H2,(H,6,7,8)/t2-,3+/m0/s1
