20
gdb 12016	4.26639	1.37327	1.23838	1.5876	75.59	-0.256	0.0871	0.3431	1065.7689	0.175724	-348.976504	-348.967892	-348.966948	-349.009233	32.51	
C	 0.1764172469	 1.4962760986	-0.009487409	-0.467127
C	 0.0393472651	-0.0142561556	 0.0527284045	 0.340987
C	-1.1991853477	-0.5517050052	-0.6402400126	-0.447829
C	 1.2956255455	-0.8554895653	-0.0100787514	-0.336769
C	 0.5182970231	-0.7648699751	 1.2819783978	-0.070348
C	 1.0998384788	-0.0822111967	 2.4809870057	 0.052903
C	 2.4016181593	-0.4734613704	 3.0438445535	-0.174684
O	 2.2585815716	 0.7361801889	 2.2962972249	-0.228161
H	 1.0801458966	 1.8450720784	 0.4931631097	 0.147715
H	 0.2161483019	 1.8324887864	-1.0524318584	 0.10993
H	-0.6846548084	 1.9888927099	 0.45870613	 0.107632
H	-1.2007892651	-0.2823556348	-1.7032346116	 0.114272
H	-1.2573719776	-1.6429474322	-0.5737225169	 0.108845
H	-2.112696254	-0.140001833	-0.1945566399	 0.112426
H	 1.2718794038	-1.7890278066	-0.5625138829	 0.102135
H	 2.2443914776	-0.3303961144	-0.0385642456	 0.124999
H	-0.0769591015	-1.6347339219	 1.5542155684	 0.082091
H	 0.3726520079	 0.3502267751	 3.1713163246	 0.091942
H	 2.598954328	-0.3422286049	 4.1066662001	 0.11339
H	 2.975468648	-1.2568090813	 2.5514954593	 0.11565
89.8698	155.8889	161.6612	217.6353	243.0988	292.4836	327.2098	367.0526	378.1606	498.4521	593.1037	701.5756	749.7321	848.9203	872.3566	906.8275	925.4222	963.3363	975.0853	993.7083	1038.4462	1062.5782	1071.8967	1096.9172	1134.0301	1140.7497	1156.5068	1167.5198	1176.1574	1270.4951	1299.2798	1332.3095	1403.175	1412.3724	1425.5431	1433.7535	1483.3959	1485.5115	1494.1987	1506.1507	1515.365	1523.3417	3018.0036	3024.1815	3073.8253	3078.9099	3083.7427	3088.4447	3095.3065	3122.5017	3128.8425	3135.3014	3175.5865	3218.0171
CC1(C)CC1C1CO1	CC1(C)C[C@H]1[C@H]1CO1	
InChI=1S/C7H12O/c1-7(2)3-5(7)6-4-8-6/h5-6H,3-4H2,1-2H3	InChI=1S/C7H12O/c1-7(2)3-5(7)6-4-8-6/h5-6H,3-4H2,1-2H3/t5-,6+/m0/s1
