18
gdb 51817	4.33899	0.89753	0.78291	1.7668	73.68	-0.2499	-0.0286	0.2213	1416.9454	0.147865	-439.10895	-439.100393	-439.099448	-439.14347	30.616	
O	-0.5384704427	 0.6662461194	 0.8142293213	-0.237295
C	 0.0848334242	 0.9412003366	-0.1789635815	 0.150902
C	 1.3592561636	 1.7636049073	-0.1776179497	-0.297407
C	 1.3361154275	 2.9144875995	-1.184504917	 0.12224
C	 2.5819224251	 3.7952258334	-1.1439820154	-0.239667
C	 2.5099247757	 4.813211566	-2.2872202271	-0.166298
N	 2.1252491925	 4.2184153119	-3.5645648088	-0.26009
C	 1.5586349555	 3.0909209004	-3.5502761253	 0.130748
O	 1.1922039391	 2.3205516017	-2.4908612327	-0.246255
H	-0.2441602964	 0.5959258782	-1.1818296917	 0.098117
H	 1.5248163785	 2.14533704	 0.8336271983	 0.125754
H	 2.1936486872	 1.0988882845	-0.4404255643	 0.131116
H	 0.4473093905	 3.5385858557	-1.0117701222	 0.100282
H	 2.6574037088	 4.2918212989	-0.171330655	 0.111056
H	 3.4686369136	 3.1607205103	-1.261380633	 0.114677
H	 1.7958721813	 5.6125208643	-2.0480804568	 0.116826
H	 3.4792002815	 5.304661202	-2.4227972919	 0.117766
H	 1.2922915945	 2.5851656998	-4.4765695573	 0.127529
44.7912	75.1456	109.4307	172.7776	225.5319	331.7557	406.5119	450.6597	503.4708	532.5549	553.5691	783.6439	807.6007	832.2538	886.0093	939.0356	960.1379	973.342	1011.0755	1037.3135	1096.2972	1121.2168	1134.5442	1155.2964	1212.2073	1249.9384	1253.6569	1296.4077	1348.0001	1366.5778	1382.3172	1399.4025	1411.1454	1426.8457	1447.2483	1478.2339	1490.8379	1740.1825	1832.1886	2915.2595	3000.8239	3021.1108	3027.7559	3037.9124	3064.9111	3089.314	3108.3773	3160.5814
O=CCC1CCN=CO1	O=CC[C@H]1CCN=CO1	
InChI=1S/C6H9NO2/c8-4-2-6-1-3-7-5-9-6/h4-6H,1-3H2	InChI=1S/C6H9NO2/c8-4-2-6-1-3-7-5-9-6/h4-6H,1-3H2/t6-/m1/s1
