19
gdb 9371	4.43732	0.99042	0.86241	2.2862	71.55	-0.2483	0.0287	0.277	1368.5082	0.162821	-402.201197	-402.191094	-402.190149	-402.237535	34.176	
C	 0.0262078106	 1.4359120369	-0.0868085272	-0.326317
N	 0.0388194721	-0.0104313654	-0.050119682	-0.282761
C	-1.0422720394	-0.6635051042	 0.0073878934	 0.411304
C	-2.4682255644	-0.1610048601	 0.0533548254	-0.487684
O	-1.0215434046	-2.0210222335	 0.0382960471	-0.271616
C	 0.262803196	-2.6574199467	-0.0282012164	-0.063441
C	-0.0109822959	-4.1508251429	-0.0268962579	-0.067388
O	-0.7821417979	-4.5516693191	-1.1434241735	-0.421453
H	 0.6001163553	 1.8263785702	 0.7621443186	 0.126384
H	 0.5371400454	 1.7802238103	-0.9939060491	 0.127339
H	-0.9693220614	 1.9001148492	-0.0642944981	 0.100504
H	-2.7193476983	 0.3786036515	-0.8647500368	 0.146405
H	-3.1558875127	-0.9991435078	 0.1657681161	 0.13841
H	-2.6126422812	 0.5275065987	 0.8903895263	 0.146062
H	 0.775553526	-2.3462262339	-0.9437259271	 0.121513
H	 0.8763190502	-2.3524726421	 0.8264926092	 0.112059
H	 0.9400070914	-4.6904570438	-0.0852151815	 0.111596
H	-0.4980850034	-4.4313329443	 0.920797236	 0.091423
H	-1.5574267181	-3.9793897832	-1.1523103724	 0.287658
45.6011	59.8692	70.4475	98.9574	160.0183	192.461	275.5307	285.8131	323.9169	401.0767	457.2096	503.4125	575.3423	638.8944	800.6102	891.6428	904.4951	997.3964	1052.4778	1058.142	1096.6722	1121.231	1132.8245	1136.3291	1156.0105	1236.3314	1258.6669	1290.7373	1381.3431	1388.2743	1404.1041	1435.862	1449.1153	1478.0601	1479.9369	1496.9472	1499.0074	1500.343	1507.8249	1761.3037	2980.3966	3000.3297	3046.4488	3053.0841	3063.4331	3069.2618	3079.5981	3097.2623	3114.9745	3153.3932	3807.6391
CN=C(C)OCCO	CN=C(C)OCCO	
InChI=1S/C5H11NO2/c1-5(6-2)8-4-3-7/h7H,3-4H2,1-2H3	InChI=1S/C5H11NO2/c1-5(6-2)8-4-3-7/h7H,3-4H2,1-2H3
