16
gdb 31423	3.02418	1.29606	0.91251	3.3704	76.11	-0.2118	-0.0215	0.1902	1218.6479	0.126244	-437.9545	-437.946753	-437.945809	-437.98682	29.494	
C	 0.102033647	 1.3864034785	 0.0065084021	-0.247884
O	 0.0027047578	-0.030096205	 0.0034921459	-0.259
C	-1.2287120069	-0.5815645284	 0.0109209185	 0.458745
C	-2.4069650608	 0.1186808327	 0.0214286865	-0.436404
C	-3.68781238	-0.5507573385	 0.0288776421	 0.432512
O	-4.7900432413	-0.0255989407	 0.0384174169	-0.407359
N	-3.5861822496	-1.9604356957	 0.0242867926	-0.366623
C	-2.4176950296	-2.6550704865	 0.0138751155	 0.05002
C	-1.2239640069	-2.0129982752	 0.0069420433	-0.255948
H	 1.1687712855	 1.6130037655	-0.0007673247	 0.139375
H	-0.3715248635	 1.8197637631	-0.8821395201	 0.136098
H	-0.358328692	 1.815034584	 0.9043383768	 0.136095
H	-2.4468966121	 1.1981252426	 0.0247257193	 0.11018
H	-4.4742132327	-2.4410919767	 0.0294499161	 0.259885
H	-2.5022372002	-3.7350687047	 0.011527871	 0.136338
H	-0.2867056946	-2.549899115	-0.0013611216	 0.113969
112.3686	172.204	212.57	227.5432	265.3104	419.3418	431.965	492.8038	543.2719	559.2021	636.08	713.1085	740.2202	754.9575	779.7161	852.6269	930.1125	932.798	1001.7159	1056.4901	1110.2184	1178.7792	1203.2196	1207.6475	1242.1483	1267.0469	1349.8732	1437.2932	1471.1236	1490.602	1504.1472	1519.4712	1586.0193	1676.1202	1779.0538	3020.0104	3085.5575	3144.2272	3206.6451	3239.5576	3242.9454	3618.6609
COC1=CC(=O)NC=C1	COc1cc(=O)[nH]cc1	
InChI=1S/C6H7NO2/c1-9-5-2-3-7-6(8)4-5/h2-4H,1H3,(H,7,8)	InChI=1S/C6H7NO2/c1-9-5-2-3-7-6(8)4-5/h2-4H,1H3,(H,7,8)
