21
gdb 41901	2.12794	1.96789	1.71904	0.9777	76.46	-0.2432	0.0712	0.3144	960.6666	0.186684	-424.233632	-424.226268	-424.225324	-424.265161	30.132	
C	-0.0079405926	 1.5248547755	 0.1500921039	-0.222718
C	 1.4039677678	 2.1025934058	-0.0979111733	-0.217926
C	 2.4790921116	 0.9994070131	-0.0343659988	 0.09995
C	 2.1418800621	-0.0007102709	 1.0735239012	-0.101967
O	 0.8573002715	-0.610023088	 0.9372660861	-0.277988
C	-0.0105878797	 0.0014889151	-0.0206280752	 0.114073
C	 0.3498747902	-0.4527594295	-1.4587426524	-0.236527
C	 1.8479747509	-0.7068664649	-1.6361711529	-0.06317
O	 2.6779816127	 0.3982512132	-1.3137390066	-0.27505
H	-0.3327723187	 1.7429112071	 1.1730127448	 0.103906
H	-0.7489416419	 1.974405907	-0.5184616775	 0.09975
H	 1.4813173138	 2.5773899204	-1.0795926202	 0.110247
H	 1.6316884843	 2.8713815743	 0.6480608491	 0.098067
H	 3.4472611352	 1.4512927891	 0.209268698	 0.080618
H	 2.8870668981	-0.804613715	 1.1035793137	 0.110561
H	 2.1927374165	 0.5336806561	 2.0348002737	 0.095054
H	-1.0040005035	-0.3810046057	 0.2332656087	 0.076823
H	-0.1683666801	-1.3912213533	-1.6876508655	 0.10101
H	-0.0011666926	 0.2925114268	-2.1818953727	 0.099829
H	 2.1278250025	-1.5856411758	-1.0387075179	 0.102757
H	 2.0702952519	-0.9378024104	-2.6824681963	 0.1027
99.3419	240.3952	269.3104	290.6057	354.516	406.1136	428.3451	492.3019	555.6636	679.3918	751.2343	786.8549	788.2533	844.001	866.5168	903.3347	927.1871	958.1482	991.0134	1015.6148	1032.588	1073.9811	1094.2829	1106.129	1147.3593	1151.1456	1207.5436	1229.8143	1270.0799	1274.44	1287.6513	1310.7472	1346.9888	1350.7368	1364.2891	1370.0742	1384.8684	1389.5148	1411.1499	1421.9242	1475.1533	1477.3403	1496.2133	1505.9622	1517.7162	2985.5525	3007.7107	3030.5668	3035.4767	3041.0415	3048.17	3053.5476	3060.4846	3074.4824	3077.4032	3082.9182	3101.6278
C1CC2COC1CCO2	C1C[C@H]2CO[C@@H]1CCO2	
InChI=1S/C7H12O2/c1-2-7-5-9-6(1)3-4-8-7/h6-7H,1-5H2	InChI=1S/C7H12O2/c1-2-7-5-9-6(1)3-4-8-7/h6-7H,1-5H2/t6-,7-/m0/s1
