17
gdb 48781	3.56681	1.38218	1.21187	3.5834	73.5	-0.2373	-0.0343	0.2029	1038.5843	0.137652	-417.967664	-417.960457	-417.959513	-417.999189	28.489	
O	-0.0789464271	 0.1069778185	-0.5709903194	-0.28494
C	 0.0398485711	 1.0897671621	 0.1270215427	 0.062839
C	 1.2525524824	 1.9315778916	 0.149126603	 0.274219
N	 2.2250108182	 1.762766344	-0.9508881017	-0.338183
C	 2.6000114022	 1.2566026153	 0.3555040469	-0.067678
C	 3.4753118596	 2.1751370023	 1.2091547023	-0.22448
C	 2.6255275506	 3.4105862651	 1.5144613317	-0.039267
N	 2.2646982561	 4.2242650909	 0.3398975759	-0.30727
C	 1.2885468392	 3.257702835	 0.8743240648	-0.157141
H	-0.7776637368	 1.4125278685	 0.8076526854	 0.078972
H	 1.8804136075	 0.9817446638	-1.5128106726	 0.247789
H	 2.6468542907	 0.1809875618	 0.5022969618	 0.108764
H	 3.7343739776	 1.6662260738	 2.1432915319	 0.106445
H	 4.4033646493	 2.4348609466	 0.6915122584	 0.130634
H	 2.7497682914	 3.9064978105	 2.4724018113	 0.091255
H	 2.0086177346	 5.1596852514	 0.6486522206	 0.23243
H	 0.3746872134	 3.6139291589	 1.3392704869	 0.085612
126.3265	204.6095	214.4567	273.3453	351.7386	418.0901	441.845	563.5144	684.9061	721.547	744.7821	803.799	830.8956	852.1128	881.895	893.929	933.2343	979.2661	1003.8892	1035.9995	1052.752	1084.7503	1098.7752	1137.794	1162.8709	1198.9314	1206.2637	1244.5741	1263.7213	1291.9154	1336.5623	1372.8238	1421.4493	1426.0526	1446.7386	1465.8447	1788.9075	2896.7774	3053.9498	3101.4133	3151.3649	3152.8675	3163.0204	3449.5879	3492.2481
O=CC12NC1CC1NC21	O=C[C@]12N[C@H]1C[C@H]1N[C@@H]21	
InChI=1S/C6H8N2O/c9-2-6-4(8-6)1-3-5(6)7-3/h2-5,7-8H,1H2	InChI=1S/C6H8N2O/c9-2-6-4(8-6)1-3-5(6)7-3/h2-5,7-8H,1H2/t3-,4+,5-,6+/m1/s1
