18
gdb 38982	3.03014	1.74857	1.28124	1.4339	71.33	-0.2503	0.0784	0.3287	983.3775	0.150452	-439.036809	-439.029928	-439.028984	-439.067941	27.85	
C	-0.0164601911	 1.5280989297	-0.018841459	-0.268393
C	 1.5174138455	 1.5403952575	 0.0832076346	-0.090784
N	 2.1361906261	 0.8160033036	-1.032062439	-0.382479
C	 1.568662764	 0.0409740832	 0.0497595276	 0.329574
C	 2.3146166957	-1.012878663	 0.8081143914	-0.204074
O	 1.550865384	-1.3941006905	 1.952552658	-0.230619
C	 0.2197000373	-1.6810139503	 1.6198333554	 0.015675
O	-0.4978573504	-0.5468312623	 1.1899774412	-0.249363
C	 0.0321894002	-0.0279524713	-0.0197312745	 0.043632
H	-0.521821077	 1.8806439484	 0.881752779	 0.12961
H	-0.4434842627	 2.0204141594	-0.898210866	 0.098918
H	 2.1322417257	 2.2491192791	 0.6256866978	 0.1019
H	 1.5642638449	 0.8132561167	-1.8760249108	 0.226467
H	 2.4851076052	-1.8921516257	 0.1632545124	 0.095529
H	 3.2844684061	-0.6580344985	 1.1648907595	 0.125837
H	 0.1840003566	-2.4686378149	 0.8427354692	 0.074254
H	-0.2679988164	-2.029574267	 2.5317463028	 0.121386
H	-0.3986698536	-0.5563695341	-0.8845125397	 0.062929
155.1319	164.5504	309.2765	372.1396	411.7221	436.9569	468.7437	494.7792	618.7483	697.9277	778.966	819.139	902.5326	924.1571	938.6837	955.7171	987.859	1001.8495	1039.2339	1050.9785	1073.913	1108.8584	1130.1673	1144.7539	1182.4726	1203.1103	1233.3667	1252.4481	1263.4083	1282.8401	1311.4724	1323.2741	1351.9422	1374.9401	1440.126	1461.3505	1478.6652	1492.3856	1507.203	2919.7108	2961.3887	2978.5362	3054.6639	3101.0431	3119.6923	3129.6901	3183.1324	3447.2247
C1C2NC22COCOC12	C1[C@@H]2N[C@]32COCO[C@@H]13	
InChI=1S/C6H9NO2/c1-4-6(7-4)2-8-3-9-5(1)6/h4-5,7H,1-3H2	InChI=1S/C6H9NO2/c1-4-6(7-4)2-8-3-9-5(1)6/h4-5,7H,1-3H2/t4-,5-,6-/m0/s1
