21
gdb 94237	2.98993	1.12057	1.02846	2.595	78.93	-0.2518	-0.0343	0.2175	1273.1166	0.180197	-424.234747	-424.225135	-424.224191	-424.269122	36.075	
C	-0.1163918411	 1.5456407569	-0.0867844827	-0.408844
C	 0.082898878	 0.0395090644	-0.0416919809	 0.011331
C	 1.2012553579	-0.6168674522	-0.8997081469	-0.235542
C	 1.4838111093	-1.5914632686	 0.27329772	-0.267026
C	 0.739465152	-0.599947911	 1.2217350404	 0.41177
O	 1.6230786567	 0.3440578268	 1.7980344598	-0.492792
C	-0.1898452041	-1.1834668152	 2.2870901856	-0.373213
C	 0.5257984382	-1.859516817	 3.4315329904	 0.164384
O	 1.715462499	-1.7898433502	 3.6405942961	-0.257745
H	 0.8101239049	 2.0642226977	 0.1696860745	 0.13697
H	-0.4267401595	 1.8618997691	-1.0887670035	 0.107853
H	-0.8892575481	 1.8722811348	 0.6181141763	 0.106866
H	-0.8672627683	-0.4737142105	-0.2348734596	 0.061538
H	 0.9105523167	-1.0493380732	-1.8596885175	 0.091417
H	 2.0339101749	 0.072634481	-1.0590709904	 0.111469
H	 0.9484646939	-2.5396039722	 0.1609590039	 0.088565
H	 2.5250325811	-1.7992964885	 0.5276647989	 0.104737
H	 2.1392969049	-0.1463643114	 2.4529981139	 0.289231
H	-0.8069986144	-0.3863859563	 2.7311504475	 0.138427
H	-0.899720092	-1.9031806581	 1.8578615834	 0.117857
H	-0.1258736602	-2.4463942163	 4.1161419608	 0.092746
77.7762	104.2826	146.5239	163.6063	205.7914	240.0313	280.2764	345.6561	372.7018	418.9147	520.5692	571.3943	578.1223	668.0736	702.2437	771.5956	838.5361	888.799	893.9127	926.3026	952.6514	962.1606	980.3565	1015.78	1058.4445	1130.1811	1150.5894	1168.0206	1197.0292	1220.9355	1251.8805	1263.9001	1282.7947	1308.9889	1331.1085	1363.4508	1406.425	1411.2914	1424.33	1436.6407	1470.343	1489.8306	1491.9658	1501.2182	1806.5036	2888.028	3003.137	3024.9515	3033.0606	3046.0449	3053.4289	3064.8903	3089.325	3109.4294	3123.3682	3128.1772	3741.7773
CC1CCC1(O)CC=O	C[C@H]1CC[C@]1(O)CC=O	
InChI=1S/C7H12O2/c1-6-2-3-7(6,9)4-5-8/h5-6,9H,2-4H2,1H3	InChI=1S/C7H12O2/c1-6-2-3-7(6,9)4-5-8/h5-6,9H,2-4H2,1H3/t6-,7-/m0/s1
