15
gdb 123654	4.12638	1.60567	1.26198	5.1878	70.68	-0.2028	0.012	0.2149	942.3312	0.116742	-412.95215	-412.945898	-412.944953	-412.982556	25.632	
C	 0.0151830699	 1.4885461388	 0.0909274385	-0.300031
C	 1.31446067	 0.7228043372	-0.0020671744	-0.00842
N	 2.0653823514	 0.3587488402	 1.2127629904	-0.41341
C	 1.1679938929	-0.4037563533	 1.9539480288	 0.385455
C	 0.0085103666	-0.7300592166	 1.2987632647	 0.298485
N	-0.7187928248	-1.5717921175	 2.0674271322	-0.292265
N	-0.0752757807	-1.7800540222	 3.1837827726	-0.144604
N	 1.1036592668	-1.0551371553	 3.1240997048	-0.334034
C	-0.0246586216	-0.0271217756	-0.0084146526	-0.172572
H	-0.2693824037	 1.9410253792	 1.0349052113	 0.12023
H	-0.2660081512	 2.0550693079	-0.7903551215	 0.120799
H	 1.9256142576	 0.820233285	-0.8914386904	 0.107725
H	 2.5158706283	 1.1349527642	 1.6823184937	 0.246248
H	 1.7407111135	-1.0969851238	 3.9015767464	 0.275799
H	-0.405821295	-0.5015348385	-0.9040838945	 0.110596
163.4512	264.1479	368.4907	428.9682	456.2576	493.2432	583.5321	651.0799	689.3601	710.1006	763.429	792.4451	813.0026	838.9306	936.6525	951.6119	978.1296	1022.5157	1041.3384	1060.1749	1094.3807	1127.8591	1188.4256	1203.3151	1232.2153	1283.5593	1337.915	1360.6271	1372.8788	1443.3648	1468.5305	1554.1999	1621.7985	3130.3087	3177.9669	3190.6462	3221.7787	3552.5089	3674.7285
C1C2NC3=C(N=NN3)C12	C1[C@H]2Nc3c(nn[nH]3)[C@@H]12	
InChI=1S/C5H6N4/c1-2-3(1)6-5-4(2)7-9-8-5/h2-3H,1H2,(H2,6,7,8,9)	InChI=1S/C5H6N4/c1-2-3(1)6-5-4(2)7-9-8-5/h2-3H,1H2,(H2,6,7,8,9)/t2-,3+/m0/s1
