17
gdb 64994	3.69968	1.0162	0.85383	0.4823	73.11	-0.2488	-0.0251	0.2238	1340.7616	0.13521	-455.158749	-455.149582	-455.148637	-455.193403	33.033	
N	 0.0427742837	 1.4471096705	 0.0135640086	-0.570539
C	 0.0467004351	 0.011535461	-0.0111531498	 0.152549
C	-0.5086190169	-0.6924153317	 1.2226877069	-0.264163
C	-1.3161514999	-0.6730173139	-0.0300995107	-0.264161
C	 1.1252394755	-0.7436383306	-0.7180918461	 0.435229
O	 1.2143158452	-1.9421561668	-0.7938735694	-0.363108
O	 2.0318348292	 0.1227728001	-1.2894088273	-0.221337
C	 3.0889209445	-0.4168919661	-1.9788809755	 0.114956
N	 3.9144872277	 0.3760817765	-2.5000695932	-0.424305
H	 0.9006752405	 1.7958023076	 0.4310340081	 0.239252
H	 0.0215905757	 1.8168532371	-0.9323242498	 0.239262
H	-0.0345525117	-1.6232951548	 1.5081381413	 0.138365
H	-0.7985413939	-0.0300851604	 2.0289966247	 0.132083
H	-2.1607803728	 0.0026498308	-0.0843776663	 0.132085
H	-1.3934083067	-1.59065261	-0.5999545207	 0.138365
H	 3.0778413285	-1.5068419899	-1.9871881391	 0.145279
H	 4.6436757464	-0.1520039194	-2.9777270916	 0.240186
42.2348	112.2969	127.6617	152.6138	231.6954	297.7812	302.0916	329.3152	403.2342	431.9684	535.5387	606.5235	761.1837	794.5138	816.1727	854.3698	868.0932	880.0759	923.6983	965.4436	1019.8044	1049.8346	1069.4974	1073.986	1097.7419	1148.5	1206.5442	1264.2222	1278.9486	1309.9551	1343.4839	1387.8641	1439.7847	1476.8218	1670.882	1745.1657	1815.8001	3140.832	3151.4973	3153.0806	3244.2528	3257.3063	3496.4594	3505.6761	3565.9433
NC1(CC1)C(=O)OC=N	NC1(CC1)C(=O)O[CH][NH]	
InChI=1S/C5H8N2O2/c6-3-9-4(8)5(7)1-2-5/h3,6H,1-2,7H2	InChI=1S/C5H8N2O2/c6-3-9-4(8)5(7)1-2-5/h3,6H,1-2,7H2
