21
gdb 109069	3.45311	1.19195	1.15732	1.8144	83.28	-0.2297	0.0155	0.2452	1193.0949	0.184779	-387.097339	-387.0894	-387.088456	-387.129893	31.574	
C	 0.0796360883	 1.4976806904	 0.2644867409	-0.373716
C	-0.0567457771	 0.0170788301	-0.1334328566	-0.314229
C	-1.4729352443	-0.4670522014	-0.128034243	 0.367434
C	-2.2103154166	-0.9442702194	-1.1416469371	-0.209063
C	-3.5185009233	-1.426099651	-0.5400650302	 0.0716
C	-3.7413799796	-0.38232268	 0.5642957347	-0.222697
C	-2.3202749059	-0.6339795656	 1.1328031366	-0.150609
C	-2.432436049	-2.1747950811	 1.3477990615	-0.071541
O	-3.2247011185	-2.6244443457	 0.2441117259	-0.279396
H	 1.129784907	 1.8051064081	 0.262977553	 0.11469
H	-0.4647045069	 2.1400824534	-0.4344558234	 0.121683
H	-0.3201342724	 1.6817962057	 1.2668798405	 0.119433
H	 0.3745007069	-0.136664814	-1.1290641922	 0.105048
H	 0.5406694749	-0.5912702604	 0.5604439105	 0.105539
H	-1.8953961219	-1.095500646	-2.1668660711	 0.092782
H	-4.3375966499	-1.6669842496	-1.2152888851	 0.070832
H	-3.8744632373	 0.6333217659	 0.189299532	 0.100346
H	-4.5521376609	-0.6516470056	 1.2475365988	 0.097363
H	-2.0125028683	-0.0756341311	 2.0169708366	 0.06471
H	-1.4550716564	-2.6723062279	 1.3433646029	 0.094645
H	-2.9455346088	-2.4136438248	 2.2883133549	 0.095147
79.093	128.9223	199.3256	261.8	281.3329	376.2349	472.4875	484.34	579.5656	615.6427	730.4049	789.4765	807.7175	832.0883	847.5398	873.9733	879.628	941.4996	945.095	956.3748	975.3342	994.993	1031.4408	1058.9336	1066.7954	1092.294	1131.4157	1153.6081	1201.4472	1230.0415	1246.2796	1276.0093	1277.8519	1289.7772	1300.6646	1351.8748	1354.387	1368.4074	1410.5359	1477.8095	1486.7013	1498.862	1506.4486	1524.3057	1679.3544	3007.2923	3010.6562	3037.6112	3050.3559	3060.0288	3062.5331	3107.2466	3111.247	3117.224	3132.0147	3139.2064	3204.9017
CCC1=CC2CC1CO2	CCC1=C[C@@H]2C[C@H]1CO2	
InChI=1S/C8H12O/c1-2-6-3-8-4-7(6)5-9-8/h3,7-8H,2,4-5H2,1H3	InChI=1S/C8H12O/c1-2-6-3-8-4-7(6)5-9-8/h3,7-8H,2,4-5H2,1H3/t7-,8+/m0/s1
