20
gdb 59589	2.96367	1.15713	1.02807	2.0333	75.87	-0.245	0.0273	0.2722	1269.001	0.170308	-440.316909	-440.307456	-440.306512	-440.351369	34.769	
C	 0.0615909423	 1.5337265579	-0.0812107912	-0.408176
C	-0.0092270176	 0.0211432342	 0.135950069	 0.115999
O	 0.5026046257	-0.3528153074	 1.4061504688	-0.434177
C	-1.4253964978	-0.5336046766	-0.048288815	 0.089642
C	-1.5608367474	-2.0676799901	 0.1233937796	-0.209885
N	-2.5960491012	-2.2509908882	 1.1492897402	-0.298786
C	-2.8920538884	-1.0944187053	 1.5759380768	 0.396183
C	-3.8702978403	-0.7621844407	 2.6499525922	-0.471604
O	-2.2664393439	-0.0102225711	 1.015411657	-0.284995
H	 1.0809142775	 1.88803795	 0.0911481489	 0.125495
H	-0.2327654171	 1.800573796	-1.1017814218	 0.113893
H	-0.6106343624	 2.0527213294	 0.6099897232	 0.125885
H	 0.6364278694	-0.4816810251	-0.5951949223	 0.093591
H	-0.0987809067	 0.0199126544	 2.0622155522	 0.284334
H	-1.8439482294	-0.1828145297	-0.9990146526	 0.084062
H	-1.8515531307	-2.567793994	-0.8049744207	 0.110786
H	-0.62207275	-2.5139598152	 0.470170865	 0.128377
H	-4.3119829608	-1.6793208412	 3.0377797144	 0.154685
H	-3.3752074291	-0.2221284531	 3.4635140316	 0.139862
H	-4.6571477823	-0.1094713742	 2.2591249948	 0.144829
69.4213	84.415	142.2667	184.4542	242.2449	258.1688	269.2116	326.2945	377.0664	389.5165	488.0467	595.4493	614.738	694.0768	721.4631	821.4871	902.0837	942.259	957.7845	980.5247	997.8845	1041.36	1053.2663	1067.7819	1088.3773	1113.75	1152.981	1220.7376	1243.0282	1293.7022	1314.7351	1339.1911	1367.6513	1387.7558	1402.4931	1415.4944	1424.8586	1475.2595	1476.9411	1492.2137	1493.7641	1499.5677	1752.4491	3030.7562	3036.6846	3039.0474	3046.0204	3049.4829	3085.8906	3105.7557	3106.7972	3124.386	3166.6426	3788.7776
CC(O)C1CN=C(C)O1	C[C@@H](O)[C@H]1CN=C(C)O1	
InChI=1S/C6H11NO2/c1-4(8)6-3-7-5(2)9-6/h4,6,8H,3H2,1-2H3	InChI=1S/C6H11NO2/c1-4(8)6-3-7-5(2)9-6/h4,6,8H,3H2,1-2H3/t4-,6-/m1/s1
