15
gdb 15927	3.58923	1.92515	1.54333	3.9527	65.58	-0.2446	0.0054	0.2499	834.3284	0.120977	-358.796107	-358.789221	-358.788277	-358.827306	25.919	
N	-0.1137063062	-1.1596323079	-0.2638412558	-0.343427
C	-0.0579465106	-0.0168213375	-0.0952717717	 0.24528
C	 0.030042637	 1.4228609582	 0.0758625419	 0.186481
C	-0.421910258	 2.294774179	-1.1354785256	-0.215692
N	 0.7898250889	 3.1502151382	-1.0045853078	-0.31599
C	 1.3512905327	 2.2795285146	 0.0521934073	-0.068469
C	 0.9618621159	 2.776661376	 1.4613200269	-0.148496
N	-0.2512575968	 1.9097922717	 1.436548922	-0.363511
H	-0.473322978	 1.7207029709	-2.0668225799	 0.123834
H	-1.3682254725	 2.8298489669	-0.9967074188	 0.112874
H	 1.3502222336	 3.1619605883	-1.8478010808	 0.232065
H	 2.3466606914	 1.8687578913	-0.1155291455	 0.096933
H	 1.6415719226	 2.4970511833	 2.2732569898	 0.114391
H	 0.7799705274	 3.8550069977	 1.4862298449	 0.114936
H	-1.1454099474	 2.3737912893	 1.5531129732	 0.228789
98.6156	157.5524	189.8372	334.6411	394.8982	504.4045	557.9545	580.1664	607.7069	703.4989	779.3074	844.2304	903.5669	943.4074	976.9297	1003.978	1017.2964	1049.4988	1068.7546	1112.3772	1144.4952	1157.3024	1192.3333	1250.2024	1287.1879	1321.6785	1352.781	1372.2204	1395.9992	1503.0527	1504.3621	2348.684	3027.6277	3036.5343	3077.8605	3092.79	3119.1306	3535.8839	3553.9346
N#CC12CNC1CN2	N#C[C@]12CN[C@H]1CN2	
InChI=1S/C5H7N3/c6-2-5-3-7-4(5)1-8-5/h4,7-8H,1,3H2	InChI=1S/C5H7N3/c6-2-5-3-7-4(5)1-8-5/h4,7-8H,1,3H2/t4-,5-/m0/s1
