21
gdb 65030	2.43134	1.50037	1.31772	1.2342	77.49	-0.2385	0.0704	0.309	1101.432	0.179961	-424.194423	-424.184672	-424.183728	-424.229178	36.392	
C	-0.1953632625	 1.6346409059	-0.4300119946	-0.441523
C	-0.0401583881	 0.1577270119	-0.1016383962	 0.405059
C	 1.0032763703	-0.6273419876	-0.939289527	-0.318617
C	 1.7560942657	-0.7809035338	 0.3940008231	-0.072778
O	 0.7440534344	-0.0363077367	 1.108380778	-0.329242
C	-1.3901717257	-0.5312230989	 0.0212408364	 0.386431
O	-2.0383727843	-0.4632328449	-1.2255907289	-0.487487
C	-1.5537370906	-1.7455155431	 0.8901034854	-0.341407
C	-2.1709761561	-0.4138014223	 1.2986276014	-0.336352
H	 0.784549249	 2.1091951682	-0.5323573765	 0.10871
H	-0.7525709464	 1.7563541373	-1.3624944229	 0.135031
H	-0.7432451425	 2.1429848209	 0.3695618942	 0.120965
H	 0.6277999575	-1.5500884805	-1.3815443986	 0.117153
H	 1.5150948922	-0.039911396	-1.7030243801	 0.10615
H	 1.851680765	-1.8057230708	 0.7727515783	 0.100206
H	 2.7344431155	-0.2897636782	 0.4549558727	 0.102397
H	-2.9126349572	-0.8552754926	-1.1426471448	 0.28253
H	-2.2194426745	-2.5264216684	 0.5344065061	 0.099749
H	-0.7045844097	-2.0954208648	 1.4647239156	 0.127791
H	-1.715905481	 0.110018544	 2.1317371051	 0.132855
H	-3.2489044211	-0.3033556698	 1.2257911133	 0.10238
58.7825	87.4101	96.6605	192.3943	222.3753	237.2112	294.8179	335.2379	343.1438	427.6454	478.7602	525.1904	586.8621	764.8331	778.8018	799.0861	868.4037	877.1027	901.2057	935.584	958.2284	973.4777	985.55	1005.459	1022.7359	1053.0806	1071.9129	1116.6593	1157.764	1167.8124	1188.4302	1207.2765	1216.4703	1253.5029	1267.2543	1301.3651	1352.4147	1400.8817	1433.425	1445.7317	1482.0951	1488.5529	1491.7043	1498.6561	1530.93	3017.5593	3042.0766	3056.7441	3086.2768	3113.3585	3124.0517	3128.2954	3128.9326	3143.9893	3212.4125	3226.1112	3830.8622
CC1(CCO1)C1(O)CC1	C[C@]1(CCO1)C1(O)CC1	
InChI=1S/C7H12O2/c1-6(4-5-9-6)7(8)2-3-7/h8H,2-5H2,1H3	InChI=1S/C7H12O2/c1-6(4-5-9-6)7(8)2-3-7/h8H,2-5H2,1H3/t6-/m0/s1
