23
gdb 61163	2.89478	0.94124	0.86425	1.6415	87.85	-0.2555	0.0492	0.3047	1479.6769	0.201108	-388.263742	-388.252267	-388.251323	-388.299984	42.72	
C	-0.0151985977	 1.5315523968	-0.0021610501	-0.414032
C	-0.006000298	-0.0083178044	 0.0646683908	 0.263092
C	 0.7202154163	-0.4518286967	 1.3477726211	-0.42715
C	-1.4613999741	-0.5117574218	 0.0860276059	-0.420182
C	 0.7291844338	-0.5254374346	-1.2096635819	 0.135252
O	 2.0480223875	-0.0035104626	-1.30355489	-0.433637
C	 0.7389693404	-2.0644522595	-1.3650474046	-0.429787
C	 1.3839056031	-2.5064153075	-2.5952266761	 0.318163
C	 1.9074838034	-2.8726310616	-3.6128991424	-0.436362
H	 1.0006561589	 1.9225808123	-0.0890111602	 0.130229
H	-0.5857150841	 1.8826064436	-0.8694666609	 0.107137
H	-0.4787933501	 1.9540202049	 0.8955195908	 0.103099
H	 0.2272081481	-0.0287128078	 2.2288797862	 0.11635
H	 0.7223876051	-1.5400139542	 1.4710494398	 0.110087
H	 1.7573772472	-0.1014691425	 1.3572608196	 0.109526
H	-1.9699764583	-0.2989961175	-0.861550085	 0.113502
H	-1.5299235674	-1.5880401469	 0.2725259912	 0.112056
H	-2.0240156929	-0.0093890734	 0.8798822941	 0.113042
H	 0.2059622074	-0.109201489	-2.0793471902	 0.093659
H	 2.6264984583	-0.5335100748	-0.7456034169	 0.282238
H	 1.2496356532	-2.5160492739	-0.5030599196	 0.122635
H	-0.2882859198	-2.4429913824	-1.3396656637	 0.137497
H	 2.3732156998	-3.1922664465	-4.511737048	 0.193587
50.9479	70.7137	126.5413	186.6059	216.2529	245.7985	257.4604	267.3686	293.441	324.6402	345.4829	354.927	377.685	388.8286	457.9383	544.8338	545.4401	618.4447	635.1241	769.6058	857.9722	910.7416	937.0337	939.7138	957.3647	959.6163	1023.5809	1037.279	1047.6442	1102.2063	1189.3227	1207.2863	1244.6167	1267.6718	1315.0345	1323.5313	1371.3824	1395.2819	1400.5664	1416.3258	1432.3525	1468.4361	1481.5601	1485.8501	1492.8598	1507.0054	1510.6004	1522.3543	2241.1089	3011.9343	3025.1959	3029.7528	3034.9975	3039.2156	3073.5865	3090.1543	3093.9343	3097.2784	3101.2223	3102.6897	3130.4272	3507.3795	3814.1061
CC(C)(C)C(O)CC#C	CC(C)(C)[C@@H](O)CC#C	
InChI=1S/C8H14O/c1-5-6-7(9)8(2,3)4/h1,7,9H,6H2,2-4H3	InChI=1S/C8H14O/c1-5-6-7(9)8(2,3)4/h1,7,9H,6H2,2-4H3/t7-/m0/s1
