16
gdb 77802	2.62996	1.39876	1.09117	3.5336	71.21	-0.259	-0.0544	0.2045	1113.6196	0.122192	-437.878461	-437.870052	-437.869108	-437.911658	30.763	
C	 0.0265894213	 1.5669517965	-0.0956153838	-0.425286
C	 0.0327631319	 0.0700398174	 0.1099116564	-0.034171
N	 1.2178798704	-0.7868546976	-0.1479568535	-0.222523
C	 2.3859888032	-0.0745289642	 0.37417516	 0.414607
O	 3.3824084609	 0.213251533	-0.2068142039	-0.285348
C	 1.8799475835	 0.0155354445	 1.8171113038	-0.447859
C	 0.6039145488	-0.6288203063	 1.2881723774	 0.215685
C	-0.0450613808	-1.8077033807	 1.9019937032	 0.086621
O	 0.1817169938	-2.1849144071	 3.0245988422	-0.250645
H	 0.8964330622	 2.0653487431	 0.336792467	 0.141579
H	 0.0100721843	 1.7922145726	-1.1661943009	 0.150224
H	-0.8734054754	 1.9964540533	 0.3549646236	 0.138503
H	-0.8497825168	-0.4191353693	-0.3010490025	 0.118999
H	 2.4291873585	-0.6524904328	 2.4848458766	 0.168363
H	 1.8184002679	 1.0066468174	 2.2705644151	 0.141379
H	-0.7667543139	-2.3309975696	 1.2371461194	 0.089871
85.4213	126.5593	184.8504	191.6347	230.9491	278.1509	365.6651	453.8357	492.5687	508.0746	602.7625	625.5701	699.4707	740.8912	835.4229	889.3837	954.8488	1002.757	1030.737	1040.6356	1051.2497	1117.1335	1123.9623	1178.4726	1213.5198	1297.6251	1327.9563	1410.557	1421.796	1439.8371	1460.6787	1488.506	1499.4528	1812.8559	1923.5946	2896.5201	3048.8693	3081.0884	3114.7119	3114.8426	3134.8021	3138.0469
CC1N2C(=O)CC12C=O	C[C@H]1N2C(=O)C[C@@]12C=O	
InChI=1S/C6H7NO2/c1-4-6(3-8)2-5(9)7(4)6/h3-4H,2H2,1H3	InChI=1S/C6H7NO2/c1-4-6(3-8)2-5(9)7(4)6/h3-4H,2H2,1H3/t4-,6-,7?/m1/s1
