15
gdb 128546	3.04323	1.28796	0.91546	2.723	67.17	-0.2124	-0.0246	0.1878	1230.803	0.11024	-491.029902	-491.020921	-491.019977	-491.064832	30.449	
C	 0.0017750479	 1.4710376217	 0.0047799791	-0.2553
O	-0.0464803081	 0.0377063891	 0.0328629619	-0.255212
C	 0.4538590312	-0.5964957639	-1.0157098548	 0.418705
C	 0.5429743904	-1.9476872554	-1.2633832846	 0.224071
O	 0.1271451049	-2.9472849374	-0.466930636	-0.270283
C	 0.3446998561	-4.2619554135	-0.9738361924	-0.245217
N	 1.1346680936	-2.0826320065	-2.4731378894	-0.19001
N	 1.4169226852	-0.9605418961	-2.991786124	-0.057254
O	 0.9747180004	 0.0571294703	-2.0426535799	-0.229217
H	 1.035683874	 1.8223874763	-0.0573479999	 0.149576
H	-0.5660874773	 1.8608800668	-0.8448316334	 0.14957
H	-0.4508366064	 1.7949995921	 0.9412053246	 0.150118
H	-0.1862688492	-4.4133843429	-1.9199310932	 0.137032
H	 1.4114489263	-4.4514304962	-1.1353984613	 0.137065
H	-0.0444690587	-4.9403879442	-0.2141393368	 0.136354
41.4556	74.3922	154.2929	154.9445	175.7632	256.2202	275.3517	362.7632	379.5414	548.5323	611.442	659.5674	670.0996	710.7338	773.9333	982.2979	1028.982	1070.8651	1176.1142	1180.3281	1199.7234	1213.7087	1273.2257	1318.522	1395.8293	1428.7926	1477.3513	1482.2983	1485.8712	1497.4935	1502.5473	1523.229	1704.1129	3028.3193	3044.302	3093.5958	3118.5594	3149.4381	3165.1847
COC1=C(OC)N=NO1	COc1c(OC)nno1	
InChI=1S/C4H6N2O3/c1-7-3-4(8-2)9-6-5-3/h1-2H3	InChI=1S/C4H6N2O3/c1-7-3-4(8-2)9-6-5-3/h1-2H3
