18
gdb 19840	3.24606	2.46402	1.76114	1.7786	69.87	-0.2532	0.0839	0.3371	795.831	0.156812	-347.788896	-347.782562	-347.781618	-347.818995	26.137	
C	-0.0543824312	 1.5105032914	-0.0210954979	-0.297072
C	 1.2910401507	 0.8271153974	 0.0177217776	-0.028164
C	 2.1353935259	 0.8364624661	 1.2907050017	-0.22818
C	 2.1384024125	-0.5219004509	 2.0177479099	-0.237878
C	 0.7337358279	-1.0339577281	 2.2587335885	 0.061159
O	-0.2719201034	-0.0396481443	 2.5103734599	-0.260469
C	-0.3182929911	-0.753888808	 1.2675537729	 0.034233
C	 0.0188227892	 0.0045225388	 0.0182782345	-0.030897
H	-0.3834449486	 2.0069170373	 0.8852520398	 0.129093
H	-0.3743037836	 1.9797990157	-0.9447380246	 0.106658
H	 1.851939545	 0.8227253261	-0.9116123206	 0.081293
H	 3.1650101665	 1.115804362	 1.0476945236	 0.095477
H	 1.7601804384	 1.5949053694	 1.9834958125	 0.117122
H	 2.67896759	-1.2775334824	 1.4310819849	 0.101761
H	 2.6691126829	-0.4295310499	 2.9727818745	 0.103456
H	 0.6442083173	-1.9246920795	 2.8813094758	 0.084454
H	-1.1599928764	-1.4423636612	 1.1898994585	 0.087405
H	-0.235687272	-0.5279066602	-0.8933898615	 0.08055
179.4037	214.6646	339.2724	374.7152	471.6495	479.3002	601.187	669.0904	752.8619	778.5401	795.5323	829.9627	876.7358	915.2852	935.2199	966.7363	971.748	1027.5847	1063.586	1071.5415	1093.4535	1098.3753	1126.8343	1132.1389	1156.5817	1221.5594	1234.3762	1254.7926	1284.7959	1344.9603	1366.1015	1387.4294	1394.0462	1411.5786	1462.3851	1473.699	1486.8284	1496.0037	3017.2268	3049.9205	3061.0139	3093.4614	3098.0834	3110.4732	3134.6264	3145.7423	3155.5685	3225.6433
C1C2CCC3OC3C12	C1[C@H]2CC[C@H]3O[C@H]3[C@@H]12	
InChI=1S/C7H10O/c1-2-6-7(8-6)5-3-4(1)5/h4-7H,1-3H2	InChI=1S/C7H10O/c1-2-6-7(8-6)5-3-4(1)5/h4-7H,1-3H2/t4-,5+,6-,7+/m1/s1
