23
gdb 104339	2.96589	1.24508	1.11365	1.054	86.51	-0.2404	0.0266	0.2671	1238.7532	0.20547	-388.308328	-388.298951	-388.298007	-388.341823	36.689	
C	 0.0762934842	 1.5566554267	 0.0233872933	-0.398035
C	-0.0474691882	 0.0309229268	 0.0642127643	-0.19622
C	-1.479976779	-0.5148424233	-0.0587334708	 0.369391
C	-2.1716194905	-0.0209363688	-1.3411292417	-0.437021
C	-1.4598883291	-2.0587071773	-0.014686144	-0.277469
C	-2.7933622538	-2.6267992162	 0.3917621587	-0.068697
C	-3.7301094912	-1.8782428185	 0.9670616114	-0.063119
C	-3.503400869	-0.4235998274	 1.2591447711	-0.121985
O	-2.1565882088	-0.0220123674	 1.1102755094	-0.294879
H	 1.1053954652	 1.8626724331	 0.2353262649	 0.107507
H	-0.1907338411	 1.9648822547	-0.9561968199	 0.111459
H	-0.5765917131	 2.0127555612	 0.7718134154	 0.13309
H	 0.5602911367	-0.4196604276	-0.7306740031	 0.089067
H	 0.3551646148	-0.3367887422	 1.0151891896	 0.100436
H	-1.5407328193	-0.2186608517	-2.2135281122	 0.111975
H	-3.1265071887	-0.529000281	-1.5005295429	 0.120519
H	-2.3582046677	 1.0545629573	-1.2896289704	 0.123006
H	-1.1675925098	-2.4499954648	-0.9976286909	 0.100174
H	-0.6837606932	-2.3964324436	 0.6860382493	 0.106594
H	-2.9701353962	-3.6821829041	 0.2008987615	 0.08694
H	-4.6990346249	-2.2882339456	 1.2393850996	 0.087921
H	-4.1743998835	 0.1929819105	 0.633357382	 0.095512
H	-3.7657326438	-0.1989815608	 2.3008785752	 0.113835
100.9115	131.1547	187.6943	195.4758	239.4328	278.4363	323.7254	354.4356	388.0266	410.027	446.3067	526.0944	554.4566	666.1035	713.9058	774.0877	842.5057	882.4156	908.7352	922.4697	938.0815	986.3453	994.2107	1009.6832	1031.1744	1045.7365	1072.0361	1119.6694	1159.5578	1190.7023	1193.631	1221.845	1262.4122	1271.7869	1332.1709	1357.1543	1375.7262	1394.6627	1402.8564	1405.9901	1412.5217	1466.125	1476.7206	1486.6702	1488.7023	1502.501	1508.1256	1515.6185	1729.3641	2937.0331	3007.2691	3026.5964	3036.7833	3041.3334	3042.7704	3045.7165	3064.7725	3104.5888	3111.869	3124.4866	3126.2423	3149.5387	3173.6474
CCC1(C)CC=CCO1	CC[C@@]1(C)CC=CCO1	
InChI=1S/C8H14O/c1-3-8(2)6-4-5-7-9-8/h4-5H,3,6-7H2,1-2H3	InChI=1S/C8H14O/c1-3-8(2)6-4-5-7-9-8/h4-5H,3,6-7H2,1-2H3/t8-/m0/s1
