18
gdb 126049	3.73068	1.08235	1.041	1.0693	78.73	-0.2286	0.024	0.2527	1221.557	0.150203	-398.128187	-398.120126	-398.119182	-398.161303	30.503	
C	 1.2113286093	 1.0303624075	-0.6847356816	-0.399449
C	 0.1459519518	 0.1508864175	-0.0807142827	 0.01884
N	 0.5650996228	-1.14052707	 0.4789445898	-0.342832
C	 0.0181918034	-0.1187282801	 1.3888909204	-0.146606
C	 0.9352471524	 0.4239484489	 2.4155291074	 0.381385
N	 0.4691914454	 1.2496146996	 3.3543514934	-0.308074
N	 1.5462933289	 1.5400322143	 4.1090445543	-0.18011
C	 2.6759853122	 0.9233118842	 3.6860421801	-0.028113
C	 2.3203670072	 0.1814829112	 2.5811687897	-0.282907
H	 2.1145545198	 1.0334874176	-0.0712990125	 0.131276
H	 1.4791318672	 0.6783027362	-1.6868211835	 0.116117
H	 0.8524360405	 2.0615437232	-0.7722104577	 0.116875
H	-0.8028693747	 0.1633326524	-0.6173594725	 0.081756
H	-0.1264427718	-1.8618677445	 0.2970779139	 0.231788
H	-1.000588038	-0.2440313698	 1.7491898242	 0.088388
H	 1.4353177357	 2.1520469851	 4.8990474239	 0.272881
H	 3.6177593813	 1.0525858482	 4.1957461893	 0.130805
H	 2.9435297965	-0.4612441615	 1.983298114	 0.117982
58.0435	122.9741	167.4269	206.4755	279.2938	384.3011	442.854	497.9282	510.0927	656.6351	671.3656	755.8025	778.9341	785.4847	854.6968	867.307	931.6241	948.6592	981.416	1010.7436	1018.3601	1060.1395	1073.0453	1101.8449	1140.387	1176.3847	1205.9524	1247.1762	1250.7393	1304.336	1368.3422	1401.9729	1423.0312	1453.8706	1484.5653	1490.4379	1495.1151	1510.763	1574.9412	3036.522	3096.4337	3099.4501	3130.8269	3135.2453	3259.554	3289.5653	3512.3074	3678.2011
CC1NC1C1=NNC=C1	C[C@H]1N[C@H]1c1n[nH]cc1	
InChI=1S/C6H9N3/c1-4-6(8-4)5-2-3-7-9-5/h2-4,6,8H,1H3,(H,7,9)	InChI=1S/C6H9N3/c1-4-6(8-4)5-2-3-7-9-5/h2-4,6,8H,1H3,(H,7,9)/t4-,6-/m1/s1
