16
gdb 55661	2.21068	1.14098	0.87181	1.7873	73.38	-0.2551	-0.0447	0.2104	1348.9598	0.120035	-437.888729	-437.878499	-437.877555	-437.926464	34.563	
C	-0.0240177244	 1.512232593	 0.072553084	-0.492771
C	 0.2890257995	 0.0282121937	 0.0099591603	 0.41533
O	 0.9564590698	-0.5462787206	 0.8489624598	-0.361801
N	-0.2480936124	-0.6266432685	-1.0718918771	-0.296366
C	-0.21646962	-2.0687787961	-1.1431578467	-0.233766
C	-1.6233798186	-2.6248272258	-1.4124216608	 0.162301
O	-2.5819580406	-1.924719096	-1.5967598792	-0.244105
C	 0.6758994239	-2.6077138151	-2.1744821507	 0.31733
C	 1.3555260595	-3.0842031352	-3.0431583366	-0.451847
H	-0.1767856579	 1.9514257028	-0.9166147358	 0.128954
H	-0.9354475382	 1.6634679173	 0.6609066573	 0.154108
H	 0.79470993	 2.0224188826	 0.5807769716	 0.155783
H	-0.9690788743	-0.1772668389	-1.6168042976	 0.258174
H	 0.1194692306	-2.4298028589	-0.1596658652	 0.165808
H	-1.6750747336	-3.7310451623	-1.451664191	 0.112646
H	 1.9821293664	-3.4908308919	-3.7986078623	 0.21022
20.6585	34.63	80.3222	92.4612	156.8509	196.1273	274.5513	287.4186	383.404	464.0904	480.4596	544.8334	614.7403	624.8334	634.7327	676.4972	698.1999	830.3245	967.2696	985.3804	1001.3419	1051.1423	1053.8171	1172.3597	1235.6176	1275.9447	1334.6345	1393.2771	1404.6837	1466.5757	1485.4197	1516.8926	1785.2198	1834.0389	2234.1591	2942.4016	3014.8583	3048.115	3116.1256	3155.3953	3500.8594	3618.5504
CC(=O)NC(C=O)C#C	CC(=O)N[C@@H](C=O)C#C	
InChI=1S/C6H7NO2/c1-3-6(4-8)7-5(2)9/h1,4,6H,2H3,(H,7,9)	InChI=1S/C6H7NO2/c1-3-6(4-8)7-5(2)9/h1,4,6H,2H3,(H,7,9)/t6-/m1/s1
