18
gdb 66997	2.52595	1.99771	1.39565	2.351	75.34	-0.2427	-0.0205	0.2223	963.0777	0.148609	-401.946196	-401.938704	-401.937759	-401.977919	29.593	
C	 0.0000216205	 1.4650593754	 0.0109698596	-0.489638
C	 0.0223663479	-0.040027343	 0.0107617929	 0.210286
C	 0.6983842725	-0.7655126084	-1.118888392	-0.054904
C	 0.8054163558	-2.2690734602	-0.9358465651	-0.265812
C	-0.6659275664	-2.197052551	-0.4513657469	-0.006207
C	-0.7614891173	-2.0860145205	 1.0626379871	-0.330267
C	-0.0634197406	-0.7514737118	 1.3322379585	 0.358364
O	 0.2926607745	-0.3119083112	 2.396659622	-0.325306
N	-0.7962775159	-0.7616162676	-1.0038761917	-0.184662
H	 0.8264079979	 1.844592944	 0.6186229962	 0.141127
H	 0.0911871803	 1.861441408	-1.0031719093	 0.125694
H	-0.9338739701	 1.8371468685	 0.4422844198	 0.133341
H	 1.2131266714	-0.1785031253	-1.8749685175	 0.0993
H	 0.8921352787	-2.7723673643	-1.9011880686	 0.119607
H	 1.5591977023	-2.6705750083	-0.2516625493	 0.10935
H	-1.3756710884	-2.8789689304	-0.9155527797	 0.091726
H	-1.8057471938	-1.9951803977	 1.3873690212	 0.137498
H	-0.3024834593	-2.9094565962	 1.6155621326	 0.130503
116.7305	149.0593	251.2887	270.1177	321.1432	373.911	471.9516	561.8457	586.4022	627.8561	691.0982	753.2407	797.6693	828.6912	866.5811	886.1366	927.9467	972.3937	1004.842	1024.7098	1050.8564	1070.1725	1084.961	1090.1823	1138.9155	1164.292	1230.5334	1259.6972	1261.3347	1290.4894	1322.9513	1346.1047	1389.906	1412.2431	1447.6014	1480.7523	1492.8196	1496.8458	1835.8713	3039.7431	3046.8627	3052.4361	3107.1272	3111.2593	3116.6081	3128.3162	3132.2683	3146.8536
CC12C3CC(CC1=O)N23	C[C@@]12[C@H]3C[C@@H](CC1=O)N23	
InChI=1S/C7H9NO/c1-7-5-2-4(8(5)7)3-6(7)9/h4-5H,2-3H2,1H3	InChI=1S/C7H9NO/c1-7-5-2-4(8(5)7)3-6(7)9/h4-5H,2-3H2,1H3/t4-,5+,7+,8?/m0/s1
