14
gdb 23501	3.4673	1.53111	1.31143	0.4008	64.43	-0.2461	-0.0172	0.2289	942.3661	0.101221	-473.700217	-473.693726	-473.692782	-473.731173	25.879	
O	-0.1509544354	 1.2980005493	 0.0416488007	-0.386041
N	-0.0310920809	-0.0953774122	-0.0614190739	-0.291209
C	-1.1552997362	-0.6687522111	-0.0012652157	 0.56005
C	-2.6068771813	-0.2314215403	 0.0573771467	-0.091032
O	-3.0689146265	-0.7745356735	-1.2253857061	-0.292273
C	-2.9067826156	-2.0610072183	-0.621714711	 0.066487
C	-3.1534252888	-1.5476354981	 0.7966849453	 0.064623
O	-2.0486357619	-2.2623029713	 1.3565215457	-0.291297
C	-1.4395552967	-2.1502084205	 0.0249664285	-0.08785
H	 0.7655697512	 1.5877525155	-0.0282921384	 0.311502
H	-2.8924354536	 0.796245546	 0.2526245086	 0.113442
H	-3.3558963085	-2.9042757346	-1.1411409342	 0.109542
H	-4.0715256621	-1.5354094629	 1.3796279508	 0.109097
H	-0.6706651136	-2.884458118	-0.1939602171	 0.104957
121.2799	203.5657	307.437	420.1922	438.3252	493.7676	567.9965	675.6484	717.324	739.2239	775.094	808.7048	842.6549	857.4106	901.3743	939.2449	956.9465	975.6867	1002.2925	1054.3098	1106.7946	1143.3	1162.5032	1186.2034	1192.032	1235.5678	1257.1119	1292.5555	1331.3936	1416.0585	1807.0366	3148.533	3159.309	3184.7201	3197.6456	3811.6084
ON=C1C2OC3C2OC13	ON=C1[C@H]2O[C@@H]3[C@H]2O[C@H]13	
InChI=1S/C5H5NO3/c7-6-1-2-4-5(8-2)3(1)9-4/h2-5,7H	InChI=1S/C5H5NO3/c7-6-1-2-4-5(8-2)3(1)9-4/h2-5,7H/t2-,3-,4+,5+/m1/s1
