21
gdb 59742	2.65607	1.32943	1.11339	3.6917	79.18	-0.2298	0.0614	0.2911	1207.0271	0.184147	-420.466117	-420.456832	-420.455888	-420.500133	34.673	
C	-0.0524296312	 1.4480265575	-0.1906159231	-0.394139
C	-0.0200403905	-0.0660785395	 0.0681102624	 0.051393
C	 0.7768291195	-0.4197278248	 1.3294036681	-0.387668
N	-1.3686042364	-0.6449771237	 0.1156384774	-0.112765
C	-2.0078479531	-1.1615073224	-1.0856143135	-0.164195
C	-3.3949481695	-1.5740160409	-0.5588894811	-0.176179
N	-3.5655543427	-0.6265311166	 0.5325283122	-0.351374
C	-2.325083108	-0.2264155248	 1.0262618509	 0.455131
O	-2.1371963424	 0.3869742911	 2.0586559549	-0.433335
H	 0.9639715024	 1.8400828031	-0.2961722714	 0.11115
H	-0.6001349036	 1.6811210667	-1.1097393114	 0.107649
H	-0.5393525257	 1.9600257129	 0.6429274027	 0.152163
H	 0.4648488239	-0.5536349832	-0.7866018101	 0.077886
H	 0.815131001	-1.5041415407	 1.4687225809	 0.108264
H	 1.802009732	-0.0462459519	 1.2420288274	 0.104612
H	 0.3092094419	 0.025258051	 2.2089208604	 0.158312
H	-2.0992796555	-0.3877157549	-1.8641420455	 0.106264
H	-1.4530566289	-2.0049231628	-1.5072777014	 0.113897
H	-4.1750777181	-1.4727529822	-1.3179907757	 0.115988
H	-3.3819327284	-2.6168975821	-0.2095438192	 0.107602
H	-4.2880597565	-0.7634445315	 1.2221636052	 0.249345
69.0051	104.9478	197.0621	210.0956	224.5785	229.69	263.3024	315.8635	419.5912	457.4263	485.0232	543.5779	652.437	727.2585	747.6088	777.3537	879.6923	912.1992	931.3958	948.1643	962.4677	1039.9325	1088.2611	1129.9951	1147.7857	1170.2979	1187.4097	1217.9087	1242.8898	1253.9713	1286.5792	1339.7849	1351.4688	1386.4846	1394.8284	1412.5624	1433.4272	1458.1632	1479.5448	1496.304	1499.9554	1518.563	1527.1376	1532.1207	1814.5164	2976.2471	2994.2905	3026.5934	3037.3988	3044.7505	3072.0624	3084.3055	3102.2132	3109.8697	3130.8372	3149.3146	3634.5918
CC(C)N1CCNC1=O	CC(C)N1CCNC1=O	
InChI=1S/C6H12N2O/c1-5(2)8-4-3-7-6(8)9/h5H,3-4H2,1-2H3,(H,7,9)	InChI=1S/C6H12N2O/c1-5(2)8-4-3-7-6(8)9/h5H,3-4H2,1-2H3,(H,7,9)
