21
gdb 109398	2.97924	1.08353	0.85421	1.3849	80.96	-0.2369	0.0133	0.2502	1380.1977	0.183654	-424.221853	-424.212925	-424.211981	-424.255868	33.895	
O	 0.1373372259	 1.4088076651	 0.3616684953	-0.405977
C	 0.0207614931	 0.0100616278	 0.2170060292	-0.140272
C	-1.386224393	-0.5140892918	 0.0105011369	 0.258223
C	-2.439633595	 0.303707936	 0.0475055918	-0.161252
C	-3.887710267	-0.0853954798	-0.1466539863	-0.137622
O	-4.1738800148	-0.8415246602	-1.3109801635	-0.23472
C	-3.8195027001	-2.2068389015	-1.2430297478	-0.062648
C	-2.3208424425	-2.4755635406	-1.3942796482	-0.191463
C	-1.4643626882	-2.0121604938	-0.2057653238	-0.305072
H	-0.1721335789	 1.8100429515	-0.4576061629	 0.284003
H	 0.6583025923	-0.3616578637	-0.6050443834	 0.094246
H	 0.4383746381	-0.4225600784	 1.1368081912	 0.123077
H	-2.2582597107	 1.3507829208	 0.2758714414	 0.086931
H	-4.255553905	-0.6274401279	 0.7439882579	 0.093342
H	-4.4932829554	 0.8214953428	-0.2374394908	 0.108844
H	-4.18338913	-2.6468429608	-0.297235514	 0.079551
H	-4.3619759635	-2.6932886215	-2.0609028679	 0.102844
H	-2.1874572573	-3.5576412184	-1.5226145967	 0.092871
H	-1.9705233092	-1.9965659768	-2.3156697776	 0.105471
H	-0.448584122	-2.4065827591	-0.3321869147	 0.097144
H	-1.8495925267	-2.4833135295	 0.7112431839	 0.11248
46.4372	132.4854	168.8126	222.485	247.2918	319.8774	345.1835	369.8543	388.4773	464.6109	507.2791	544.5183	698.7245	748.2326	832.4686	835.8458	893.7429	908.1564	955.1955	993.6705	1022.9162	1049.5179	1073.3921	1090.9047	1112.4338	1133.4563	1185.3014	1205.6146	1227.7287	1279.2715	1288.0142	1331.2179	1336.0645	1375.1408	1384.4871	1397.5451	1403.1032	1415.926	1424.317	1471.796	1478.3084	1480.3998	1488.3593	1496.3337	1739.4909	2933.4442	2944.5161	2949.2301	2996.2682	3021.6739	3027.831	3046.2312	3065.3478	3073.8235	3074.4714	3160.1153	3807.36
OCC1=CCOCCC1	OCC1=CCOCCC1	
InChI=1S/C7H12O2/c8-6-7-2-1-4-9-5-3-7/h3,8H,1-2,4-6H2	InChI=1S/C7H12O2/c8-6-7-2-1-4-9-5-3-7/h3,8H,1-2,4-6H2
