23
gdb 81328	2.81432	1.35784	1.22792	1.4851	84.41	-0.2435	0.0735	0.317	1159.0048	0.206264	-388.280631	-388.271723	-388.270778	-388.313232	36.216	
C	-0.0702064799	 1.5104263574	 0.0402638362	-0.447639
C	 0.0306066839	-0.0230969226	 0.0365528372	 0.339343
C	-1.3944214875	-0.5871095174	-0.0676386435	-0.443516
C	 0.9873830449	-0.5781134362	-1.093825127	-0.265796
C	 2.0412022057	-1.3025428954	-0.2335746943	-0.055206
C	 1.156064763	-2.0385812706	 0.8134567093	-0.275441
C	 0.8155530902	-0.5803564804	 1.2564982093	-0.083206
C	 2.3004974379	-0.2420774748	 0.8812089132	 0.186015
O	 3.2943803157	-0.5209814936	 1.8381592588	-0.460431
H	 0.9032751001	 2.0019804236	 0.1060579072	 0.116795
H	-0.5543547429	 1.8646105133	-0.8767851322	 0.111258
H	-0.6752487942	 1.8573873858	 0.8859116204	 0.110652
H	-1.8734357646	-0.2437906787	-0.9917819517	 0.111207
H	-1.417966665	-1.6794529919	-0.0749702274	 0.110994
H	-2.0125252781	-0.2453314139	 0.7706755511	 0.109409
H	 0.4670526751	-1.258617661	-1.7749885939	 0.09371
H	 1.4256234276	 0.2254528823	-1.6944238426	 0.095184
H	 2.8659684626	-1.7961333427	-0.7498516699	 0.059163
H	 0.3532883405	-2.6842396695	 0.4520175561	 0.09559
H	 1.7290692333	-2.5978369612	 1.5583471814	 0.08209
H	 0.4185496088	-0.352139668	 2.2477681773	 0.055735
H	 2.5172039536	 0.7741793085	 0.5467659723	 0.074903
H	 3.1609150892	-1.4078110929	 2.1864389526	 0.279187
168.8103	192.1296	200.7445	215.6018	238.914	311.7219	327.903	371.1936	410.261	448.9313	467.6775	530.4124	572.2463	741.7227	809.2052	839.5923	865.696	892.14	910.131	935.0578	950.2226	966.0469	972.8242	1005.1619	1032.6674	1045.991	1052.0427	1071.0157	1111.5091	1150.5141	1191.3761	1203.9355	1224.3089	1234.5371	1245.7006	1266.4495	1281.3851	1289.5628	1296.7951	1334.6556	1401.6932	1424.4129	1447.6206	1484.9547	1487.1645	1496.8791	1505.0539	1511.8819	1530.8542	3024.7003	3030.4053	3042.9058	3060.5207	3082.103	3086.997	3088.6587	3090.591	3097.0047	3104.0402	3106.2785	3117.1494	3118.3489	3822.5045
CC1(C)CC2CC1C2O	CC1(C)C[C@@H]2C[C@H]1[C@H]2O	
InChI=1S/C8H14O/c1-8(2)4-5-3-6(8)7(5)9/h5-7,9H,3-4H2,1-2H3	InChI=1S/C8H14O/c1-8(2)4-5-3-6(8)7(5)9/h5-7,9H,3-4H2,1-2H3/t5-,6-,7-/m0/s1
