19
gdb 91588	2.95843	1.11155	0.94425	3.986	76.33	-0.2373	-0.0147	0.2226	1277.8397	0.157549	-423.002705	-422.993649	-422.992705	-423.037393	33.27	
O	 0.0649930247	 1.4145858362	 0.0026849271	-0.431968
C	 0.1119022715	 0.0188022299	 0.2111932789	 0.046408
C	 0.1161384117	-0.5454779546	 1.6756434638	-0.268261
C	-1.1900618546	-1.2780352931	 1.3532522622	-0.121883
C	-2.2336691297	-0.2696481197	 0.9691190328	-0.318395
C	-1.2149605477	-0.6826847438	-0.0634322375	 0.368422
C	-1.6020120058	-1.2805943579	-1.3921639653	-0.411871
C	-2.04529029	-0.2144017563	-2.3817878239	 0.165323
O	-2.9989097154	-0.3159425536	-3.1098984406	-0.245849
H	 0.9355658414	 1.7818747581	 0.18713722	 0.285667
H	 0.9207505847	-0.4373206589	-0.3775705834	 0.067595
H	 0.9679486358	-1.2002149425	 1.8726030355	 0.101456
H	 0.0484813389	 0.2077643137	 2.4669915607	 0.10046
H	-1.4410014883	-2.2873505008	 1.6553420829	 0.091531
H	-3.2297637734	-0.6655551808	 0.7969382001	 0.117414
H	-2.214132985	 0.7298842828	 1.3940599093	 0.121799
H	-0.7363647541	-1.7965575924	-1.8358590454	 0.116943
H	-2.406835497	-2.0159148322	-1.2956585145	 0.121067
H	-1.4078528878	 0.6978282059	-2.3871918626	 0.094143
48.295	69.3341	114.0557	180.3266	275.9615	302.005	303.133	368.3199	438.6572	461.7748	560.357	664.3465	709.7024	790.1206	829.2022	854.5574	894.9202	940.2247	976.4077	983.0568	1025.6933	1045.5747	1066.0312	1082.7161	1090.708	1127.4816	1163.7776	1189.1555	1201.6768	1243.3828	1266.0782	1270.2418	1308.103	1334.8652	1389.1409	1428.1791	1435.7994	1451.5526	1477.2827	1504.7832	1832.339	2890.4299	2992.1451	2997.9785	3049.4569	3087.8645	3110.0348	3119.6885	3187.9867	3206.8507	3814.1832
OC1CC2CC12CC=O	O[C@H]1C[C@H]2C[C@@]12CC=O	
InChI=1S/C7H10O2/c8-2-1-7-4-5(7)3-6(7)9/h2,5-6,9H,1,3-4H2	InChI=1S/C7H10O2/c8-2-1-7-4-5(7)3-6(7)9/h2,5-6,9H,1,3-4H2/t5-,6-,7+/m0/s1
