14
gdb 15484	3.68064	1.80844	1.2309	5.9847	66.8	-0.2383	-0.0752	0.1631	925.1347	0.10666	-382.58651	-382.579235	-382.578291	-382.61877	25.689	
O	-0.1685068615	-0.004823051	 0.0018981816	-0.23774
C	-0.0344345918	 1.1928066838	 0.0085517043	 0.074646
C	 1.2533938836	 1.9149359293	 0.0006366163	 0.122085
C	 1.3538549131	 3.2554212759	 0.0105875163	-0.128251
C	 2.7698146221	 3.7591481635	-0.000300702	-0.274171
C	 3.6257701102	 2.4787175979	-0.020472526	-0.328424
C	 2.6248066832	 1.3063940219	-0.0188089529	 0.314144
O	 2.9127863743	 0.1387119668	-0.0319213899	-0.292784
H	-0.9192411116	 1.8722170751	 0.0219169143	 0.068386
H	 0.5026070481	 3.9306523819	 0.0250903353	 0.126894
H	 2.9412643167	 4.4040460305	-0.8709050405	 0.134839
H	 2.9599668908	 4.3889327653	 0.8774625643	 0.134854
H	 4.2625610717	 2.4031811677	-0.9061858176	 0.142781
H	 4.2825415512	 2.3887027614	 0.8491367665	 0.142744
65.7033	98.0168	177.3159	246.4141	323.7186	451.0215	461.4677	588.9825	671.1333	712.2022	770.4405	796.8917	886.4175	940.1073	1020.073	1022.1715	1040.8766	1052.1837	1152.3599	1204.3454	1232.2368	1275.269	1320.346	1345.8233	1433.0227	1447.666	1471.6402	1663.1053	1796.5561	1849.2211	2848.3308	3033.0478	3057.5445	3071.5238	3112.869	3178.0848
O=CC1=CCCC1=O	O=CC1=CCCC1=O	
InChI=1S/C6H6O2/c7-4-5-2-1-3-6(5)8/h2,4H,1,3H2	InChI=1S/C6H6O2/c7-4-5-2-1-3-6(5)8/h2,4H,1,3H2
