14
gdb 68498	3.29722	1.33075	1.13125	2.1534	67.53	-0.2773	-0.0346	0.2427	1052.571	0.098784	-436.641818	-436.633752	-436.632808	-436.674541	29.265	
C	 0.0680158483	 1.4676038228	-0.0241924184	-0.524729
C	-0.0444004529	-0.0142757278	 0.065940994	 0.267772
O	 0.4853467452	-0.8589406024	-1.0497023078	-0.316543
C	 0.0398426388	-1.8830909247	-0.0798827637	-0.070951
C	 0.6368460874	-1.0169564572	 1.0659944394	-0.222681
C	 2.0860686208	-0.9464302685	 1.1265803398	 0.282733
N	 3.2358202462	-0.8765481252	 1.2185930194	-0.312519
C	-1.2445407908	-1.0116108528	 0.0073404735	 0.439798
O	-2.4217833331	-1.052698748	-0.1035599031	-0.293898
H	 1.1170080377	 1.7759829097	-0.0463115233	 0.162667
H	-0.427396944	 1.8251209457	-0.9308192622	 0.159221
H	-0.4170192486	 1.9295599667	 0.8407901752	 0.148851
H	 0.2250445579	-2.9267362152	-0.3170657864	 0.13925
H	 0.191596467	-1.116352763	 2.0600066435	 0.14103
118.5438	126.2169	161.7556	203.2907	226.0496	305.2668	419.2527	439.7269	535.1444	600.2532	658.9738	694.939	744.8151	799.195	820.9855	869.6469	946.0847	996.5537	1035.1555	1086.8144	1108.9904	1144.9088	1158.0869	1211.1794	1325.4637	1372.775	1421.2122	1472.2024	1483.5675	1946.6758	2363.2398	3048.2182	3082.6474	3124.8612	3129.8706	3178.7321
CC12OC(C1C#N)C2=O	C[C@@]12O[C@@H]([C@H]1C#N)C2=O	
InChI=1S/C6H5NO2/c1-6-3(2-7)4(9-6)5(6)8/h3-4H,1H3	InChI=1S/C6H5NO2/c1-6-3(2-7)4(9-6)5(6)8/h3-4H,1H3/t3-,4+,6-/m1/s1
