15
gdb 29243	3.20517	1.4186	0.98933	1.8286	71.71	-0.2503	-0.0356	0.2147	1126.9332	0.114114	-454.019094	-454.011288	-454.010344	-454.051559	29.145	
C	 0.1307291185	 1.5160534984	 0.035718449	-0.472932
C	-0.0032702171	 0.0230546505	 0.0200432252	 0.181289
C	-0.138112541	-0.684471644	-1.1065312638	-0.007872
O	-0.2636930827	-2.0440854785	-1.1760045292	-0.219739
C	-0.2593254161	-2.8048797586	-0.0369062816	 0.484782
O	-0.3678108449	-3.9963350431	-0.097695646	-0.365213
N	-0.1206195802	-2.09395744	 1.1341217043	-0.448841
C	 0.0131269096	-0.704374533	 1.290048187	 0.334949
N	 0.1384664725	-0.1008204235	 2.4074758147	-0.527211
H	 1.0696439229	 1.8135988943	 0.5121934856	 0.149382
H	 0.1023104579	 1.923934273	-0.9778158233	 0.118588
H	-0.6733396489	 1.968864917	 0.623558298	 0.149372
H	-0.16264593	-0.2505331657	-2.0982506654	 0.143439
H	-0.1190326822	-2.6744788817	 1.9609562221	 0.267959
H	 0.1316528017	-0.7460868252	 3.1988033133	 0.21205
103.7197	136.7582	162.5622	284.9067	307.9641	386.6286	389.371	453.3629	552.0731	604.3613	616.8572	736.4552	744.6552	762.4068	799.0484	852.5538	910.7591	911.4268	1022.1666	1072.781	1113.7764	1174.5828	1218.2519	1267.485	1374.0724	1418.7002	1421.754	1445.9401	1466.648	1489.1891	1699.0747	1733.8776	1877.4692	3045.0575	3106.2188	3125.9583	3220.5121	3466.1058	3614.7293
CC1=COC(=O)NC1=N	CC1=C(NC(=O)O[CH]1)[NH]	
InChI=1S/C5H6N2O2/c1-3-2-9-5(8)7-4(3)6/h2H,1H3,(H2,6,7,8)	InChI=1S/C5H6N2O2/c1-3-2-9-5(8)7-4(3)6/h2H,1H3,(H2,6,7,8)
