25
gdb 86202	2.2244	1.42485	1.09979	1.3378	88.24	-0.238	0.0744	0.3124	1278.0029	0.228299	-389.515291	-389.505042	-389.504098	-389.549834	39.443	
C	-0.4448655244	 1.4062093493	-0.1521784388	-0.412392
C	-0.0114874069	-0.0340987659	 0.063994638	 0.14764
O	 0.6424845823	-0.4954540502	-1.1154969895	-0.286759
C	 1.3939219537	-1.6747011993	-0.8090770768	 0.142297
C	 2.7104163171	-1.6086185964	-1.5755205951	-0.399439
C	 1.4715404272	-1.7395629606	 0.7524336175	-0.014079
C	 2.7904635945	-2.2383440787	 1.343093026	-0.423246
C	 0.9944479336	-0.3303833824	 1.1955708081	-0.013436
C	 2.1031534307	 0.720722936	 1.3211617147	-0.405974
H	 0.4098922596	 2.0465486495	-0.3833764645	 0.123426
H	-1.1464162495	 1.4643067452	-0.9891226135	 0.122964
H	-0.9450978971	 1.7950514638	 0.7406248134	 0.110847
H	-0.9138142238	-0.646457182	 0.2460234877	 0.054166
H	 0.834147126	-2.5518625041	-1.1706844742	 0.06329
H	 3.3333168651	-0.7740514131	-1.2415726439	 0.118664
H	 3.2805164742	-2.5357689396	-1.4614900723	 0.109943
H	 2.5013453569	-1.4670125236	-2.6397671284	 0.122816
H	 0.6903955681	-2.4394089195	 1.0739347551	 0.073383
H	 3.6417364986	-1.6183912987	 1.0506310658	 0.122469
H	 2.7440180939	-2.2465489215	 2.4373152684	 0.112579
H	 3.0012866884	-3.2627755112	 1.018049881	 0.113648
H	 0.4709449295	-0.4022712944	 2.1560545596	 0.063697
H	 2.6137362035	 0.8885222272	 0.3681091834	 0.127714
H	 1.6940471139	 1.6801131051	 1.6518659992	 0.113886
H	 2.8535274248	 0.417754075	 2.0570581493	 0.111896
64.6318	114.9014	214.3057	228.1824	238.7863	244.3431	251.8369	269.8363	301.6457	313.5407	409.3327	433.5905	473.9726	522.0493	661.8614	692.8057	727.5567	793.8599	833.186	889.5832	951.2421	980.0379	1005.8195	1027.8144	1037.0538	1059.4381	1074.3318	1102.7688	1118.8125	1157.0349	1171.0739	1189.7871	1206.0521	1262.4195	1322.0949	1328.7386	1356.7226	1371.9585	1379.9538	1385.7521	1396.2149	1407.9402	1417.4249	1417.7998	1422.6539	1479.7046	1482.6102	1491.7103	1495.1686	1498.0856	1505.0396	1509.8072	1514.4502	2923.4742	2961.7654	3017.4297	3033.928	3039.4228	3040.8912	3042.6932	3045.4742	3092.9675	3104.4004	3112.1274	3113.2996	3114.1544	3116.288	3120.145	3125.8397
CC1OC(C)C(C)C1C	C[C@H]1O[C@@H](C)[C@@H](C)[C@H]1C	
InChI=1S/C8H16O/c1-5-6(2)8(4)9-7(5)3/h5-8H,1-4H3	InChI=1S/C8H16O/c1-5-6(2)8(4)9-7(5)3/h5-8H,1-4H3/t5-,6+,7-,8+
