17
gdb 64542	3.76479	1.07337	1.04953	2.5555	75.17	-0.2543	-0.0444	0.2099	1179.6415	0.133989	-421.829242	-421.820803	-421.819859	-421.862412	31.382	
C	-0.0190472419	 1.5604392565	-0.022547828	-0.473337
C	 0.0587196929	 0.0482263689	-0.0582704587	 0.203062
C	-1.1299111956	-0.6416439756	 0.5362538983	 0.129963
O	-2.081498932	-0.0703743355	 1.0025974454	-0.259627
C	 0.6876945316	-0.7732312356	-1.1578531616	-0.101339
C	 1.8847787987	-0.039870381	-1.7812112517	-0.375861
C	 2.5267009533	-0.0504328816	-0.3680572347	 0.410041
O	 3.6118818311	 0.2358941884	 0.0446653668	-0.302534
C	 1.340673055	-0.7620903132	 0.2334521476	-0.221774
H	 0.8817648653	 2.0358194303	-0.4130421588	 0.129361
H	-0.8775626041	 1.9082433273	-0.6042180586	 0.137303
H	-0.1646344316	 1.9000246391	 1.0060753865	 0.14465
H	-1.0759000235	-1.7550793074	 0.5122961318	 0.07442
H	 0.1655544688	-1.601588478	-1.6196321183	 0.113569
H	 2.4720811693	-0.6784424638	-2.447957686	 0.141112
H	 1.7045834403	 0.9192269289	-2.2713256817	 0.131805
H	 1.3641403424	-1.5086148577	 1.0185644317	 0.119185
97.4074	110.9385	138.4394	228.9192	261.0881	302.9514	382.2395	388.5605	478.7852	520.4323	610.4392	645.086	743.0503	814.4457	842.4766	870.0197	930.4726	974.2423	991.5477	1021.9825	1032.5267	1038.5805	1075.8044	1107.6476	1120.4186	1170.8273	1222.1276	1259.9771	1302.4821	1359.5977	1420.3368	1439.7158	1460.1778	1485.451	1495.859	1825.9562	1889.4189	2861.881	3056.1336	3066.7338	3120.6207	3121.5957	3141.4437	3187.3661	3198.3024
CC1(C=O)C2CC(=O)C12	C[C@@]1(C=O)[C@H]2CC(=O)[C@@H]12	
InChI=1S/C7H8O2/c1-7(3-8)4-2-5(9)6(4)7/h3-4,6H,2H2,1H3	InChI=1S/C7H8O2/c1-7(3-8)4-2-5(9)6(4)7/h3-4,6H,2H2,1H3/t4-,6-,7+/m0/s1
