21
gdb 73148	2.53142	1.57859	1.34427	1.8058	81.94	-0.2378	0.071	0.3088	1074.5356	0.182212	-387.045798	-387.037392	-387.036448	-387.07854	33.179	
C	 0.1722828574	 1.6040759312	 0.1694111237	-0.503174
C	 0.0662321395	 0.1000549558	 0.0733780733	 0.214989
C	-1.3322204101	-0.5402594032	-0.0658483968	-0.115902
O	-1.0674827332	-1.4839823632	 0.9974271778	-0.295754
C	 0.2275298156	-0.9085968785	 1.2569121163	 0.078584
C	 1.3685854331	-1.6443300619	 0.5170472608	-0.325461
C	 1.159344996	-0.6935602141	-0.6774266876	 0.332237
C	 1.1923231052	-1.0336130379	-2.1388592218	-0.321633
C	 2.2414779442	-0.1214860424	-1.5458973698	-0.337618
H	 1.1739227294	 1.9147932285	 0.4833026591	 0.121432
H	-0.0311312288	 2.0786281037	-0.7988952928	 0.117997
H	-0.5495289866	 2.0048828356	 0.8890963458	 0.119777
H	-2.1639956559	 0.1285972209	 0.1954749065	 0.091553
H	-1.5538309292	-1.034964455	-1.0195349079	 0.098735
H	 0.3632171198	-0.6360807196	 2.3074676504	 0.070737
H	 2.3461451453	-1.5331656521	 0.9977965357	 0.098497
H	 1.1685134569	-2.7052621555	 0.3457273732	 0.109093
H	 1.4840370729	-2.0399026356	-2.422248296	 0.113933
H	 0.4423280762	-0.5900882322	-2.7871299776	 0.109647
H	 2.1995072719	 0.9331399762	-1.7993291688	 0.110949
H	 3.2484155006	-0.5079233508	-1.4204171634	 0.111383
72.3014	198.145	204.8906	217.4306	247.3565	308.3269	370.7251	394.3493	463.3271	537.5711	632.755	727.6279	778.0256	819.3268	859.9924	881.7383	890.8547	916.89	935.4661	974.8154	983.1195	1005.6257	1023.4085	1052.0285	1070.9234	1080.3434	1141.2647	1152.2656	1170.2692	1181.9533	1188.7918	1192.4654	1234.1416	1261.5058	1285.1026	1323.5259	1362.1751	1382.7553	1411.3925	1464.1634	1465.3362	1489.4439	1492.5091	1502.1243	1519.8405	2997.2745	3020.7951	3042.1228	3048.7251	3067.2422	3081.9116	3100.6427	3103.8684	3119.5092	3123.2525	3196.4312	3211.4784
CC12COC1CC21CC1	C[C@]12CO[C@H]1CC12CC1	
InChI=1S/C8H12O/c1-7-5-9-6(7)4-8(7)2-3-8/h6H,2-5H2,1H3	InChI=1S/C8H12O/c1-7-5-9-6(7)4-8(7)2-3-8/h6H,2-5H2,1H3/t6-,7-/m0/s1
