25
gdb 121915	3.24315	0.70115	0.60599	0.6417	86.84	-0.2475	0.0772	0.3247	1943.199	0.225124	-426.630746	-426.618676	-426.617732	-426.669142	42.713	
C	 0.0083735941	 1.4885012587	 0.1230396422	-0.382541
C	-0.0768130674	-0.0229456303	-0.1021623638	-0.181562
C	 0.8356181263	-0.4966029083	-1.2263683394	-0.037509
O	 0.6949939559	-1.8959487852	-1.358983311	-0.266725
C	 1.3831214635	-2.4773574667	-2.4582852195	 0.153785
C	 2.8850251048	-2.6018478144	-2.1979804754	-0.410398
C	 0.7234965957	-3.8441154451	-2.6957448683	 0.122289
C	-0.7690349904	-3.7282867945	-2.9948630784	-0.413052
O	 1.4291849734	-4.4380110914	-3.782958117	-0.441254
H	 1.0257170641	 1.7965364808	 0.3887265486	 0.116281
H	-0.2806398664	 2.0436657709	-0.7763307262	 0.115763
H	-0.6549960207	 1.8033711054	 0.9337062273	 0.116537
H	 0.1941944518	-0.5598670855	 0.8141923961	 0.105991
H	-1.105770202	-0.3151009812	-0.3418878402	 0.103263
H	 0.568022283	 0.0041338816	-2.1731191056	 0.081586
H	 1.8784867071	-0.2208416017	-1.0015013168	 0.087182
H	 1.2182831546	-1.8655906774	-3.3617915635	 0.066401
H	 3.3666033736	-3.1153128387	-3.0321575073	 0.138945
H	 3.3520725588	-1.619990991	-2.0808103985	 0.109073
H	 3.0605328928	-3.1770748484	-1.2827141307	 0.114846
H	 0.8633489543	-4.4396587868	-1.7780549603	 0.0691
H	-0.9288597523	-3.1538919502	-3.9136282604	 0.116369
H	-1.2143124793	-4.7209167119	-3.1312120952	 0.098084
H	-1.2858546291	-3.2309466323	-2.1718710159	 0.135019
H	 0.9983770637	-5.2720918165	-3.9915843708	 0.282527
39.4534	49.9366	74.1204	116.9419	147.0401	206.957	229.3817	235.3321	242.4895	249.2338	313.3051	326.708	352.9097	427.148	476.3688	489.9799	564.3117	764.4262	826.8469	893.4548	900.893	911.2687	933.3926	989.4979	1039.6852	1061.6215	1076.4011	1118.2549	1130.3877	1150.8545	1154.3738	1181.9054	1192.1831	1265.0151	1270.0828	1314.0972	1327.1947	1342.3356	1362.4179	1373.8539	1397.9664	1401.703	1411.9901	1429.6645	1441.5987	1490.478	1491.4648	1493.9525	1496.3965	1500.1758	1506.4061	1507.8092	1528.9649	2950.2059	2956.5375	2971.0734	2986.36	3029.8976	3031.4594	3037.6501	3044.7149	3070.4009	3094.136	3099.2684	3107.5204	3111.8035	3137.1944	3140.7571	3828.3755
CCCOC(C)C(C)O	CCCO[C@@H](C)[C@@H](C)O	
InChI=1S/C7H16O2/c1-4-5-9-7(3)6(2)8/h6-8H,4-5H2,1-3H3	InChI=1S/C7H16O2/c1-4-5-9-7(3)6(2)8/h6-8H,4-5H2,1-3H3/t6-,7+/m1/s1
