19
gdb 94340	2.61019	1.28615	1.07855	2.0761	82.73	-0.236	0.0475	0.2835	1195.5554	0.157575	-385.829753	-385.820728	-385.819784	-385.863532	34.636	
O	 0.4718333168	 0.8779238337	-0.6433720339	-0.424931
C	 0.1333798057	-0.2611192787	 0.1028625129	 0.086666
C	 0.0248165781	-0.1537368761	 1.6536986176	-0.258481
C	-1.2795045508	-1.0045044003	 1.6040635664	-0.313313
C	-1.3185676286	-0.7707527732	 0.0892863398	 0.322091
C	-2.4168536385	-0.1465377318	-0.7099379616	-0.35855
C	-2.007805243	-1.59015905	-0.9817791735	-0.278461
C	-1.3046812417	-1.9389969536	-2.1803509401	 0.337162
C	-0.6991943326	-2.2421346965	-3.1749903418	-0.458102
H	-0.1220370287	 1.5896199755	-0.379749866	 0.277374
H	 0.8347646121	-1.0389117882	-0.2138425376	 0.102242
H	 0.8604072247	-0.5381532982	 2.2419670046	 0.106065
H	-0.1715281852	 0.8791193934	 1.9587258067	 0.097093
H	-1.1111107251	-2.0531661042	 1.8653909225	 0.110902
H	-2.1300010945	-0.634157167	 2.1818393437	 0.10426
H	-3.382559943	 0.0156594378	-0.2419487587	 0.11634
H	-2.1341204965	 0.5863151704	-1.4587363254	 0.128712
H	-2.6970538743	-2.3475475157	-0.6159132878	 0.108871
H	-0.1685456849	-2.5002694776	-4.0573294978	 0.194059
69.7456	90.0218	149.3033	221.8681	260.7397	316.8147	335.9943	415.5249	445.8864	509.4669	548.6259	576.0384	630.3696	650.06	710.4389	778.812	804.1375	872.8921	893.1368	926.8549	945.8841	966.5689	1039.8194	1066.5981	1071.8089	1110.4669	1124.6622	1136.6188	1180.3949	1214.0298	1226.6928	1260.5222	1271.4628	1315.6488	1326.2093	1403.5118	1433.9473	1471.4532	1480.4911	1496.3721	2234.9273	3052.2149	3056.7852	3070.7016	3101.2402	3119.9724	3125.2368	3132.3371	3218.1057	3506.5205	3799.5386
OC1CCC11CC1C#C	O[C@H]1CC[C@]21C[C@H]2C#C	
InChI=1S/C8H10O/c1-2-6-5-8(6)4-3-7(8)9/h1,6-7,9H,3-5H2	InChI=1S/C8H10O/c1-2-6-5-8(6)4-3-7(8)9/h1,6-7,9H,3-5H2/t6-,7+,8+/m1/s1
