16
gdb 13525	3.40815	1.77915	1.28773	2.6611	61.15	-0.2297	0.0278	0.2575	927.7788	0.131915	-417.057765	-417.050032	-417.049088	-417.090083	28.968	
N	-0.098602982	 1.3215740677	 0.2590489124	-0.531987
C	-0.0141150889	 0.0781981923	-0.2898958865	 0.386432
O	 0.8196119805	-0.2500379158	-1.1116346034	-0.37372
C	-1.0904590998	-0.91344808	 0.1500836477	-0.087414
N	-0.5624611245	-2.1371764739	 0.7998363299	-0.319147
C	-1.7955510148	-2.2482975231	 1.6128457252	-0.199618
C	-2.0149448069	-0.7314330546	 1.3944231937	 0.106107
O	-1.4965212024	 0.0892345856	 2.4275675359	-0.431404
H	 0.6418462899	 1.9711591995	 0.0430727619	 0.255133
H	-0.6428982874	 1.4531909112	 1.1001627259	 0.268331
H	-1.7085622139	-1.1208859155	-0.7378501524	 0.093706
H	-0.339705461	-2.9086868998	 0.1815649379	 0.232383
H	-2.6000192257	-2.8445310111	 1.1580868104	 0.099701
H	-1.6435782737	-2.5790952618	 2.6460776985	 0.105968
H	-3.03116237	-0.3833579783	 1.2102114484	 0.099001
H	-0.6391815294	-0.2782426925	 2.6780060346	 0.29653
61.2527	136.7613	206.2565	245.7053	356.5533	387.7153	412.4841	479.3433	543.5666	594.0096	662.1926	720.6734	740.9223	814.0825	858.4577	955.5942	981.7795	993.536	1021.2091	1074.5227	1112.5901	1134.8905	1156.6816	1205.4627	1241.5295	1293.711	1328.2686	1337.9999	1361.7529	1390.0992	1441.488	1514.5875	1623.4147	1800.1107	2978.3632	2996.6227	3065.0854	3121.4119	3542.2276	3544.6204	3686.8936	3779.7073
NC(=O)C1NCC1O	NC(=O)[C@H]1NC[C@H]1O	
InChI=1S/C4H8N2O2/c5-4(8)3-2(7)1-6-3/h2-3,6-7H,1H2,(H2,5,8)	InChI=1S/C4H8N2O2/c5-4(8)3-2(7)1-6-3/h2-3,6-7H,1H2,(H2,5,8)/t2-,3+/m1/s1
