21
gdb 122463	3.62168	0.71349	0.63586	0.4731	87.06	-0.244	0.0484	0.2924	1811.3164	0.1798	-387.038002	-387.027652	-387.026708	-387.07442	37.168	
C	 0.3209665597	 1.4822198881	 0.0753654679	-0.38441
C	-0.0548400583	 0.0212950302	-0.1064000404	-0.024798
O	 0.7029121765	-0.5092035191	-1.1740083519	-0.245979
C	 0.4196769413	-1.8689491761	-1.4323348075	-0.080075
C	 1.242589449	-2.3080808906	-2.6131310624	-0.017671
C	 2.6604083266	-2.7562655039	-2.4253203125	-0.280645
C	 1.5980137024	-3.7783157491	-2.805529667	-0.20128
C	 1.1800837226	-4.7809295217	-1.8684854231	 0.338151
C	 0.8282258999	-5.6368037664	-1.0990930023	-0.476797
H	 1.3868261691	 1.5786289925	 0.3008478876	 0.126105
H	 0.1121077426	 2.0479455993	-0.8371018218	 0.125411
H	-0.2500504146	 1.9243472003	 0.8973051956	 0.113353
H	 0.1408769899	-0.5468267931	 0.8193547169	 0.084529
H	-1.1335684312	-0.0775067424	-0.3184039045	 0.08377
H	 0.6511631593	-2.4922303549	-0.5541590255	 0.096034
H	-0.6551094126	-2.0023673787	-1.6448892989	 0.088342
H	 1.0214969427	-1.7687751026	-3.5293064363	 0.098404
H	 3.3979095898	-2.4981473863	-3.1765344901	 0.119483
H	 3.0402351992	-2.802937877	-1.4110387798	 0.128997
H	 1.6157898936	-4.1150783985	-3.8379760024	 0.114397
H	 0.5212727523	-6.39082394	-0.4177900718	 0.194677
43.0739	74.5658	88.6397	129.0144	158.3599	201.0501	248.2571	296.7318	318.6247	430.56	455.219	527.0816	578.2132	617.795	648.1298	770.0653	821.0189	822.9335	874.2274	917.0934	921.5162	959.1191	1042.868	1055.8843	1067.3026	1121.7665	1132.0683	1145.0721	1158.6705	1180.6503	1199.0344	1232.048	1272.668	1296.3445	1358.9655	1381.8478	1399.916	1418.2287	1461.6851	1483.2058	1487.7912	1499.802	1513.9916	1535.5683	2233.7737	2946.715	2959.3703	2972.9451	2997.3159	3044.4934	3118.9117	3121.0254	3141.1504	3144.4837	3158.7312	3231.8221	3505.5126
CCOCC1CC1C#C	CCOC[C@H]1C[C@H]1C#C	
InChI=1S/C8H12O/c1-3-7-5-8(7)6-9-4-2/h1,7-8H,4-6H2,2H3	InChI=1S/C8H12O/c1-3-7-5-8(7)6-9-4-2/h1,7-8H,4-6H2,2H3/t7-,8-/m1/s1
