19
gdb 98315	4.13588	0.79965	0.6786	2.6234	79.96	-0.2511	-0.0215	0.2295	1640.8786	0.157067	-456.371876	-456.361435	-456.360491	-456.408171	35.992	
C	 0.0555556942	 1.4327489098	-0.0544067035	-0.314972
N	-0.0191375731	-0.0130171464	 0.0059298835	-0.243161
C	 0.5519049704	-0.6664011775	-0.9131118143	 0.117848
N	 0.5388278346	-2.0676319287	-0.9472579045	-0.147546
C	-0.154316348	-2.8049841733	 0.1090751968	-0.355631
C	 1.1849903385	-2.7075803435	-1.9832327164	 0.397184
O	 1.7701096258	-2.1146430972	-2.8760729618	-0.381308
C	 1.1593348785	-4.2364413542	-2.0020314356	-0.15155
O	 1.857952488	-4.7076041747	-3.1127968561	-0.421972
H	 0.618025805	 1.8131620143	-0.9206932938	 0.106958
H	-0.9574511683	 1.8497014753	-0.0869097427	 0.131465
H	 0.5257584134	 1.8125792617	 0.8597846066	 0.13147
H	 1.1003854049	-0.2392764126	-1.7547693847	 0.139575
H	-0.9630938883	-3.4153305486	-0.3025327304	 0.140403
H	 0.5374100743	-3.4505483028	 0.6575915228	 0.140406
H	-0.5729719027	-2.0666964186	 0.7905595314	 0.179174
H	 1.5990847797	-4.6162520851	-1.0658362146	 0.117477
H	 0.1123571258	-4.5795847117	-2.0164601544	 0.11748
H	 2.1684946372	-3.9067818361	-3.5680398585	 0.2967
43.515	76.5041	132.3094	138.3249	148.0161	189.0448	216.2786	274.9485	361.7603	375.8593	378.6085	423.1059	445.4018	566.1663	577.875	729.6696	836.9876	980.6469	1009.3585	1026.6229	1071.0647	1115.0071	1140.8883	1149.5258	1154.7851	1167.4858	1255.7892	1290.0325	1322.2659	1351.9282	1402.0969	1447.1175	1458.2071	1471.4329	1480.1965	1499.4439	1502.2966	1508.293	1509.3463	1746.2071	1764.2996	2976.341	2984.6292	2993.8014	3046.6266	3065.4085	3079.9322	3108.057	3118.4248	3170.8331	3661.6678
CN=CN(C)C(=O)CO	CN=CN(C)C(=O)CO	
InChI=1S/C5H10N2O2/c1-6-4-7(2)5(9)3-8/h4,8H,3H2,1-2H3	InChI=1S/C5H10N2O2/c1-6-4-7(2)5(9)3-8/h4,8H,3H2,1-2H3
