19
gdb 119860	3.24572	1.01683	0.79558	0.6461	80.92	-0.224	-0.0492	0.1748	1459.9603	0.159632	-419.253998	-419.244665	-419.24372	-419.289476	33.212	
C	 0.182692097	 1.5046246684	 0.0675631009	-0.394948
C	-0.2086904695	 0.0451205394	-0.1410446284	-0.114776
N	 0.5496952466	-0.5507216876	-1.2258521036	-0.365442
C	 0.7290372246	-1.8809935126	-1.36898304	 0.306848
N	 0.3940169488	-2.8072075582	-0.5411705342	-0.307707
C	 0.8253650513	-4.1099339652	-1.0706206741	-0.165966
C	 1.5021972199	-3.8808159286	-2.4405003012	-0.352245
C	 1.4094568277	-2.3748397237	-2.6189000329	 0.345377
O	 1.7693493445	-1.6811464383	-3.5391452205	-0.330301
H	 1.2440628402	 1.5945292927	 0.3168489469	 0.129559
H	-0.006611284	 2.0992905896	-0.8335933357	 0.118876
H	-0.4025510774	 1.9425111748	 0.8808734384	 0.125061
H	-0.0085271487	-0.5465315459	 0.7571193025	 0.138756
H	-1.2900289368	-0.0341236562	-0.3307004775	 0.106717
H	 0.7637577519	-0.0006494326	-2.0451364495	 0.252342
H	 1.504430378	-4.5831285409	-0.3515921765	 0.113278
H	-0.0460281494	-4.7702677268	-1.1503692385	 0.113374
H	 2.5509686925	-4.1920841694	-2.4693431231	 0.140731
H	 0.997121813	-4.3849666888	-3.269853273	 0.140466
33.9287	84.3707	91.2295	130.6714	219.739	259.6736	314.9232	353.0683	417.088	492.4025	564.8779	627.1632	655.0663	743.2015	794.1677	824.7341	827.0597	911.3679	964.3886	1030.6857	1036.2527	1053.6374	1126.4519	1165.7652	1172.6949	1183.6404	1230.9368	1249.9303	1291.3298	1317.7963	1338.4066	1395.3978	1416.8228	1442.7906	1493.0999	1498.881	1503.6576	1522.833	1556.3613	1709.9135	1828.3384	2989.2493	3030.8291	3035.5241	3054.4335	3063.2524	3081.2497	3103.8514	3106.6793	3121.854	3608.7823
CCNC1=NCCC1=O	CCNC1=NCCC1=O	
InChI=1S/C6H10N2O/c1-2-7-6-5(9)3-4-8-6/h2-4H2,1H3,(H,7,8)	InChI=1S/C6H10N2O/c1-2-7-6-5(9)3-4-8-6/h2-4H2,1H3,(H,7,8)
