17
gdb 68566	2.42373	1.75883	1.45031	1.1482	71.75	-0.2409	-0.0306	0.2104	970.1468	0.134016	-421.786095	-421.778117	-421.777173	-421.818598	30.516	
C	-0.1826676639	 1.4867623977	-0.0915150105	-0.520548
C	-0.1008871637	-0.0074776692	 0.0180120573	 0.37499
O	 0.4529452844	-0.7162719033	-1.1562701092	-0.315844
C	-0.1179489618	-1.8925263777	-0.5139132429	-0.009087
C	 0.692704231	-1.96075814	 0.7939285606	-0.095058
C	 0.7014490085	-0.6794320749	 1.1590001797	-0.099925
C	-1.3263624523	-0.9733704494	-0.0978730817	-0.131471
C	-2.2143115144	-1.2658808324	 1.0771906019	 0.131902
O	-2.218245575	-0.6308984434	 2.1027534768	-0.247529
H	 0.819012995	 1.9224199222	-0.1572801646	 0.134449
H	-0.7468552584	 1.7824354621	-0.9799338534	 0.128763
H	-0.6824952139	 1.8922487998	 0.7931023706	 0.144
H	-0.2185039333	-2.7643711369	-1.1579822305	 0.086808
H	 1.1083253569	-2.8400385168	 1.2627348446	 0.114893
H	 1.1269273076	-0.184780441	 2.0191323333	 0.1183
H	-1.9410908728	-0.7530648209	-0.9796647474	 0.107302
H	-2.9108579038	-2.1247428958	 0.9339032955	 0.078053
83.5328	138.5832	195.4154	216.595	290.431	314.6904	429.3254	538.1853	577.0682	620.6055	689.5491	714.2708	758.2221	782.0722	844.8949	866.7287	882.4945	900.557	909.5315	959.541	1011.608	1051.6986	1074.0569	1112.0074	1140.0717	1183.5002	1227.947	1258.774	1281.2471	1314.5443	1375.4667	1416.7392	1421.3328	1481.9615	1492.7325	1622.4773	1816.9462	2859.1719	3043.4874	3045.4114	3117.5543	3124.7374	3141.3483	3235.9177	3263.1398
CC12OC(C=C1)C2C=O	C[C@@]12O[C@@H](C=C1)[C@H]2C=O	
InChI=1S/C7H8O2/c1-7-3-2-6(9-7)5(7)4-8/h2-6H,1H3	InChI=1S/C7H8O2/c1-7-3-2-6(9-7)5(7)4-8/h2-6H,1H3/t5-,6+,7-/m1/s1
