20
gdb 53579	4.12833	0.69064	0.62954	1.6654	85.08	-0.2226	0.0463	0.2689	1808.5965	0.168965	-403.089513	-403.079335	-403.078391	-403.127175	35.618	
C	-0.0423690724	 1.4834231828	-0.0328077589	-0.498196
C	-0.0023778998	 0.0284977655	-0.0005882664	 0.108023
C	 0.033142402	-1.1745211989	 0.0182218542	 0.0425
C	 0.0725737056	-2.6333577662	 0.0692599173	-0.313564
N	-1.2577955375	-3.2200989532	 0.0963880034	-0.081295
C	-2.1138507628	-2.9931050422	 1.2815032611	-0.197706
C	-2.657626637	-4.4346711095	 1.0987613057	 0.145535
O	-3.8601996321	-4.5349132591	 0.3752818632	-0.437583
C	-1.3678967173	-4.6835616137	 0.272420998	-0.203351
H	 0.6695099459	 1.8841455701	-0.7629004593	 0.148829
H	-1.0383628618	 1.8455235082	-0.3105731342	 0.149743
H	 0.2063103886	 1.9134343323	 0.9437236842	 0.147065
H	 0.5970590107	-3.0238439629	-0.8133142753	 0.12857
H	 0.670323147	-2.9490056816	 0.9496570455	 0.099352
H	-1.5425852756	-2.8786506959	 2.2176766696	 0.086954
H	-2.8304231833	-2.1708879143	 1.193101945	 0.107937
H	-2.7893607331	-5.0328725738	 2.0007129729	 0.091803
H	-3.7615749125	-3.9977576351	-0.4195790555	 0.288591
H	-1.468687474	-5.2634058224	-0.651494075	 0.1031
H	-0.5575847805	-5.1130911202	 0.8860844445	 0.083691
13.7299	53.8522	61.4975	112.2535	208.0273	237.7467	301.7959	325.634	381.3735	387.8864	413.0477	439.1138	477.4522	731.3104	775.3306	848.5228	859.3974	928.174	990.7763	1000.8668	1016.4247	1051.9522	1055.0645	1089.9242	1122.4673	1138.227	1159.8942	1179.1081	1218.8395	1235.4777	1263.4099	1285.6918	1318.7158	1328.0109	1390.429	1414.9553	1441.5338	1477.7982	1479.1697	1479.9108	1489.6261	1518.7039	2376.4234	2883.2841	2956.3047	2970.4485	3024.1054	3027.2044	3062.4432	3077.5773	3087.5838	3088.7318	3114.6125	3795.0128
CC#CCN1CC(O)C1	CC#CCN1CC(O)C1	
InChI=1S/C7H11NO/c1-2-3-4-8-5-7(9)6-8/h7,9H,4-6H2,1H3	InChI=1S/C7H11NO/c1-2-3-4-8-5-7(9)6-8/h7,9H,4-6H2,1H3
