18
gdb 102945	2.68296	0.90214	0.71893	3.6674	76.85	-0.2525	0.02	0.2725	1551.5559	0.144981	-439.061863	-439.051603	-439.050659	-439.098322	35.533	
C	-0.3957601281	 1.4778498063	-0.003588366	-0.241524
O	-0.0798049112	 0.1142374723	-0.2094271925	-0.243958
C	-1.1840243676	-0.7675142587	-0.0536830258	-0.077077
C	-0.701624416	-2.1428966206	-0.5403244496	-0.172028
N	-0.2329731867	-2.0723565627	-1.9076454996	-0.275318
C	-0.8024614637	-2.7713836182	-2.9259880021	 0.151334
O	-1.70918748	-3.5683716326	-2.8100353111	-0.321673
C	-1.6606393232	-0.833452073	 1.3314297294	 0.340448
C	-2.0409905406	-0.9053497055	 2.4692465354	-0.457146
H	 0.5211866963	 2.0453511607	-0.1762862843	 0.131254
H	-1.1691506383	 1.8216430651	-0.7070137385	 0.110085
H	-0.7460826509	 1.6604034619	 1.0204170626	 0.126666
H	-2.0113261687	-0.435619131	-0.7029417326	 0.10488
H	 0.0974478171	-2.4845282815	 0.1267263124	 0.127121
H	-1.5185023986	-2.8649019765	-0.5088685776	 0.159758
H	 0.4688080416	-1.3801130926	-2.1172223282	 0.256526
H	-0.3272297084	-2.5340782285	-3.8984051898	 0.075217
H	-2.3850287329	-0.9665185449	 3.472539128	 0.205437
36.5121	72.7436	107.0958	130.8756	172.4856	207.3674	247.1815	270.6443	293.9097	368.2948	476.0497	545.0407	573.098	578.4729	641.1651	683.5635	748.8643	860.8807	982.0001	999.8249	1033.1568	1052.4131	1102.3599	1141.7429	1184.7689	1206.3033	1222.4301	1278.4154	1305.4349	1361.0975	1394.4203	1430.0661	1477.0194	1479.938	1485.6058	1510.5855	1526.7501	1806.2188	2232.9173	2938.4213	2968.6207	2989.9217	3051.0821	3054.362	3124.7988	3142.8142	3500.7391	3640.8661
COC(CNC=O)C#C	CO[C@@H](CNC=O)C#C	
InChI=1S/C6H9NO2/c1-3-6(9-2)4-7-5-8/h1,5-6H,4H2,2H3,(H,7,8)	InChI=1S/C6H9NO2/c1-3-6(9-2)4-7-5-8/h1,5-6H,4H2,2H3,(H,7,8)/t6-/m1/s1
