18
gdb 9132	3.96662	0.87288	0.76568	0.7456	83.07	-0.2468	0.0415	0.2883	1535.5813	0.15071	-310.613998	-310.604071	-310.603127	-310.651491	34.585	
C	 0.1356576318	 1.4577733325	-0.3954869553	-0.364336
C	-0.0181443827	 0.1112665563	 0.335018647	-0.313539
C	-1.3805184876	-0.4106168093	 0.2933840076	 0.059716
C	-2.5138924643	-0.8146665581	 0.2532788086	 0.092881
C	-3.8838614728	-1.3378807319	 0.1919101578	-0.318844
C	-3.900282	-2.8323037533	-0.2181073134	-0.375656
C	-4.5971795246	-1.1334472664	 1.4585613519	 0.347692
C	-5.1984613417	-0.9904928425	 2.4885534484	-0.473512
H	 1.170330866	 1.8083672861	-0.3355665845	 0.113923
H	-0.134905492	 1.3608149082	-1.4504560809	 0.126705
H	-0.5125540676	 2.2170952629	 0.0501014761	 0.129776
H	 0.6673874526	-0.6247328013	-0.1045075026	 0.127782
H	 0.2934102944	 0.2242072982	 1.381354934	 0.131052
H	-4.425311362	-0.7781997951	-0.5850749229	 0.133238
H	-4.9305052432	-3.1890598477	-0.2947817462	 0.125257
H	-3.4037747406	-2.9575515978	-1.1835001174	 0.12455
H	-3.3750715446	-3.4342210797	 0.5266941906	 0.136508
H	-5.7225000811	-0.8524740412	 3.4016124112	 0.196809
3.9037	83.4861	99.4077	173.9309	200.7494	214.333	239.2046	301.6318	358.8719	463.3235	491.1844	537.0701	563.9047	628.2523	641.2928	724.2202	785.2559	847.4277	949.7609	1006.1054	1067.6374	1078.6425	1096.1249	1105.7407	1183.7151	1285.9168	1300.253	1323.6343	1351.0261	1402.1458	1408.5081	1475.264	1488.7534	1494.7135	1496.7341	1505.7037	2240.184	2369.7047	2993.9655	3019.3983	3043.7081	3046.5813	3049.9081	3116.868	3123.2891	3130.2309	3136.6935	3505.5502	3.9154	83.4865	99.408	173.931	200.7495	214.3334	239.2051	301.632	358.8717	463.3235	491.1841	537.0701	563.9046	628.2525	641.2931	724.2201	785.2559	847.4277	949.7609	1006.1054	1067.6374	1078.6424	1096.1248	1105.7405	1183.715	1285.9166	1300.2529	1323.6343	1351.0261	1402.1457	1408.508	1475.2638	1488.7531	1494.7133	1496.7338	1505.7034	2240.184	2369.7045	2993.9655	3019.3983	3043.7082	3046.5814	3049.9081	3116.868	3123.2892	3130.2309	3136.6935	3505.5502
CCC#CC(C)C#C	CCC#C[C@@H](C)C#C	
InChI=1S/C8H10/c1-4-6-7-8(3)5-2/h2,8H,4H2,1,3H3	InChI=1S/C8H10/c1-4-6-7-8(3)5-2/h2,8H,4H2,1,3H3/t8-/m0/s1
