23
gdb 99889	2.17594	1.27977	1.0134	0.5503	91.21	-0.2553	0.061	0.3163	1331.0143	0.203073	-351.11274	-351.102163	-351.101219	-351.148075	40.097	
C	-0.1642092307	 1.4794224888	 0.1169847533	-0.404346
C	-0.0315950336	-0.0257726574	-0.1253063154	-0.177504
C	 0.7956039014	-0.4440277545	-1.3787248647	 0.040041
C	 0.1587477058	 0.1341310702	-2.6619065172	-0.432778
C	 2.1675983675	 0.0694915435	-1.2572688999	 0.374914
C	 3.2922927414	 0.4833051445	-1.1536099144	-0.515228
C	 0.8725836462	-1.9819047313	-1.3843761698	 0.032543
C	-0.1862402079	-2.8674837959	-1.9921407441	-0.289003
C	 1.1968440815	-2.8096162822	-2.5972923805	-0.281786
H	 0.8192586361	 1.9548388933	 0.1787271972	 0.130514
H	-0.7311432913	 1.9762223285	-0.6760791276	 0.114826
H	-0.6889684833	 1.6665810378	 1.0589694173	 0.111501
H	 0.4346203241	-0.4897042625	 0.7515171553	 0.099811
H	-1.0248159569	-0.4797571568	-0.2265868219	 0.097103
H	 0.2021915633	 1.2249200834	-2.6501082103	 0.129849
H	 0.6886708815	-0.2012861846	-3.5563878161	 0.125571
H	-0.8913931552	-0.1624198965	-2.7426492885	 0.115115
H	 4.2867091331	 0.8453045082	-1.0661535331	 0.191485
H	 1.3016397457	-2.3555276953	-0.4583034496	 0.089119
H	-0.4818141066	-3.756843237	-1.4462854476	 0.110249
H	-0.9929320388	-2.4081988385	-2.5519097696	 0.112052
H	 1.3032071563	-2.3137942347	-3.5553971016	 0.114808
H	 1.8585396904	-3.6590120809	-2.4685580912	 0.111142
49.8422	104.091	142.6002	153.3308	208.2706	216.4699	266.4919	289.7688	321.9815	374.9607	396.1029	453.2847	531.2836	572.8407	623.805	626.2951	664.4537	779.233	788.0031	826.335	851.5045	893.0825	947.4488	954.8628	994.8257	1016.5163	1056.541	1073.585	1079.5822	1102.365	1146.4594	1150.4009	1196.3474	1208.981	1222.4933	1251.4891	1321.6456	1363.9164	1388.4592	1411.6887	1414.4852	1465.7994	1479.8328	1494.0421	1497.4476	1506.2681	1508.2804	1514.1254	2225.9774	3028.1315	3040.3247	3047.7072	3065.8938	3105.1408	3115.8831	3119.5922	3131.0176	3135.7979	3137.59	3142.6134	3212.8618	3227.3159	3501.0188
CCC(C)(C#C)C1CC1	CC[C@@](C)(C#C)C1CC1	
InChI=1S/C9H14/c1-4-9(3,5-2)8-6-7-8/h1,8H,5-7H2,2-3H3	InChI=1S/C9H14/c1-4-9(3,5-2)8-6-7-8/h1,8H,5-7H2,2-3H3/t9-/m1/s1
