16
gdb 44311	3.31816	1.92357	1.44328	3.2182	73.06	-0.2379	-0.0209	0.217	886.7451	0.125947	-400.660451	-400.654299	-400.653355	-400.690807	25.549	
O	-0.0017499752	 0.0731302937	-0.2166231345	-0.316515
C	 0.0099240921	 1.2573255653	-0.0310094286	 0.350664
C	-1.1914151478	 2.2465012937	 0.058255982	-0.351452
C	-0.4385752403	 3.5744021858	 0.2423071659	-0.018157
C	 0.7974911792	 3.549320917	-0.6592602726	-0.074232
C	 1.7755905147	 3.9418485565	 0.4745407792	-0.025259
C	 2.5991678483	 2.6331468472	 0.3817756027	-0.344748
C	 1.1366612571	 2.2396884936	 0.1476847815	 0.196649
N	 0.6485946797	 3.2216129219	 1.260223217	-0.175584
H	-1.8030222172	 2.1972425902	-0.8476310486	 0.130859
H	-1.8230825367	 1.9946219536	 0.9157051043	 0.141632
H	-1.0261333745	 4.4758241994	 0.4289618164	 0.077558
H	 0.9015913244	 3.6983594313	-1.7394033195	 0.077224
H	 2.1185649621	 4.9355985642	 0.7671019592	 0.09052
H	 3.2758042351	 2.5306622914	-0.4685538148	 0.115255
H	 3.0492642791	 2.2782643554	 1.3112630604	 0.125589
138.7523	308.6534	310.3541	423.9777	531.3213	598.7026	606.452	665.4464	697.3767	789.4701	825.3144	855.9627	876.5457	881.9666	922.5746	960.7979	974.4398	989.5195	1008.3967	1021.4693	1091.5667	1098.8258	1127.0163	1142.3537	1172.0436	1201.9903	1209.8842	1247.2434	1251.9183	1272.8108	1311.2543	1337.0168	1447.2736	1490.0761	1870.2808	3046.9285	3059.8461	3072.2969	3091.5299	3102.9016	3109.0153	3142.6612
O=C1CC2C3C4CC13N24	O=C1C[C@@H]2[C@H]3[C@@H]4C[C@]13N24	
InChI=1S/C7H7NO/c9-5-1-3-6-4-2-7(5,6)8(3)4/h3-4,6H,1-2H2	InChI=1S/C7H7NO/c9-5-1-3-6-4-2-7(5,6)8(3)4/h3-4,6H,1-2H2/t3-,4+,6+,7+/m1/s1
