16
gdb 129470	4.28147	1.00957	0.87932	5.4227	71.11	-0.2276	0.0048	0.2325	1274.7587	0.126681	-434.127033	-434.11884	-434.117895	-434.16122	30.124	
N	 0.4837582389	 0.1375751599	-0.7601282292	-0.507892
C	-0.2677046939	 0.2281965538	 0.3686972854	 0.38132
O	-0.1518042911	 1.1193048795	 1.1873743765	-0.362593
C	-1.3555855753	-0.8553400252	 0.5091009207	-0.401856
C	-0.9470612396	-2.2581263349	 0.1663476059	 0.336416
N	-0.5693761798	-2.5849407135	-1.072534648	-0.307194
N	-0.2639405579	-3.8954168391	-1.0053189579	-0.176846
C	-0.445985022	-4.4161792314	 0.2294743611	-0.015641
C	-0.8877486249	-3.3802218377	 1.0243849559	-0.277789
H	 1.2330140387	 0.7985537036	-0.8808331988	 0.253777
H	 0.4302542024	-0.6828966596	-1.3459295556	 0.270875
H	-1.7047888449	-0.8041596839	 1.5406275397	 0.133448
H	-2.1898040859	-0.5478258994	-0.1337785316	 0.141769
H	 0.0391257019	-4.3701164822	-1.8385082393	 0.27869
H	-0.2549756524	-5.456562405	 0.4395901858	 0.140394
H	-1.1329897743	-3.4209355249	 2.0730525192	 0.113119
39.6752	45.1225	148.4255	305.6737	331.4499	365.8455	391.745	501.5078	520.6184	577.9018	657.9804	674.0395	709.133	773.7845	801.0405	849.0494	872.6892	942.6858	949.8282	999.7927	1074.9655	1104.1566	1124.8603	1181.0059	1231.6122	1272.5275	1323.7448	1352.8926	1397.1058	1459.9033	1481.2911	1497.5254	1567.6995	1621.2	1802.9241	3040.4909	3134.3217	3259.7556	3278.5833	3555.4725	3678.0204	3708.4476
NC(=O)CC1=NNC=C1	NC(=O)Cc1n[nH]cc1	
InChI=1S/C5H7N3O/c6-5(9)3-4-1-2-7-8-4/h1-2H,3H2,(H2,6,9)(H,7,8)	InChI=1S/C5H7N3O/c6-5(9)3-4-1-2-7-8-4/h1-2H,3H2,(H2,6,9)(H,7,8)
