20
gdb 119942	2.21777	1.12635	0.91337	3.9717	80.57	-0.2599	0.0308	0.2907	1387.872	0.169438	-403.142518	-403.132382	-403.131437	-403.178443	35.544	
C	 0.0342586255	 1.3524715447	-0.2249243714	-0.229201
O	-0.0410980745	-0.0542324718	-0.2367697112	-0.23461
C	-1.2816574432	-0.5385377467	 0.2274730577	-0.07846
C	-1.245661557	-2.0422200223	 0.1402270504	-0.044076
C	-2.4804347197	-2.8970788726	 0.1186366658	-0.042501
C	-3.8863164947	-2.3420069942	 0.1922804357	-0.416167
C	-1.6314483586	-2.7683863997	-1.1476756425	-0.189595
C	-2.1328992914	-2.0194643863	-2.2640240566	 0.295819
N	-2.5502057834	-1.415814948	-3.159263036	-0.352446
H	 1.0246407833	 1.6280666741	-0.5942848267	 0.130421
H	-0.7277757825	 1.8067631484	-0.8766642836	 0.114702
H	-0.0931334861	 1.7601457911	 0.7908282789	 0.101936
H	-1.4488793995	-0.2302270365	 1.274601202	 0.090272
H	-2.1059056619	-0.1205099679	-0.3698222989	 0.106394
H	-0.3775115975	-2.4658589603	 0.6364987779	 0.110154
H	-2.3666794922	-3.8616469002	 0.6059721913	 0.104005
H	-4.0065423286	-1.4349401014	-0.4037870033	 0.144479
H	-4.6053555285	-3.0769315173	-0.182874476	 0.13199
H	-4.1548334459	-2.1091644593	 1.2279019484	 0.124957
H	-1.0259543938	-3.6220038138	-1.4319672521	 0.131927
44.9041	89.1351	114.1691	141.7257	160.3149	192.7028	230.16	261.9724	336.7913	374.6976	449.3903	501.635	601.4328	629.3999	748.8675	798.3035	881.0398	932.8356	962.2435	995.2755	1023.0064	1058.4861	1102.5323	1130.9752	1148.4923	1162.3522	1176.6055	1193.3524	1229.6009	1249.7429	1278.133	1355.5646	1368.3842	1416.484	1424.4364	1453.2663	1482.3499	1485.9707	1492.9556	1501.0278	1505.706	1525.047	2348.0218	2949.9328	2972.2566	3006.7993	3019.2176	3042.6426	3102.7169	3118.9507	3126.2562	3145.7274	3157.057	3173.681
COCC1C(C)C1C#N	COC[C@H]1[C@@H](C)[C@H]1C#N	
InChI=1S/C7H11NO/c1-5-6(3-8)7(5)4-9-2/h5-7H,4H2,1-2H3	InChI=1S/C7H11NO/c1-5-6(3-8)7(5)4-9-2/h5-7H,4H2,1-2H3/t5-,6+,7-/m0/s1
