21
gdb 58570	2.14639	1.48978	1.21843	3.4384	73.73	-0.2479	0.053	0.301	1149.0356	0.180918	-461.352986	-461.343336	-461.342392	-461.38685	37.527	
C	 0.1206859678	 1.418322208	-0.2475062932	-0.422961
C	-0.0629358048	-0.0924196604	-0.1051794243	 0.092781
O	 0.7069495305	-0.5939230169	 0.9962580946	-0.444987
C	-1.5186553631	-0.532678095	 0.1138168298	 0.313738
O	-1.955307355	-0.0629392865	 1.3884957887	-0.491393
C	-2.4851697953	-0.3475191191	-1.0882301852	-0.309729
C	-2.2909112829	-1.8484307862	-1.4397028281	-0.245513
C	-1.6985311016	-2.0744022926	-0.0269232984	 0.129687
O	-0.5687734512	-2.9028488724	 0.0379130044	-0.449098
H	 1.1835909259	 1.6530687162	-0.3426002417	 0.134769
H	-0.3985372521	 1.8067962331	-1.1292659859	 0.121256
H	-0.2554275014	 1.9474271019	 0.635847011	 0.103279
H	 0.3334171298	-0.5959739735	-0.9924912464	 0.101926
H	 0.1962682595	-0.3570596776	 1.7840373585	 0.287494
H	-2.1629474894	 0.8749579048	 1.3121083702	 0.28322
H	-3.4958409634	-0.1281048776	-0.7342934242	 0.10922
H	-2.209587053	 0.3866095013	-1.8489001521	 0.101177
H	-3.1799333715	-2.4207376418	-1.7078601017	 0.105203
H	-1.5233013307	-2.0028298412	-2.2015002536	 0.113872
H	-2.4764142859	-2.3942927865	 0.6814433265	 0.074944
H	 0.0803818778	-2.4518554881	 0.5984495209	 0.291116
81.6439	116.2142	195.6455	226.6693	261.8401	271.2247	302.6385	337.2759	373.4449	401.0333	439.379	484.1853	514.6649	589.5728	624.4434	667.6194	724.6274	794.0423	855.6097	913.5002	941.1023	960.2486	974.9778	1027.5547	1084.5533	1100.5308	1105.4459	1125.5814	1173.8767	1184.7461	1222.5971	1236.7115	1264.1934	1288.4534	1298.2499	1318.2421	1371.2202	1388.2064	1403.8158	1417.1847	1429.5758	1477.5204	1490.3614	1494.8039	1501.781	2998.0203	3032.5309	3061.6615	3068.7841	3076.1913	3101.2797	3112.7892	3124.0595	3135.3368	3702.6959	3740.4531	3803.1644
CC(O)C1(O)CCC1O	C[C@@H](O)[C@@]1(O)CC[C@H]1O	
InChI=1S/C6H12O3/c1-4(7)6(9)3-2-5(6)8/h4-5,7-9H,2-3H2,1H3	InChI=1S/C6H12O3/c1-4(7)6(9)3-2-5(6)8/h4-5,7-9H,2-3H2,1H3/t4-,5-,6+/m1/s1
