17
gdb 60801	2.8813	1.10188	0.85526	0.971	66.7	-0.2671	-0.0479	0.2192	1306.6905	0.131967	-496.125208	-496.115435	-496.114491	-496.160612	34.583	
C	 0.089479171	 1.4770055508	-0.0625456288	-0.489437
C	 0.0748248036	-0.0246548657	-0.018327705	 0.367804
O	 1.080864441	-0.7044766158	-0.0308520434	-0.319487
C	-1.2735407756	-0.76586909	 0.0229315433	-0.003642
O	-1.0608101161	-2.1283363098	-0.2235009929	-0.433362
C	-1.9559938922	-0.6109139122	 1.420277027	 0.015664
O	-2.2685452484	 0.7160115053	 1.7286473275	-0.430436
C	-3.2209506122	-1.4546213718	 1.445060376	 0.138158
O	-4.2866418453	-0.9476718373	 1.7071757315	-0.266205
H	 1.1134946863	 1.8428539209	 0.0191915768	 0.144051
H	-0.3418112506	 1.8110671376	-1.0140731751	 0.148692
H	-0.5452755791	 1.8823565868	 0.7292543021	 0.183715
H	-1.9458242069	-0.3329637551	-0.7320890441	 0.101691
H	-0.0924185491	-2.2324680186	-0.2021015	 0.297671
H	-1.2592513874	-1.0406472562	 2.1603306244	 0.109624
H	-3.2321349788	 0.7279579163	 1.8642330774	 0.299345
H	-3.1099593602	-2.524771905	 1.2073080337	 0.136153
54.3811	71.249	115.0734	140.3327	188.8678	264.9207	301.2221	346.1306	378.1299	388.2096	470.9128	509.7431	541.735	592.1981	636.0489	773.4295	808.3691	857.9401	973.9631	1000.3926	1015.7847	1088.3642	1125.6678	1157.5528	1212.2926	1245.0543	1281.2467	1288.4008	1345.3276	1375.2673	1391.3969	1423.6544	1446.9709	1468.538	1469.7225	1790.9834	1802.9785	2967.3916	3009.6487	3019.3348	3042.4677	3114.4575	3163.2671	3624.9757	3642.904
CC(=O)C(O)C(O)C=O	CC(=O)[C@@H](O)[C@@H](O)C=O	
InChI=1S/C5H8O4/c1-3(7)5(9)4(8)2-6/h2,4-5,8-9H,1H3	InChI=1S/C5H8O4/c1-3(7)5(9)4(8)2-6/h2,4-5,8-9H,1H3/t4-,5+/m0/s1
