21
gdb 70929	3.3899	1.44289	1.2415	1.6121	82.79	-0.2377	0.0883	0.326	1093.4671	0.184047	-387.028918	-387.021172	-387.020228	-387.060906	31.645	
C	 0.0683803444	 1.5337882241	-0.0928222711	-0.506109
C	 0.0323682541	 0.0327719059	 0.0003915939	 0.286342
C	 0.5863587848	-0.990252858	-1.0860892287	-0.330391
C	-0.0150373888	-1.8263845982	 0.068759041	 0.443538
C	 0.7138924422	-0.8650110395	 1.065507831	-0.332771
O	-0.3772585744	-3.139857292	 0.3220490997	-0.324575
C	-1.6269932496	-3.0505652838	 1.0619413635	-0.0822
C	-2.0263491003	-1.5326148337	 1.2224609495	-0.326683
C	-1.2320642961	-0.9156557218	 0.0679269208	-0.045083
H	 1.0971399878	 1.8977902547	-0.1901070905	 0.11992
H	-0.4981065055	 1.8907678758	-0.9596065199	 0.11918
H	-0.3655112225	 1.9910514966	 0.8029525571	 0.120275
H	 0.0573757134	-1.0165032442	-2.0425027914	 0.093958
H	 1.6716323997	-1.0036813925	-1.2162407292	 0.09287
H	 1.8067112145	-0.8856269011	 1.05401254	 0.086778
H	 0.3342129687	-0.8044318518	 2.0866919145	 0.088312
H	-2.3858262556	-3.6043339306	 0.4974719756	 0.108031
H	-1.4957075793	-3.5405989914	 2.0321799821	 0.108677
H	-3.1067194318	-1.4021660586	 1.1267832697	 0.102869
H	-1.7369570601	-1.1644376035	 2.2087036438	 0.112822
H	-1.8065745955	-0.9353567464	-0.8645887213	 0.064243
84.9079	210.934	215.6643	242.2254	344.5452	402.2343	482.1502	515.5294	568.3186	604.8765	648.2572	717.3976	744.7659	795.9204	830.5117	893.437	902.0242	953.1279	963.3555	977.188	996.1216	1033.3041	1034.9379	1091.7064	1099.259	1110.6478	1126.6162	1159.1219	1167.7045	1187.6741	1209.8107	1215.1412	1233.3089	1259.8806	1284.9357	1314.9961	1386.8146	1405.1703	1415.4332	1484.8994	1489.0776	1491.2339	1502.6481	1519.0946	1548.8223	3026.8998	3033.1762	3040.4251	3051.1617	3063.1323	3071.9842	3077.449	3094.0906	3095.6	3116.05	3121.5537	3129.846
CC12CC3(C1)OCCC23	C[C@@]12C[C@]3(C1)OCC[C@@H]23	
InChI=1S/C8H12O/c1-7-4-8(5-7)6(7)2-3-9-8/h6H,2-5H2,1H3	InChI=1S/C8H12O/c1-7-4-8(5-7)6(7)2-3-9-8/h6H,2-5H2,1H3/t6-,7-,8-/m0/s1
