18
gdb 51613	6.61349	0.72222	0.70638	4.2468	76.02	-0.2602	0.0194	0.2796	1587.0894	0.146246	-439.04474	-439.036047	-439.035103	-439.079497	31.588	
N	 0.6495641825	 1.0330353599	-0.1531156154	-0.439505
C	 0.2911161063	-0.1652465503	 0.0100338704	 0.120209
O	-0.9874655171	-0.5253175014	-0.2206535584	-0.185576
C	-1.3660573739	-1.8474002068	 0.1170942045	 0.138263
C	-2.0977213173	-2.0463170633	 1.4764330346	-0.348389
C	-3.1196659239	-2.8926973129	 0.7120688267	 0.459863
C	-3.6325480415	-4.2260160414	 1.0275629756	-0.267274
O	-4.4717077994	-3.0603941807	 1.0750790003	-0.264623
C	-2.6277235507	-2.3414069123	-0.6295114974	-0.349274
H	 1.6450898167	 1.1263236924	 0.0369871168	 0.229885
H	 0.931194043	-1.0028808429	 0.3223065997	 0.083731
H	-0.5146917477	-2.5269485194	-0.0012930212	 0.088585
H	-1.5461476154	-2.5066160255	 2.298958893	 0.108973
H	-2.5377844291	-1.1020324385	 1.8096752225	 0.136163
H	-3.8552836157	-4.92681096	 0.2237087875	 0.118401
H	-3.4112016643	-4.6792752509	 1.993206744	 0.117868
H	-3.231618961	-1.4876784289	-0.9496927955	 0.139391
H	-2.4943106716	-3.0303711871	-1.4655551976	 0.11331
34.6425	63.6193	104.5306	214.5475	296.4098	317.9376	331.4636	404.4823	446.1376	532.9493	613.4537	774.9865	813.5512	820.7033	859.3575	877.8991	902.0882	969.6989	996.4639	1026.1013	1041.4161	1048.0052	1115.5647	1126.299	1146.9226	1176.1431	1183.9883	1209.9257	1218.0222	1257.6418	1277.1435	1295.021	1387.393	1427.1916	1440.9253	1458.761	1488.4407	1539.7902	1747.0409	3012.1451	3042.8204	3063.4084	3070.1614	3079.1386	3124.6894	3129.5811	3166.5486	3519.2206
N=COC1CC2(CO2)C1	[NH][CH]O[C@H]1C[C@]2(CO2)C1	
InChI=1S/C6H9NO2/c7-4-8-5-1-6(2-5)3-9-6/h4-5,7H,1-3H2	InChI=1S/C6H9NO2/c7-4-8-5-1-6(2-5)3-9-6/h4-5,7H,1-3H2/t5-,6+
