19
gdb 77506	1.90447	1.73837	1.29299	1.6909	71.34	-0.2416	0.0596	0.3012	1082.5272	0.156954	-460.108035	-460.098586	-460.097642	-460.141443	36.181	
C	-0.1359366251	 1.5929289597	 0.0096850143	-0.445484
C	 0.0245509181	 0.0821906778	 0.0332867046	-0.067174
C	 1.1671044607	-0.6358999123	-0.7379412182	 0.338195
O	 1.2852548173	-0.5998250702	-2.1155152012	-0.476596
C	 2.1809678505	-0.1583696045	 0.3495033512	-0.363091
C	 0.9234500767	-0.6454317984	 1.1058644352	 0.382918
O	 0.8070450747	-0.6216987743	 2.4794761716	-0.476166
C	 0.9345368938	-1.888452468	 0.1714685549	-0.003863
O	-0.2655338198	-2.6159572465	 0.0903974771	-0.45035
H	 0.797896704	 2.1406616958	 0.157146893	 0.117328
H	-0.5585695423	 1.9136332311	-0.9484205911	 0.123727
H	-0.8287834249	 1.9095924294	 0.7967760483	 0.118291
H	-0.9419559162	-0.4072879421	-0.1031304821	 0.077951
H	 2.1382307521	-0.9745798923	-2.3604882984	 0.285065
H	 3.08431065	-0.7623296704	 0.4805476643	 0.089326
H	 2.4056484992	 0.9054384161	 0.3894408633	 0.108648
H	-0.0081483214	-1.0795103569	 2.7144809837	 0.291362
H	 1.8023687616	-2.5528775682	 0.2891310853	 0.060041
H	-0.3424773093	-2.971236146	-0.8012434759	 0.289872
138.9191	150.5866	185.3069	215.556	225.986	263.711	275.1448	309.7464	325.8981	402.6564	468.0576	543.4715	556.8823	614.5098	669.3556	681.3179	742.7536	798.3671	819.6004	957.2713	1024.1051	1029.7377	1073.9398	1092.8104	1119.8809	1135.362	1140.6294	1149.7836	1168.3445	1185.4821	1265.2509	1307.5052	1313.9048	1368.0422	1386.1612	1405.459	1419.5595	1445.6538	1495.0967	1505.6679	1539.0015	3004.2704	3037.6605	3059.9034	3087.6664	3094.8072	3119.0196	3156.9416	3801.3042	3806.3895	3810.6035
CC1C2(O)CC1(O)C2O	C[C@H]1[C@@]2(O)C[C@]1(O)[C@H]2O	
InChI=1S/C6H10O3/c1-3-5(8)2-6(3,9)4(5)7/h3-4,7-9H,2H2,1H3	InChI=1S/C6H10O3/c1-3-5(8)2-6(3,9)4(5)7/h3-4,7-9H,2H2,1H3/t3-,4-,5-,6+
