17
gdb 24306	3.02379	2.21605	1.45907	1.6503	78.12	-0.1932	-0.0074	0.1857	880.2322	0.139765	-380.8063	-380.799832	-380.798888	-380.837092	26.476	
C	-0.1025768605	 1.519107833	-0.080076901	-0.182591
C	 1.4453150842	 1.6967332569	 0.0633833003	-0.099382
C	 2.115667624	 2.1896442777	 1.3879690998	-0.181205
N	 2.3322962471	 0.975082691	 2.2617558474	-0.360765
C	 1.6127636534	-0.0822134464	 1.6220007558	 0.114883
C	 1.3589807671	 0.2268871939	 0.3231449442	 0.08442
N	 0.0155117425	-0.0403388033	-0.033877064	-0.106768
C	-0.4713346751	-0.7791802361	 1.0629478609	-0.096312
C	 0.4748983152	-0.8659815597	 2.0556702331	-0.167251
H	-0.6698441793	 1.873322142	 0.7819200135	 0.133055
H	-0.5472835302	 1.8523447609	-1.0175846641	 0.127591
H	 1.9314526226	 2.0673325995	-0.8415574948	 0.081995
H	 3.0676061116	 2.6882589374	 1.1790850272	 0.106423
H	 1.4844723309	 2.9104756828	 1.9247483253	 0.109181
H	 3.3168772981	 0.7958777456	 2.4204230266	 0.228853
H	-1.4457612441	-1.2488842103	 1.021550957	 0.106838
H	 0.3580316823	-1.402481675	 2.9877533426	 0.101035
87.8886	266.5806	319.3224	350.5869	502.8411	596.9786	621.0076	680.5111	705.2183	735.8028	754.7302	795.148	842.362	853.3686	882.1106	894.3483	940.3588	953.2332	1010.0577	1063.5253	1079.1771	1093.4813	1126.5023	1144.9693	1179.3987	1222.7754	1240.9725	1262.1363	1296.7693	1324.8676	1345.1197	1389.7401	1408.4232	1458.6418	1481.2454	1499.4922	1581.8643	3010.5439	3065.5402	3077.5797	3081.1583	3155.021	3208.992	3232.156	3527.3105
C1C2CNC3=C2N1C=C3	C1[C@H]2CN[C]3[C]2N1C=C3	
InChI=1S/C7H8N2/c1-2-9-4-5-3-8-6(1)7(5)9/h1-2,5,8H,3-4H2	InChI=1S/C7H8N2/c1-2-9-4-5-3-8-6(1)7(5)9/h1-2,5,8H,3-4H2/t5-/m1/s1
