12
gdb 133389	3.35827	1.44726	1.0116	1.9346	61.36	-0.2506	-0.0518	0.1988	1037.2257	0.077631	-510.08355	-510.076126	-510.075182	-510.11571	27.359	
N	 0.0428091448	 1.3277745687	 0.0736615745	-0.546951
C	-0.018875305	-0.0150778153	 0.0212396741	 0.437062
N	-1.1765759964	-0.6057640062	-0.0008785146	-0.225466
O	-1.1108672423	-2.0363243938	-0.0187952612	-0.226388
C	 0.0695725383	-2.6168825367	-0.0140858228	 0.431573
F	-0.0857816059	-3.9155934594	-0.0201218218	-0.032457
N	 1.2371088286	-2.1113907116	-0.0071155381	-0.42378
C	 1.2922433453	-0.7253185155	-0.0010143709	 0.31783
N	 2.3522517342	-0.0185990774	-0.018521926	-0.533532
H	 0.9596214172	 1.735261669	-0.0265186101	 0.289572
H	-0.7908488767	 1.8812726132	-0.0203426886	 0.274292
H	 3.1769037078	-0.6201388551	-0.0384239346	 0.238247
80.9615	189.5938	204.2548	316.8831	338.6688	382.7254	449.7307	493.7727	533.7288	572.0671	605.5645	721.0948	734.9548	805.5271	815.5081	915.7831	933.6915	1013.0727	1134.1793	1178.1564	1320.1517	1382.8937	1483.8321	1590.97	1649.0654	1696.2826	1726.4956	3483.9061	3588.7177	3733.7793
NC1=NOC(F)=NC1=N	NC1=NOC(=N[C]1[NH])F	
InChI=1S/C3H3FN4O/c4-3-7-1(5)2(6)8-9-3/h5H,(H2,6,8)	InChI=1S/C3H3FN4O/c4-3-7-1(5)2(6)8-9-3/h5H,(H2,6,8)
