19
gdb 89765	2.33916	1.49912	1.05762	5.22	80.25	-0.2577	0.0322	0.2899	1179.3686	0.159551	-382.051313	-382.042548	-382.041604	-382.084932	32.918	
C	-0.8196769011	 1.1452641004	-0.0391257833	-0.419072
C	 0.1581922871	-0.0157973802	-0.0003626097	 0.037288
C	 1.5220901394	 0.1222591713	-0.7416981963	-0.330309
C	 2.1891494437	-0.5674054424	 0.4488093555	 0.376809
C	 3.0258811351	-1.7865061998	 0.4141915513	-0.307539
N	 3.5571858731	-0.5025888998	 0.9141936354	-0.351658
C	 0.9434780364	-0.3292860164	 1.3353647798	-0.27527
C	 1.0733614702	 0.8052482181	 2.2374739749	 0.304831
N	 1.1637990707	 1.7206433101	 2.9383489995	-0.341173
H	-0.3525516954	 2.0713528467	 0.3086724265	 0.142296
H	-1.1774751839	 1.3064778264	-1.0615371051	 0.119229
H	-1.6914458578	 0.9531409693	 0.5948157591	 0.126343
H	-0.3374955436	-0.9400033107	-0.3107583089	 0.090693
H	 1.6149408915	-0.3532237246	-1.7211519946	 0.108313
H	 1.8244283616	 1.1724060807	-0.8249536233	 0.118543
H	 2.9125225956	-2.5566699688	 1.1728910105	 0.125492
H	 3.3489025914	-2.14969822	-0.558801866	 0.11733
H	 4.1536748469	-0.0570231704	 0.2212915884	 0.237803
H	 0.5880863788	-1.1953234599	 1.8995706464	 0.12005
60.7277	124.2567	153.3898	218.2174	248.3299	306.8967	344.356	375.6491	414.7316	483.0401	547.707	630.06	743.6124	812.0488	843.0073	876.8686	909.6807	927.4795	955.8353	977.8815	991.3468	1001.1461	1087.2181	1111.0693	1117.8467	1141.2245	1157.7769	1210.8496	1255.1772	1256.1393	1263.9081	1290.3818	1322.2644	1364.1095	1414.8389	1420.2409	1485.1322	1494.4904	1495.916	1515.2426	2351.5673	3035.5618	3042.548	3063.0837	3080.6938	3100.5307	3102.0857	3104.0493	3116.1702	3186.3324	3501.9853
CC1CC2(CN2)C1C#N	C[C@H]1C[C@]2(CN2)[C@H]1C#N	
InChI=1S/C7H10N2/c1-5-2-7(4-9-7)6(5)3-8/h5-6,9H,2,4H2,1H3	InChI=1S/C7H10N2/c1-5-2-7(4-9-7)6(5)3-8/h5-6,9H,2,4H2,1H3/t5-,6-,7-/m0/s1
