17
gdb 7111	5.89029	0.8657	0.81641	3.8913	67.72	-0.2467	-0.026	0.2207	1405.6316	0.140027	-401.045556	-401.036162	-401.035218	-401.081784	31.595	
C	-0.1266027717	 1.3931692257	-0.3377079625	-0.373227
C	 0.031844502	 0.020608273	 0.3190357881	-0.147189
N	-1.2370735349	-0.6718164028	 0.4957387715	-0.313066
C	-1.5854544387	-1.7711062547	-0.2268153065	 0.400615
O	-0.8601250285	-2.3013042004	-1.0508341441	-0.376273
C	-2.9695294494	-2.3418154751	 0.0798997962	-0.389416
C	-2.8725423021	-3.8200222662	 0.4287340891	 0.166524
O	-3.5049857032	-4.3412617063	 1.3089120078	-0.239056
H	 0.8481118377	 1.8804659161	-0.4388151608	 0.124398
H	-0.5686416179	 1.2974792901	-1.3335065571	 0.13395
H	-0.7682652325	 2.0505943519	 0.2592762922	 0.112754
H	 0.6475855167	-0.6353233736	-0.299466561	 0.154438
H	 0.5229878702	 0.1198680954	 1.2944821643	 0.111038
H	-1.9071639076	-0.2872984491	 1.1416011554	 0.247708
H	-3.5164766077	-1.819934419	 0.8687998194	 0.116037
H	-3.5470265153	-2.272020839	-0.8515206932	 0.157815
H	-2.163047307	-4.3839341858	-0.2098966588	 0.11295
25.9994	40.5598	85.4332	106.524	200.024	236.0944	305.8487	364.9634	442.1692	464.2208	482.7835	614.0644	724.3066	773.8678	817.0292	896.5239	943.2349	1023.9668	1055.1928	1081.5969	1123.0612	1167.4486	1179.7197	1239.5769	1310.1785	1326.8828	1393.3503	1404.0223	1412.0029	1443.4279	1484.6505	1492.8504	1502.4789	1546.3643	1770.1602	1836.1139	2940.6265	3035.1746	3035.6125	3035.8898	3098.9104	3110.9741	3118.6442	3130.0286	3642.2367
CCNC(=O)CC=O	CCNC(=O)CC=O	
InChI=1S/C5H9NO2/c1-2-6-5(8)3-4-7/h4H,2-3H2,1H3,(H,6,8)	InChI=1S/C5H9NO2/c1-2-6-5(8)3-4-7/h4H,2-3H2,1H3,(H,6,8)
