20
gdb 121046	3.10312	1.00817	0.88267	2.9028	77.3	-0.2606	0.0302	0.2908	1406.882	0.171149	-440.316713	-440.307596	-440.306652	-440.351639	33.208	
C	 0.5263593018	 1.3929828193	-0.0663095149	-0.386456
C	 0.1830556624	-0.0846528935	-0.0113590723	-0.046678
O	 0.7221033717	-0.7115816566	-1.1736255625	-0.249312
C	 0.4310590478	-2.0657633763	-1.2875403566	 0.210768
C	 1.0367308242	-2.5930036801	-2.5902339572	-0.253554
C	 2.4544896541	-2.9803600385	-2.1487795777	-0.302114
C	 2.2726428963	-3.3283723046	-0.6871024887	 0.417735
N	 3.0754711391	-3.9855759322	 0.0291702169	-0.542249
O	 1.069317343	-2.8282502536	-0.2480620724	-0.245433
H	 1.6105857972	 1.5348311665	-0.0834218899	 0.130741
H	 0.1053109051	 1.8555628451	-0.9634425038	 0.126361
H	 0.1240538044	 1.9066174061	 0.8117943715	 0.119223
H	 0.5982501533	-0.5524461844	 0.8900234317	 0.113615
H	-0.9085338296	-0.2334946099	 0.0106762022	 0.090957
H	-0.6456219581	-2.2457636837	-1.1682330328	 0.077633
H	 0.4766930635	-3.471124826	-2.9232796358	 0.116954
H	 1.0002466997	-1.8341319993	-3.371851017	 0.123262
H	 2.8921426429	-3.8150278816	-2.6962144218	 0.135119
H	 3.1379995402	-2.1293685367	-2.2284536177	 0.143062
H	 2.7188596311	-4.0676109201	 0.9830502988	 0.220365
47.5224	85.54	110.1144	135.7556	208.2329	251.7569	357.7476	396.6093	457.2716	513.0016	558.0241	659.6173	766.0978	809.7841	819.9689	875.1407	890.0217	897.7028	933.0885	961.016	998.8453	1053.1883	1069.35	1075.8419	1126.7407	1146.2768	1185.049	1200.4012	1219.968	1276.4686	1296.1931	1312.373	1336.3765	1369.2893	1395.1539	1406.6086	1442.0524	1468.1781	1483.9248	1488.9767	1500.2069	1528.1102	1784.3677	2979.4295	3022.2977	3045.2392	3046.2053	3068.7721	3074.8757	3121.226	3123.3307	3134.6617	3142.2491	3469.5571
CCOC1CCC(=N)O1	CCO[C@H]1CC[C]([NH])O1	
InChI=1S/C6H11NO2/c1-2-8-6-4-3-5(7)9-6/h6-7H,2-4H2,1H3	InChI=1S/C6H11NO2/c1-2-8-6-4-3-5(7)9-6/h6-7H,2-4H2,1H3/t6-/m1/s1
