22
gdb 85422	2.32759	1.40704	1.10726	3.9348	82.09	-0.234	0.0375	0.2716	1213.2063	0.194052	-404.413706	-404.404234	-404.40329	-404.447222	37.016	
C	-0.1944013185	 1.5491814005	-0.0342990169	-0.416137
C	 0.0633256529	 0.0451879784	-0.0066866557	 0.035366
N	 0.9534423842	-0.3821348289	-1.0784763565	-0.312437
C	 1.7077627651	-1.4887874819	-0.7883349163	 0.398087
O	 2.4229397694	-2.0889236794	-1.5601793505	-0.381602
C	 1.4417148364	-1.8073787472	 0.6846085649	-0.367428
C	 0.7759620944	-0.5358680311	 1.2632089644	 0.278725
C	 1.8663067183	 0.4137937647	 1.7894218024	-0.426004
C	-0.2296098631	-0.8460021902	 2.3764318391	-0.442104
H	 0.7376632101	 2.1186913742	-0.0028873423	 0.12993
H	-0.7304824734	 1.8279540603	-0.9478960402	 0.11643
H	-0.8182136309	 1.8503862917	 0.812879797	 0.124689
H	-0.9106534985	-0.4635449995	-0.1016436796	 0.072596
H	 0.8453125514	-0.0820672055	-2.0352780599	 0.244763
H	 0.7615074044	-2.6675259771	 0.7195608664	 0.119619
H	 2.363112713	-2.0990108788	 1.1931170612	 0.122918
H	 2.5833443958	 0.6774089067	 1.0058113236	 0.127081
H	 1.4417253525	 1.3398887049	 2.1882176956	 0.113652
H	 2.4214123207	-0.0694725074	 2.5999072655	 0.115737
H	 0.2717412137	-1.2975751676	 3.2388830304	 0.118519
H	-0.7300214098	 0.0632517644	 2.728212191	 0.114074
H	-1.0012681483	-1.544005391	 2.0349323464	 0.113525
99.0512	125.225	222.9351	245.073	259.0627	284.7021	307.6252	327.8198	346.3147	397.9462	467.758	512.0497	533.7201	545.757	608.7839	677.3234	727.7617	857.1781	890.0843	938.0399	954.417	962.9991	971.7441	1021.1657	1057.1934	1097.0207	1133.1873	1158.8101	1190.9716	1230.8612	1261.4306	1291.5097	1311.4291	1343.3889	1393.4739	1401.8873	1410.2304	1417.0472	1434.7711	1466.9147	1485.8063	1487.6746	1497.1465	1502.1378	1508.6754	1515.8961	1832.4695	2949.8675	3025.7915	3035.5004	3039.4777	3041.2328	3091.73	3098.4522	3100.8846	3104.2196	3109.845	3111.5748	3127.7294	3628.2827
CC1NC(=O)CC1(C)C	C[C@H]1NC(=O)CC1(C)C	
InChI=1S/C7H13NO/c1-5-7(2,3)4-6(9)8-5/h5H,4H2,1-3H3,(H,8,9)	InChI=1S/C7H13NO/c1-5-7(2,3)4-6(9)8-5/h5H,4H2,1-3H3,(H,8,9)/t5-/m1/s1
