12
gdb 5033	3.61053	2.37177	1.43145	6.2335	59.76	-0.2253	-0.0288	0.1965	779.5788	0.086906	-414.720941	-414.714911	-414.713967	-414.751027	23.164	
O	 0.0213581243	 1.353887002	 0.0073979738	-0.419883
C	-0.0535465178	 0.0187829953	 0.0010763969	 0.239685
C	-1.2070941649	-0.6849990639	 0.0046895007	-0.109497
N	-1.110154287	-2.0680489259	-0.0029416211	-0.281619
C	 0.0969060392	-2.6765973054	-0.0135635379	 0.099102
N	 1.2414901069	-2.0656797703	-0.0175932915	-0.321128
C	 1.2454558903	-0.6811728046	-0.010567876	 0.332721
O	 2.262533562	 0.0066521549	-0.0134587867	-0.407031
H	 0.9898980467	 1.5144862515	 0.002192916	 0.309107
H	-2.1968304971	-0.2508289061	 0.0130658353	 0.143972
H	-1.9489695248	-2.626033542	-0.0005534208	 0.276304
H	 0.0672989124	-3.7640099454	-0.0189119688	 0.138266
149.2113	311.9732	323.8364	422.5929	500.8087	509.6919	564.2446	604.8861	610.8341	709.7773	779.9686	817.9292	840.0819	938.174	949.0353	1066.682	1139.2246	1250.99	1276.1874	1315.8748	1423.3757	1468.2559	1548.5977	1620.2841	1709.4977	1736.4128	3159.691	3233.661	3521.9736	3643.6744
OC1=CNC=NC1=O	Oc1c[nH]cnc1=O	
InChI=1S/C4H4N2O2/c7-3-1-5-2-6-4(3)8/h1-2,7H,(H,5,6,8)	InChI=1S/C4H4N2O2/c7-3-1-5-2-6-4(3)8/h1-2,7H,(H,5,6,8)
