18
gdb 81606	3.88048	0.93328	0.8897	3.8273	76.75	-0.254	0.0305	0.2845	1350.8221	0.147109	-401.891853	-401.8835	-401.882556	-401.925502	31.326	
C	-0.1248841313	 1.5654454549	 0.1935023715	-0.431267
C	-0.0755772409	 0.0491136374	 0.1841358393	 0.027376
C	 1.1512217158	-0.6620241935	-0.4566968589	 0.029996
O	 1.9857119362	-0.1791301214	 0.6705991536	-0.304914
C	 0.7399901046	-0.6869410216	 1.2878805705	 0.000651
C	 0.883105322	-1.9426960955	 0.382332293	 0.037565
C	-0.2746179016	-2.9112239765	 0.1124583411	-0.398428
C	-0.017214441	-3.7467703358	-1.0601202039	 0.263536
N	 0.2019333815	-4.3936320993	-1.9922042728	-0.303254
H	 0.8558311784	 1.9804082579	 0.4324322162	 0.14329
H	-0.4385565129	 1.9476199624	-0.7836632192	 0.120665
H	-0.8479037206	 1.9253715031	 0.9332475859	 0.117803
H	-1.0514865556	-0.3824285099	-0.0549232878	 0.068667
H	 1.5643299513	-0.5735418037	-1.4617747475	 0.107305
H	 0.658386227	-0.6267082119	 2.3743211853	 0.097512
H	 1.8083671818	-2.4841799567	 0.5865382741	 0.1094
H	-0.4086524353	-3.5669797577	 0.9809229886	 0.158679
H	-1.2259988195	-2.3929543225	-0.0369912992	 0.155417
41.3204	114.7228	214.9007	228.0746	256.0541	338.2623	341.1013	387.5044	477.0699	594.5269	659.8268	744.195	770.5556	796.7347	826.4601	889.2899	910.2085	959.2807	985.2618	1018.4365	1057.5733	1076.2756	1086.5799	1130.9538	1149.6649	1157.2281	1200.4425	1208.6156	1236.7851	1260.0053	1275.5914	1317.7837	1394.5007	1400.2512	1413.2495	1466.0506	1493.8256	1505.9601	2362.5304	3039.0038	3047.7894	3067.2096	3092.0536	3096.4181	3107.3476	3112.3085	3123.0901	3140.3562
CC1C2OC1C2CC#N	C[C@H]1[C@H]2O[C@@H]1[C@H]2CC#N	
InChI=1S/C7H9NO/c1-4-6-5(2-3-8)7(4)9-6/h4-7H,2H2,1H3	InChI=1S/C7H9NO/c1-4-6-5(2-3-8)7(4)9-6/h4-7H,2H2,1H3/t4-,5-,6+,7-
