21
gdb 106136	2.40502	1.59347	1.25918	1.6207	83.18	-0.2266	0.0668	0.2933	1108.4827	0.182591	-387.040215	-387.031416	-387.030472	-387.073442	33.863	
C	-0.5400042323	 1.2623270509	 0.2837891693	-0.507243
C	-0.1115407885	-0.1567066169	 0.0538541008	 0.302058
C	 1.0257514072	-0.65505189	-0.8397524856	-0.278054
C	 0.4070720649	-2.0691505758	-0.6792051304	-0.133476
C	 0.6254787977	-2.4048844999	 0.8218493515	-0.233611
C	-0.3510382101	-1.2667771699	 1.1059835947	-0.147747
C	-0.9586069712	-1.3659881244	-0.2754545355	 0.347401
C	-2.3657660761	-1.537963073	-0.7349815071	-0.250332
O	-3.1943278624	-0.7049237277	 0.0696122289	-0.416723
H	 0.1961684304	 1.8098187965	 0.8849583598	 0.110207
H	-0.6562264642	 1.798667423	-0.6654792278	 0.108764
H	-1.5025296393	 1.296608138	 0.8009367775	 0.136556
H	 0.9168020271	-0.2736795115	-1.8603591448	 0.089339
H	 2.063677442	-0.5204122825	-0.5094975458	 0.080698
H	 0.5372715523	-2.8277512034	-1.4492550912	 0.064271
H	 0.1950764899	-3.3745994504	 1.0896674353	 0.093861
H	 1.6507207023	-2.3419612735	 1.2067504223	 0.083318
H	-0.8708457621	-1.0366904325	 2.0273460633	 0.086477
H	-2.4552427069	-1.2708031555	-1.8018505848	 0.086942
H	-2.6647272894	-2.5966438388	-0.6443184251	 0.088229
H	-4.0943225514	-0.7701556929	-0.2627667955	 0.289064
80.7745	145.2186	185.9676	199.3044	245.2325	261.9197	301.6733	357.114	460.4562	499.6322	599.7252	669.5714	730.5419	746.8724	835.5398	889.5571	909.6025	932.965	966.0896	982.7025	995.8911	1007.4208	1051.3995	1073.7461	1080.9765	1102.6867	1123.2593	1141.1573	1175.3444	1203.1293	1214.5396	1231.9995	1246.6147	1254.9552	1270.0886	1288.8326	1344.7258	1414.3281	1444.0886	1482.9111	1487.0086	1493.9863	1502.5268	1515.866	1526.4188	2943.9192	2962.8263	3016.1821	3020.4741	3025.3193	3072.9523	3077.457	3085.0128	3115.1204	3126.1519	3197.5778	3830.9191
CC12CC3CC1C23CO	C[C@@]12C[C@H]3C[C@@H]1[C@@]23CO	
InChI=1S/C8H12O/c1-7-3-5-2-6(7)8(5,7)4-9/h5-6,9H,2-4H2,1H3	InChI=1S/C8H12O/c1-7-3-5-2-6(7)8(5,7)4-9/h5-6,9H,2-4H2,1H3/t5-,6+,7-,8+/m1/s1
