21
gdb 65722	3.85536	0.98038	0.92498	2.8699	82.64	-0.2449	-0.0198	0.225	1335.0859	0.180867	-387.072178	-387.063062	-387.062117	-387.10626	34.573	
C	-0.1386363388	 1.5563088216	 0.1232315587	-0.453906
C	 0.0613421416	 0.0446258279	 0.0078453314	 0.313527
C	-1.268185157	-0.6538665121	-0.3375080585	-0.329043
C	-1.8769983673	-0.1969563178	-1.6441183376	 0.156278
O	-3.0261888206	 0.1342920861	-1.7897383995	-0.244835
C	 1.2467849076	-0.4625026552	-0.9032484822	-0.292806
C	 1.838088935	-1.2080316099	 0.2981303272	-0.033185
C	 2.1561173007	-0.2380675093	 1.3982472357	-0.301298
C	 0.7294786709	-0.6684539191	 1.2035832597	-0.068997
H	 0.7854488334	 2.0656228621	 0.4093332037	 0.116219
H	-0.4721727962	 1.9896431452	-0.8268044561	 0.121583
H	-0.8989639356	 1.7916942468	 0.8765257916	 0.121368
H	-1.0882853237	-1.7360287332	-0.4190476695	 0.11843
H	-2.0096311998	-0.5007751275	 0.4540026619	 0.116256
H	-1.1734851462	-0.1914808175	-2.5092345339	 0.073686
H	 0.9124834547	-1.1219496543	-1.7074124821	 0.100878
H	 1.8848118812	 0.3141065115	-1.3383213827	 0.097183
H	 2.267726692	-2.2016125658	 0.2676138215	 0.08646
H	 2.6418981998	-0.6641382055	 2.2703903332	 0.114095
H	 2.4802075958	 0.7730882194	 1.1650168635	 0.106342
H	 0.1800819422	-1.1766253036	 1.9887506537	 0.081765
57.3017	101.5858	158.8066	192.9492	220.581	279.0673	327.4075	370.7373	418.1011	453.5538	528.6033	642.9973	743.4132	785.2596	807.9018	841.7499	855.5672	928.8162	947.6942	958.7316	992.0514	1000.4283	1002.8425	1039.869	1058.0678	1071.4445	1085.7535	1143.8375	1162.8194	1165.2905	1204.955	1232.2391	1252.0896	1292.727	1298.1857	1321.2411	1363.2036	1416.1087	1435.1953	1457.161	1479.9062	1487.4085	1497.7813	1500.1856	1830.3057	2857.7488	3007.9677	3028.3255	3043.7938	3079.9691	3089.6476	3100.9834	3107.7571	3113.3217	3165.0646	3184.2413	3200.7527
CC1(CC=O)CC2CC12	C[C@@]1(CC=O)C[C@H]2C[C@@H]12	
InChI=1S/C8H12O/c1-8(2-3-9)5-6-4-7(6)8/h3,6-7H,2,4-5H2,1H3	InChI=1S/C8H12O/c1-8(2-3-9)5-6-4-7(6)8/h3,6-7H,2,4-5H2,1H3/t6-,7-,8-/m1/s1
