23
gdb 84691	2.71389	1.58498	1.35048	0.2155	89.4	-0.2331	0.0276	0.2607	1090.6992	0.209866	-351.19049	-351.182696	-351.181752	-351.222278	32.454	
C	-0.1150174942	 1.5882274223	 0.0073604952	-0.406691
C	 0.0203216302	 0.0548809229	-0.0138120722	-0.010187
C	 0.666605649	-0.4265543448	-1.2938511464	-0.050389
C	 1.802074634	-1.1257426257	-1.3133229304	-0.07921
C	 2.5255037491	-1.4922998869	-0.0336867629	-0.039035
C	 1.8196829378	-2.6896862528	 0.6547418468	-0.200315
C	 0.5935663533	-2.0391340817	 1.3651353201	-0.21798
C	 0.7798738756	-0.5015204672	 1.217480597	 0.001527
C	 2.3003395057	-0.3697589609	 0.9951955666	-0.227225
H	 0.8648442642	 2.076296428	 0.0184383054	 0.118586
H	-0.6503669522	 1.9469487065	-0.878218502	 0.110163
H	-0.6696018484	 1.9195983494	 0.8918916252	 0.109019
H	-1.0020444689	-0.3524482201	 0.0193548268	 0.072461
H	 0.1614460937	-0.1725905643	-2.2238699741	 0.078022
H	 2.2169776695	-1.4763095535	-2.2551319885	 0.079838
H	 3.5815655297	-1.6950168849	-0.2317815497	 0.056398
H	 1.5299885333	-3.4670562181	-0.0568472638	 0.09421
H	 2.4934959172	-3.1508135261	 1.3853820616	 0.089747
H	-0.3539691074	-2.3675198275	 0.9280969582	 0.095719
H	 0.5677847399	-2.3227492745	 2.4215277576	 0.093298
H	 0.4382187508	 0.027593315	 2.1124936545	 0.05374
H	 2.848034883	-0.5761760532	 1.9219444271	 0.084774
H	 2.6085856151	 0.6130090981	 0.6288647578	 0.093529
119.3777	191.8033	227.9122	268.6112	338.8267	373.2458	415.7742	484.8923	563.0076	627.6561	716.6325	749.5663	774.0784	810.6936	831.1992	884.7491	886.3867	895.1509	946.3102	973.4574	977.5536	992.3686	999.6499	1051.2818	1056.5632	1068.561	1112.0679	1127.1461	1144.4417	1173.9501	1191.4759	1222.2302	1244.0779	1258.4067	1307.4593	1321.1023	1326.1691	1338.2278	1348.0635	1357.6154	1377.3641	1400.4513	1421.6308	1486.0684	1486.8821	1497.5715	1501.0066	1511.9473	1708.7483	2977.6029	3029.3478	3034.0574	3037.3551	3047.4261	3058.5662	3070.5235	3081.6565	3093.8367	3096.2203	3101.4675	3104.8397	3135.3248	3162.7503
CC1C=CC2CCC1C2	C[C@H]1C=C[C@@H]2CC[C@H]1C2	
InChI=1S/C9H14/c1-7-2-3-8-4-5-9(7)6-8/h2-3,7-9H,4-6H2,1H3	InChI=1S/C9H14/c1-7-2-3-8-4-5-9(7)6-8/h2-3,7-9H,4-6H2,1H3/t7-,8+,9-/m0/s1
