19
gdb 56976	2.93395	1.23383	0.97697	1.261	80.63	-0.2389	0.0478	0.2868	1242.2951	0.157443	-385.812611	-385.803767	-385.802823	-385.846228	33.765	
C	-0.0007441001	 1.4461286865	-0.1453489968	-0.396892
C	 0.0954645478	-0.0748503337	 0.0867052315	-0.180279
C	 0.7488128963	-0.3976413463	 1.352747806	 0.331255
C	 1.2578596881	-0.6600019087	 2.4099950854	-0.477444
C	-1.2983661832	-0.7144009208	 0.0573369972	 0.142213
O	-1.9969120895	-0.5021146423	-1.2052122799	-0.30705
C	-2.2939076905	-1.9010036186	-1.2832905803	 0.106045
C	-1.0433801727	-2.7013163829	-1.4355016006	-0.300317
C	-1.4719943022	-2.2273192011	-0.0586742105	-0.142274
H	 0.9944559951	 1.896270609	-0.1754721689	 0.123281
H	-0.5093488412	 1.6400539578	-1.0927348196	 0.139405
H	-0.5662768617	 1.9245566133	 0.6600605527	 0.124021
H	 0.681540315	-0.5118011197	-0.7314384903	 0.106042
H	 1.7219980917	-0.8940039901	 3.335837488	 0.195829
H	-1.9031849718	-0.3053079055	 0.8767976852	 0.090666
H	-3.2875548692	-2.1900450146	-1.6037323247	 0.105918
H	-1.185208198	-3.7658282427	-1.5952313438	 0.117219
H	-0.1874157051	-2.272279277	-1.9480673239	 0.117661
H	-1.6637537488	-2.9011779027	 0.7638802136	 0.104701
66.4808	121.8073	158.5509	208.5327	226.4204	266.9216	372.9971	444.8936	465.4996	509.9851	566.4764	629.5599	644.2335	738.3163	773.0949	809.4676	858.4133	925.3129	945.5145	965.8421	990.9178	1020.617	1033.2049	1048.8022	1057.1191	1083.1867	1095.935	1102.1895	1161.9635	1201.5356	1257.3277	1281.6898	1297.4336	1324.8241	1362.0107	1388.6191	1406.0968	1476.3067	1495.5628	1498.068	2233.7812	3020.4947	3035.9699	3046.9484	3119.7581	3120.4736	3134.2856	3185.5406	3207.0391	3218.4301	3505.1142
CC(C#C)C1OC2CC12	C[C@@H](C#C)[C@H]1O[C@H]2C[C@@H]12	
InChI=1S/C8H10O/c1-3-5(2)8-6-4-7(6)9-8/h1,5-8H,4H2,2H3	InChI=1S/C8H10O/c1-3-5(2)8-6-4-7(6)9-8/h1,5-8H,4H2,2H3/t5-,6+,7-,8+/m0/s1
