20
gdb 104800	2.68595	1.3408	1.11415	2.8766	74.1	-0.2295	0.052	0.2815	1155.7575	0.171142	-440.221139	-440.212298	-440.211353	-440.254445	33.973	
O	 0.2282280439	 1.3288087841	-0.3286045207	-0.428815
C	 0.1046156527	-0.0029032159	 0.1320075712	-0.120753
C	-1.3353141279	-0.523353949	 0.0466373078	 0.286493
C	-2.2155247398	 0.0929592047	 1.1302203364	-0.142857
O	-2.2383143714	 1.5103324955	 0.94681016	-0.42954
C	-2.0283332434	-0.4890879084	-1.3460701385	-0.210718
N	-2.3672345384	-1.9598737343	-1.287648235	-0.128654
C	-1.069278432	-2.6524721961	-1.2537055407	-0.252524
C	-1.5555035078	-2.041365376	-0.0018032433	-0.093473
H	-0.4583712531	 1.8357317795	 0.1249443645	 0.291207
H	 0.7607184116	-0.6084488334	-0.5011726984	 0.099478
H	 0.4710944573	-0.1130417383	 1.168807983	 0.074952
H	-3.2322016432	-0.3214815703	 1.065854526	 0.106677
H	-1.8074798899	-0.1625267709	 2.1210375812	 0.093426
H	-2.7243698026	 1.9106772496	 1.6733540279	 0.29683
H	-2.935335837	 0.1165734945	-1.3751868524	 0.117035
H	-1.3897597968	-0.2173812869	-2.191457226	 0.114657
H	-1.1609555043	-3.7309406558	-1.3423518958	 0.121765
H	-0.2273617805	-2.2249338577	-1.7937289065	 0.116403
H	-1.8891447275	-2.6436901348	 0.8393281995	 0.088412
93.0034	134.5405	167.7358	222.0079	241.5929	273.5633	356.4782	384.9536	435.2153	470.4146	512.9882	551.0259	687.9847	751.6003	788.2011	847.5869	940.0385	945.5765	961.3576	978.5994	998.6763	1044.3632	1060.2014	1080.7241	1101.191	1113.7492	1120.4152	1168.3311	1186.2477	1213.7818	1231.1376	1245.862	1274.017	1290.9098	1319.3009	1376.3586	1384.308	1454.2343	1466.8469	1493.4471	1503.0641	1511.3183	1526.366	2938.1953	2974.2191	3016.6669	3060.7913	3069.8755	3104.9133	3123.0293	3139.8794	3194.8605	3754.1852	3836.6364
OCC1(CO)CN2CC12	OCC1(CO)CN2C[C@@H]12	
InChI=1S/C6H11NO2/c8-3-6(4-9)2-7-1-5(6)7/h5,8-9H,1-4H2	InChI=1S/C6H11NO2/c8-3-6(4-9)2-7-1-5(6)7/h5,8-9H,1-4H2/t5-,7?/m0/s1
