17
gdb 35370	3.81951	1.4399	1.27465	4.6763	74.82	-0.2441	0.0227	0.2669	994.164	0.139075	-380.840076	-380.833316	-380.832372	-380.87122	27.196	
N	-0.0966760244	-1.1732977379	-0.2074082047	-0.326966
C	-0.0473757738	-0.0231987819	-0.107325714	 0.288166
C	-0.0059902572	 1.4314252405	 0.0456069011	-0.111018
C	-0.6488352263	 1.9513311296	 1.3788795928	-0.27183
C	 0.2568079596	 3.1369115009	 1.6935346007	-0.047792
C	 1.7448866476	 2.8757340989	 1.9158184244	-0.0838
C	 2.1157524595	 1.5499926047	 1.269214611	-0.191213
N	 1.3787586728	 1.960886565	 0.0097458009	-0.12443
C	 1.2354989758	 3.3384852759	 0.5717551344	-0.046805
H	-0.5369265863	 1.873423975	-0.8050321147	 0.130425
H	-1.6877668308	 2.2556364638	 1.2287194825	 0.118379
H	-0.6375646547	 1.184264589	 2.1577911479	 0.126449
H	-0.1481276145	 4.0068010523	 2.1972590438	 0.099298
H	 2.3182063857	 3.4257100633	 2.6517196628	 0.097407
H	 3.182619448	 1.4592471475	 1.0529509493	 0.12291
H	 1.765125322	 0.6201874799	 1.7298668522	 0.119859
H	 1.4004359971	 4.2271889335	-0.0228019103	 0.100962
115.6067	161.9043	285.8999	384.0637	407.0227	506.6718	545.8132	639.4001	704.9941	732.8761	787.1796	807.0471	823.2849	886.8779	937.2048	974.7979	989.1013	996.744	1010.2021	1036.7187	1052.8989	1060.9825	1073.8633	1104.7578	1122.0016	1192.4368	1196.0052	1231.1036	1284.4514	1292.0863	1311.16	1316.4029	1356.7949	1391.1763	1496.1963	1517.0505	2361.5991	3045.8654	3049.6874	3064.6548	3103.9513	3108.7344	3184.6792	3189.2472	3205.5895
N#CC1CC2C3CN1C23	N#C[C@H]1C[C@H]2[C@H]3CN1[C@@H]23	
InChI=1S/C7H8N2/c8-2-4-1-5-6-3-9(4)7(5)6/h4-7H,1,3H2	InChI=1S/C7H8N2/c8-2-4-1-5-6-3-9(4)7(5)6/h4-7H,1,3H2/t4-,5+,6-,7+/m1/s1
