14
gdb 44559	3.68716	1.59088	1.51653	6.6196	60.18	-0.2602	0.0506	0.3108	876.6205	0.103183	-473.816998	-473.810877	-473.809933	-473.847665	24.248	
O	 0.0034632314	 0.0207489073	 0.1087341003	-0.364794
C	-0.0133740158	 1.2054429734	 0.05570188	 0.511937
O	-1.1524689192	 1.9611058856	 0.0078304146	-0.245514
C	-0.8185402743	 3.335233911	 0.0344905469	 0.069623
C	-0.7851781149	 4.0250844787	 1.4093854302	-0.078824
N	-0.0088773658	 3.1336885491	 2.2865361073	-0.323
C	 0.7183803624	 4.0455859047	 1.388681194	-0.078823
C	 0.7326958395	 3.3563290934	 0.0131642047	 0.06963
O	 1.1030094085	 1.991776278	-0.0231487835	-0.245512
H	-1.3517921365	 3.8713088876	-0.7503336584	 0.108817
H	-1.4895331543	 4.7444556135	 1.8053322702	 0.110304
H	-0.0014768437	 3.5362643676	 3.2214028062	 0.24704
H	 1.4135031358	 4.7840363386	 1.765350599	 0.110304
H	 1.2294010069	 3.9063975915	-0.7858286714	 0.108812
119.5807	202.1146	321.5256	430.8269	549.2565	611.9095	673.8233	734.2855	766.5073	769.7547	817.8881	875.15	880.695	911.0877	913.9887	955.9289	976.7907	1010.968	1078.466	1096.808	1107.7013	1113.7202	1130.4269	1190.5426	1251.2403	1262.7999	1328.0953	1364.2559	1368.1942	1378.7989	1936.0974	3115.7889	3124.403	3202.7142	3214.9473	3505.0981
O=C1OC2C3NC3C2O1	O=C1O[C@H]2[C@H]3N[C@H]3[C@H]2O1	
InChI=1S/C5H5NO3/c7-5-8-3-1-2(6-1)4(3)9-5/h1-4,6H	InChI=1S/C5H5NO3/c7-5-8-3-1-2(6-1)4(3)9-5/h1-4,6H/t1-,2+,3-,4+
