21
gdb 110072	1.67111	1.48067	1.00019	3.0776	82.08	-0.2378	-0.0165	0.2213	1317.3708	0.178949	-424.218343	-424.207858	-424.206914	-424.253632	37.71	
C	 0.4275094061	 1.0805787015	 0.372080557	-0.244345
O	-0.296712327	 0.0593526349	-0.2916495238	-0.236132
C	 0.4277463348	-0.5656090638	-1.2938853657	 0.077962
C	 1.3776141473	-1.7274969738	-0.9405933026	-0.19654
C	 1.5698525794	-2.145560018	 0.4621098845	 0.154535
O	 2.6053324098	-2.6061233373	 0.887567961	-0.28444
C	 0.0356184867	-1.9437862422	-1.6841509405	 0.236502
C	-1.1252666767	-2.6146643468	-0.9709565118	-0.456645
C	 0.1669825217	-2.3239430057	-3.147644801	-0.448146
H	 1.3112434939	 0.6792682944	 0.8874276773	 0.123843
H	 0.7567290378	 1.8592232481	-0.3309162214	 0.114435
H	-0.2476961597	 1.5244328916	 1.1063170321	 0.134727
H	 0.7900023575	 0.1099565912	-2.0718976206	 0.092818
H	 2.277623946	-1.8250910042	-1.5397539582	 0.098761
H	 0.6949942527	-2.0058256657	 1.1304218543	 0.079365
H	-1.2884022825	-2.2115591738	 0.0284324443	 0.139961
H	-2.0461660803	-2.4544949566	-1.5424855579	 0.121498
H	-0.9649670207	-3.6951722208	-0.8946543942	 0.123142
H	 0.3451866798	-3.399521125	-3.2541112903	 0.126863
H	-0.7522036926	-2.0796863414	-3.6924544683	 0.123209
H	 0.9954685462	-1.7982580466	-3.6316826541	 0.118629
78.3131	118.7888	139.5541	174.154	192.2589	197.7091	229.1761	242.1076	283.102	319.56	359.5372	429.4171	478.6561	522.6759	571.8897	687.6605	841.892	894.2491	964.4107	973.3914	1008.4152	1015.7974	1053.3529	1065.1128	1083.7106	1149.2007	1167.1665	1175.7618	1184.4142	1219.1648	1261.1838	1315.582	1344.6318	1407.1589	1417.2076	1438.0055	1448.2436	1483.4687	1486.3989	1487.0183	1489.9216	1502.5673	1505.8231	1517.7667	1796.0297	2911.5665	2992.4737	3027.215	3038.8129	3047.1225	3076.9801	3091.7167	3095.3473	3105.4823	3128.4602	3149.6266	3163.0311
COC1C(C=O)C1(C)C	CO[C@H]1[C@@H](C=O)C1(C)C	
InChI=1S/C7H12O2/c1-7(2)5(4-8)6(7)9-3/h4-6H,1-3H3	InChI=1S/C7H12O2/c1-7(2)5(4-8)6(7)9-3/h4-6H,1-3H3/t5-,6+/m1/s1
