17
gdb 30858	2.88089	1.23843	0.91632	2.1611	73.01	-0.1725	0.0525	0.225	1263.6092	0.137274	-451.351897	-451.342553	-451.341609	-451.386244	34.119	
C	 0.4250126895	 0.9959274022	-0.4061326484	-0.323072
N	-0.332717849	 0.4061000949	 0.7046564082	-0.400196
C	-1.3271410407	-0.5124333582	 0.3427462261	 0.1588
C	-1.3460791018	-1.7695138692	-0.1975683872	 0.296994
O	-0.2670870834	-2.5122499634	-0.5476035935	-0.449417
N	-2.6197189976	-2.2551741378	-0.342160039	-0.400805
C	-3.4045020061	-1.2859085811	 0.0941206897	 0.387152
N	-4.7976619548	-1.3026119443	 0.0522352734	-0.596632
N	-2.6960174773	-0.2178197144	 0.5221389309	-0.318965
H	 1.1625412591	 1.6974522161	-0.0027879597	 0.110656
H	 0.9474085927	 0.2534978354	-1.0263065164	 0.121759
H	-0.2582953698	 1.5564188029	-1.0510375995	 0.122278
H	 0.3037357861	 0.0130196381	 1.3885796722	 0.231541
H	-0.6157322114	-3.3456021296	-0.8853430275	 0.295972
H	-5.2325987345	-1.0458580977	 0.9307631953	 0.246802
H	-5.1157689678	-2.221282624	-0.2304020438	 0.258385
H	-3.0496920632	 0.6690301001	 0.8382393591	 0.258748
43.7807	127.2984	175.6599	217.2913	243.6416	272.8874	295.1095	315.6322	347.5181	426.058	457.849	537.9333	621.6538	660.0907	677.5715	721.585	750.8014	796.9261	842.96	1037.6547	1057.571	1114.2035	1138.7349	1158.9371	1173.2924	1233.3323	1269.654	1365.2947	1429.5979	1466.4981	1472.9976	1489.5637	1518.1164	1523.2456	1593.6132	1649.6676	1702.9944	2998.7044	3071.9304	3107.1135	3522.178	3525.7349	3623.546	3670.8006	3808.9017
CNC1=C(O)N=C(N)N1	CNc1c(O)nc(N)[nH]1	
InChI=1S/C4H8N4O/c1-6-2-3(9)8-4(5)7-2/h6,9H,1H3,(H3,5,7,8)	InChI=1S/C4H8N4O/c1-6-2-3(9)8-4(5)7-2/h6,9H,1H3,(H3,5,7,8)
