21
gdb 80982	2.44999	1.75824	1.31971	1.2658	82.62	-0.2313	0.0192	0.2505	1055.9374	0.18327	-387.091846	-387.083574	-387.08263	-387.123807	33.838	
C	-0.0930982805	 1.5221172567	 0.0305133596	-0.423717
C	 0.0228570761	 0.002163438	 0.0201896251	 0.009528
C	 0.8402919916	-0.5995972664	-1.171650858	-0.030107
C	 2.1176565403	-0.4410267657	-0.293005372	-0.296343
C	 1.146225261	-0.6024404227	 0.9169652316	 0.396735
O	 1.3867345924	 0.0679387664	 2.1268853205	-0.50486
C	 0.8576144761	-2.0864198569	 1.0727122368	-0.131832
C	 0.555183106	-2.7944226368	-0.0151270365	-0.069586
C	 0.5031324879	-2.0910149696	-1.3539621396	-0.267002
H	 0.8590899277	 2.0199568764	-0.1739746932	 0.115212
H	-0.8104477898	 1.8511965569	-0.7296052781	 0.107356
H	-0.4444453732	 1.874911173	 1.0044785888	 0.127728
H	-0.9635409711	-0.4436862944	 0.1836075498	 0.064073
H	 0.8091603007	-0.0548840827	-2.1181899183	 0.061785
H	 2.9150464025	-1.1805790141	-0.4030557363	 0.086209
H	 2.5327366706	 0.5669305153	-0.3470459234	 0.10147
H	 2.1367999214	-0.3515285698	 2.5621738261	 0.274173
H	 0.8905775181	-2.5143079451	 2.0710726174	 0.083155
H	 0.3356268453	-3.8572462222	 0.0303724417	 0.088105
H	-0.4947576591	-2.204356914	-1.8013027667	 0.10497
H	 1.2024682558	-2.5605349324	-2.0605103853	 0.102946
190.3333	206.2947	220.4862	229.6675	259.7744	341.1528	363.8958	429.2761	482.3196	494.4058	514.092	637.1398	698.877	725.307	813.0055	834.0863	867.0955	920.5081	933.9061	948.7568	971.6727	981.4263	1018.9404	1054.8963	1079.3625	1082.0648	1109.3209	1142.3046	1166.304	1181.1239	1206.5064	1243.6478	1263.7389	1275.6532	1298.8231	1341.4098	1355.3075	1380.6761	1400.5679	1410.6675	1471.9145	1488.2159	1495.9605	1501.0394	1697.28	3000.2466	3024.2883	3034.8659	3046.9345	3060.6936	3077.2801	3099.9332	3112.8079	3125.3517	3154.2921	3178.7134	3801.4014
CC1C2CC1(O)C=CC2	C[C@H]1[C@H]2C[C@]1(O)C=CC2	
InChI=1S/C8H12O/c1-6-7-3-2-4-8(6,9)5-7/h2,4,6-7,9H,3,5H2,1H3	InChI=1S/C8H12O/c1-6-7-3-2-4-8(6,9)5-7/h2,4,6-7,9H,3,5H2,1H3/t6-,7+,8+/m0/s1
