18
gdb 97070	4.44363	1.01682	0.85471	2.5835	80.88	-0.2401	-0.0323	0.2079	1338.6671	0.147333	-439.094165	-439.085169	-439.084225	-439.128427	32.593	
C	-0.1719292826	 1.4452399194	-0.0871716761	-0.326195
N	-0.1353208333	-0.005866289	-0.0973671948	-0.310176
C	 0.6273394789	-0.6057361062	-0.9158042823	 0.405388
O	 1.3945123116	 0.0664420855	-1.8318126223	-0.273648
C	 2.5134117382	-0.6262660904	-2.3860731794	-0.090365
C	 2.1240557819	-1.990258815	-2.9524315386	 0.0477
O	 3.3490087463	-2.6365898171	-3.2731527203	-0.426562
C	 1.3248318977	-2.7320060566	-1.9120263099	-0.120917
C	 0.6608265761	-2.0717128272	-0.9611578583	-0.120128
H	 0.743215383	 1.9170840289	-0.4621125478	 0.120531
H	-1.0084390791	 1.7984737328	-0.7048553418	 0.126794
H	-0.3643635527	 1.7854888351	 0.9348941623	 0.12074
H	 2.9169657536	 0.025186069	-3.1630418171	 0.123404
H	 3.2849279213	-0.782720505	-1.6214626529	 0.122024
H	 1.5134908555	-1.8492547512	-3.8601102588	 0.090393
H	 3.1478250081	-3.4498876189	-3.7461248971	 0.290149
H	 1.307143427	-3.8177270685	-1.9641693647	 0.099654
H	 0.0752258587	-2.5670529456	-0.1964236702	 0.121214
53.9887	78.8911	175.5159	204.7981	215.09	240.1341	331.5671	364.5029	405.6436	499.0401	529.9358	585.5034	699.0292	753.9592	799.2511	817.6407	931.2401	1002.8271	1025.7966	1050.1293	1064.3244	1101.4014	1106.1484	1118.7642	1143.4454	1182.2501	1224.3654	1255.7616	1286.4577	1347.3522	1394.1035	1403.6456	1432.9279	1436.5473	1487.0514	1495.2822	1507.2272	1691.5716	1737.5542	2958.425	3011.4973	3033.7681	3067.3266	3095.7857	3120.415	3161.2541	3215.4887	3826.9955
CN=C1OCC(O)C=C1	CN=C1OC[C@@H](O)C=C1	
InChI=1S/C6H9NO2/c1-7-6-3-2-5(8)4-9-6/h2-3,5,8H,4H2,1H3	InChI=1S/C6H9NO2/c1-7-6-3-2-5(8)4-9-6/h2-3,5,8H,4H2,1H3/t5-/m0/s1
