19
gdb 52255	4.51884	0.80222	0.76921	4.2853	76.43	-0.2658	0.0105	0.2763	1499.2643	0.159074	-423.014615	-423.006021	-423.005077	-423.049351	31.308	
O	 0.2062451015	 0.1645906962	-0.6377663717	-0.276999
C	 0.226296996	 1.3504003137	-0.497685064	 0.174304
O	 1.0154646207	 1.9671333717	 0.398589936	-0.176779
C	 0.9792282273	 3.4014291639	 0.4749554645	-0.106087
C	 2.3367980816	 3.9719357546	 0.1053245489	 0.015373
C	 2.8125388664	 3.9388488587	-1.3883272242	-0.258036
C	 3.0211826041	 5.4581525195	-1.3332723502	-0.028994
C	 1.7257743073	 6.1436807605	-1.0168893311	-0.276591
C	 2.4971288567	 5.4995509248	 0.1060149924	-0.075418
H	-0.3967707505	 2.0589429891	-1.0794846147	 0.073045
H	 0.1876474286	 3.7871727644	-0.179404911	 0.106853
H	 0.7188593196	 3.6587897835	 1.507304417	 0.12187
H	 3.0898196044	 3.5033625484	 0.7445729657	 0.0949
H	 3.7323623715	 3.3663154048	-1.5164730941	 0.115717
H	 2.0833033462	 3.5910233104	-2.1288053693	 0.095648
H	 3.8623607802	 5.9901339571	-1.7593716617	 0.091722
H	 1.7579215392	 7.2284389546	-1.0204746236	 0.116661
H	 0.7829300338	 5.7336880007	-1.3717429166	 0.103265
H	 2.8578089053	 6.0811084137	 0.9459332877	 0.089546
38.4008	60.1429	128.927	187.8345	208.0341	342.4242	375.9578	423.099	473.3986	665.46	684.2357	781.2519	803.2444	835.6155	876.824	939.8512	961.3854	988.7692	1016.6599	1036.1404	1041.4785	1046.9732	1066.4866	1086.5673	1099.8034	1129.2109	1141.7513	1192.3952	1223.4893	1243.4451	1263.4062	1301.4786	1303.8322	1352.7986	1375.1446	1403.5575	1434.9907	1482.7077	1494.7059	1504.9252	1864.8565	2935.8547	3025.2754	3040.322	3066.7592	3082.1066	3107.8088	3117.3563	3177.6543	3188.5304	3201.988
O=COCC1CC2CC12	O=COC[C@H]1C[C@H]2C[C@@H]12	
InChI=1S/C7H10O2/c8-4-9-3-6-1-5-2-7(5)6/h4-7H,1-3H2	InChI=1S/C7H10O2/c8-4-9-3-6-1-5-2-7(5)6/h4-7H,1-3H2/t5-,6+,7+/m0/s1
