17
gdb 48647	2.37516	1.42253	1.12	2.8196	83.17	-0.2399	-0.032	0.2079	1133.7244	0.134176	-384.646185	-384.637686	-384.636742	-384.679315	32.141	
O	-0.1409142819	 0.0217382482	 0.0238673885	-0.267933
C	-0.0142444644	 1.2200105752	-0.0794143501	 0.068537
C	 1.2722261515	 1.9194907654	 0.0007466224	 0.208403
C	 1.3796693859	 3.3860892294	 0.3307463335	-0.371072
C	 1.8128906886	 2.9901054882	-1.0458523491	 0.137851
C	 3.1866360941	 2.2915468896	-0.9966277835	-0.281587
C	 2.6451189486	 1.2524766268	 0.0336818212	-0.29465
C	 1.1837393863	 3.4780657725	-2.2229999424	 0.204402
C	 0.6808418207	 3.8889166966	-3.2368433407	-0.411221
H	-0.8891766672	 1.8832938732	-0.2648949077	 0.073192
H	 0.4386728042	 3.9249715718	 0.3782397077	 0.137248
H	 2.1205447504	 3.7003917516	 1.0624475397	 0.123866
H	 3.4486712414	 1.8370122077	-1.9524857505	 0.12679
H	 4.0107263928	 2.9322924873	-0.6693570012	 0.108689
H	 3.1317098872	 1.235735402	 1.0129464493	 0.107812
H	 2.6115321242	 0.2367874622	-0.3614112408	 0.134809
H	 0.2317477174	 4.2524305123	-4.1277472963	 0.194864
82.1769	140.2852	148.0671	218.8949	235.5409	327.8004	398.5573	473.5047	501.2497	527.9229	580.8136	615.5651	657.7595	712.8749	765.0849	782.7864	799.6244	941.3702	944.0738	974.6399	1011.6957	1037.2835	1094.6291	1106.4958	1134.6785	1211.289	1237.1882	1248.0183	1261.1536	1344.4238	1371.0441	1435.4876	1477.5973	1482.4938	1506.4626	1795.0274	2228.8709	2876.2273	3058.7575	3066.9102	3108.9282	3124.6355	3140.531	3205.9197	3502.316
O=CC12CC1(CC2)C#C	O=C[C@]12C[C@]1(CC2)C#C	
InChI=1S/C8H8O/c1-2-7-3-4-8(7,5-7)6-9/h1,6H,3-5H2	InChI=1S/C8H8O/c1-2-7-3-4-8(7,5-7)6-9/h1,6H,3-5H2/t7-,8+/m1/s1
