16
gdb 34358	3.01866	1.61209	1.31532	3.0757	72.73	-0.248	-0.0057	0.2423	973.2012	0.126044	-396.849139	-396.842071	-396.841127	-396.880481	28.044	
N	-0.0402104524	-1.094510069	-0.1397070428	-0.334478
C	-0.012595678	 0.0589835248	-0.0556420245	 0.187411
C	 0.0132760433	 1.4999679634	 0.0250628402	 0.210196
N	-0.4622382537	 2.2579023719	-1.1671505533	-0.366956
C	 0.8579443598	 2.9474265984	-1.3000055379	-0.195305
C	 1.317343046	 2.33534134	 0.0441464535	-0.031863
N	 0.9667896075	 2.9768100039	 1.3679979555	-0.149368
C	-0.3658933634	 3.6140385405	 1.2803839126	-0.254318
C	-0.3156099404	 2.1514590809	 1.3960450927	-0.058515
H	-0.7204530037	 1.6713390096	-1.9516871003	 0.240371
H	 1.4699720153	 2.5935775466	-2.1372584916	 0.119492
H	 0.7826401309	 4.0381765247	-1.3525484804	 0.120993
H	 2.3053485584	 1.8835478558	 0.095267105	 0.116785
H	-0.5982772938	 4.1731003223	 2.181140622	 0.132307
H	-0.7126872989	 4.0629695943	 0.3563774742	 0.147805
H	-0.6147681469	 1.590564212	 2.2749078252	 0.115441
140.1034	153.9135	241.6888	325.5948	407.8784	473.5439	530.7871	538.2217	607.2186	624.5677	716.0588	738.5755	762.3145	885.1262	906.6255	960.2718	989.4565	996.6822	1016.9591	1052.7354	1074.9071	1106.4996	1108.3821	1144.6253	1158.1608	1183.3655	1206.0669	1234.9367	1304.176	1311.9447	1337.8368	1395.8518	1492.2527	1509.2589	2346.7445	3033.7565	3082.2274	3133.4339	3142.0892	3173.3655	3222.7153	3555.9533
N#CC12NCC1N1CC21	N#C[C@]12NC[C@H]1N1C[C@@H]21	
InChI=1S/C6H7N3/c7-3-6-4(1-8-6)9-2-5(6)9/h4-5,8H,1-2H2	InChI=1S/C6H7N3/c7-3-6-4(1-8-6)9-2-5(6)9/h4-5,8H,1-2H2/t4-,5+,6+,9?/m1/s1
