23
gdb 122634	3.38667	0.77531	0.68969	2.4933	83.06	-0.2456	0.0793	0.3249	1742.168	0.204451	-425.412086	-425.401808	-425.400864	-425.448369	37.417	
C	 0.1058070405	 1.360590772	-0.2158246583	-0.382585
C	-0.0706169288	-0.1044995782	 0.1903116499	-0.186102
C	-1.477983651	-0.6169324841	-0.0829037733	-0.038606
O	-1.5595425078	-1.9676995207	 0.333744172	-0.28112
C	-2.833921111	-2.5618871332	 0.181791777	 0.087605
C	-3.0720693438	-3.1500741193	-1.2369817216	-0.253682
C	-2.4505341606	-4.4894272244	-0.7503092091	-0.253271
C	-2.7094537556	-4.0191823839	 0.7125342546	 0.152239
O	-1.7649404893	-4.2572282061	 1.712609169	-0.437957
H	 1.1234035859	 1.7044475918	-0.0103442353	 0.119767
H	-0.0835221632	 1.5049977149	-1.2852432912	 0.117608
H	-0.5820232753	 2.0129466178	 0.3333091587	 0.118348
H	 0.6425460655	-0.7374011888	-0.3504394044	 0.106601
H	 0.1444221419	-0.2315612914	 1.2576658274	 0.107391
H	-2.2219051721	-0.0129736652	 0.4634199862	 0.089306
H	-1.7152580458	-0.5294802836	-1.1552791122	 0.090935
H	-3.6084460198	-1.9109432231	 0.610415013	 0.059421
H	-4.1385091672	-3.2352479093	-1.4636900057	 0.103689
H	-2.5777697089	-2.6368334162	-2.0644859924	 0.10381
H	-2.9150068917	-5.4230909423	-1.0741898721	 0.096586
H	-1.3777255322	-4.5330040597	-0.9538446323	 0.10706
H	-3.6764220822	-4.3852132336	 1.0722471717	 0.084513
H	-1.0630406574	-3.6093800333	 1.5654974583	 0.288444
51.1522	61.7008	101.6661	124.4553	160.5383	219.0297	229.8512	321.282	367.7527	421.8226	435.377	454.9506	594.0245	681.6031	739.6094	765.9967	871.7661	893.7497	900.9093	916.5425	923.1519	959.4332	1012.8047	1049.2765	1085.0012	1102.2168	1133.5052	1147.4156	1164.3723	1189.7469	1193.5866	1229.7976	1254.9188	1268.7845	1273.361	1283.1945	1315.8942	1330.4562	1348.9962	1367.3747	1412.8771	1439.4557	1448.6813	1469.6827	1488.7761	1492.7951	1499.9701	1507.6717	1528.0453	2961.4316	2992.7563	3003.5249	3032.6608	3037.5829	3059.1418	3065.6377	3068.9376	3071.0906	3100.5464	3110.1374	3112.4468	3129.1225	3763.4666
CCCOC1CCC1O	CCCO[C@H]1CC[C@H]1O	
InChI=1S/C7H14O2/c1-2-5-9-7-4-3-6(7)8/h6-8H,2-5H2,1H3	InChI=1S/C7H14O2/c1-2-5-9-7-4-3-6(7)8/h6-8H,2-5H2,1H3/t6-,7+/m1/s1
