16
gdb 35376	3.81857	1.45856	1.29884	4.7881	71.19	-0.2542	0.016	0.2703	972.4442	0.126441	-400.724032	-400.717347	-400.716403	-400.755189	26.595	
N	-0.0557450875	-1.1632014309	-0.1303284091	-0.323808
C	-0.0429393998	-0.0114852928	-0.0434326311	 0.287202
C	-0.0047589588	 1.4542939432	 0.0178078549	-0.020239
O	-0.573782723	 1.8982170572	 1.2538174173	-0.269127
C	 0.1808206071	 3.0301761233	 1.6578677984	 0.111694
C	 1.6454822655	 2.8618306926	 1.9976161304	-0.095037
C	 2.178216565	 1.6056373337	 1.3088405938	-0.241838
C	 1.4188863415	 2.042920419	 0.014797153	-0.078151
C	 1.1887232226	 3.4427228094	 0.647393619	-0.136338
H	-0.5887407124	 1.8472333679	-0.8287997726	 0.11869
H	-0.408779104	 3.7523584757	 2.2080129839	 0.115021
H	 2.0961705366	 3.376760695	 2.8381144968	 0.094063
H	 3.2590231442	 1.6549653269	 1.1629244489	 0.114401
H	 1.9133730773	 0.6344656568	 1.737525916	 0.125257
H	 1.9388543949	 1.9558108923	-0.936904322	 0.098052
H	 1.305386651	 4.4152384008	 0.1891983624	 0.100156
109.4922	159.1036	281.534	365.6021	468.7871	507.6175	546.132	654.1832	722.7227	747.2899	790.1662	816.0861	841.6886	914.385	930.6427	975.2448	986.7317	1008.0564	1015.4295	1033.0901	1040.4402	1070.3294	1099.8108	1125.6012	1149.0202	1200.2921	1229.0139	1270.2508	1284.8724	1300.8676	1337.2432	1359.5284	1401.1073	1496.2036	2364.5832	2988.3165	3059.2813	3117.63	3141.2414	3179.375	3200.2987	3211.7087
N#CC1OC2C3CC1C23	N#C[C@H]1O[C@H]2[C@H]3C[C@@H]1[C@@H]23	
InChI=1S/C7H7NO/c8-2-5-3-1-4-6(3)7(4)9-5/h3-7H,1H2	InChI=1S/C7H7NO/c8-2-5-3-1-4-6(3)7(4)9-5/h3-7H,1H2/t3-,4-,5+,6+,7-/m0/s1
