25
gdb 61394	2.27137	1.05409	0.87599	0.5787	94.53	-0.2556	0.0558	0.3114	1505.4627	0.224945	-352.337917	-352.32636	-352.325416	-352.374681	43.625	
C	 0.2422339212	-0.6329465646	-1.6988404717	-0.387052
C	-0.073975741	-0.2150348029	-0.2449575764	-0.16164
C	-1.5424748021	-0.5691685472	 0.1092954689	-0.186925
C	-2.2230454493	 0.1612660835	 1.2960830782	 0.25887
C	-2.2691231101	 1.6810069129	 1.0466609041	-0.403838
C	-3.6690102261	-0.3667934296	 1.3818117077	-0.401956
C	-1.5174513616	-0.1164530363	 2.6357117976	-0.397956
C	 0.900557162	-0.8287753317	 0.6579388539	 0.339829
C	 1.7264046933	-1.3631661635	 1.3502694342	-0.487517
H	 1.2799689522	-0.4037507272	-1.9541442456	 0.124035
H	 0.0910242661	-1.7086909026	-1.8312518142	 0.125606
H	-0.4138130309	-0.1042291376	-2.3972405088	 0.112377
H	 0.0476048053	 0.8739913758	-0.1845291169	 0.104747
H	-2.1426751667	-0.3636485622	-0.7867021014	 0.088136
H	-1.6009883405	-1.6520821702	 0.274678037	 0.097815
H	-2.7520019878	 1.913891453	 0.0906520757	 0.104785
H	-2.8385123113	 2.1824474056	 1.8367429166	 0.110021
H	-1.2696446336	 2.1272751843	 1.0375872009	 0.112808
H	-3.6852411383	-1.4475570393	 1.5609967146	 0.108927
H	-4.2122136063	 0.1153144263	 2.2017189278	 0.107166
H	-4.2213876423	-0.1726831615	 0.4555333235	 0.105584
H	-0.4989120675	 0.2782797665	 2.6525952833	 0.122978
H	-2.0731299001	 0.3483396228	 3.4581323376	 0.100193
H	-1.4563188448	-1.1910308151	 2.8372728929	 0.109718
H	 2.44747847	-1.8225673693	 1.9798209102	 0.19329
19.8615	100.8428	154.025	188.3769	215.0321	228.8939	263.5549	273.3172	280.1234	303.2074	326.9864	338.2142	401.0152	410.1474	477.5373	535.6021	573.7452	626.9476	630.0167	743.6807	801.196	886.697	901.758	933.5931	938.5673	958.503	970.9105	1017.4662	1036.3899	1078.096	1090.3027	1137.6078	1190.8783	1229.5197	1272.4947	1292.4802	1312.3235	1368.5566	1370.8913	1397.6012	1402.9501	1407.1374	1434.407	1473.4571	1480.5616	1483.3829	1485.956	1491.9847	1500.6095	1508.3987	1508.9105	1516.925	2229.2432	3012.4865	3020.3483	3023.4858	3026.2832	3033.8588	3038.7074	3057.9991	3088.2569	3091.1178	3092.517	3096.1859	3098.4834	3112.0464	3120.9029	3121.1945	3504.6108
CC(CC(C)(C)C)C#C	C[C@@H](CC(C)(C)C)C#C	
InChI=1S/C9H16/c1-6-8(2)7-9(3,4)5/h1,8H,7H2,2-5H3	InChI=1S/C9H16/c1-6-8(2)7-9(3,4)5/h1,8H,7H2,2-5H3/t8-/m1/s1
