23
gdb 109860	2.22248	1.40066	1.0242	1.1751	85.64	-0.242	0.0749	0.317	1278.5765	0.204787	-388.264077	-388.254166	-388.253222	-388.298285	37.767	
C	-0.3683611094	 1.5815046819	 0.1324409397	-0.409792
C	-0.0697691329	 0.0871058808	 0.0722531684	 0.02008
C	 0.4319593506	-0.5207296332	-1.2473017794	-0.111022
C	 1.8049869395	-0.0093588426	-1.5925284897	-0.337887
C	 1.6738695864	-1.0935907858	-0.5540201964	 0.345701
C	 2.3247712422	-2.4410020216	-0.6958109805	-0.499067
C	 1.2093628916	-0.4977761844	 0.7872053396	-0.050483
C	 2.1546632406	 0.4192436525	 1.5425754076	-0.101482
O	 1.497278415	 0.8265989223	 2.7386790524	-0.422316
H	 0.4433923533	 2.1825185341	-0.2899496646	 0.105476
H	-1.2753427443	 1.8158400403	-0.4357518994	 0.106254
H	-0.5154334064	 1.902076665	 1.1677823229	 0.127639
H	-0.947402454	-0.4606179123	 0.4281660358	 0.072048
H	-0.1961281473	-0.9916205292	-1.995802956	 0.076729
H	 2.1905635302	-0.3469159403	-2.5501121	 0.105129
H	 2.1116957828	 1.0010047704	-1.3358415052	 0.100694
H	 2.360999042	-2.7539096222	-1.7447551429	 0.115322
H	 3.3562220556	-2.4324465224	-0.3216680172	 0.116223
H	 1.7781479509	-3.2091910597	-0.1361618308	 0.114643
H	 0.9108750643	-1.2946096141	 1.4764638949	 0.075243
H	 3.0862189508	-0.1260855287	 1.7688354593	 0.083267
H	 2.4309946381	 1.2907599847	 0.9314110169	 0.082687
H	 2.0602113603	 1.4626326848	 3.1895495047	 0.284915
102.676	126.8673	169.8708	198.348	213.6497	225.2884	244.7323	279.0133	322.4318	343.5462	462.0965	496.413	529.5579	629.5145	715.6454	761.7057	813.1166	848.7068	943.9652	958.4769	983.8577	993.7114	1010.3498	1029.3614	1048.4839	1067.2421	1078.3948	1108.5935	1119.143	1137.6889	1162.6864	1195.5668	1233.1639	1258.7581	1264.1959	1281.0691	1312.1804	1362.3906	1373.5173	1395.7519	1409.2453	1421.9757	1461.9793	1485.8389	1490.0062	1498.6513	1500.3042	1505.6025	1522.1703	2961.2715	3003.4047	3016.0003	3033.6601	3045.2346	3061.3516	3072.1791	3091.5049	3096.123	3112.9035	3114.6831	3165.1059	3193.0918	3827.1947
CC1C2CC2(C)C1CO	C[C@H]1[C@H]2C[C@@]2(C)[C@H]1CO	
InChI=1S/C8H14O/c1-5-6-3-8(6,2)7(5)4-9/h5-7,9H,3-4H2,1-2H3	InChI=1S/C8H14O/c1-5-6-3-8(6,2)7(5)4-9/h5-7,9H,3-4H2,1-2H3/t5-,6+,7-,8+/m0/s1
