20
gdb 26213	3.9559	0.92145	0.86161	3.3427	83.53	-0.2069	0.0361	0.243	1437.3303	0.170344	-403.183091	-403.173198	-403.172253	-403.218768	35.541	
C	 0.0973312188	 1.5741038682	 0.4118221952	-0.388693
C	-0.044245832	 0.1234249952	-0.0606202105	 0.028602
O	 0.8302980928	-0.7304811297	 0.6935807807	-0.436126
C	-1.4634776793	-0.3703201003	-0.0360669522	 0.250537
C	-2.0899362923	-1.0906492888	-1.0306798821	-0.204595
N	-3.3673238972	-1.3866515487	-0.6286019245	 0.021169
C	-4.3131169681	-2.1989760258	-1.3646428874	-0.335204
C	-3.5664490355	-0.8722095875	 0.6281351464	-0.08196
C	-2.4135548746	-0.2353240912	 1.0230540512	-0.290357
H	 1.1489259115	 1.8724077413	 0.3834632802	 0.115608
H	-0.4822918596	 2.2524007297	-0.222540992	 0.111805
H	-0.2583984001	 1.6870342855	 1.4417504328	 0.107592
H	 0.3288840965	 0.0548391151	-1.0897143922	 0.076811
H	 0.3517819537	-0.9905132562	 1.4874222029	 0.274186
H	-1.7255519635	-1.4153393986	-1.9932091471	 0.117514
H	-4.1760094674	-3.2678624272	-1.1633879662	 0.139968
H	-5.3314408893	-1.9190861516	-1.0851368121	 0.14071
H	-4.1914747555	-2.0276011179	-2.4370026975	 0.14189
H	-4.5150674641	-0.9972058717	 1.1264986439	 0.115026
H	-2.2788334248	 0.2933226602	 1.9548690204	 0.095518
34.7104	73.2535	119.3214	164.3443	187.0029	203.9442	245.9241	301.4845	382.7266	426.3006	496.2778	618.0875	638.4675	679.1001	698.2407	710.6052	783.4619	810.2996	888.1501	975.4513	1009.5969	1017.6927	1075.0048	1083.8885	1102.2132	1110.2909	1148.4736	1191.358	1244.001	1288.9067	1349.7929	1380.4117	1399.7926	1404.759	1411.6435	1431.6141	1454.4656	1488.2694	1488.3968	1492.1162	1513.7869	1545.2143	1594.8753	3030.4351	3032.0518	3034.1664	3099.3753	3103.2703	3117.0983	3131.0619	3235.9148	3249.5929	3260.7428	3814.8501
CC(O)C1=CN(C)C=C1	C[C@@H](O)c1cn(C)cc1	
InChI=1S/C7H11NO/c1-6(9)7-3-4-8(2)5-7/h3-6,9H,1-2H3	InChI=1S/C7H11NO/c1-6(9)7-3-4-8(2)5-7/h3-6,9H,1-2H3/t6-/m1/s1
