23
gdb 99522	1.95486	1.35545	1.00185	3.0037	86.3	-0.2463	0.0313	0.2776	1336.5044	0.203561	-384.486627	-384.475471	-384.474526	-384.522346	40.992	
C	-0.0073153276	 1.4960082999	-0.1803501303	-0.330293
N	-0.0056206199	 0.0558961056	 0.0703115854	-0.279377
C	-1.3280977475	-0.5609759352	 0.0502591922	-0.112378
C	-1.9295598034	-0.5126586123	-1.30678557	 0.276283
N	-2.3344040794	-0.4493527907	-2.3887561762	-0.347549
C	-1.3256908892	-2.0150405583	 0.6233947615	 0.241649
C	-0.8490701274	-1.9519787566	 2.0846815225	-0.412337
C	-2.7584063265	-2.5748075419	 0.5739191507	-0.422928
C	-0.3889173703	-2.9185862206	-0.1984990574	-0.429501
H	 1.0242392505	 1.8577319607	-0.1762436219	 0.12726
H	-0.4743787689	 1.7864024263	-1.1346523009	 0.124858
H	-0.5427773518	 2.0038600913	 0.6291169677	 0.127183
H	 0.5909485754	-0.4052271539	-0.6079660708	 0.231934
H	-1.9736679625	 0.0428728648	 0.7012390711	 0.11894
H	-1.5405988494	-1.3644769588	 2.6992507647	 0.106994
H	-0.8015059881	-2.9595929303	 2.5095377129	 0.110878
H	 0.1389723327	-1.4932951611	 2.15582435	 0.132143
H	-3.1252589195	-2.6659723552	-0.4525396124	 0.138895
H	-2.7883074319	-3.5687126391	 1.0311779453	 0.116033
H	-3.4549721979	-1.9343910119	 1.1266354014	 0.112436
H	 0.6554989795	-2.600599137	-0.1168351625	 0.116464
H	-0.4420326924	-3.9477808511	 0.1700901465	 0.119775
H	-0.6681341547	-2.9293799345	-1.2573420596	 0.132637
64.0623	94.3263	142.6538	188.8374	192.7285	221.2519	263.0683	269.0722	278.1309	318.4538	324.2529	339.0524	400.4071	411.913	460.7745	564.5085	605.2338	756.4665	788.2359	886.0204	936.8217	940.2117	957.937	963.536	1000.9259	1042.2805	1056.6858	1134.6157	1160.9602	1180.0486	1226.5826	1255.0686	1264.949	1324.929	1343.7979	1395.4497	1400.7351	1431.2092	1459.7149	1477.6916	1483.5765	1489.7172	1491.0347	1496.4295	1502.5757	1509.4172	1520.0953	1524.2811	2335.1953	2982.9225	3028.5551	3030.2401	3031.0829	3038.5001	3068.5298	3095.2004	3099.9116	3102.2818	3104.5714	3113.9005	3114.074	3134.1837	3533.2263
CNC(C#N)C(C)(C)C	CN[C@@H](C#N)C(C)(C)C	
InChI=1S/C7H14N2/c1-7(2,3)6(5-8)9-4/h6,9H,1-4H3	InChI=1S/C7H14N2/c1-7(2,3)6(5-8)9-4/h6,9H,1-4H3/t6-/m0/s1
