18
gdb 19972	3.56894	1.68078	1.38495	2.8376	67.18	-0.2429	0.0804	0.3233	944.7379	0.153313	-384.896457	-384.888525	-384.887581	-384.929294	28.848	
C	-0.1144068546	 1.5774147298	-0.0014199275	-0.410654
C	 0.1298824705	 0.0805405606	-0.0324548019	 0.1504
O	 1.3625279116	-0.2603589692	-0.7101914328	-0.289698
C	 1.891192975	-0.9258029551	 0.4517326901	-0.091082
C	 0.610908446	-0.6413009055	 1.2642030683	-0.100595
C	 0.7367407632	 0.1614041812	 2.5320261372	 0.072426
C	 1.8416492034	-0.0288281613	 3.4808985242	-0.188668
O	 1.8024559251	 1.1115124412	 2.6205517668	-0.224221
H	 0.7004143462	 2.1005511807	 0.5042930949	 0.147926
H	-0.1887493183	 1.9553476765	-1.0259282142	 0.125036
H	-1.0553085539	 1.8070038065	 0.5115378188	 0.10912
H	-0.7186498909	-0.4275158957	-0.511767025	 0.071919
H	 2.1079021693	-1.9834736711	 0.2599500003	 0.096317
H	 2.7934466565	-0.4285684938	 0.8260491665	 0.114502
H	 0.0218479521	-1.5370322592	 1.4829374432	 0.084824
H	-0.2079522675	 0.5285883144	 2.9378929783	 0.095786
H	 1.6902008456	 0.1782523143	 4.5390009853	 0.119699
H	 2.6241952407	-0.7532245245	 3.2578873875	 0.116963
58.6669	99.3542	169.2941	233.4543	238.8201	310.8793	404.6341	474.5491	581.3264	728.5368	765.3224	843.6926	884.5685	897.3019	930.9637	970.5109	995.8273	1035.7139	1077.6642	1093.5216	1110.8687	1129.4042	1151.8019	1164.6862	1173.555	1183.4318	1247.3279	1286.2112	1298.4736	1353.1888	1381.5515	1387.6399	1409.2907	1431.6653	1485.4139	1496.0953	1514.6224	1529.9824	2997.4731	3019.6231	3036.3249	3058.2569	3071.6384	3084.0711	3092.4225	3102.766	3133.5025	3170.8706
CC1OCC1C1CO1	C[C@H]1OC[C@H]1[C@H]1CO1	
InChI=1S/C6H10O2/c1-4-5(2-7-4)6-3-8-6/h4-6H,2-3H2,1H3	InChI=1S/C6H10O2/c1-4-5(2-7-4)6-3-8-6/h4-6H,2-3H2,1H3/t4-,5-,6-/m1/s1
