18
gdb 90641	3.67362	1.11077	1.00884	3.8149	77.66	-0.2558	0.022	0.2778	1225.8563	0.146417	-401.927685	-401.91894	-401.917996	-401.960803	32.768	
C	 0.0038395232	 1.4678964556	-0.0771613914	-0.402521
C	 0.0124378444	-0.0363297529	 0.0943098781	 0.104666
O	 0.9924305633	-0.6656983138	-0.8001989521	-0.298144
C	 1.7691268628	-1.0651939018	 0.3153682625	 0.075049
C	 0.7747039505	-0.5516358866	 1.3151299668	-0.168853
C	 1.0046009993	-2.0663706671	 1.1809692015	 0.114422
C	-0.0107765788	-3.0338192731	 0.5973223828	-0.478962
C	 1.7984234094	-2.5888517685	 2.2660998908	 0.229418
N	 2.4376054875	-3.0155808973	 3.1315239926	-0.339238
H	 0.9974027143	 1.8875592983	 0.1036237912	 0.130831
H	-0.3042542118	 1.726192627	-1.0942719777	 0.136036
H	-0.7035115337	 1.9238002513	 0.6239785457	 0.124599
H	-0.9866437854	-0.4560508484	-0.0684912784	 0.093206
H	 2.8495868683	-1.0319588116	 0.2422222818	 0.130183
H	 0.9093877719	-0.0311667312	 2.2535672466	 0.123948
H	-0.3541346116	-2.6714442109	-0.3730346741	 0.150345
H	 0.4473505711	-4.0149201219	 0.4469102111	 0.141071
H	-0.8710675646	-3.157227577	 1.2614407721	 0.133943
121.306	146.532	164.4556	198.5249	237.6095	246.6009	311.9187	351.9175	444.0887	516.7008	552.4627	573.1211	689.8224	779.3374	828.6779	851.8401	895.5366	931.778	959.7209	1014.3525	1036.0115	1055.9129	1085.9839	1108.646	1111.1491	1124.7134	1199.6226	1228.2125	1276.4759	1303.2516	1366.5538	1389.9441	1406.6405	1412.2871	1484.228	1490.8445	1492.2154	1501.4032	2345.087	3038.983	3045.9982	3051.5366	3112.6949	3118.1552	3124.8872	3141.5137	3188.7467	3211.6756
CC1OC2C1C2(C)C#N	C[C@H]1O[C@H]2[C@@H]1[C@]2(C)C#N	
InChI=1S/C7H9NO/c1-4-5-6(9-4)7(5,2)3-8/h4-6H,1-2H3	InChI=1S/C7H9NO/c1-4-5-6(9-4)7(5,2)3-8/h4-6H,1-2H3/t4-,5-,6+,7+/m1/s1
