18
gdb 20034	4.26474	1.27756	1.15746	3.2043	67.73	-0.2388	0.0615	0.3003	1073.1155	0.155397	-381.056178	-381.048131	-381.047187	-381.089098	29.654	
O	 0.0574651667	 1.0792973115	-0.805912742	-0.42139
C	 0.0812897547	 0.0007061464	 0.1164106244	-0.084919
C	-1.3028422877	-0.5731818535	 0.3137212855	-0.028448
N	-1.8339277664	-1.3555946514	-0.8249341156	-0.356854
C	-1.6018532887	-2.0241610676	 0.4657299363	-0.053882
C	-0.5554883096	-3.1028423689	 0.48068737	-0.003749
C	-0.7301234889	-4.3004000592	-0.3790901541	-0.240374
N	 0.3116189131	-3.3050988082	-0.6859711587	-0.313264
H	-0.2919477856	 0.7208535231	-1.6297619062	 0.286877
H	 0.780370974	-0.7854427338	-0.1963802053	 0.117681
H	 0.4484134966	 0.4151354247	 1.0614325717	 0.110443
H	-2.0008439871	 0.1145498666	 0.7886813835	 0.093357
H	-2.8217734044	-1.1697104579	-0.9670987765	 0.239102
H	-2.4799852012	-2.2552343726	 1.0685178015	 0.091865
H	-0.0503190323	-3.2247656139	 1.4372069211	 0.095663
H	-0.3651081767	-5.2688639346	-0.0492643967	 0.117215
H	-1.6078552983	-4.3343942356	-1.0199426553	 0.110935
H	-0.0435968984	-2.7028676752	-1.4285567137	 0.239742
66.5173	114.4989	136.2343	213.553	274.4081	316.2467	410.2893	471.6147	559.0114	618.9457	744.4209	821.4662	862.719	876.1435	919.6136	947.9508	984.2075	994.1461	1011.8253	1042.0563	1067.8578	1109.1819	1128.2086	1151.8913	1175.0541	1194.6865	1214.8421	1264.9307	1269.573	1294.6855	1318.6723	1366.0961	1386.906	1414.2373	1439.5781	1472.0465	1504.3509	1506.8454	3027.2267	3078.1012	3103.7171	3106.2521	3122.7056	3125.6825	3193.153	3469.2174	3521.3002	3798.7378
OCC1NC1C1CN1	OC[C@H]1N[C@H]1[C@H]1CN1	
InChI=1S/C5H10N2O/c8-2-4-5(7-4)3-1-6-3/h3-8H,1-2H2	InChI=1S/C5H10N2O/c8-2-4-5(7-4)3-1-6-3/h3-8H,1-2H2/t3-,4-,5+/m1/s1
