13
gdb 32403	6.71596	0.87508	0.77796	5.3093	69.64	-0.2621	-0.0618	0.2003	1347.0991	0.08955	-452.773863	-452.765875	-452.764931	-452.80721	27.746	
O	-0.0535945532	 1.4318387511	 0.0069091927	-0.418289
C	 0.0033635373	 0.017912948	 0.0020031631	-0.194679
C	-1.400668638	-0.487335959	 0.0124326322	 0.249348
C	-2.5626047225	 0.2193449545	 0.0241073098	-0.08277
O	-3.5980310142	-0.6646974594	 0.0303778561	-0.158893
C	-2.9971285786	-1.879368906	 0.0223820015	 0.283531
N	-1.6976859496	-1.8361171078	 0.0109050122	-0.339265
C	-3.8274651378	-3.0296870438	 0.0261178108	 0.262354
N	-4.506050961	-3.9664553117	 0.0291606976	-0.322068
H	 0.8452075	 1.7720939898	 0.0018678836	 0.29988
H	 0.520461987	-0.373397338	-0.8882259287	 0.12147
H	 0.5356256011	-0.379013722	 0.8807165442	 0.121474
H	-2.8097364405	 1.2652984543	 0.0290961148	 0.177907
53.6831	133.0823	139.3372	222.7467	222.8293	286.7013	411.7874	497.8263	567.2148	631.4472	642.5989	711.6493	738.662	800.3762	980.0062	1015.5952	1048.7615	1096.8304	1137.1303	1200.3382	1230.4929	1236.9461	1300.9626	1340.041	1464.4751	1511.9409	1558.9602	1623.3638	2359.8923	2977.6152	3001.0858	3316.9517	3846.4482
OCC1=COC(=N1)C#N	OCc1coc(n1)C#N	
InChI=1S/C5H4N2O2/c6-1-5-7-4(2-8)3-9-5/h3,8H,2H2	InChI=1S/C5H4N2O2/c6-1-5-7-4(2-8)3-9-5/h3,8H,2H2
