16
gdb 72987	2.72424	1.51649	1.21949	3.6151	70.08	-0.2667	0.0124	0.279	1036.5248	0.122752	-437.857077	-437.848467	-437.847523	-437.889905	32.388	
O	-0.0565927138	 1.4267366918	-0.0826129799	-0.446898
C	-0.0187683786	 0.0527927116	-0.0662375158	 0.360157
C	 0.7202741473	-0.8210794802	-1.0876238891	-0.298519
C	-0.4812082019	-1.8206783113	-1.0579730388	-0.236389
C	-1.2020387979	-0.9152677439	-0.0521992515	-0.181098
C	-0.3142319634	-0.7515725068	 1.181215572	 0.167154
O	 0.5884667239	-1.73269151	 1.5990761929	-0.452549
C	-0.9092065133	 0.000682164	 2.2670628546	 0.247805
N	-1.3651241455	 0.5661507496	 3.1671155011	-0.341937
H	 0.6227439097	 1.7736769936	 0.5074772206	 0.300272
H	 0.8023270465	-0.3039826381	-2.0452233789	 0.1216
H	 1.6972176522	-1.2038852348	-0.7867788982	 0.118264
H	-1.0063125221	-1.8766874087	-2.0125534069	 0.118093
H	-0.2562496217	-2.8307608774	-0.7100915295	 0.107612
H	-2.2654852937	-0.719364407	 0.0081659896	 0.118405
H	 0.0956901025	-2.4312703823	 2.0459869678	 0.298027
117.5778	142.6204	185.1172	230.1898	260.1378	281.9906	329.5582	369.1538	446.4226	462.6539	556.6017	571.9725	674.8666	696.9267	757.1233	799.3801	909.5366	939.7597	968.5737	986.3131	1014.1766	1074.6283	1126.7198	1181.7269	1201.3939	1218.3119	1235.134	1262.2939	1287.99	1299.482	1348.7151	1429.8464	1468.516	1498.4058	2348.8572	3074.7529	3080.3734	3124.9282	3141.9479	3195.7879	3789.2218	3792.3254
OC12CCC1C2(O)C#N	O[C@]12CC[C@H]1[C@]2(O)C#N	
InChI=1S/C6H7NO2/c7-3-6(9)4-1-2-5(4,6)8/h4,8-9H,1-2H2	InChI=1S/C6H7NO2/c7-3-6(9)4-1-2-5(4,6)8/h4,8-9H,1-2H2/t4-,5-,6-/m1/s1
