17
gdb 91307	2.48702	1.5837	1.14596	5.069	73.39	-0.2297	0.0001	0.2298	1086.677	0.135788	-417.958835	-417.950696	-417.949752	-417.991838	29.954	
C	-0.0416109623	 1.584168338	 0.1367707933	-0.332403
N	 0.117367816	 0.1484232915	 0.168203435	-0.056544
C	-1.0853333299	-0.7164262766	 0.2127565169	-0.191321
C	-0.3989533921	-1.5841140685	 1.2831251663	 0.105387
O	 0.544819685	-2.5484151026	 0.760569559	-0.302044
C	 1.663453949	-1.6534405077	 0.9690712507	-0.013812
C	 2.5042113651	-1.4680947497	-0.2120723319	 0.294514
N	 3.2042998926	-1.3171250386	-1.1185234423	-0.320951
C	 0.699197557	-0.4971543585	 1.3498664441	-0.073666
H	 0.9391851964	 2.0669623159	 0.184752441	 0.134262
H	-0.5083289868	 1.8764934854	-0.8090708166	 0.134288
H	-0.6657338665	 1.9785295119	 0.9607542995	 0.092857
H	-1.9744347861	-0.2061224053	 0.6164201473	 0.095367
H	-1.3399186814	-1.2054808123	-0.7324636984	 0.124951
H	-0.9833820066	-1.9816685949	 2.1129987189	 0.098173
H	 2.2861209286	-2.0026836773	 1.8033121657	 0.122458
H	 0.9478865319	 0.1325923195	 2.2062342613	 0.088484
88.4922	100.4148	192.2087	210.851	288.4416	293.6093	355.5652	394.906	532.4569	567.4654	700.3146	738.9899	821.2665	849.316	926.7746	973.3392	978.217	991.6375	1025.717	1040.5947	1065.0426	1138.1557	1166.3311	1190.3099	1194.866	1213.468	1246.6912	1281.3895	1296.8893	1327.5675	1353.2675	1362.0918	1455.2367	1484.5832	1499.4806	1503.9973	2361.4107	2929.0163	2979.0999	3023.1081	3066.2387	3080.2374	3092.211	3109.5178	3113.3487
CN1CC2OC(C#N)C12	CN1C[C@H]2O[C@@H](C#N)[C@@H]12	
InChI=1S/C6H8N2O/c1-8-3-5-6(8)4(2-7)9-5/h4-6H,3H2,1H3	InChI=1S/C6H8N2O/c1-8-3-5-6(8)4(2-7)9-5/h4-6H,3H2,1H3/t4-,5+,6+/m0/s1
