15
gdb 34357	3.00692	1.62502	1.32619	2.8694	69.28	-0.2447	-0.006	0.2387	953.31	0.113393	-416.73324	-416.726215	-416.725271	-416.764647	27.413	
N	 0.0129078887	-1.1516577361	-0.0741335026	-0.333003
C	 0.0252949074	 0.0049496071	-0.0387349657	 0.182243
C	 0.0270575807	 1.4469540597	 0.0010231552	 0.201589
N	-0.4451095367	 2.1884933223	-1.1925071467	-0.34513
C	 0.8429533288	 2.9441404322	-1.2815057588	-0.177835
C	 1.3517609182	 2.2824802071	 0.0299399711	-0.145882
C	 0.8950471383	 2.8889127604	 1.3776276412	 0.022449
O	-0.375921732	 3.5095702592	 1.1750032254	-0.214468
C	-0.3562194255	 2.1072491822	 1.3789625128	-0.020717
H	-0.6260842659	 1.5856259825	-1.986487093	 0.236668
H	 1.4557148224	 2.6830407433	-2.150089476	 0.111756
H	 0.698941249	 4.0264657104	-1.2455020717	 0.127126
H	 2.3216605375	 1.7897038937	 0.0310690261	 0.110904
H	 1.5059912464	 3.2561188718	 2.1930788964	 0.119573
H	-0.9667563373	 1.6937583641	 2.1732504464	 0.124725
134.0437	157.908	216.0677	299.1167	423.6589	474.0007	531.5482	544.6562	633.1396	649.7109	755.8349	800.3168	826.4381	856.2934	907.8864	953.4598	978.3547	986.4303	1026.431	1038.1715	1056.619	1102.7795	1114.9025	1178.4753	1186.424	1235.991	1249.4016	1291.939	1319.963	1375.124	1387.5507	1498.7531	2343.149	3047.1972	3106.0847	3144.3746	3186.0738	3202.3383	3553.1038
N#CC12NCC1C1OC21	N#C[C@]12NC[C@H]1[C@H]1O[C@@H]21	
InChI=1S/C6H6N2O/c7-2-6-3(1-8-6)4-5(6)9-4/h3-5,8H,1H2	InChI=1S/C6H6N2O/c7-2-6-3(1-8-6)4-5(6)9-4/h3-5,8H,1H2/t3-,4+,5+,6-/m0/s1
