21
gdb 39235	2.84009	1.63401	1.20736	1.2639	81.77	-0.2359	0.0822	0.3181	1082.8343	0.185005	-387.063813	-387.056328	-387.055384	-387.095329	31.199	
C	-0.0514085765	 1.4810932852	 0.0344044732	-0.338545
C	 1.3159825814	 0.8231555009	 0.035234038	-0.019878
C	 2.155385581	 0.7886969782	 1.2982448924	-0.234093
C	 2.8695141729	-0.5631185803	 1.4651565705	-0.219644
C	 1.9718759118	-1.7812764268	 1.6657334443	-0.01899
C	 1.0403993235	-1.9502431415	 2.8512272201	-0.31647
C	 0.4698558902	-1.8155629151	 1.4719725294	 0.098621
O	-0.2646798605	-0.6467688346	 1.2311880555	-0.251623
C	 0.0633147436	-0.0121042393	 0.0282214408	 0.122988
H	-0.3856932018	 1.9363708277	 0.9605110947	 0.121696
H	-0.3976034938	 1.9745878886	-0.8668218113	 0.110432
H	 1.8799435674	 0.8646373375	-0.8934925747	 0.080281
H	 2.9042766121	 1.5890462575	 1.2721167681	 0.093348
H	 1.5205987432	 0.9885482915	 2.166817448	 0.106564
H	 3.4777283129	-0.7374591396	 0.567701243	 0.095166
H	 3.5796407001	-0.5026838622	 2.3004706818	 0.094992
H	 2.4563303959	-2.7064405036	 1.3606950143	 0.083365
H	 0.9988224627	-2.9068454686	 3.3604558032	 0.108259
H	 0.8902863058	-1.0884653154	 3.49351751	 0.121014
H	 0.050625807	-2.6979667042	 0.9874730257	 0.083374
H	-0.214450699	-0.5630214259	-0.8701438772	 0.079143
133.3893	204.3347	262.9435	316.6792	340.0685	391.871	435.4955	456.3069	585.3507	685.5455	735.7463	768.0488	783.124	811.7375	836.8363	875.491	920.4127	927.487	962.5826	986.7921	1040.3751	1049.7945	1058.3886	1076.8439	1090.9685	1108.0308	1128.2138	1135.0146	1155.1239	1174.3635	1186.8082	1224.5589	1245.5942	1255.2509	1275.2032	1332.4247	1360.9481	1384.8192	1398.3881	1414.3771	1420.8728	1476.7726	1480.0025	1491.3929	1495.4826	3009.764	3034.1119	3043.8613	3082.5148	3090.2661	3099.4561	3124.4776	3130.8299	3133.5379	3137.7059	3217.596	3223.2539
C1C2CCC3CC3OC12	C1[C@H]2CC[C@H]3C[C@H]3O[C@@H]12	
InChI=1S/C8H12O/c1-2-6-4-8(6)9-7-3-5(1)7/h5-8H,1-4H2	InChI=1S/C8H12O/c1-2-6-4-8(6)9-7-3-5(1)7/h5-8H,1-4H2/t5-,6+,7+,8-
