18
gdb 35274	4.02372	0.81646	0.72752	0.6517	79.41	-0.2485	0.0337	0.2823	1536.4646	0.146195	-401.859195	-401.850196	-401.849252	-401.894005	32.927	
C	-0.3450908097	-1.1543503416	 0.4423553407	-0.447671
C	-0.1451096574	 0.0091456433	 0.214121341	 0.38241
C	 0.0751941192	 1.3944966007	-0.0995460012	-0.256181
N	 0.7284535862	 2.2397440025	 0.9316558964	-0.326926
C	 1.4408910217	 1.9681459193	-0.321216194	 0.003721
C	 2.7010262334	 1.1393326953	-0.2128156033	-0.250756
C	 3.8635604406	 1.9769588038	 0.2635358846	 0.102548
C	 5.2272541496	 1.7908673377	-0.2428811391	-0.178268
O	 4.4253133218	 2.8836194017	-0.69522445	-0.243195
H	-0.5216674921	-2.1794257829	 0.6558799726	 0.199141
H	-0.7262189197	 1.8525160975	-0.6757460308	 0.11195
H	 0.312655503	 3.1674540934	 0.9170523477	 0.238636
H	 1.4946974424	 2.7739944983	-1.0513012441	 0.105412
H	 2.5304153712	 0.3143356526	 0.4863496456	 0.123029
H	 2.9403709473	 0.7073650772	-1.1912656298	 0.106157
H	 3.7407581286	 2.4092125284	 1.2573594604	 0.103818
H	 6.0803627959	 2.060990428	 0.3779863927	 0.114183
H	 5.4216977279	 1.0160813649	-0.9840131494	 0.11199
52.4455	67.5824	105.6038	159.8965	223.9472	303.222	349.6876	424.0495	482.9972	553.7125	595.5728	617.6239	658.9307	783.0746	811.0944	822.3352	857.4806	908.115	938.5104	955.636	983.9181	1016.872	1087.5685	1102.5867	1141.1317	1158.423	1170.5362	1188.6017	1223.4385	1247.2152	1282.5454	1292.182	1315.4077	1401.8049	1445.6341	1456.1528	1460.9603	1531.1467	2239.5984	3043.4608	3080.6953	3091.0797	3111.0566	3121.4934	3131.1963	3166.6075	3504.0219	3505.1559
C#CC1NC1CC1CO1	C#C[C@H]1N[C@H]1C[C@H]1CO1	
InChI=1S/C7H9NO/c1-2-6-7(8-6)3-5-4-9-5/h1,5-8H,3-4H2	InChI=1S/C7H9NO/c1-2-6-7(8-6)3-5-4-9-5/h1,5-8H,3-4H2/t5-,6+,7-/m0/s1
