21
gdb 63808	3.21284	1.39995	1.37067	2.1518	80.81	-0.2252	0.0686	0.2939	1065.1785	0.182791	-387.04046	-387.032586	-387.031642	-387.072279	32.331	
C	-0.0718827326	 1.546445647	-0.021477031	-0.43569
C	-0.0169565553	 0.0125325178	-0.0118487227	 0.291668
C	-1.4361890178	-0.5662613815	-0.0941356644	-0.435693
C	 0.9194737973	-0.5533098761	-1.1420278485	-0.300788
C	 1.9786540284	-1.2657677377	-0.312281323	-0.02921
C	 1.3121812442	-1.9374155361	 0.9249086683	 0.039579
O	 2.4946364884	-1.6700642632	 1.755541631	-0.320078
C	 2.2769948406	-0.4432642992	 0.9762941695	 0.039579
C	 0.7397486362	-0.518168853	 1.2113816382	-0.042351
H	 0.9299702337	 1.9852695718	 0.0357379369	 0.111907
H	-0.5447809381	 1.9155054038	-0.9384501892	 0.112981
H	-0.6509598805	 1.9269620671	 0.8275116436	 0.112447
H	-1.938319482	-0.2426055201	-1.0127156746	 0.112982
H	-1.4249395254	-1.6614336823	-0.0895830391	 0.111907
H	-2.0478728747	-0.2361129593	 0.7530655398	 0.112446
H	 0.3893423495	-1.2381829189	-1.8122028426	 0.098957
H	 1.3457268252	 0.2429285911	-1.7613306881	 0.098957
H	 2.8070842457	-1.7841208767	-0.7945228033	 0.075162
H	 0.838074987	-2.9153765106	 1.0168249877	 0.087357
H	 2.9694002318	 0.3852746946	 1.1303401307	 0.087358
H	 0.3604032085	-0.3076320584	 2.2121230807	 0.070521
121.2906	219.2423	233.6151	253.9104	315.6497	347.3394	386.1434	474.6499	511.357	577.2356	669.615	768.2149	791.9371	806.4546	883.4911	892.4441	904.0599	929.6308	937.0424	960.8284	969.7438	982.7643	995.1468	1003.5577	1032.3968	1114.7445	1128.3262	1158.9569	1178.6658	1194.7444	1205.5084	1218.9885	1237.4886	1271.9885	1275.9348	1286.7672	1313.8926	1371.964	1403.5199	1425.5019	1483.4098	1489.7855	1496.6976	1504.8696	1508.2154	3021.2803	3025.3735	3040.6365	3078.4802	3088.7058	3092.6318	3092.8487	3094.7422	3105.7037	3105.9196	3119.8897	3131.9988
CC1(C)CC2C3OC2C13	CC1(C)C[C@@H]2[C@H]3O[C@@H]2[C@@H]13	
InChI=1S/C8H12O/c1-8(2)3-4-6-5(8)7(4)9-6/h4-7H,3H2,1-2H3	InChI=1S/C8H12O/c1-8(2)3-4-6-5(8)7(4)9-6/h4-7H,3H2,1-2H3/t4-,5+,6-,7+
