20
gdb 101060	2.22319	1.32239	0.93141	2.8245	81.58	-0.2394	0.0391	0.2785	1311.8498	0.168385	-403.086511	-403.076323	-403.075379	-403.121531	37.721	
C	 0.1800111399	 1.5068674454	 0.2038454561	-0.411964
C	 0.2055821976	-0.0225332733	 0.1264767583	-0.180304
C	 0.6088338455	-0.5565492356	-1.2554598786	 0.010681
O	 1.9294384791	-0.1581058751	-1.6106754202	-0.446691
C	 0.5875374335	-2.0892031123	-1.3059421318	 0.131951
C	 1.4940904046	-2.7969496084	-2.2590098545	-0.276514
N	 1.7799844075	-2.8231329344	-0.8177106171	-0.351083
C	-0.6923503178	-2.6772340895	-0.9942036588	 0.290127
C	-1.7769503051	-3.1445465455	-0.7675168981	-0.412482
H	 1.1738892029	 1.9459519484	 0.0528247751	 0.107239
H	-0.4958783882	 1.9344597606	-0.5457316503	 0.12048
H	-0.1622985708	 1.8414646811	 1.187139409	 0.126618
H	 0.8997777966	-0.4267038836	 0.8730024624	 0.107867
H	-0.7852596325	-0.4202177135	 0.3672599572	 0.122315
H	-0.1105843295	-0.1861006283	-2.0042902192	 0.079831
H	 1.9791748148	 0.7999754309	-1.555233165	 0.292514
H	 1.169585183	-3.7442408935	-2.6780437693	 0.122765
H	 2.1158646111	-2.1791814204	-2.8977189931	 0.131999
H	 2.4972793644	-2.1234698041	-0.6308405304	 0.2437
H	-2.7260584067	-3.5716225885	-0.5571141816	 0.190951
70.2374	87.9914	140.0663	177.9611	198.4353	236.9027	245.1467	294.8632	324.2511	386.6501	442.192	517.3939	545.4711	569.7458	604.5674	656.7518	720.4837	782.9113	864.322	883.1954	921.5405	960.5479	994.1136	1004.9273	1062.3917	1078.6962	1128.867	1142.072	1152.4676	1215.5444	1270.5417	1293.9766	1306.2674	1335.0145	1364.0561	1387.3958	1408.7962	1422.2858	1479.686	1493.8739	1499.8573	1511.0474	2236.8455	2967.2834	3022.1431	3041.0513	3074.1087	3099.3695	3108.0579	3124.7533	3221.6189	3485.3501	3502.9142	3845.6534
CCC(O)C1(CN1)C#C	CC[C@@H](O)[C@]1(CN1)C#C	
InChI=1S/C7H11NO/c1-3-6(9)7(4-2)5-8-7/h2,6,8-9H,3,5H2,1H3	InChI=1S/C7H11NO/c1-3-6(9)7(4-2)5-8-7/h2,6,8-9H,3,5H2,1H3/t6-,7-/m1/s1
