15
gdb 32307	2.76376	1.57392	1.00928	1.5429	73.68	-0.2206	-0.0423	0.1784	1112.6592	0.113624	-453.961527	-453.953811	-453.952866	-453.99398	28.556	
C	-0.1126906985	 1.3563159971	-0.0118553402	-0.24964
O	-0.0650004253	-0.0586483612	 0.0761660008	-0.233194
C	 0.6491317841	-0.5904444305	 1.0811228217	 0.280169
C	 1.340792523	 0.0788398709	 2.0364705719	-0.151812
N	 2.0525677411	-0.5713261895	 3.0399338588	-0.271174
C	 2.0285377293	-1.8418651949	 3.0256952009	 0.118695
O	 1.3782980214	-2.62217823	 2.1298606605	-0.221522
C	 0.6395338851	-2.0569114526	 1.0899861741	 0.349458
N	 0.0292598754	-2.7759368006	 0.2489900724	-0.519457
H	 0.8894880087	 1.7798078572	-0.1544810265	 0.131588
H	-0.7320477969	 1.5828900702	-0.8798523494	 0.147354
H	-0.5639420568	 1.7955922013	 0.8867313059	 0.131588
H	 1.3767838864	 1.1597143267	 2.0702970494	 0.115961
H	 2.5492744867	-2.4445758494	 3.7617626266	 0.143317
H	 0.1664042263	-3.7658238947	 0.4554680731	 0.228669
101.1001	126.891	220.6042	229.6318	289.5589	355.4767	436.8849	498.9332	542.1191	578.0605	600.2323	761.187	764.9238	862.7699	889.3545	903.904	921.4856	977.2759	1065.5895	1093.6523	1177.5423	1191.9241	1227.0847	1249.2644	1315.9808	1404.3925	1416.7004	1480.7265	1490.4833	1504.677	1626.2747	1673.8317	1751.8175	3010.1365	3072.2521	3148.5123	3205.8563	3216.2714	3491.7239
COC1=CN=COC1=N	COC1=C(OC=NC1)[NH]	
InChI=1S/C5H6N2O2/c1-8-4-2-7-3-9-5(4)6/h2-3,6H,1H3	InChI=1S/C5H7N2O2/c1-8-4-2-7-3-9-5(4)6/h3,6H,2H2,1H3
