16
gdb 17591	2.79105	2.46341	1.79181	0.5233	63.56	-0.2432	0.0625	0.3057	802.047	0.128118	-383.677996	-383.670505	-383.669561	-383.709288	28.481	
C	 0.0433815224	 1.5158525413	-0.0016474124	-0.507704
C	-0.0630372883	 0.0313378587	 0.1101602115	 0.322817
O	 1.0663712575	-0.7875361746	-0.2582217381	-0.320452
C	 0.5236020418	-0.9371703333	 1.0702274468	 0.322873
C	 1.4193125703	-0.7557646071	 2.2502374139	-0.507752
C	-0.723054452	-1.814540984	 0.936052671	-0.051349
O	-1.8579656995	-1.0116355301	 1.3034874165	-0.242727
C	-1.3044452958	-0.8550055749	-0.014420789	-0.051386
H	 1.0002748164	 1.8663063537	 0.3939556141	 0.134157
H	-0.0265168782	 1.8356298397	-1.0471743139	 0.133578
H	-0.7671769704	 1.9943976974	 0.5565061653	 0.138923
H	 2.0557262677	 0.1236786494	 2.1216828981	 0.134161
H	 0.8233502783	-0.6317279829	 3.1596288241	 0.138936
H	 2.0706408819	-1.6263705515	 2.3847092941	 0.133578
H	-0.8293122507	-2.8914826098	 0.9799193211	 0.111181
H	-1.9556131015	-1.0326736419	-0.8614316031	 0.111165
182.9192	192.0657	193.6534	204.2983	233.2858	372.3586	469.6158	507.0533	614.5248	620.2515	708.6006	741.6582	831.4407	849.4426	871.276	882.3839	958.1641	969.895	1048.4105	1074.1103	1098.7263	1130.8432	1180.6575	1201.5319	1257.7055	1308.145	1350.7526	1410.4403	1412.7275	1470.5991	1477.0644	1486.1741	1493.7738	1510.92	3036.9721	3038.1503	3101.2744	3101.9358	3121.8154	3123.4591	3192.0475	3206.3087
CC12OC1(C)C1OC21	C[C@@]12O[C@]1(C)[C@H]1O[C@@H]21	
InChI=1S/C6H8O2/c1-5-3-4(7-3)6(5,2)8-5/h3-4H,1-2H3	InChI=1S/C6H8O2/c1-5-3-4(7-3)6(5,2)8-5/h3-4H,1-2H3/t3-,4+,5+,6-
