17
gdb 69814	3.28729	1.63123	1.28045	3.2768	72.8	-0.2566	-0.017	0.2395	996.3222	0.135979	-421.798457	-421.791126	-421.790182	-421.829883	29.207	
C	-0.0971689919	 1.5169592811	 0.0278553041	-0.481366
C	 0.0492098079	 0.0137992913	-0.0014277753	 0.370722
O	-0.6903986464	-0.6785796127	 1.0309433017	-0.268705
C	 0.7262578248	-0.7106475921	 1.1047781627	-0.054747
C	 1.3978954916	-2.0294187127	 0.832617193	 0.017198
O	 0.5572234866	-3.1305239625	 0.5320785907	-0.232547
C	 1.3478161629	-2.5821040216	-0.5415155531	-0.019084
C	 0.6566185249	-1.8014783443	-1.5901965091	-0.080399
C	 0.0643255579	-0.6277178411	-1.3414620367	-0.114709
H	 0.7075936029	 2.0000060102	-0.53621326	 0.125864
H	-1.0502769632	 1.8164345087	-0.4219685505	 0.131145
H	-0.0766325457	 1.8856523444	 1.0559674297	 0.131166
H	 1.1610254833	-0.1238680882	 1.9145662866	 0.086248
H	 2.2573265418	-2.2595790049	 1.4619167141	 0.092496
H	 2.1432081801	-3.2479897787	-0.8723622563	 0.095183
H	 0.6619875388	-2.2053215459	-2.5983679945	 0.103013
H	-0.4100265263	-0.0784574611	-2.1506160969	 0.098521
161.2065	180.4595	202.8567	311.9083	346.5627	394.9588	481.648	506.461	573.7302	669.4334	716.7032	726.3317	798.0644	819.0243	839.9004	891.0177	930.217	959.2534	977.8807	1003.9927	1051.9109	1058.0221	1085.2119	1111.9734	1132.0709	1212.5337	1233.1035	1276.9455	1326.1513	1375.6074	1408.5495	1414.9333	1438.9199	1457.1543	1484.3888	1496.0938	1696.6877	3035.5858	3098.3919	3099.0448	3115.4735	3125.2751	3127.5377	3155.6752	3179.0978
CC12OC1C1OC1C=C2	C[C@]12O[C@H]1[C@H]1O[C@H]1C=C2	
InChI=1S/C7H8O2/c1-7-3-2-4-5(8-4)6(7)9-7/h2-6H,1H3	InChI=1S/C7H8O2/c1-7-3-2-4-5(8-4)6(7)9-7/h2-6H,1H3/t4-,5-,6-,7+/m0/s1
