17
gdb 18765	3.7955	2.31986	1.73927	0.796	67.55	-0.2121	0.0594	0.2715	781.6949	0.143993	-363.792774	-363.786411	-363.785467	-363.823068	25.626	
C	-0.010633664	 1.4847140214	 0.0449568545	-0.21497
C	 1.5568495167	 1.5609971898	-0.0084117365	-0.338164
C	 1.5791440918	 0.0551320816	 0.1913623687	 0.483824
O	 2.5511342668	-0.8662592819	-0.2706028376	-0.327629
C	 2.2485851489	-1.7659227911	 0.8318089452	-0.104206
C	 1.3149337511	-0.7247077311	 1.5049573114	-0.109208
N	-0.1436655978	-0.7743457836	 1.2435629313	-0.32743
C	 0.0492402346	-0.07515968	-0.0582493206	-0.078937
H	-0.4433274385	 1.814317704	 0.9908403202	 0.114803
H	-0.5198469631	 1.9867709217	-0.7797148824	 0.104932
H	 1.9145397609	 1.8321756949	-1.0065670174	 0.115871
H	 2.0728250395	 2.1813038595	 0.7291402012	 0.102541
H	 1.7532691391	-2.6851179943	 0.4938174886	 0.097623
H	 3.1568289587	-2.0235129172	 1.3880471583	 0.109837
H	 1.6010484501	-0.4006053244	 2.5081001635	 0.083266
H	-0.5191301562	-1.7144974424	 1.1624072034	 0.215614
H	-0.3959442585	-0.5309742068	-0.944367412	 0.072232
125.0346	220.0208	322.3672	365.9051	438.9041	510.6421	644.9315	698.5667	742.873	819.242	830.816	852.9272	888.6463	909.3409	923.5692	980.4058	999.3883	1029.6055	1074.9384	1095.1692	1104.664	1122.209	1153.2519	1169.8923	1191.8019	1221.8872	1237.7135	1264.2741	1297.0671	1306.029	1329.446	1353.334	1378.3102	1467.7779	1487.0286	1508.358	3013.9649	3053.8355	3065.5209	3075.5401	3084.4526	3096.0906	3102.9574	3138.5047	3508.3766
C1CC23OCC2NC13	C1C[C@@]23OC[C@@H]2N[C@@H]13	
InChI=1S/C6H9NO/c1-2-6-4(1)7-5(6)3-8-6/h4-5,7H,1-3H2	InChI=1S/C6H9NO/c1-2-6-4(1)7-5(6)3-8-6/h4-5,7H,1-3H2/t4-,5-,6-/m0/s1
