14
gdb 125718	3.19826	1.46286	1.00998	1.0189	68.98	-0.2653	-0.0752	0.1901	1098.1738	0.100786	-470.023221	-470.015301	-470.014357	-470.056022	29.024	
C	-0.3524484212	 1.4584468777	 0.0150880963	-0.457932
C	 0.0038399759	 0.0053739344	-0.0055172929	 0.230532
N	 0.1611624879	-0.5639578509	-1.1419959221	-0.110927
O	 0.4953864147	-1.9267441273	-1.1644510304	-0.277941
C	 0.6633606205	-2.6849919904	-0.0305694855	 0.501063
N	 0.9637722902	-3.9088402594	-0.0640917713	-0.550339
N	 0.4813829547	-2.0191874272	 1.1689630044	-0.397991
C	 0.1544782517	-0.6937271532	 1.3046154732	 0.409651
O	 0.0036009999	-0.1466870555	 2.3743774014	-0.34255
H	 0.4053540661	 2.0225902195	 0.567222822	 0.158025
H	-0.4310066909	 1.8403041878	-1.002985833	 0.151101
H	-1.3000911406	 1.6047695404	 0.5422532222	 0.158043
H	 1.0592592762	-4.2370958224	-1.0223831549	 0.24324
H	 0.6036192749	-2.5719883436	 2.0075049507	 0.286025
77.0043	129.4943	148.8003	279.7037	309.4323	371.7255	378.6322	461.0169	549.5796	575.5813	664.7947	693.3099	710.4619	784.1113	784.9362	809.5542	903.4604	936.2944	1048.4588	1055.9045	1101.9085	1220.975	1337.7079	1398.6393	1408.9513	1437.1486	1465.8399	1466.3471	1674.9939	1780.4417	1811.2878	3052.0765	3111.5503	3159.3903	3536.6258	3603.783
CC1=NOC(=N)NC1=O	CC1=NO[C]([NH])NC1=O	
InChI=1S/C4H5N3O2/c1-2-3(8)6-4(5)9-7-2/h1H3,(H2,5,6,8)	InChI=1S/C4H5N3O2/c1-2-3(8)6-4(5)9-7-2/h1H3,(H2,5,6,8)
