17
gdb 84503	2.52892	1.71028	1.28085	2.7298	69.71	-0.252	-0.0179	0.2341	1005.1578	0.135806	-458.940484	-458.932422	-458.931478	-458.97297	31.295	
O	-0.5733383553	 1.3094636533	 0.8817625262	-0.443635
C	-0.0152920252	 0.2450427181	 0.0988749261	 0.038663
C	 0.9122609866	-0.6329570034	 0.9082744971	-0.127526
C	 0.2959884505	-1.7487792104	 1.3147739983	-0.136118
C	-1.1013515195	-1.7853572782	 0.8052588502	 0.364079
C	-2.0715034663	-2.8701334255	 0.946805318	-0.256128
O	-2.1503601258	-1.7183511406	 1.7919519859	-0.27737
C	-1.1306541437	-0.7465888986	-0.3313741064	 0.027232
O	-2.3700491542	-0.149865627	-0.5635365991	-0.422674
H	-0.7024948872	 0.9707201826	 1.7761116048	 0.291825
H	 0.4597721429	 0.7343097853	-0.7547903939	 0.093545
H	 1.9236284352	-0.3376202208	 1.1623378955	 0.112532
H	 0.7143650801	-2.5152884441	 1.9567790851	 0.115263
H	-2.8687844681	-2.9547301045	 0.2094969266	 0.126365
H	-1.7905299089	-3.7981052896	 1.4442699191	 0.111399
H	-0.8206886591	-1.2482215348	-1.2562106138	 0.09598
H	-2.4281150723	 0.5824718882	 0.0663046902	 0.286568
70.3132	202.6806	221.661	250.6685	293.8312	345.7764	374.5511	463.5156	486.3872	543.6737	584.5374	636.2658	755.9592	793.1525	795.2325	839.378	898.364	939.5639	981.2559	983.1513	1006.3426	1061.0837	1121.7568	1128.2433	1150.6088	1175.8439	1219.2215	1238.1677	1277.2819	1296.1953	1341.0172	1350.084	1418.4151	1431.3358	1443.3897	1523.8323	1652.8764	3039.435	3078.8288	3088.5231	3167.5487	3192.1208	3214.893	3744.9836	3789.8848
OC1C=CC2(CO2)C1O	O[C@H]1C=C[C@]2(CO2)[C@H]1O	
InChI=1S/C6H8O3/c7-4-1-2-6(3-9-6)5(4)8/h1-2,4-5,7-8H,3H2	InChI=1S/C6H8O3/c7-4-1-2-6(3-9-6)5(4)8/h1-2,4-5,7-8H,3H2/t4-,5-,6-/m0/s1
