12
gdb 14295	4.00898	1.98115	1.91201	5.1769	49.67	-0.2807	0.0357	0.3163	718.6984	0.084067	-455.624796	-455.618532	-455.617588	-455.655336	23.167	
O	-0.0083407945	 1.4247860969	 0.3064265711	-0.402501
C	-0.0328465927	 0.0546868864	 0.116111823	 0.043033
C	-0.4833147349	-0.8079436467	 1.2755235904	 0.020871
O	-1.1871961613	-0.1478415486	 2.2962754542	-0.23123
C	-2.3341154453	 0.3931901105	 1.7960304234	 0.508616
O	-3.1037427505	 1.0553449286	 2.4077645928	-0.359863
O	-2.4719511259	 0.0568769614	 0.4742983049	-0.246235
C	-1.3551468541	-0.6881217355	 0.0534637748	-0.016803
H	-0.4851881934	 1.8482260127	-0.4163710431	 0.305479
H	 0.7680404668	-0.3730093955	-0.4879254163	 0.112087
H	 0.0509864437	-1.6856619327	 1.6128188806	 0.135216
H	-1.5903313979	-1.4625643576	-0.6648374257	 0.13133
121.0336	192.4671	266.4796	280.4364	496.6622	582.2655	659.8533	733.8195	757.5018	774.0915	794.0825	812.2836	896.7405	982.5731	1062.6263	1067.9488	1079.6498	1112.656	1136.5392	1149.5023	1221.9932	1310.5346	1350.2667	1357.6572	1442.4821	1942.0996	3102.9436	3200.4497	3212.527	3800.8199
OC1C2OC(=O)OC12	O[C@H]1[C@H]2OC(=O)O[C@@H]12	
InChI=1S/C4H4O4/c5-1-2-3(1)8-4(6)7-2/h1-3,5H	InChI=1S/C4H4O4/c5-1-2-3(1)8-4(6)7-2/h1-3,5H/t1-,2+,3-
