18
gdb 46375	3.67439	0.91822	0.80144	2.8358	73.02	-0.264	0.0204	0.2844	1413.609	0.147677	-439.056559	-439.048087	-439.047143	-439.090777	30.669	
N	-0.0805371198	 1.0488322538	-0.7176142274	-0.541508
C	-0.0606276442	-0.1142674487	-0.2493079187	 0.443018
O	 0.9972977105	-0.9316577486	 0.0870420396	-0.252159
C	 0.0922274172	-1.9728866362	 0.5724793239	-0.109563
C	-1.1272507245	-1.1091872026	 0.1772785247	-0.131438
C	-2.0913428849	-0.6624982075	 1.2773424751	-0.260433
C	-3.0707967046	 0.3800773883	 0.7860975282	 0.097204
C	-4.4149692479	 0.0173358493	 0.3178596276	-0.176504
O	-4.2182327449	 0.5994675035	 1.6078611119	-0.240344
H	 0.8623104928	 1.4144799268	-0.8607956004	 0.230878
H	 0.2357558907	-2.9047878184	 0.021312517	 0.123458
H	 0.2296276556	-2.1370953038	 1.6446336684	 0.123761
H	-1.6785305619	-1.5104720818	-0.6781409863	 0.111494
H	-2.6481700504	-1.5261032601	 1.6586917589	 0.110104
H	-1.520430388	-0.2507320569	 2.1191673407	 0.116046
H	-2.6170823439	 1.2860611562	 0.3860263547	 0.128858
H	-4.9256654976	 0.6475738128	-0.4085398248	 0.119484
H	-4.7231556939	-1.0282687361	 0.3213811169	 0.107643
70.0797	76.4666	107.7189	157.2492	243.8385	316.0942	398.2728	417.3764	473.6156	663.9334	747.921	809.0319	826.6251	863.1928	868.8765	889.9348	938.2148	962.8655	990.6512	1019.0777	1070.1095	1086.384	1125.8842	1140.823	1156.4131	1163.4286	1185.8082	1204.5064	1234.2853	1263.0001	1291.854	1303.32	1361.8537	1383.9702	1446.6185	1486.8413	1515.2751	1531.4299	1820.1697	3027.5186	3061.112	3065.3108	3078.6968	3080.1382	3122.3487	3130.5003	3166.5622	3477.6132
N=C1OCC1CC1CO1	[NH][C]1OC[C@H]1C[C@H]1CO1	
InChI=1S/C6H9NO2/c7-6-4(2-9-6)1-5-3-8-5/h4-5,7H,1-3H2	InChI=1S/C6H9NO2/c7-6-4(2-9-6)1-5-3-8-5/h4-5,7H,1-3H2/t4-,5+/m1/s1
