19
gdb 122695	3.59494	0.84006	0.72639	3.7291	77.56	-0.2339	-0.0559	0.178	1555.6418	0.157901	-456.345011	-456.335028	-456.334084	-456.380657	35.256	
C	 1.3937102436	 0.4299908301	-0.6761099517	-0.248248
O	 0.2249228452	 0.0906653636	-1.3984814887	-0.23155
C	-0.940275509	-0.02867397	-0.582110826	-0.081143
C	-1.1248950037	-1.4226572436	 0.0520204455	-0.180212
N	-1.8299597768	-2.4007738147	-0.7607913733	-0.280033
C	-1.2757865776	-2.8835730034	-1.81359565	 0.251534
N	-0.0634993546	-2.6154501318	-2.3772396422	-0.558118
C	-2.0683537961	-3.9474436591	-2.5179655248	 0.14627
O	-1.6960148325	-4.486099229	-3.5327022732	-0.269998
H	 1.2748515976	 1.3986271656	-0.1696249235	 0.119605
H	 1.6566840748	-0.3272377833	 0.0758680538	 0.117558
H	 2.2092911636	 0.5048358274	-1.399054202	 0.134673
H	-0.9034125604	 0.7328881126	 0.2097234811	 0.099302
H	-1.7950763067	 0.1941262768	-1.2280253083	 0.123507
H	-0.1337350743	-1.8025192103	 0.3508083813	 0.107157
H	-1.7046304468	-1.2919303122	 0.9724835949	 0.108467
H	 0.3281207482	-1.6925567202	-2.2334244405	 0.27471
H	 0.0825428785	-3.0554994456	-3.275085382	 0.261947
H	-3.0233689829	-4.184732743	-2.0132437606	 0.104572
60.0279	78.2283	109.5822	141.7396	183.1337	208.1974	231.9667	315.5562	340.8673	439.2055	457.8809	526.0461	581.2109	615.3723	667.2032	687.072	827.0531	892.7535	928.8705	1000.5873	1031.0298	1064.1796	1071.7576	1124.8741	1176.6383	1183.955	1215.5303	1278.8114	1334.2277	1362.2221	1373.4413	1390.3117	1406.0578	1474.2746	1479.7514	1489.8894	1494.8111	1509.5002	1623.3738	1724.5045	1807.4542	2973.7426	2974.2053	2989.9593	3005.6786	3044.7426	3057.0512	3088.1598	3120.8287	3505.7362	3641.0848
COCCN=C(N)C=O	COCCN=C(N)C=O	
InChI=1S/C5H10N2O2/c1-9-3-2-7-5(6)4-8/h4H,2-3H2,1H3,(H2,6,7)	InChI=1S/C5H10N2O2/c1-9-3-2-7-5(6)4-8/h4H,2-3H2,1H3,(H2,6,7)
