21
gdb 82360	2.46453	1.49332	1.19251	2.7218	81.44	-0.2468	-0.0258	0.221	1128.6584	0.182923	-387.102209	-387.093599	-387.092655	-387.135681	33.237	
C	-0.931528355	 1.0503301242	 0.0349564923	-0.396613
C	-0.0230577717	-0.1774020527	-0.0605182356	-0.000043
C	 0.9871662044	-0.1434970076	-1.2015611804	-0.022853
C	 2.2304639372	 0.6928790887	-1.0292848112	-0.296492
C	 2.2713030581	-0.7902484768	-0.744298067	-0.028662
C	 2.0906059508	-1.2435830512	 0.6977097944	-0.255422
C	 0.8318887362	-0.5103702736	 1.2224680745	-0.107413
C	 1.16707179	 0.6983188816	 2.0822994514	 0.14965
O	 0.3837766931	 1.2374199685	 2.822111238	-0.26203
H	-0.3529544217	 1.9765014452	 0.1015743825	 0.120641
H	-1.5661448281	 1.1174916373	-0.8545510432	 0.107678
H	-1.5763984944	 1.0026818918	 0.916487185	 0.131897
H	-0.661920444	-1.0545086152	-0.226929991	 0.082304
H	 0.6079451687	-0.2939353333	-2.2069007581	 0.082651
H	 2.7256052324	 1.0334705796	-1.9321360867	 0.113535
H	 2.2942844746	 1.4046112521	-0.2123753733	 0.109301
H	 2.851226706	-1.4208245756	-1.4090224862	 0.082952
H	 1.9292314865	-2.3265411889	 0.7222895494	 0.105925
H	 2.9685805647	-1.0421080899	 1.3246100117	 0.100804
H	 0.2323612469	-1.1516184893	 1.8758317031	 0.105748
H	 2.2198966854	 1.0617770449	 2.0146281403	 0.076439
47.4322	127.9992	194.7237	238.7923	255.8383	307.5547	345.6799	390.9126	435.566	546.7395	593.0342	709.2914	749.3623	805.9101	830.9768	867.4831	877.7855	940.0058	968.7005	984.2655	1008.6	1039.0179	1049.3826	1066.7093	1079.0525	1094.3416	1108.4331	1144.9741	1158.2824	1203.3379	1221.3784	1234.3679	1295.0766	1325.8981	1339.4194	1343.6354	1366.5606	1395.7253	1416.356	1432.5345	1486.5257	1490.9832	1497.7168	1500.1086	1821.12	2847.2084	3012.8698	3025.7087	3040.1097	3060.4659	3072.4951	3106.8704	3119.9901	3130.1064	3160.0199	3170.8599	3209.7363
CC1C2CC2CC1C=O	C[C@H]1[C@H]2C[C@H]2C[C@H]1C=O	
InChI=1S/C8H12O/c1-5-7(4-9)2-6-3-8(5)6/h4-8H,2-3H2,1H3	InChI=1S/C8H12O/c1-5-7(4-9)2-6-3-8(5)6/h4-8H,2-3H2,1H3/t5-,6-,7+,8-/m1/s1
