17
gdb 35601	2.63778	1.68522	1.23974	2.3423	78.75	-0.2265	0.0121	0.2385	1030.4712	0.137219	-380.817965	-380.810278	-380.809334	-380.850152	29.667	
C	-0.0668388328	-1.2910492966	 0.0207920009	-0.48225
C	-0.0676171745	-0.0883921958	 0.0202700822	 0.356269
C	-0.0533848216	 1.3722366647	 0.019721527	-0.205935
C	-0.4772046648	 2.0088419724	 1.4141370401	-0.18103
N	 0.7830845648	 2.2772444018	 2.1526693561	-0.331766
C	 1.6657867462	 2.2323099997	 1.2436983666	 0.36987
C	 3.1450296968	 2.0237334058	 0.9848532142	-0.344393
C	 2.6427233369	 1.3330261982	-0.3321224045	-0.177007
N	 1.3051695736	 1.9471702554	-0.072986681	-0.078655
H	-0.0802637637	-2.353235253	 0.0231095471	 0.204178
H	-0.6909272494	 1.7425111771	-0.7883973157	 0.113522
H	-1.021881315	 2.9444315182	 1.2392187564	 0.1148
H	-1.1209074469	 1.3375186548	 1.9853793088	 0.124117
H	 3.7119324373	 2.94068572	 0.8152966816	 0.135414
H	 3.6627983902	 1.3938071591	 1.7079513284	 0.139109
H	 3.0963094485	 1.6477890857	-1.2738626626	 0.11617
H	 2.6332718743	 0.2412303221	-0.2584917155	 0.127586
94.8902	134.0572	208.9476	253.6647	285.6786	410.8101	460.3374	553.9886	622.831	631.4581	661.2574	690.6014	777.4457	794.0018	823.8042	846.1723	919.8921	954.3951	980.219	1038.1807	1054.4686	1074.8809	1132.6746	1155.535	1194.9063	1201.6309	1206.0342	1227.2208	1253.6452	1302.0042	1348.0822	1354.7582	1465.7234	1487.7225	1512.9196	1759.2729	2227.7369	3034.9462	3055.7386	3063.5599	3091.4277	3113.3201	3117.148	3153.6946	3500.6583
C#CC1CN=C2CCN12	C#C[C@H]1C[N][C]2CCN12	
InChI=1S/C7H8N2/c1-2-6-5-8-7-3-4-9(6)7/h1,6H,3-5H2	InChI=1S/C7H8N2/c1-2-6-5-8-7-3-4-9(6)7/h1,6H,3-5H2/t6-/m0/s1
