20
gdb 40098	3.11015	1.49656	1.26434	1.3934	77.87	-0.2354	0.0698	0.3052	1059.0154	0.173696	-403.116141	-403.108676	-403.107731	-403.148126	29.991	
C	-0.5460687765	 1.2772537087	 0.0305374482	-0.299633
N	 0.9057087069	 1.0149693008	-0.0243598018	-0.380485
C	-0.0267881948	-0.1068212908	 0.034612379	 0.347656
C	-0.0490847363	-1.1717946927	 1.136855923	-0.319515
C	-0.415639896	-2.2414757835	 0.0613902196	-0.038922
C	-1.890498791	-2.6588226181	-0.0485793188	-0.231267
C	-2.5249100877	-1.514975818	-0.86125794	-0.089166
O	-1.5059456065	-1.0732148939	-1.7568451931	-0.250861
C	-0.2781573246	-1.1590163409	-1.0627311098	 0.014044
H	-0.8907319546	 1.7299668128	 0.9568998373	 0.115974
H	-1.0553494064	 1.6185446943	-0.8671630334	 0.122715
H	 1.2421088413	 1.1346161505	-0.9782243366	 0.22947
H	 0.9288608592	-1.330449783	 1.5979918988	 0.113126
H	-0.7892979056	-1.0236861461	 1.9291332033	 0.097818
H	 0.2647733137	-3.0915686658	 0.0110880577	 0.075838
H	-1.9701611872	-3.5977051704	-0.6048956252	 0.108001
H	-2.3734885636	-2.7990857582	 0.9225745746	 0.10288
H	-3.385303258	-1.8214967546	-1.4610889486	 0.108674
H	-2.8399014739	-0.693205289	-0.200770516	 0.097275
H	 0.5211160517	-1.2667567523	-1.801933128	 0.076376
75.6717	180.0033	254.678	270.9174	328.0145	374.1098	483.1575	536.6106	644.3427	706.227	780.6999	819.6825	854.0124	862.738	895.9224	909.3518	935.0833	950.376	972.6467	978.8736	988.44	1046.9341	1064.2679	1097.9442	1113.7605	1136.2976	1153.2374	1169.1189	1219.0188	1235.4606	1252.774	1257.8813	1267.3161	1293.0004	1310.5513	1330.377	1347.1316	1391.7023	1409.1385	1478.0754	1486.9905	1510.236	1522.0228	2993.7528	3050.9236	3053.1225	3067.3428	3095.027	3100.0288	3102.7122	3104.3363	3114.2152	3190.0329	3477.4075
C1NC11CC2CCOC12	C1N[C@]21C[C@H]1CCO[C@@H]21	
InChI=1S/C7H11NO/c1-2-9-6-5(1)3-7(6)4-8-7/h5-6,8H,1-4H2	InChI=1S/C7H11NO/c1-2-9-6-5(1)3-7(6)4-8-7/h5-6,8H,1-4H2/t5-,6-,7+/m1/s1
