17
gdb 46928	3.41257	1.40711	1.10242	5.9195	68.62	-0.2727	0.0377	0.3104	1078.1096	0.13782	-458.981318	-458.973851	-458.972907	-459.01367	28.526	
O	-0.0113685324	 0.2495951165	-0.7649388007	-0.345686
C	-0.0139360568	 1.1817680429	-0.0171645504	 0.468897
O	-1.2011038488	 1.6763583868	 0.4098019613	-0.265475
C	-1.4184175978	 2.7886800049	 1.2968306209	-0.090471
C	-0.7974921732	 4.0638854765	 0.7960980667	-0.02646
C	-0.0414861139	 4.9561977397	 1.7480344339	-0.318553
C	 0.7124968164	 4.0844857606	 0.7756275407	-0.026454
C	 1.3813222365	 2.8268676119	 1.2588421317	-0.090475
O	 1.1704477514	 1.7087338555	 0.3775861469	-0.265473
H	-2.507111761	 2.8671247567	 1.340412945	 0.130862
H	-1.0728739016	 2.535033889	 2.3036281028	 0.114919
H	-1.3112770398	 4.5346761906	-0.0352103971	 0.108724
H	-0.0585428514	 6.0237497106	 1.5637912761	 0.129358
H	-0.0235693038	 4.6875892677	 2.7997101594	 0.121783
H	 1.1905189304	 4.5688209009	-0.0691254723	 0.108724
H	 2.4682532411	 2.9349903046	 1.2729159045	 0.130862
H	 1.0702539444	 2.5642375245	 2.2745388605	 0.11492
76.6474	110.2553	253.3618	280.6494	338.334	396.2848	441.1469	511.579	637.1062	683.9275	761.8359	762.5301	818.0206	830.487	870.2018	954.4243	972.9048	1011.0979	1021.4921	1048.6736	1071.7497	1134.9798	1141.2584	1157.8866	1183.6916	1190.1667	1224.9045	1285.455	1286.3438	1372.9481	1393.2435	1430.2415	1436.7681	1493.3437	1502.9539	1529.2896	1860.0751	3044.9336	3065.7172	3103.2556	3108.6962	3135.2861	3164.83	3173.2193	3223.79
O=C1OCC2CC2CO1	O=C1OC[C@H]2C[C@H]2CO1	
InChI=1S/C6H8O3/c7-6-8-2-4-1-5(4)3-9-6/h4-5H,1-3H2	InChI=1S/C6H8O3/c7-6-8-2-4-1-5(4)3-9-6/h4-5H,1-3H2/t4-,5+
