20
gdb 80591	3.59727	1.05458	0.9874	3.0914	79.93	-0.2361	-0.0127	0.2234	1294.2551	0.16917	-403.117921	-403.108635	-403.107691	-403.152802	33.949	
C	-0.1832203504	 1.4768579589	 0.0407469506	-0.316607
N	 0.1350709753	 0.0592085041	-0.0017632081	-0.084711
C	 1.4612391516	-0.4540193177	-0.2491213214	-0.030083
C	 2.5791256317	 0.3661523988	 0.4218495009	-0.271249
C	 1.8492862281	 0.1745513301	 1.8058378723	-0.125643
C	 0.7711045424	-0.6549900644	 1.0789960864	-0.042293
C	 2.7000518644	-0.6101474921	 2.7832323683	 0.366438
C	 3.6169710416	 0.2080777056	 3.6761425024	-0.480174
O	 2.6620891031	-1.819345288	 2.8381003139	-0.301514
H	 0.5890711023	 2.1210400317	 0.4856087974	 0.10264
H	-0.3629603187	 1.8243327143	-0.9812887178	 0.125173
H	-1.1073599774	 1.6121558169	 0.61115803	 0.126031
H	 1.605929594	-1.1476576424	-1.0701065965	 0.097263
H	 3.5367579468	-0.1591026277	 0.3912113633	 0.120828
H	 2.7286104154	 1.3938686421	 0.0780683933	 0.104415
H	 1.5065078437	 1.1026258135	 2.2753839686	 0.079177
H	 0.2989874673	-1.5387902585	 1.4900684996	 0.109566
H	 3.0161871497	 0.7739654011	 4.398252293	 0.142271
H	 4.3000590265	-0.4498396867	 4.2146804527	 0.141952
H	 4.1819180127	 0.9416086904	 3.0907034611	 0.13652
33.277	109.7829	131.7995	155.4547	182.4837	251.7496	292.4372	349.1114	418.5077	533.8479	587.7425	590.7752	722.751	751.0355	822.7192	851.3447	900.4827	929.2699	948.8528	963.9477	996.6718	1021.5885	1050.1877	1074.7275	1088.5534	1138.6566	1165.6113	1182.705	1187.5408	1219.6205	1232.7664	1263.8373	1278.3138	1353.321	1383.9266	1387.2495	1451.7006	1463.4164	1475.4355	1476.3628	1497.857	1501.3615	1801.9146	2996.5794	3033.7095	3049.602	3056.0504	3072.7	3094.8435	3106.4212	3110.583	3151.1902	3170.5586	3194.0628
CN1C2CC(C12)C(C)=O	CN1[C@H]2C[C@@H]([C@@H]12)C(=O)C	
InChI=1S/C7H11NO/c1-4(9)5-3-6-7(5)8(6)2/h5-7H,3H2,1-2H3	InChI=1S/C7H11NO/c1-4(9)5-3-6-7(5)8(6)2/h5-7H,3H2,1-2H3/t5-,6+,7-,8?/m1/s1
