20
gdb 116566	3.41104	0.80995	0.71598	0.9006	79.85	-0.252	0.0244	0.2764	1642.7035	0.169822	-440.28196	-440.272193	-440.271249	-440.318055	34.858	
C	 0.3544702908	 1.4909006278	-0.4187241906	-0.359648
C	-0.1244649866	 0.0941202999	-0.0214290866	-0.149071
N	 0.6479639929	-0.4011161055	 1.1154741828	-0.326021
C	 0.0568477158	-0.8573095703	 2.1153777298	 0.465346
C	 0.4878057185	-1.4347020491	 3.4466409097	-0.412284
C	-1.0270577313	-1.568284673	 3.7026280671	 0.113286
C	-1.6528332604	-0.6899732059	 4.7672152888	-0.066356
O	-3.0563716693	-0.6323547666	 4.6233913492	-0.417255
O	-1.3056402905	-1.0113572069	 2.3697855819	-0.293311
H	 1.4274918152	 1.4822411416	-0.629922329	 0.125658
H	-0.1751020447	 1.8409620373	-1.310461787	 0.108881
H	 0.1759342004	 2.2081619936	 0.3884938794	 0.115787
H	-1.2041117026	 0.1038905189	 0.1779142783	 0.105277
H	 0.0424174337	-0.5955095951	-0.858836092	 0.109699
H	 1.0457564167	-2.3697233385	 3.3800050137	 0.139487
H	 1.0201636505	-0.7387026564	 4.0989797873	 0.135213
H	-1.416122967	-2.5887155244	 3.7579646807	 0.101727
H	-1.4483606505	-1.1083486429	 5.7592097747	 0.116956
H	-1.19543106	 0.3122003343	 4.7236912142	 0.091849
H	-3.2276972513	-0.3292050288	 3.7238172176	 0.294779
31.1197	68.1573	103.6737	148.074	173.0121	235.2167	279.1558	342.3504	409.2248	436.4784	463.9297	536.7062	575.9811	717.6355	804.6494	834.1052	886.7381	902.9752	950.1938	988.6604	1032.3369	1067.169	1077.5268	1101.2632	1106.9757	1125.1293	1161.6234	1178.979	1225.5044	1242.1218	1299.0337	1304.2408	1347.4089	1382.117	1398.6524	1406.92	1434.4733	1467.051	1488.8651	1492.8492	1493.9424	1510.1901	1846.8643	2973.8639	3010.6398	3038.6228	3046.3577	3067.6434	3081.0613	3084.4963	3109.3427	3119.1966	3137.7277	3794.8381
CCN=C1CC(CO)O1	CCN=C1C[C@@H](CO)O1	
InChI=1S/C6H11NO2/c1-2-7-6-3-5(4-8)9-6/h5,8H,2-4H2,1H3	InChI=1S/C6H11NO2/c1-2-7-6-3-5(4-8)9-6/h5,8H,2-4H2,1H3/t5-/m0/s1
