14
gdb 35457	2.54088	1.42085	1.10656	3.4855	71.38	-0.2878	-0.0282	0.2597	1078.3545	0.10191	-395.702438	-395.694826	-395.693882	-395.734924	27.884	
N	-0.0363050159	-1.234964396	 0.0446377555	-0.313144
C	-0.0079943913	-0.0801138913	 0.0071987421	 0.283023
C	 0.0357772916	 1.3743041698	 0.0080427165	-0.235857
C	-0.1732116832	 2.1347271015	 1.3573656795	-0.173011
N	 1.1453176354	 2.8480317455	 1.238210288	-0.139807
C	 2.170269798	 1.8003306521	 1.2295805926	-0.271714
C	 1.4249428189	 2.041091313	-0.0300123207	 0.19654
C	 2.009092861	 2.5952030264	-1.2124284482	 0.22158
N	 2.4639919833	 3.0205471557	-2.1869733818	-0.322399
H	-0.6174850573	 1.764789332	-0.7737214138	 0.157076
H	-0.996324927	 2.8470662511	 1.3166731856	 0.145562
H	-0.2570723835	 1.5160244104	 2.253594468	 0.142197
H	 3.1802622548	 2.1924587915	 1.2771847431	 0.160462
H	 2.002262275	 0.8715607183	 1.7707426636	 0.149492
94.3557	130.8907	164.347	219.8794	320.7051	440.7545	482.3295	495.2676	546.4229	566.824	662.7648	730.9955	788.3199	845.8119	873.4682	980.0286	1006.5469	1047.7878	1070.5087	1115.894	1140.5082	1190.1249	1204.7776	1225.5785	1304.4062	1318.2093	1378.6708	1490.5621	1508.4031	2353.7029	2359.3346	3080.9987	3108.5241	3113.9559	3152.0218	3219.7806
N#CC1CN2CC12C#N	N#C[C@H]1CN2C[C@@]12C#N	
InChI=1S/C6H5N3/c7-1-5-2-9-4-6(5,9)3-8/h5H,2,4H2	InChI=1S/C6H5N3/c7-1-5-2-9-4-6(5,9)3-8/h5H,2,4H2/t5-,6-,9?/m0/s1
