22
gdb 59141	3.07363	1.20089	1.09461	1.6142	85.44	-0.2175	0.0672	0.2847	1239.9759	0.194006	-367.116867	-367.108098	-367.107154	-367.150072	34.653	
C	 0.2199684845	 0.733573092	 1.4153468035	-0.403993
C	 0.21347865	-0.0622878108	 0.0996525875	-0.023279
C	 1.2024677854	-1.234746742	 0.1617225015	-0.379078
C	-1.2125921191	-0.5492241716	-0.1766728785	 0.032579
C	-2.2939721619	 0.0269374769	-1.0455941862	-0.130299
C	-1.9128722541	 0.2058743807	-2.5305589922	-0.035451
C	-0.5734780529	-0.2658989135	-2.9554395018	-0.247523
N	-1.6302743626	-1.2614648333	-2.7110238005	-0.141431
C	-1.8795296579	-1.4245194924	-1.2251452155	-0.061437
H	 1.2119214925	 1.1508938542	 1.6162601491	 0.110504
H	-0.4949928652	 1.5617897052	 1.3796626073	 0.116308
H	-0.0498617978	 0.0927868005	 2.2634812637	 0.112027
H	 0.5303507521	 0.6315689014	-0.6833182245	 0.08518
H	 1.2368686801	-1.7838005094	-0.7844436489	 0.121884
H	 2.2148493745	-0.886369463	 0.3922228498	 0.109372
H	 0.9095138301	-1.9462460921	 0.9425913318	 0.112369
H	-1.670798222	-0.8570864604	 0.7676332779	 0.090577
H	-3.2240961684	 0.4243722657	-0.6591555768	 0.091239
H	-2.5770980665	 0.7168718838	-3.2207441318	 0.098339
H	-0.3548286988	-0.1696904156	-4.016530363	 0.119272
H	 0.2990779672	-0.2278829528	-2.3221839107	 0.124423
H	-2.395844609	-2.3337309634	-0.9417521616	 0.098419
77.8083	128.5914	186.6386	236.6358	261.5053	300.3984	324.5733	374.8344	430.8866	544.339	633.627	679.3219	717.0845	736.8757	753.0091	863.3204	879.6214	898.1604	933.5717	935.77	943.9579	968.5764	1010.5059	1018.4293	1057.2612	1075.1727	1093.0799	1111.0324	1114.5443	1140.8119	1149.0099	1186.8226	1220.329	1251.3834	1281.3367	1320.2829	1339.0758	1358.2252	1370.3338	1397.8037	1417.2455	1451.7776	1487.8673	1491.3207	1499.7453	1505.9036	1510.4328	3023.8344	3028.8064	3056.7028	3069.9749	3089.8374	3099.7146	3102.8306	3104.6815	3128.0073	3154.8415	3177.5462	3189.7728	3263.2574
CC(C)C1C2C3CN3C12	CC(C)[C@H]1[C@H]2[C@H]3CN3[C@@H]12	
InChI=1S/C8H13N/c1-4(2)6-7-5-3-9(5)8(6)7/h4-8H,3H2,1-2H3	InChI=1S/C8H13N/c1-4(2)6-7-5-3-9(5)8(6)7/h4-8H,3H2,1-2H3/t5-,6+,7-,8+,9?/m1/s1
