19
gdb 81743	3.15512	1.23231	1.06552	1.8266	83.87	-0.2306	0.0419	0.2725	1194.5749	0.157149	-385.830664	-385.821375	-385.820431	-385.864263	35.419	
C	-0.1562959671	 1.5857421558	-0.0637347386	-0.410825
C	 0.041267595	 0.0754495653	-0.0500845172	-0.01666
C	 0.7346141672	-0.5991259042	-1.239198641	-0.126291
C	 2.1724063947	-0.2007484766	-1.3373368655	-0.328444
C	 1.7937958498	-1.2359516355	-0.2987690002	 0.246398
C	 2.3231383018	-2.5558550502	-0.2810646176	 0.1296
C	 2.7577742176	-3.6782528835	-0.2447876316	-0.402101
C	 1.1473678521	-0.5330936287	 0.8991929225	 0.008563
O	 2.0293994539	 0.3544211034	 1.5495542536	-0.426108
H	 0.7840368972	 2.1181808407	-0.226145065	 0.128214
H	-0.8542976456	 1.8787866194	-0.8550842988	 0.117063
H	-0.5734175657	 1.9344859189	 0.8881612118	 0.105268
H	-0.9131759607	-0.4192379677	 0.15674043	 0.074303
H	 0.2269645229	-1.0958830018	-2.0569182078	 0.099547
H	 2.7100852895	-0.604274061	-2.1880399683	 0.126227
H	 2.5150548777	 0.7736586243	-1.0056949839	 0.130357
H	 3.1482320661	-4.6647752879	-0.2159513049	 0.180283
H	 0.7212606381	-1.256832437	 1.6036608627	 0.078664
H	 1.5788025556	 0.7224735963	 2.3163372897	 0.285941
91.6334	134.217	165.7298	184.7626	217.0931	250.6963	287.8824	375.	447.5802	497.1808	522.4524	558.6059	593.0818	645.2943	653.9783	700.7853	792.816	830.9411	859.8777	956.112	963.2561	980.3134	1016.4173	1051.2952	1084.7576	1098.8047	1139.1751	1148.8366	1180.9558	1216.4077	1249.4141	1284.0307	1315.692	1364.0803	1374.3336	1410.663	1429.3147	1486.4098	1491.9556	1499.93	2230.7506	3029.4453	3031.6141	3054.5988	3090.6679	3119.3259	3135.8769	3190.0385	3223.983	3504.8268	3817.5601
CC1C2CC2(C#C)C1O	C[C@H]1[C@H]2C[C@@]2(C#C)[C@H]1O	
InChI=1S/C8H10O/c1-3-8-4-6(8)5(2)7(8)9/h1,5-7,9H,4H2,2H3	InChI=1S/C8H10O/c1-3-8-4-6(8)5(2)7(8)9/h1,5-7,9H,4H2,2H3/t5-,6+,7-,8+/m0/s1
