16
gdb 69197	2.38416	1.58773	1.12892	6.2972	72.09	-0.2563	-0.0316	0.2248	1089.5014	0.122919	-437.90398	-437.895631	-437.894687	-437.937148	30.424	
C	 0.0939128599	 1.5625700999	 0.0964269097	-0.487316
C	 0.093296169	 0.0667129378	 0.0224254683	 0.355108
C	-0.8984759799	-0.8758394855	 0.6248856735	-0.32178
C	 0.5771486566	-0.9721661281	 1.0288366324	-0.281893
C	 1.3593949469	-1.6118613777	-0.0996909803	 0.454181
O	 2.1335384116	-2.5069100885	-0.223281746	-0.312839
N	 0.8421104833	-0.6523515541	-1.0330030064	-0.171847
C	 0.6696120728	-0.6418647252	-2.4024215417	 0.14061
O	 1.193732406	-1.3994790274	-3.1770318046	-0.275676
H	 1.1098682844	 1.9571817908	 0.0008616354	 0.142995
H	-0.521171931	 2.0030285695	-0.6955471681	 0.13854
H	-0.3187981843	 1.8914115501	 1.0542288327	 0.137338
H	-1.5415646358	-0.4680962074	 1.3996412964	 0.134288
H	-1.3488432662	-1.6593168892	 0.0235747225	 0.137842
H	 0.9134018843	-0.8454194483	 2.0476177824	 0.130033
H	-0.0063610376	 0.1821460434	-2.7117401861	 0.080418
81.0246	144.0827	161.7938	207.4498	222.5579	268.5358	350.7644	464.2502	476.2402	521.1778	624.2292	697.7299	745.1079	828.7723	865.254	913.8946	969.9465	983.526	1011.7788	1031.7402	1063.3346	1072.9582	1102.3102	1135.4142	1223.2087	1241.9485	1345.8538	1388.0875	1424.7029	1436.1937	1481.691	1490.6338	1500.6414	1807.6959	1925.5263	2917.8218	3038.4416	3102.6914	3120.4826	3122.6127	3211.5913	3231.6874
CC12CC1C(=O)N2C=O	C[C@]12C[C@H]1C(=O)N2C=O	
InChI=1S/C6H7NO2/c1-6-2-4(6)5(9)7(6)3-8/h3-4H,2H2,1H3	InChI=1S/C6H7NO2/c1-6-2-4(6)5(9)7(6)3-8/h3-4H,2H2,1H3/t4-,6-/m0/s1
