14
gdb 48372	2.75409	1.27048	1.05385	5.3276	75.23	-0.2736	-0.0569	0.2166	1131.0881	0.098136	-399.521374	-399.512606	-399.511662	-399.554982	31.416	
O	-0.3036668923	 0.408159957	-0.7572316398	-0.238851
C	 0.0811485289	 1.0948682954	 0.1517485205	 0.092953
C	 1.3405216007	 1.9255408535	 0.0853381719	 0.034717
C	 2.3249226944	 1.5512938647	-1.0101745175	-0.304284
C	 1.5322456819	 2.807997897	-1.1889210113	-0.207646
C	 0.4948587493	 2.9134196715	-2.1769039397	 0.316909
N	-0.3217430491	 3.0505766823	-2.9837458186	-0.325301
C	 1.8073765987	 2.4688690037	 1.3269299687	 0.21032
C	 2.1679962359	 2.9047966204	 2.3877729453	-0.377127
H	-0.4628576455	 1.1689916037	 1.1137656597	 0.109207
H	 3.3793165985	 1.6507024185	-0.7866461591	 0.150385
H	 2.0268974937	 0.6961844464	-1.6055121641	 0.171642
H	 2.0416228269	 3.74361201	-0.9859762406	 0.158945
H	 2.4947093479	 3.291958276	 3.3216604346	 0.20813
100.2623	112.3929	128.2224	157.3018	226.8814	278.7977	313.8088	466.5479	509.3647	527.2477	549.4983	568.6464	613.171	674.9903	742.7915	769.7737	856.7716	931.2198	976.2533	1040.7737	1061.9051	1109.3927	1134.4243	1243.0646	1268.9062	1376.3019	1418.9918	1463.2072	1820.0798	2240.0075	2360.2944	2944.3191	3153.5627	3181.0458	3257.7558	3498.5331
O=CC1(CC1C#N)C#C	O=C[C@]1(C[C@H]1C#N)C#C	
InChI=1S/C7H5NO/c1-2-7(5-9)3-6(7)4-8/h1,5-6H,3H2	InChI=1S/C7H5NO/c1-2-7(5-9)3-6(7)4-8/h1,5-6H,3H2/t6-,7+/m0/s1
