19
gdb 72559	2.33777	1.909	1.47543	2.3908	73.86	-0.2305	-0.0165	0.2141	978.5193	0.160312	-423.070309	-423.06253	-423.061585	-423.10232	30.841	
C	-0.0890192982	 1.4922633326	 0.0330625864	-0.483669
C	 0.0082278614	-0.0106767948	-0.018959229	 0.276443
C	 0.6841096042	-0.6502439471	-1.2680472602	-0.265162
C	 0.0664429777	-2.0784884049	-1.2689049697	-0.222054
C	-0.826432146	-2.019747849	-0.0077174522	 0.063375
C	 0.0410710153	-2.0713288927	 1.2638489188	-0.339625
C	 0.6839179719	-0.6770925801	 1.1966709701	 0.399109
O	 1.5292783737	-0.2091137833	 1.9112292767	-0.326997
O	-1.2793296193	-0.6547157698	-0.0018344485	-0.29186
H	 0.9096536824	 1.9165879923	 0.1675940698	 0.139504
H	-0.5255068939	 1.8904402774	-0.886870547	 0.121496
H	-0.7064400312	 1.8059845972	 0.878877873	 0.133301
H	 0.3987967113	-0.0870311904	-2.1601098486	 0.112625
H	 1.7750564136	-0.6450822882	-1.2000566738	 0.118085
H	-0.5419914581	-2.2466871529	-2.1598778853	 0.111914
H	 0.8141536568	-2.8738995757	-1.2160838023	 0.104885
H	-1.6882347476	-2.6862211924	-0.0108555304	 0.08501
H	-0.5825003542	-2.1446043903	 2.160542905	 0.137303
H	 0.7949060303	-2.8613951178	 1.3017677273	 0.126315
105.8446	168.6858	199.3577	265.5793	309.3524	358.7986	466.2407	512.835	560.0524	608.3505	632.9554	695.5421	797.0266	829.0068	846.1682	860.7912	885.1731	924.0459	959.454	979.2471	996.9662	1044.0514	1073.1351	1094.4803	1134.554	1167.2847	1211.4183	1216.0083	1238.2888	1264.4158	1308.0773	1329.1631	1335.6173	1349.4598	1412.576	1444.7097	1477.7491	1485.7292	1494.141	1504.2077	1860.0067	3048.9163	3061.1938	3061.701	3071.7076	3102.7974	3114.5754	3121.0969	3124.5636	3127.4258	3128.1544
CC12CCC(CC1=O)O2	C[C@@]12CC[C@@H](CC1=O)O2	
InChI=1S/C7H10O2/c1-7-3-2-5(9-7)4-6(7)8/h5H,2-4H2,1H3	InChI=1S/C7H10O2/c1-7-3-2-5(9-7)4-6(7)8/h5H,2-4H2,1H3/t5-,7+/m0/s1
