20
gdb 89095	4.24526	0.65782	0.61228	4.5731	81.58	-0.2365	0.019	0.2555	1809.4354	0.170408	-399.289509	-399.279635	-399.27869	-399.325454	34.958	
C	-0.3252579472	 1.4234615331	 0.0308041382	-0.320745
N	-0.0020720177	 0.0062108671	 0.0918247072	-0.073887
C	 1.3639997124	-0.3882108762	-0.2213334426	-0.2602
C	 0.8415323074	-0.5258489504	 1.1680811074	 0.003558
C	 1.4026179112	 0.3155786889	 2.2910503596	-0.161335
N	 0.4364868103	 0.4156030896	 3.3839828546	-0.300579
C	 0.9298017528	 1.2116847337	 4.4992878483	-0.259275
C	-0.0752114088	 1.3181341347	 5.5606494813	 0.257803
N	-0.8733678003	 1.424193998	 6.3885583212	-0.295808
H	 0.494127735	 2.1017378312	 0.3176085268	 0.10057
H	-0.6104227154	 1.6686851229	-0.9970413595	 0.132055
H	-1.1888084083	 1.6312865083	 0.6723733209	 0.121563
H	 1.4828709729	-1.2595818324	-0.8599190373	 0.119716
H	 2.0931329594	 0.4037942097	-0.3966090012	 0.104765
H	 0.5185289934	-1.5095767048	 1.5041469903	 0.105181
H	 2.2987438791	-0.1841137582	 2.6835911758	 0.115488
H	 1.737640397	 1.2992214447	 1.9186124093	 0.086235
H	-0.4365174982	 0.8050865611	 3.0432682275	 0.237041
H	 1.8194330177	 0.7214798733	 4.9152030034	 0.157205
H	 1.2415893973	 2.236948566	 4.2244587985	 0.130649
42.3779	82.8874	98.1282	125.7957	174.9225	229.0242	285.8428	340.6875	353.4376	393.703	428.5629	521.0118	583.3077	745.8263	761.5688	798.9027	911.223	945.08	978.6431	1004.232	1039.8333	1074.4743	1110.4515	1120.1699	1131.4699	1146.0408	1161.8146	1183.6182	1203.7053	1232.1726	1286.8329	1327.7682	1337.688	1387.8851	1439.5348	1451.2857	1486.4482	1489.7018	1492.5208	1497.8621	1512.6262	1521.0735	2369.2045	2930.6413	2948.9916	2976.6757	3027.963	3043.8249	3061.1349	3081.5785	3097.1296	3124.2937	3171.9083	3527.042
CN1CC1CNCC#N	CN1C[C@H]1CNCC#N	
InChI=1S/C6H11N3/c1-9-5-6(9)4-8-3-2-7/h6,8H,3-5H2,1H3	InChI=1S/C6H11N3/c1-9-5-6(9)4-8-3-2-7/h6,8H,3-5H2,1H3/t6-,9?/m1/s1
