23
gdb 123171	7.94694	0.46082	0.45298	1.9551	84.92	-0.2438	0.0879	0.3317	2468.3682	0.20326	-425.388468	-425.377623	-425.376678	-425.426162	37.58	
C	 0.0425952575	 1.2539074279	-0.2255632011	-0.227786
O	-0.0540221568	-0.0841912106	 0.1954907999	-0.228937
C	-1.2925513295	-0.67437726	-0.1314333395	-0.050158
C	-1.2852096342	-2.1143793886	 0.3627756143	-0.212261
C	-2.5844759155	-2.8430960024	 0.0495298829	-0.058276
O	-2.484581177	-4.1626944361	 0.5563885463	-0.248815
C	-3.6256150087	-4.9270270711	 0.3319803051	 0.149992
C	-3.7910316316	-5.6374324509	-0.9889850811	-0.28803
C	-3.432216076	-6.4058931372	 0.2693747758	-0.287085
H	 1.0289656255	 1.620532238	 0.0692797137	 0.126788
H	-0.0589702583	 1.3482888423	-1.3188650847	 0.101566
H	-0.7266693666	 1.8885350962	 0.2435446145	 0.101664
H	-2.1205024864	-0.108886813	 0.3325250916	 0.083064
H	-1.4564830446	-0.6393445575	-1.2234439008	 0.082789
H	-0.4489248917	-2.6500078909	-0.0985878655	 0.115501
H	-1.1156442329	-2.1250008258	 1.4444587578	 0.117085
H	-3.4414493819	-2.3241112522	 0.5120826461	 0.084985
H	-2.7701344843	-2.8659187701	-1.0365062992	 0.089199
H	-4.5249801464	-4.542518156	 0.816360735	 0.0803
H	-4.7863876828	-5.7473150332	-1.4053465311	 0.111018
H	-3.0019601793	-5.5004357622	-1.719971875	 0.118284
H	-2.4114095782	-6.7598279189	 0.3557166936	 0.125985
H	-4.1785788802	-7.0462715976	 0.7253645613	 0.113125
42.2714	54.145	84.2038	96.1799	120.8508	149.0704	205.2897	233.1949	276.898	354.9168	415.3587	488.5249	522.7008	758.4722	779.082	816.8194	833.6964	890.3348	956.0857	975.4067	989.898	1047.5798	1063.1227	1070.9863	1084.7929	1112.1696	1129.3863	1166.509	1169.9904	1192.9145	1194.0649	1206.1643	1228.4628	1236.5474	1245.2929	1297.1795	1301.0797	1303.2368	1380.2348	1428.104	1442.644	1451.9973	1481.8642	1485.1236	1497.9545	1498.3665	1506.0586	1525.4951	1536.1025	2935.8919	2956.4393	2960.3021	2966.7653	2987.662	3007.4682	3052.4336	3083.7807	3098.5428	3112.4647	3134.826	3142.488	3219.7481	3235.09
COCCCOC1CC1	COCCCOC1CC1	
InChI=1S/C7H14O2/c1-8-5-2-6-9-7-3-4-7/h7H,2-6H2,1H3	InChI=1S/C7H14O2/c1-8-5-2-6-9-7-3-4-7/h7H,2-6H2,1H3
