12
gdb 19328	5.41316	1.69761	1.52265	3.1165	61.24	-0.2473	-0.0017	0.2456	800.7402	0.081167	-381.198712	-381.192351	-381.191407	-381.229025	24.768	
C	 0.0032482599	-1.1930213935	-0.1078113108	-0.361893
C	 0.0554629937	 0.006740208	-0.038372598	 0.163349
C	 0.0721293778	 1.4154813342	 0.1075441053	 0.311479
O	 0.2176006535	 2.2849624911	-1.0244863909	-0.254593
C	 1.1457789142	 2.4252538265	 0.0389222218	-0.116769
C	 0.456480839	 3.2459008254	 1.2004544959	-0.010284
O	-0.8692989028	 3.566420687	 0.7808957347	-0.20264
C	-0.617620803	 2.2596497657	 1.2720358889	-0.096896
H	-0.0337691415	-2.251793861	-0.1837205678	 0.195745
H	 2.2031267494	 2.3160927296	-0.1678652235	 0.12886
H	 0.9299029384	 3.8572485201	 1.9572549491	 0.122285
H	-1.2063545386	 1.8715815269	 2.0931652851	 0.121357
152.2919	155.5148	385.2998	410.3875	467.9379	517.1195	573.2042	607.1511	677.1014	695.7981	767.601	797.7052	820.7165	854.2263	895.151	925.3547	987.7462	993.5036	1029.2433	1106.9411	1196.346	1212.8444	1253.1519	1366.2203	1419.2637	2239.1141	3198.896	3204.1583	3217.248	3500.958
C#CC12OC1C1OC21	C#C[C@]12O[C@H]1[C@H]1O[C@@H]21	
InChI=1S/C6H4O2/c1-2-6-4-3(7-4)5(6)8-6/h1,3-5H	InChI=1S/C6H4O2/c1-2-6-4-3(7-4)5(6)8-6/h1,3-5H/t3-,4+,5-,6+/m0/s1
