17
gdb 51807	4.37384	0.95565	0.85852	5.1296	69.85	-0.2725	0.0062	0.2786	1321.1423	0.136034	-458.975947	-458.967997	-458.967052	-459.009718	29.01	
O	-0.0184524802	-0.0149568248	-0.137496074	-0.272747
C	-0.0015585686	 1.1779574944	-0.1623408417	 0.167171
O	 1.0720179748	 1.9020680329	 0.2049833406	-0.189405
C	 0.9852534831	 3.3303483997	 0.151760465	 0.119094
C	 1.1304442526	 3.9576111519	 1.5538153012	-0.257942
C	 1.7589988403	 5.3489775297	 1.311477656	-0.24688
C	 2.5630861282	 5.1592101181	 0.03688319	 0.049171
O	 3.3622936573	 3.9706144956	 0.0480061555	-0.247431
C	 2.1159368074	 3.9413066452	-0.6518737612	 0.0236
H	-0.8539310469	 1.8085485518	-0.4867461984	 0.074975
H	 0.032211872	 3.6140889839	-0.317807424	 0.088734
H	 0.1793016642	 4.0017751331	 2.0881735038	 0.107983
H	 1.8129025347	 3.3272307389	 2.1265073975	 0.145592
H	 0.9922589339	 6.1140479063	 1.1408336039	 0.109565
H	 2.3747143433	 5.6830128334	 2.1516461299	 0.121234
H	 2.9904942215	 6.0060262826	-0.4934356763	 0.102285
H	 2.1755380523	 3.7923575373	-1.7265941979	 0.105002
35.5026	99.6582	145.9271	242.9944	303.2784	355.8762	399.4585	428.0951	651.0214	668.0945	724.8918	824.5379	844.2333	873.2779	913.0852	938.6424	970.2448	1023.1463	1043.3575	1048.0946	1081.5584	1091.0587	1120.3566	1186.0159	1202.052	1225.4664	1261.8036	1303.0043	1323.4947	1329.1863	1343.5574	1386.8019	1437.4158	1441.9317	1481.6408	1493.0352	1869.1689	2933.5046	3004.743	3042.8701	3082.7561	3092.0842	3134.8416	3149.0087	3161.2117
O=COC1CCC2OC12	O=CO[C@H]1CC[C@H]2O[C@@H]12	
InChI=1S/C6H8O3/c7-3-8-4-1-2-5-6(4)9-5/h3-6H,1-2H2	InChI=1S/C6H8O3/c7-3-8-4-1-2-5-6(4)9-5/h3-6H,1-2H2/t4-,5+,6-/m0/s1
