23
gdb 87706	2.31379	1.28717	1.15366	1.4703	85.78	-0.2461	0.0656	0.3117	1251.11	0.204643	-388.273658	-388.263822	-388.262877	-388.308048	37.776	
C	-0.1591463535	 1.5149368999	 0.6195063369	-0.407271
C	-0.12321643	 0.0150409052	 0.4332100325	-0.054599
C	 0.9846958933	-0.6370821226	-0.3615928841	-0.367776
C	 0.9091932625	-0.8435756791	 1.1220496836	 0.320232
C	 1.8810151475	-0.4164428285	 2.2311750427	-0.328622
C	 1.2860807699	-1.5368282832	 3.1429191675	-0.014173
C	 0.3262093374	-1.0324344355	 4.2158109845	-0.412115
C	 0.5859414618	-2.1416547265	 1.8769497672	 0.064621
O	-0.747339991	-2.5844230412	 1.9570198371	-0.426304
H	 0.850934762	 1.9282893944	 0.7042756606	 0.117534
H	-0.6454801821	 2.0045477595	-0.2313306258	 0.119084
H	-0.7092525871	 1.7989545547	 1.5245240262	 0.111671
H	-1.0997743034	-0.4534090106	 0.3237339329	 0.083107
H	 0.7362683128	-1.4744874386	-1.0069123821	 0.111668
H	 1.7738961531	 0.0045425607	-0.7443016161	 0.105101
H	 2.930807164	-0.5820787376	 1.971846246	 0.099271
H	 1.7769317768	 0.6045129298	 2.611099491	 0.096832
H	 2.0271224251	-2.1999598502	 3.5983877825	 0.066694
H	-0.3904339071	-0.3053835611	 3.812872331	 0.10738
H	-0.2429037195	-1.8567964452	 4.6573513511	 0.125079
H	 0.8731353244	-0.5285366486	 5.0191824855	 0.117654
H	 1.1465979462	-2.9945032252	 1.4804830438	 0.085398
H	-1.2836567832	-1.8484882205	 2.2706234556	 0.279534
53.8581	136.4226	183.4685	201.499	231.5218	234.2371	250.1605	323.0519	346.8632	390.575	440.3464	483.9481	538.6234	610.0197	752.2648	793.8878	805.1792	839.6734	892.9687	898.9493	923.2052	936.3198	1005.8533	1047.6144	1049.8542	1080.9862	1096.8432	1108.8582	1127.527	1139.7833	1183.7528	1190.3436	1202.7986	1239.4861	1269.5426	1279.3699	1289.5728	1328.1593	1362.2298	1404.067	1410.9338	1427.7118	1435.772	1486.2276	1488.2447	1493.6363	1497.3928	1502.159	1504.918	3020.004	3024.0494	3043.9046	3049.309	3062.7261	3083.0591	3085.4861	3093.0619	3097.3152	3104.4049	3112.5808	3124.5689	3196.8078	3809.8314
CC1CC11CC(C)C1O	C[C@H]1C[C@]21C[C@@H](C)[C@H]2O	
InChI=1S/C8H14O/c1-5-3-8(7(5)9)4-6(8)2/h5-7,9H,3-4H2,1-2H3	InChI=1S/C8H14O/c1-5-3-8(7(5)9)4-6(8)2/h5-7,9H,3-4H2,1-2H3/t5-,6+,7-,8+/m1/s1
