21
gdb 85982	4.12045	0.95871	0.945	2.4834	79.98	-0.2262	0.0732	0.2994	1356.5019	0.182505	-420.347803	-420.338695	-420.337751	-420.38157	34.855	
C	 0.2263509355	 1.4930993946	-0.0735900229	-0.319433
N	 0.0201458904	 0.074622694	 0.1122893715	-0.090616
C	-1.3081043946	-0.4030444636	 0.5487118266	-0.221153
C	-0.5849242498	-1.534294084	 1.3346411636	 0.388096
O	-0.4140055947	-2.7114942433	 0.5670259254	-0.496726
C	 0.6562542677	-0.595374056	 1.2653434972	-0.225656
C	-1.1211166399	-1.9261485686	 2.6854360389	-0.032019
C	-2.0722335771	-3.0564049807	 2.823158959	-0.243207
N	-0.6881042052	-3.1806101375	 3.3173818529	-0.331992
H	 1.2777550088	 1.6888528986	-0.3091801615	 0.122951
H	-0.378303496	 1.8501271904	-0.9139897295	 0.122542
H	-0.0418186807	 2.0888758005	 0.819742998	 0.092588
H	-1.8262341517	 0.3008767503	 1.2218164924	 0.085694
H	-1.9896163223	-0.7094354159	-0.2520716885	 0.10312
H	-0.0501105604	-2.4429232899	-0.2840517154	 0.292325
H	 1.6277765892	-1.0607892015	 1.0664165858	 0.102957
H	 0.7359294626	 0.0494278873	 2.1564810313	 0.087962
H	-1.2040120353	-1.089528808	 3.3758095992	 0.084353
H	-2.8351878248	-3.0271254074	 3.5959135658	 0.111754
H	-2.3418998794	-3.594706855	 1.9204497017	 0.12454
H	-0.1542141622	-3.7071585244	 2.6284456686	 0.241918
75.071	89.6983	190.9336	243.0054	266.6655	301.6628	324.5033	369.278	376.8384	406.1	426.361	525.3785	660.5683	734.3641	849.7205	876.0944	912.9916	921.2202	967.2175	978.3925	984.4618	1007.5737	1046.7734	1081.6384	1109.5939	1121.9553	1123.9271	1148.963	1175.6247	1203.92	1216.5495	1233.1658	1260.7242	1282.5414	1293.7892	1310.4077	1327.5383	1366.9017	1452.1217	1463.579	1487.1596	1490.8623	1498.7719	1503.5693	1522.1748	2928.4737	2958.5917	2970.3321	3057.3486	3062.242	3064.3708	3099.3264	3116.6447	3130.0447	3209.2821	3495.6936	3807.7504
CN1CC(O)(C1)C1CN1	CN1CC(O)(C1)[C@H]1CN1	
InChI=1S/C6H12N2O/c1-8-3-6(9,4-8)5-2-7-5/h5,7,9H,2-4H2,1H3	InChI=1S/C6H12N2O/c1-8-3-6(9,4-8)5-2-7-5/h5,7,9H,2-4H2,1H3/t5-/m1/s1
