15
gdb 48263	1.73342	1.38655	0.87654	4.0301	72.9	-0.2791	-0.0033	0.2758	1293.7251	0.110757	-416.798365	-416.789048	-416.788104	-416.833822	32.114	
O	-0.2956175137	-0.1757889585	-0.0260756102	-0.323787
C	-0.2408305619	 1.0314836517	-0.0711880686	 0.168368
N	 0.9171950201	 1.7653637141	-0.0584299793	-0.03929
C	 0.9067090621	 3.2236197485	-0.0621245137	-0.345607
C	 1.36525801	 3.803289699	 1.2010336106	 0.31677
C	 1.7615619067	 4.2635555181	 2.2372652843	-0.440784
C	 2.1871282149	 1.0704078846	 0.0633514176	-0.303664
C	 3.0556104354	 1.2985295492	-1.0994410195	 0.269137
N	 3.7364176869	 1.5057562734	-2.0093199945	-0.302922
H	-1.1344358825	 1.6801578958	-0.1324894437	 0.0938
H	 1.5313187075	 3.5909349471	-0.8869006127	 0.168586
H	-0.1178167939	 3.5465527715	-0.2765642602	 0.156121
H	 2.1025842969	 4.6801749521	 3.1533705958	 0.215495
H	 2.716442306	 1.393215709	 0.967865757	 0.169954
H	 1.9554553454	 0.0052971043	 0.1531718773	 0.197823
42.6764	56.9897	102.0637	157.3789	256.841	292.5736	324.2454	339.616	364.4236	379.7135	484.6136	602.4823	638.1483	685.1998	712.5887	862.5649	942.2187	955.294	975.4513	1003.3313	1032.4455	1199.4105	1230.713	1294.3878	1368.4048	1385.3465	1427.1481	1440.6904	1463.6955	1473.5177	1801.13	2241.5968	2363.831	2963.6921	3025.9421	3042.9628	3073.4331	3108.5447	3501.3521
O=CN(CC#C)CC#N	O=CN(CC#C)CC#N	
InChI=1S/C6H6N2O/c1-2-4-8(6-9)5-3-7/h1,6H,4-5H2	InChI=1S/C6H6N2O/c1-2-4-8(6-9)5-3-7/h1,6H,4-5H2
