15
gdb 29337	2.01061	1.87869	0.97713	5.3014	75.95	-0.211	-0.0065	0.2044	1135.8645	0.113233	-416.869735	-416.861058	-416.860114	-416.903347	31.387	
C	-0.0379489502	 1.5080781684	 0.064634122	-0.51431
C	 0.014156851	 0.0196967948	-0.0046326159	 0.239624
C	 0.0098071993	-0.8280998532	-1.1105354882	-0.008643
C	-0.0467358096	-0.4671284226	-2.4721913767	 0.171912
N	-0.0915307197	-0.2297917866	-3.6075903024	-0.379428
C	 0.0744278196	-2.1780619042	-0.6243684803	 0.242492
O	 0.091456819	-3.3100404818	-1.3666774449	-0.437579
C	 0.1161654755	-2.120657896	 0.7428733208	-0.173972
N	 0.0779517979	-0.777428592	 1.0910390688	-0.299633
H	 0.8483355266	 1.9241028477	 0.5580148068	 0.140041
H	-0.0848623091	 1.9237842129	-0.9438381172	 0.163378
H	-0.9194630815	 1.8596674062	 0.6135781695	 0.140091
H	 0.0554615873	-3.0702518676	-2.2999658965	 0.310969
H	 0.1680789603	-2.9015691061	 1.4808627001	 0.135786
H	 0.0967039437	-0.4376505697	 2.0371371942	 0.269272
67.2832	116.7926	136.1195	210.445	266.8278	297.1656	340.1958	418.949	489.9471	534.9281	548.2484	586.9408	620.3112	676.2999	676.6349	733.6259	773.1915	981.6476	1056.9129	1057.5493	1106.0103	1181.9076	1249.1852	1317.9986	1350.6642	1416.9453	1448.8892	1473.1499	1480.7938	1520.5221	1572.9642	1662.3866	2324.7845	3026.5366	3076.0574	3133.677	3290.0999	3677.9247	3803.0217
CC1=C(C#N)C(O)=CN1	Cc1c(C#N)c(O)c[nH]1	
InChI=1S/C6H6N2O/c1-4-5(2-7)6(9)3-8-4/h3,8-9H,1H3	InChI=1S/C6H6N2O/c1-4-5(2-7)6(9)3-8-4/h3,8-9H,1H3
