17
gdb 80606	2.94834	1.4714	1.27836	2.8225	67.63	-0.2404	-0.014	0.2263	1009.8625	0.136873	-458.957135	-458.949446	-458.948502	-458.989205	30.191	
O	-0.1623102006	 1.4436313758	 0.088263885	-0.442068
C	-0.1360453202	 0.0421061871	 0.0525667063	 0.107809
C	-1.5207726094	-0.6068477571	-0.2123293382	-0.163535
C	-1.6926182616	-0.3599685925	-1.7472186621	-0.255185
C	-0.4581456474	-1.3156561973	-1.8936044212	-0.149101
C	 0.6545755525	-0.5070500541	-1.215660001	 0.048524
O	 1.078564134	 0.5615445162	-2.0579938103	-0.430914
C	-1.0798918036	-2.0078601264	-0.6576420311	 0.415358
O	-1.2643021361	-3.1353864442	-0.3091304618	-0.321257
H	 0.1669983869	 1.7345580708	-0.7754385812	 0.286464
H	 0.2947856916	-0.319318102	 0.9925115125	 0.087748
H	-2.3060078744	-0.4283402325	 0.518128697	 0.091942
H	-2.6090877989	-0.7877234857	-2.1541902922	 0.12155
H	-1.5583303553	 0.6666819486	-2.0876894152	 0.121817
H	-0.213587996	-1.8451477187	-2.811372209	 0.090496
H	 1.5092627271	-1.1309198974	-0.9370957104	 0.090242
H	 1.9880738516	 0.7822903195	-1.834920787	 0.300112
114.3244	143.204	204.2682	313.2164	321.8588	334.6647	503.9622	519.6986	527.4567	573.7721	655.4345	758.4039	772.1321	787.6691	796.3152	853.8518	940.9286	975.2142	1006.5269	1017.0188	1039.9815	1078.8488	1089.1005	1104.403	1130.3698	1187.1834	1193.6956	1205.8223	1240.9255	1256.1182	1292.3528	1306.2245	1361.9235	1427.3662	1442.7022	1503.6708	1900.4822	3042.9726	3061.3428	3092.8573	3152.9968	3156.3256	3157.9591	3703.3836	3831.2544
OC1C2CC(C1O)C2=O	O[C@H]1[C@H]2C[C@@H]([C@H]1O)C2=O	
InChI=1S/C6H8O3/c7-4-2-1-3(4)6(9)5(2)8/h2-3,5-6,8-9H,1H2	InChI=1S/C6H8O3/c7-4-2-1-3(4)6(9)5(2)8/h2-3,5-6,8-9H,1H2/t2-,3+,5-,6+
