19
gdb 92127	2.73978	1.62086	1.24023	0.9866	74.81	-0.2303	0.0657	0.2959	1051.5418	0.159014	-422.970578	-422.962648	-422.961703	-423.003027	31.579	
O	 0.2034731903	 1.1348593973	-0.6951208086	-0.429572
C	 0.021367745	-0.097654174	-0.0519113301	 0.13165
C	 0.1053691061	-0.1692382619	 1.5110866898	-0.282977
C	-1.295633803	-0.8126528197	 1.5438388813	 0.107546
O	-2.3426017948	 0.1759436691	 1.707268332	-0.32236
C	-2.5373269821	 0.2395280387	 0.2892460682	 0.454856
C	-3.9087367132	 0.2931626745	-0.2942371405	-0.348241
C	-2.9821264535	 1.4985992186	-0.3951039315	-0.353726
C	-1.4076288062	-0.730370499	-0.0089752744	-0.214971
H	-0.4357220245	 1.7551027685	-0.3275954061	 0.290498
H	 0.7327914762	-0.7820060064	-0.521370633	 0.092983
H	 0.9171346472	-0.8007395312	 1.8815695884	 0.104358
H	 0.1433254619	 0.797567984	 2.0190583502	 0.10978
H	-1.4709031669	-1.7059463559	 2.145739723	 0.081449
H	-4.1146142394	-0.2779042621	-1.1937279582	 0.118009
H	-4.7335207889	 0.3599558905	 0.406838203	 0.126968
H	-3.2109076738	 2.3496971434	 0.2380718768	 0.126896
H	-2.5622266194	 1.7461316338	-1.3642770513	 0.129056
H	-1.6226844508	-1.5640037382	-0.676546339	 0.077798
67.8538	147.7234	238.168	270.8568	333.423	378.0058	413.9427	444.424	492.8006	633.1756	679.7671	758.6156	777.589	827.2268	858.9289	877.5599	903.4626	935.6196	945.7607	973.8922	996.3574	1028.2498	1035.8635	1046.8433	1068.6498	1100.9071	1145.45	1162.2126	1191.5614	1193.7103	1212.4564	1252.4011	1265.547	1288.4689	1316.0333	1329.882	1392.9306	1439.3434	1448.7641	1459.2634	1496.0642	3059.9121	3074.2306	3093.4899	3117.217	3122.5152	3127.6573	3130.2619	3212.373	3226.4743	3805.1285
OC1CC2OC3(CC3)C12	O[C@H]1C[C@H]2OC3(CC3)[C@@H]12	
InChI=1S/C7H10O2/c8-4-3-5-6(4)7(9-5)1-2-7/h4-6,8H,1-3H2	InChI=1S/C7H10O2/c8-4-3-5-6(4)7(9-5)1-2-7/h4-6,8H,1-3H2/t4-,5+,6-/m0/s1
