20
gdb 16368	2.56595	2.05428	1.39044	1.5274	74.85	-0.2512	0.0779	0.3291	973.2088	0.176453	-348.982999	-348.974618	-348.973674	-349.015476	32.399	
C	-0.7894784507	 1.2211869157	-0.0149977902	-0.409297
C	 0.0234497129	-0.0614567583	-0.1093500626	-0.036113
C	 1.3944271801	-0.0182857779	-0.8510238622	-0.280145
C	 1.9985152822	-0.920938332	 0.2611552649	 0.089228
O	 3.2912972017	-0.6594317196	 0.7479680254	-0.431763
C	 0.7762548336	-0.5820599572	 1.1304472288	 0.316485
C	 0.8750393379	 0.0949677291	 2.4701835234	-0.326725
C	 0.2692227275	-1.2853247896	 2.3480469413	-0.334812
H	-0.1858523152	 2.0442688263	 0.3826891724	 0.111278
H	-1.1584420392	 1.5233360834	-1.0012420925	 0.115775
H	-1.6613303685	 1.0991716208	 0.6382241185	 0.113936
H	-0.6019676435	-0.8610961273	-0.5244951886	 0.07307
H	 1.4369837133	-0.3787477021	-1.8813534349	 0.098732
H	 1.8320929388	 0.9861458173	-0.8114665802	 0.089529
H	 2.0072956135	-1.9759636998	-0.0321501153	 0.089373
H	 3.3222264905	 0.2688501882	 1.0045485653	 0.276195
H	 1.8586604895	 0.1716578748	 2.9241781915	 0.110311
H	 0.2141743025	 0.9286045351	 2.6842655179	 0.111646
H	-0.8051025893	-1.3807649259	 2.4751480906	 0.10828
H	 0.8411523226	-2.1272850809	 2.7262928363	 0.115016
72.9305	197.224	209.8017	219.7417	229.1262	316.5263	334.0645	435.6459	471.7187	519.9484	546.0007	680.5263	774.4808	807.7543	867.1695	873.6712	915.03	927.4619	975.7051	984.6783	1045.3882	1066.553	1069.6323	1078.9729	1106.6628	1148.8565	1172.8591	1192.557	1207.8975	1234.7281	1272.8765	1287.2844	1315.4232	1361.7243	1379.1141	1406.8061	1437.4902	1456.7156	1480.8586	1491.8111	1496.3933	1502.6129	3023.1552	3026.6206	3039.2833	3056.7825	3088.175	3095.1578	3108.1711	3117.4448	3120.1322	3195.1042	3209.6746	3801.7877
CC1CC(O)C11CC1	C[C@H]1C[C@@H](O)C21CC2	
InChI=1S/C7H12O/c1-5-4-6(8)7(5)2-3-7/h5-6,8H,2-4H2,1H3	InChI=1S/C7H12O/c1-5-4-6(8)7(5)2-3-7/h5-6,8H,2-4H2,1H3/t5-,6+/m0/s1
