22
gdb 22505	2.53065	0.8456	0.74536	0.6572	82.65	-0.2486	0.0053	0.2539	1664.0833	0.191265	-441.443727	-441.432598	-441.431654	-441.481276	39.093	
C	-0.5830610785	-0.9329567999	-1.0676257224	-0.38285
C	-0.3775632873	-1.0709062945	 0.4309826806	-0.038165
O	 0.7969662522	-0.3556405783	 0.7844492671	-0.239732
C	 1.0885944603	-0.3837067005	 2.1695343909	-0.153291
C	 1.6168264454	-1.7245969575	 2.6302322614	 0.340191
C	 2.8411512545	-2.2896714573	 1.9578928111	-0.269135
C	 4.1281868111	-1.9955811735	 2.7515276607	-0.377513
N	 0.9740048486	-2.2705169542	 3.5913784058	-0.170639
O	 1.5512254834	-3.4887510208	 3.9880535352	-0.396511
H	 0.2678634131	-1.3517975537	-1.612560234	 0.125138
H	-1.4885041531	-1.4630315035	-1.377916881	 0.11502
H	-0.6827739324	 0.1198807917	-1.3465597506	 0.126206
H	-1.2406373047	-0.6635220932	 0.9826888371	 0.089994
H	-0.2869109295	-2.130122621	 0.7150225159	 0.097224
H	 1.8598467116	 0.3823159806	 2.3182908734	 0.111608
H	 0.2114874468	-0.1163084447	 2.7748546539	 0.105837
H	 2.7214663298	-3.3718433656	 1.8545276445	 0.123698
H	 2.9074179749	-1.8588475794	 0.9546339633	 0.116353
H	 4.284386486	-0.9189217491	 2.8747709848	 0.116548
H	 4.0770703655	-2.4493170805	 3.7441041262	 0.138067
H	 5.0002945844	-2.4017252793	 2.2305098575	 0.115817
H	 0.9536553582	-3.7768743057	 4.6859832187	 0.306134
46.0163	53.5887	71.966	87.6074	197.1037	214.6297	230.8203	256.1688	276.6636	322.4274	338.4106	400.0118	427.0502	523.1455	589.1753	714.8055	769.5906	811.5182	818.4662	861.9187	958.9172	985.1441	1008.8207	1034.2787	1085.9813	1098.7404	1133.2735	1141.8831	1186.3423	1244.5946	1286.1968	1295.323	1299.7659	1351.8011	1380.8266	1399.2417	1403.7415	1413.0113	1431.4819	1481.0174	1483.5901	1487.6443	1498.9158	1499.7104	1510.0906	1528.5097	1728.6445	2970.5881	3005.0999	3009.4662	3040.9281	3044.4384	3057.2962	3059.488	3097.6201	3110.4456	3118.8297	3120.8125	3131.1977	3820.905
CCOCC(CC)=NO	CCOCC(=NO)CC	
InChI=1S/C6H13NO2/c1-3-6(7-8)5-9-4-2/h8H,3-5H2,1-2H3	InChI=1S/C6H13NO2/c1-3-6(7-8)5-9-4-2/h8H,3-5H2,1-2H3
