17
gdb 80005	2.84483	1.78744	1.58522	2.3088	71.58	-0.2273	-0.0129	0.2145	904.4296	0.137117	-421.718734	-421.712125	-421.711181	-421.74918	28.296	
O	 0.0639247213	 1.5046529899	-0.0562432782	-0.442573
C	 0.0274909936	 0.1204511169	 0.0042003005	 0.132372
C	 0.1234399201	-0.6348154836	 1.3719701043	-0.182381
C	-1.1457578549	-0.0189464886	 2.045759012	-0.100829
C	-2.114198599	-0.0513380356	 1.1074795034	-0.216434
C	-1.3465622708	-0.7094477004	-0.0280803993	 0.380465
O	-1.6290715896	-1.4491732744	-1.2108574567	-0.353508
C	-0.5566532548	-2.3841532835	-0.8088589833	-0.160459
C	-0.5988620112	-1.8398782389	 0.6597778322	-0.058725
H	-0.5688907201	 1.8329959058	 0.5974006956	 0.273792
H	 0.7367901258	-0.233863315	-0.7443053554	 0.092092
H	 1.0328431598	-0.6935899911	 1.9695890534	 0.069943
H	-1.1864226588	 0.3905994487	 3.0451882211	 0.110738
H	-3.1340615536	 0.3016240547	 1.1446855381	 0.121908
H	-0.8947477368	-3.4179771955	-0.9107809556	 0.119551
H	 0.3493045222	-2.2304275746	-1.400861073	 0.121456
H	-1.1689432933	-2.4917767147	 1.3203078211	 0.092593
249.6579	268.3917	310.3211	365.4179	430.2662	482.9972	547.3513	577.15	591.5635	671.4664	748.7305	776.1019	796.2521	827.5952	868.8074	888.3902	899.1405	916.6579	945.5295	1018.0557	1033.5708	1043.3707	1081.9704	1132.8104	1148.5754	1170.0617	1187.3029	1207.4103	1215.9741	1226.438	1297.8309	1310.7514	1334.7157	1337.952	1460.8438	1511.3198	1563.4993	3055.7873	3106.1221	3113.2066	3123.374	3126.5934	3225.6773	3252.5886	3739.666
OC1C2C=CC11OCC21	O[C@H]1[C@H]2C=C[C@]31OC[C@@H]23	
InChI=1S/C7H8O2/c8-6-4-1-2-7(6)5(4)3-9-7/h1-2,4-6,8H,3H2	InChI=1S/C7H8O2/c8-6-4-1-2-7(6)5(4)3-9-7/h1-2,4-6,8H,3H2/t4-,5-,6-,7-/m0/s1
