18
gdb 104386	2.64352	1.48892	1.18217	1.2621	67.08	-0.2265	-0.0379	0.1886	1077.1979	0.148406	-476.23111	-476.222601	-476.221656	-476.264066	32.524	
O	-0.0952685664	 1.447130359	-0.4018143695	-0.434426
C	 0.0633228768	 0.0582221014	-0.1460273911	-0.136926
C	-1.3069591397	-0.5728898237	 0.0733566012	 0.27661
O	-2.182117452	-0.2356894521	-1.0045169645	-0.477716
C	-1.3973957461	-2.0817103386	 0.2892357655	-0.235846
N	-2.6766587791	-2.3209043054	 0.9940543058	-0.302147
C	-2.8407795406	-1.1881408333	 1.9132196748	-0.277337
C	-1.9990319612	-0.0389677798	 1.3522392796	 0.369089
O	-1.8816616816	 1.0767242385	 1.8046566636	-0.343957
H	-0.50004774	 1.8176157369	 0.3975512086	 0.301125
H	 0.538915515	-0.3733857934	-1.0330322902	 0.117734
H	 0.7159706187	-0.1285047748	 0.7195175096	 0.098586
H	-1.9548911246	 0.6799874093	-1.2274686195	 0.292399
H	-1.368490824	-2.6307415569	-0.6536272311	 0.124519
H	-0.5673245623	-2.4260004605	 0.9202698415	 0.109189
H	-3.4150533497	-2.2745387557	 0.2992053306	 0.237491
H	-3.8867431911	-0.8996435342	 2.0437295832	 0.14224
H	-2.4483238123	-1.4333676867	 2.9108171618	 0.139374
91.4523	163.5045	180.9227	198.173	252.8316	320.3014	369.487	408.4172	501.7828	512.6099	551.336	641.5539	648.3536	699.3727	722.5855	823.7197	888.207	929.8337	939.9398	1027.6768	1028.0923	1068.0529	1095.889	1099.665	1114.8485	1182.8242	1204.6894	1269.3073	1288.5132	1312.5493	1337.3202	1373.8372	1419.9423	1451.8102	1454.7631	1476.3825	1480.2115	1495.0735	1822.6006	2998.9213	3011.5239	3026.0284	3076.5799	3103.	3120.044	3524.8095	3708.4873	3724.7129
OCC1(O)CNCC1=O	OC[C@@]1(O)CNCC1=O	
InChI=1S/C5H9NO3/c7-3-5(9)2-6-1-4(5)8/h6-7,9H,1-3H2	InChI=1S/C5H9NO3/c7-3-5(9)2-6-1-4(5)8/h6-7,9H,1-3H2/t5-/m0/s1
