23
gdb 73144	2.47066	1.54904	1.33953	0.1738	89.09	-0.2513	0.0888	0.3401	1118.9923	0.20601	-351.123426	-351.114735	-351.113791	-351.15673	34.852	
C	 0.2284567385	 1.6396779579	 0.1441972196	-0.495928
C	 0.0725430207	 0.1353167575	 0.1003858651	 0.291273
C	-1.365709507	-0.4379040044	-0.0748286753	-0.276857
C	-1.1538569588	-1.3709074008	 1.1553881256	-0.216283
C	 0.2795627482	-0.8117191278	 1.3495633216	-0.059618
C	 1.3907583147	-1.5834621786	 0.5899410755	-0.320692
C	 1.1491103013	-0.689797847	-0.6382980484	 0.344218
C	 1.1486582843	-1.1041928165	-2.0810165961	-0.323904
C	 2.2100742368	-0.1625748254	-1.5607518217	-0.332859
H	 1.2412564982	 1.9309242074	 0.4430605876	 0.114341
H	 0.0302699413	 2.089611198	-0.8373868445	 0.111843
H	-0.475484519	 2.0873494053	 0.8548431667	 0.109753
H	-2.14751621	 0.3111367472	 0.081765771	 0.091981
H	-1.5561912791	-0.9346461658	-1.0302141656	 0.094138
H	-1.8274052402	-1.1506721426	 1.98737341	 0.097104
H	-1.2072669792	-2.4453550797	 0.9553594326	 0.093827
H	 0.534227578	-0.4307337356	 2.3400588099	 0.057745
H	 2.3866568247	-1.458816806	 1.0267660856	 0.096099
H	 1.2077048712	-2.6550806182	 0.4546356867	 0.09187
H	 1.4363709166	-2.1230820879	-2.3216732084	 0.107701
H	 0.3826740838	-0.693927262	-2.7326712036	 0.108304
H	 2.159501795	 0.8777385888	-1.8663263195	 0.10911
H	 3.2210159499	-0.5409631938	-1.4408808943	 0.106835
39.8576	189.0833	211.0735	221.0494	248.2367	310.7945	360.9997	391.3908	447.5384	524.3592	615.3501	701.8766	750.6038	780.2955	813.2343	847.8713	870.0991	882.4721	906.4584	926.0306	936.5989	961.6589	980.327	1021.1181	1037.1048	1049.8721	1075.5924	1113.2399	1126.3387	1155.2718	1176.8462	1188.9395	1198.2676	1219.4282	1232.505	1244.3209	1262.5962	1283.7616	1307.458	1323.6423	1373.4816	1407.971	1464.8208	1473.1075	1480.2452	1489.1266	1491.22	1497.1026	1502.3608	3013.7714	3031.9838	3045.9028	3053.0187	3074.1958	3076.8682	3085.4923	3091.0634	3094.0031	3109.4936	3116.6117	3120.7495	3193.2321	3208.6952
CC12CCC1CC21CC1	C[C@]12CC[C@H]1CC12CC1	
InChI=1S/C9H14/c1-8-3-2-7(8)6-9(8)4-5-9/h7H,2-6H2,1H3	InChI=1S/C9H14/c1-8-3-2-7(8)6-9(8)4-5-9/h7H,2-6H2,1H3/t7-,8-/m0/s1
