17
gdb 6962	2.64804	2.30359	1.67624	2.4864	64.73	-0.2668	0.021	0.2879	842.0618	0.142529	-401.026224	-401.018458	-401.017514	-401.057913	29.66	
C	 0.3229851065	 1.4937018432	-0.0757396403	-0.424899
C	-0.0935063258	 0.0153950209	 0.0000677829	 0.316699
O	-1.4975910004	-0.0947065086	 0.0760701354	-0.483119
C	 0.4873965649	-0.8234962509	-1.1514267522	-0.268951
C	 1.8536397132	-1.2429222262	-0.5970171342	-0.098131
O	 1.6882259667	-1.3083528378	 0.8397998501	-0.238855
C	 0.5610358042	-0.6537133763	 1.2043852354	 0.385383
N	 0.061992732	-0.5960405203	 2.3625750171	-0.568277
H	 1.4068291119	 1.6127744103	-0.1827695482	 0.112443
H	-0.1676929732	 1.9601627313	-0.9345674912	 0.126909
H	 0.0098513791	 2.0124871113	 0.8339272085	 0.135155
H	-1.7045246536	-0.1218661565	 1.022063518	 0.291718
H	-0.1568258416	-1.6935636195	-1.3027688411	 0.12692
H	 0.5668713613	-0.2770413178	-2.0933043559	 0.112593
H	 2.1861282943	-2.2269193984	-0.9336928412	 0.126946
H	 2.6390845482	-0.5125455002	-0.8215085701	 0.119269
H	 0.6090975624	-1.1158513944	 3.0482873671	 0.228197
105.5911	191.8757	214.341	251.6358	305.1388	340.2962	383.9299	425.4808	521.0579	599.6116	671.1868	706.5171	725.5564	835.3308	875.9655	931.0814	948.4986	969.2767	1001.8474	1013.1253	1091.7109	1142.2809	1168.6664	1194.3015	1235.8746	1246.1726	1287.0602	1334.5738	1395.2904	1413.2318	1418.6018	1481.9633	1490.9444	1496.7058	1524.5161	1778.9678	3035.4634	3043.5231	3071.6231	3107.7321	3109.6388	3126.6101	3128.952	3494.9582	3726.2223
CC1(O)CCOC1=N	C[C@@]1(O)CCO[C]1[NH]	
InChI=1S/C5H9NO2/c1-5(7)2-3-8-4(5)6/h6-7H,2-3H2,1H3	InChI=1S/C5H9NO2/c1-5(7)2-3-8-4(5)6/h6-7H,2-3H2,1H3/t5-/m1/s1
