19
gdb 107026	3.01209	1.29123	1.08202	0.8678	71.44	-0.2334	0.0575	0.2909	1163.9391	0.157569	-460.112512	-460.103218	-460.102274	-460.146584	34.543	
C	-0.314568947	 1.3163721965	-0.0506013599	-0.259415
O	 0.1605196808	-0.0146746601	 0.0959012191	-0.287476
C	 0.7749171844	-0.495501698	-1.0377421311	 0.424362
C	 0.0032440783	-1.0040006233	-2.2206048542	-0.356601
C	 0.8954557697	-1.961865819	-1.4574269543	-0.146953
C	 2.3455541251	-1.7487977062	-1.8594861282	 0.048093
O	 2.5861234505	-1.9047303424	-3.2508162655	-0.429722
C	 2.2470293054	-0.2454781931	-1.3946667099	 0.019649
O	 2.5860127187	 0.7175805933	-2.3577546522	-0.444983
H	 0.5014594672	 2.0126605055	-0.2843543905	 0.126431
H	-1.0697048658	 1.3844901383	-0.8458197901	 0.111889
H	-0.767040627	 1.5984215429	 0.9025543046	 0.124942
H	-1.0545864251	-1.1427844792	-2.0222211963	 0.119032
H	 0.238905518	-0.7177843368	-3.2403566648	 0.11577
H	 0.4996224609	-2.8451957455	-0.9734485045	 0.096599
H	 3.0531590466	-2.3395441052	-1.2686587	 0.077205
H	 3.5383573002	-1.8775147386	-3.3916928338	 0.29147
H	 2.8331852227	-0.0490983042	-0.4915983337	 0.087293
H	 2.4643166363	 0.284435155	-3.2136986845	 0.282414
79.0935	91.9554	169.9149	183.7835	209.7205	260.5149	277.506	348.8823	395.6071	478.5448	508.5609	551.4562	613.8284	710.0976	736.867	824.3662	870.3697	901.0895	960.5213	1001.615	1021.7865	1048.1493	1059.3324	1081.3042	1099.9567	1129.5917	1176.9893	1182.4106	1216.9654	1224.529	1241.1028	1266.7091	1305.2445	1318.7415	1386.7647	1419.7438	1434.176	1476.8501	1487.3217	1503.1405	1508.2372	2999.584	3045.6558	3057.2083	3070.0075	3123.8134	3128.4217	3198.9507	3215.0703	3746.6657	3816.193
COC12CC1C(O)C2O	CO[C@]12C[C@H]1[C@@H](O)[C@H]2O	
InChI=1S/C6H10O3/c1-9-6-2-3(6)4(7)5(6)8/h3-5,7-8H,2H2,1H3	InChI=1S/C6H10O3/c1-9-6-2-3(6)4(7)5(6)8/h3-5,7-8H,2H2,1H3/t3-,4+,5+,6+/m0/s1
