20
gdb 87810	3.74222	1.04197	1.01088	1.3111	80.93	-0.2209	0.0829	0.3039	1301.927	0.169145	-403.078711	-403.069955	-403.069011	-403.111824	33.733	
C	-0.166839448	 1.470069068	-0.0363083577	-0.415394
C	-0.0305924387	-0.0242878935	 0.088999704	-0.02143
O	 1.3056128901	-0.5663272734	-0.0277996639	-0.306599
C	 0.6383838185	-0.668091037	 1.2169915406	 0.458786
C	 1.2588268538	-0.1080099554	 2.5207306858	-0.343859
C	 0.9633000368	-1.4714896309	 3.1680741068	-0.030412
C	 0.3819967455	-2.0025763131	 1.8948647189	-0.157187
N	-0.4874633901	-1.6947403956	 3.054208281	-0.108184
C	-0.9402431415	-2.8960351697	 3.7529784918	-0.316343
H	 0.6002478654	 1.9827815295	 0.5495749297	 0.126716
H	-0.0667415209	 1.7822413429	-1.0811923905	 0.127243
H	-1.1516406054	 1.7918650021	 0.3191665978	 0.125634
H	-0.7804237	-0.6090363812	-0.4470993981	 0.08748
H	 2.3270641927	 0.0781508001	 2.3844497523	 0.119235
H	 0.7771730964	 0.7564891345	 2.984023032	 0.109279
H	 1.5414032505	-1.9851404887	 3.9263977497	 0.096586
H	 0.4100270868	-2.9946534923	 1.4608308604	 0.099565
H	-0.2049361347	-3.7185820829	 3.7545253272	 0.09914
H	-1.1676346529	-2.6388203753	 4.7923102406	 0.124706
H	-1.8584728344	-3.2604718582	 3.2820438715	 0.125038
91.9988	167.0076	188.578	208.1687	256.1435	280.4639	290.484	394.284	441.962	468.4558	510.3617	578.0592	761.3469	789.0641	831.5832	849.5781	877.1187	899.5687	959.7832	976.3501	994.9624	1033.3177	1058.3662	1090.2481	1117.725	1128.012	1140.4746	1154.7801	1173.6024	1194.4856	1223.0312	1247.1344	1287.171	1340.5701	1365.2286	1409.3496	1453.5559	1459.1811	1478.0782	1491.2245	1494.3914	1498.8505	1532.9737	2959.8872	3036.6165	3063.5475	3067.75	3090.352	3100.6822	3104.4284	3124.7905	3125.7643	3185.9831	3199.2359
CC1OC11CC2C1N2C	C[C@H]1O[C@]21C[C@@H]1[C@H]2N1C	
InChI=1S/C7H11NO/c1-4-7(9-4)3-5-6(7)8(5)2/h4-6H,3H2,1-2H3	InChI=1S/C7H11NO/c1-4-7(9-4)3-5-6(7)8(5)2/h4-6H,3H2,1-2H3/t4-,5-,6-,7+,8?/m1/s1
