21
gdb 116518	2.86708	1.17285	0.90358	2.2194	74.95	-0.2471	0.078	0.3252	1314.053	0.183697	-461.347605	-461.338709	-461.337765	-461.381377	33.661	
O	 0.1264619394	 1.3800877231	 0.2537918094	-0.424221
C	 0.076631519	-0.0067496964	 0.0075924916	-0.070368
C	-1.3676909211	-0.5109075462	-0.0577252634	 0.057902
C	-1.4158862762	-2.0362511264	-0.1849507921	-0.068115
O	-2.5899838817	-2.6000862804	-0.7408202418	-0.264668
C	-3.8477346496	-2.0236002499	-0.4294161138	-0.055436
C	-4.0162415369	-1.4487539741	 0.9812711479	-0.234087
C	-3.3826079925	-0.0683788319	 1.1765540531	-0.07274
O	-1.9666406597	-0.064661592	 1.1585706051	-0.269565
H	-0.4962577184	 1.5299177938	 0.9764184105	 0.286816
H	 0.5728244837	-0.1885109571	-0.950879714	 0.11083
H	 0.6187236356	-0.5759587433	 0.7818725425	 0.089736
H	-1.8702916015	-0.0362142405	-0.9151227995	 0.083466
H	-0.6045898092	-2.3702181855	-0.8426898957	 0.107721
H	-1.2198150526	-2.4489801368	 0.8168870288	 0.099059
H	-4.0931027292	-1.2341135113	-1.160217195	 0.088279
H	-4.5701260256	-2.8320266345	-0.5841599979	 0.109498
H	-5.0933798699	-1.3415510856	 1.1627658304	 0.105624
H	-3.6360775864	-2.1520071581	 1.7309759865	 0.117565
H	-3.7705344213	 0.6175241725	 0.4041320767	 0.092799
H	-3.660176176	 0.3394450505	 2.1534347808	 0.109906
76.2402	108.885	180.8896	195.1984	229.881	323.1066	355.204	374.4462	442.559	471.477	479.6191	531.8966	605.8192	777.1126	835.0778	894.4356	916.5869	929.5418	990.6464	1031.4969	1066.2864	1084.2419	1093.1638	1105.0194	1141.2194	1153.8309	1186.2665	1231.1121	1246.1795	1272.7096	1294.8918	1319.0044	1321.4979	1373.4437	1376.469	1397.4391	1410.2656	1422.1516	1434.8886	1447.0544	1462.1235	1494.6981	1496.2843	1504.754	1515.8563	2955.9598	2962.4009	2965.0018	2983.6068	2996.6961	3029.6414	3055.4596	3064.663	3077.4956	3082.0146	3082.4034	3777.1453
OCC1COCCCO1	OC[C@H]1COCCCO1	
InChI=1S/C6H12O3/c7-4-6-5-8-2-1-3-9-6/h6-7H,1-5H2	InChI=1S/C6H12O3/c7-4-6-5-8-2-1-3-9-6/h6-7H,1-5H2/t6-/m0/s1
