16
gdb 45828	2.73181	1.80067	1.24849	2.5591	69.44	-0.2707	-0.0306	0.2402	980.3079	0.126557	-437.919081	-437.912063	-437.911118	-437.950883	26.906	
O	 0.0784302841	-0.1020571311	 0.0032087534	-0.307862
C	 0.0720356127	 1.0876285396	-0.106741384	 0.430211
O	-1.1500799066	 1.7309434795	-0.2189802504	-0.218535
C	-1.2075563002	 3.0727650413	-0.5397838955	 0.129403
N	-0.2718999643	 3.8683175585	-0.8099563522	-0.238659
C	 1.0961365762	 3.3985084402	-0.7504627439	-0.004663
C	 1.861931542	 4.0140848164	 0.4550136041	-0.21861
C	 1.6184290693	 2.7022621092	 1.2490449501	-0.238178
C	 1.269270738	 1.9881986319	-0.1009145716	-0.161846
H	-2.2476803964	 3.3878139168	-0.5531916696	 0.142651
H	 1.5524216025	 3.5454705351	-1.7330906617	 0.097145
H	 2.9186334555	 4.1726487828	 0.2263555515	 0.11247
H	 1.438653897	 4.9347986418	 0.8591581505	 0.119782
H	 2.4557375348	 2.2791335294	 1.8051482337	 0.121453
H	 0.7563387337	 2.7699911511	 1.9169602673	 0.123958
H	 2.120383332	 1.4280418576	-0.4891219817	 0.111279
90.6426	126.9151	227.5613	310.0817	425.8079	476.7764	543.5124	552.9423	688.3149	717.9459	759.2389	819.9816	863.5518	895.4717	931.9609	950.4961	958.8566	973.7419	1033.5039	1066.8154	1094.3486	1141.6708	1186.9717	1206.7765	1243.5558	1249.9003	1270.3618	1281.2051	1317.6385	1360.4469	1415.7667	1478.484	1496.2524	1745.6597	1875.0845	3065.0492	3073.9622	3076.4994	3110.3999	3127.3582	3140.7891	3179.9349
O=C1OC=NC2CCC12	O=C1OC=N[C@H]2CC[C@@H]12	
InChI=1S/C6H7NO2/c8-6-4-1-2-5(4)7-3-9-6/h3-5H,1-2H2	InChI=1S/C6H7NO2/c8-6-4-1-2-5(4)7-3-9-6/h3-5H,1-2H2/t4-,5+/m1/s1
