20
gdb 59279	3.05187	1.30956	1.02969	2.0655	79.87	-0.232	0.0102	0.2422	1198.5521	0.171491	-403.124834	-403.116282	-403.115337	-403.157958	33.389	
C	 0.0995373583	 1.5396927775	 0.0056702568	-0.414701
C	 0.0239320515	 0.0151572803	 0.0729276495	 0.14087
O	 0.6556415157	-0.473333826	 1.2571888163	-0.435136
C	-1.4124793156	-0.5381499294	-0.0209501751	-0.053728
C	-2.1909190948	-0.155521798	-1.2710300133	-0.100073
C	-2.6657325787	-1.2173609185	-1.9262216746	-0.058076
C	-2.2424124075	-2.4813969213	-1.255501523	-0.09297
N	-0.7568771665	-2.6379854502	-1.2475068921	-0.329275
C	-1.4463792616	-2.0690993283	-0.0698514332	-0.049366
H	 1.1324290207	 1.8652650801	 0.1567453284	 0.124288
H	-0.2426228503	 1.9207794915	-0.9609331803	 0.120971
H	-0.5210620293	 2.0004290836	 0.7859605571	 0.100981
H	 0.5994770159	-0.4227155662	-0.7480177843	 0.113527
H	 0.2368945647	-0.0400733835	 2.0096525726	 0.271566
H	-1.9528399752	-0.1856928395	 0.8736145982	 0.062857
H	-2.3171177337	 0.8747541318	-1.5833103311	 0.097152
H	-3.2505266946	-1.1898791252	-2.8379152951	 0.098227
H	-2.8604595399	-3.3724909906	-1.2764192423	 0.086727
H	-0.5304279864	-3.60934719	-1.039530822	 0.227839
H	-1.4430126126	-2.6346232481	 0.8539373076	 0.088319
73.887	134.4546	166.2553	236.5045	297.9606	324.8444	364.6231	398.6532	462.0382	504.3296	559.5562	706.025	751.5964	794.6115	823.9887	859.4851	869.8178	913.1373	918.902	945.2508	973.5087	985.9192	1014.3997	1060.1363	1078.4369	1104.8211	1114.622	1150.3778	1154.8536	1171.0548	1222.4332	1247.1628	1297.7458	1320.4486	1328.1581	1366.2172	1394.7179	1401.6458	1408.9787	1427.7346	1491.7161	1495.6659	1663.6825	2962.447	3018.717	3075.0885	3097.4993	3118.7537	3167.1085	3184.4724	3189.5042	3214.5608	3476.7817	3790.5487
CC(O)C1C=CC2NC12	C[C@@H](O)[C@H]1C=C[C@H]2N[C@@H]12	
InChI=1S/C7H11NO/c1-4(9)5-2-3-6-7(5)8-6/h2-9H,1H3	InChI=1S/C7H11NO/c1-4(9)5-2-3-6-7(5)8-6/h2-9H,1H3/t4-,5-,6-,7+/m1/s1
