21
gdb 91627	2.90497	1.67053	1.46619	1.5497	80.05	-0.2542	0.0889	0.343	1005.333	0.186001	-387.093577	-387.086431	-387.085486	-387.124707	30.26	
C	-0.2292980444	 1.5565364547	-0.0296666999	-0.419379
C	 0.0387247212	 0.0527884014	 0.000819463	 0.058401
C	 0.9211227368	-0.4966782006	-1.1721590952	-0.240501
C	 1.9889381684	-1.3066775988	-0.3957952051	 0.059009
O	 1.2493533452	-1.7750310305	 0.7438799357	-0.26454
C	 0.8306836846	-0.489221263	 1.2253408343	 0.032099
C	 2.1524885239	 0.269955379	 1.3645377697	-0.03507
C	 3.3763710694	-0.5635076708	 1.6498943185	-0.317954
C	 2.9711764985	-0.3076574456	 0.2224239611	-0.039778
H	 0.6991759512	 2.1337862369	-0.0819470013	 0.117234
H	-0.8316660567	 1.8254116861	-0.9034344102	 0.116107
H	-0.7796397536	 1.8823792747	 0.8603562859	 0.112358
H	-0.9224636116	-0.4717463	-0.0082699912	 0.076538
H	 0.3446519652	-1.1375446534	-1.8436587422	 0.099132
H	 1.3682848556	 0.3043683465	-1.7688786585	 0.093503
H	 2.4211628123	-2.1601141118	-0.9199064217	 0.075217
H	 0.2439561911	-0.6182720639	 2.136743775	 0.072349
H	 2.1477901294	 1.3263236188	 1.5996281698	 0.088832
H	 4.2475219713	-0.0242549739	 2.0054705398	 0.105634
H	 3.2498635618	-1.5586992588	 2.059996352	 0.125342
H	 3.5786205704	 0.3107185732	-0.4276931896	 0.085467
137.3656	232.9026	263.294	331.0532	367.5683	422.0565	514.4696	569.9365	605.1443	729.5266	756.0854	799.6277	825.3003	853.0922	877.8494	898.9036	923.4704	944.9783	959.5545	985.4803	1006.8337	1014.0133	1060.8142	1062.5826	1075.1583	1090.0752	1103.5585	1120.9381	1137.5537	1190.04	1197.8764	1240.0126	1260.4854	1274.6313	1309.7892	1317.0819	1335.0281	1344.5796	1369.0764	1378.0733	1412.2079	1469.5087	1492.3939	1499.2118	1504.6288	3029.9166	3042.4661	3055.0285	3092.4963	3099.6947	3100.8131	3105.083	3111.8391	3138.1743	3181.2536	3196.7591	3227.4928
CC1CC2OC1C1CC21	C[C@H]1C[C@@H]2O[C@H]1[C@H]1C[C@@H]21	
InChI=1S/C8H12O/c1-4-2-7-5-3-6(5)8(4)9-7/h4-8H,2-3H2,1H3	InChI=1S/C8H12O/c1-4-2-7-5-3-6(5)8(4)9-7/h4-8H,2-3H2,1H3/t4-,5+,6-,7-,8+/m0/s1
