18
gdb 105824	2.62587	1.47548	1.16701	2.1776	71.74	-0.2196	0.061	0.2806	1091.9145	0.146877	-438.974195	-438.965772	-438.964828	-439.007077	32.505	
O	 0.6622439509	 0.2909012981	 0.7909643365	-0.410039
C	-0.1577726153	 0.2244349949	-0.3623420514	-0.158653
C	-1.5195779057	-0.3780988961	-0.1152064411	 0.278524
C	-2.1355327805	-0.5600807584	 1.2293935066	 0.023494
O	-3.3127169878	 0.0531507312	 1.6867914689	-0.420642
C	-1.9874946144	-1.7755355869	 0.3542755721	-0.200508
C	-2.8680557964	-1.7848879805	-0.9016819358	-0.04015
C	-3.8033391577	-0.648826673	-1.0567818893	-0.25861
N	-2.3655867257	-0.4491790115	-1.3700487571	-0.190865
H	 0.3244633075	 0.9969794829	 1.3509461534	 0.289373
H	-0.3071282791	 1.2138202109	-0.823463205	 0.105423
H	 0.384550719	-0.3840874548	-1.093432476	 0.124217
H	-1.3393698053	-0.5655837476	 1.9776364015	 0.103183
H	-3.7287068824	-0.5495260182	 2.3135767174	 0.287852
H	-1.3954344962	-2.6296869222	 0.6600030492	 0.096371
H	-2.8619399411	-2.6313381249	-1.5812229599	 0.100356
H	-4.3969362367	-0.6449938615	-1.9677424509	 0.116763
H	-4.243333723	-0.1578852824	-0.202202859	 0.153913
73.6713	182.4564	215.1256	222.2701	270.9451	292.5199	350.6569	397.5965	427.1964	539.0387	633.3897	651.7402	695.1828	764.0424	777.059	848.4102	916.1932	933.2737	972.4833	999.6252	1031.5864	1040.4186	1066.4348	1090.1125	1114.746	1127.4432	1157.7176	1187.956	1217.6977	1235.6037	1278.3106	1289.9193	1352.9024	1362.0296	1383.9988	1407.2416	1477.2712	1494.1178	1505.8724	2983.0716	3072.8463	3081.9792	3126.4326	3156.5635	3185.6994	3263.5245	3796.285	3821.0465
OCC12C(O)C1C1CN21	OC[C@]12[C@@H](O)[C@H]1[C@H]1CN21	
InChI=1S/C6H9NO2/c8-2-6-4(5(6)9)3-1-7(3)6/h3-5,8-9H,1-2H2	InChI=1S/C6H9NO2/c8-2-6-4(5(6)9)3-1-7(3)6/h3-5,8-9H,1-2H2/t3-,4-,5+,6-,7?/m1/s1
