19
gdb 35716	2.50048	1.35183	1.00545	3.2966	80.64	-0.237	0.0203	0.2573	1222.2095	0.15996	-382.042786	-382.034204	-382.033259	-382.076609	31.812	
N	-0.1966402193	-1.2304541182	 0.0571140679	-0.332538
C	-0.1079021581	-0.0772810399	 0.0580356812	 0.269407
C	 0.046215153	 1.3857369947	 0.0559339754	-0.122761
C	-0.2050852146	 2.0285800202	 1.4552601627	-0.241155
C	 1.334674826	 2.0670959482	 1.6010362679	-0.1653
N	 1.444203613	 1.8683986146	 0.1393653051	-0.068843
C	 2.5217077259	 1.1165204464	-0.4166585633	 0.050193
C	 2.8697920755	 1.3552260607	-1.8634664567	-0.273156
C	 3.7774185138	 1.8690161862	-0.7749741871	-0.280023
H	-0.5177954993	 1.791087128	-0.7904042325	 0.121135
H	-0.6545069549	 3.0174219894	 1.3625959081	 0.125105
H	-0.7631758503	 1.4285511267	 2.1717278461	 0.130561
H	 1.7920345252	 2.9907897678	 1.9669677997	 0.11117
H	 1.7198647971	 1.2197656058	 2.1878116666	 0.105988
H	 2.6485803302	 0.0967557116	-0.0445459045	 0.093844
H	 3.1909085002	 0.5052119781	-2.4540627367	 0.121281
H	 2.2731673406	 2.0850144425	-2.3982066203	 0.118204
H	 3.778924493	 2.9370250099	-0.591105954	 0.119567
H	 4.7286160828	 1.3753306074	-0.6124663554	 0.117319
66.8171	106.1085	118.2396	194.6649	210.9864	282.3789	365.8152	439.8955	509.8036	608.6559	659.6047	751.1521	783.5385	828.6466	839.0652	903.7792	931.1577	939.3454	963.6198	1006.8276	1056.5468	1075.5438	1080.1553	1092.0649	1104.8383	1134.6124	1150.9022	1195.985	1212.4541	1221.0831	1237.6588	1266.1389	1283.5465	1329.9449	1343.8204	1406.7839	1457.6775	1484.9313	1496.8307	1523.2643	2342.7653	2994.0953	3053.0318	3064.9822	3077.6286	3101.6481	3140.8601	3145.7568	3165.3624	3224.7712	3238.4932
N#CC1CCN1C1CC1	N#C[C@H]1CCN1C1CC1	
InChI=1S/C7H10N2/c8-5-7-3-4-9(7)6-1-2-6/h6-7H,1-4H2	InChI=1S/C7H10N2/c8-5-7-3-4-9(7)6-1-2-6/h6-7H,1-4H2/t7-/m1/s1
