25
gdb 59951	2.23363	1.08724	0.90095	2.5324	89.21	-0.2454	-0.0169	0.2285	1472.9212	0.225015	-389.518305	-389.506767	-389.505823	-389.554751	42.461	
C	-0.1522887416	 1.03309212	 0.6479625137	-0.399471
C	-0.189774128	-0.3314830441	-0.0552541458	 0.025386
C	-1.6419517002	-0.738416727	-0.349147585	-0.387138
C	 0.627735261	-0.3711786183	-1.3620565725	-0.204284
C	 2.169535555	-0.1996786968	-1.2836678939	 0.152737
C	 2.8247398648	-1.1145904255	-0.2433765392	-0.413204
C	 2.7457801116	-0.4967818448	-2.6920707064	-0.419469
C	 2.526150047	 1.2565419389	-1.0190608457	 0.157437
O	 3.3109151264	 1.6499810911	-0.1944399644	-0.263441
H	 0.8550043076	 1.3158978582	 0.9634783734	 0.138237
H	-0.5319118381	 1.823063581	-0.0118268223	 0.109204
H	-0.783726884	 1.0224927423	 1.542510604	 0.110599
H	 0.2275203524	-1.0791654627	 0.6314191678	 0.079494
H	-2.1166015336	-0.0299058203	-1.0388128236	 0.111918
H	-1.6967421911	-1.7327049399	-0.8049126116	 0.109261
H	-2.2386207102	-0.7558496977	 0.5685857073	 0.111479
H	 0.4414067895	-1.3362217889	-1.8507783462	 0.0941
H	 0.2277740025	 0.389448025	-2.0494948652	 0.090454
H	 2.5595574426	-2.1602683287	-0.4308152805	 0.106489
H	 3.9130186443	-1.0222847791	-0.282626921	 0.124519
H	 2.5175394062	-0.8567307696	 0.7727977496	 0.128866
H	 2.3151753595	 0.1656621848	-3.4509481588	 0.118112
H	 3.8331398192	-0.3733712882	-2.7087591069	 0.126645
H	 2.5150395108	-1.5276945317	-2.978673156	 0.123328
H	 2.0137978064	 1.9729359622	-1.7061922709	 0.068742
48.2896	91.9952	111.8018	175.1988	213.1535	231.2372	242.7726	251.4572	263.545	302.5667	309.6305	333.3938	379.9748	399.6325	427.2123	491.5447	622.1447	770.5994	819.2325	856.2238	909.7579	914.4522	931.1289	953.4183	966.8386	981.4686	1024.7796	1035.2139	1110.6368	1120.4719	1191.7667	1193.0601	1225.1101	1244.5856	1320.0875	1330.5871	1373.3656	1382.5759	1396.7474	1403.0019	1408.9571	1423.7853	1432.9319	1471.879	1482.3017	1486.0678	1491.0209	1495.8917	1499.4371	1506.0583	1509.4958	1516.1327	1825.4942	2838.6394	2995.0247	3019.5191	3023.053	3028.5785	3030.3895	3041.0406	3045.4904	3086.8934	3093.1683	3099.6451	3100.1498	3106.7845	3115.558	3119.7505	3126.5423
CC(C)CC(C)(C)C=O	CC(C)CC(C)(C)C=O	
InChI=1S/C8H16O/c1-7(2)5-8(3,4)6-9/h6-7H,5H2,1-4H3	InChI=1S/C8H16O/c1-7(2)5-8(3,4)6-9/h6-7H,5H2,1-4H3
