19
gdb 82342	2.94253	1.38465	1.10348	1.7687	80.05	-0.2556	0.0474	0.3029	1133.2121	0.158886	-385.849536	-385.841049	-385.840105	-385.882869	32.813	
C	 0.6683934199	 1.5419990266	-0.3818962273	-0.391869
C	 0.1695878501	 0.1519698323	 0.0243004224	-0.037497
C	 0.2408943748	-0.849475558	-1.1261937154	 0.034188
O	 1.5033658091	-0.853477172	-1.8042201798	-0.247617
C	 1.2411833543	-1.8911330872	-0.8515813678	 0.030105
C	 1.9000925394	-1.6324626681	 0.4910568995	-0.252348
C	 0.9903499352	-0.5573218708	 1.1724948312	-0.178103
C	 1.7054323266	 0.3280435559	 2.0784277969	 0.328434
C	 2.3066011014	 1.0478266438	 2.8314042401	-0.465911
H	 1.6909821567	 1.4906649005	-0.7621644883	 0.136994
H	 0.0344682937	 1.955438226	-1.1732322238	 0.108746
H	 0.648151323	 2.2272664523	 0.4684551189	 0.124197
H	-0.8721941787	 0.2371808222	 0.3526284985	 0.079741
H	-0.6246254193	-1.0093785231	-1.7658354213	 0.093153
H	 1.1845932525	-2.8957541769	-1.2639047676	 0.095942
H	 1.9606231186	-2.5357673835	 1.1039559829	 0.108787
H	 2.9172972037	-1.2601093756	 0.3428140694	 0.129155
H	 0.2534624465	-1.1109507088	 1.7678085189	 0.108959
H	 2.8367913526	 1.6848084144	 3.4951957825	 0.194944
42.6531	149.703	195.577	235.2021	244.7117	336.0683	393.1983	442.4239	514.4456	554.0887	619.2155	638.3252	663.1594	685.2285	749.2319	810.3819	854.7996	900.0334	938.377	977.8785	1002.7818	1033.6276	1055.0633	1074.6916	1109.1595	1113.6367	1138.3555	1199.7719	1258.986	1289.8742	1302.0205	1312.9782	1336.5125	1344.1434	1360.1209	1407.6127	1435.0754	1483.6848	1491.777	1502.9689	2232.4628	3015.6641	3043.9687	3047.3498	3063.0878	3109.3122	3115.0702	3130.5891	3138.2402	3145.8361	3503.7175
CC1C2OC2CC1C#C	C[C@H]1[C@H]2O[C@H]2C[C@H]1C#C	
InChI=1S/C8H10O/c1-3-6-4-7-8(9-7)5(6)2/h1,5-8H,4H2,2H3	InChI=1S/C8H10O/c1-3-6-4-7-8(9-7)5(6)2/h1,5-8H,4H2,2H3/t5-,6-,7+,8-/m1/s1
