20
gdb 120568	3.97699	0.73619	0.6895	1.6512	83.69	-0.2377	0.0374	0.2752	1668.7616	0.168133	-403.086489	-403.075984	-403.07504	-403.122398	37.922	
C	 0.0719500906	 1.5245146163	-0.1872615411	-0.456981
C	-0.0272109799	 0.0315181417	 0.0686149475	 0.122922
N	 1.2603817317	-0.711996209	 0.0826504027	-0.365103
C	 0.4825479048	-0.6159078424	 1.3266210609	-0.05067
C	 1.0975279497	 0.1360523376	 2.48313829	-0.195529
C	 2.1176710216	-0.7185535985	 3.2295941048	-0.066931
O	 2.6163854087	 0.0532700929	 4.3110700036	-0.421617
C	-1.1532681531	-0.6139191802	-0.5633788658	 0.279195
C	-2.0851050379	-1.1422776206	-1.1116936446	-0.453113
H	 0.9881228263	 1.9306569502	 0.2428863897	 0.133418
H	 0.0872458114	 1.7182188618	-1.2638303732	 0.130284
H	-0.78780252	 2.0489395449	 0.2406125115	 0.126457
H	 1.1336945644	-1.6238128221	-0.3492065201	 0.236847
H	-0.0704782146	-1.5074950869	 1.6207675959	 0.091013
H	 1.5990177636	 1.042642908	 2.1361332815	 0.115069
H	 0.3123843473	 0.4431407429	 3.1844033085	 0.110521
H	 1.6384456516	-1.6448903837	 3.5888943592	 0.080056
H	 2.9205869503	-1.010225989	 2.5357228913	 0.101944
H	 3.300165063	-0.4567654572	 4.7546332727	 0.285828
H	-2.9105744794	-1.6102421067	-1.5882767349	 0.19639
58.068	86.9607	101.2355	153.3605	165.7269	199.2173	255.9745	263.7615	333.5017	365.2605	408.1191	493.7628	553.5789	583.452	603.5323	651.2305	682.8022	794.0955	819.038	881.797	962.6126	996.4623	1016.4748	1071.9841	1084.9068	1093.0184	1103.7109	1122.2478	1209.4059	1238.2627	1260.0083	1289.9251	1312.4296	1328.0388	1334.4133	1413.6933	1453.7758	1460.2299	1478.1998	1487.4502	1498.7752	1529.055	2229.8365	2958.7391	3002.6541	3045.0215	3048.8993	3101.2538	3112.7761	3117.0996	3146.8263	3502.1409	3505.9961	3831.2586
CC1(NC1CCO)C#C	C[C@]1(N[C@H]1CCO)C#C	
InChI=1S/C7H11NO/c1-3-7(2)6(8-7)4-5-9/h1,6,8-9H,4-5H2,2H3	InChI=1S/C7H11NO/c1-3-7(2)6(8-7)4-5-9/h1,6,8-9H,4-5H2,2H3/t6-,7-/m0/s1
