15
gdb 69224	2.7619	1.64863	1.16936	1.5047	68.67	-0.2641	-0.0359	0.2282	1026.2728	0.112912	-453.978339	-453.970562	-453.969618	-454.010543	29.327	
C	-0.0790875503	 1.5287337316	 0.04213706	-0.494995
C	 0.1487196405	 0.049900609	 0.0146541398	 0.277521
O	-0.7042226337	-0.797728412	 0.8081064144	-0.2776
C	 0.7071069384	-0.8097049486	 1.072407412	-0.109989
C	 1.3945326309	-1.969766775	 0.4109843779	 0.423439
N	 2.0802268346	-2.8399997712	 1.0248333148	-0.530151
N	 1.1287242048	-1.8278413586	-0.9561958642	-0.399557
C	 0.4701322448	-0.6519487696	-1.3010774645	 0.414941
O	 0.2257449646	-0.2773544789	-2.4194342822	-0.349781
H	 0.8181349694	 2.0633420118	-0.2835567722	 0.139609
H	-0.89202126	 1.7929050824	-0.6399592083	 0.155309
H	-0.3415672921	 1.8518237782	 1.0516679797	 0.138842
H	 1.0302791302	-0.4709362712	 2.0495710793	 0.12834
H	 2.4753684248	-3.5375078091	 0.3908210974	 0.21951
H	 1.3797594632	-2.5123877686	-1.6542004338	 0.26456
137.2427	140.5163	171.4746	246.0287	308.6838	342.9037	421.3691	526.8628	546.5849	568.427	631.7167	700.6402	725.8675	774.8192	825.0081	874.9694	902.6239	937.0283	1013.6484	1059.7211	1092.8079	1110.8433	1158.776	1257.3953	1298.4034	1358.1047	1383.9633	1406.5467	1451.2958	1478.6404	1491.6421	1771.8112	1856.508	3050.8991	3119.8809	3139.0763	3199.6608	3455.5726	3624.5064
CC12OC1C(=N)NC2=O	C[C@]12O[C@H]1[C]([NH])NC2=O	
InChI=1S/C5H6N2O2/c1-5-2(9-5)3(6)7-4(5)8/h2H,1H3,(H2,6,7,8)	InChI=1S/C5H6N2O2/c1-5-2(9-5)3(6)7-4(5)8/h2H,1H3,(H2,6,7,8)/t2-,5-/m0/s1
