19
gdb 87039	2.40631	1.33665	1.07977	1.9057	82.35	-0.2431	0.0474	0.2905	1211.1796	0.15668	-385.821852	-385.812499	-385.811555	-385.855932	35.027	
C	-0.1559241533	 1.4953493677	 0.0128321421	-0.414713
C	 0.0118401668	-0.004769365	 0.0650078258	-0.025152
C	 1.3315752877	-0.6555047459	-0.2161512826	-0.328972
C	 0.7725759401	-0.6878912126	 1.2073697246	 0.124962
C	 1.4084162824	 0.129248192	 2.2044027093	 0.240624
C	 1.9467591558	 0.806265035	 3.0408326187	-0.43969
C	 0.224858943	-2.0088325525	 1.6769362585	 0.047838
C	 0.6841559982	-2.6963190188	 2.8885503837	-0.203103
O	-0.5749914186	-2.0143180339	 2.8557101249	-0.236309
H	 0.7365135805	 2.0070151866	 0.3818220028	 0.130449
H	-0.338524759	 1.8253400155	-1.0155180355	 0.117944
H	-1.0025652013	 1.8178299714	 0.6273332078	 0.128687
H	-0.8621561038	-0.5653362232	-0.257934718	 0.096205
H	 1.3563635446	-1.594396032	-0.7598384937	 0.117912
H	 2.1909681019	-0.0156625475	-0.380694675	 0.128158
H	 2.4130109216	 1.4067895258	 3.7820184442	 0.191753
H	-0.1751048444	-2.6191590092	 0.8642387364	 0.084537
H	 0.6271411068	-3.7825904961	 2.9461213399	 0.112003
H	 1.4458618011	-2.2269760074	 3.5069304761	 0.126868
66.0932	139.0689	152.0888	167.5741	190.6224	234.7422	345.0343	359.8566	382.5225	470.9383	561.478	576.5936	601.6037	659.6408	667.2608	795.1899	847.4161	870.3971	902.1347	912.6961	947.8498	1013.158	1033.5299	1065.4061	1079.352	1101.7986	1133.0855	1160.58	1172.0124	1195.7089	1243.1398	1286.3422	1341.3369	1397.6712	1422.8607	1434.9205	1484.8453	1493.4033	1501.5977	1522.7391	2232.1529	3037.0653	3081.9345	3090.1844	3099.0641	3117.6383	3133.4766	3140.1034	3182.6816	3224.0859	3502.0816
CC1CC1(C#C)C1CO1	C[C@H]1C[C@]1(C#C)[C@H]1CO1	
InChI=1S/C8H10O/c1-3-8(4-6(8)2)7-5-9-7/h1,6-7H,4-5H2,2H3	InChI=1S/C8H10O/c1-3-8(4-6(8)2)7-5-9-7/h1,6-7H,4-5H2,2H3/t6-,7+,8-/m0/s1
