22
gdb 112041	2.38706	1.34149	1.09092	1.7647	82.09	-0.2422	0.0267	0.2688	1250.1596	0.193372	-404.38321	-404.373499	-404.372555	-404.418014	36.467	
C	 0.0603030972	 1.6296722913	 0.0434435602	-0.385721
C	 0.0511836471	 0.0989671449	 0.0825244763	-0.179668
C	 0.6635700469	-0.5159317037	-1.180206837	-0.010674
N	 2.0922794358	-0.1644631341	-1.3154421072	-0.278292
C	 2.6903407768	-1.2430997542	-1.6028793714	 0.105797
O	 2.0035433652	-2.3999400655	-1.6980556323	-0.255129
C	 0.620445956	-2.0826536739	-1.310354159	 0.347364
C	 0.3528527936	-2.8486702547	-0.0156342357	-0.423832
C	-0.294326074	-2.5470920858	-2.4382481386	-0.426524
H	 1.080608268	 2.0034433115	-0.0710453072	 0.143945
H	-0.5308205457	 2.0066139589	-0.798899916	 0.1099
H	-0.3628615672	 2.0479340221	 0.9617732615	 0.106491
H	 0.6039151312	-0.2488564673	 0.9620275054	 0.10042
H	-0.9795132678	-0.2618077966	 0.1914489627	 0.091504
H	 0.1387996429	-0.0800421691	-2.042986507	 0.078712
H	 3.7548732979	-1.3372686066	-1.7923736779	 0.134
H	 1.0391888273	-2.5407578961	 0.7770241809	 0.12739
H	-0.6712597172	-2.6880319704	 0.3326666935	 0.120872
H	 0.4908926686	-3.9198762148	-0.1876081248	 0.123172
H	-0.2315034965	-3.6304631199	-2.5768417042	 0.123325
H	-1.3338896059	-2.2906938653	-2.2077539791	 0.120616
H	-0.0222060402	-2.0610389506	-3.379301353	 0.126333
33.4815	106.1369	193.5136	217.8034	229.4641	258.0074	291.245	316.011	324.0857	340.2112	465.8325	501.3956	569.5009	620.1781	759.7275	797.3545	829.9611	886.0689	933.2038	941.9324	968.0646	970.4488	986.1018	1014.7374	1067.6646	1106.3271	1128.6014	1150.9519	1206.3577	1218.037	1260.9473	1286.2018	1328.9191	1334.1922	1345.919	1394.1902	1402.8215	1410.0856	1420.099	1472.6404	1482.0323	1486.0092	1496.7789	1497.2217	1506.1533	1510.2296	1706.8542	2988.7817	3023.7309	3036.0049	3036.8915	3047.9426	3069.3729	3100.6589	3108.4598	3117.5183	3120.0041	3126.0651	3128.8245	3202.7408
CCC1N=COC1(C)C	CC[C@H]1N=COC1(C)C	
InChI=1S/C7H13NO/c1-4-6-7(2,3)9-5-8-6/h5-6H,4H2,1-3H3	InChI=1S/C7H13NO/c1-4-6-7(2,3)9-5-8-6/h5-6H,4H2,1-3H3/t6-/m1/s1
