19
gdb 120022	2.48613	1.1059	0.83238	4.6696	72.58	-0.2612	0.0131	0.2743	1411.6582	0.157381	-460.179521	-460.169856	-460.168911	-460.214994	33.722	
C	-0.0672209462	 1.3846139024	 0.2294923879	-0.230018
O	-0.072957987	-0.0183954544	 0.0987825947	-0.226106
C	 0.5308142604	-0.4623112933	-1.0905424654	-0.077105
C	 0.554782141	-1.9842243219	-1.0480320434	-0.226505
C	 1.102555172	-2.7924898207	-2.2506058963	 0.124203
C	 1.7169444996	-2.0723078787	-3.4322117147	-0.406529
O	 2.1329642577	-3.3787423235	-1.3781133692	-0.260113
C	 1.7058936615	-2.6548562886	-0.2907359533	 0.454523
O	 2.1744564177	-2.6464839745	 0.8006268121	-0.318448
H	 0.9571182087	 1.7876896857	 0.2410526185	 0.1116
H	-0.6215973344	 1.8730917533	-0.5876515934	 0.103902
H	-0.5521053011	 1.623145696	 1.1784958781	 0.135193
H	-0.0415281984	-0.1225801427	-1.9720993431	 0.092025
H	 1.5484821132	-0.0506142729	-1.1870723868	 0.09861
H	-0.4189730896	-2.3341319661	-0.6954845093	 0.124605
H	 0.4284193012	-3.5866715504	-2.5837868588	 0.100771
H	 2.4176558638	-1.2973189217	-3.1103395516	 0.132054
H	 2.2618324356	-2.7831263103	-4.0598284537	 0.139331
H	 0.9365864242	-1.6087114978	-4.0443813522	 0.128009
61.2708	86.0989	93.4931	137.5031	207.7525	221.3113	236.6029	282.5837	376.125	402.1642	473.2987	537.265	703.6488	746.5679	830.3289	861.6315	899.0707	982.6646	1034.0501	1045.9276	1060.3047	1127.5578	1149.9705	1162.5977	1170.1413	1184.8703	1220.2676	1233.449	1267.4242	1310.8447	1341.4773	1387.0088	1414.2536	1423.705	1480.8303	1483.8903	1486.5239	1497.3832	1502.6065	1527.6674	1939.1309	2944.669	2973.248	2985.1501	3020.1082	3044.1185	3067.7706	3091.074	3115.1368	3123.0299	3126.6078
COCC1C(C)OC1=O	COC[C@H]1[C@@H](C)OC1=O	
InChI=1S/C6H10O3/c1-4-5(3-8-2)6(7)9-4/h4-5H,3H2,1-2H3	InChI=1S/C6H10O3/c1-4-5(3-8-2)6(7)9-4/h4-5H,3H2,1-2H3/t4-,5+/m1/s1
