13
gdb 131110	3.50765	1.20901	0.92844	3.4659	63.63	-0.2807	-0.0367	0.244	1147.5527	0.090583	-448.919456	-448.911708	-448.910764	-448.952776	27.375	
O	-0.935637861	 0.6268409513	 0.0555224645	-0.40312
C	 0.1329365628	-0.2827321637	-0.1497889858	-0.15425
C	 1.0667938489	 0.1829886622	-1.1954553672	 0.287102
N	 1.7881087065	 0.571739247	-2.0090260666	-0.308753
C	 0.8756889189	-0.584031984	 1.1208657925	 0.334964
C	 2.1996686223	-0.7323768124	 1.459485001	-0.150323
N	 2.2799266504	-1.0305826676	 2.7872535097	-0.181569
N	 1.080406152	-1.069878195	 3.2901101263	-0.098596
N	 0.2223219898	-0.8089281824	 2.2882920269	-0.241458
H	-0.5629671571	 1.4726010933	 0.3353612193	 0.304555
H	-0.3519013027	-1.1928009169	-0.5252445357	 0.167295
H	 3.0753166531	-0.6435104116	 0.8375582796	 0.152438
H	-0.7681442338	-0.7510963901	 2.4699993055	 0.291714
42.9752	116.5388	165.4477	217.4269	306.022	380.6045	432.7867	481.0779	586.8427	606.957	668.9438	731.8003	798.9343	872.6816	933.3345	1000.1422	1050.2006	1073.3936	1084.2993	1138.6744	1211.3463	1263.8095	1308.4852	1331.7411	1381.2568	1416.1841	1442.8689	1597.0733	2365.748	3039.7827	3279.1639	3648.4283	3786.2424
OC(C#N)C1=CN=NN1	O[C@@H](C#N)c1cnn[nH]1	
InChI=1S/C4H4N4O/c5-1-4(9)3-2-6-8-7-3/h2,4,9H,(H,6,7,8)	InChI=1S/C4H4N4O/c5-1-4(9)3-2-6-8-7-3/h2,4,9H,(H,6,7,8)/t4-/m0/s1
