20
gdb 120799	2.84302	0.92773	0.78218	2.6634	82.94	-0.2262	0.0527	0.2789	1517.0561	0.168188	-403.059265	-403.049163	-403.048218	-403.09505	36.069	
C	-0.1764163616	 1.4860957913	 0.0281706879	-0.231227
O	 0.0379365777	 0.0986854361	-0.1031550487	-0.221015
C	 0.3815843931	-0.520704055	 1.1181225894	-0.095997
C	 0.5882947772	-2.0136168811	 0.9561161987	-0.019607
C	 0.1496650574	-2.7415287102	-0.2669250354	-0.239075
N	 1.569311708	-2.6294692683	 0.0609226266	-0.090215
C	 2.3968993331	-1.7668455131	-0.792050262	-0.328701
C	 2.8847167784	-2.5000901472	-1.9567171052	 0.325084
C	 3.2779526017	-3.0882954312	-2.9276764673	-0.441838
H	 0.7256416135	 2.0069609937	 0.3846856421	 0.109107
H	-0.4410588261	 1.8697404906	-0.9595476717	 0.132986
H	-0.9980803336	 1.7023546941	 0.7282560341	 0.10989
H	 1.2904255444	-0.0542501197	 1.5385972029	 0.09473
H	-0.4219318747	-0.3672565592	 1.8589128333	 0.097085
H	 0.5243598201	-2.5259846866	 1.9156750156	 0.094901
H	-0.2746076182	-3.7395175169	-0.1980703367	 0.112205
H	-0.233835685	-2.1274562704	-1.0774078619	 0.131476
H	 1.8669595745	-0.8637102	-1.1270246677	 0.139898
H	 3.2531864089	-1.4330893383	-0.1914415935	 0.126991
H	 3.6294533711	-3.6113866987	-3.7820024504	 0.193324
56.1476	76.3467	107.0947	123.0807	190.3711	224.7525	235.1339	326.2228	341.9619	374.5632	437.2572	511.6848	601.6861	622.7524	653.0049	761.452	829.7481	927.623	937.8983	969.823	1005.0668	1027.2157	1064.7252	1078.4337	1119.4387	1144.5092	1163.6602	1169.0249	1187.1794	1228.902	1276.6279	1280.4802	1330.0164	1378.1157	1408.9291	1422.0212	1478.8228	1485.5055	1489.5718	1500.0195	1511.4018	1524.9149	2242.3054	2944.3557	2969.7202	2977.1851	3004.1167	3023.2962	3039.4597	3106.6232	3109.9504	3121.6036	3196.4634	3507.7961
COCC1CN1CC#C	COC[C@H]1CN1CC#C	
InChI=1S/C7H11NO/c1-3-4-8-5-7(8)6-9-2/h1,7H,4-6H2,2H3	InChI=1S/C7H11NO/c1-3-4-8-5-7(8)6-9-2/h1,7H,4-6H2,2H3/t7-,8?/m1/s1
