16
gdb 100455	4.18179	0.60272	0.55574	4.618	72.73	-0.2573	-0.0417	0.2156	1901.7127	0.122902	-475.004531	-474.994556	-474.993611	-475.041331	34.519	
N	 0.0227133903	 0.6765114604	 0.0882568946	-0.507733
H	 0.1548635265	-0.3188950879	 0.2464902654	 0.242531
H	 0.5043555239	 5.2321674451	-0.1796995821	 0.312693
H	-0.568780326	 0.7815389429	-0.7294221002	 0.234381
C	-0.6418501037	 1.2226746387	 1.2737895158	-0.212567
C	 0.1382110874	 0.7489871425	 2.5235030271	-0.059857
O	 0.1695807488	-0.6651146565	 2.5922690703	-0.409175
C	-0.6814879667	 2.6821895597	 1.232010342	 0.152682
C	-0.7217113417	 3.8876517597	 1.2333703636	-0.073682
C	-0.7736027485	 5.3357066643	 1.2322739492	 0.338363
O	-1.453922258	 5.994575212	 1.9684433965	-0.29503
O	 0.0289943936	 5.9176202205	 0.3076742889	-0.357373
H	-1.68460038	 0.8714718817	 1.3973590407	 0.091362
H	 1.1765248658	 1.0774100921	 2.4297715676	 0.137935
H	-0.2949431099	 1.1998535537	 3.4246052885	 0.11401
H	-0.6902923117	-0.9720979889	 2.8981437521	 0.291459
23.2363	67.0709	78.7582	143.6818	207.6699	230.2803	299.8529	324.6768	337.4499	390.7869	509.43	516.6335	528.87	601.4737	613.7452	767.1485	778.1092	858.8567	909.06	1002.5219	1034.2611	1080.4326	1126.807	1162.1587	1194.2502	1280.34	1318.2957	1336.7673	1357.4362	1402.9987	1409.129	1491.7967	1644.0428	1847.8325	2341.2898	2907.146	3033.4818	3111.3705	3495.2589	3580.874	3787.5422	3814.7703
[NH3+]C(CO)C#CC([O-])=O	N[C@@H](CO)C#CC(=O)O	
InChI=1S/C5H7NO3/c6-4(3-7)1-2-5(8)9/h4,7H,3,6H2,(H,8,9)	InChI=1S/C5H7NO3/c6-4(3-7)1-2-5(8)9/h4,7H,3,6H2,(H,8,9)/t4-/m1/s1
