16
gdb 30505	3.08814	1.50572	1.01859	1.7207	80.7	-0.1877	-0.0333	0.1543	1120.0898	0.125964	-434.101349	-434.093236	-434.092292	-434.134236	30.363	
C	 0.1744281275	 1.4419637409	-0.2956877059	-0.306865
N	 0.0584826349	 0.0216789374	-0.0257886568	-0.344924
C	 0.4785869769	-0.5265647334	 1.0470931048	 0.323023
N	 0.3018890495	-1.9075783707	 1.1762374115	-0.333676
C	 0.6919290972	-2.6506143537	 2.2566344769	-0.003773
C	 1.2970273453	-2.035563754	 3.2960959442	-0.080851
N	 1.5231095213	-0.6739272255	 3.2768820739	-0.343211
C	 1.1509732331	 0.0144869063	 2.2534588757	 0.339842
O	 1.375984024	 1.3436375553	 2.2437477551	-0.398767
H	 1.2146973355	 1.7893654871	-0.3159635848	 0.118312
H	-0.2635193386	 1.6370422593	-1.2791174812	 0.109613
H	-0.3569125357	 2.060850955	 0.437746189	 0.118306
H	-0.1526646933	-2.3368144999	 0.3835859909	 0.260914
H	 0.4882711915	-3.7122447934	 2.2145633889	 0.130016
H	 1.6245346423	-2.5760391976	 4.1732266551	 0.11379
H	 1.8136669387	 1.5379817469	 3.0858768528	 0.298252
73.4034	107.2991	219.0015	241.35	264.5067	370.2597	420.4095	471.157	560.457	569.6143	592.6171	599.6514	669.0811	706.4219	776.9121	790.2762	890.7578	912.2261	1044.4344	1078.6324	1111.5218	1121.5079	1165.2543	1209.6768	1283.2742	1299.6568	1399.2444	1431.9163	1450.6964	1487.7988	1503.7893	1505.2638	1609.4175	1657.7591	1719.0822	3008.632	3062.6751	3087.1894	3216.8093	3235.3625	3619.1025	3747.8195
CN=C1NC=CN=C1O	C[N]c1[nH]ccnc1O	
InChI=1S/C5H7N3O/c1-6-4-5(9)8-3-2-7-4/h2-3H,1H3,(H,6,7)(H,8,9)	InChI=1S/C5H12N3O/c1-6-4-5(9)8-3-2-7-4/h4-5,7-9H,2-3H2,1H3
