16
gdb 44971	2.65426	1.85808	1.6371	4.2095	63.19	-0.2416	0.0091	0.2507	882.4287	0.127809	-475.057102	-475.050558	-475.049613	-475.087911	26.266	
O	-0.01757881	-0.0070718204	-0.205504499	-0.3415
C	 0.0061111835	 1.1725642519	-0.0341265416	 0.467903
O	-1.1042366078	 1.9532541131	 0.1128147712	-0.22738
C	-0.6352840489	 3.281126681	 0.3924008871	 0.197269
C	-0.3938575312	 3.460284643	 1.8947461646	-0.18081
N	 0.5039383578	 2.3999160949	 2.3447239779	-0.311204
C	 1.6899616323	 2.2150920099	 1.5084492379	-0.169658
C	 1.2049944225	 2.1334322454	 0.0575487674	-0.087917
O	 0.5983830784	 3.3829967768	-0.2883443719	-0.25605
H	-1.3446672471	 3.9981518312	-0.0214178427	 0.110321
H	 0.0005038458	 4.4830813349	 2.028012996	 0.09817
H	-1.3399798908	 3.3832248839	 2.43999406	 0.122069
H	 0.7412482418	 2.5031580972	 3.322194139	 0.232839
H	 2.4247307998	 3.0365622549	 1.5671360666	 0.099383
H	 2.1858111178	 1.2824779874	 1.7961542722	 0.128332
H	 1.9937713862	 1.897128475	-0.6547639746	 0.118234
143.8609	249.3644	279.512	381.7067	439.9294	472.5285	504.0235	584.8857	685.9617	708.1589	781.1454	823.0252	863.6887	894.2924	925.4768	935.1877	992.1121	1025.6266	1042.7302	1094.1395	1104.5621	1165.8869	1179.6871	1216.3531	1245.0352	1272.734	1306.5336	1335.5511	1370.0688	1380.5568	1415.9743	1484.4039	1488.8799	1500.0667	1910.8566	2951.7127	2956.567	3076.0749	3077.6442	3124.6531	3141.2944	3569.0257
O=C1OC2CNCC1O2	O=C1O[C@H]2CNC[C@@H]1O2	
InChI=1S/C5H7NO3/c7-5-3-1-6-2-4(8-3)9-5/h3-4,6H,1-2H2	InChI=1S/C5H7NO3/c7-5-3-1-6-2-4(8-3)9-5/h3-4,6H,1-2H2/t3-,4-/m0/s1
