12
gdb 130255	3.15694	1.51974	1.027	5.5366	61.31	-0.2427	-0.08	0.1628	1041.3815	0.078066	-505.953724	-505.946361	-505.945417	-505.985651	27.652	
N	 0.0834342082	 1.4123820299	 0.0547005499	-0.547155
C	-0.0107177209	 0.0463112923	-0.0388879959	 0.46366
N	-1.1972585336	-0.4816475181	-0.0805842758	-0.187675
O	-1.2278440997	-1.8777256365	-0.295689071	-0.245401
C	-0.1200597946	-2.6449183979	-0.4081524246	 0.41131
O	-0.1938253206	-3.8280822655	-0.5917633266	-0.316412
C	 1.1532289753	-1.876920216	-0.2763082038	 0.297499
O	 2.2486582675	-2.6166081706	-0.3431572516	-0.358217
N	 1.2086929606	-0.6060707654	-0.108969092	-0.372771
H	 0.9242613631	 1.7505034064	 0.4956149399	 0.267467
H	-0.767148635	 1.8866641561	 0.3174514962	 0.27232
H	 3.0072927099	-2.0192878248	-0.2499507947	 0.315374
87.1265	195.3696	282.1589	320.1111	346.3405	421.4596	423.927	497.9129	532.9311	555.8056	606.1437	640.3157	684.7248	727.4132	811.9601	822.9324	965.7449	1039.5845	1145.2626	1192.5833	1247.872	1438.3811	1472.2446	1597.5667	1642.9641	1694.8438	1843.2054	3586.9675	3704.758	3738.4584
NC1=NOC(=O)C(O)=N1	Nc1noc(=O)c(O)n1	
InChI=1S/C3H3N3O3/c4-3-5-1(7)2(8)9-6-3/h(H3,4,5,6,7)	InChI=1S/C3H3N3O3/c4-3-5-1(7)2(8)9-6-3/h(H3,4,5,6,7)
