22
gdb 5836	2.57123	1.57448	1.29458	2.7159	78.21	-0.2427	-0.0194	0.2234	1088.8543	0.196272	-350.226708	-350.216296	-350.215352	-350.262634	37.8	
C	-0.1265255421	 1.5710508232	 0.0789226297	-0.433851
C	-0.0137536601	 0.0377601774	-0.0231858515	-0.04855
C	-1.4126837189	-0.5370828931	 0.1078821624	 0.152468
O	-1.7665511753	-1.3077088087	 0.9637662046	-0.257955
C	 0.7197743735	-0.4897208368	-1.3066853985	 0.246689
C	 2.1872296935	-0.0215835402	-1.2784779601	-0.410345
C	 0.702820731	-2.031331456	-1.2872096093	-0.40906
C	 0.058571419	 0.0085703798	-2.6065613882	-0.414335
H	 0.8516569589	 2.0507959984	-0.0003477966	 0.128191
H	-0.7694208358	 1.9859755022	-0.7040070189	 0.1245
H	-0.5564856263	 1.8568173596	 1.0440257282	 0.129219
H	 0.5426287392	-0.3373480121	 0.8436005954	 0.089055
H	-2.1396392918	-0.1679670891	-0.6540168868	 0.070041
H	 2.686659126	-0.3371639796	-0.3560642593	 0.113345
H	 2.7372856609	-0.4560636247	-2.1202187494	 0.112881
H	 2.2779682951	 1.0655928211	-1.3580449246	 0.113632
H	-0.3140649266	-2.4311321329	-1.3508457124	 0.122241
H	 1.2705411902	-2.4312314492	-2.1338179214	 0.108587
H	 1.1512537813	-2.4208617035	-0.367131907	 0.119247
H	 0.0661361884	 1.1002843819	-2.6766749872	 0.114829
H	 0.604546715	-0.3779745421	-3.4738002862	 0.11522
H	-0.9782528349	-0.3293850156	-2.699816073	 0.11395
16.5753	63.7738	177.0102	218.631	238.7931	249.9124	264.1093	280.9845	324.8209	336.2917	357.5316	401.9064	430.237	455.4663	551.9091	726.5627	854.1839	902.846	930.9164	933.8871	957.8372	963.2682	1009.4747	1023.9746	1090.8667	1104.3892	1160.2918	1218.0448	1242.7378	1256.4842	1309.2595	1347.4026	1397.6277	1400.8329	1406.3252	1430.5694	1438.0816	1479.3791	1482.2171	1485.5749	1495.3508	1500.4724	1509.4252	1512.9864	1517.2463	1827.5014	2849.922	3028.2473	3030.8529	3035.5975	3041.854	3044.8463	3093.4332	3096.4581	3101.6301	3102.991	3103.8133	3105.8436	3110.837	3123.1143
CC(C=O)C(C)(C)C	C[C@@H](C=O)C(C)(C)C	
InChI=1S/C7H14O/c1-6(5-8)7(2,3)4/h5-6H,1-4H3	InChI=1S/C7H14O/c1-6(5-8)7(2,3)4/h5-6H,1-4H3/t6-/m0/s1
