17
gdb 48073	2.71595	1.43681	1.04949	1.9669	75.41	-0.2439	-0.0896	0.1543	1134.3736	0.134826	-421.818339	-421.81002	-421.809076	-421.852014	30.488	
O	-0.7574425278	 1.3231651248	 0.7426996143	-0.231297
C	 0.193559096	 1.0221932913	 0.0705169742	 0.090428
C	 1.2408225493	 1.9996630726	-0.4836436855	 0.165563
O	 2.080767109	 1.5205187164	-1.2251321307	-0.313126
C	 1.1796459292	 3.4191504088	-0.1209258247	 0.253211
C	 1.7625725717	 4.4434193993	-1.0858188917	-0.30237
C	 2.4341837379	 4.2913609896	 0.2232879987	-0.068615
C	 1.6449057431	 4.9845995665	 1.337903482	-0.229466
C	 0.3830950568	 4.1300449582	 0.9840786436	-0.303065
H	 0.4074273841	-0.0190508097	-0.2533247524	 0.107998
H	 2.2718599315	 4.0011376259	-1.9343421141	 0.144077
H	 1.1669605285	 5.3277245559	-1.3001069457	 0.117708
H	 3.4465932239	 3.9130788843	 0.296217457	 0.113003
H	 2.0272281133	 4.7615463503	 2.3354815724	 0.113545
H	 1.5511377958	 6.0699939689	 1.2336257122	 0.106216
H	-0.5007118776	 4.6765514349	 0.6422306864	 0.104992
H	 0.0843133654	 3.4660508819	 1.7928460042	 0.131198
46.4409	111.5565	160.7452	176.8041	260.7867	295.5376	398.6223	470.4675	550.1564	603.9334	650.2734	719.3292	772.9952	788.1342	852.4114	916.3188	935.6419	971.3144	1014.2605	1014.9164	1035.561	1085.7057	1110.1369	1118.9999	1174.98	1218.3317	1229.0218	1248.7332	1290.019	1323.3305	1368.0329	1398.1642	1471.8503	1484.2477	1505.0234	1748.305	1823.7729	2917.6351	3053.6587	3065.6234	3113.5574	3114.897	3153.9921	3193.3707	3224.2102
O=CC(=O)C12CC1CC2	O=CC(=O)[C@]12C[C@H]1CC2	
InChI=1S/C7H8O2/c8-4-6(9)7-2-1-5(7)3-7/h4-5H,1-3H2	InChI=1S/C7H8O2/c8-4-6(9)7-2-1-5(7)3-7/h4-5H,1-3H2/t5-,7-/m1/s1
