14
gdb 19147	2.95269	2.03134	1.38888	3.7986	58.17	-0.2629	-0.0437	0.2192	872.3291	0.104818	-419.628801	-419.621307	-419.620363	-419.661092	26.448	
O	-1.1819618134	 1.468280312	 0.5857662851	-0.245745
C	-0.065664668	 1.0333988842	 0.4820132178	 0.123729
C	 1.0788388891	 1.7955043434	-0.1227281883	 0.272514
C	 2.365535297	 1.7237933722	 0.6117672418	-0.210262
O	 2.1543654437	 0.9612486976	-0.5639607543	-0.25035
C	 0.7376168241	 2.9874557115	-0.9641429994	-0.009095
C	 1.6102213095	 3.4176758569	-2.0610397088	-0.177681
O	 0.3946778193	 2.712762488	-2.3211780073	-0.228056
H	 0.2235992521	 0.0203329381	 0.8395379063	 0.093295
H	 3.051495589	 2.5638641834	 0.5190667028	 0.132488
H	 2.4330953394	 1.1541153323	 1.5377093399	 0.131241
H	 0.0900875697	 3.7103190586	-0.4704977825	 0.117195
H	 1.6179414488	 4.4657124045	-2.3559598698	 0.119253
H	 2.5190581698	 2.8559848973	-2.2640807735	 0.131473
71.8948	133.3857	171.0497	218.899	271.4806	351.7626	444.2701	508.7384	609.6777	721.6443	862.6183	873.998	886.7028	918.7937	952.8559	1031.8038	1048.9026	1101.1756	1134.7222	1161.4081	1163.645	1170.9436	1258.4158	1288.6893	1341.6532	1414.5521	1448.2096	1516.3568	1522.3963	1832.6049	2896.4736	3086.8731	3093.4918	3131.6576	3180.2922	3187.8756
O=CC1(CO1)C1CO1	O=C[C@]1(CO1)[C@H]1CO1	
InChI=1S/C5H6O3/c6-2-5(3-8-5)4-1-7-4/h2,4H,1,3H2	InChI=1S/C5H6O3/c6-2-5(3-8-5)4-1-7-4/h2,4H,1,3H2/t4-,5+/m1/s1
