16
gdb 50282	2.8526	1.21311	0.98868	2.9587	72.02	-0.2417	-0.0494	0.1923	1183.4694	0.123028	-437.855691	-437.847432	-437.846487	-437.889244	29.768	
O	-0.0984666159	-0.0558939844	-0.4473109197	-0.252862
C	-0.050423595	 1.0765905035	-0.0371358826	 0.15148
C	 1.2127597444	 1.9025451468	 0.0028409443	-0.161987
C	 1.2231277906	 3.2485527756	-0.8241433167	-0.245453
C	 1.4799078452	 4.0217791856	 0.471857151	-0.070845
N	 0.3717397872	 3.7482143905	 1.3686330025	-0.354665
C	 1.448986563	 2.7344050048	 1.2782337858	 0.224841
C	 2.2963715481	 2.4598366011	 2.4462507761	 0.05014
O	 2.3432225075	 3.1898481573	 3.4125543904	-0.279656
H	-0.9527404616	 1.6000182647	 0.3423432047	 0.103574
H	 2.0655313957	 1.268852443	-0.2489677596	 0.103901
H	 2.0530757959	 3.2766907231	-1.5306710806	 0.127751
H	 0.2939568411	 3.5138681147	-1.3341858985	 0.128589
H	 2.1340290215	 4.8711590401	 0.6265667494	 0.125572
H	 0.5420517767	 4.2427458735	 2.2471156057	 0.258456
H	 2.9170741755	 1.5419891801	 2.3777770579	 0.091163
59.2646	126.8822	141.3096	210.2998	228.7907	297.3073	413.5331	425.9597	442.0807	575.1532	731.888	747.6026	814.8365	854.3508	891.8405	924.0379	967.5787	1029.7543	1040.3697	1073.2154	1078.1102	1093.8004	1149.2461	1176.157	1208.8207	1239.8123	1272.3387	1296.9668	1355.5897	1392.5574	1420.7033	1435.4086	1473.103	1779.6968	1823.7973	2915.3033	2923.2415	3075.5495	3099.6822	3142.0375	3198.7445	3456.5187
O=CC1CC2NC12C=O	O=C[C@H]1C[C@H]2N[C@@]12C=O	
InChI=1S/C6H7NO2/c8-2-4-1-5-6(4,3-9)7-5/h2-5,7H,1H2	InChI=1S/C6H7NO2/c8-2-4-1-5-6(4,3-9)7-5/h2-5,7H,1H2/t4-,5-,6+/m1/s1
