16
gdb 29916	3.42379	1.31278	0.95692	4.765	82.81	-0.1922	0.0196	0.2118	1184.2195	0.12458	-396.93442	-396.92549	-396.924546	-396.9679	32.665	
C	-0.056756239	 1.4570985899	 0.0289625404	-0.34727
N	-0.0007870428	 0.0108589811	 0.0041992145	-0.022871
C	 0.011015277	-0.8108847486	-1.1007722246	-0.027832
N	 0.0265723741	-2.0763451854	-0.7846397407	-0.327814
C	 0.0436735101	-2.1075656147	 0.6033736407	 0.113439
C	 0.0595532334	-3.2838958668	 1.384098466	 0.212749
C	 0.077730136	-4.2549166609	 2.0993538029	-0.432206
C	 0.0268666251	-0.8149320126	 1.1002372939	 0.189263
N	-0.0647614867	-0.3179760208	 2.4002464956	-0.621036
H	 0.9224169297	 1.8984236211	 0.2484216658	 0.137813
H	-0.3881847916	 1.8174776554	-0.9465071858	 0.148864
H	-0.7681224189	 1.7838660201	 0.7920242431	 0.159853
H	 0.0128102235	-0.4038364002	-2.1014093979	 0.124318
H	 0.0890547984	-5.1243398679	 2.7079704738	 0.181383
H	-0.1356307534	-1.0869388835	 3.0573907193	 0.261796
H	 0.7207397053	 0.2669419739	 2.668215093	 0.249552
105.1666	110.3391	130.3263	214.1525	244.1577	265.8035	285.3636	395.7284	462.2894	508.314	534.6278	580.2765	642.3375	673.7872	730.272	734.6816	760.9398	784.4875	823.6822	1011.0936	1070.7791	1152.602	1180.3821	1225.2082	1283.4566	1313.1768	1390.7177	1447.9394	1481.1582	1487.1239	1515.0602	1552.8643	1593.3497	1657.648	2221.2331	3031.96	3101.2156	3141.7855	3244.638	3498.2748	3504.3209	3591.6695
CN1C=NC(C#C)=C1N	Cn1cnc(C#C)c1N	
InChI=1S/C6H7N3/c1-3-5-6(7)9(2)4-8-5/h1,4H,7H2,2H3	InChI=1S/C6H7N3/c1-3-5-6(7)9(2)4-8-5/h1,4H,7H2,2H3
