13
gdb 24377	3.8983	1.69089	1.18812	1.0718	65.73	-0.2175	-0.0348	0.1827	932.1521	0.092842	-452.779887	-452.773659	-452.772715	-452.810986	23.268	
C	-0.0225754863	 1.495387958	 0.1225982737	-0.178458
O	 1.263240973	 2.0058026307	-0.3511365775	-0.23672
C	 2.2532179181	 1.1995202908	-0.7719215258	 0.139517
N	 2.2801850204	-0.0794889592	-0.8420817861	-0.356575
C	 1.0968282028	-0.6245782619	-0.4095233251	 0.339179
C	-0.0065936483	 0.0071243651	 0.0470053012	 0.169169
N	-0.975425968	-0.9215341247	 0.3786048627	-0.325877
C	-0.4054279728	-2.0557579332	 0.105292076	 0.045915
O	 0.8613211157	-1.9652555772	-0.380956068	-0.175705
H	-0.1566355941	 1.8746810914	 1.1429960178	 0.139229
H	-0.7954394803	 1.9516688901	-0.5079086355	 0.139227
H	 3.1117201837	 1.7906599904	-1.0765850671	 0.145732
H	-0.8091687938	-3.0491565403	 0.2152532037	 0.155366
76.5942	234.5821	245.904	426.4161	484.7282	538.3708	642.2984	663.2099	746.5789	766.1457	811.5685	853.828	918.865	947.1282	953.2998	1056.5184	1103.9533	1141.1955	1180.5805	1215.4534	1281.8685	1311.6197	1376.2283	1420.4135	1434.411	1525.2373	1528.8294	1645.9847	1673.866	3018.7902	3047.9907	3194.5671	3285.8098
C1OC=NC2=C1N=CO2	C1OC=Nc2c1nco2	
InChI=1S/C5H4N2O2/c1-4-5(7-2-8-1)9-3-6-4/h2-3H,1H2	InChI=1S/C5H4N2O2/c1-4-5(7-2-8-1)9-3-6-4/h2-3H,1H2
