15
gdb 50196	2.91932	1.3779	1.26809	5.3172	65.01	-0.2644	-0.0354	0.2289	1020.2819	0.112161	-457.77715	-457.769647	-457.768703	-457.809969	27.336	
O	-0.8824227366	 1.5169808152	-0.3737106259	-0.232165
C	 0.032531095	 1.348277038	 0.3887025468	 0.15728
C	 1.4133702169	 1.9269681477	 0.1913213424	-0.115888
C	 1.6006994945	 3.0034312297	-0.9122087313	-0.265319
C	 2.1168982951	 4.0128090069	 0.1676403672	-0.226364
C	 1.8718982039	 2.9529650692	 1.2672065601	 0.086591
O	 0.76138491	 3.7420260799	 1.7908114976	-0.252612
C	 0.9778201907	 4.7519360907	 0.8633968539	 0.462841
O	 0.3914902351	 5.777471899	 0.7664445368	-0.311367
H	-0.0866432452	 0.7393050571	 1.3122125028	 0.088136
H	 2.1278443955	 1.0985733116	 0.1197790086	 0.110759
H	 2.3604788368	 2.7489048198	-1.6513307854	 0.124569
H	 0.6826853481	 3.2901181247	-1.4262481228	 0.151555
H	 3.046722712	 4.5485937454	-0.0064764686	 0.116116
H	 2.5649262581	 2.6675789951	 2.0561159379	 0.105868
60.0727	106.5174	191.5855	206.3083	280.1093	429.3897	506.8946	603.9957	647.6495	734.9711	790.1887	793.9215	855.1253	895.8542	900.6888	946.2277	985.4113	1001.522	1052.6047	1089.5229	1100.9451	1112.301	1157.9794	1217.7148	1232.3853	1240.0204	1287.8312	1316.2383	1327.6483	1420.1018	1487.758	1830.9692	1947.6587	2888.2646	3050.8372	3092.9895	3138.054	3148.0198	3156.7915
O=CC1CC2C1OC2=O	O=C[C@H]1C[C@@H]2[C@H]1OC2=O	
InChI=1S/C6H6O3/c7-2-3-1-4-5(3)9-6(4)8/h2-5H,1H2	InChI=1S/C6H6O3/c7-2-3-1-4-5(3)9-6(4)8/h2-5H,1H2/t3-,4-,5+/m1/s1
