18
gdb 46502	3.78442	1.27029	1.0951	3.0266	74.02	-0.2532	0.019	0.2722	1127.0364	0.148666	-439.074581	-439.066742	-439.065798	-439.107076	30.396	
N	-0.0983495089	 1.2067088822	-0.422399521	-0.509422
C	 0.0006741942	 0.0283680851	 0.0253154849	 0.37412
C	-1.2459002708	-0.8189698396	 0.2021123134	-0.173005
O	-1.1262501129	-1.8138461941	 1.2084548701	-0.28489
C	 0.0374049873	-2.5680901069	 1.0094034247	 0.415197
C	 0.0190930301	-3.963442087	 1.5357609788	-0.335063
C	-0.0208128663	-3.7227660683	 0.0384001412	-0.323728
C	 1.2578443651	-1.7043227637	 1.1380796493	-0.13578
O	 1.2042065737	-0.5649864836	 0.2583481124	-0.253394
H	 0.8299477014	 1.6175569293	-0.5444961432	 0.220251
H	-2.0769518097	-0.1691260168	 0.4747063265	 0.146163
H	-1.4737061746	-1.2877184783	-0.7683258908	 0.119106
H	 0.9253399129	-4.3635538185	 1.9778010115	 0.119673
H	-0.9001854083	-4.2790628876	 2.0153277035	 0.134825
H	-0.9661287754	-3.8936997368	-0.4638592309	 0.127737
H	 0.8592866177	-3.9562137585	-0.5507993375	 0.121384
H	 1.3467117786	-1.3375971419	 2.1689228587	 0.11903
H	 2.170664596	-2.2440721751	 0.8751679984	 0.117795
70.8824	148.8844	197.9808	267.5977	331.7389	392.2428	433.9337	466.7159	516.2763	548.4823	684.9979	761.7916	774.5843	819.2773	885.6437	910.8779	937.3929	950.8211	993.6607	1005.8916	1047.678	1053.9969	1069.196	1085.0341	1103.9373	1149.4662	1188.9429	1248.8978	1269.8126	1289.4421	1334.575	1355.8269	1388.1682	1438.0799	1454.4482	1475.7675	1498.1531	1502.859	1755.1962	2985.4758	3024.1158	3103.1244	3136.9085	3139.8268	3141.3044	3221.6696	3234.8359	3460.5401
N=C1COC2(CC2)CO1	[NH][C]1COC2(CC2)CO1	
InChI=1S/C6H9NO2/c7-5-3-9-6(1-2-6)4-8-5/h7H,1-4H2	InChI=1S/C6H9NO2/c7-5-3-9-6(1-2-6)4-8-5/h7H,1-4H2
