21
gdb 32423	2.83794	1.19765	0.9132	0.8117	86.64	-0.2024	0.0306	0.233	1358.362	0.181334	-387.142575	-387.13255	-387.131606	-387.177786	36.151	
C	 0.0160176757	 1.5533539082	 0.1374585762	-0.367714
C	-0.0723050093	 0.0306543089	-0.0676568312	-0.3002
C	 0.6904559369	-0.46044627	-1.2632536687	 0.197041
C	 0.1813304724	-0.8054101628	-2.473421462	-0.138249
O	 1.1674969025	-1.191878552	-3.3274510915	-0.18782
C	 2.3476211176	-1.0957530246	-2.6456832269	 0.281511
C	 3.5695853386	-1.4812793629	-3.4008691361	-0.491195
C	 2.1215192125	-0.6525140208	-1.3755237161	 0.061445
C	 3.1329140426	-0.4226839813	-0.2943743343	-0.513909
H	 1.0518882402	 1.8786256684	 0.2749475118	 0.119982
H	-0.3843664486	 2.0845996961	-0.7314430192	 0.119532
H	-0.5527292623	 1.8627873709	 1.0203522868	 0.109466
H	 0.2942372692	-0.4741879552	 0.835424503	 0.10183
H	-1.1250280536	-0.2569650733	-0.1696812818	 0.102108
H	-0.8216920934	-0.838173359	-2.867797093	 0.125572
H	 3.5035300259	-2.5110473013	-3.7705483874	 0.135793
H	 3.7270930102	-0.832698169	-4.2707837694	 0.1357
H	 4.4518327009	-1.4064032124	-2.7617195355	 0.13141
H	 3.2224858935	 0.6386273268	-0.0331693468	 0.128909
H	 2.8636004926	-0.9544792575	 0.625924263	 0.126853
H	 4.1260128559	-0.7694465372	-0.5925841409	 0.121935
64.9001	98.8777	112.3882	131.34	188.659	219.4312	267.4665	282.3248	287.5141	411.3721	453.2392	563.0297	630.5746	681.5	691.4761	732.9588	752.9109	793.1235	925.6995	965.708	973.6416	1056.9984	1062.283	1065.8269	1086.7602	1129.5441	1171.3403	1182.4171	1243.8301	1294.9046	1300.4657	1359.9059	1404.2598	1408.3982	1426.1277	1432.6192	1472.5292	1479.8258	1485.0857	1491.0339	1496.3361	1498.095	1506.4947	1602.4605	1677.5389	3021.3788	3023.9597	3028.1249	3035.8269	3058.9063	3069.1244	3075.5672	3105.5054	3108.5626	3111.8049	3129.2947	3265.342
CCC1=COC(C)=C1C	CCc1coc(C)c1C	
InChI=1S/C8H12O/c1-4-8-5-9-7(3)6(8)2/h5H,4H2,1-3H3	InChI=1S/C8H12O/c1-4-8-5-9-7(3)6(8)2/h5H,4H2,1-3H3
