16
gdb 44785	2.45637	2.18954	1.57	2.5127	69.12	-0.222	-0.0252	0.1968	873.3921	0.124675	-437.745427	-437.738725	-437.737781	-437.776253	27.329	
O	 0.0564768563	 0.1043760254	 0.1044823043	-0.3203
C	-0.021436914	 1.2981170407	 0.0514960669	 0.36702
C	-1.2280927795	 2.2378638	 0.1638814434	-0.278764
N	-0.5633574666	 3.5551071718	-0.0212367545	-0.167942
C	 0.6651179758	 3.3795099419	 0.9152463776	-0.276422
C	 1.1035735848	 2.3265283517	-0.1933279684	 0.283515
O	 2.0882036246	 1.8430905525	-1.1464389081	-0.345941
C	 1.1213966368	 2.2738172786	-2.2029489893	-0.165145
C	 0.5224062499	 3.2729951975	-1.1492965514	-0.023569
H	-1.9660221367	 2.0505089545	-0.6216709308	 0.138311
H	-1.7294403468	 2.1903974704	 1.1342601761	 0.138564
H	 1.268959417	 4.2851481446	 0.9313223182	 0.139774
H	 0.4090876115	 3.0452327431	 1.9240835135	 0.127602
H	 1.637474257	 2.7247053537	-3.0524504338	 0.131438
H	 0.4995989663	 1.4300716141	-2.5139249084	 0.139522
H	 1.0680552434	 4.2126751995	-1.2282787453	 0.112337
135.1222	240.4748	298.7086	350.7621	444.6847	499.151	547.8269	591.7676	628.6919	670.4249	706.5498	745.6791	822.0109	825.1887	901.6687	943.9549	975.1169	999.4606	1015.2238	1050.203	1062.7257	1111.6166	1122.8791	1138.8322	1183.9197	1202.1554	1215.0577	1246.6564	1280.0833	1301.5642	1399.721	1461.3861	1497.9104	1509.5408	1881.7719	3061.3703	3063.4364	3071.0843	3105.6728	3113.9944	3139.6253	3162.4457
O=C1CN2CC11OCC21	O=C1CN2C[C@]31OC[C@@H]23	
InChI=1S/C6H7NO2/c8-5-1-7-3-6(5)4(7)2-9-6/h4H,1-3H2	InChI=1S/C6H7NO2/c8-5-1-7-3-6(5)4(7)2-9-6/h4H,1-3H2/t4-,6+/m1/s1
