15
gdb 46242	2.77528	1.38607	1.10399	4.1224	72.46	-0.2581	-0.0037	0.2544	1096.3325	0.111372	-420.598537	-420.590455	-420.589511	-420.631475	29.921	
O	-0.0543991282	 0.0723203296	-0.2097093706	-0.330036
C	 0.0067769172	 1.2343925506	 0.0237361591	 0.444149
O	-0.9973594107	 2.0666442781	 0.4796906888	-0.252802
C	-0.1032649809	 3.2267678165	 0.513855422	-0.147579
C	 1.0239847045	 2.3427231748	 0.0010366524	 0.10529
C	 2.4768896194	 2.2607849631	 0.3486819619	-0.342448
C	 2.0724529792	 2.6215852316	-1.0660123711	-0.266372
C	 2.2732588798	 1.7090877191	-2.1526408673	 0.342163
C	 2.4510955595	 0.9582438463	-3.0738487442	-0.433954
H	-0.4570166423	 4.0105335525	-0.1598891949	 0.130822
H	 0.0003737827	 3.6062117757	 1.5333228885	 0.130035
H	 2.8965060051	 3.0469375788	 0.9667813785	 0.133321
H	 2.8820995102	 1.2687023775	 0.5120305425	 0.155788
H	 2.1683332868	 3.6738296004	-1.3228517441	 0.126344
H	 2.5963595878	 0.2825601253	-3.8801053514	 0.20528
89.4243	101.742	173.1223	236.3646	239.667	326.4943	462.8262	499.6548	512.8724	610.9426	662.0742	665.032	755.8333	783.6933	792.9194	869.3624	888.5471	956.0823	972.5656	1068.0804	1076.5301	1090.0644	1095.8602	1127.8104	1147.2967	1215.0716	1300.4584	1353.8009	1423.3059	1481.6757	1515.2333	1943.2186	2245.366	3064.0743	3123.5925	3137.4103	3139.6629	3235.1937	3503.772
O=C1OCC11CC1C#C	O=C1OC[C@]21C[C@H]2C#C	
InChI=1S/C7H6O2/c1-2-5-3-7(5)4-9-6(7)8/h1,5H,3-4H2	InChI=1S/C7H6O2/c1-2-5-3-7(5)4-9-6(7)8/h1,5H,3-4H2/t5-,7-/m1/s1
