21
gdb 118557	2.8582	0.75387	0.63957	2.1507	76.75	-0.2462	-0.0275	0.2187	1743.5198	0.178606	-461.351139	-461.339803	-461.338859	-461.389773	38.093	
C	-0.3771786242	 1.4085388254	 0.1667512834	-0.249771
O	 0.0250115821	 0.0774565511	-0.0838010951	-0.253925
C	 0.6971723912	-0.566862415	 0.9953807769	 0.090359
C	 0.1034116409	-1.9675389917	 1.1617639269	-0.199566
C	-1.3710023224	-1.9523564116	 1.571826162	-0.072827
O	-1.8989466824	-3.2578316858	 1.7467529415	-0.417063
C	 2.2184877311	-0.6412436226	 0.7197634568	-0.271748
C	 2.8522156365	 0.7170638968	 0.5229623323	 0.144295
O	 3.5607689561	 1.2602296086	 1.3332789091	-0.243633
H	 0.4737074029	 2.0731211608	 0.3765847109	 0.116832
H	-0.8814025177	 1.7643426794	-0.7352417344	 0.131927
H	-1.0780810912	 1.4710734653	 1.0118432403	 0.114394
H	 0.5383707115	 0.0058849561	 1.9217346585	 0.086966
H	 0.2107091559	-2.4998073755	 0.206725408	 0.097065
H	 0.6764151811	-2.5256532814	 1.9101881771	 0.109135
H	-1.4836221441	-1.4575633687	 2.543477339	 0.108516
H	-1.951887609	-1.3753581385	 0.8390265108	 0.102841
H	-1.9159258211	-3.6855986596	 0.8847467293	 0.281869
H	 2.718267405	-1.1356659425	 1.5576525278	 0.121683
H	 2.3649948375	-1.2336655958	-0.1921507164	 0.116978
H	 2.6150993605	 1.2075044952	-0.4469969647	 0.085673
33.1308	52.0003	71.34	85.432	110.3889	154.7761	179.5617	253.5635	297.4613	308.2443	331.9441	363.8625	458.2838	525.0759	568.9254	772.6469	843.641	879.9311	943.1605	1000.339	1013.0252	1076.3598	1089.4127	1101.3936	1111.7081	1143.1151	1171.8604	1182.5169	1210.8201	1256.822	1265.0386	1311.2071	1326.5227	1358.645	1391.1258	1405.9139	1418.5413	1426.2796	1457.3601	1474.8998	1483.7835	1490.6133	1509.3888	1516.9742	1825.893	2885.5115	2982.0643	2993.4236	3009.0928	3020.8644	3034.8192	3035.1954	3060.2698	3085.2054	3108.0339	3114.7632	3816.955
COC(CCO)CC=O	CO[C@@H](CCO)CC=O	
InChI=1S/C6H12O3/c1-9-6(2-4-7)3-5-8/h4,6,8H,2-3,5H2,1H3	InChI=1S/C6H12O3/c1-9-6(2-4-7)3-5-8/h4,6,8H,2-3,5H2,1H3/t6-/m1/s1
