16
gdb 106028	2.66871	1.69371	1.28427	3.5474	68.72	-0.2181	-0.0004	0.2177	1000.7622	0.123652	-437.803805	-437.795988	-437.795043	-437.836579	29.143	
C	 0.0356639733	 1.3226462333	 0.2210222329	-0.26535
O	-0.0744726013	-0.0395359823	-0.1906753816	-0.28463
C	-1.3449396239	-0.5228299313	-0.1290589844	 0.299701
C	-1.9760235087	-1.0675782062	 1.1632561641	-0.102413
N	-3.4482969787	-0.9694069474	 1.0002929289	-0.326498
C	-3.2026433351	-1.5439580614	-0.3751495062	-0.196612
C	-1.7530825056	-2.0198083419	 0.0330452197	-0.16443
C	-2.4925174505	-0.3628916079	-1.0830807895	 0.426303
O	-2.6696200689	 0.2371399467	-2.1037643527	-0.346866
H	 1.0910647332	 1.5871543294	 0.1382542791	 0.135441
H	-0.5574435855	 1.9772191363	-0.427570757	 0.143619
H	-0.2932741226	 1.4512619346	 1.2604659271	 0.117227
H	-1.454741406	-0.9594174987	 2.106509498	 0.114126
H	-3.8590989536	-1.7124443708	 1.5669559848	 0.222806
H	-3.9868409374	-2.1171280991	-0.8601565666	 0.101477
H	-1.1424867088	-2.8905582834	-0.1606721167	 0.126099
60.0953	155.2984	170.6125	182.4978	281.086	389.0226	465.5669	490.1388	611.513	676.7578	722.9349	783.3487	795.2088	831.0757	864.4952	923.2996	939.7243	969.2668	994.601	1031.4721	1046.3231	1063.9802	1139.3778	1156.0322	1162.8177	1178.1214	1217.5375	1233.512	1327.5947	1364.9439	1412.906	1486.1155	1495.3228	1504.6942	1887.8147	3011.6691	3079.9908	3138.4185	3176.1284	3196.3519	3219.1293	3440.1521
COC12C3NC(C13)C2=O	CO[C@]12[C@H]3N[C@H]([C@@H]13)C2=O	
InChI=1S/C6H7NO2/c1-9-6-2-3(5(6)8)7-4(2)6/h2-4,7H,1H3	InChI=1S/C6H7NO2/c1-9-6-2-3(5(6)8)7-4(2)6/h2-4,7H,1H3/t2-,3-,4+,6+/m1/s1
