16
gdb 85599	2.90407	1.37164	0.97136	2.7646	65.3	-0.257	-0.0378	0.2192	1141.2137	0.124796	-475.081475	-475.073365	-475.072421	-475.114746	30.3	
O	 0.2403116073	 1.2698464798	 0.3671806981	-0.436023
C	 0.1096133463	-0.0825340709	 0.0399273778	 0.022265
C	-1.3557665823	-0.5360938343	 0.0940716891	-0.324154
C	-1.483169782	-1.999213812	-0.2807614771	 0.371884
O	-2.2926048559	-2.7529358955	 0.1975165105	-0.293578
C	-0.4813162485	-2.5287552652	-1.3211350706	-0.26163
N	 0.3207716122	-1.4916753154	-1.947999089	-0.323235
C	 0.6738959247	-0.3197139355	-1.3648755422	 0.384955
O	 1.3645839393	 0.528685273	-1.9059992058	-0.391542
H	 0.8324837167	 1.6322457234	-0.314477877	 0.296231
H	 0.6962246888	-0.7076101815	 0.7387699428	 0.098974
H	-1.7946725851	-0.3756149652	 1.0805582573	 0.145849
H	-1.9322733154	 0.0595642495	-0.626828051	 0.143602
H	 0.1383445881	-3.2810500055	-0.8105530754	 0.149694
H	-1.0526389182	-3.0608090674	-2.0870227348	 0.155749
H	 0.7154119541	-1.6629013672	-2.8615581326	 0.260959
48.8372	127.8783	151.427	313.3339	335.5602	378.9641	422.5779	460.9173	489.1177	528.8007	561.0738	609.6213	649.5925	720.8776	782.2543	813.6271	907.6658	996.3454	1070.9589	1085.8806	1138.2188	1155.1952	1216.6675	1246.8922	1274.7302	1281.994	1321.0722	1365.4308	1389.4111	1454.0986	1455.2592	1464.9797	1502.32	1787.477	1830.8901	2930.5531	3000.6349	3032.5026	3090.817	3121.8023	3610.3996	3652.3935
OC1CC(=O)CNC1=O	O[C@H]1CC(=O)CNC1=O	
InChI=1S/C5H7NO3/c7-3-1-4(8)5(9)6-2-3/h4,8H,1-2H2,(H,6,9)	InChI=1S/C5H7NO3/c7-3-1-4(8)5(9)6-2-3/h4,8H,1-2H2,(H,6,9)/t4-/m0/s1
