18
gdb 13690	5.04994	0.84363	0.79893	3.4714	69.51	-0.2445	-0.017	0.2275	1416.7939	0.151684	-384.928799	-384.919869	-384.918924	-384.963471	31.486	
O	-0.0866631308	 1.4769573172	 0.4448943231	-0.416561
C	-0.0057357093	 0.101395628	 0.2050002003	 0.088228
C	-0.6906012174	-0.8610090092	 1.1438473586	-0.32629
C	-1.2673329739	-0.5848317015	-0.2336713485	-0.011188
C	-2.5588965091	 0.1914470222	-0.3791627061	-0.216415
C	-3.8034645123	-0.6877182227	-0.1518578783	-0.266119
C	-5.0831985975	 0.0738062789	-0.4046927407	 0.160401
O	-5.9866027836	 0.1950831316	 0.3820620437	-0.239071
H	 0.4581847127	 1.6775056792	 1.2127543971	 0.290124
H	 0.9257792682	-0.2228326162	-0.259166172	 0.087563
H	-0.229271374	-1.8215302733	 1.3459002439	 0.112479
H	-1.2129514913	-0.4204602305	 1.9875980251	 0.116658
H	-1.1350329404	-1.3757798138	-0.9682463262	 0.086472
H	-2.559080324	 1.0285610143	 0.3248348225	 0.125105
H	-2.6048239415	 0.6355837803	-1.3823929516	 0.104836
H	-3.7800461372	-1.5329480361	-0.8560934953	 0.113943
H	-3.8288561661	-1.0946463748	 0.86280312	 0.121981
H	-5.1401990425	 0.5457963165	-1.4150826356	 0.067854
51.2394	73.6574	98.8489	134.6351	248.7034	282.6675	303.7566	365.5863	462.7199	501.3286	584.6077	760.4103	774.0853	831.7595	852.4632	886.261	960.0845	996.3681	1010.3088	1043.1814	1075.0031	1105.6525	1136.5823	1160.8877	1177.6106	1225.8094	1239.6659	1265.8377	1296.4548	1311.0515	1357.3802	1405.6073	1427.5198	1431.0416	1464.2189	1489.9995	1499.5157	1836.2507	2843.7115	3007.16	3024.721	3088.0131	3095.6342	3104.4674	3127.1432	3135.7605	3216.1816	3809.9701
OC1CC1CCC=O	O[C@H]1C[C@H]1CCC=O	
InChI=1S/C6H10O2/c7-3-1-2-5-4-6(5)8/h3,5-6,8H,1-2,4H2	InChI=1S/C6H10O2/c7-3-1-2-5-4-6(5)8/h3,5-6,8H,1-2,4H2/t5-,6+/m1/s1
