23
gdb 120319	3.1774	0.94063	0.90034	1.3806	85.5	-0.2319	0.086	0.3179	1469.8891	0.206675	-388.284006	-388.274745	-388.273801	-388.318992	34.618	
C	 0.0362767893	 1.5422641918	 0.0854754498	-0.382064
C	 0.2046920026	 0.0223180188	 0.0233769225	-0.158836
C	 0.5216602637	-0.4879423297	-1.389678005	-0.191268
C	 0.664540315	-1.9931197514	-1.4387370195	-0.043255
C	 1.3419644057	-2.7540964206	-2.5726121975	-0.112675
C	 2.2738933714	-2.0000400901	-3.5220593945	-0.257542
C	 3.5474464262	-1.8074328049	-2.669302401	-0.05993
O	 3.133339052	-1.8658268649	-1.3002353508	-0.259078
C	 1.9901563111	-2.6804578235	-1.216320996	 0.077706
H	 0.949296153	 2.0545466175	-0.2380220849	 0.114525
H	-0.7785763488	 1.8786834377	-0.5657456609	 0.110414
H	-0.1904695544	 1.878555243	 1.1021474834	 0.109515
H	 1.0097529639	-0.2899592678	 0.6996083116	 0.108098
H	-0.7093946232	-0.4640729993	 0.3893999677	 0.089256
H	-0.2718168826	-0.1697593065	-2.0800853326	 0.088387
H	 1.4461589464	-0.0133821425	-1.7336567663	 0.102871
H	-0.1852545929	-2.5270555117	-1.0154727618	 0.078419
H	 0.8751772413	-3.6666951718	-2.9241768913	 0.086671
H	 2.4788904575	-2.5863095617	-4.4218154571	 0.103208
H	 1.8564478121	-1.0412593742	-3.8447543167	 0.108661
H	 4.2755278817	-2.6072547827	-2.8736060048	 0.093174
H	 4.042420166	-0.8443609924	-2.8255614052	 0.105741
H	 2.0918215529	-3.529839473	-0.5469586291	 0.088
47.9484	79.9469	107.2418	146.4345	235.4482	252.4463	254.9375	368.8128	478.6164	575.0399	647.6401	724.0503	745.5054	774.3373	796.6719	853.4383	877.547	903.0283	909.1337	954.6219	985.6599	1005.2579	1030.5098	1043.9115	1072.4593	1086.3329	1112.548	1134.1518	1140.9461	1157.9227	1216.6456	1222.4939	1245.0441	1268.5147	1298.5061	1302.2483	1316.7445	1330.5707	1358.7929	1387.5224	1395.9369	1410.705	1437.3941	1477.7388	1491.4431	1495.6133	1499.1969	1509.0389	1519.2619	2986.2003	3010.7383	3018.0643	3027.6153	3050.6839	3053.4239	3077.12	3080.9302	3095.3076	3098.6714	3099.9234	3115.4254	3144.6497	3174.9261
CCCC1C2CCOC12	CCC[C@H]1[C@H]2CCO[C@@H]12	
InChI=1S/C8H14O/c1-2-3-6-7-4-5-9-8(6)7/h6-8H,2-5H2,1H3	InChI=1S/C8H14O/c1-2-3-6-7-4-5-9-8(6)7/h6-8H,2-5H2,1H3/t6-,7+,8-/m0/s1
