17
gdb 111915	2.28938	1.42498	0.9203	4.7926	71.23	-0.2284	0.0034	0.2318	1236.7121	0.138198	-451.376084	-451.367328	-451.366384	-451.409599	32.669	
N	-0.0350391078	 1.4924826408	 0.1352085053	-0.514978
C	 0.0248529541	 0.0437277402	-0.043909569	-0.142773
C	-1.3993313724	-0.518153125	-0.0625471492	-0.103679
N	-2.1565713268	-0.0551628392	-1.2306230547	-0.329821
C	-2.5593932586	-1.1077433834	-1.8399249938	 0.435448
N	-3.3791804426	-1.1325466745	-2.9439087239	-0.582135
N	-2.1597675339	-2.3199052362	-1.2721675969	-0.381476
C	-1.4184870502	-2.0530259996	-0.1238096078	 0.416431
O	-0.9267280236	-2.8676209636	 0.6161783463	-0.369633
H	 0.8974922279	 1.8884909728	 0.0723789744	 0.223736
H	-0.5754682825	 1.8874851215	-0.6295846988	 0.239214
H	 0.5363686546	-0.282195448	-0.966809833	 0.076913
H	 0.557905314	-0.4061616442	 0.8009023434	 0.120782
H	-1.8965178828	-0.1939632346	 0.8612822915	 0.12405
H	-3.4831000118	-0.2178431162	-3.361244739	 0.267818
H	-3.1864400908	-1.8550439677	-3.6230660824	 0.255685
H	-2.4590891869	-3.242507963	-1.5439668422	 0.264417
89.7037	125.913	158.3858	180.2391	281.2196	316.407	355.9391	381.5865	422.854	471.9483	578.3222	617.426	641.8913	652.5083	723.2576	751.6995	869.8012	872.1127	953.9793	992.4007	1046.991	1055.1248	1126.7539	1155.0379	1195.1556	1200.4832	1257.1231	1295.2609	1299.859	1338.2934	1420.942	1486.0662	1506.6887	1627.1127	1650.0222	1731.0345	1854.7625	2941.644	3030.4674	3067.554	3491.6943	3560.1344	3572.2475	3648.9967	3664.8623
NCC1N=C(N)NC1=O	NC[C@H]1N=C(N)NC1=O	
InChI=1S/C4H8N4O/c5-1-2-3(9)8-4(6)7-2/h2H,1,5H2,(H3,6,7,8,9)	InChI=1S/C4H8N4O/c5-1-2-3(9)8-4(6)7-2/h2H,1,5H2,(H3,6,7,8,9)/t2-/m1/s1
