22
gdb 115805	3.8343	1.06136	0.94297	1.9324	82.92	-0.2267	0.0769	0.3036	1346.1702	0.194688	-404.332822	-404.323697	-404.322753	-404.366459	34.936	
C	-0.2079658319	 1.3165319182	 0.0355560944	-0.233013
O	 0.1925995031	-0.0260234404	-0.1024799706	-0.247944
C	 0.77776515	-0.5702390584	 1.061478536	 0.180599
C	-0.2077077651	-0.8318029109	 2.2308457818	-0.260394
C	 0.4046061663	-2.0153551807	 3.0115714784	-0.258274
C	 1.1747122995	-2.8107262185	 1.9608558945	 0.345415
C	 2.1573354033	-3.8651234116	 2.3967578412	-0.491425
N	 0.3533140118	-3.0159640868	 0.7462499248	-0.365397
C	 1.3686493547	-1.9349561366	 0.7781061308	-0.129857
H	 0.631154493	 1.9633483517	 0.3409229562	 0.097253
H	-0.5693707054	 1.6491549118	-0.9408170652	 0.124452
H	-1.018566529	 1.4392386354	 0.7690040661	 0.106236
H	 1.5942500113	 0.0939157701	 1.40028233	 0.054909
H	-0.3684283474	 0.0468086861	 2.8599519776	 0.08974
H	-1.1651114404	-1.1242911824	 1.793807529	 0.130664
H	 1.108345734	-1.6607980074	 3.7751174918	 0.093803
H	-0.3546047938	-2.6183837002	 3.5211522534	 0.100575
H	 1.646135534	-4.6938473611	 2.9009369526	 0.124146
H	 2.7029845924	-4.2785466515	 1.5417262961	 0.113068
H	 2.8926014053	-3.4557404361	 3.0986084904	 0.121353
H	 0.7358552658	-3.7971722164	 0.2177089965	 0.223858
H	 2.2413343385	-2.0149397642	 0.1377357241	 0.080234
83.4878	122.4169	189.0911	208.5471	223.3909	238.7102	322.812	351.6801	413.2953	439.241	508.603	566.5125	652.0025	696.1292	846.5	857.5793	872.8956	922.7491	958.1658	975.4831	994.7268	1031.4526	1039.5823	1058.0152	1088.6922	1117.4672	1150.9296	1157.5737	1182.5424	1214.8648	1223.9578	1232.3539	1290.1358	1301.6313	1320.2638	1352.6885	1363.6888	1395.2756	1418.1068	1448.9681	1479.0427	1481.8684	1486.1249	1488.8899	1496.6494	1504.222	1510.3851	2931.8154	2967.7869	3019.3171	3021.5831	3029.4306	3068.5651	3074.3655	3084.0656	3094.7315	3109.7999	3122.3877	3163.1736	3491.8126
COC1CCC2(C)NC12	CO[C@H]1CC[C@@]2(C)N[C@@H]12	
InChI=1S/C7H13NO/c1-7-4-3-5(9-2)6(7)8-7/h5-6,8H,3-4H2,1-2H3	InChI=1S/C7H13NO/c1-7-4-3-5(9-2)6(7)8-7/h5-6,8H,3-4H2,1-2H3/t5-,6-,7+/m0/s1
