18
gdb 8690	2.49591	1.74086	1.43886	1.8264	69.79	-0.2559	0.0278	0.2836	979.3692	0.149929	-384.890881	-384.88118	-384.880236	-384.924838	35.106	
C	-0.0381722786	 1.3861170295	 0.0739960663	-0.254921
O	-0.1411702725	-0.0129734504	-0.1405890895	-0.282358
C	 0.641321361	-0.5738128807	-1.2114178194	 0.120443
C	 0.5810242759	-2.0905410223	-0.9871173731	-0.407359
C	-0.0284906236	-0.1882755291	-2.5568406274	-0.069683
O	-1.3966237916	-0.525871999	-2.5478811848	-0.426045
C	 2.0306674288	-0.1038002598	-1.1960634092	 0.325863
C	 3.1697554824	 0.2803449571	-1.2206560131	-0.468928
H	 0.9939779005	 1.6866986965	 0.286586589	 0.129532
H	-0.4057763368	 1.9730134447	-0.778970492	 0.113028
H	-0.6635810583	 1.6045799322	 0.9426623895	 0.13123
H	-0.4531557421	-2.4266767166	-1.0835405704	 0.133954
H	 1.1929416655	-2.6072023491	-1.7303512955	 0.124591
H	 0.9514784813	-2.3332890548	 0.0105197698	 0.129639
H	 0.1275470198	 0.8843944128	-2.7459561974	 0.093592
H	 0.4477951355	-0.7387335613	-3.3734364659	 0.117416
H	-1.7259386064	-0.2623880444	-1.6785564321	 0.288621
H	 4.1791871592	 0.6113463647	-1.2361709949	 0.201385
76.196	129.2449	142.8666	170.8123	212.0264	221.5819	285.5858	298.818	351.6606	434.973	448.0642	499.5439	549.9652	591.4196	629.8886	674.2504	722.4767	877.7514	918.682	959.2767	1083.8374	1097.9083	1140.2606	1171.4864	1183.0081	1191.2547	1231.0178	1253.3506	1363.1429	1399.2365	1429.0427	1473.3327	1481.0944	1486.4793	1489.0267	1512.0878	1514.0558	2227.9853	2990.3165	3006.345	3058.8225	3072.0769	3087.9642	3121.9462	3139.0537	3147.9553	3498.4515	3765.6061
COC(C)(CO)C#C	CO[C@@](C)(CO)C#C	
InChI=1S/C6H10O2/c1-4-6(2,5-7)8-3/h1,7H,5H2,2-3H3	InChI=1S/C6H10O2/c1-4-6(2,5-7)8-3/h1,7H,5H2,2-3H3/t6-/m1/s1
