17
gdb 115131	2.46048	1.46131	1.10779	3.8681	69.78	-0.2271	-0.0917	0.1354	1128.1034	0.134574	-458.984024	-458.975258	-458.974314	-459.017992	31.462	
C	 0.141321429	 1.0452318602	-0.3562693091	-0.246618
O	-0.0146534518	-0.2697684297	 0.1550447662	-0.255487
C	 0.600768013	-0.4770349806	 1.4236415563	 0.005624
C	 0.1780773643	-1.8661034357	 1.9127988386	-0.260721
C	 1.0448548123	-2.8622470839	 1.1089246362	-0.326926
C	 2.3635900981	-2.1371253708	 0.888688695	 0.331043
O	 3.4333941371	-2.597246618	 0.5966318337	-0.280617
C	 2.1039644387	-0.6210736001	 1.1519054675	 0.313298
O	 2.9334119264	 0.2462588764	 1.0880237243	-0.289798
H	 1.1955611817	 1.3117425977	-0.4998094825	 0.140071
H	-0.371511665	 1.066945373	-1.3200943468	 0.134566
H	-0.3173491821	 1.7849519185	 0.3157260363	 0.114373
H	 0.3678067532	 0.3397319731	 2.1180652585	 0.088066
H	 0.3949786573	-1.9495943458	 2.9832405333	 0.118334
H	-0.8936981473	-2.0178003443	 1.7704863579	 0.125552
H	 1.1971961754	-3.8291434436	 1.5924779588	 0.135134
H	 0.5990271398	-3.0482780064	 0.124622866	 0.154104
57.498	122.2804	133.3972	165.7202	238.6791	291.3875	318.9602	394.6161	408.5235	505.9791	603.9482	647.2031	672.937	759.2677	812.2406	896.6508	937.7632	1011.2128	1016.026	1064.8819	1117.9472	1147.5433	1177.8398	1187.4735	1195.8128	1226.7683	1296.0626	1301.8749	1341.2435	1354.5467	1444.2609	1477.4935	1480.7573	1486.7855	1511.6246	1838.2187	1859.3291	2998.2814	3032.2888	3051.04	3057.2445	3064.9185	3113.3831	3120.8984	3128.2879
COC1CCC(=O)C1=O	CO[C@H]1CCC(=O)C1=O	
InChI=1S/C6H8O3/c1-9-5-3-2-4(7)6(5)8/h5H,2-3H2,1H3	InChI=1S/C6H8O3/c1-9-5-3-2-4(7)6(5)8/h5H,2-3H2,1H3/t5-/m0/s1
