19
gdb 89772	1.96831	1.69478	1.01837	2.2303	83.44	-0.2211	0.0352	0.2564	1208.8072	0.157631	-381.973439	-381.964365	-381.963421	-382.00719	34.151	
C	-0.0308026088	 1.4911213939	 0.0456994522	-0.328582
N	-0.0386290619	 0.047396866	 0.1142628176	-0.062379
C	-1.2858543608	-0.640913164	 0.5030027992	-0.254838
C	-0.4473458096	-1.6012204062	 1.3473410819	 0.330722
C	-0.841291442	-2.5012863424	 2.4437112306	-0.309898
N	-0.3082566955	-3.0326224656	 1.1698412324	-0.341718
C	 0.7237769598	-0.6016141166	 1.2141862438	-0.264518
C	 2.0555159722	-1.077193477	 0.88870666	 0.369831
C	 3.1659257683	-1.4627790203	 0.6387889687	-0.427173
H	 0.9854816481	 1.8415525718	-0.1598081019	 0.132445
H	-0.6741357546	 1.8263918707	-0.7744361143	 0.122817
H	-0.3821197737	 1.974977615	 0.9777365713	 0.089809
H	-1.9651229515	-0.0211761106	 1.1125591972	 0.090029
H	-1.8508942356	-1.0655527946	-0.3358901838	 0.106487
H	-0.188075571	-2.6420749172	 3.3010336984	 0.125008
H	-1.9023915043	-2.6067935538	 2.6591473471	 0.11263
H	-1.0598963701	-3.393465283	 0.5867494111	 0.232423
H	 0.7715491319	 0.0373928559	 2.1145241489	 0.083141
H	 4.1398974191	-1.816566082	 0.4070238696	 0.193763
75.348	110.7843	156.9081	217.5453	243.1703	293.1556	309.2659	350.485	382.1153	505.9845	539.0427	553.7379	617.4031	658.9658	781.9853	823.0478	876.055	897.7825	937.9303	973.8979	984.6962	1017.8967	1060.2433	1084.5846	1122.0763	1142.4552	1158.1106	1199.0078	1202.6353	1256.1379	1260.5758	1292.6317	1312.2781	1364.7014	1433.5794	1449.2724	1486.1653	1496.04	1510.4152	1520.2266	2238.9999	2918.9573	2931.8121	2957.6442	3037.3817	3061.5532	3099.7331	3105.2948	3184.041	3494.2833	3504.0828
CN1CC2(CN2)C1C#C	CN1C[C@]2(CN2)[C@H]1C#C	
InChI=1S/C7H10N2/c1-3-6-7(4-8-7)5-9(6)2/h1,6,8H,4-5H2,2H3	InChI=1S/C7H10N2/c1-3-6-7(4-8-7)5-9(6)2/h1,6,8H,4-5H2,2H3/t6-,7-/m1/s1
