13
gdb 132459	3.25783	1.39434	0.97679	0.7089	66.61	-0.203	-0.0367	0.1663	1076.5818	0.090443	-494.095393	-494.088043	-494.087099	-494.127068	28.311	
N	-0.0053027919	 1.3502401037	 0.1115089781	-0.546063
C	-0.0587072475	-0.0070732232	 0.0390251223	 0.290529
N	-1.1874251776	-0.6553101205	 0.0160344779	-0.333436
C	-1.17239789	-2.0293627925	-0.0056101139	-0.210183
C	-0.008240257	-2.70743794	-0.0135826186	 0.335423
F	 0.1118012141	-4.0292722495	-0.0323905901	-0.060758
N	 1.1871295447	-2.0341764573	-0.0057593777	-0.414012
C	 1.2775592871	-0.654234473	 0.0131969601	 0.391782
O	 2.3393198896	-0.052210465	-0.0022549941	-0.395723
H	 0.8903709698	 1.7707820777	-0.0788826525	 0.275423
H	-0.8446024581	 1.8688623875	-0.0841419288	 0.264102
H	-2.120402214	-2.5501262391	-0.0162588101	 0.126792
H	 2.0541999208	-2.5544940387	-0.0275693927	 0.276123
132.1591	191.6712	302.3395	343.5179	345.9392	402.6297	451.5412	478.9586	523.8858	539.1183	600.3936	606.9462	668.5049	705.4333	802.2731	810.9455	850.9897	1029.8454	1057.5166	1237.4172	1251.0138	1297.5113	1347.381	1391.4889	1496.0634	1573.1303	1650.8376	1684.4479	1774.0889	3219.2848	3595.6956	3606.5065	3730.2647
NC1=NC=C(F)NC1=O	Nc1ncc(F)[nH]c1=O	
InChI=1S/C4H4FN3O/c5-2-1-7-3(6)4(9)8-2/h1H,(H2,6,7)(H,8,9)	InChI=1S/C4H4FN3O/c5-2-1-7-3(6)4(9)8-2/h1H,(H2,6,7)(H,8,9)
