20
gdb 69849	2.24879	2.0996	1.53016	1.9351	77.82	-0.2254	0.0688	0.2942	962.7589	0.171832	-403.096145	-403.088398	-403.087454	-403.127574	32.385	
C	 0.062897905	 1.4341518286	-0.0571410666	-0.470267
C	-0.0776113986	-0.066149647	-0.034348446	 0.315133
C	-0.6423945978	-0.7824838692	 1.139629326	-0.307074
N	 0.8005200239	-0.8948671309	 0.8408447681	-0.147008
C	 1.1727358709	-1.969197884	-0.1413088896	 0.008266
C	-0.084664237	-2.3207254281	-0.9862649141	-0.318114
C	 0.0545554824	-0.8234016221	-1.3725058311	 0.344337
O	-0.6267602693	-0.2117701469	-2.4180672965	-0.486327
C	 1.6138154737	-1.0850517026	-1.3419189135	-0.278813
H	 0.9043665913	 1.7479149779	-0.6829968816	 0.118183
H	-0.843128636	 1.8950539902	-0.463470555	 0.127859
H	 0.2275383169	 1.8184274479	 0.952873209	 0.120815
H	-0.8382736086	-0.1957651167	 2.0334424767	 0.11262
H	-1.2985956803	-1.6376075887	 1.0328349502	 0.11379
H	 1.8113563023	-2.7364184767	 0.291531221	 0.078095
H	 0.1816692416	-2.974934368	-1.8197988942	 0.091623
H	-0.9974742731	-2.689348894	-0.5196603652	 0.099956
H	-0.4315135511	-0.6881005557	-3.2309936067	 0.282487
H	 2.2745101126	-0.2458507582	-1.1173125033	 0.107927
H	 1.975333131	-1.6549693057	-2.2019798477	 0.086513
181.9427	191.8299	253.1901	278.6303	343.1209	387.3082	434.2752	481.9268	530.5903	564.0719	593.0938	626.3153	728.3441	772.8441	792.1445	842.9552	897.9935	931.0131	938.7096	954.9764	970.5813	1007.004	1018.5276	1062.2247	1086.3395	1108.8445	1116.6298	1119.1654	1145.3208	1164.1886	1213.6346	1227.7466	1247.9777	1279.3543	1294.4269	1358.9197	1398.1009	1415.7694	1474.713	1484.1722	1495.3334	1501.7978	1545.9691	3038.7743	3063.0841	3078.0576	3103.5702	3119.213	3122.2267	3133.1718	3135.1784	3138.4563	3208.7825	3822.8309
CC12CN1C1CC2(O)C1	C[C@]12CN1[C@H]1C[C@]2(O)C1	
InChI=1S/C7H11NO/c1-6-4-8(6)5-2-7(6,9)3-5/h5,9H,2-4H2,1H3	InChI=1S/C7H11NO/c1-6-4-8(6)5-2-7(6,9)3-5/h5,9H,2-4H2,1H3/t5-,6-,7-,8?/m1/s1
