19
gdb 94653	3.69623	0.88557	0.7786	5.7985	72.87	-0.2586	0.0143	0.273	1473.4927	0.157769	-460.163372	-460.153913	-460.152969	-460.199038	32.948	
C	-0.2029060906	 1.4178412539	-0.3533767289	-0.416848
C	 0.0343920225	-0.0382651889	 0.0259668395	-0.049733
C	 1.4253689892	-0.6496746598	-0.2557385168	-0.079446
O	 1.5750867956	-1.0674305274	 1.1196550276	-0.29235
C	 0.3344875557	-0.4313214639	 1.5005721571	 0.126708
C	 0.5742326927	 0.6746256826	 2.5143287983	-0.111145
O	 0.9662470637	 0.1114002803	 3.7697638443	-0.183871
C	 2.2872706165	-0.0903644939	 3.9754707977	 0.181765
O	 2.7047211678	-0.6079181212	 4.9664083398	-0.275826
H	 0.5966679382	 2.0743878175	 0.004348704	 0.121894
H	-0.2471478671	 1.5221648942	-1.4425452006	 0.126854
H	-1.1514905681	 1.7888364174	 0.0485008163	 0.125991
H	-0.7696251802	-0.6567338457	-0.3806056094	 0.093095
H	 1.4580664913	-1.5004078505	-0.9450546174	 0.111455
H	 2.1961915777	 0.0756469513	-0.5495445045	 0.100908
H	-0.35964235	-1.1597334411	 1.9376236669	 0.095939
H	 1.3414490143	 1.3714288957	 2.1570890491	 0.112927
H	-0.3445670902	 1.2358483766	 2.7070251958	 0.125886
H	 2.9132248009	 0.282706863	 3.1455608711	 0.085795
54.3849	61.4108	79.3337	146.0653	180.3073	238.2115	280.5496	345.7346	371.0071	453.4985	477.1527	668.5597	721.9419	852.1079	884.1116	915.7025	928.0482	1002.8859	1017.8913	1026.299	1042.7367	1074.1059	1130.1222	1135.0268	1158.2129	1177.6453	1187.5131	1265.4237	1282.0103	1307.434	1339.0391	1368.676	1388.3342	1412.4404	1416.6125	1433.6199	1487.11	1498.4929	1502.37	1527.5838	1867.5759	2985.3192	3008.347	3028.4037	3034.4778	3041.7061	3059.8626	3077.3869	3099.1726	3101.578	3109.2308
CC1COC1COC=O	C[C@H]1CO[C@H]1COC=O	
InChI=1S/C6H10O3/c1-5-2-9-6(5)3-8-4-7/h4-6H,2-3H2,1H3	InChI=1S/C6H10O3/c1-5-2-9-6(5)3-8-4-7/h4-6H,2-3H2,1H3/t5-,6-/m0/s1
