15
gdb 56090	7.13353	0.51251	0.481	3.3459	75.32	-0.2746	-0.0695	0.205	2130.2833	0.108457	-457.771013	-457.760831	-457.759887	-457.809205	32.499	
C	-0.1499714936	 1.4606265191	 0.0120616183	-0.478081
C	 0.0529137332	-0.0329769641	 0.0015795431	 0.442374
O	 1.1091089304	-0.6098770133	-0.0113005248	-0.338508
O	-1.1416519375	-0.6768271357	 0.008478216	-0.236987
C	-1.0423187832	-2.1118425499	-0.0006130563	-0.236312
C	-2.3762290047	-2.6795357188	 0.0092866131	 0.063056
C	-3.4650997453	-3.2002511838	 0.0169987794	 0.081719
C	-4.7853318396	-3.7779296581	 0.0263459787	 0.022598
O	-5.0107088271	-4.9656417564	 0.0240173401	-0.224304
H	 0.8195577922	 1.9565837681	 0.0055670252	 0.154346
H	-0.7333390186	 1.7648875925	-0.8613777341	 0.156451
H	-0.7162793849	 1.7547633002	 0.9000839223	 0.156464
H	-0.4872317543	-2.4392424591	-0.8872183006	 0.165592
H	-0.4697806725	-2.4491721804	 0.8710100325	 0.165626
H	-5.6032146147	-3.0294809403	 0.0361649671	 0.105965
24.2404	49.0211	58.3703	64.4785	159.2839	173.49	194.1419	236.5968	372.8032	396.3241	513.7084	587.8845	607.0614	650.6401	836.5112	938.3106	984.6788	995.6842	1020.5867	1054.572	1066.6117	1165.4513	1242.7048	1254.0532	1381.3802	1403.885	1420.8464	1468.692	1473.2217	1475.0271	1770.9657	1830.2571	2336.0188	2924.8153	3041.8449	3059.7446	3075.0479	3125.3785	3172.6173
CC(=O)OCC#CC=O	CC(=O)OCC#CC=O	
InChI=1S/C6H6O3/c1-6(8)9-5-3-2-4-7/h4H,5H2,1H3	InChI=1S/C6H6O3/c1-6(8)9-5-3-2-4-7/h4H,5H2,1H3
