23
gdb 70926	3.20202	1.43376	1.21939	0.1484	90.05	-0.2584	0.0876	0.3459	1141.771	0.208112	-351.11114	-351.103116	-351.102172	-351.143344	33.124	
C	 0.0911379255	 1.5141270338	 0.0140974014	-0.510097
C	 0.0280453687	 0.0092111792	-0.0070682208	 0.308508
C	 0.604452536	-0.9452341771	-1.1275492362	-0.345937
C	-0.0435938267	-1.8759830155	-0.0651285627	 0.353824
C	 0.6450384738	-0.9799522839	 1.0174577556	-0.29563
C	-0.562286045	-3.2711763194	 0.1828559422	-0.352828
C	-1.7154606539	-2.9858853525	 1.2130501042	-0.191895
C	-2.1187789045	-1.459331884	 1.1073804005	-0.284726
C	-1.245814599	-0.916379065	-0.0351524876	-0.008249
H	 1.1283649158	 1.8674724419	-0.0056177956	 0.11552
H	-0.4262379888	 1.9434622609	-0.8510627007	 0.115696
H	-0.3810975476	 1.9135263369	 0.9186147482	 0.116343
H	 0.1150392155	-0.9005567918	-2.1055850534	 0.085281
H	 1.6940543088	-0.9680054538	-1.2244791591	 0.083962
H	 1.7379771015	-1.024361982	 1.0545995829	 0.079547
H	 0.2248883369	-0.9822872338	 2.0249962417	 0.087607
H	-0.9669345601	-3.7001947114	-0.7411116175	 0.098402
H	 0.174796589	-3.9753068464	 0.5802610106	 0.09502
H	-2.5727565608	-3.6391827244	 1.0285882455	 0.098273
H	-1.3700454549	-3.2089564166	 2.2267968774	 0.102195
H	-3.1816216945	-1.3454910578	 0.8792051694	 0.093915
H	-1.9533393501	-0.9560498873	 2.0637292265	 0.101952
H	-1.8022210555	-0.8598484901	-0.9783889825	 0.053317
83.7969	201.7068	207.5389	225.08	331.2491	355.0522	455.0308	508.9686	560.6624	605.3433	671.3005	680.8561	732.1832	782.9545	811.7453	845.2879	870.7932	907.4383	946.2199	955.1947	975.2478	1000.7983	1020.3435	1038.5372	1067.2561	1104.4299	1107.8711	1114.9058	1138.4862	1152.872	1173.079	1199.0509	1218.7209	1234.3734	1244.7013	1276.8723	1290.0153	1304.9284	1314.6652	1352.7048	1398.9173	1410.7713	1481.9003	1488.0516	1488.5917	1490.2848	1499.0405	1510.2387	1546.6856	3022.5954	3024.5837	3036.7874	3038.909	3050.7816	3052.0404	3064.4632	3078.21	3089.6601	3089.8305	3091.292	3103.1968	3107.4028	3118.2242
CC12CC3(C1)CCCC23	C[C@@]12C[C@]3(C1)CCC[C@@H]23	
InChI=1S/C9H14/c1-8-5-9(6-8)4-2-3-7(8)9/h7H,2-6H2,1H3	InChI=1S/C9H14/c1-8-5-9(6-8)4-2-3-7(8)9/h7H,2-6H2,1H3/t7-,8-,9+/m0/s1
