19
gdb 23199	2.24972	1.42633	0.97056	0.9821	80.43	-0.2288	0.0054	0.2343	1249.035	0.158146	-419.124048	-419.114977	-419.114033	-419.158022	33.897	
C	-0.342755923	 1.5032594089	 0.0362904526	-0.384857
C	 0.1398082013	 0.0459960652	 0.0653808134	-0.289434
C	 0.7834722498	-0.361982409	-1.2288043343	 0.25661
C	 0.049006741	-0.9376606384	-2.3913201872	-0.278738
N	 0.9946736401	-1.81702806	-1.6947560835	-0.173323
C	 2.3530766561	-1.4226752527	-2.2293936987	-0.260546
C	 2.1656474902	-0.0300131916	-1.664433624	 0.375224
N	 2.8995937546	 0.9586672582	-1.3673067964	-0.263307
O	 4.1984850271	 0.7885516307	-1.8857756324	-0.391085
H	 0.493077994	 2.1832128527	-0.1512242277	 0.143628
H	-1.0871936133	 1.6575321938	-0.7517178681	 0.115717
H	-0.7993693048	 1.7785888003	 0.9914431707	 0.114315
H	 0.8621735653	-0.0884854069	 0.8789033509	 0.110748
H	-0.6973160641	-0.6318334732	 0.2670366706	 0.109337
H	-0.9901613174	-1.204008111	-2.2193259068	 0.126591
H	 0.2731744334	-0.6125103845	-3.4053975292	 0.116554
H	 3.151492825	-1.9751330554	-1.7277928733	 0.140449
H	 2.4577634843	-1.5344808251	-3.3129389489	 0.124121
H	 4.6469489301	 1.5820292481	-1.5745950277	 0.307997
68.0959	110.2648	161.7215	183.1581	228.4516	286.1864	320.7001	365.9897	438.008	476.7058	515.6391	532.6987	688.026	742.8172	769.1562	792.3639	863.9457	881.5934	970.0389	978.7107	999.4878	1011.6699	1071.4074	1097.6727	1098.1248	1127.6042	1134.3687	1190.3196	1249.4159	1266.0216	1327.684	1337.0111	1378.9998	1410.9278	1426.24	1474.7984	1481.2	1497.9134	1506.6365	1511.4189	1789.5232	3034.5397	3039.4644	3055.2228	3073.0245	3099.3417	3108.6359	3113.456	3120.5241	3191.6685	3819.4759
CCC12CN1CC2=NO	CC[C@]12CN1CC2=NO	
InChI=1S/C6H10N2O/c1-2-6-4-8(6)3-5(6)7-9/h9H,2-4H2,1H3	InChI=1S/C6H10N2O/c1-2-6-4-8(6)3-5(6)7-9/h9H,2-4H2,1H3/t6-,8?/m1/s1
