21
gdb 119740	3.39661	0.99864	0.89306	1.0334	78.33	-0.2394	0.0697	0.3091	1375.933	0.182092	-424.189187	-424.180017	-424.179073	-424.22377	33.959	
O	-0.0840221426	 1.455308359	-0.0725967247	-0.421649
C	-0.0170402249	 0.0422829839	 0.0611111459	-0.077351
C	-1.4336546707	-0.5033204625	-0.0909591767	-0.272847
C	-1.4861069362	-2.0070028324	 0.0247030137	 0.462344
C	-0.9083692957	-2.9076758978	-1.1019102143	-0.271054
C	-2.1909625528	-3.7954426448	-1.0359269167	-0.227968
C	-2.7738817674	-2.8880765265	 0.0800109083	-0.146225
C	-2.299831859	-3.2402365541	 1.4970485548	-0.082277
O	-1.0784235871	-2.482031422	 1.3375910359	-0.334984
H	 0.7938694438	 1.812158177	 0.0899842602	 0.284659
H	 0.6390024996	-0.3978507268	-0.7075710912	 0.085567
H	 0.3797896122	-0.2535556732	 1.0426525584	 0.108807
H	-2.0678800039	-0.051452823	 0.6801266107	 0.107006
H	-1.8331910224	-0.1956027622	-1.0648605714	 0.102842
H	-0.7813896783	-2.3942912914	-2.0592350849	 0.100075
H	 0.031556913	-3.3936007363	-0.8321207727	 0.108126
H	-2.7763171262	-3.7765704329	-1.957840023	 0.104155
H	-2.0385531156	-4.8401677499	-0.7509857536	 0.100718
H	-3.7870109896	-2.5050186444	-0.0403514901	 0.074421
H	-2.9187623966	-2.8305100984	 2.3059102154	 0.099488
H	-2.1086900996	-4.3021599315	 1.6998434958	 0.096146
65.2717	93.7318	105.3321	131.1446	259.1768	275.8782	324.3393	355.4209	401.5349	411.23	667.9546	705.9963	740.5861	796.3393	832.5321	881.682	910.7327	939.625	966.7462	976.3859	999.1359	1015.0788	1041.153	1062.1933	1104.0417	1124.9202	1146.8905	1169.368	1186.9266	1217.0201	1227.8836	1245.341	1250.5597	1273.8032	1296.5176	1315.4272	1319.1918	1349.4718	1368.7399	1458.0816	1462.0744	1480.4022	1487.6646	1523.6415	1529.4014	2968.282	3002.9487	3016.9402	3034.1833	3044.165	3055.3016	3061.2764	3080.2075	3101.328	3113.0755	3124.4183	3830.3865
OCCC12CCC1CO2	OCC[C@]12CC[C@H]1CO2	
InChI=1S/C7H12O2/c8-4-3-7-2-1-6(7)5-9-7/h6,8H,1-5H2	InChI=1S/C7H12O2/c8-4-3-7-2-1-6(7)5-9-7/h6,8H,1-5H2/t6-,7+/m0/s1
