19
gdb 103155	2.01829	1.52519	1.18471	3.3114	71.11	-0.2579	0.0039	0.2618	1159.3306	0.15679	-460.196542	-460.186721	-460.185776	-460.231066	35.573	
C	 0.0031748079	 1.6771371314	 0.0214202391	-0.415814
C	 0.0880506076	 0.1468787293	 0.0811656497	-0.232018
C	 0.7569462941	-0.4532500027	-1.1545339537	 0.178749
O	 2.0744184802	 0.0240333229	-1.3471305875	-0.477173
C	 0.7057475325	-1.9910479498	-1.3607075439	 0.123997
C	 0.0637675882	-2.9075649776	-0.3466160448	-0.417982
O	-0.1537044739	-1.7955565009	-2.5496958364	-0.263141
C	-0.0900198145	-0.4372590332	-2.4450097107	 0.422919
O	-0.5485861946	 0.383028413	-3.1781722011	-0.344175
H	 1.0002373721	 2.129226703	 0.0186562163	 0.117941
H	-0.5289019612	 2.0070189887	-0.8759595068	 0.149496
H	-0.5264412107	 2.067326743	 0.8945542001	 0.123188
H	 0.6592375337	-0.166270559	 0.9634978277	 0.110361
H	-0.9196332133	-0.2702308823	 0.1850660314	 0.10998
H	 2.0182993681	 0.9378254582	-1.6486530694	 0.297501
H	 1.6793436652	-2.3624437292	-1.6889133351	 0.112079
H	-0.9278351291	-2.5561381396	-0.0515004071	 0.131485
H	-0.041913947	-3.912066189	-0.7660331837	 0.139165
H	 0.6921502848	-2.9777168262	 0.546947776	 0.133442
92.2909	104.1418	133.8199	183.6017	220.691	232.4707	246.5241	300.3266	305.6059	333.9545	429.1969	487.7342	579.2731	705.222	735.8786	746.3687	800.0812	862.9634	893.1146	966.3328	1033.2129	1041.7649	1050.9382	1095.7736	1146.342	1155.2784	1196.5391	1218.2735	1293.9229	1322.491	1347.0575	1380.1632	1389.7661	1410.4407	1415.3717	1472.0951	1487.1085	1497.5135	1502.3116	1514.371	1920.3361	3032.0279	3041.249	3046.9799	3074.0931	3088.968	3110.2084	3117.1094	3121.4827	3131.5382	3808.7432
CCC1(O)C(C)OC1=O	CC[C@@]1(O)[C@@H](C)OC1=O	
InChI=1S/C6H10O3/c1-3-6(8)4(2)9-5(6)7/h4,8H,3H2,1-2H3	InChI=1S/C6H10O3/c1-3-6(8)4(2)9-5(6)7/h4,8H,3H2,1-2H3/t4-,6-/m1/s1
