18
gdb 97961	5.31335	0.52254	0.49731	2.737	79.17	-0.2517	0.035	0.2867	2208.9286	0.145643	-439.105787	-439.095184	-439.09424	-439.144115	36.024	
C	-0.0020860536	 1.1147235538	-0.7407443764	-0.36527
C	-0.1462597129	 0.2547607941	 0.5280111086	-0.316903
C	-1.438439269	-0.4147031876	 0.6269215664	 0.153816
C	-2.5101832967	-0.9595726334	 0.6870207307	-0.011735
C	-3.8151509474	-1.5881619283	 0.7944589186	-0.223473
O	-3.8233065329	-2.7882132348	-0.004978367	-0.256447
C	-5.0188865133	-3.4294869758	-0.0270297508	 0.510354
N	-4.9148651938	-4.577279753	-0.7601860732	-0.56408
O	-6.0141806952	-3.0492695572	 0.5447866537	-0.39529
H	 0.9814944443	 1.5929858125	-0.7670880836	 0.115535
H	-0.1121272192	 0.5017759902	-1.6392853194	 0.129614
H	-0.7665481681	 1.8957849371	-0.7697785053	 0.129361
H	 0.6523793753	-0.497517548	 0.5565806845	 0.132835
H	 0.0016329214	 0.881468866	 1.4168492374	 0.132866
H	-4.0482755069	-1.8484623909	 1.8330600484	 0.146405
H	-4.6119445632	-0.9212881184	 0.4478879998	 0.147398
H	-4.1213180825	-4.6957357666	-1.3665893712	 0.26627
H	-5.7799711563	-5.0195275398	-1.0179430713	 0.268744
20.8961	26.6083	76.6089	121.686	154.1448	202.2368	244.977	295.2638	324.3316	334.9992	419.839	496.7636	517.9393	556.186	643.7001	770.0277	783.8434	784.676	940.7557	967.154	1012.7053	1070.0636	1082.2848	1103.7747	1115.9941	1178.9868	1250.4763	1287.1787	1338.6515	1352.5503	1409.8873	1421.7517	1471.7652	1494.0975	1495.3933	1505.5943	1611.4756	1831.6058	2374.4966	3022.3569	3040.9132	3045.4529	3049.8895	3073.9477	3118.9896	3125.3513	3615.66	3745.9862
CCC#CCOC(N)=O	CCC#CCOC(=O)N	
InChI=1S/C6H9NO2/c1-2-3-4-5-9-6(7)8/h2,5H2,1H3,(H2,7,8)	InChI=1S/C6H9NO2/c1-2-3-4-5-9-6(7)8/h2,5H2,1H3,(H2,7,8)
