18
gdb 90515	3.09689	1.09416	1.00682	4.8585	75.79	-0.2694	0.0423	0.3117	1228.4237	0.148237	-401.929565	-401.921185	-401.920241	-401.963039	31.686	
O	 0.078084385	 1.4150208977	-0.0976894188	-0.425837
C	 0.0477262031	 0.0179225359	 0.1242166192	 0.10999
C	 0.1014837955	-0.5346209885	 1.5921123535	-0.288586
C	-1.2404518305	-1.2300586899	 1.3410437196	-0.05569
C	-2.3146372724	-0.2480275965	 0.9852770304	-0.002528
C	-2.4748509078	 1.1498293692	 1.5786220965	-0.378776
C	-3.049343835	 1.1107040908	 2.9237733259	 0.262567
N	-3.5022152677	 1.0615262179	 3.9860531677	-0.314793
C	-1.3186765474	-0.624251311	-0.0785381423	-0.108154
H	 0.9856331302	 1.7195942981	 0.0054897548	 0.287647
H	 0.7998295342	-0.4859304074	-0.4958790349	 0.083722
H	 0.9300949447	-1.2285848688	 1.7467076929	 0.107983
H	 0.1175218066	 0.2133087234	 2.3903290763	 0.108526
H	-1.4790219885	-2.240159085	 1.6485764138	 0.097714
H	-3.2723431776	-0.7377321838	 0.8242073949	 0.106985
H	-1.5200995876	 1.6785672409	 1.6045201982	 0.166861
H	-3.132085101	 1.7467356556	 0.9358638574	 0.150544
H	-1.6435255338	-1.0818915985	-1.0053050452	 0.091824
51.5246	113.3441	176.6746	233.7917	307.3645	318.832	393.9335	400.5651	455.1634	543.4513	612.4796	697.35	753.5595	808.8216	847.9178	893.8504	940.167	953.2487	981.4445	983.0236	1022.091	1038.333	1064.1696	1091.478	1123.786	1166.1671	1188.4537	1213.1117	1250.6771	1257.7067	1279.699	1317.8215	1331.3241	1361.4567	1425.4186	1451.7984	1466.5246	1497.0953	2359.1432	3019.0799	3054.1509	3058.8439	3114.2822	3116.7292	3141.0779	3180.7377	3197.4002	3813.2837
OC1CC2C(CC#N)C12	O[C@H]1C[C@H]2[C@@H](CC#N)[C@@H]12	
InChI=1S/C7H9NO/c8-2-1-4-5-3-6(9)7(4)5/h4-7,9H,1,3H2	InChI=1S/C7H9NO/c8-2-1-4-5-3-6(9)7(4)5/h4-7,9H,1,3H2/t4-,5+,6+,7-/m1/s1
