18
gdb 68760	2.48547	1.70878	1.22908	4.2149	72.22	-0.2368	0.0292	0.2661	1040.0509	0.147586	-439.120154	-439.11144	-439.110496	-439.153087	33.123	
C	-0.0670818865	 1.5734507593	-0.0218503037	-0.476188
C	-0.0446826304	 0.0710860118	 0.0643497758	 0.157593
C	 1.2272838768	-0.7218010316	-0.2385674162	-0.38841
C	 0.6420256116	-0.7356309136	 1.1421206078	 0.343899
O	 1.2878630625	-0.0994734901	 2.1972384124	-0.464871
C	-0.2702829039	-1.9137187785	 1.4891534694	-0.233539
N	-1.2891212925	-1.8534828216	 0.4551358192	-0.329461
C	-1.3124935733	-0.6821164726	-0.267347011	 0.382594
O	-2.1953887678	-0.3294423861	-1.0187557859	-0.384925
H	 0.8771007794	 1.9949934887	 0.3319311089	 0.12067
H	-0.2346705587	 1.89206224	-1.0545385954	 0.137005
H	-0.8744430623	 1.989230931	 0.5885624648	 0.129291
H	 1.1706614975	-1.6092649257	-0.8614693768	 0.122078
H	 2.1198311769	-0.1184338588	-0.3715275412	 0.118898
H	 2.1410364806	-0.5249234407	 2.3333915364	 0.28941
H	 0.2595288973	-2.8749445829	 1.4802479523	 0.105955
H	-0.6856849661	-1.7585794927	 2.4941521293	 0.1188
H	-2.0910889912	-2.4630455058	 0.4404033737	 0.251203
112.5257	139.911	194.081	201.7051	257.6172	267.6042	331.6819	420.8871	433.2692	492.3621	508.0653	580.0306	680.9271	692.6971	722.9371	790.9303	846.2136	918.3704	955.4583	975.7992	1042.1718	1055.1635	1065.6645	1107.3182	1166.3675	1190.9327	1195.793	1232.8357	1312.7812	1331.2797	1365.3705	1402.6468	1416.0999	1439.9408	1483.4604	1489.9616	1499.8469	1527.8627	1825.0766	3006.5186	3041.7604	3044.9958	3110.7605	3119.4878	3125.7268	3211.7436	3644.424	3803.6911
CC12CC1(O)CNC2=O	C[C@@]12C[C@]1(O)CNC2=O	
InChI=1S/C6H9NO2/c1-5-2-6(5,9)3-7-4(5)8/h9H,2-3H2,1H3,(H,7,8)	InChI=1S/C6H9NO2/c1-5-2-6(5,9)3-7-4(5)8/h9H,2-3H2,1H3,(H,7,8)/t5-,6-/m0/s1
