17
gdb 77296	3.32694	0.94106	0.7881	3.0553	69.6	-0.2622	-0.0365	0.2257	1406.1037	0.133769	-459.001138	-458.991976	-458.991031	-459.036407	31.77	
C	-0.2600546209	 1.5762901386	 0.1931745091	-0.413087
C	-0.0985310382	 0.0660710834	 0.0727380568	-0.214124
C	 0.4486526439	-0.5953585251	-1.2207141054	 0.109769
C	 0.9494979546	 0.2834266008	-2.3585122438	-0.29733
C	 1.7157504289	-0.5188165492	-3.3963938785	 0.153598
O	 1.4456488441	-0.5346361982	-4.5689103682	-0.231831
O	 1.5659203922	-1.1676810591	-0.4521038248	-0.261288
C	 1.1464540508	-0.5605660017	 0.7089994032	 0.456084
O	 1.6725773323	-0.588238533	 1.7730854535	-0.316977
H	 0.6324001441	 2.1155061825	-0.1350400663	 0.132246
H	-1.1114304084	 1.9283461921	-0.3965957853	 0.131944
H	-0.4396023144	 1.8410405725	 1.238736814	 0.148087
H	-1.0016633794	-0.4393959174	 0.42827472	 0.123558
H	-0.1763591232	-1.4081458637	-1.6012549224	 0.111201
H	 0.1123453931	 0.7847246643	-2.8530941915	 0.131985
H	 1.628511205	 1.0449593617	-1.9542549793	 0.130641
H	 2.5662500354	-1.1052973585	-2.9877863212	 0.105524
51.9565	66.3124	99.6608	159.4033	200.8826	215.087	264.947	403.1141	420.5472	511.5728	549.5741	680.6865	746.5313	794.4021	844.2488	853.3245	885.676	1018.5993	1033.0607	1063.3897	1071.3933	1118.856	1151.7325	1160.13	1218.8122	1232.4425	1275.183	1328.2128	1351.6568	1393.941	1415.1528	1424.0915	1449.599	1496.0447	1499.7264	1834.5542	1940.7418	2911.5079	3034.8773	3048.9474	3065.3874	3078.4348	3107.5672	3120.1068	3125.6819
CC1C(CC=O)OC1=O	C[C@H]1[C@@H](CC=O)OC1=O	
InChI=1S/C6H8O3/c1-4-5(2-3-7)9-6(4)8/h3-5H,2H2,1H3	InChI=1S/C6H8O3/c1-4-5(2-3-7)9-6(4)8/h3-5H,2H2,1H3/t4-,5+/m0/s1
