18
gdb 75356	2.75637	1.76692	1.21934	1.486	77.01	-0.2394	0.0146	0.254	1032.4114	0.150008	-401.987732	-401.98027	-401.979326	-402.019789	28.797	
C	-0.2132165095	 1.5400051872	 0.0378940452	-0.4934
C	-0.0495816925	 0.0561918701	-0.0258133872	 0.337435
C	-0.0321009504	-0.7275521161	-1.1054136323	-0.173154
C	 0.1630140823	-2.1913602597	-0.7943866066	-0.283288
C	 0.3734721233	-2.212811347	 0.7321104502	 0.080879
O	 1.7573256844	-2.4831864625	 1.0846511689	-0.231637
C	 2.1882405309	-1.3895351024	 1.7572076352	 0.116713
N	 1.4181607744	-0.3991869764	 1.9341666888	-0.271327
C	 0.1592245729	-0.7557094457	 1.2394360247	-0.110366
H	 0.6427618071	 1.9953257961	 0.5484242124	 0.148322
H	-0.3041399643	 1.9804999469	-0.9584550573	 0.119801
H	-1.1045096571	 1.8147166788	 0.6166645839	 0.123707
H	-0.1538435252	-0.3687461691	-2.1224443201	 0.090197
H	-0.7092618032	-2.7922493949	-1.0823960184	 0.108952
H	 1.0266021906	-2.6296173426	-1.3074624616	 0.122305
H	-0.233484028	-2.9681470839	 1.2357101061	 0.091299
H	 3.2127540356	-1.4598348593	 2.1070745693	 0.139294
H	-0.6755236513	-0.6412610795	 1.940756429	 0.084269
83.0705	173.4622	213.1492	234.2662	299.238	413.2561	489.4244	534.2016	602.8522	686.8566	768.7027	830.6568	861.247	874.5336	892.2816	946.0553	962.972	976.5002	1001.1889	1029.1082	1043.8669	1048.3624	1070.0171	1125.8082	1179.911	1191.8557	1272.2958	1279.359	1284.9365	1318.4601	1331.9928	1357.2163	1371.8706	1411.1934	1475.6278	1479.0289	1490.9372	1694.8703	1728.2493	3022.2289	3023.7059	3035.0445	3062.8439	3076.6688	3086.6936	3115.616	3184.0455	3210.2264
CC1=CCC2OC=NC12	CC1=CC[C@H]2OC=N[C@@H]12	
InChI=1S/C7H9NO/c1-5-2-3-6-7(5)8-4-9-6/h2,4,6-7H,3H2,1H3	InChI=1S/C7H9NO/c1-5-2-3-6-7(5)8-4-9-6/h2,4,6-7H,3H2,1H3/t6-,7+/m1/s1
