19
gdb 57900	2.48105	1.14542	1.05724	2.5553	72.62	-0.2631	-0.0403	0.2229	1261.3758	0.155811	-460.160938	-460.150989	-460.150045	-460.19622	35.775	
C	 0.1375184605	 1.3315167143	-0.4329140049	-0.413588
C	 0.0653897084	-0.0911581434	 0.1563512142	 0.059814
O	 0.7191484588	-0.166835131	 1.3962355955	-0.440246
C	-1.3954960605	-0.4994422272	 0.3281258337	 0.319505
O	-1.8722680268	-0.5899554429	 1.4414026901	-0.335477
C	-2.2632753569	-0.7207385315	-0.8777229593	-0.047073
O	-1.6544064207	-0.7100080461	-2.16896261	-0.244546
C	-2.1917623342	-1.9489675986	-1.7027422373	 0.092871
C	-1.2520700692	-3.1008162731	-1.4617041374	-0.43281
H	 1.1867556793	 1.631677866	-0.4846774731	 0.135897
H	-0.2915481518	 1.3688357319	-1.4372070117	 0.140596
H	-0.3886987444	 2.0393362441	 0.2151073832	 0.123258
H	 0.5466104453	-0.7764051121	-0.5539220499	 0.100974
H	 0.0120276887	-0.2585977515	 2.0546077825	 0.290832
H	-3.2302044986	-0.2217678873	-0.8053731533	 0.12342
H	-3.1241825652	-2.2234059459	-2.1995838327	 0.107305
H	-0.3535540855	-2.8012422139	-0.9196220691	 0.141698
H	-1.760818946	-3.8790081644	-0.8835938358	 0.138453
H	-0.9464568811	-3.5386363076	-2.4173529147	 0.139118
60.9879	66.6812	146.0043	152.3502	191.1525	227.5213	261.4182	334.6916	359.0837	413.4214	426.5521	467.5084	504.5205	597.7062	742.8256	768.9637	790.1282	863.6694	916.7227	988.1032	998.6434	1036.0613	1066.7282	1092.42	1127.8432	1157.4806	1161.06	1214.7241	1281.0203	1293.0309	1335.9892	1375.0896	1390.4648	1413.4595	1439.4698	1450.8279	1483.8436	1494.6147	1496.6371	1501.6308	1781.7677	3023.3119	3045.4737	3046.477	3092.5054	3108.8247	3113.3477	3123.1855	3136.5739	3142.9337	3687.8
CC(O)C(=O)C1OC1C	C[C@@H](O)C(=O)[C@H]1O[C@H]1C	
InChI=1S/C6H10O3/c1-3(7)5(8)6-4(2)9-6/h3-4,6-7H,1-2H3	InChI=1S/C6H10O3/c1-3(7)5(8)6-4(2)9-6/h3-4,6-7H,1-2H3/t3-,4+,6+/m1/s1
