17
gdb 41608	4.21043	1.34072	1.19819	2.6716	76.01	-0.2061	0.0086	0.2148	1049.4901	0.136362	-421.770179	-421.762995	-421.762051	-421.802037	27.942	
C	 0.0356675171	 1.4608576645	-0.0217647612	-0.089618
O	 1.4616118525	 1.4559808417	-0.3029494557	-0.281643
C	 1.5249329291	 0.057658201	-0.0574457973	 0.008768
C	 0.017747599	-0.050086623	 0.1958573306	-0.239373
C	 0.648940541	-0.7130896982	-1.0086918523	 0.451443
O	 0.390357525	-0.2488864715	-2.3123715066	-0.312333
C	 0.3459536644	-1.3592136753	-3.2112245884	-0.132121
C	 0.5711698697	-2.5704965794	-2.3480693776	-0.114939
C	 0.7422625521	-2.1879774714	-1.0856214415	-0.163853
H	-0.1689907105	 2.0362473108	 0.8873048877	 0.109046
H	-0.5515164752	 1.8484295497	-0.8601442793	 0.121622
H	 2.4016191907	-0.3303326544	 0.4524298453	 0.10121
H	-0.5595418014	-0.5802737929	 0.942976114	 0.097121
H	-0.6268883151	-1.3782831761	-3.7262074863	 0.109502
H	 1.1212584507	-1.2423175111	-3.9843672984	 0.112006
H	 0.5910398789	-3.5819913371	-2.7315027082	 0.11013
H	 0.9278711922	-2.8190159574	-0.2266155049	 0.113031
81.415	171.15	181.6062	266.0582	417.1778	426.589	536.0254	595.7902	723.7206	766.2814	778.0415	814.0695	851.0115	912.498	942.2168	948.7935	957.5648	965.8055	1000.8899	1020.4798	1043.3108	1047.9535	1078.9401	1109.4167	1117.7019	1161.3945	1181.5315	1196.1001	1233.0011	1243.8139	1320.2441	1364.0042	1381.1021	1420.6579	1506.2609	1519.3975	1679.1912	2978.3362	2996.1742	3036.5356	3091.7274	3153.8921	3186.6983	3214.1115	3237.4414
C1OC2C1C21OCC=C1	C1O[C@H]2[C@@H]1[C@]12OCC=C1	
InChI=1S/C7H8O2/c1-2-7(9-3-1)5-4-8-6(5)7/h1-2,5-6H,3-4H2	InChI=1S/C7H8O2/c1-2-7(9-3-1)5-4-8-6(5)7/h1-2,5-6H,3-4H2/t5-,6+,7-/m1/s1
