13
gdb 21598	3.54159	2.36258	1.41821	5.156	68.34	-0.1981	-0.0371	0.1609	801.925	0.098182	-390.939269	-390.93262	-390.931676	-390.96979	25.792	
N	 0.0483176523	 1.3888609519	 0.1195303813	-0.587
C	-0.0374082388	 0.0323207772	 0.0363455601	 0.271047
C	-1.1700377678	-0.7158387189	 0.0125119919	-0.077867
N	-1.040737293	-2.0888946524	-0.0203990756	-0.219021
N	 0.1114788448	-2.7554621354	-0.0354016197	-0.051733
N	 1.2067650596	-2.099240038	-0.0264336679	-0.296338
C	 1.2361253498	-0.6933484043	 0.0011448017	 0.356816
N	 2.3290881201	-0.0185237927	-0.0113408176	-0.554175
H	 0.978933288	 1.7393600823	-0.0691167571	 0.278887
H	-0.73304732	 1.9586640288	-0.1584050117	 0.251571
H	-2.1790678249	-0.3254058792	 0.0244633293	 0.125284
H	-1.8489532292	-2.6894926731	-0.0327781288	 0.280728
H	 3.1242733192	-0.657800026	-0.044955476	 0.2218
122.707	292.1543	315.9389	366.4841	412.5266	471.5215	485.2305	533.5189	557.9545	606.969	643.2257	768.5515	795.2316	800.859	876.4904	968.701	1000.1816	1076.2367	1115.2085	1239.0385	1307.6675	1341.9442	1411.1314	1477.7731	1550.3719	1605.4015	1666.5963	1703.9616	3214.6515	3477.0794	3545.9583	3652.7385	3692.8184
NC1=CNN=NC1=N	Nc1c[nH]nnc1[NH]	
InChI=1S/C3H5N5/c4-2-1-6-8-7-3(2)5/h1H,(H2,4,8)(H2,5,6,7)	InChI=1S/C3H10N5/c4-2-1-6-8-7-3(2)5/h2-3,5-8H,1,4H2
