21
gdb 112518	2.28561	1.1924	1.04354	1.7987	84.2	-0.2506	0.0249	0.2755	1309.0662	0.18012	-387.046034	-387.035968	-387.035024	-387.081675	36.93	
C	 0.5561777257	 1.4005564483	 0.1929201967	-0.38481
C	 0.2861722744	-0.1049991436	 0.1062551446	-0.185552
C	 0.483465739	-0.6312068677	-1.3074728848	 0.145941
O	 1.8634167046	-0.5003402445	-1.7459979038	-0.298118
C	 2.0266435613	-1.9329266231	-1.8720472683	-0.064447
C	 3.0050730087	-2.4830873917	-0.9447065291	 0.361172
C	 3.8129517392	-2.947444311	-0.1844478841	-0.47735
C	 0.5143338957	-2.1651700393	-1.5537811361	-0.074848
C	 0.1179086761	-3.1374488283	-0.4547672048	-0.417324
H	 1.5730686486	 1.6227287364	-0.1423376535	 0.139517
H	-0.1379166639	 1.965235185	-0.4397737319	 0.111194
H	 0.4461097691	 1.7642330047	 1.2186906699	 0.11035
H	 0.9559011603	-0.6398705921	 0.7883992136	 0.107486
H	-0.7416372484	-0.3264682363	 0.4228367131	 0.093088
H	-0.1802211644	-0.0884328873	-1.9949976752	 0.071136
H	 2.3123728399	-2.2006831067	-2.8972077195	 0.102957
H	 4.5334920858	-3.3511578664	 0.4833480249	 0.201437
H	-0.0183344466	-2.4174193474	-2.4743284503	 0.086546
H	 0.6628783377	-2.9543519518	 0.4738347074	 0.133554
H	-0.9545048918	-3.0669339893	-0.2450243417	 0.116531
H	 0.3283814491	-4.1670785579	-0.7615440771	 0.12154
27.5519	99.8345	142.8213	169.3485	202.5184	215.0985	233.4169	280.1866	341.149	444.8427	482.8776	524.9906	557.812	623.0884	667.7405	738.818	768.4412	833.9448	855.4763	930.3023	955.5865	970.2407	1010.3783	1035.4246	1057.7213	1098.039	1115.5835	1174.1847	1177.0141	1227.059	1269.4137	1285.0974	1308.7774	1342.9174	1359.2545	1378.4024	1406.3081	1410.453	1420.5438	1472.3925	1493.62	1497.3289	1500.0294	1509.4185	2228.9159	3000.342	3018.2913	3024.3255	3035.4948	3040.5806	3071.3594	3073.14	3101.0447	3103.4708	3120.1706	3128.7669	3502.2642
CCC1OC(C#C)C1C	CC[C@H]1O[C@@H](C#C)[C@H]1C	
InChI=1S/C8H12O/c1-4-7-6(3)8(5-2)9-7/h1,6-8H,5H2,2-3H3	InChI=1S/C8H12O/c1-4-7-6(3)8(5-2)9-7/h1,6-8H,5H2,2-3H3/t6-,7+,8-/m1/s1
