17
gdb 22348	3.32647	1.07779	0.84096	2.694	79.58	-0.1929	-0.0049	0.188	1314.2368	0.136265	-455.123896	-455.115081	-455.114137	-455.157435	33.725	
N	 0.0144997476	 1.3637905855	-0.0169948299	-0.581296
C	-0.0951938058	 0.00305312	-0.020246115	 0.321195
C	-1.1895361275	-0.7933609753	-0.0562998043	-0.304907
C	-0.7890061011	-2.1862572265	-0.0095878899	 0.398765
C	 0.7266701548	-2.2610121435	-0.0921617258	-0.337244
C	 1.1881767688	-0.8005822733	 0.1090442124	 0.054055
O	 2.2096477576	-0.342313203	-0.7712756512	-0.43474
N	-1.4901213448	-3.2548563579	 0.0744021943	-0.267095
O	-2.8711916873	-2.9442940369	 0.1368023299	-0.407234
H	 0.9116471715	 1.7162369694	-0.31829077	 0.260938
H	-0.777563928	 1.9073434454	-0.3216319144	 0.257712
H	-2.2205295866	-0.4734309918	-0.0958085174	 0.105469
H	 1.1523188652	-2.9526186114	 0.6372505475	 0.127165
H	 1.040716502	-2.6078333296	-1.0845344721	 0.114103
H	 1.6133069539	-0.6499376103	 1.1083020211	 0.113022
H	 1.9263216939	-0.5392564282	-1.6720841297	 0.280572
H	-3.2654688943	-3.8193013227	 0.2034850344	 0.29952
52.4582	158.155	201.9871	261.6857	264.1613	360.9568	362.6661	364.6236	410.9622	486.1648	525.6	528.783	592.2896	603.8255	653.4793	704.7286	820.5	860.8955	891.3151	951.3721	969.7322	1027.3179	1086.9615	1103.507	1146.0148	1233.787	1249.7829	1279.6179	1296.5603	1312.3323	1396.8381	1400.8841	1425.2853	1475.2411	1630.6167	1690.8266	1729.4932	3034.2589	3045.013	3112.5382	3240.2935	3570.2012	3682.5222	3786.19	3830.8307
NC1=CC(CC1O)=NO	NC1=CC(=NO)C[C@H]1O	
InChI=1S/C5H8N2O2/c6-4-1-3(7-9)2-5(4)8/h1,5,8-9H,2,6H2	InChI=1S/C5H8N2O2/c6-4-1-3(7-9)2-5(4)8/h1,5,8-9H,2,6H2/t5-/m1/s1
