21
gdb 103494	2.52928	1.3975	1.1859	1.2506	77.81	-0.2436	0.0695	0.3131	1156.9953	0.182562	-424.215889	-424.206945	-424.206	-424.249188	34.468	
C	 0.1248494945	 1.5015059602	 0.2023884622	-0.398275
C	-0.1329513508	 0.007314705	-0.0360393391	-0.252599
C	 0.6488878809	-0.5453813581	-1.2130250399	 0.414153
O	 0.3238954719	 0.0583977204	-2.4468187721	-0.481016
C	 2.0884747934	-1.0203741635	-1.1238341394	-0.145413
C	 2.6550844123	-1.432755507	 0.2226000347	-0.104617
O	 1.696419707	-2.3066499576	 0.8180534758	-0.255662
C	 0.9268014876	-2.9330907929	-0.2086756712	-0.106519
C	 0.9621261971	-2.0030195242	-1.4055168198	-0.122734
H	 1.1848795795	 1.6979160917	 0.3980645172	 0.115908
H	-0.1782026987	 2.1047959557	-0.6606240547	 0.109326
H	-0.4448570914	 1.863265085	 1.0631403743	 0.118696
H	 0.1151438884	-0.558159531	 0.8649379301	 0.128657
H	-1.2002040107	-0.1497001676	-0.2356584501	 0.101615
H	 0.6637587641	 0.9594201022	-2.4317683896	 0.281335
H	 2.7711284057	-0.7184933233	-1.9097988829	 0.089218
H	 3.6196259964	-1.9447812585	 0.0747686856	 0.09539
H	 2.8146613968	-0.6081118836	 0.9263904118	 0.106611
H	 1.3585131914	-3.9072039527	-0.4877015072	 0.095981
H	-0.0730760964	-3.1091962958	 0.2029882422	 0.109479
H	 0.8121394007	-2.4139515844	-2.3965743478	 0.100467
90.0263	144.1757	201.8288	223.7912	253.0736	262.3279	279.8444	332.6265	410.0352	436.8074	520.15	659.0171	712.4362	750.5492	795.4521	855.6351	864.2296	914.5045	936.7823	1004.3803	1007.0849	1007.9021	1015.1153	1055.44	1089.6862	1104.5725	1113.1137	1122.5583	1180.7625	1223.4705	1242.6676	1278.7438	1284.3837	1305.0459	1315.2107	1357.7035	1364.3399	1398.8949	1405.3285	1458.5079	1485.3908	1500.1047	1511.5768	1515.817	1526.0248	2973.1843	2981.775	3029.7246	3034.6942	3055.0513	3061.1282	3087.4967	3107.0725	3115.5633	3178.1755	3190.4851	3804.1085
CCC1(O)C2COCC12	CC[C@@]1(O)[C@H]2COC[C@@H]12	
InChI=1S/C7H12O2/c1-2-7(8)5-3-9-4-6(5)7/h5-6,8H,2-4H2,1H3	InChI=1S/C7H12O2/c1-2-7(8)5-3-9-4-6(5)7/h5-6,8H,2-4H2,1H3/t5-,6+,7+
