16
gdb 78057	2.69914	1.42003	1.09262	3.4845	72.22	-0.2518	-0.0188	0.233	1101.5312	0.122614	-437.841218	-437.83304	-437.832096	-437.874161	30.101	
C	 0.0874820482	 1.5570758921	 0.1036686005	-0.448622
C	 0.1131144016	 0.0394191318	 0.0604192079	 0.029855
C	 1.3124473041	-0.7060667582	-0.6386746723	-0.200661
N	 2.1521515499	-0.4272833783	 0.5787850035	-0.057268
C	 3.0269800278	 0.5798492276	 0.8697294374	 0.131745
O	 3.1736760109	 1.0793685612	 1.963444978	-0.322901
C	 0.8332410538	-0.7630202004	 1.2139768543	-0.185133
C	 0.8460316918	-1.9413124015	 0.1935313321	 0.488759
O	 0.6094122111	-3.09621636	 0.0943473686	-0.297108
H	 1.0398857249	 1.9877800507	 0.4173009496	 0.156384
H	-0.1671116148	 1.9596949979	-0.881868505	 0.129342
H	-0.6775417514	 1.8961924239	 0.8088067694	 0.137252
H	-0.8691539739	-0.366077654	-0.208451317	 0.10419
H	 1.6955508255	-0.6193230974	-1.6529002812	 0.117936
H	 3.6535797825	 0.8309567482	-0.0091999668	 0.082648
H	 0.6800841881	-0.7303726836	 2.288391661	 0.133582
88.3598	154.0692	168.0919	204.1297	244.7969	277.9734	338.0078	473.0913	532.0236	588.7654	690.5173	717.4498	756.6654	768.0736	819.1426	884.2895	992.5237	1015.2075	1019.2463	1053.8402	1077.8462	1098.7062	1123.9417	1150.051	1176.5781	1210.9163	1225.9404	1383.8216	1398.1286	1419.1397	1421.7837	1490.5593	1499.3144	1781.0645	1954.2616	2935.9121	3044.8551	3050.8093	3108.017	3142.5981	3158.0112	3182.6331
CC1C2N(C=O)C1C2=O	C[C@H]1[C@H]2N(C=O)[C@@H]1C2=O	
InChI=1S/C6H7NO2/c1-3-4-6(9)5(3)7(4)2-8/h2-5H,1H3	InChI=1S/C6H7NO2/c1-3-4-6(9)5(3)7(4)2-8/h2-5H,1H3/t3-,4+,5-
