21
gdb 54679	3.19451	1.11395	0.85955	3.0447	86.68	-0.2366	-0.0394	0.1971	1377.8533	0.183207	-387.141106	-387.132162	-387.131218	-387.175101	33.879	
C	 0.0288946398	 1.5166783453	 0.0777754257	-0.491217
C	 0.0676056746	-0.0033333688	 0.0590411021	 0.317948
O	 1.1328008177	-0.5890897663	 0.0604213809	-0.311415
C	-1.2416761862	-0.7396181374	 0.0401146709	 0.175813
C	-1.2012236623	-2.0804839441	 0.0482125572	-0.087035
C	-2.4073203617	-2.9713517687	 0.0689422021	-0.254131
C	-3.6996595123	-2.2069268112	 0.3877155167	-0.198624
C	-3.7374197234	-0.8777355599	-0.3734926274	-0.205331
C	-2.5533395536	 0.0191009657	 0.0200284427	-0.308386
H	 1.0448524513	 1.8953827316	 0.1916338809	 0.138358
H	-0.3959622927	 1.9026546621	-0.8560014854	 0.139366
H	-0.6015489234	 1.8909416793	 0.8914649201	 0.133677
H	-0.2203860923	-2.5491397007	 0.0415556663	 0.117235
H	-2.4900895738	-3.4717549054	-0.9085279394	 0.117261
H	-2.2471765556	-3.7837029167	 0.7894760846	 0.112035
H	-4.5730572865	-2.8205016419	 0.1441888826	 0.095574
H	-3.7455221936	-2.0066097179	 1.4659581528	 0.100755
H	-3.6935802324	-1.079081151	-1.4518957938	 0.100656
H	-4.6799310129	-0.3515123465	-0.1896211365	 0.094818
H	-2.7403177749	 0.4638812794	 1.0088244401	 0.109359
H	-2.4918466459	 0.8662857331	-0.6725097835	 0.103285
52.1277	105.751	171.3513	214.9769	228.1117	283.1708	347.7986	409.5781	436.5838	476.13	545.4756	601.9103	621.3234	750.3641	816.066	853.4824	873.2034	912.6409	953.1871	966.0659	979.7794	1042.8819	1046.566	1075.0952	1090.8825	1101.7676	1160.0354	1195.2438	1247.462	1266.9155	1298.7371	1325.9468	1368.733	1371.2607	1381.8728	1382.5895	1395.3676	1461.0267	1463.7465	1475.5089	1482.6441	1490.5456	1499.8513	1679.4099	1778.3224	2992.2836	2996.6847	3019.8408	3025.4814	3035.9982	3041.2372	3055.335	3072.6282	3076.6072	3096.222	3153.7375	3171.1572
CC(=O)C1=CCCCC1	CC(=O)C1=CCCCC1	
InChI=1S/C8H12O/c1-7(9)8-5-3-2-4-6-8/h5H,2-4,6H2,1H3	InChI=1S/C8H12O/c1-7(9)8-5-3-2-4-6-8/h5H,2-4,6H2,1H3
