20
gdb 97207	2.36343	1.46667	1.14297	1.1138	77.76	-0.2513	0.0274	0.2787	1179.516	0.169105	-440.307598	-440.297766	-440.296822	-440.342498	35.261	
C	-0.100106655	 1.4430311736	-0.0519614131	-0.33712
N	-0.1510363801	-0.0076531485	-0.1344902486	-0.323056
C	 0.5577214753	-0.6157132584	-0.9742823935	 0.408212
O	 1.4072127246	-0.0502941395	-1.8878191156	-0.255245
C	 2.0860396754	-1.1085292535	-2.5622808098	 0.005359
O	 1.3183852782	-2.2631568484	-2.3965151587	-0.280104
C	 0.6194401348	-2.1304762026	-1.1433954637	 0.243785
C	 1.4202365014	-2.7708100015	-0.0014666104	-0.417002
C	-0.7634262689	-2.7512742439	-1.2927334936	-0.417466
H	 0.670475456	 1.9033878865	-0.6806814622	 0.123345
H	-1.0753881302	 1.8541739039	-0.3376231237	 0.12752
H	 0.0724554943	 1.7340336621	 0.9899280557	 0.125153
H	 2.156908488	-0.8671591855	-3.6268094718	 0.126772
H	 3.0941246122	-1.2090866746	-2.1280489894	 0.10061
H	 2.4228138019	-2.3387656863	 0.0739684878	 0.117953
H	 0.907872058	-2.6033791121	 0.949302643	 0.140711
H	 1.5189573657	-3.8463573632	-0.1725213503	 0.124029
H	-0.68238701	-3.8337812472	-1.4263280248	 0.119617
H	-1.3544436584	-2.5411195397	-0.3985471149	 0.142283
H	-1.2776161231	-2.3285117211	-2.1590404923	 0.124644
59.0023	87.9926	151.9662	189.7875	197.6202	205.7143	251.9133	294.6337	318.1491	339.9346	434.5501	537.5846	602.7742	717.3877	745.1931	749.265	857.358	938.2336	964.9698	1007.5405	1018.9507	1046.185	1082.1478	1131.5153	1140.6221	1172.4427	1179.1375	1200.6257	1223.4854	1228.964	1312.6625	1393.6359	1410.2964	1437.1186	1440.7579	1475.8704	1479.0823	1494.05	1495.9996	1497.7038	1504.2811	1547.8238	1818.0114	2970.0546	3017.5613	3042.8056	3050.4052	3078.7144	3085.01	3089.1748	3114.7633	3125.3003	3130.8646	3140.7349
CN=C1OCOC1(C)C	CN=C1OCOC1(C)C	
InChI=1S/C6H11NO2/c1-6(2)5(7-3)8-4-9-6/h4H2,1-3H3	InChI=1S/C6H11NO2/c1-6(2)5(7-3)8-4-9-6/h4H2,1-3H3
