14
gdb 10789	4.86669	1.66359	1.28015	0.0009	61.35	-0.2706	-0.0063	0.2643	894.0696	0.108488	-415.865893	-415.858722	-415.857778	-415.898429	25.358	
N	-0.0915275776	 1.3424185548	-0.1166584408	-0.496592
C	-0.0005113163	 0.0979197686	 0.0768387799	 0.361135
C	-1.2499845221	-0.7496447569	 0.0774011113	-0.154996
O	-1.1813904468	-1.9509972454	 0.8542762381	-0.243023
C	 0.0039186754	-2.610484018	 0.9206902754	 0.361185
N	 0.0950592808	-3.8550036374	 1.1140185205	-0.49659
C	 1.2532120383	-1.7626917008	 0.9205587565	-0.155053
O	 1.1847112758	-0.5617537496	 0.1430285446	-0.242994
H	 0.8381457954	 1.7635681335	-0.1723123615	 0.229109
H	-2.0802423128	-0.163052578	 0.4679231175	 0.160554
H	-1.4770284985	-1.0221078034	-0.9623336985	 0.143819
H	-0.8345712403	-4.2762921163	 1.1693568734	 0.229101
H	 1.4795860046	-1.4896877592	 1.9603012331	 0.143789
H	 2.0838193343	-2.3492570818	 0.5307559804	 0.160556
48.5927	74.1347	144.1694	391.1571	403.5295	437.9649	499.1079	549.5292	567.9209	781.3706	783.7291	892.8985	918.5511	918.6155	984.7398	1018.5848	1036.1852	1069.4443	1139.3507	1179.7386	1259.7587	1260.9007	1298.6541	1345.2671	1412.9592	1422.5438	1489.436	1492.8244	1761.5562	1762.6137	3019.9939	3020.8822	3148.0862	3148.34	3468.649	3468.8073
N=C1COC(=N)CO1	[NH][C]1CO[C]([NH])CO1	
InChI=1S/C4H6N2O2/c5-3-1-7-4(6)2-8-3/h5-6H,1-2H2	InChI=1S/C4H6N2O2/c5-3-1-7-4(6)2-8-3/h5-6H,1-2H2
