14
gdb 56458	2.9832	1.00414	0.79677	4.0466	68.47	-0.2829	-0.061	0.222	1349.5982	0.097103	-436.666759	-436.657289	-436.656345	-436.70258	32.766	
O	 0.0895835746	 1.514499234	-0.1451851905	-0.409761
C	 0.0234788874	 0.1238440379	-0.0189955446	-0.10054
C	 0.607071258	-0.5810507028	-1.1664721601	 0.310688
C	 1.0924753606	-1.1667354931	-2.0966762525	-0.460572
C	 0.7364856584	-0.3210166795	 1.2818615459	 0.365114
O	 1.2547228199	 0.507497614	 1.9829403993	-0.281568
C	 0.7319924164	-1.8164336109	 1.592243713	-0.461639
C	 1.2758761994	-2.1410313875	 2.9042985179	 0.291938
N	 1.6997585821	-2.4191755858	 3.9410863797	-0.286396
H	 0.6604363452	 1.8173827318	 0.5801053681	 0.303789
H	-1.031417739	-0.1870419024	 0.079832075	 0.12934
H	 1.5144167848	-1.6715329403	-2.9313807143	 0.216232
H	-0.2921023059	-2.1993437145	 1.5049717148	 0.181486
H	 1.3067217881	-2.3232486106	 0.8079256283	 0.20189
26.9536	57.0946	112.6333	149.7762	227.7833	284.4958	354.8373	373.0143	380.4372	417.2322	435.7115	549.7016	580.2423	642.2102	691.2145	739.7478	822.0685	934.9632	957.8233	980.428	1060.2502	1143.6969	1200.4364	1253.1556	1338.412	1342.517	1424.7564	1432.1098	1831.2542	2233.0782	2378.9667	2956.1016	3048.3553	3083.2882	3497.2562	3681.4282
OC(C#C)C(=O)CC#N	O[C@@H](C#C)C(=O)CC#N	
InChI=1S/C6H5NO2/c1-2-5(8)6(9)3-4-7/h1,5,8H,3H2	InChI=1S/C6H5NO2/c1-2-5(8)6(9)3-4-7/h1,5,8H,3H2/t5-/m0/s1
