19
gdb 95654	2.25463	1.52081	1.14312	1.9756	71.28	-0.2392	-0.0271	0.2121	1122.5642	0.159937	-460.193246	-460.184572	-460.183628	-460.226426	33.376	
O	 0.075625309	 1.4371258077	 0.0309816807	-0.441842
C	 0.0207602842	 0.0248800767	 0.0219244132	 0.125494
C	-1.4192332202	-0.5069788163	 0.0890338955	-0.21339
C	-1.4576221188	-2.040839616	 0.0522137897	-0.227424
C	-0.758880464	-2.5959165246	-1.2081875058	-0.287689
C	 0.6536443093	-2.0507465058	-1.3019618401	 0.36836
O	 1.640247101	-2.740627749	-1.4163247082	-0.31253
C	 0.7518442525	-0.520752541	-1.2175834898	-0.018082
O	 0.0954538088	 0.0748361587	-2.3453123342	-0.445013
H	-0.1668717657	 1.714253043	-0.8619637901	 0.287447
H	 0.5711760904	-0.3099911068	 0.9101997061	 0.095341
H	-1.8891467212	-0.1267772442	 1.0008289979	 0.106539
H	-1.9824058873	-0.100192228	-0.759283131	 0.108274
H	-0.9640061111	-2.446068398	 0.9451700096	 0.109652
H	-2.4923466095	-2.3956634789	 0.0813346256	 0.108774
H	-0.7173631356	-3.6871505707	-1.2139379006	 0.117066
H	-1.3102088141	-2.2625784383	-2.0962775321	 0.126818
H	 1.8097419116	-0.236842918	-1.185046899	 0.090813
H	 0.6610695807	-0.0367288206	-3.1155973674	 0.301392
76.1874	132.2541	210.4194	259.6793	281.9694	325.3929	338.0948	403.3328	432.8871	447.2499	487.416	538.6306	659.8305	684.8045	769.3476	830.163	891.42	896.4756	957.5183	993.9298	1038.2312	1083.1541	1090.1047	1096.1475	1123.1012	1198.6237	1210.5684	1247.1219	1264.8992	1276.284	1319.0159	1334.046	1352.8537	1369.6667	1380.0067	1407.3932	1441.3397	1461.2253	1487.1049	1498.0617	1815.9434	3025.8157	3033.743	3039.5773	3044.3251	3052.3491	3080.7533	3094.2434	3115.5944	3775.1176	3830.8345
OC1CCCC(=O)C1O	O[C@H]1CCCC(=O)[C@H]1O	
InChI=1S/C6H10O3/c7-4-2-1-3-5(8)6(4)9/h4,6-7,9H,1-3H2	InChI=1S/C6H10O3/c7-4-2-1-3-5(8)6(4)9/h4,6-7,9H,1-3H2/t4-,6-/m0/s1
