17
gdb 121777	2.74718	0.82609	0.66075	4.712	74.77	-0.3125	-0.0362	0.2762	1667.8923	0.133641	-418.009925	-417.999858	-417.998914	-418.046283	33.972	
C	 0.0232414636	 1.4743009798	 0.1471951787	-0.387945
C	-0.0595432206	-0.0342430867	-0.1019788662	-0.18943
C	-1.4717246757	-0.5639136677	 0.0854092078	-0.059327
O	-1.4521061712	-1.9732920509	-0.175186024	-0.234908
C	-2.7062472748	-2.5841296549	-0.075561082	-0.135182
C	-2.6100698329	-3.9413081969	-0.6421487408	 0.30607
N	-2.5589234933	-4.9957455659	-1.106880274	-0.29175
C	-3.1998813398	-2.6468196976	 1.3247554964	 0.28952
N	-3.5745370315	-2.6419665722	 2.4166922257	-0.303577
H	 1.0465942104	 1.8326811596	 0.0087325159	 0.128312
H	-0.6198699845	 2.0305765583	-0.5432935945	 0.121494
H	-0.2831427576	 1.7289111215	 1.1673526892	 0.125832
H	 0.2718899466	-0.2731981924	-1.1184193287	 0.118045
H	 0.6063402483	-0.5711457556	 0.5822301479	 0.122505
H	-1.8277478259	-0.3793243227	 1.1090197371	 0.124334
H	-2.172848556	-0.0751670035	-0.6099005023	 0.10261
H	-3.4664632849	-2.0350394021	-0.6582963363	 0.163395
52.9197	64.3316	103.5277	128.4765	140.0426	224.9061	232.591	247.2375	365.1325	375.0336	391.466	532.3805	575.9149	643.1562	768.2904	881.0396	904.8638	916.9892	998.245	1025.3469	1053.6771	1127.3987	1149.9713	1189.5508	1270.5536	1318.6234	1323.0213	1326.4178	1347.3695	1414.7216	1439.2168	1492.368	1501.2745	1506.6426	1523.1522	2363.6483	2381.8649	2964.1122	2978.8104	3027.4641	3036.5177	3047.2047	3081.8409	3107.4392	3116.9945
CCCOC(C#N)C#N	CCCOC(C#N)C#N	
InChI=1S/C6H8N2O/c1-2-3-9-6(4-7)5-8/h6H,2-3H2,1H3	InChI=1S/C6H8N2O/c1-2-3-9-6(4-7)5-8/h6H,2-3H2,1H3
