21
gdb 69648	3.76724	1.22044	1.11314	1.4384	83.02	-0.226	0.0808	0.3068	1196.8724	0.181895	-387.051239	-387.042837	-387.041893	-387.083919	33.387	
C	 0.0650680142	 1.4989973589	-0.0358389223	-0.487877
C	 0.0559263653	 0.0099169523	 0.0715509515	 0.461064
C	-0.904488042	-0.8419114827	 0.844822984	-0.345891
C	 0.5911036956	-0.9881767909	 1.0723917179	-0.254851
C	 1.2074775976	-1.6802922383	-0.1380974181	 0.469515
C	 2.7438534538	-1.8299192332	-0.194219227	-0.292779
C	 2.5515813108	-3.3534345465	 0.0493320418	-0.216906
C	 1.067525818	-3.195746036	-0.3878854816	-0.289771
O	 0.574495661	-0.7406771684	-1.0405657089	-0.362364
H	 1.0697277661	 1.8704814418	-0.26057577	 0.126536
H	-0.6060336221	 1.8294519718	-0.8369432722	 0.131293
H	-0.2764828033	 1.9533115952	 0.8987355079	 0.121512
H	-1.4365254904	-0.3434277084	 1.6498015797	 0.109336
H	-1.4635893501	-1.6229841598	 0.336332388	 0.111623
H	 1.0675227679	-0.844673315	 2.0336972154	 0.09485
H	 3.1017791887	-1.6205920789	-1.206117099	 0.112158
H	 3.336935362	-1.254066107	 0.5210393819	 0.095973
H	 3.1747679316	-4.0334577737	-0.5338819822	 0.101937
H	 2.6432406958	-3.6169913411	 1.1060927808	 0.10447
H	 0.2951851345	-3.7310930676	 0.1700017405	 0.097237
H	 0.9382003348	-3.3916871123	-1.4562002979	 0.112935
112.8641	116.4696	199.8796	205.0019	302.1819	323.1961	370.6562	450.828	476.5471	511.4968	666.7344	688.105	782.7577	818.9588	826.7056	845.4042	901.755	922.3638	923.8202	957.407	965.4991	980.468	992.7015	1022.8844	1052.9576	1070.0506	1107.674	1121.3581	1141.1134	1174.1994	1196.8836	1218.354	1243.4944	1254.7061	1271.1033	1282.7649	1344.5301	1383.1839	1426.9045	1466.5541	1474.3189	1482.5095	1488.4224	1501.8125	1505.2496	3031.6584	3054.6531	3058.6635	3068.1629	3095.0353	3105.1154	3110.0876	3111.6057	3115.1852	3127.1417	3189.6736	3203.0173	112.8648	116.47	199.8791	205.0019	302.182	323.1961	370.6563	450.8281	476.5472	511.4968	666.7345	688.1051	782.7577	818.9588	826.7056	845.4043	901.7549	922.3638	923.8202	957.407	965.499	980.468	992.7014	1022.8842	1052.9576	1070.0507	1107.6742	1121.3581	1141.1134	1174.1992	1196.8834	1218.3538	1243.494	1254.706	1271.103	1282.7649	1344.5301	1383.1841	1426.9046	1466.5538	1474.3193	1482.509	1488.4225	1501.8126	1505.2494	3031.6584	3054.6532	3058.6636	3068.1629	3095.0353	3105.1155	3110.0876	3111.6058	3115.1852	3127.1418	3189.6736	3203.0173
CC12CC1C1(CCC1)O2	C[C@]12C[C@H]1C1(CCC1)O2	
InChI=1S/C8H12O/c1-7-5-6(7)8(9-7)3-2-4-8/h6H,2-5H2,1H3	InChI=1S/C8H12O/c1-7-5-6(7)8(9-7)3-2-4-8/h6H,2-5H2,1H3/t6-,7+/m1/s1
