21
gdb 39415	2.33051	1.9284	1.28908	1.2423	81.66	-0.2444	0.0757	0.3201	1046.8896	0.18576	-387.060274	-387.052747	-387.051803	-387.092309	30.816	
C	 0.0387337659	 1.5484355441	 0.4208645029	-0.300071
C	 1.2808825258	 0.8946408446	-0.1223101067	-0.026158
C	 2.4986698274	 0.7105146123	 0.76016809	-0.106974
O	 2.2081639712	 0.3077549345	 2.0853896316	-0.243055
C	 2.0894344926	-1.0909729505	 2.2648736548	-0.106978
C	 0.7044491806	-1.6439732073	 1.9970710489	-0.026237
C	-0.5164970903	-0.8966387462	 2.462113284	-0.300071
C	-0.2527090071	-1.0569820536	 0.9803567836	-0.024707
C	 0.0072045827	 0.0880597652	 0.0242777442	-0.024813
H	 0.0387864246	 1.7729438871	 1.4816515921	 0.123417
H	-0.4967222049	 2.266719572	-0.1905355188	 0.10412
H	 1.557085463	 1.1504879463	-1.143698232	 0.077923
H	 3.193737954	-0.0071691483	 0.2949985984	 0.087861
H	 3.0288908974	 1.667895982	 0.8438288697	 0.104802
H	 2.8294750404	-1.6128869625	 1.6367435886	 0.087852
H	 2.3571966704	-1.2859103475	 3.3113105455	 0.104806
H	 0.6764857	-2.7278639008	 2.0938069581	 0.077928
H	-1.3397699618	-1.4442348886	 2.9079861878	 0.104123
H	-0.3442743744	 0.0839931597	 2.8915476877	 0.12341
H	-0.8764765558	-1.812684412	 0.510907418	 0.08141
H	-0.4854391917	-0.0896404703	-0.9276973283	 0.08141
60.2467	225.3863	249.7143	291.7062	347.263	400.7659	456.2799	527.0106	625.0453	671.8916	694.0342	752.4195	758.6189	840.2971	849.9868	892.89	917.8228	950.3278	980.9091	1007.7513	1053.3808	1057.7837	1071.8279	1086.3298	1105.9982	1123.0518	1124.6382	1142.4445	1146.3786	1156.3968	1176.4531	1219.6999	1279.7059	1292.0519	1337.1542	1380.9448	1393.0773	1401.761	1406.9542	1423.8761	1436.6904	1484.5452	1494.2153	1500.3795	1507.2033	2967.578	2974.0101	3036.8184	3040.587	3115.5208	3118.2526	3126.4426	3133.5179	3134.636	3146.316	3219.4449	3222.9196
C1C2COCC3CC3C12	C1[C@H]2COC[C@H]3C[C@H]3[C@@H]12	
InChI=1S/C8H12O/c1-5-3-9-4-6-2-8(6)7(1)5/h5-8H,1-4H2	InChI=1S/C8H12O/c1-5-3-9-4-6-2-8(6)7(1)5/h5-8H,1-4H2/t5-,6+,7-,8+
