18
gdb 77005	3.06847	1.03942	0.97662	3.1247	72.39	-0.2587	0.0313	0.29	1266.7385	0.14514	-439.078791	-439.068997	-439.068053	-439.113583	35.868	
C	 0.1030374694	 1.5984194728	-0.1947548462	-0.45599
C	-0.0025264199	 0.1014563314	-0.0206847536	 0.342718
O	-1.1566390545	-0.4734091349	-0.5779834682	-0.462984
C	 1.2353886763	-0.7608130193	-0.0229563265	 0.021174
O	 2.4683436288	-0.1121354599	-0.1064555533	-0.424517
C	 0.4105387567	-0.6087076275	 1.2490477257	-0.100061
C	 0.9961791223	 0.1286350932	 2.4449361248	-0.371387
C	 2.1763780623	-0.5640337511	 2.9707365965	 0.265488
N	 3.1168360164	-1.1274917423	 3.3378939217	-0.320501
H	 1.0707983203	 1.9783868931	 0.1361588887	 0.142634
H	 0.0095467963	 1.8501578214	-1.257803195	 0.116331
H	-0.6990705627	 2.1128287078	 0.3435577514	 0.12552
H	-1.1099286539	-0.3597050796	-1.5345611208	 0.282474
H	 1.1624845201	-1.7146737094	-0.5441652122	 0.097499
H	 3.0980929083	-0.5873229502	 0.4493269802	 0.306698
H	-0.2084976464	-1.4630038017	 1.5016045283	 0.11657
H	 1.2990739465	 1.1449692662	 2.1807970646	 0.16066
H	 0.2519913936	 0.2181811399	 3.2431425241	 0.157673
43.5899	101.5801	180.1365	198.6805	220.7614	266.317	274.3667	334.7398	373.2645	388.5284	404.6088	467.3055	486.9173	515.0232	658.4461	715.4585	830.1469	860.0215	927.849	955.5382	978.3913	1012.9333	1056.0555	1093.8393	1132.5174	1157.2755	1216.2505	1257.5244	1265.8292	1306.3868	1324.086	1342.3347	1381.9524	1414.0485	1453.6607	1467.1628	1496.0774	1506.1816	2355.2378	3034.679	3060.7551	3094.3291	3105.6485	3111.082	3141.789	3171.3899	3781.833	3786.73
CC1(O)C(O)C1CC#N	C[C@@]1(O)[C@@H](O)[C@H]1CC#N	
InChI=1S/C6H9NO2/c1-6(9)4(2-3-7)5(6)8/h4-5,8-9H,2H2,1H3	InChI=1S/C6H9NO2/c1-6(9)4(2-3-7)5(6)8/h4-5,8-9H,2H2,1H3/t4-,5+,6+/m1/s1
