18
gdb 59692	2.1114	1.56849	1.00174	2.595	72.03	-0.2609	0.0065	0.2674	1186.0933	0.146562	-439.078491	-439.069209	-439.068265	-439.112982	33.392	
C	-0.0715558425	 1.6135309263	 0.1886877461	-0.397277
C	-0.0639152032	 0.0962041543	 0.0675641127	 0.092528
O	 0.4213416851	-0.2516927804	-1.2223611068	-0.436789
C	 0.847890179	-0.5253828523	 1.1275956164	 0.128861
O	 0.3644115025	-0.3213612879	 2.4742471251	-0.279925
C	 0.1756248853	-1.7276950051	 2.6944288319	-0.077813
C	 0.7941790235	-2.0769538332	 1.3129932875	-0.240494
C	-0.016915848	-2.8294632997	 0.3742293342	 0.287727
N	-0.6722899094	-3.3966631442	-0.3924796024	-0.339596
H	 0.9250466802	 2.0125906405	-0.0263230678	 0.124947
H	-0.7746368126	 2.0456423905	-0.5273988436	 0.125938
H	-0.3613847227	 1.9113746846	 1.1996668198	 0.136045
H	-1.0842996629	-0.2858673572	 0.2195686396	 0.084318
H	 0.0799078657	-1.1235224712	-1.450329705	 0.301719
H	 1.8677543161	-0.1438999889	 0.9991392297	 0.099026
H	 0.7419838893	-2.0949950105	 3.5562023829	 0.123164
H	-0.8801389981	-1.9969349779	 2.8075595411	 0.127317
H	 1.7822280527	-2.5344324179	 1.3839826888	 0.140304
61.1356	100.1932	117.8092	194.6524	214.187	234.7206	311.8679	358.3109	386.4094	430.1645	479.9196	538.1605	610.714	742.5723	832.0438	884.3446	917.8724	982.2799	996.3934	1029.015	1051.3994	1070.9855	1108.2811	1129.6579	1159.7091	1172.0862	1212.279	1265.8396	1274.7329	1314.743	1344.3835	1357.5541	1392.591	1404.5954	1426.2679	1487.9709	1496.9559	1524.4404	2346.7065	2996.4385	3034.6445	3042.7091	3046.6869	3083.4921	3105.1776	3119.5532	3134.2011	3806.5768
CC(O)C1OCC1C#N	C[C@@H](O)[C@H]1OC[C@H]1C#N	
InChI=1S/C6H9NO2/c1-4(8)6-5(2-7)3-9-6/h4-6,8H,3H2,1H3	InChI=1S/C6H9NO2/c1-4(8)6-5(2-7)3-9-6/h4-6,8H,3H2,1H3/t4-,5-,6-/m1/s1
