16
gdb 128744	3.91015	1.2493	0.99958	5.0149	71.89	-0.2579	0.003	0.2609	1151.5241	0.125571	-434.008798	-434.001119	-434.000175	-434.041641	27.616	
C	-0.0339147351	 1.3377616223	 0.2920949202	-0.243586
O	-0.1036261593	 0.0968504311	-0.3850457805	-0.218701
C	-1.3001191879	-0.5791758011	-0.1665172222	-0.057039
C	-1.2708420663	-2.0281176896	-0.7771824708	-0.19649
N	-1.4764567052	-2.4909666396	 0.6125963048	 0.087753
N	-1.7122644098	-3.5042327135	 1.4521975785	-0.176316
N	-1.8730176645	-2.9232434484	 2.6234507434	-0.179735
C	-1.7643181	-1.5618034365	 2.5205992497	-0.219244
C	-1.5033011708	-1.2825722814	 1.195489319	 0.301381
H	 0.9277516871	 1.78664781	 0.037592843	 0.14054
H	-0.8423620855	 2.0142883275	-0.0228699172	 0.113913
H	-0.091052105	 1.2028563459	 1.3814713813	 0.122692
H	-2.165178093	 0.0218348165	-0.4801387873	 0.098563
H	-2.0870094104	-2.2887772477	-1.4526253879	 0.146435
H	-0.302452841	-2.3065153645	-1.1943081205	 0.154712
H	-1.8751462631	-0.9287558711	 3.3844781465	 0.125121
78.8756	122.4625	142.0569	207.4852	251.6019	369.7183	443.4868	514.0001	669.7261	697.9285	772.922	792.0351	837.7778	883.6341	973.3437	1017.6193	1070.3907	1080.3773	1110.9526	1141.1303	1161.327	1182.2513	1199.7193	1231.568	1238.5479	1256.3617	1287.0187	1327.2454	1384.2315	1467.4397	1482.8074	1487.9807	1505.5485	1507.3532	1522.2588	2987.3768	3010.238	3042.7263	3087.0772	3133.1083	3156.0775	3283.4955
COC1CN2N=NC=C12	CO[C@H]1Cn2nncc12	
InChI=1S/C5H7N3O/c1-9-5-3-8-4(5)2-6-7-8/h2,5H,3H2,1H3	InChI=1S/C5H7N3O/c1-9-5-3-8-4(5)2-6-7-8/h2,5H,3H2,1H3/t5-/m0/s1
