17
gdb 70160	2.65548	1.70761	1.18933	5.5751	75.57	-0.2388	-0.0531	0.1857	1044.4342	0.136641	-418.025741	-418.017639	-418.016695	-418.058192	31.111	
C	-0.096385379	 1.5302279612	 0.0087725143	-0.475871
C	 0.0790153534	 0.0330591717	 0.010828882	 0.207154
C	-0.769955394	-0.8541508386	 0.9339509648	-0.333478
C	 0.7183675085	-0.773278142	 1.1130273284	-0.059099
N	 1.5030769043	-1.8165662806	 0.4922013171	-0.337358
C	 1.2887290692	-1.8953032749	-0.8777768825	 0.254218
N	 1.6302690643	-2.7781357627	-1.7269692704	-0.50632
C	 0.5112707636	-0.6326675179	-1.2640556186	 0.327715
O	 0.3355299354	-0.2263613049	-2.3814135037	-0.299607
H	 0.8283168286	 2.0339096182	-0.2894065048	 0.134487
H	-0.8735222129	 1.8162472922	-0.7058484809	 0.146333
H	-0.3842684071	 1.8978652869	 0.9978288608	 0.11574
H	-1.4081476063	-0.3147768517	 1.6261581578	 0.12854
H	-1.1903150146	-1.7767918998	 0.5473551767	 0.13185
H	 1.1572039659	-0.2939845661	 1.9811392798	 0.112873
H	 1.6461715501	-2.6769593113	 1.0024005263	 0.24347
H	 2.1325493204	-3.5526319898	-1.2855998472	 0.209353
96.2999	152.1141	186.3046	267.3648	277.0816	332.8613	422.3052	451.8111	515.7575	525.6622	569.8719	682.1515	695.2053	796.4296	835.5886	855.4492	879.0421	902.6838	973.7053	1002.1384	1032.8676	1053.5722	1081.3923	1102.2479	1121.8479	1154.1113	1260.4288	1295.3103	1368.1362	1391.4631	1411.6701	1419.5847	1482.4552	1484.4398	1498.0912	1737.382	1848.8552	3041.2189	3110.2416	3116.9042	3128.5433	3171.8881	3220.4221	3437.1987	3588.2748
CC12CC1NC(=N)C2=O	C[C@]12C[C@H]1N[C]([NH])C2=O	
InChI=1S/C6H8N2O/c1-6-2-3(6)8-5(7)4(6)9/h3H,2H2,1H3,(H2,7,8)	InChI=1S/C6H8N2O/c1-6-2-3(6)8-5(7)4(6)9/h3H,2H2,1H3,(H2,7,8)/t3-,6+/m1/s1
