20
gdb 46537	3.6299	1.14462	1.04023	3.8323	78.87	-0.2357	0.0363	0.272	1212.7887	0.17316	-403.189662	-403.181595	-403.18065	-403.222485	31.503	
O	-0.2383555619	 0.2148177154	-0.9551883826	-0.379719
C	-0.1530724565	 1.2763189754	-0.3790299602	 0.406879
C	-1.1904526968	 1.9316887066	 0.5405625831	-0.404646
C	-0.7189318655	 3.387989005	 0.6836285692	 0.355858
C	-1.5022243879	 4.3812458888	-0.2340974257	-0.258985
C	-2.3313139753	 4.8189794476	 1.0028372373	-0.209796
C	-1.2486976709	 4.1757257778	 1.9112605469	-0.281514
C	 0.8034248267	 3.2755749417	 0.4722651098	-0.241393
N	 0.9227635715	 2.1259977165	-0.4063253767	-0.305663
H	-2.1978008546	 1.8171346642	 0.1355593251	 0.127168
H	-1.1598446053	 1.4019030268	 1.5016253189	 0.123475
H	-0.8581187823	 5.1866445355	-0.5998907172	 0.097312
H	-2.0404045515	 3.9542683545	-1.0841298414	 0.106111
H	-2.5193200533	 5.8873121829	 1.1267728743	 0.100735
H	-3.2865151553	 4.2914573001	 1.0669672655	 0.108568
H	-1.5835975942	 3.5891397049	 2.7712444909	 0.098088
H	-0.5187974016	 4.9142969245	 2.2593740082	 0.098744
H	 1.220536743	 4.1788340717	 0.0140689408	 0.10779
H	 1.3217401572	 3.1161648337	 1.4312473118	 0.101585
H	 1.7883864545	 1.8317680864	-0.8301485078	 0.249401
83.7212	111.2629	153.6845	258.64	345.6311	366.7946	443.5664	491.0233	494.1204	593.3078	657.6875	705.7126	759.3734	798.478	865.3623	878.4747	916.2218	931.4312	940.9102	956.658	980.5078	1061.9283	1070.5961	1101.9766	1125.308	1187.0064	1203.6486	1206.8685	1247.9869	1255.0203	1258.4769	1274.6781	1285.7936	1294.2027	1318.662	1349.7649	1444.0043	1464.4491	1477.1839	1486.1231	1507.0744	1527.9102	1833.8802	2974.6229	3032.2598	3042.6514	3050.1731	3056.617	3066.0034	3093.5937	3101.3966	3113.5527	3122.2402	3640.3227
O=C1CC2(CCC2)CN1	O=C1CC2(CCC2)CN1	
InChI=1S/C7H11NO/c9-6-4-7(5-8-6)2-1-3-7/h1-5H2,(H,8,9)	InChI=1S/C7H11NO/c9-6-4-7(5-8-6)2-1-3-7/h1-5H2,(H,8,9)
