15
gdb 99418	1.69341	1.49486	1.31616	4.1372	77.42	-0.2588	-0.0143	0.2445	1123.349	0.108872	-379.575737	-379.565885	-379.56494	-379.610171	35.341	
C	 0.0912862716	 1.4768678387	 0.027013936	-0.33502
N	-0.00475058	 0.016311034	 0.0407918628	-0.291703
C	-1.3836918269	-0.5084705273	 0.0188701899	-0.282297
C	-2.0990853539	-0.1032651994	 1.2432645674	 0.404024
C	-2.6912896565	 0.2227900671	 2.2337484236	-0.445295
C	-2.1623859279	-0.0920716365	-1.1719809993	 0.358876
C	-2.7344173342	 0.2760413822	-2.1615159549	-0.456376
C	-1.2749897924	-1.9923293473	 0.0046135974	 0.309333
N	-1.1781511923	-3.1418847952	-0.0290806642	-0.333024
H	 1.15073606	 1.7428152239	 0.010264635	 0.132987
H	-0.4076072039	 1.9505905335	-0.8311469331	 0.119527
H	-0.3450574881	 1.8757711246	 0.9460937434	 0.146025
H	 0.4817158315	-0.3724705752	-0.7614478512	 0.2416
H	-3.2156709809	 0.5074918509	 3.1131623182	 0.216257
H	-3.2570003361	 0.590397516	-3.031891521	 0.215085
107.6935	117.1982	127.9266	145.6116	177.4092	195.6709	260.2599	341.3831	348.2286	484.2777	515.4143	544.6865	567.1899	572.4598	655.3001	657.5723	663.3534	673.407	677.9236	779.3756	990.2912	1053.1848	1064.9666	1126.9518	1164.7883	1231.3727	1452.9517	1482.1605	1492.7556	1521.6435	2231.8502	2250.6239	2370.015	2999.3706	3094.4326	3132.3836	3497.1293	3498.2622	3521.8353
CNC(C#C)(C#C)C#N	CNC(C#C)(C#C)C#N	
InChI=1S/C7H6N2/c1-4-7(5-2,6-8)9-3/h1-2,9H,3H3	InChI=1S/C7H6N2/c1-4-7(5-2,6-8)9-3/h1-2,9H,3H3
