17
gdb 105978	4.32281	1.18238	1.17123	1.3023	72.05	-0.2195	0.0737	0.2932	1103.5501	0.133521	-421.691363	-421.68337	-421.682425	-421.723725	31.113	
C	 0.1515121204	 1.3324565674	-0.1482467008	-0.257253
O	-0.1482802523	-0.0244608475	 0.1522190861	-0.275142
C	 0.567748464	-0.5204201872	 1.1991391794	 0.450391
C	 2.0349024485	-0.9332893599	 1.3213050876	-0.176566
C	 1.9818204485	-0.6724799786	 2.8518484921	-0.131328
C	 0.5134458165	-0.225085569	 2.7426124249	-0.296252
C	 0.8713889504	-1.6844952322	 3.0045615442	 0.397516
O	 0.6185485064	-2.4895703289	 4.0820795972	-0.450519
C	 0.9029044841	-1.9676435327	 1.4588360224	-0.281333
H	 1.2133210086	 1.4576949881	-0.396907522	 0.116332
H	-0.4609537887	 1.6094958338	-1.0085822004	 0.128608
H	-0.0927211694	 1.992547091	 0.6949730875	 0.116532
H	 2.8460187338	-0.9255867918	 0.6051492299	 0.089399
H	 2.727506878	-0.3433675718	 3.5630926701	 0.092603
H	-0.0238951795	 0.4831748182	 3.359213879	 0.092051
H	-0.3346726679	-2.6213464578	 4.1483550213	 0.28884
H	 0.7082138385	-2.8390864812	 0.8483434017	 0.096124
92.5784	160.8812	165.3164	258.0621	314.6486	350.4634	406.3956	428.8736	560.8074	610.7194	682.7621	755.5032	776.1102	800.3757	828.8213	867.5535	872.9588	901.6604	932.5522	948.4453	979.4816	1018.4836	1046.6822	1076.9221	1110.8195	1135.0888	1179.2994	1194.0757	1214.8388	1225.9908	1256.4998	1304.4572	1412.1783	1463.3363	1485.7871	1496.7826	1504.9884	3002.0997	3059.9755	3128.3384	3193.6129	3202.1475	3210.8175	3212.0867	3778.8176
COC12C3C4C1C4(O)C23	CO[C@@]12[C@H]3[C@H]4[C@@H]1[C@@]4(O)[C@@H]23	
InChI=1S/C7H8O2/c1-9-7-3-2-4(7)6(2,8)5(3)7/h2-5,8H,1H3	InChI=1S/C7H8O2/c1-9-7-3-2-4(7)6(2,8)5(3)7/h2-5,8H,1H3/t2-,3-,4+,5-,6+,7-/m0/s1
