16
gdb 71509	3.16593	1.56459	1.41661	1.6005	69.93	-0.2487	0.0079	0.2566	957.7055	0.124474	-437.837623	-437.830579	-437.829634	-437.868923	28.036	
C	 0.0599724436	 1.4846571329	-0.1250085595	-0.529923
C	-0.0022139007	-0.0002236601	 0.0134959382	 0.421722
O	 0.5948145113	-0.8513369102	-1.0286955749	-0.348676
C	 0.0364055407	-1.8062791873	-0.0731228917	 0.043953
C	 0.5556410132	-0.9565666677	 1.1131690863	 0.009534
O	-0.3489647779	-1.0253969588	 2.2114081627	-0.258106
C	-1.5881365138	-1.0243948139	 1.5860623487	 0.432181
N	-2.7100575176	-1.0687008181	 2.1534411076	-0.551686
C	-1.2567460789	-0.9523707873	 0.128734082	-0.206702
H	 1.1000796692	 1.8154497301	-0.2017233674	 0.141517
H	-0.4770074097	 1.8118986622	-1.0199753655	 0.143682
H	-0.3954195958	 1.9613405359	 0.7483476063	 0.144036
H	 0.1324744202	-2.8700314864	-0.2842800084	 0.11017
H	 1.5960652368	-0.9512603814	 1.4268348671	 0.112577
H	-2.6003780552	-1.1083661343	 3.1688922907	 0.227906
H	-2.0510802454	-0.9362329755	-0.6106727123	 0.107814
135.9127	185.3386	231.3515	303.7889	381.2756	456.8612	520.7739	601.1356	619.8011	712.4635	721.0107	754.3459	841.3026	868.6802	894.2448	903.3312	922.0725	934.6769	1004.1459	1025.6266	1031.2344	1080.5577	1105.4411	1145.7006	1172.8124	1198.9041	1210.8093	1241.2196	1275.83	1330.9659	1386.6689	1422.8483	1474.1859	1487.6718	1806.1589	3042.8364	3118.7046	3120.5444	3138.1703	3173.4692	3187.7359	3467.2536
CC12OC3C1OC(=N)C23	C[C@@]12O[C@H]3[C@@H]1O[C]([NH])[C@@H]23	
InChI=1S/C6H7NO2/c1-6-2-3(9-6)4(6)8-5(2)7/h2-4,7H,1H3	InChI=1S/C6H7NO2/c1-6-2-3(9-6)4(6)8-5(2)7/h2-4,7H,1H3/t2-,3+,4-,6-/m0/s1
