16
gdb 10942	6.10977	1.25869	1.16798	3.589	66.02	-0.2394	-0.024	0.2153	1027.7532	0.128522	-383.715392	-383.707642	-383.706698	-383.747683	28.27	
C	 0.0500673668	 1.5476309194	-0.0492808151	-0.501535
C	-0.0807157882	 0.0715325254	 0.127549262	 0.426127
C	-1.3540945905	-0.7935097696	 0.0713569828	-0.319124
C	-0.6586520137	-1.8209727746	 1.0486843081	-0.099146
C	-0.4498200022	-3.2222480607	 0.5382716964	 0.154875
O	-0.8668467269	-4.2142971096	 1.0829393841	-0.257125
C	 0.5818090289	-0.8974866402	 1.0192367482	-0.068238
O	 0.9835663306	-0.7686259755	-0.3499910141	-0.279305
H	 1.0639842951	 1.8729704975	 0.1974907612	 0.139242
H	-0.1565154916	 1.8325516381	-1.087092531	 0.136178
H	-0.6581487164	 2.0801991909	 0.5932505172	 0.128572
H	-2.2294272141	-0.3328391564	 0.5338005429	 0.119782
H	-1.6162373282	-1.1598616619	-0.9245977943	 0.117596
H	-1.1459826488	-1.8560451041	 2.0247769319	 0.097905
H	 0.1322760841	-3.2800465912	-0.4063628947	 0.0937
H	 1.3478562051	-0.7770470576	 1.7770926644	 0.110496
75.3833	114.3595	196.2306	224.6218	310.5045	349.4805	400.9163	433.0441	538.2963	661.5917	741.8181	830.3139	872.1144	883.0806	903.5371	956.7468	1000.4141	1026.7593	1058.1206	1077.1137	1136.0987	1170.8626	1204.4088	1214.3314	1249.6559	1272.4329	1298.6524	1404.131	1419.1421	1456.8633	1476.6343	1485.7228	1497.6829	1821.7507	2909.4116	3036.1894	3067.1813	3099.1998	3102.8134	3123.9533	3128.9734	3184.073
CC12CC(C=O)C1O2	C[C@]12C[C@@H](C=O)[C@H]1O2	
InChI=1S/C6H8O2/c1-6-2-4(3-7)5(6)8-6/h3-5H,2H2,1H3	InChI=1S/C6H8O2/c1-6-2-4(3-7)5(6)8-6/h3-5H,2H2,1H3/t4-,5+,6-/m0/s1
