15
gdb 129815	3.18381	1.41843	0.98187	3.6088	75.37	-0.1884	-0.0304	0.158	1123.5309	0.114826	-450.146227	-450.138305	-450.137361	-450.178275	31.222	
N	 0.0705249578	 1.382923086	 0.1560909918	-0.591871
C	-0.0210675267	 0.0138129566	 0.0585099245	 0.273045
C	-1.1746030771	-0.7046377227	 0.0360268646	-0.224355
C	-1.1745496934	-2.1517194589	-0.0010556753	 0.397986
N	-2.2657068495	-2.8358750415	-0.0182158595	-0.58186
N	 0.1129534243	-2.6981773975	-0.0179527203	-0.335429
N	 1.2878732711	-2.0213979429	-0.0166161912	-0.306142
C	 1.2206007723	-0.7394885095	 0.0225960848	 0.411952
O	 2.3644512161	-0.006304465	 0.0177313882	-0.433095
H	 0.9453200663	 1.7896500224	-0.1347341459	 0.270295
H	-0.7483717936	 1.9142681239	-0.0936195633	 0.259175
H	-2.1467752394	-0.2271983006	 0.0514422713	 0.109067
H	-2.0766928183	-3.83904464	-0.0462607446	 0.187275
H	 0.2213175904	-3.6990760909	-0.0509936664	 0.258134
H	 3.1011773697	-0.6305112692	-0.0228689686	 0.305823
101.1869	192.6703	311.3131	331.3588	365.7447	366.6489	407.5728	464.4424	481.2874	494.4448	525.9733	530.5792	590.9579	673.6762	738.6085	745.7688	763.6342	803.9457	888.8712	954.03	1090.0293	1135.7505	1162.6037	1259.1085	1277.434	1335.3515	1384.9958	1454.6861	1510.9852	1624.3381	1646.9138	1687.3615	1720.5762	3209.5204	3455.0774	3589.4426	3639.4882	3702.2329	3783.9814
NC1=CC(=N)NN=C1O	N[C@@H]1C=C([NH])NN=C1O	
InChI=1S/C4H6N4O/c5-2-1-3(6)7-8-4(2)9/h1H,(H,8,9)(H4,5,6,7)	InChI=1S/C4H7N4O/c5-2-1-3(6)7-8-4(2)9/h1-2,6-7H,5H2,(H,8,9)/t2-/m1/s1
