19
gdb 7613	3.17318	1.65687	1.32287	2.7922	72.74	-0.2278	-0.0107	0.2171	1007.9414	0.162185	-365.058083	-365.048577	-365.047633	-365.092496	33.835	
C	-0.2242971873	 1.6369231317	 0.2974288493	-0.316662
N	-0.2272834013	 0.1923536643	 0.4799184144	-0.105346
C	 0.8148389323	-0.5869249467	-0.1490591327	-0.280429
C	 0.7762854249	-0.4405421387	 1.3528555275	 0.201324
C	 1.8732056487	 0.3478850938	 2.0421888231	-0.467239
C	 0.2478981067	-1.6010701614	 2.1730272603	 0.351636
C	-1.0762842939	-2.2195066533	 1.7714860613	-0.479762
O	 0.8765522655	-2.0032627464	 3.1285233467	-0.307625
H	 0.7739456751	 2.078109706	 0.1637920137	 0.10677
H	-0.8188093299	 1.8717208253	-0.5910018956	 0.12957
H	-0.7009166663	 2.1130470306	 1.1596171908	 0.12879
H	 0.5084781974	-1.50845781	-0.6381930689	 0.117114
H	 1.627895673	-0.0596764648	-0.6485996509	 0.113087
H	 2.3486333551	 1.0659677362	 1.3720154365	 0.112382
H	 1.4819484147	 0.8876310154	 2.9108312697	 0.12684
H	 2.6337090592	-0.3433468272	 2.4099704507	 0.148513
H	-1.0689598553	-2.5509000305	 0.7287443036	 0.136509
H	-1.2827980366	-3.0657570688	 2.427382938	 0.133283
H	-1.8715301421	-1.4726797256	 1.8476998125	 0.151246
44.513	107.2272	129.3516	164.9261	180.609	224.737	300.5814	331.529	386.4372	445.2112	458.5394	538.3275	599.8497	666.1812	752.5283	829.2002	929.9721	941.9407	986.9113	1032.2947	1070.0641	1095.2746	1114.8562	1137.9182	1155.7531	1178.1674	1205.6051	1320.1464	1365.0385	1384.544	1407.999	1451.4631	1452.5385	1468.1655	1480.4742	1485.4168	1497.2126	1503.5229	1512.5844	1791.8062	2995.9285	3050.12	3052.0058	3075.0278	3080.2703	3107.3702	3115.0353	3118.6037	3143.2906	3157.0327	3166.7652
CN1CC1(C)C(C)=O	CN1C[C@]1(C)C(=O)C	
InChI=1S/C6H11NO/c1-5(8)6(2)4-7(6)3/h4H2,1-3H3	InChI=1S/C6H11NO/c1-5(8)6(2)4-7(6)3/h4H2,1-3H3/t6-,7?/m1/s1
