18
gdb 18883	3.29392	2.66646	2.46584	1.7831	69.04	-0.2318	0.088	0.3198	697.4757	0.158557	-347.812412	-347.807066	-347.806122	-347.841427	23.618	
C	 0.008937457	 1.5883916089	-0.017049273	-0.222808
C	 1.5157038123	 1.9217680114	 0.0045133553	 0.106702
O	 2.0264215924	 1.7432687225	 1.3488400899	-0.303296
C	 2.1767183451	 0.3291307529	 1.0703920023	 0.106702
C	 0.8269505044	-0.3825158126	 1.3019871653	-0.222808
C	 0.0389963904	 0.0394873829	 0.0355678832	-0.028062
C	 1.0747569174	-0.2702205204	-1.0695386162	-0.229136
C	 2.1834277981	 0.5927912939	-0.467573499	-0.06122
H	-0.504915425	 2.0557650044	 0.8269795804	 0.10429
H	-0.4613552087	 1.9325158989	-0.9456075451	 0.091387
H	 1.7975712343	 2.8874061166	-0.4206409167	 0.071671
H	 3.0391728168	-0.1040872219	 1.5814271692	 0.071671
H	 0.9513698679	-1.4712819989	 1.3323979392	 0.091387
H	 0.3724156526	-0.0580592699	 2.2416646478	 0.10429
H	-0.9362254522	-0.4380775953	-0.0732179166	 0.059469
H	 1.3394103752	-1.3309927346	-1.1278930332	 0.094581
H	 0.7596559956	 0.0658615207	-2.06273793	 0.094581
H	 3.1487589663	 0.6610229405	-0.9642806928	 0.070598
338.1873	369.161	445.3122	478.7208	594.7076	627.6755	773.318	824.0872	841.5915	860.0881	866.0277	899.7718	907.4216	924.4145	936.9706	951.0465	981.5884	985.2969	1026.1198	1032.4526	1091.7272	1110.0486	1143.9529	1147.7179	1161.8584	1234.438	1243.2574	1269.0676	1278.8443	1279.0259	1304.411	1323.5975	1349.381	1355.3716	1360.2839	1469.6395	1475.7507	1501.578	3038.0076	3038.3474	3046.983	3085.6983	3087.4812	3091.9911	3097.835	3101.2206	3104.1621	3142.8196
C1C2OC3CC1CC23	C1[C@H]2O[C@H]3C[C@@H]1C[C@@H]23	
InChI=1S/C7H10O/c1-4-2-6-5(1)7(3-4)8-6/h4-7H,1-3H2	InChI=1S/C7H10O/c1-4-2-6-5(1)7(3-4)8-6/h4-7H,1-3H2/t4-,5+,6-,7+
