21
gdb 77738	2.28707	1.96239	1.3497	1.0846	89.5	-0.2029	-0.0246	0.1783	1048.213	0.182096	-349.864989	-349.856754	-349.85581	-349.89704	33.265	
C	 0.2428392642	 1.5305207275	-0.2888716601	-0.4163
C	 0.0349758469	 0.0487292125	-0.0324340181	-0.049195
C	 0.8626839207	-1.0071768535	-0.7827439057	 0.032294
C	 2.112306137	-0.6722881113	-1.1633995837	-0.111823
C	 3.0985656193	-1.0980322971	-0.0788281023	-0.262857
C	 2.1004436155	-1.3741866743	 1.0631456729	-0.091062
C	 0.8765749704	-1.9416758553	 0.4393979874	-0.154127
C	 0.6712427905	-0.6817208099	 1.2268134893	 0.305861
C	 0.0834750477	-0.5278891915	 2.6081433022	-0.489622
H	 1.3031166731	 1.7981094118	-0.2516239333	 0.114769
H	-0.1449723642	 1.8206226813	-1.271617107	 0.120586
H	-0.2887391592	 2.1262264169	 0.4613564101	 0.114148
H	-1.0398465844	-0.1771084641	 0.0141708853	 0.073508
H	 2.323613871	 0.2032382946	-1.7702140445	 0.092345
H	 3.7181647336	-1.9880053567	-0.2653073964	 0.104178
H	 3.7893225276	-0.265644501	 0.1064408215	 0.104543
H	 2.4679888717	-1.7730620027	 2.0074706642	 0.072502
H	 0.4247727663	-2.9207231517	 0.5413540363	 0.082769
H	 0.4380342292	-1.3131522174	 3.2834683219	 0.120204
H	 0.348635898	 0.4377038089	 3.053883725	 0.12087
H	-1.0109524949	-0.588745457	 2.5741825552	 0.116409
163.6467	184.7628	203.0496	215.0242	256.6188	322.9146	352.0047	434.3093	537.4327	564.7389	607.7316	676.5242	720.477	792.7975	831.3413	846.2193	859.1374	898.9107	920.2977	957.0852	970.8304	1010.8558	1016.6133	1033.666	1069.2502	1077.6871	1103.8631	1133.6721	1161.0519	1192.7683	1199.1974	1226.8156	1254.4886	1289.786	1294.229	1371.1916	1399.3434	1405.3369	1410.0781	1475.6238	1484.6622	1488.1855	1494.3158	1497.569	1593.5593	2989.5749	2999.0698	3020.5953	3030.0204	3041.9633	3079.21	3092.5305	3095.817	3106.6802	3125.4018	3166.8493	3183.4933
CC1C2=CCC3C2C13C	C[C@H]1[C]2[CH]C[C@@H]3[C@H]2[C@]13C	
InChI=1S/C9H12/c1-5-6-3-4-7-8(6)9(5,7)2/h3,5,7-8H,4H2,1-2H3	InChI=1S/C9H12/c1-5-6-3-4-7-8(6)9(5,7)2/h3,5,7-8H,4H2,1-2H3/t5-,7+,8-,9+/m0/s1
