16
gdb 22579	4.2881	1.04436	0.87532	3.3203	68.75	-0.2427	-0.006	0.2368	1251.388	0.126324	-471.208538	-471.200396	-471.199452	-471.241551	30.474	
O	-0.0365662057	 1.3533214623	 0.2975284118	-0.393402
N	 0.0772750069	-0.0445427723	 0.2565339569	-0.192856
C	-1.0297924525	-0.5852522953	-0.0655982594	 0.397023
C	-2.2867320968	 0.172731763	-0.4048821388	-0.242571
N	-3.3755182611	-0.7434087502	-0.7182122848	-0.354603
C	-3.192916278	-1.9252466202	-1.4178207204	 0.415876
O	-4.0753365352	-2.4581553428	-2.0629091929	-0.402443
N	-1.9165138586	-2.4458855867	-1.2943519238	-0.341312
C	-1.100534926	-2.086232802	-0.1404905515	-0.252838
H	 0.8570481335	 1.627278169	 0.5297474351	 0.312806
H	-2.5709512864	 0.8039995044	 0.4451634146	 0.143863
H	-2.0589239727	 0.8607662737	-1.2335666384	 0.14081
H	-4.2666890591	-0.3210477059	-0.9316806272	 0.25298
H	-1.8575473005	-3.3966105994	-1.6266603452	 0.254477
H	-0.0951571505	-2.4960411943	-0.2509268825	 0.137978
H	-1.5263308174	-2.4793720231	 0.7977721765	 0.12421
64.1374	152.3517	178.6366	226.4168	310.0046	375.3802	404.7773	435.1888	516.6334	546.7886	572.814	619.8476	634.5018	773.5091	783.3708	813.1986	898.1569	975.0452	1006.4798	1043.9031	1071.5213	1147.9391	1229.4909	1247.334	1270.5544	1289.3953	1351.153	1399.5687	1424.9931	1457.3202	1465.1069	1493.0247	1510.1639	1753.0324	1817.6838	2963.3193	2989.405	3051.2152	3114.2206	3623.7006	3627.5295	3820.8973
ON=C1CNC(=O)NC1	ON=C1CNC(=O)NC1	
InChI=1S/C4H7N3O2/c8-4-5-1-3(7-9)2-6-4/h9H,1-2H2,(H2,5,6,8)	InChI=1S/C4H7N3O2/c8-4-5-1-3(7-9)2-6-4/h9H,1-2H2,(H2,5,6,8)
