16
gdb 123550	4.11723	1.62781	1.41692	1.4621	74.05	-0.2321	0.0072	0.2393	911.9735	0.129211	-396.888566	-396.882443	-396.881499	-396.918897	25.086	
C	-0.0364088003	 1.5686476464	-0.0697633611	-0.216702
C	 1.5300077399	 1.3801302505	-0.0091119707	-0.16239
C	 1.1985975254	 0.1677683327	 0.9463885447	-0.216678
C	-0.0519510929	-0.0086655026	-0.001045776	-0.16239
C	 0.6704160277	-0.3091994186	-1.2933628622	 0.352997
N	 0.7183079026	-1.052395781	-2.3794835388	-0.351757
N	 1.805200962	-0.5461523044	-3.004653138	-0.13171
N	 2.451464712	 0.4692163781	-2.3883535341	-0.351757
C	 1.7270219323	 0.6184129891	-1.2987592323	 0.352997
H	-0.4340551408	 2.0268871993	 0.8399379218	 0.104793
H	-0.4572147151	 2.0428170472	-0.9590698465	 0.110446
H	 2.2044357915	 2.1828031338	 0.2779118876	 0.085784
H	 1.9185326273	-0.6520138256	 0.9957864358	 0.110408
H	 0.914894325	 0.4967571596	 1.9498420257	 0.104788
H	-0.9335237799	-0.5720025481	 0.2939130034	 0.085784
H	 2.1197449752	-0.909574285	-3.8877736295	 0.285389
145.9376	287.7448	317.7811	441.803	475.6525	542.1716	674.5672	680.1524	689.6991	785.8767	804.0757	842.831	864.037	898.9418	968.1367	998.9792	999.8371	1042.7177	1069.8596	1072.0415	1093.4525	1119.7023	1131.7274	1174.7362	1216.6085	1225.1778	1229.364	1263.1232	1287.5084	1418.4359	1425.2417	1481.4586	1506.5907	1537.7018	1630.0478	3055.2226	3062.7057	3124.7852	3128.7725	3154.2188	3154.3927	3693.2022
C1C2CC1C1=NNN=C21	C1[C@H]2C[C@@H]1c1n[nH]nc21	
InChI=1S/C6H7N3/c1-3-2-4(1)6-5(3)7-9-8-6/h3-4H,1-2H2,(H,7,8,9)	InChI=1S/C6H7N3/c1-3-2-4(1)6-5(3)7-9-8-6/h3-4H,1-2H2,(H,7,8,9)/t3-,4+
