20
gdb 69767	3.00968	1.71649	1.51608	0.3401	77.79	-0.2053	0.0876	0.293	969.4447	0.172604	-403.089926	-403.082631	-403.081687	-403.121041	30.665	
C	 0.0872853842	 1.4712541249	-0.1007215048	-0.449487
C	-0.0079559059	-0.0241028733	 0.0500665746	 0.423938
C	-0.8882936438	-0.6411803996	 1.1215212081	-0.368064
C	 0.6126677019	-0.7958650654	 1.1926818645	-0.061705
N	 1.3159410574	-2.0321363172	 0.8368518383	-0.138553
C	 2.1743539898	-1.6264635332	-0.3527092304	-0.196658
C	 0.9232601077	-1.8139879908	-1.2411241079	 0.11335
C	 0.5105615334	-2.8330522431	-0.1589184465	-0.201419
O	 0.0728963854	-0.671897338	-1.2101048709	-0.315118
H	 1.0375167928	 1.7588612801	-0.5628225738	 0.117916
H	-0.7223950443	 1.8471135757	-0.7359149061	 0.126428
H	 0.0123525602	 1.9649024854	 0.8727161461	 0.113647
H	-1.33672715	 0.0343385807	 1.8428416105	 0.11082
H	-1.5190437832	-1.4810235407	 0.8604266827	 0.120961
H	 1.1340906529	-0.2431151657	 1.97023871	 0.092456
H	 2.6254879159	-0.6342096889	-0.2820339964	 0.109173
H	 2.9439179245	-2.3800496189	-0.5393152341	 0.107342
H	 1.0111336091	-2.0997759947	-2.2917229072	 0.075331
H	 0.9872763347	-3.8089411894	-0.2873111099	 0.109463
H	-0.5476169627	-2.9772512179	 0.0569661729	 0.110178
173.4385	201.191	251.973	334.6911	392.2196	450.0331	461.4058	505.6154	520.2652	601.8695	719.5401	759.0558	816.9162	824.0547	842.9349	900.6065	907.1569	934.7563	942.6484	967.3274	1000.2177	1038.5064	1039.8389	1069.076	1093.2339	1115.5626	1131.9925	1154.6053	1175.114	1234.688	1243.1427	1248.0776	1263.1735	1289.2549	1303.3562	1373.1294	1386.331	1417.1225	1471.6069	1478.1392	1495.5411	1499.315	1524.6615	3029.9751	3058.4355	3065.0692	3087.6579	3094.1917	3109.9751	3123.1604	3130.5255	3135.2359	3144.4933	3232.4885
CC12CC1N1CC(C1)O2	C[C@]12C[C@H]1N1C[C@@H](C1)O2	
InChI=1S/C7H11NO/c1-7-2-6(7)8-3-5(4-8)9-7/h5-6H,2-4H2,1H3	InChI=1S/C7H11NO/c1-7-2-6(7)8-3-5(4-8)9-7/h5-6H,2-4H2,1H3/t6-,7+/m1/s1
