17
gdb 104476	2.35165	1.36086	1.18931	1.4568	66.78	-0.2387	-0.0292	0.2095	1111.2152	0.132605	-496.064437	-496.054964	-496.054019	-496.098432	34.289	
C	 0.180385862	 1.1055291652	-0.3246081956	-0.265495
O	-0.0511320625	-0.1839913059	 0.2579836468	-0.30263
C	-1.3517923301	-0.6424348777	 0.1756617284	 0.225966
C	-2.372080591	-0.0228057987	 1.0448198118	 0.114498
O	-2.1843852418	 0.9355228097	 1.755023359	-0.276252
C	-1.8314889612	-1.2407257027	-1.1915652522	 0.030311
O	-0.9927788242	-1.1256298987	-2.2812123636	-0.416445
C	-1.4072002862	-2.1543133633	-0.0894961081	-0.012226
O	-0.169294428	-2.7665347699	-0.2769988982	-0.430777
H	 1.2514719588	 1.2932075927	-0.2274518044	 0.130081
H	-0.099308413	 1.1040276469	-1.3821098866	 0.139509
H	-0.3758297917	 1.8720725772	 0.220895554	 0.148377
H	-3.3734042882	-0.5103225535	 0.976800553	 0.071842
H	-2.884640518	-1.1348824898	-1.4339806175	 0.118606
H	-0.3047079273	-1.7980903305	-2.1541373515	 0.296147
H	-2.1292435396	-2.7628765778	 0.447560442	 0.117551
H	 0.495345162	-2.1448548032	 0.0599186229	 0.310935
108.8341	136.3276	159.4373	177.3866	200.7173	237.2616	273.0031	308.1611	335.4277	367.4298	412.9903	571.3872	624.1403	636.8319	703.2914	753.4941	815.4355	864.0959	1014.9502	1032.4043	1075.2937	1087.4182	1098.1279	1156.615	1176.4755	1210.8218	1228.3288	1322.4888	1333.5145	1365.7717	1391.8105	1432.1007	1450.0363	1476.0586	1491.5805	1511.3401	1806.7363	2850.1664	3043.8672	3127.073	3139.7436	3146.981	3159.1339	3690.494	3702.0823
COC1(C=O)C(O)C1O	CO[C@@]1(C=O)[C@@H](O)[C@H]1O	
InChI=1S/C5H8O4/c1-9-5(2-6)3(7)4(5)8/h2-4,7-8H,1H3	InChI=1S/C5H8O4/c1-9-5(2-6)3(7)4(5)8/h2-4,7-8H,1H3/t3-,4+,5-
