14
gdb 21966	7.189	1.12997	1.0472	3.1025	59.05	-0.2879	-0.0254	0.2625	1073.6832	0.108617	-412.015332	-412.00789	-412.006946	-412.048397	25.081	
O	-0.0672211451	 1.4038973803	 0.0046784702	-0.412085
C	 0.037064156	-0.004854574	-0.0508993086	-0.079247
C	-1.3935091742	-0.5326135603	 0.0624716385	-0.140173
N	-1.4333017812	-1.9833303958	 0.0106183933	 0.143783
N	-1.2028433046	-2.6810522155	-1.0960542804	-0.249082
C	-1.3103416979	-3.9245673052	-0.644652943	 0.079066
N	-1.5910118759	-3.9798407254	 0.6762446987	-0.20707
N	-1.6641102713	-2.7359035729	 1.0807876846	-0.122226
H	 0.8136286169	 1.7787686436	-0.0829831023	 0.297791
H	 0.4765800059	-0.3538491413	-0.9960628508	 0.118233
H	 0.6393592573	-0.4107508655	 0.7758621366	 0.109609
H	-1.8346536205	-0.2385837174	 1.0153498058	 0.161243
H	-2.0018752598	-0.1373495226	-0.7537129173	 0.151886
H	-1.1905914356	-4.7936573179	-1.2707445652	 0.148272
45.4128	87.4648	118.5863	213.3757	321.3133	364.8311	386.4702	706.3933	728.2963	800.5251	807.2508	902.7722	1012.5525	1028.3387	1047.3751	1066.5283	1096.7027	1162.1312	1194.8078	1246.5462	1249.4722	1288.7597	1319.7675	1345.7172	1363.0888	1410.7828	1462.9186	1481.3086	1494.6304	1531.2162	2988.8301	3029.7609	3090.8546	3155.4117	3287.5554	3839.6681
OCCN1N=CN=N1	OCCn1ncnn1	
InChI=1S/C3H6N4O/c8-2-1-7-5-3-4-6-7/h3,8H,1-2H2	InChI=1S/C3H6N4O/c8-2-1-7-5-3-4-6-7/h3,8H,1-2H2
