18
gdb 92316	2.41558	1.90751	1.24974	3.6277	72.04	-0.2509	0.0106	0.2615	1006.716	0.149825	-439.095696	-439.088215	-439.087271	-439.1277	29.582	
O	 0.1030015296	 1.3935883147	-0.2119605719	-0.440373
C	 0.0222224876	 0.0124329531	-0.066094812	 0.175046
C	 0.350686251	-0.6585437114	 1.3069518152	-0.289155
C	-0.8543392562	-1.6247106916	 1.0911621497	-0.036372
C	-1.9534592473	-1.6291370238	 2.1480623103	-0.108419
O	-2.6736627315	-0.3912348401	 1.9607486601	-0.238319
C	-2.3705352045	 0.1751860526	 0.7624729241	 0.411186
N	-2.8007078709	 1.3021051092	 0.3688036038	-0.553607
C	-1.3809822005	-0.6653273012	-0.0067941818	-0.18159
H	-0.7797000449	 1.7624299506	-0.041365489	 0.299835
H	 0.6191523941	-0.4535204067	-0.8588955568	 0.08442
H	 1.3390169895	-1.1075997541	 1.4196390777	 0.105028
H	 0.178883844	 0.0355707256	 2.1351774931	 0.115139
H	-0.5740580295	-2.6257739452	 0.7644855859	 0.086106
H	-2.6538575832	-2.4623729418	 2.0163202742	 0.116233
H	-1.5808722448	-1.6387396782	 3.1761319055	 0.124882
H	-3.4268098711	 1.7190589505	 1.0594137136	 0.227066
H	-1.8108348814	-1.0389145022	-0.9372301415	 0.102894
87.5451	163.5558	194.9758	324.2941	382.2989	429.3931	435.8221	518.8413	557.0603	671.1223	705.9691	726.8487	796.5746	822.1785	884.6989	897.1565	944.729	963.1258	973.8706	1002.8012	1037.1988	1079.7177	1114.5161	1135.3065	1158.3896	1193.9348	1209.2765	1233.4353	1247.6701	1257.3165	1277.4954	1317.5152	1335.956	1379.6497	1409.025	1460.1171	1480.7099	1515.9323	1746.4705	3034.5248	3034.898	3061.4389	3094.5016	3102.3076	3113.8606	3128.3075	3475.3299	3647.8678
OC1CC2COC(=N)C12	O[C@H]1C[C@H]2CO[C]([NH])[C@@H]12	
InChI=1S/C6H9NO2/c7-6-5-3(2-9-6)1-4(5)8/h3-5,7-8H,1-2H2	InChI=1S/C6H9NO2/c7-6-5-3(2-9-6)1-4(5)8/h3-5,7-8H,1-2H2/t3-,4-,5+/m0/s1
