17
gdb 107312	2.77058	1.43091	1.13637	1.9425	68.89	-0.222	0.0474	0.2694	1099.2603	0.136823	-455.143662	-455.135453	-455.134509	-455.176348	31.682	
N	 0.0353722455	 1.2174447398	 0.0794849381	-0.578361
C	-0.1068012726	-0.1430747948	 0.0568801068	 0.443705
N	-1.1829853048	-0.805194686	-0.1390474955	-0.338646
C	-0.7772932674	-2.1872851463	-0.2077951444	-0.055025
C	 0.1785729719	-2.5678968922	-1.3278201974	-0.363155
C	 0.7185530465	-2.2105227332	 0.0292643661	 0.372678
C	 1.5383779832	-3.1127911187	 0.9037247787	-0.154605
O	 1.4055757946	-2.8062862088	 2.2792117147	-0.41429
O	 1.0680940756	-0.8314408357	 0.204795486	-0.29142
H	 0.805465996	 1.5620856691	 0.6324329156	 0.26151
H	-0.8337508272	 1.7113022458	 0.2136234466	 0.270948
H	-1.4656194491	-2.9227824954	 0.1915810249	 0.103886
H	 0.2294310593	-3.6174254524	-1.599441256	 0.117911
H	 0.3150138252	-1.8693163574	-2.1467232109	 0.124553
H	 1.194305735	-4.1430566705	 0.7714838407	 0.116584
H	 2.593298324	-3.075171983	 0.5858842526	 0.097524
H	 1.6185823542	-1.8716583701	 2.3739057835	 0.286203
93.3146	123.4662	214.5908	254.0569	324.4315	360.7166	368.4346	441.0407	466.9014	536.8918	572.5592	620.339	698.8242	742.6855	780.107	858.9645	873.6253	942.4103	955.1925	1016.1222	1017.0279	1049.7187	1070.8453	1074.9273	1095.4453	1174.1811	1198.157	1256.7915	1284.6731	1366.116	1373.2763	1421.0739	1438.6891	1469.9791	1494.1091	1614.7011	1737.1307	2972.6522	3085.9535	3126.1993	3180.8113	3219.525	3582.9757	3696.1414	3812.795
NC1=NC2CC2(CO)O1	NC1=N[C@H]2C[C@@]2(CO)O1	
InChI=1S/C5H8N2O2/c6-4-7-3-1-5(3,2-8)9-4/h3,8H,1-2H2,(H2,6,7)	InChI=1S/C5H8N2O2/c6-4-7-3-1-5(3,2-8)9-4/h3,8H,1-2H2,(H2,6,7)/t3-,5-/m0/s1
