19
gdb 40145	2.74404	1.44104	1.21216	0.224	74.77	-0.2336	0.0587	0.2923	1092.9806	0.158587	-422.961266	-422.953091	-422.952147	-422.994694	30.874	
C	 0.1463525373	 1.5002158713	-0.1539999535	-0.337773
C	 1.3321768765	 0.5877004343	 0.1375513688	-0.337773
C	-0.041698187	 0.0252232265	-0.0203503086	 0.414121
O	-0.748024673	-0.539343838	 1.0855125256	-0.314647
C	-1.3199926644	-1.5553805771	 0.2323770187	-0.137734
C	-0.5906848548	-1.0025026496	-1.0039728205	 0.129745
C	-1.3156268365	-0.6340528175	-2.3102503666	-0.133509
O	-0.4354709465	-1.467307716	-3.0905442315	-0.274211
C	 0.2935155593	-1.8721781348	-1.9147437637	-0.133515
H	-0.2261451433	 2.1136992603	 0.6592426383	 0.128509
H	 0.0738943051	 1.9531957421	-1.1376984439	 0.119117
H	 2.0619579333	 0.4233491445	-0.6489033794	 0.119116
H	 1.7398162431	 0.6008423526	 1.1426071527	 0.128508
H	-1.0220570049	-2.5650061315	 0.5412959849	 0.10681
H	-2.4147933922	-1.4934947332	 0.1989186656	 0.106812
H	-2.3616954704	-0.9623388722	-2.3734408131	 0.102582
H	-1.2553453128	 0.4218055272	-2.6035894427	 0.105629
H	 1.3513875568	-1.5838941981	-1.9628876013	 0.105629
H	 0.2266196545	-2.9538677007	-1.7372699496	 0.102583
61.2316	69.573	184.6741	232.6118	263.6144	351.3074	394.8121	498.5751	515.0153	568.5448	758.7569	852.0179	866.4006	876.1811	879.4036	892.3005	947.2365	968.7547	995.2329	997.089	1022.5344	1040.7612	1048.1838	1069.2968	1143.3235	1145.8671	1154.535	1173.5389	1184.0304	1193.2027	1234.237	1237.7189	1303.2242	1351.1701	1372.2963	1402.7046	1446.1815	1492.4902	1503.0051	1521.7969	1530.6196	2997.9918	3009.3725	3013.4361	3046.9691	3047.8894	3059.364	3127.1086	3129.201	3211.135	3225.0935
C1CC11OCC11COC1	C1CC21OCC12COC1	
InChI=1S/C7H10O2/c1-2-7(1)6(5-9-7)3-8-4-6/h1-5H2	InChI=1S/C7H10O2/c1-2-7(1)6(5-9-7)3-8-4-6/h1-5H2
