20
gdb 39506	2.28569	1.85944	1.32094	1.6756	74.68	-0.2359	0.0688	0.3047	1031.9065	0.173967	-440.245429	-440.237641	-440.236697	-440.277596	30.667	
C	-0.0284366596	 1.2274844482	-0.0338750848	-0.056262
C	 1.2023761986	 2.1351927246	 0.1027472717	-0.245774
C	 1.9070996932	 2.1423504905	 1.4532746669	-0.008258
N	 1.2681880317	 1.4736932357	 2.5953324441	-0.32461
C	 2.5586785578	 0.9642596431	 2.0938037858	-0.018925
C	 2.6413423909	-0.4316043912	 1.4819418334	-0.095556
O	 2.4298263708	-0.4588278881	 0.0728721119	-0.237247
C	 1.1343943818	-0.8448690932	-0.3119375092	-0.003863
O	 0.1257052225	-0.1364359825	 0.3318340372	-0.216089
H	-0.8214303408	 1.5932030463	 0.6227938534	 0.117894
H	-0.388894862	 1.2913408958	-1.073783733	 0.084987
H	 1.9354061849	 1.91238359	-0.6777525679	 0.121356
H	 0.8382393379	 3.1522994875	-0.0974649135	 0.093351
H	 2.4071247353	 3.089196131	 1.6568587382	 0.080208
H	 1.4055641047	 2.004875576	 3.4504583845	 0.227547
H	 3.43042145	 1.2056952872	 2.7011427915	 0.078847
H	 3.6570711796	-0.8118806079	 1.6376333112	 0.100047
H	 1.9412296548	-1.1037814224	 1.9925963326	 0.114017
H	 1.1092733454	-0.7142662393	-1.404485705	 0.091234
H	 0.9489120124	-1.8981260911	-0.054769829	 0.097096
91.1256	189.1779	226.2776	277.4304	315.3968	326.9892	376.0295	426.041	577.9329	635.8152	674.4267	733.9776	767.2164	842.6145	870.085	920.9606	940.7089	975.7337	999.5286	1016.9397	1064.1437	1088.2699	1101.4731	1137.0138	1153.3344	1183.1753	1199.1717	1222.0747	1276.4948	1287.3405	1300.9007	1323.4163	1339.1524	1393.5305	1399.252	1418.17	1426.3811	1442.6146	1469.7674	1477.9383	1484.7645	1491.557	1507.9512	2971.9392	2981.8727	3019.214	3023.083	3027.9868	3070.6082	3081.5653	3095.7462	3105.1479	3109.0568	3504.2644
C1CC2NC2COCO1	C1C[C@H]2N[C@H]2COCO1	
InChI=1S/C6H11NO2/c1-2-8-4-9-3-6-5(1)7-6/h5-7H,1-4H2	InChI=1S/C6H11NO2/c1-2-8-4-9-3-6-5(1)7-6/h5-7H,1-4H2/t5-,6+/m1/s1
