20
gdb 92103	2.74357	1.64676	1.39903	1.8984	77.78	-0.2268	0.0676	0.2944	1022.8022	0.172404	-403.123179	-403.115254	-403.114309	-403.155112	31.84	
C	-0.0548854257	 1.504012425	 0.0589336987	-0.498453
C	 0.0765819626	 0.0135692253	-0.0485457555	 0.366768
C	-0.1032440499	-0.786441913	-1.3346362816	-0.302998
C	-0.6738896978	-1.9111193408	-0.4334264186	 0.009246
C	 0.3740696997	-2.9417348821	-0.0329426422	-0.235956
C	 1.4485225032	-2.0807715957	 0.6817542874	 0.083799
O	 2.5623280404	-1.7344031147	-0.1386963424	-0.43229
C	 0.6775379611	-0.8174153537	 1.029617454	-0.077376
N	-0.7785567249	-0.9502888341	 0.7552478534	-0.198809
H	 0.8228927269	 2.0008318257	-0.3705298773	 0.124869
H	-0.9414156515	 1.8585594712	-0.4783838947	 0.119092
H	-0.1447032957	 1.8159904213	 1.1036846775	 0.125057
H	-0.8763102371	-0.3408552365	-1.966409101	 0.098991
H	 0.7849932025	-1.0018507551	-1.9325147031	 0.10799
H	-1.6416439406	-2.3232699281	-0.7188068097	 0.074239
H	-0.0583962133	-3.6647807575	 0.6673488974	 0.104615
H	 0.7909458196	-3.490519409	-0.8835832807	 0.094411
H	 1.8031915158	-2.5731788801	 1.5974581463	 0.069367
H	 3.0908341409	-2.5282656377	-0.2684440411	 0.282453
H	 0.9091969837	-0.3094484902	 1.9602847831	 0.084985
145.7822	171.2308	184.3121	287.2759	308.0083	348.3654	391.6491	426.2673	513.854	572.6824	690.3183	716.5514	790.984	819.5287	825.0762	859.9155	868.1644	940.8674	964.5794	977.3437	1019.8513	1047.866	1054.3868	1076.5772	1082.1732	1109.3462	1151.8482	1187.6985	1218.0059	1240.9803	1260.4702	1275.0528	1288.1889	1320.636	1345.8633	1361.7991	1409.0163	1423.4623	1440.0342	1469.5374	1481.8426	1491.04	1496.994	3000.6931	3027.0409	3041.9598	3058.4525	3089.8217	3090.7459	3107.2112	3108.4038	3116.6425	3164.0112	3815.9918
CC12CC3CC(O)C1N23	C[C@@]12C[C@H]3C[C@@H](O)[C@@H]1N23	
InChI=1S/C7H11NO/c1-7-3-4-2-5(9)6(7)8(4)7/h4-6,9H,2-3H2,1H3	InChI=1S/C7H11NO/c1-7-3-4-2-5(9)6(7)8(4)7/h4-6,9H,2-3H2,1H3/t4-,5-,6+,7-,8?/m1/s1
