16
gdb 56131	4.10018	0.82678	0.75945	1.8787	70.29	-0.2371	-0.0842	0.1528	1449.8501	0.12383	-471.247782	-471.238402	-471.237458	-471.282913	33.194	
N	-0.7489448917	 0.0901942722	-1.0403230064	-0.503919
C	-0.0437625983	-0.1008062541	 0.1021574065	 0.368031
O	 1.0807665924	 0.3165006342	 0.3011069105	-0.35786
C	-0.809358899	-0.9093076103	 1.1738716377	-0.259688
N	-0.9715356837	-2.3159557413	 0.841219354	-0.3099
C	-1.9446360314	-2.7763826297	 0.0110970864	 0.297838
N	-2.7947001146	-2.0131317145	-0.5733562943	-0.535555
C	-1.9643840841	-4.2833922509	-0.1427882617	 0.115451
O	-2.7886290943	-4.8496433006	-0.8085582562	-0.229464
H	-0.2884872936	 0.545018802	-1.8121841751	 0.255701
H	-1.6446322417	-0.3699754677	-1.1689772661	 0.283987
H	-0.2401451873	-0.8301125755	 2.1002160447	 0.136308
H	-1.808703326	-0.486457871	 1.317431777	 0.149918
H	-0.2332583344	-2.9475025572	 1.1058534897	 0.259396
H	-3.4570625968	-2.5960962155	-1.0862295235	 0.240424
H	-1.1693914054	-4.8405325802	 0.4016350268	 0.089335
43.874	70.8153	127.2478	173.961	211.5681	274.	316.272	352.8833	404.998	442.2415	489.0688	541.2064	590.0041	676.7914	708.5538	765.2262	857.7789	877.5751	900.5552	1009.3036	1020.4011	1042.3031	1152.0831	1190.307	1263.1907	1338.7197	1349.3482	1380.0833	1431.037	1460.3875	1558.9962	1629.8257	1692.51	1807.8954	1835.1718	2885.0698	3063.1375	3142.7076	3471.1991	3481.9343	3644.3921	3680.4155
NC(=O)CNC(=N)C=O	NC(=O)CNC(=N)C=O	
InChI=1S/C4H7N3O2/c5-3(2-8)7-1-4(6)9/h2H,1H2,(H2,5,7)(H2,6,9)	InChI=1S/C4H7N3O2/c5-3(2-8)7-1-4(6)9/h2H,1H2,(H2,5,7)(H2,6,9)
