12
gdb 21503	5.23991	1.61822	1.23639	1.2519	56.69	-0.2637	-0.0443	0.2195	883.5053	0.084959	-414.687636	-414.680819	-414.679875	-414.719067	24.486	
N	-0.0707315051	 1.3234919855	 0.0076595146	-0.53689
C	 0.0589138374	-0.0265240289	 0.0012788767	 0.342203
O	 1.1205213838	-0.620643425	-0.0099910109	-0.357422
C	-1.2380913435	-0.7737995395	 0.0091690034	 0.301144
N	-2.3968222577	-0.1548357038	 0.0209668503	-0.205442
O	-3.355228064	-1.1492025954	 0.0250310176	-0.163884
C	-2.7384459957	-2.3461050431	 0.0156446603	 0.083405
C	-1.392931341	-2.1867968808	 0.0052727692	-0.323631
H	 0.7611250682	 1.8889082356	 0.0021960037	 0.266974
H	-0.9796083775	 1.7557330658	 0.0162297227	 0.281308
H	-3.3907403133	-3.2051484739	 0.0178025808	 0.161318
H	-0.6132897614	-2.9279303265	-0.0038003585	 0.150918
70.9324	196.6973	197.859	249.0659	396.1888	501.2006	563.0507	613.5364	661.6814	669.8021	798.2566	831.4129	888.887	923.9099	968.7692	997.7186	1055.1387	1098.1689	1145.6083	1236.2991	1361.2243	1461.5338	1487.6192	1591.7847	1612.4297	1796.4434	3271.6023	3305.5029	3600.0257	3740.4754
NC(=O)C1=NOC=C1	NC(=O)c1nocc1	
InChI=1S/C4H4N2O2/c5-4(7)3-1-2-8-6-3/h1-2H,(H2,5,7)	InChI=1S/C4H4N2O2/c5-4(7)3-1-2-8-6-3/h1-2H,(H2,5,7)
