13
gdb 9569	4.73142	1.32083	1.22134	3.9593	66.33	-0.285	-0.019	0.2661	975.9101	0.092545	-361.41715	-361.409091	-361.408147	-361.449465	28.791	
C	-0.08011027	 1.545556594	-0.0850891677	-0.4677
C	-0.0335443711	 0.0420899687	 0.0513578571	 0.237576
O	 1.2253357309	-0.5943224312	-0.1614723693	-0.249779
C	 0.6852752985	-0.6425780526	 1.1676963456	-0.209185
C	 1.3571003586	 0.0967535143	 2.1989051053	 0.327866
C	 1.9094532359	 0.6881857017	 3.0872465658	-0.385385
C	-1.1691075834	-0.6679422379	-0.5211564776	 0.2616
N	-2.0860056171	-1.2097400427	-0.9696521136	-0.325056
H	 0.7702087827	 1.9898783404	 0.4338015452	 0.15335
H	-0.0428563511	 1.8251229177	-1.1414775077	 0.151969
H	-1.0070714503	 1.9375536733	 0.3429040881	 0.148252
H	 0.3230467973	-1.6274370022	 1.4587506761	 0.141981
H	 2.401841949	 1.2114451666	 3.8702847928	 0.214509
111.1618	128.0113	175.8883	188.4054	255.7812	327.3522	367.7276	468.5049	541.9301	570.4672	606.0963	646.9257	681.7474	693.5605	845.7135	880.6325	971.2404	1044.3303	1097.0814	1108.8143	1234.9916	1318.2263	1410.9922	1418.0349	1479.5199	1488.8817	2243.0188	2358.4663	3054.5517	3125.6641	3127.4766	3153.137	3498.0259
CC1(OC1C#C)C#N	C[C@]1(O[C@H]1C#C)C#N	
InChI=1S/C6H5NO/c1-3-5-6(2,4-7)8-5/h1,5H,2H3	InChI=1S/C6H5NO/c1-3-5-6(2,4-7)8-5/h1,5H,2H3/t5-,6-/m0/s1
