16
gdb 90398	2.21887	1.59417	1.37237	3.0596	68.99	-0.2596	0.0178	0.2774	1006.8407	0.123832	-437.863767	-437.855521	-437.854577	-437.896255	31.531	
O	 0.1438329883	 1.402330381	-0.2253290333	-0.433846
C	 0.0242442614	 0.0312474659	 0.0129746863	 0.056018
C	 0.2344879491	-0.5776269496	 1.4496805915	-0.296777
C	-1.1063482132	-1.3035484878	 1.3033069717	-0.114836
C	-2.2302409342	-0.2796811755	 1.1531352195	-0.270412
C	-2.1873338137	 1.0108092039	 1.7826089532	 0.293962
N	-2.0992871829	 2.062550888	 2.2613704384	-0.358601
C	-1.351744231	-0.6570318574	-0.0413422224	 0.358909
O	-1.9103132064	-1.2375511418	-1.1546269511	-0.45361
H	-0.3446722032	 1.8848564771	 0.4530379976	 0.301813
H	 0.6847024556	-0.4639327764	-0.7043152229	 0.110822
H	 1.0954488144	-1.2451088942	 1.5066885879	 0.120423
H	 0.2890859165	 0.1499434019	 2.2637401211	 0.127972
H	-1.3399043521	-2.3091557394	 1.6279663551	 0.116081
H	-3.2194610086	-0.7196388545	 1.0819758892	 0.141717
H	-2.1974860099	-0.5377495813	-1.7534399816	 0.300365
126.5273	139.4044	194.5044	236.6675	292.0502	350.4145	381.8306	413.2597	454.1972	499.9886	569.5509	600.8662	660.0893	757.6905	811.1943	831.6641	891.8487	944.6379	968.7278	1014.0521	1045.9811	1075.1802	1120.9023	1156.4413	1174.9387	1219.861	1231.2015	1277.2005	1305.3052	1320.2287	1333.1405	1439.5432	1457.1903	1495.8581	2331.3767	3070.4759	3080.6995	3130.9134	3176.1058	3205.2445	3780.7627	3788.2124
OC1CC2C(C#N)C12O	O[C@H]1C[C@H]2[C@@H](C#N)[C@@]12O	
InChI=1S/C6H7NO2/c7-2-4-3-1-5(8)6(3,4)9/h3-5,8-9H,1H2	InChI=1S/C6H7NO2/c7-2-4-3-1-5(8)6(3,4)9/h3-5,8-9H,1H2/t3-,4+,5-,6+/m0/s1
