18
gdb 49914	5.77117	0.76045	0.70941	2.9258	75.36	-0.2447	0.022	0.2667	1547.5786	0.147282	-439.065307	-439.056484	-439.055539	-439.101028	30.586	
O	 0.4347699613	-0.2533873053	 0.3331726693	-0.330914
C	 0.2575742108	 0.9439945044	 0.4339957644	 0.13019
N	 1.1295339657	 1.8814776556	 0.0069761043	-0.035331
C	 2.4334796356	 1.7291026879	-0.6323311766	-0.193543
C	 2.5458654682	 3.2868261387	-0.6714989415	-0.033627
C	 1.1507822634	 3.3454892109	 0.0324812593	-0.201496
C	 3.6933220063	 3.8793108372	 0.0936386474	 0.088205
C	 4.891270008	 4.4035890895	-0.5745940517	-0.187009
O	 3.896096081	 5.2860858976	-0.0525864633	-0.236335
H	-0.6476018079	 1.3963194769	 0.8900898227	 0.068961
H	 3.1734927253	 1.2192228316	-0.0048528712	 0.123667
H	 2.3966885021	 1.22926882	-1.6049759616	 0.127551
H	 2.526715284	 3.7005249621	-1.6809162915	 0.094134
H	 0.35518455	 3.821426703	-0.5499899086	 0.123137
H	 1.1629645229	 3.7798429127	 1.03901948	 0.122834
H	 3.8006385435	 3.5199963547	 1.1199214781	 0.09968
H	 5.8450088867	 4.4088364978	-0.04949101	 0.122429
H	 4.9591537228	 4.3668497148	-1.6612118296	 0.117467
22.5777	64.4388	73.6029	168.9254	215.8082	300.1886	319.0213	343.3979	483.3566	559.7994	759.9658	805.4414	861.7028	889.1444	911.0593	948.9195	961.1475	1013.797	1034.1412	1042.5323	1104.442	1140.3649	1154.9727	1162.3799	1173.0325	1195.2255	1218.991	1249.5862	1286.7501	1292.6556	1305.3211	1337.1891	1399.2592	1443.3293	1467.9274	1506.7381	1525.3216	1531.0786	1791.0492	2918.7455	3026.7836	3037.3897	3072.9408	3080.9873	3081.7795	3086.4104	3106.592	3172.9015
O=CN1CC(C1)C1CO1	O=CN1CC(C1)[C@H]1CO1	
InChI=1S/C6H9NO2/c8-4-7-1-5(2-7)6-3-9-6/h4-6H,1-3H2	InChI=1S/C6H9NO2/c8-4-7-1-5(2-7)6-3-9-6/h4-6H,1-3H2/t6-/m1/s1
