20
gdb 121463	5.82043	0.71012	0.64298	2.9355	88.17	-0.2325	-0.0269	0.2056	1773.9961	0.170705	-403.1749	-403.165691	-403.164747	-403.210927	33.137	
C	-0.2302751023	 1.61513404	 0.1622002346	-0.382425
C	-0.2246977282	 0.0907729577	 0.0325168466	-0.165043
C	 1.0769075023	-0.5398434541	 0.5261232333	-0.122018
N	 1.0331020542	-1.9897408615	 0.3821167402	-0.353427
C	 2.0377793865	-2.6622006437	 0.7468255226	 0.443189
O	 3.193587402	-2.1259792483	 1.2798400002	-0.259595
C	 4.1139431156	-3.1782416195	 1.5761550794	-0.13233
C	 3.4045938829	-4.4377355271	 1.1684466567	-0.101113
C	 2.202202545	-4.1184321483	 0.6899228861	-0.160659
H	 0.5822233865	 2.0679128131	-0.4178489222	 0.110853
H	-1.1714004953	 2.0423468561	-0.1972029188	 0.11012
H	-0.1013442038	 1.9273459305	 1.2050424253	 0.110853
H	-1.0591945915	-0.3413341102	 0.5975587966	 0.098406
H	-0.381002893	-0.2018675746	-1.0126168447	 0.098404
H	 1.9295544657	-0.1242371083	-0.0331081259	 0.099218
H	 1.2510597581	-0.2637539248	 1.5777514122	 0.099218
H	 5.0452085025	-3.0119474318	 1.0174149043	 0.128198
H	 4.3592637106	-3.1530696919	 2.6468016406	 0.128199
H	 3.8409809887	-5.4224550101	 1.2668694121	 0.122128
H	 1.4302536135	-4.7697016232	 0.3085376309	 0.127823
13.1385	84.1923	103.2242	164.0302	239.1769	260.1499	280.6427	339.1432	406.4726	526.2795	673.2791	738.0022	746.4485	798.6263	801.9407	875.2025	880.9562	901.9042	950.5001	973.4762	1025.1653	1030.5725	1055.4559	1079.0499	1115.6544	1132.064	1147.5625	1192.8921	1197.8585	1261.2002	1319.4215	1322.6836	1362.1487	1374.2545	1403.877	1414.6561	1470.9534	1492.0908	1500.7218	1501.0976	1510.7918	1659.723	1771.7226	2976.0309	3002.5985	3008.4739	3026.788	3033.2157	3035.8727	3064.1817	3093.1525	3101.6253	3228.1781	3262.3733
CCCN=C1OCC=C1	CCC[N]C1=C[CH]CO1	
InChI=1S/C7H11NO/c1-2-5-8-7-4-3-6-9-7/h3-4H,2,5-6H2,1H3	InChI=1S/C7H11NO/c1-2-5-8-7-4-3-6-9-7/h3-4H,2,5-6H2,1H3
