12
gdb 133259	3.43492	1.46351	1.03288	3.0128	59.99	-0.2789	-0.1058	0.1731	1028.0333	0.077074	-510.094118	-510.086871	-510.085926	-510.126298	25.812	
C	-0.033720434	 1.4305536994	-0.024967708	-0.31933
N	-0.0085743875	-0.0293550188	-0.0007142298	-0.044995
N	-0.0519377036	-0.641632465	-1.1667559244	-0.030744
N	-0.032827116	-1.9257057711	-1.2109088348	-0.254627
C	 0.0332641375	-2.5621292779	 0.0013462278	 0.405993
F	 0.0487550457	-3.8639701047	-0.1239660072	-0.027807
N	 0.0793096646	-2.0666893366	 1.1852668708	-0.366795
C	 0.060585147	-0.6909592982	 1.2711027998	 0.484814
O	 0.0958278703	-0.0341001806	 2.2785613723	-0.35337
H	 0.8677825997	 1.8167204524	 0.4548546831	 0.171103
H	-0.0863132346	 1.7408683393	-1.0670865288	 0.164662
H	-0.9000754192	 1.7876336317	 0.5353841492	 0.171096
96.8937	138.642	185.6088	284.4045	318.8552	402.6139	475.9048	508.6696	573.1733	619.177	753.0002	769.2579	815.1609	817.7467	948.8569	1082.8805	1151.2757	1168.788	1236.4028	1325.9043	1398.314	1429.2077	1468.9631	1475.7537	1500.2269	1647.7611	1843.0887	3068.9897	3141.9223	3184.109
CN1N=NC(F)=NC1=O	Cn1nnc(F)nc1=O	
InChI=1S/C3H3FN4O/c1-8-3(9)5-2(4)6-7-8/h1H3	InChI=1S/C3H3FN4O/c1-8-3(9)5-2(4)6-7-8/h1H3
