18
gdb 63225	2.25942	1.59496	1.17852	4.2911	76.97	-0.2637	0.0023	0.266	1093.0678	0.146881	-401.977898	-401.968964	-401.96802	-402.01139	33.546	
C	 0.3465480816	 1.4834377196	-0.2952798379	-0.450069
C	-0.0020820184	 0.0123383104	-0.048233717	 0.34142
O	-1.381710396	-0.1209664779	 0.2889642233	-0.469618
C	 0.4047042059	-0.8656130922	-1.217997428	-0.106475
C	 1.4499067599	-1.6410007978	-0.9482434727	-0.080979
C	 1.9552453402	-1.4529450203	 0.4607463485	-0.280169
C	 0.7951089216	-0.6579278803	 1.1248515144	-0.167337
C	 1.2258875398	 0.2564179556	 2.1744869335	 0.272218
N	 1.579537006	 0.9841505164	 3.0003491452	-0.342814
H	 1.4182080508	 1.6163756591	-0.4676251707	 0.13406
H	-0.1781476414	 1.8471910733	-1.1866894177	 0.109648
H	 0.0537546334	 2.0963673898	 0.5615479559	 0.148423
H	-1.8870201702	 0.4976443906	-0.24836339	 0.282184
H	-0.1153742991	-0.8023907115	-2.1677404912	 0.098628
H	 1.9275644914	-2.3203082531	-1.6452823257	 0.106948
H	 2.1529099148	-2.3941650929	 0.9831107995	 0.125475
H	 2.8918594692	-0.8820635951	 0.4787732028	 0.131933
H	 0.0915516606	-1.3700699838	 1.5670604477	 0.146524
66.5799	144.9992	180.7405	203.4781	242.834	264.7974	332.1856	384.9302	393.4605	502.5446	519.7996	568.8303	604.6786	708.618	756.6316	775.0932	894.1292	950.5805	965.3298	976.5766	993.9461	1017.5756	1050.9009	1100.3821	1107.7092	1144.6559	1180.0434	1207.5262	1284.6247	1301.0944	1341.8556	1352.2302	1375.0898	1408.2021	1486.8376	1490.2445	1493.1663	1692.0717	2355.8951	3031.0396	3035.2337	3066.2292	3081.8816	3102.1027	3126.1895	3183.6031	3208.6102	3817.6049
CC1(O)C=CCC1C#N	C[C@@]1(O)C=CC[C@H]1C#N	
InChI=1S/C7H9NO/c1-7(9)4-2-3-6(7)5-8/h2,4,6,9H,3H2,1H3	InChI=1S/C7H9NO/c1-7(9)4-2-3-6(7)5-8/h2,4,6,9H,3H2,1H3/t6-,7+/m0/s1
