19
gdb 31038	2.54544	1.2009	0.86772	0.6119	79.85	-0.1677	0.0586	0.2264	1359.5531	0.15896	-419.240373	-419.230299	-419.229355	-419.276038	36.325	
C	 0.0754044207	 1.5341630667	 0.1772665321	-0.354988
C	-0.0084394966	 0.0296814807	-0.1354994897	-0.314997
C	-1.3996272429	-0.5299336906	-0.0664768112	 0.155328
C	-2.1975187209	-0.8972100753	-1.1258617368	 0.285331
O	-2.0082369914	-0.8989201285	-2.4741249985	-0.441097
N	-3.3987686283	-1.343585181	-0.6561694674	-0.308184
C	-3.4044288834	-1.2754184817	 0.7279122969	 0.254672
N	-4.5776045319	-1.663032065	 1.416872156	-0.611155
C	-2.1844165638	-0.780852471	 1.1127530446	-0.299141
H	 1.1092958581	 1.8935236256	 0.1332496202	 0.103221
H	-0.5214613134	 2.1154329467	-0.5328090014	 0.113276
H	-0.3131974478	 1.7426792894	 1.1789586285	 0.119465
H	 0.4198415157	-0.1505023354	-1.1328513634	 0.069623
H	 0.6470715641	-0.5145688556	 0.5570784492	 0.105228
H	-1.114385951	-0.5887548402	-2.6490422975	 0.302217
H	-4.1859115732	-1.6136751621	-1.2203023168	 0.26194
H	-4.5205892449	-2.615348195	 1.7675491652	 0.239467
H	-4.7435651606	-1.0601377354	 2.2140817278	 0.242327
H	-1.8636944184	-0.6244327523	 2.1326870524	 0.077468
39.0896	70.8622	120.6157	195.1404	196.1699	217.903	286.5261	289.6549	306.0687	409.7809	449.9484	518.3748	588.9833	642.6329	646.5921	688.3401	771.7982	781.2463	800.4955	815.1033	968.3904	1027.4065	1045.235	1081.7658	1143.2282	1175.1241	1196.972	1200.1838	1260.6503	1297.0628	1348.3331	1373.4251	1406.9396	1431.4329	1481.994	1494.483	1505.3256	1546.5199	1576.0078	1648.9031	1663.4796	2990.0656	3027.8964	3030.4157	3099.8928	3107.1412	3231.2825	3483.3576	3576.6931	3682.5533	3837.7176
CCC1=C(O)NC(N)=C1	CCc1c(O)[nH]c(N)c1	
InChI=1S/C6H10N2O/c1-2-4-3-5(7)8-6(4)9/h3,8-9H,2,7H2,1H3	InChI=1S/C6H10N2O/c1-2-4-3-5(7)8-6(4)9/h3,8-9H,2,7H2,1H3
