24
gdb 76627	2.63526	1.04935	0.98192	1.0498	90.93	-0.2164	0.0917	0.3081	1417.2814	0.215451	-368.377623	-368.367226	-368.366281	-368.412801	39.214	
C	-0.0998601098	 1.5408821832	 0.5914398279	-0.419964
C	 0.0307432884	 0.0529660212	 0.3426071093	-0.008183
C	 0.3027407645	-0.4893570531	-1.0237982014	-0.079648
N	 1.3049609782	-0.606208503	 0.029498263	-0.103463
C	 2.5272758139	 0.1729218704	-0.0854313676	-0.31297
C	-0.2969771576	-1.7395401699	-1.6075424338	 0.377023
C	-0.6160863239	-2.8531971584	-0.6298988719	-0.476538
C	-1.204246751	-1.5552797693	-2.8028499696	-0.303341
C	 0.1806338117	-2.1244843219	-2.9922741092	-0.301142
H	 0.4455861437	 2.1403448567	-0.141309556	 0.118802
H	-1.1537343314	 1.8341532718	 0.5378189766	 0.123071
H	 0.2655957764	 1.8094684868	 1.5891912344	 0.120612
H	-0.5833262001	-0.5492857371	 1.0112536876	 0.084283
H	 0.49722264	 0.2821704415	-1.7749475721	 0.062596
H	 2.4113001938	 1.1392539547	-0.6007643661	 0.09697
H	 2.93557003	 0.3651246071	 0.9125351521	 0.119021
H	 3.2651518277	-0.4141680001	-0.6419233443	 0.123452
H	-1.4303870911	-2.5729281538	 0.0480035141	 0.111816
H	-0.9285849474	-3.7571152019	-1.1611146021	 0.105201
H	 0.2617523995	-3.0925835998	-0.0228401488	 0.135835
H	-2.0526427803	-2.2242950489	-2.9025609243	 0.107681
H	-1.3944136288	-0.5464113119	-3.1554404731	 0.105287
H	 0.927494311	-1.4985998248	-3.4700518235	 0.105433
H	 0.2756087325	-3.1804482094	-3.2220310413	 0.108167
45.659	138.8661	165.2888	180.5825	184.3351	213.8776	262.2324	287.1991	310.6563	344.5523	368.518	438.058	458.0532	544.5559	748.5926	772.5808	782.1848	811.4616	861.5507	894.3821	942.2652	957.2822	1010.6811	1029.6269	1043.0237	1057.6376	1068.7239	1075.9293	1112.441	1122.7918	1131.9597	1165.0683	1182.0124	1188.0694	1197.0348	1285.7428	1314.773	1347.1892	1376.5151	1407.4184	1413.5774	1445.1317	1467.1167	1476.5832	1486.7219	1488.4181	1492.9873	1500.7621	1502.1925	1508.8725	1514.7839	2977.27	3030.9509	3033.2871	3054.4051	3062.3212	3090.8624	3091.5841	3096.1779	3101.8332	3114.9801	3123.232	3123.9808	3128.1559	3200.7417	3215.5818
CC1C(N1C)C1(C)CC1	C[C@H]1[C@@H](N1C)C1(C)CC1	
InChI=1S/C8H15N/c1-6-7(9(6)3)8(2)4-5-8/h6-7H,4-5H2,1-3H3	InChI=1S/C8H15N/c1-6-7(9(6)3)8(2)4-5-8/h6-7H,4-5H2,1-3H3/t6-,7+,9?/m0/s1
