13
gdb 131905	4.56556	1.08208	0.87476	3.7968	70.1	-0.2276	-0.0777	0.1499	1196.7901	0.089704	-489.835306	-489.827835	-489.826891	-489.867469	27.755	
O	 0.0907946293	 1.3509223751	-0.1427304705	-0.440382
C	 0.0662699176	 0.0002148636	-0.0088202487	 0.341977
C	 0.0078246517	-0.8664047024	-1.0961185135	-0.134758
N	-0.0020229623	-2.1390781018	-0.6064372566	-0.306608
C	 0.0484884332	-2.0914458275	 0.7525566689	 0.468082
C	 0.0924604664	-0.7718576232	 1.1715003414	-0.369441
N	 0.0495131524	-3.2947763554	 1.4994826083	 0.342226
O	 0.0033929664	-4.3508164851	 0.857749346	-0.407095
O	 0.0961504673	-3.2092192959	 2.7232039114	-0.376384
H	 0.1311563403	 1.7531463064	 0.7303637829	 0.306465
H	-0.0259908465	-0.6545806852	-2.1513136967	 0.148485
H	-0.0394555357	-3.0074288345	-1.1153367661	 0.291034
H	 0.1369860899	-0.4393223141	 2.1955838033	 0.1364
107.0864	160.6311	194.4326	261.1964	340.4344	393.4806	433.382	543.8201	560.8268	629.6008	638.5841	696.3205	742.208	781.2617	824.8218	827.9058	985.4098	1002.918	1115.501	1151.2195	1165.9921	1292.9355	1341.9305	1417.4032	1441.0812	1497.6566	1527.0526	1603.4626	1634.7559	3273.3014	3282.7537	3667.4156	3838.5714
OC1=CNC(=C1)N(=O)=O	Oc1c[nH]c(c1)N(=O)=O	
InChI=1S/C4H4N2O3/c7-3-1-4(5-2-3)6(8)9/h1-2,5,7H	InChI=1S/C4H4N2O3/c7-3-1-4(5-2-3)6(8)9/h1-2,5,7H
