19
gdb 102065	2.10066	1.21485	1.07317	6.1721	77.27	-0.2647	0.0071	0.2719	1269.9506	0.157669	-419.244908	-419.234712	-419.233767	-419.280707	35.665	
C	-0.2676126452	 1.5054110258	-0.030564387	-0.375006
C	 0.1384788812	 0.030109642	 0.007676961	-0.174746
N	 0.822141085	-0.422322615	-1.2010767322	-0.034516
C	 2.1341770096	-0.8063190299	-1.1766852439	 0.158051
O	 2.7417733148	-1.2657346935	-2.1186164182	-0.335296
C	 0.0377547545	-0.6120713448	-2.4266731712	-0.136101
C	 0.5493078253	 0.2056494779	-3.6260513004	-0.39792
C	-0.0838212429	-2.0444306141	-2.7653382596	 0.309616
N	-0.2403429484	-3.1567858502	-3.0342311077	-0.321599
H	 0.6097900721	 2.146796208	-0.153816435	 0.132471
H	-0.9595568617	 1.7143637872	-0.8527670898	 0.126704
H	-0.7703656798	 1.7807614746	 0.901545643	 0.129299
H	 0.816783375	-0.145378148	 0.8479657704	 0.127697
H	-0.7408872739	-0.6032928632	 0.1807357112	 0.126611
H	 2.5924968379	-0.6451871134	-0.181730463	 0.088764
H	-0.9763261131	-0.2735392684	-2.1903961493	 0.135194
H	 0.5658572486	 1.2651079102	-3.3577065488	 0.124118
H	 1.5533316948	-0.1142558524	-3.8993433107	 0.180162
H	-0.1201379137	 0.0674681773	-4.4789969189	 0.136496
42.1687	80.8242	108.0624	170.6841	206.0047	228.8306	239.8108	267.2553	309.9154	341.998	396.5024	453.0579	546.903	585.7642	635.9147	786.063	816.302	872.7789	962.8221	1026.9346	1035.1636	1078.2847	1104.055	1122.9077	1136.966	1215.5672	1281.3283	1321.376	1354.1122	1392.836	1399.5283	1412.4549	1428.42	1455.5288	1480.615	1489.5496	1493.5499	1507.3451	1511.3689	1794.0945	2361.0143	2943.6361	3026.6595	3040.1433	3057.5838	3061.5492	3083.455	3112.2565	3121.3195	3129.6412	3177.8189
CCN(C=O)C(C)C#N	CCN(C=O)[C@@H](C)C#N	
InChI=1S/C6H10N2O/c1-3-8(5-9)6(2)4-7/h5-6H,3H2,1-2H3	InChI=1S/C6H10N2O/c1-3-8(5-9)6(2)4-7/h5-6H,3H2,1-2H3/t6-/m0/s1
