19
gdb 99407	2.15514	1.30198	0.89094	2.6072	76.86	-0.2481	-0.0005	0.2476	1337.854	0.15714	-456.364665	-456.354187	-456.353242	-456.400477	35.917	
C	-0.1214755671	 1.2146461678	-0.1456703904	-0.226437
O	-0.0548196187	-0.2075388694	-0.2669282786	-0.241991
C	 0.6603949938	-0.6815059162	-1.3108691976	 0.460461
N	 1.1239105561	 0.087635401	-2.1989779665	-0.33137
C	 2.0380397959	-0.3804084002	-3.220188074	-0.328075
N	 0.7583051365	-2.0881218263	-1.2194563274	-0.13916
C	 0.522218306	-2.9336297193	-2.3915424784	-0.344691
C	 0.9197565216	-2.7166321958	 0.0010501969	 0.151891
O	 0.9350406828	-3.9187969558	 0.1321233676	-0.325069
H	 0.8808696222	 1.6486076183	-0.0974863347	 0.135872
H	-0.6471543778	 1.6499549646	-0.9990356122	 0.140733
H	-0.6689871151	 1.4017647713	 0.7789255346	 0.131018
H	 2.7530057899	 0.4193696898	-3.43711946	 0.128746
H	 2.6066188259	-1.275058144	-2.9347769882	 0.115851
H	 1.510565207	-0.5956105419	-4.1580981995	 0.123936
H	 1.4524930955	-3.3392831514	-2.7986971699	 0.141026
H	-0.1077849764	-3.770812887	-2.0859407568	 0.159971
H	 0.0157115223	-2.3489550809	-3.1589179215	 0.140931
H	 1.0454311995	-2.0048417344	 0.8302854165	 0.106357
65.2023	110.1796	113.5162	149.5378	172.2549	185.9792	239.268	245.8413	287.7446	316.7239	327.0198	365.3342	466.7878	564.3933	703.1558	738.4719	833.9329	983.1916	1035.0412	1060.0924	1094.9333	1130.849	1149.9191	1155.1415	1182.017	1198.0812	1240.0951	1309.1684	1351.3695	1435.3825	1441.5651	1456.126	1472.8793	1478.4657	1484.2982	1493.0073	1500.1656	1507.6619	1521.4667	1754.6826	1804.828	3003.735	3030.7571	3049.0463	3056.1222	3062.4178	3084.9474	3123.8264	3125.1197	3152.3232	3162.5491
COC(=NC)N(C)C=O	COC(=NC)N(C)C=O	
InChI=1S/C5H10N2O2/c1-6-5(9-3)7(2)4-8/h4H,1-3H3	InChI=1S/C5H10N2O2/c1-6-5(9-3)7(2)4-8/h4H,1-3H3
