14
gdb 5503	3.33741	1.89683	1.21137	4.937	67.85	-0.198	-0.0255	0.1725	923.8676	0.108855	-378.765446	-378.758113	-378.757168	-378.796884	27.279	
N	 0.0503862495	 1.4052065817	 0.1498202284	-0.605358
C	 0.0298621933	 0.0089598097	 0.0341676051	 0.141329
C	-1.0779105731	-0.8066652382	 0.0203316238	-0.148537
N	-0.6294098169	-2.1201953451	-0.0176883063	-0.238045
C	 0.7182374141	-2.1583653092	-0.0373581366	-0.128795
C	 1.1865019551	-0.8486044279	-0.0011149925	 0.144358
C	 2.5866343279	-0.4704643363	 0.0203624335	 0.058571
O	 3.5225688879	-1.2456542424	-0.0232053287	-0.300324
H	 0.7877802182	 1.8417632932	-0.3869175566	 0.249027
H	-0.8344373983	 1.8337020702	-0.0874259336	 0.243259
H	-2.1301405725	-0.575747798	 0.0395984703	 0.116235
H	-1.2297655198	-2.9262358475	-0.0357654869	 0.269699
H	 1.2742278573	-3.0804365457	-0.0714656478	 0.152011
H	 2.7735538974	 0.6264170154	 0.0883297377	 0.04657
151.2979	173.4564	192.5028	235.5277	334.7126	341.4694	498.9396	544.3297	626.4235	642.2491	645.9871	681.3096	751.5413	800.4545	822.2731	908.8721	1038.3702	1079.6001	1084.0544	1142.4094	1218.0876	1287.4483	1353.3279	1411.7684	1462.8984	1497.3382	1543.7954	1618.4661	1661.1102	1771.7839	2852.6494	3268.1352	3280.7611	3544.8297	3633.5142	3680.1785
NC1=CNC=C1C=O	Nc1c[nH]cc1C=O	
InChI=1S/C5H6N2O/c6-5-2-7-1-4(5)3-8/h1-3,7H,6H2	InChI=1S/C5H6N2O/c6-5-2-7-1-4(5)3-8/h1-3,7H,6H2
