17
gdb 19405	3.16412	2.13265	1.60439	2.3386	67.75	-0.2339	0.0761	0.31	848.1416	0.141762	-363.789825	-363.782599	-363.781655	-363.820974	27.941	
C	-0.2098403032	 1.586940435	-0.071813581	-0.413565
C	 0.0701405606	 0.099152878	 0.0293557395	-0.028302
N	 0.9847479246	-0.5172923543	-1.0165383484	-0.140826
C	 2.3489791683	-0.0205062791	-0.7591836968	-0.247191
C	 1.82916466	-1.0997763291	 0.1061782918	-0.131243
C	 0.9278533767	-0.4980734113	 1.156360087	 0.44384
C	 1.1856627377	-0.1088283562	 2.5440137494	-0.272166
O	 0.3617882701	-1.2408927333	 2.2149241367	-0.27871
H	 0.6965033339	 2.1931991216	 0.0124089112	 0.1177
H	-0.6859784573	 1.8169791473	-1.0303182306	 0.133189
H	-0.8933700934	 1.8964894324	 0.7257834491	 0.125843
H	-0.8692927964	-0.4608702988	-0.0160242204	 0.106426
H	 3.0465284636	-0.2917453091	-1.5457418171	 0.126231
H	 2.5017623243	 0.9735252667	-0.3467094417	 0.113785
H	 2.1888916226	-2.1228014595	 0.0929670208	 0.110964
H	 2.1433667526	-0.3463912141	 3.005521839	 0.117489
H	 0.6564420251	 0.7379270138	 2.9792888414	 0.116534
140.6315	191.9536	196.8714	272.609	313.3514	381.575	487.3643	550.4995	579.7569	728.9778	768.5803	783.0049	862.0059	880.2612	908.3784	960.5118	995.4198	1043.8114	1093.3671	1103.2908	1110.8008	1115.6102	1123.4244	1148.6199	1163.3876	1190.7291	1229.3864	1271.9021	1323.5257	1371.8104	1406.6239	1447.097	1488.0565	1493.9902	1505.153	1537.7215	3038.1671	3061.4735	3080.5408	3105.1893	3110.0337	3116.8765	3167.7296	3176.3377	3199.8464
CC1N2CC2C11CO1	C[C@H]1N2C[C@H]2[C@]21CO2	
InChI=1S/C6H9NO/c1-4-6(3-8-6)5-2-7(4)5/h4-5H,2-3H2,1H3	InChI=1S/C6H9NO/c1-4-6(3-8-6)5-2-7(4)5/h4-5H,2-3H2,1H3/t4-,5+,6-,7?/m1/s1
