18
gdb 11295	3.39149	1.62263	1.41235	3.5662	71.56	-0.2265	0.0306	0.2571	948.2874	0.155822	-343.997232	-343.989376	-343.988432	-344.029949	28.956	
C	-0.4322717945	 1.4164068118	 0.3136056435	-0.337644
N	 0.0931978962	 0.0920399971	-0.0189585861	-0.049318
C	-0.9419569251	-0.8549422749	-0.4377181645	-0.171791
C	-1.5545968678	-1.4389249479	 0.8614482172	-0.238097
C	-0.363351202	-1.4010518655	 1.8688221346	-0.139074
C	 0.7463997401	-0.5758453461	 1.0987487918	-0.190172
C	-0.7240087375	-0.8065860373	 3.1503844359	 0.264996
N	-1.0025515386	-0.3218546482	 4.1633413713	-0.335906
H	 0.393583793	 2.064958253	 0.6189167554	 0.128539
H	-0.8883750435	 1.854608017	-0.5789700334	 0.124165
H	-1.1839547938	 1.4254094772	 1.1212528493	 0.115178
H	-1.6807505841	-0.3686002151	-1.0785899623	 0.111251
H	-0.4710637726	-1.6570933732	-1.0200410037	 0.106509
H	-2.373729487	-0.8131560768	 1.2216147278	 0.131229
H	-1.9453030947	-2.4501243986	 0.7310298341	 0.115522
H	 0.0072590554	-2.4102913348	 2.0698508808	 0.124949
H	 1.4842450183	-1.2885057453	 0.7137090193	 0.112581
H	 1.2654285082	 0.1360139873	 1.7420604489	 0.127085
41.4496	154.7727	189.3605	217.2727	246.712	388.4301	407.6017	486.966	563.3223	604.7075	704.8889	774.8688	822.8737	867.5877	915.0022	950.4957	971.9769	1038.191	1052.6044	1078.888	1108.2604	1161.3627	1184.683	1206.5903	1249.1307	1280.5024	1299.7276	1335.9475	1346.8656	1364.5623	1369.8953	1459.467	1487.0501	1490.5197	1497.8588	1505.4235	1509.2685	2347.1904	2964.6974	3023.9543	3038.1615	3068.2324	3071.8901	3077.4874	3105.0437	3113.5393	3125.7126	3126.9453
CN1CCC(C1)C#N	CN1CC[C@@H](C1)C#N	
InChI=1S/C6H10N2/c1-8-3-2-6(4-7)5-8/h6H,2-3,5H2,1H3	InChI=1S/C6H10N2/c1-8-3-2-6(4-7)5-8/h6H,2-3,5H2,1H3/t6-/m1/s1
