21
gdb 86565	2.36226	1.33189	1.24308	3.8855	78.77	-0.2436	-0.0291	0.2145	1173.0006	0.181064	-424.24338	-424.233759	-424.232814	-424.277915	35.965	
C	-1.2274425678	 0.8199045894	 0.1063222633	-0.417508
C	-0.261998764	-0.3472681285	-0.0073148025	 0.007669
C	 0.9738551903	-0.2252505501	-0.9614286091	 0.130288
O	 1.424142868	 1.0811068158	-1.1997783373	-0.438238
C	 1.8035079291	-1.0183594621	 0.0875057106	-0.26018
C	 0.7245217024	-0.7173631399	 1.1753884254	-0.146025
C	 1.0767675348	 0.457782458	 2.0627694071	 0.404808
C	 0.6954870585	 0.3615079211	 3.5231884458	-0.481356
O	 1.6306908587	 1.4513857766	 1.6249210357	-0.333696
H	-0.7047659713	 1.7575037509	 0.3078099084	 0.134356
H	-1.7758020905	 0.9464493686	-0.8328631309	 0.123171
H	-1.9631678188	 0.6541808777	 0.9015703487	 0.105698
H	-0.809829717	-1.2622216443	-0.2572946164	 0.078915
H	 0.8550011466	-0.6924543742	-1.9428090173	 0.076636
H	 1.6566178329	 1.4638625494	-0.3373313157	 0.295775
H	 1.8597355927	-2.0872961775	-0.131623521	 0.103177
H	 2.8075814064	-0.632015929	 0.2756805762	 0.112939
H	 0.4050708812	-1.5642610436	 1.7867616729	 0.068086
H	-0.3793234532	 0.1673539221	 3.6176216418	 0.145906
H	 1.2084069729	-0.4890049187	 3.9874263588	 0.14563
H	 0.9559076181	 1.2821582282	 4.0463083855	 0.143947
47.6147	136.1353	156.5536	173.8961	192.3365	241.599	247.6388	337.2182	377.311	409.3198	533.544	584.6075	616.0889	664.3941	694.9415	748.048	837.6919	853.6257	885.9778	933.5037	972.4959	1000.0621	1018.1648	1045.9535	1082.6249	1115.9113	1145.2451	1164.8984	1192.4877	1199.2249	1248.2048	1256.8146	1270.867	1330.8884	1358.5728	1374.8243	1393.1456	1413.6137	1459.6628	1463.1714	1473.335	1482.9803	1492.901	1499.0245	1770.1109	3032.9485	3033.6861	3044.898	3062.4477	3073.4411	3082.3575	3092.3994	3095.2241	3126.485	3128.7696	3153.3329	3654.5257
CC1C(O)CC1C(C)=O	C[C@H]1[C@@H](O)C[C@H]1C(=O)C	
InChI=1S/C7H12O2/c1-4-6(5(2)8)3-7(4)9/h4,6-7,9H,3H2,1-2H3	InChI=1S/C7H12O2/c1-4-6(5(2)8)3-7(4)9/h4,6-7,9H,3H2,1-2H3/t4-,6-,7+/m1/s1
