24
gdb 13452	3.16786	1.08993	0.9833	0.0594	85.77	-0.2559	0.0803	0.3362	1368.1316	0.22227	-314.270934	-314.260681	-314.259737	-314.306142	37.283	
C	-0.836323849	 0.538584108	 3.3929265972	-0.381322
C	-0.7936542887	-0.812123637	 2.6738871606	-0.156197
C	-1.8154473325	-0.9190888115	 1.5323526743	-0.188799
C	-1.7349295466	-2.2403687068	 0.7926781662	-0.022962
C	-2.4924927673	-3.4855218267	 1.2195455364	-0.014598
C	-3.4139858594	-3.5282224061	 2.4210747978	-0.406328
C	-2.8572618716	-2.7804214057	-0.0727482562	-0.041644
C	-4.1688989465	-2.049174293	-0.2743749765	-0.403228
H	-0.0957934283	 0.5885438629	 4.1974748614	 0.109467
H	-0.6311481266	 1.3626676565	 2.7002165893	 0.112294
H	-1.8217862579	 0.7204800455	 3.8366632383	 0.111658
H	 0.2137004005	-0.9822273989	 2.2711972698	 0.092347
H	-0.9707701718	-1.6209947036	 3.3938366559	 0.098806
H	-2.8199258773	-0.7542198984	 1.9372680271	 0.089635
H	-1.643826643	-0.0978637808	 0.8217924743	 0.090678
H	-0.7351061328	-2.4324084822	 0.406470559	 0.072699
H	-1.943650679	-4.4151526269	 1.0857504222	 0.075598
H	-3.9523887813	-2.5907621766	 2.5785487673	 0.114906
H	-4.1649484865	-4.318597574	 2.3080458847	 0.113992
H	-2.851845931	-3.7390015353	 3.3379190988	 0.114979
H	-2.5249185223	-3.2905797428	-0.974332732	 0.075753
H	-4.5138289455	-1.5359238117	 0.6261438553	 0.114427
H	-4.076748851	-1.294200869	-1.063445178	 0.114566
H	-4.9599957147	-2.7448766957	-0.5764863134	 0.113272
69.4648	87.5016	114.0094	156.4568	163.3447	216.281	239.7158	255.5085	282.5054	358.2713	453.8399	519.6358	534.604	733.2326	756.8602	772.3016	841.4221	883.6583	901.9292	947.2079	955.4013	1026.3269	1045.5994	1052.4502	1072.8052	1100.8185	1133.2399	1142.5628	1162.7405	1189.9672	1196.0069	1263.2037	1275.2354	1301.6105	1329.636	1375.9759	1378.8235	1404.2929	1411.846	1418.4873	1423.8137	1455.7116	1479.1681	1490.7297	1492.9395	1497.4946	1499.6332	1502.7177	1509.1682	1517.0541	3006.2747	3018.3167	3027.245	3028.5941	3032.0918	3045.6525	3066.447	3081.5894	3083.2808	3093.8332	3099.2604	3104.235	3107.7386	3118.0202	3122.3421	3136.9646
CCCC1C(C)C1C	CCC[C@H]1[C@@H](C)[C@H]1C	
InChI=1S/C8H16/c1-4-5-8-6(2)7(8)3/h6-8H,4-5H2,1-3H3	InChI=1S/C8H16/c1-4-5-8-6(2)7(8)3/h6-8H,4-5H2,1-3H3/t6-,7+,8-
