23
gdb 40295	2.39304	1.52485	1.15903	1.5707	84.52	-0.2568	0.0719	0.3287	1176.459	0.20821	-388.29094	-388.28237	-388.281426	-388.324079	33.835	
C	 0.0013971649	 1.5299168144	 0.0137050843	-0.238019
O	 1.1954709757	 0.7442167527	 0.0155140171	-0.283722
C	-0.0713097333	 0.0595032279	 0.0011679824	 0.442533
C	-0.4187201178	-0.6874215155	 1.2816175238	-0.28745
C	 0.6559556032	-1.6795661404	 1.7756134111	-0.179823
C	 1.3954500261	-2.4919221298	 0.6938102189	-0.184589
C	 0.5575880682	-2.9474254369	-0.5157670242	-0.190301
C	 0.451404912	-1.8823932177	-1.6203985627	-0.183422
C	-0.4106674889	-0.6503719669	-1.3007887101	-0.270069
H	-0.2016427077	 2.0731597158	 0.9364566166	 0.107485
H	-0.1856067712	 2.0920169836	-0.901066938	 0.106808
H	-0.6191938921	 0.0288877288	 2.0852698286	 0.095571
H	-1.3618412818	-1.2185588052	 1.1077682264	 0.099088
H	 1.4042236736	-1.128031334	 2.3540424439	 0.106996
H	 0.1699206225	-2.3642952192	 2.4812625368	 0.091701
H	 2.2363560612	-1.8979938505	 0.3165846549	 0.112281
H	 1.8406533852	-3.3681545038	 1.1788226113	 0.086861
H	 1.0315947105	-3.833599736	-0.9537490742	 0.092751
H	-0.4425729621	-3.2711722361	-0.1956589065	 0.086843
H	 1.4654003173	-1.5429932177	-1.8662467351	 0.108266
H	 0.0516906596	-2.3425643003	-2.5320620043	 0.088795
H	-1.4682818261	-0.9430832685	-1.2540206854	 0.095538
H	-0.3196884491	 0.0612184354	-2.1286748856	 0.095878
82.0822	115.4766	150.8535	268.3724	280.2932	363.62	373.8414	404.0973	419.0539	524.4325	569.2461	700.8452	736.8334	775.8425	837.7074	848.8798	864.1428	903.9035	933.162	972.392	982.6249	1002.5469	1019.583	1073.6207	1081.1811	1116.1439	1134.4068	1154.5619	1188.7997	1199.8672	1216.9161	1266.5352	1279.9031	1293.6714	1312.4214	1362.0336	1368.5898	1372.5755	1385.6796	1389.9284	1400.7674	1434.7328	1472.0717	1479.2463	1485.5132	1490.4246	1498.0092	1505.0688	1530.945	3011.9339	3016.3891	3021.529	3023.9582	3027.9452	3038.5579	3055.32	3058.6213	3060.4574	3069.1221	3071.0857	3073.1078	3084.7204	3157.219
C1OC11CCCCCC1	C1OC21CCCCCC2	
InChI=1S/C8H14O/c1-2-4-6-8(5-3-1)7-9-8/h1-7H2	InChI=1S/C8H14O/c1-2-4-6-8(5-3-1)7-9-8/h1-7H2
