13
gdb 133198	3.10493	1.45185	0.99535	2.9629	64.72	-0.2555	-0.0765	0.1791	1088.5487	0.089396	-494.070323	-494.062861	-494.061917	-494.102519	27.308	
C	-0.0176647796	 1.5161259786	 0.0312856615	-0.455447
C	-0.0026649082	 0.0208908692	-0.0332611599	 0.376936
N	-0.0407369274	-0.5565256211	-1.1974372384	-0.231143
N	-0.0243884838	-1.9072704032	-1.1874671528	-0.268352
C	 0.0278332366	-2.747775073	-0.0902966971	 0.315018
O	 0.0395142664	-3.957933211	-0.1590149363	-0.364295
C	 0.0655220794	-1.925662438	 1.1392615456	 0.239496
F	 0.116793104	-2.6049086988	 2.2610221922	-0.02452
N	 0.0518725795	-0.6515061745	 1.1755165054	-0.315859
H	 0.8792673962	 1.881682043	 0.541340268	 0.148185
H	-0.0628185579	 1.9382370344	-0.9727432581	 0.146053
H	-0.8791645562	 1.8609545701	 0.6119148629	 0.148183
H	-0.054396269	-2.3452723658	-2.099336593	 0.285745
102.769	149.1542	212.1454	298.0499	319.4392	351.9069	441.4141	500.5013	536.6207	589.8168	655.4778	702.289	729.6909	799.8687	820.5714	981.5738	1030.8895	1065.7343	1217.6711	1227.6217	1341.2494	1361.0461	1416.1008	1455.8646	1474.2502	1476.4057	1592.2426	1679.2065	1808.1582	3047.6326	3104.3114	3157.8001	3592.9909
CC1=NNC(=O)C(F)=N1	Cc1n[nH]c(=O)c(F)n1	
InChI=1S/C4H4FN3O/c1-2-6-3(5)4(9)8-7-2/h1H3,(H,8,9)	InChI=1S/C4H4FN3O/c1-2-6-3(5)4(9)8-7-2/h1H3,(H,8,9)
