17
gdb 116525	3.03323	0.93616	0.76369	4.9473	75.77	-0.2395	-0.1017	0.1377	1479.1193	0.1332	-455.162428	-455.15226	-455.151316	-455.198975	34.947	
C	-0.1080457653	 1.5648940545	-0.3515215403	-0.37233
C	-0.2245032706	 0.1573224956	 0.2540691931	-0.16009
N	-1.5654717903	-0.3835319546	 0.0985272771	-0.27658
C	-1.8522658828	-1.0369713808	-0.9687818445	 0.276417
N	-1.0612336951	-1.3682472734	-2.0309072683	-0.556007
C	-3.2583363972	-1.5609909463	-1.0967058971	 0.261147
O	-3.6255804499	-2.1381042906	-2.0944411646	-0.29213
C	-4.2233645769	-1.3321578637	 0.0879318857	 0.08604
O	-5.3736878806	-1.6703432338	 0.0025526795	-0.21896
H	 0.8876046181	 1.9796732532	-0.1678313588	 0.12171
H	-0.2793742074	 1.5525045297	-1.4329689943	 0.113899
H	-0.850245591	 2.2317432179	 0.0953166833	 0.136683
H	 0.5427783065	-0.504002209	-0.1804297102	 0.090749
H	-0.0153608322	 0.2154742489	 1.3272816479	 0.114794
H	-0.2033097157	-0.8779777288	-2.2084104692	 0.266339
H	-1.5383982794	-1.7854179728	-2.8157994845	 0.276292
H	-3.7906449804	-0.8553831162	 0.9812637651	 0.132025
35.1326	62.0418	80.7527	129.2729	169.8283	229.2318	291.6371	314.0778	344.5594	370.1841	409.2048	486.4967	534.8134	576.8921	709.5669	727.4585	819.5803	842.6679	896.551	1007.9483	1016.6754	1072.467	1099.796	1137.045	1195.6105	1299.4913	1354.5106	1361.1803	1394.027	1407.8061	1490.019	1499.1476	1526.4466	1607.7143	1707.8921	1787.5778	1822.1809	2970.5857	3021.1183	3039.2312	3060.7576	3109.4549	3122.8008	3594.4386	3732.2644
CCN=C(N)C(=O)C=O	CCN=C(N)C(=O)C=O	
InChI=1S/C5H8N2O2/c1-2-7-5(6)4(9)3-8/h3H,2H2,1H3,(H2,6,7)	InChI=1S/C5H8N2O2/c1-2-7-5(6)4(9)3-8/h3H,2H2,1H3,(H2,6,7)
