21
gdb 113758	3.73328	0.8061	0.72056	2.384	80.79	-0.2621	-0.0348	0.2273	1615.4573	0.180177	-424.224632	-424.214522	-424.213578	-424.260625	36.501	
C	 0.4751601994	 1.6114487604	 0.1858722317	-0.380885
C	-0.1071075851	 0.2164831936	-0.0714466012	-0.190632
C	 0.5053860397	-0.4459720844	-1.2890316786	 0.010972
C	 1.7716583771	-1.2609004163	-1.1902564246	-0.310602
C	 0.4613250001	-1.936249822	-1.5354817934	-0.039036
C	-0.2048546846	-2.8918234587	-0.561261343	 0.036224
O	-1.5977880998	-2.9105550784	-0.7231853767	-0.439218
C	 0.3610610295	-4.2882234163	-0.7431096657	 0.136524
O	-0.3468128612	-5.2370669003	-0.9823207327	-0.263623
H	 1.5561871027	 1.5632740505	 0.3545608042	 0.116492
H	 0.303428565	 2.2744809941	-0.6691986752	 0.115303
H	 0.0162484329	 2.0757180045	 1.0641087485	 0.112764
H	 0.0495649877	-0.4067773782	 0.8164412794	 0.094083
H	-1.1934176735	 0.2855150568	-0.2060619359	 0.114839
H	 0.4087932429	 0.1483739634	-2.1951190395	 0.087486
H	 2.5297546687	-1.1734641074	-1.9603426679	 0.115057
H	 2.1731332146	-1.4285493698	-0.1943810919	 0.10965
H	 0.3254911407	-2.2340183206	-2.5720595847	 0.093362
H	 0.0625014695	-2.5911979734	 0.4682946705	 0.087147
H	-1.8304801773	-3.8408452553	-0.8729106348	 0.292669
H	 1.461079561	-4.3862513521	-0.6501597084	 0.101426
44.8641	76.4071	82.2512	149.1162	182.4448	232.2607	268.7438	324.9909	348.919	377.6443	433.7366	477.1876	562.4089	743.4084	761.2683	796.7294	814.6581	856.5469	890.6691	943.2073	963.7361	1015.0722	1025.7277	1048.682	1071.3434	1111.7895	1146.6524	1155.5692	1171.1337	1194.7562	1245.4962	1260.6434	1297.6334	1310.8357	1343.9461	1389.1264	1395.4335	1409.8333	1425.9502	1443.8902	1482.0276	1495.1369	1498.6741	1506.852	1810.8341	2933.8415	2949.5689	3030.7078	3032.3213	3061.9174	3099.8547	3105.7963	3122.5036	3126.4609	3141.8882	3208.5329	3687.0856
CCC1CC1C(O)C=O	CC[C@H]1C[C@H]1[C@@H](O)C=O	
InChI=1S/C7H12O2/c1-2-5-3-6(5)7(9)4-8/h4-7,9H,2-3H2,1H3	InChI=1S/C7H12O2/c1-2-5-3-6(5)7(9)4-8/h4-7,9H,2-3H2,1H3/t5-,6+,7-/m0/s1
