17
gdb 126714	5.56717	0.85463	0.78891	5.1789	79.95	-0.2453	-0.037	0.2083	1444.9292	0.13685	-418.048542	-418.040046	-418.039102	-418.082604	30.226	
C	-0.1930412835	 1.5441094971	 0.1478792433	-0.374847
C	 0.1007901528	 0.0509321938	 0.0080244741	-0.144826
N	 0.7402448783	-0.5013282714	 1.194400602	 0.056303
C	 0.2168392927	-1.3279920444	 2.1176331943	-0.109842
C	 1.1992836633	-1.5421291882	 3.0778814156	 0.078634
C	 1.1110204377	-2.3706032149	 4.2713549953	 0.070824
O	 2.0052240973	-2.5194966082	 5.0760766974	-0.282842
C	 2.2984634728	-0.772384412	 2.6167822667	-0.059766
N	 2.0198598133	-0.1471319747	 1.4847160507	-0.257919
H	 0.7317197112	 2.0930135385	 0.3385809018	 0.15505
H	-0.6422404384	 1.9237534844	-0.7743757755	 0.125319
H	-0.8855957889	 1.7321167167	 0.973518106	 0.128037
H	-0.8170988917	-0.5197615497	-0.1572766381	 0.12366
H	 0.7677143705	-0.1312748602	-0.8394404306	 0.140109
H	-0.791301434	-1.7048253768	 2.0359456965	 0.150017
H	 0.1302133508	-2.8812664111	 4.4069836155	 0.058825
H	 3.269010096	-0.6702257389	 3.0777954849	 0.143263
45.8095	91.9598	158.6243	177.6613	227.2512	276.4928	357.1786	380.9616	508.5066	638.8953	681.5536	694.9706	769.5334	796.3426	817.3025	913.8247	964.4396	997.0404	1030.4901	1038.3741	1095.4004	1121.6395	1175.8254	1219.3984	1260.5336	1339.2031	1386.4155	1397.0432	1409.6075	1428.6085	1452.6402	1480.0063	1488.4521	1501.691	1508.3787	1586.4495	1788.2054	2865.0156	3048.4819	3063.0731	3105.9597	3123.1159	3141.1964	3254.0152	3262.5981
CCN1C=C(C=O)C=N1	CCn1cc(C=O)cn1	
InChI=1S/C6H8N2O/c1-2-8-4-6(5-9)3-7-8/h3-5H,2H2,1H3	InChI=1S/C6H8N2O/c1-2-8-4-6(5-9)3-7-8/h3-5H,2H2,1H3
