21
gdb 106779	2.08529	1.59478	1.16386	1.9931	79.49	-0.24	0.0818	0.3218	1174.8597	0.180216	-424.188117	-424.178213	-424.177269	-424.222815	36.576	
C	 0.0522541751	 1.291709174	-0.2036787549	-0.261962
O	-0.0352303319	-0.028642675	 0.322883243	-0.292493
C	-1.2937402814	-0.5887380325	 0.2096662378	 0.358571
C	-1.8847099236	-1.0985391006	-1.0731942375	-0.399452
C	-1.6539341068	-2.0595618496	 0.0828054925	 0.25327
C	-0.785564165	-3.2779371455	-0.0375665621	-0.495496
C	-2.7844790423	-1.8645485461	 1.1109635691	-0.299822
C	-2.3709973214	-0.3626680408	 1.2785905511	 0.082556
O	-1.810634703	-0.0661247945	 2.5393215863	-0.452557
H	 1.0832578887	 1.6223477771	-0.0614100044	 0.130224
H	-0.1906643266	 1.3051670731	-1.2738567959	 0.119212
H	-0.6224632813	 1.9798519961	 0.321883848	 0.12428
H	-2.8890059914	-0.8195586024	-1.3872802244	 0.103494
H	-1.1690201193	-1.1984546105	-1.8843610527	 0.114585
H	 0.0872033554	-3.0790557053	-0.6676028526	 0.122936
H	-0.4237080154	-3.6036339791	 0.944016917	 0.12035
H	-1.3360561966	-4.1148717786	-0.4834263388	 0.120509
H	-3.8007796971	-2.0658953811	 0.755968391	 0.088514
H	-2.6102251361	-2.3955048039	 2.0494654814	 0.110507
H	-3.1495315132	 0.3785825368	 1.0544395038	 0.06438
H	-0.8558859867	-0.0065426613	 2.4095934021	 0.288393
64.4958	109.2241	141.7323	166.3523	188.6016	238.908	276.132	286.0019	338.3145	416.3902	447.7526	515.1581	516.3006	593.6721	742.0215	754.1338	848.3105	883.2244	919.7244	962.929	972.0985	1027.586	1049.4993	1056.113	1061.848	1119.6502	1159.6386	1178.4208	1182.8871	1206.0648	1222.3637	1242.5754	1262.0961	1312.0608	1349.0029	1394.0267	1413.9687	1422.3311	1468.4687	1476.4245	1485.1281	1488.3806	1497.145	1504.948	1514.8333	3004.7248	3009.4939	3023.5471	3044.5935	3066.0714	3082.8586	3094.3313	3100.6051	3115.0862	3126.4659	3190.2533	3770.7372
COC12CC1(C)CC2O	CO[C@@]12C[C@]1(C)C[C@H]2O	
InChI=1S/C7H12O2/c1-6-3-5(8)7(6,4-6)9-2/h5,8H,3-4H2,1-2H3	InChI=1S/C7H12O2/c1-6-3-5(8)7(6,4-6)9-2/h5,8H,3-4H2,1-2H3/t5-,6+,7-/m1/s1
