16
gdb 48911	3.21984	1.55964	1.31717	2.137	72.98	-0.2179	-0.0468	0.1711	972.2913	0.124886	-400.665725	-400.658774	-400.65783	-400.69741	27.151	
O	-0.0352753327	-0.075588899	 0.07300779	-0.245204
C	 0.00450754	 1.1292677458	 0.0102904965	 0.023514
C	 1.2721160714	 1.922069385	 0.0040032397	 0.223145
C	 2.7251482423	 1.4536506201	 0.0692938217	-0.225006
N	 2.9117661667	 2.9750240377	-0.0065717349	-0.14878
C	 1.7487168077	 2.9939824521	-1.0459406062	-0.079122
C	 1.0143780908	 4.2947294566	-0.7977877443	-0.091717
C	 0.9773666099	 4.3657068622	 0.5336227404	-0.091723
C	 1.6930402931	 3.1008429104	 0.9588136226	-0.079167
H	-0.9274969356	 1.736278995	-0.0482981491	 0.079242
H	 3.0803833854	 1.0159352365	 1.0049604574	 0.110519
H	 3.1303160929	 0.9200822095	-0.7934933052	 0.110537
H	 2.0161228639	 2.6849461833	-2.0567905184	 0.086464
H	 0.6559984923	 4.9844494061	-1.5478092699	 0.120422
H	 0.5800474852	 5.1301322588	 1.185136244	 0.120425
H	 1.9031190265	 2.9017325299	 2.0100287856	 0.086451
73.9274	146.4324	247.211	335.2773	453.6208	496.1455	508.6551	645.1502	724.7714	750.3428	759.2698	769.739	813.3072	906.2206	912.6316	920.4014	946.4958	948.0515	1008.1552	1032.6066	1077.0098	1092.6851	1121.0475	1127.8035	1150.3158	1182.3568	1246.6389	1263.6113	1306.2097	1322.6947	1332.2908	1420.9696	1529.2812	1634.4459	1811.9518	2873.1024	3064.783	3120.1692	3123.7371	3128.0584	3232.3306	3258.5041
O=CC12CN3C1C=CC23	O=C[C@@]12CN3[C@@H]1C=C[C@@H]23	
InChI=1S/C7H7NO/c9-4-7-3-8-5(7)1-2-6(7)8/h1-2,4-6H,3H2	InChI=1S/C7H7NO/c9-4-7-3-8-5(7)1-2-6(7)8/h1-2,4-6H,3H2/t5-,6+,7+
