21
gdb 74530	3.54365	1.32089	1.2453	0.5648	88.32	-0.2082	0.0248	0.233	1130.3013	0.183932	-349.934291	-349.926428	-349.925484	-349.966111	32.21	
C	 0.124060245	 1.5346440855	 0.0523596234	-0.485541
C	 0.0014775596	 0.0437227134	-0.0123415056	 0.327558
C	-0.0831643951	-0.712519692	-1.1212512113	-0.285958
C	-0.0843699179	-2.1600416446	-0.7966056659	 0.244327
C	 1.1253629108	-2.7317566204	-0.0964405075	-0.354991
C	-0.0152482842	-2.2294490539	 0.7388620836	 0.260838
C	-1.179322555	-3.2402187233	 0.7495144487	-0.280824
C	-1.2447580584	-3.1776843315	-0.8160820404	-0.282195
C	-0.0023117875	-0.8037762842	 1.2671971197	-0.405788
H	 1.0742811914	 1.8387324942	 0.5104234882	 0.124212
H	 0.0695057659	 1.9882621597	-0.941018792	 0.122733
H	-0.6704606981	 1.9707521526	 0.6720369961	 0.121643
H	-0.1107147908	-0.3085235851	-2.1288500618	 0.082765
H	 1.3158075866	-3.8019560816	-0.1442952924	 0.102838
H	 2.0175131776	-2.1158664548	-0.1227312205	 0.111912
H	-0.9667227273	-4.2162304623	 1.199451522	 0.093397
H	-2.0804951529	-2.8361505915	 1.2176130945	 0.100923
H	-2.1810281726	-2.7488992108	-1.1788785189	 0.103612
H	-1.0572036729	-4.1106681068	-1.3575733408	 0.093271
H	 0.8632937172	-0.5737153487	 1.903193366	 0.10389
H	-0.8906426515	-0.5852929838	 1.8771953048	 0.101378
128.3881	178.1789	215.2339	281.6127	330.3744	359.6317	411.5878	477.9524	558.5913	564.787	651.2545	754.3658	768.6077	794.6049	808.5812	855.8135	865.6921	926.6471	931.9003	946.0115	966.1926	982.0747	1020.0067	1041.0887	1074.9663	1100.4057	1133.7247	1159.4842	1191.5705	1212.4424	1235.7788	1244.4812	1272.2081	1279.8582	1327.9046	1347.7974	1370.9947	1410.7758	1471.2589	1476.9327	1478.0959	1482.3879	1487.2995	1502.0398	1675.5967	3001.3416	3013.7216	3029.4638	3035.6585	3046.9202	3056.9501	3092.3242	3104.3429	3108.8255	3114.7625	3171.4571	3205.8584
CC1=CC23CC2(CC3)C1	CC1=C[C@@]23C[C@@]2(CC3)C1	
InChI=1S/C9H12/c1-7-4-8-2-3-9(8,5-7)6-8/h4H,2-3,5-6H2,1H3	InChI=1S/C9H12/c1-7-4-8-2-3-9(8,5-7)6-8/h4H,2-3,5-6H2,1H3/t8-,9+/m0/s1
