22
gdb 53561	3.46132	0.74644	0.68362	1.3291	91.82	-0.213	0.0592	0.2723	1764.4092	0.191228	-367.158814	-367.147531	-367.146587	-367.197912	38.926	
C	-7.2021453705	 0.1574134928	 2.416809434	-0.496861
C	-6.2956710951	-0.1503559009	 1.3195087116	 0.096683
C	-5.5498649269	-0.3962228874	 0.40678588	 0.04152
C	-4.6312418987	-0.7222112973	-0.6805788756	-0.390107
C	-3.9536506601	-2.0727618401	-0.4586763133	-0.00236
C	-4.5120826849	-3.3587124898	-0.9801557585	 0.013784
C	-5.7993887033	-3.4532914579	-1.7716874041	-0.415925
N	-3.2624569989	-2.806842754	-1.5176585229	-0.115421
C	-3.195796676	-2.2871509352	-2.8744574508	-0.312092
H	-8.1973474775	 0.4298293887	 2.0479118303	 0.145781
H	-7.3226409353	-0.701122392	 3.0869455215	 0.146501
H	-6.8321505654	 0.9955389761	 3.017884273	 0.146238
H	-5.1675657662	-0.6952248284	-1.6337028118	 0.123889
H	-3.8555853432	 0.0530545529	-0.7513783173	 0.12894
H	-3.428867279	-2.1053741404	 0.4958115922	 0.093187
H	-4.3374507872	-4.2450584605	-0.3692412903	 0.085348
H	-6.0274709484	-2.5567513492	-2.3506554936	 0.118492
H	-5.7603641171	-4.2973870254	-2.4692706895	 0.121674
H	-6.6388768346	-3.6259656568	-1.0903032038	 0.129073
H	-4.0977350819	-1.7794949523	-3.2457579446	 0.097746
H	-2.3631717171	-1.5787527014	-2.9389752981	 0.122601
H	-2.9787032925	-3.1162705914	-3.5558347487	 0.121308
11.0373	32.4428	76.242	124.1674	156.3851	179.9408	210.2688	240.0594	275.8523	298.5926	378.2429	414.4613	483.5762	493.5079	542.7235	713.476	765.37	792.4077	870.1319	939.5019	1002.6656	1048.0177	1051.8243	1053.5331	1070.7707	1134.2591	1152.8827	1169.2697	1170.6006	1177.7929	1198.0185	1225.3662	1320.0866	1350.6481	1390.8901	1412.5191	1415.8287	1435.1977	1461.7761	1471.8656	1479.1255	1479.7281	1488.7002	1497.8769	1506.7669	1507.3444	2373.9268	2990.8283	3013.2402	3025.4007	3038.9341	3062.74	3074.9745	3085.1921	3085.2516	3088.5992	3094.2552	3096.3157	3105.4652	3132.4285
CC#CCC1C(C)N1C	CC#CC[C@H]1[C@@H](C)N1C	
InChI=1S/C8H13N/c1-4-5-6-8-7(2)9(8)3/h7-8H,6H2,1-3H3	InChI=1S/C8H13N/c1-4-5-6-8-7(2)9(8)3/h7-8H,6H2,1-3H3/t7-,8+,9?/m1/s1
