15
gdb 132011	2.3482	1.83637	1.03701	4.91	72.71	-0.212	-0.019	0.193	1065.0737	0.11349	-458.134619	-458.126655	-458.125711	-458.167126	29.603	
C	 0.0014010452	 1.521893673	-0.0677874282	-0.483479
C	 0.0002289786	 0.0261957157	 0.0015120942	 0.056053
C	-1.110788582	-0.7033421767	 0.1708292534	 0.310029
F	-2.3350884972	-0.2026543294	 0.297028155	-0.059892
N	-1.0916048575	-2.0803097081	 0.2322318111	-0.382651
C	 0.1168517277	-2.7172778033	 0.1144917658	 0.090592
N	 1.2383707768	-2.1236792553	-0.0496266535	-0.315368
C	 1.2720825121	-0.7089588271	-0.1196086684	 0.272913
N	 2.3634763244	-0.058332062	-0.2830571334	-0.528956
H	 0.643377143	 1.9331259151	 0.7174496613	 0.148481
H	 0.433246852	 1.8529124869	-1.0173689393	 0.148537
H	-1.0051458956	 1.9315767003	 0.0353029527	 0.118144
H	-1.9541152624	-2.5839994193	 0.3609321931	 0.275786
H	 0.0691675458	-3.8026699787	 0.1709910662	 0.136376
H	 3.1344189391	-0.7254584211	-0.3461046899	 0.213437
102.9547	151.3059	194.2675	265.2578	276.7293	339.367	356.9728	500.3898	523.3084	526.4675	545.7429	636.2666	692.7611	771.784	885.5805	897.4112	928.2787	953.6313	1027.8563	1065.5859	1121.4031	1202.0915	1218.0295	1290.6818	1362.727	1413.6683	1425.5984	1472.1603	1482.99	1516.7994	1667.9495	1677.8947	1758.5886	3045.9783	3100.5567	3137.7652	3158.1185	3468.2464	3653.3976
CC1=C(F)NC=NC1=N	CC1=C(N=CN[C@H]1F)[NH]	
InChI=1S/C5H6FN3/c1-3-4(6)8-2-9-5(3)7/h2H,1H3,(H2,7,8,9)	InChI=1S/C5H7FN3/c1-3-4(6)8-2-9-5(3)7/h2,4,7H,1H3,(H,8,9)/t4-/m1/s1
