18
gdb 26297	3.40305	1.06321	0.98424	3.8223	75.65	-0.2161	0.0224	0.2385	1285.3172	0.146889	-439.115711	-439.106898	-439.105954	-439.149529	32.67	
C	-0.0201585514	 1.5540193933	-0.056421963	-0.388597
C	-0.0232246583	 0.0130302959	-0.0457654585	-0.100345
C	-1.4597310811	-0.544845594	-0.0506601938	-0.388587
C	 0.7676041733	-0.5325473643	-1.183670825	 0.357522
C	 1.8606243734	-1.2836488395	-1.2833425411	-0.185981
O	 2.1588199823	-1.4914644597	-2.6224238943	-0.218574
C	 1.1957914941	-0.8318477878	-3.3453453402	 0.495739
N	 1.073177068	-0.7500644248	-4.5929079012	-0.581622
O	 0.3336220919	-0.2373799311	-2.4715038314	-0.235896
H	 0.998755582	 1.9478513149	-0.0022814274	 0.121521
H	-0.4829929219	 1.934973463	-0.971324502	 0.140963
H	-0.5844191419	 1.9395936567	 0.7978498441	 0.117498
H	 0.481671742	-0.3307558995	 0.8653836772	 0.093076
H	-1.9840771461	-0.2539418297	-0.9654473105	 0.140947
H	-1.4600099568	-1.6369984079	 0.0078461474	 0.121513
H	-2.0205674731	-0.1539041842	 0.8034316825	 0.117501
H	 2.5158275767	-1.7317563288	-0.5581215862	 0.158138
H	 1.817663727	-1.2622650627	-5.0582738166	 0.235185
61.7839	112.8925	163.3582	214.6875	222.1708	256.595	317.9021	408.2037	442.451	515.4335	623.0275	661.0517	730.2118	747.8557	755.6446	775.2652	879.4666	915.1654	931.0995	965.1233	986.0012	1010.9268	1060.9892	1108.6387	1119.1323	1179.3806	1206.9667	1268.3403	1325.283	1329.6706	1380.064	1396.1284	1420.4843	1485.9062	1492.1743	1500.9597	1513.7495	1736.3479	1810.7314	3035.7415	3040.7168	3043.8479	3113.8859	3116.7951	3119.2482	3123.6405	3304.174	3547.6787
CC(C)C1=COC(=N)O1	CC(C)C1=CO[C@H]([NH])O1	
InChI=1S/C6H9NO2/c1-4(2)5-3-8-6(7)9-5/h3-4,7H,1-2H3	InChI=1S/C6H10NO2/c1-4(2)5-3-8-6(7)9-5/h3-4,6-7H,1-2H3/t6-/m0/s1
