20
gdb 46895	3.20653	1.35646	1.04275	3.1372	80.29	-0.251	0.0215	0.2726	1167.4268	0.173811	-403.150156	-403.142307	-403.141363	-403.182571	31.168	
N	-0.0348506998	 1.3160167776	 0.2286839548	-0.476416
C	 0.012187508	 0.0726282655	-0.0162065214	 0.350162
C	-1.2806648293	-0.7202362461	-0.0814269533	-0.23937
C	-1.4469583269	-1.7236892076	-1.2404801701	-0.254501
C	-0.6423960236	-2.9887162189	-1.0089505713	 0.014678
C	 0.2236789357	-3.6048960906	-2.074173833	-0.322252
C	 0.8590287893	-2.8730610382	-0.9112462632	-0.016428
C	 1.4763681694	-1.5178658539	-1.1398391421	-0.108437
O	 1.2228537765	-0.5728967766	-0.0852205684	-0.257454
H	 0.9176793492	 1.6849822747	 0.2854246159	 0.215126
H	-1.3738818498	-1.2694646605	 0.8655350276	 0.11963
H	-2.0784078297	 0.0245669715	-0.096908113	 0.128334
H	-2.5090425156	-1.9773397842	-1.3289912932	 0.106056
H	-1.1752249847	-1.2514498448	-2.1909445629	 0.104527
H	-1.1001333621	-3.6803390943	-0.3065436887	 0.089554
H	 0.3162325412	-4.6844638647	-2.1105775169	 0.117141
H	 0.2514636434	-3.1261286892	-3.0485792152	 0.114315
H	 1.3532730694	-3.4762144694	-0.1559540733	 0.091784
H	 2.5667405695	-1.5919629267	-1.1755671684	 0.118541
H	 1.1486387899	-1.0917711436	-2.095419764	 0.10501
71.0007	162.5332	252.7396	270.5791	331.4227	346.2644	407.4572	473.8315	503.2617	602.571	701.5435	732.8622	784.2792	821.7149	860.3224	910.9082	928.0595	941.0409	967.992	991.3691	1027.7774	1041.7899	1059.0593	1073.4792	1123.1747	1131.5486	1136.1316	1188.1135	1224.2253	1242.6058	1251.0398	1298.4652	1323.8255	1346.1565	1370.6243	1385.78	1417.3569	1435.9585	1471.7793	1487.5231	1494.1995	1510.2598	1728.4791	3022.0343	3030.1374	3041.4741	3072.9436	3091.0237	3115.8334	3128.1308	3138.7798	3157.2092	3214.0586	3451.2755
N=C1CCC2CC2CO1	[NH][C]1CC[C@H]2C[C@H]2CO1	
InChI=1S/C7H11NO/c8-7-2-1-5-3-6(5)4-9-7/h5-6,8H,1-4H2	InChI=1S/C7H11NO/c8-7-2-1-5-3-6(5)4-9-7/h5-6,8H,1-4H2/t5-,6-/m0/s1
