21
gdb 96555	2.2012	1.55788	1.17013	2.7839	74.18	-0.2481	0.0536	0.3017	1147.2338	0.183223	-461.355718	-461.346651	-461.345707	-461.389328	34.465	
C	-0.1112891292	 1.5222384626	 0.2007613353	-0.419236
C	-0.0306556211	-0.0071209009	 0.0661785154	-0.020763
C	 0.4268560117	-0.3678778675	-1.360160841	-0.065227
O	 0.2341103773	-1.7190076999	-1.7366458271	-0.237504
C	 0.9035297078	-2.6630456998	-0.9474413969	 0.006073
O	 0.2630800411	-2.880718365	 0.2843939455	-0.238833
C	 0.7128124947	-2.1129054684	 1.3869544791	-0.086382
C	 0.8923391101	-0.6025168554	 1.15704701	 0.080076
O	 2.277924713	-0.3880331675	 0.8726517793	-0.434394
H	 0.8598562322	 1.9985719994	 0.013226751	 0.105554
H	-0.8172229427	 1.94652388	-0.5193611563	 0.124969
H	-0.4379245485	 1.8159029537	 1.203192068	 0.119702
H	-1.0324744152	-0.4276139592	 0.2147145291	 0.096211
H	-0.1565517251	 0.2139854078	-2.0800448548	 0.101725
H	 1.4843454014	-0.087551822	-1.4763046737	 0.090912
H	 0.8408514994	-3.6035872149	-1.5008609698	 0.109053
H	 1.9549716115	-2.374814676	-0.7937872044	 0.099387
H	-0.0453976224	-2.2693028517	 2.1600317578	 0.109412
H	 1.66997062	-2.4974740537	 1.7677199459	 0.108263
H	 0.6470981885	-0.1130941598	 2.113564645	 0.066395
H	 2.4375229555	 0.560576898	 0.8327735529	 0.284607
77.3143	118.8749	197.7502	219.1149	256.6362	304.9404	318.2055	355.3826	368.6158	405.439	447.5808	564.332	596.9033	686.0784	796.0544	875.4393	938.4065	943.676	947.9478	976.5117	1016.6841	1042.8172	1067.261	1116.7968	1138.906	1150.7149	1156.0595	1215.7583	1251.9868	1277.5769	1302.6072	1312.0016	1340.7788	1362.7063	1365.1883	1403.2046	1408.7228	1426.8562	1437.1306	1449.0882	1486.7599	1492.7656	1497.0509	1503.6969	1509.4512	2961.945	2989.1787	2999.8087	3008.2411	3019.8698	3045.8685	3079.0982	3083.8989	3087.848	3098.1168	3108.9828	3815.1702
CC1COCOCC1O	C[C@H]1COCOC[C@H]1O	
InChI=1S/C6H12O3/c1-5-2-8-4-9-3-6(5)7/h5-7H,2-4H2,1H3	InChI=1S/C6H12O3/c1-5-2-8-4-9-3-6(5)7/h5-7H,2-4H2,1H3/t5-,6+/m0/s1
