17
gdb 16075	3.31597	1.78895	1.47235	1.7691	64.05	-0.2256	0.0657	0.2913	907.211	0.141893	-400.924282	-400.916419	-400.915475	-400.956478	29.351	
C	 0.0342269184	 1.3743358093	-0.2623647893	-0.257092
O	 0.0011545721	 0.0488100272	 0.2514536299	-0.274176
C	-1.2284304748	-0.555148932	 0.1344996081	 0.348735
C	-2.3431733109	-0.4847364587	 1.1880159076	-0.25
N	-2.765469336	-1.8896396605	 0.8394635702	-0.355585
C	-1.5731217887	-2.0337099865	-0.0327235012	-0.176362
C	-1.7932615246	-1.0793281528	-1.1722788403	 0.077521
O	-3.0706799175	-0.7997678899	-1.6458338121	-0.439109
H	 1.0648899965	 1.7237874581	-0.1712927855	 0.127894
H	-0.2687801963	 1.4015877582	-1.3170849753	 0.121706
H	-0.6217867838	 2.0465210506	 0.307704757	 0.114242
H	-1.9284849747	-0.4092915715	 2.1972002879	 0.114435
H	-3.1332453259	 0.260550383	 1.0509107295	 0.111205
H	-2.7123733524	-2.497630021	 1.648697676	 0.231516
H	-0.9804845347	-2.9400136207	-0.0686917053	 0.102197
H	-1.0505278417	-1.138701989	-1.9636801972	 0.107287
H	-3.6702046549	-1.2492052437	-1.02914351	 0.295587
83.4451	162.5383	173.3657	218.5708	271.6702	361.706	384.7	483.0445	517.8547	622.1971	665.6993	770.0051	823.0467	844.0348	922.0526	956.6623	984.0829	998.3996	1036.5545	1063.2448	1103.8799	1131.1719	1145.9481	1178.7662	1206.5397	1223.5806	1260.2882	1275.5725	1305.9013	1355.6478	1405.0373	1459.6178	1487.7116	1493.4215	1504.0093	1508.334	2999.735	3043.3123	3057.9102	3099.9653	3124.607	3155.2212	3185.0612	3539.5876	3689.9992
COC12CNC1C2O	CO[C@]12CN[C@H]1[C@H]2O	
InChI=1S/C5H9NO2/c1-8-5-2-6-3(5)4(5)7/h3-4,6-7H,2H2,1H3	InChI=1S/C5H9NO2/c1-8-5-2-6-3(5)4(5)7/h3-4,6-7H,2H2,1H3/t3-,4+,5+/m0/s1
