20
gdb 69665	3.54429	1.3876	1.16955	1.6165	86.55	-0.2185	0.0163	0.2347	1120.8262	0.172302	-365.957168	-365.949421	-365.948476	-365.988966	31.373	
C	 0.1510000654	 1.5966325555	 0.343388808	-0.506337
C	 0.1146330056	 0.1359724703	 0.0160755484	 0.304592
N	-0.9346331575	-0.7577376555	 0.5431472864	-0.3597
C	 0.5171463701	-1.0720339469	 0.8220473552	-0.261945
C	 0.9307265302	-1.7790588543	-0.4383231797	 0.353671
C	 0.9371027715	-2.8909714112	-1.1628349544	-0.226614
C	 0.6983680703	-2.5095536878	-2.6273531219	-0.236953
C	 0.0485354855	-1.0837985502	-2.5335354098	-0.260151
C	 0.71067033	-0.5318037429	-1.2638801319	-0.065773
H	 1.1229857245	 2.0325067408	 0.0890563293	 0.124758
H	-0.6167304962	 2.144811986	-0.2157678743	 0.129389
H	-0.0266433571	 1.7692280395	 1.4109702676	 0.115491
H	-1.2951222723	-0.312945895	 1.3902246648	 0.221069
H	 0.8665513092	-1.1563926042	 1.8434987354	 0.095883
H	 1.0092308126	-3.9166009195	-0.8209607912	 0.092866
H	 1.6332088686	-2.4824680753	-3.2067210606	 0.100307
H	 0.0442251641	-3.229202288	-3.1317313268	 0.102881
H	 0.206474228	-0.4845060174	-3.4349168726	 0.085478
H	-1.0279682518	-1.1945054807	-2.3695278196	 0.117652
H	 1.6654036994	-0.030377533	-1.4802217423	 0.073437
140.7783	190.8274	206.6072	241.4104	288.8669	344.3248	482.9698	524.4653	565.5081	637.7344	677.2778	707.5738	804.352	823.3164	861.3018	876.6104	878.7559	901.5025	949.3013	958.3818	974.824	1002.1628	1060.5795	1074.3973	1086.2399	1114.2335	1131.8675	1164.5373	1173.7019	1212.7112	1265.7783	1266.7837	1293.1933	1310.1234	1326.2367	1345.0521	1407.0456	1435.1422	1476.7911	1482.4214	1489.9896	1497.2694	1738.032	2997.4142	2998.9066	3021.6053	3049.8544	3063.9838	3083.163	3094.5446	3103.446	3192.2417	3200.1213	3435.7153
CC12NC1C1=CCCC21	C[C@]12N[C@H]1[C]1[CH]CC[C@@H]21	
InChI=1S/C8H11N/c1-8-6-4-2-3-5(6)7(8)9-8/h3,6-7,9H,2,4H2,1H3	InChI=1S/C8H11N/c1-8-6-4-2-3-5(6)7(8)9-8/h3,6-7,9H,2,4H2,1H3/t6-,7+,8-/m1/s1
