25
gdb 100046	2.17449	1.26492	1.12747	1.2017	89.38	-0.2442	0.0769	0.3211	1314.7576	0.226095	-389.476087	-389.464999	-389.464055	-389.511849	41.587	
C	-1.6421964537	-0.5905234724	 2.1136451159	-0.245093
O	-0.9819301137	-1.402552697	 1.1696006559	-0.272537
C	 0.1695455016	-0.8652057352	 0.5027104526	 0.334392
C	-0.1844602602	 0.4050370079	-0.2904679229	-0.421566
C	 1.2893548373	-0.5734079528	 1.5187632624	-0.41712
C	 0.6592719448	-1.9495132585	-0.4589041326	 0.003562
C	 0.4456850596	-3.4206479091	-0.2043575944	-0.309719
C	-0.1927567341	-2.7665686588	-1.408851481	-0.00734
C	-1.6965358881	-2.6541107507	-1.5491878541	-0.415309
H	-1.0025158743	-0.3239614491	 2.9661266184	 0.107577
H	-2.0395709657	 0.3351597498	 1.6753690263	 0.106974
H	-2.483133611	-1.1793175278	 2.4896552484	 0.125692
H	-0.4180431845	 1.2492399538	 0.3655665945	 0.108414
H	 0.6635185357	 0.7019759865	-0.9151082556	 0.113934
H	-1.0409116027	 0.2220125807	-0.9443852267	 0.126412
H	 1.5159686784	-1.4721591061	 2.0989708482	 0.123799
H	 2.2000378624	-0.2589424754	 1.0002351068	 0.11304
H	 1.0143363094	 0.2295785058	 2.2087425145	 0.108836
H	 1.6333845815	-1.6841757605	-0.8630776041	 0.073068
H	 1.2740882046	-4.106869871	-0.3457404125	 0.097841
H	-0.2169205808	-3.6684694206	 0.6169022101	 0.122719
H	 0.3066967145	-2.9753887558	-2.3531467593	 0.074553
H	-2.1708593463	-2.4485784725	-0.589607877	 0.13744
H	-1.9723621722	-1.8508437615	-2.2429460432	 0.104931
H	-2.1108490627	-3.5864986495	-1.9502877406	 0.1055
58.1716	72.8867	161.9036	183.6611	191.3015	224.621	253.6677	262.9076	283.2557	332.1384	351.4334	362.4025	411.3824	436.145	516.2617	599.6272	690.5843	773.4795	822.4748	856.2112	905.9525	916.5268	948.2695	948.9901	1009.702	1043.7704	1074.8208	1078.9995	1118.4233	1135.4834	1156.1397	1182.3577	1187.681	1193.3935	1208.6405	1224.5447	1238.7102	1285.2038	1389.8613	1390.6717	1407.64	1414.5853	1423.1921	1475.8989	1478.2469	1482.1816	1487.7559	1499.1219	1500.8006	1504.5164	1507.5313	1514.6497	1517.1734	2997.6502	3025.8716	3037.6965	3044.6763	3050.0788	3074.6898	3105.064	3105.9021	3110.4534	3112.8353	3120.8122	3123.0376	3129.3284	3135.107	3151.931	3223.3597
COC(C)(C)C1CC1C	COC(C)(C)[C@H]1C[C@H]1C	
InChI=1S/C8H16O/c1-6-5-7(6)8(2,3)9-4/h6-7H,5H2,1-4H3	InChI=1S/C8H16O/c1-6-5-7(6)8(2,3)9-4/h6-7H,5H2,1-4H3/t6-,7+/m1/s1
