21
gdb 107871	3.154	1.24845	1.06066	1.3847	83.61	-0.2618	0.0732	0.335	1222.1624	0.18213	-387.012312	-387.003693	-387.002749	-387.045461	33.482	
C	-0.1615392535	 1.5705920536	-0.0356960376	-0.42403
C	-0.029275715	 0.0548799111	-0.0130262645	 0.000026
C	 1.1957705134	-0.6170309577	-0.6746473695	-0.077173
C	 2.1345665696	-0.3104194904	 0.5444319396	-0.054352
C	 2.5984125827	-1.7746124036	 0.6543829395	-0.314402
C	 1.1085028159	-1.8728793446	 0.2716153309	 0.39071
C	 0.2856676942	-3.1072251871	 0.0500862449	-0.231031
O	 0.850248149	-3.818566313	-1.0452462624	-0.421044
C	 0.7220864201	-0.6299648819	 1.1528775143	-0.106306
H	 0.7821010913	 2.0652268771	 0.2160356403	 0.113659
H	-0.467946189	 1.9232018403	-1.0269909956	 0.113448
H	-0.9172756647	 1.9107851553	 0.6814151547	 0.111734
H	-0.9883269875	-0.4152096719	-0.2656689574	 0.058111
H	 1.4922421243	-0.6363816134	-1.7248789089	 0.070301
H	 2.714153163	 0.5991926385	 0.7018373075	 0.068937
H	 3.3179758343	-2.1245209089	-0.0916776643	 0.099207
H	 2.8731639729	-2.1312645772	 1.6535477867	 0.08302
H	 0.2909349022	-3.7194381351	 0.9671823094	 0.084981
H	-0.7620301771	-2.8289400944	-0.1503591698	 0.086479
H	 0.3539741804	-4.6344090497	-1.1591350561	 0.287136
H	 0.4738697036	-0.655349587	 2.2170773384	 0.060588
75.2079	153.3654	195.8961	216.3017	248.1163	268.0196	314.5233	366.4115	458.1315	561.9624	649.937	728.7121	753.3542	840.5856	849.1925	855.5635	881.4277	921.3605	943.9615	996.1032	1027.6961	1029.3829	1048.9039	1074.9966	1082.1117	1086.8518	1107.9169	1142.7228	1156.9553	1157.6279	1185.0396	1206.3253	1230.4831	1239.616	1254.0186	1279.1845	1309.3739	1337.8558	1397.1793	1413.1046	1462.5889	1495.5023	1498.9215	1510.8866	1513.2693	2956.4961	2982.937	3020.0949	3027.527	3033.1598	3078.0113	3087.0869	3095.1462	3096.2991	3101.0955	3113.9171	3827.5041
CC1C2C3CC2(CO)C13	C[C@H]1[C@H]2[C@@H]3C[C@@]2(CO)[C@H]13	
InChI=1S/C8H12O/c1-4-6-5-2-8(6,3-9)7(4)5/h4-7,9H,2-3H2,1H3	InChI=1S/C8H12O/c1-4-6-5-2-8(6,3-9)7(4)5/h4-7,9H,2-3H2,1H3/t4-,5-,6-,7+,8-
