18
gdb 45442	2.50585	1.72094	1.70762	5.1981	70.01	-0.2309	0.0178	0.2487	926.9013	0.151884	-439.129362	-439.122341	-439.121396	-439.160763	28.019	
O	-0.0176547105	-0.0105330888	 0.0578018508	-0.345031
C	 0.0184680555	 1.1852670459	 0.0136606961	 0.469406
O	-1.1228225694	 1.9295114595	 0.0100813454	-0.242235
C	-0.8758357404	 3.3586457086	 0.0145751608	 0.095269
C	-0.1076777665	 3.7122218937	 1.2939793675	-0.21857
C	 1.2318740479	 2.9263256941	 1.2853018585	-0.228871
C	 1.2600753952	 2.0702210365	-0.0040311206	-0.143321
N	 1.1792698338	 2.899664524	-1.218695711	-0.301649
C	-0.0637177854	 3.6983663396	-1.2360743939	-0.171904
H	-1.8629787792	 3.8220653278	-0.0137035225	 0.094555
H	 0.0539114024	 4.7938652214	 1.3336863548	 0.107463
H	-0.7197740154	 3.4436359025	 2.1588313792	 0.12081
H	 2.0946539007	 3.6004853241	 1.2758050639	 0.099698
H	 1.3301585048	 2.2922745526	 2.1719839409	 0.121379
H	 2.141746816	 1.4314935105	-0.0578748261	 0.098488
H	 1.9955381128	 3.4977904338	-1.2699044862	 0.223633
H	-0.6543918619	 3.4588706363	-2.1291456032	 0.118993
H	 0.1406113396	 4.775873958	-1.2546600147	 0.101884
106.7904	169.7988	262.7734	359.9649	376.2652	443.8957	527.9452	548.1323	629.9065	702.7225	782.5383	802.052	823.9444	845.3367	884.166	920.223	961.1857	988.6655	1004.6565	1038.3679	1075.1084	1083.5825	1109.7474	1168.9122	1221.0983	1238.7956	1246.2855	1264.2348	1291.3358	1339.7665	1345.1058	1373.9404	1388.0093	1398.8537	1462.5085	1479.0704	1499.1922	1512.0488	1876.4645	3016.676	3041.6685	3051.9006	3058.9241	3080.9408	3105.7717	3107.5413	3116.4367	3535.9041
O=C1OC2CCC1NC2	O=C1O[C@H]2CC[C@@H]1NC2	
InChI=1S/C6H9NO2/c8-6-5-2-1-4(9-6)3-7-5/h4-5,7H,1-3H2	InChI=1S/C6H9NO2/c8-6-5-2-1-4(9-6)3-7-5/h4-5,7H,1-3H2/t4-,5-/m0/s1
