13
gdb 132069	2.43838	1.86605	1.05815	1.7065	66.35	-0.2066	-0.0332	0.1734	1007.9683	0.091142	-494.104094	-494.096883	-494.095939	-494.135652	27.656	
N	 0.0017522279	 1.4075637909	 0.1495167954	-0.590988
C	-0.0204346605	 0.0328341709	 0.0543310405	 0.041398
C	-1.146472702	-0.7437951603	 0.0234791487	 0.259125
F	-2.3354780689	-0.1341310093	 0.0195233418	-0.07597
N	-1.188287019	-2.0891539668	-0.0073563489	-0.31142
C	-0.0453800898	-2.6992865172	-0.0177737269	 0.082268
N	 1.1437734489	-2.0376445147	-0.0072584399	-0.348893
C	 1.264778245	-0.6427287483	 0.0164081179	 0.403165
O	 2.3513474884	-0.0840492695	-0.003279317	-0.404736
H	 0.8929537181	 1.8028846514	-0.1181642844	 0.26942
H	-0.8069161623	 1.8908462818	-0.2089963391	 0.260322
H	-0.0002636096	-3.7826280497	-0.0367476306	 0.144407
H	 2.0172644538	-2.5468188392	-0.0320820174	 0.271903
136.9284	216.1338	264.0746	302.9532	357.5005	385.1507	503.8861	537.585	541.5184	575.8659	599.0273	646.9268	725.5537	731.4383	775.3061	888.5542	893.6937	987.374	1133.7807	1202.974	1262.3297	1315.0885	1391.0346	1448.1518	1468.9763	1595.4433	1628.3242	1674.4721	1775.6959	3196.461	3560.5097	3601.4981	3682.5816
NC1=C(F)N=CNC1=O	Nc1c(F)nc[nH]c1=O	
InChI=1S/C4H4FN3O/c5-3-2(6)4(9)8-1-7-3/h1H,6H2,(H,7,8,9)	InChI=1S/C4H4FN3O/c5-3-2(6)4(9)8-1-7-3/h1H,6H2,(H,7,8,9)
