14
gdb 27039	2.37832	1.4913	0.92184	7.1364	70.52	-0.2383	-0.0608	0.1775	1177.1479	0.100412	-473.897794	-473.889686	-473.888741	-473.930756	29.021	
C	 0.0744117431	 1.5450900898	 0.039759896	-0.504102
C	-0.0207896154	 0.0602380038	 0.027931598	 0.245978
C	-1.0846923115	-0.7815942373	-0.0613035893	 0.174298
O	-0.6409946117	-2.093541516	-0.0266904479	-0.227838
C	 0.7250800044	-2.0952260133	 0.0872616338	 0.484502
O	 1.4231288787	-3.0645144575	 0.1438195398	-0.381251
N	 1.0896495271	-0.751193633	 0.1199232268	-0.410433
C	-2.4997323002	-0.4998594211	-0.1817606784	 0.070208
O	-3.3751281827	-1.3326205018	-0.258848156	-0.277766
H	 0.687297743	 1.9030615528	-0.795186773	 0.155187
H	-0.9117748799	 2.0022090685	-0.0414121556	 0.161386
H	 0.5400191263	 1.8978346357	 0.9669686846	 0.155265
H	 2.0496569798	-0.4604100577	 0.199505029	 0.282494
H	-2.724952091	 0.5887937371	-0.1985551278	 0.072073
119.5086	148.3598	171.1734	177.2486	233.2034	277.7702	380.5101	471.682	494.7641	574.9268	620.244	646.1547	701.8743	767.2978	865.5515	981.9797	999.5922	1003.6087	1053.3834	1060.6861	1211.4125	1293.2483	1341.2104	1411.421	1430.7605	1452.8723	1475.6116	1491.3494	1685.4371	1782.5499	1910.4509	2887.9858	3036.7696	3088.5647	3152.5117	3674.0635
CC1=C(OC(=O)N1)C=O	Cc1c(oc(=O)[nH]1)C=O	
InChI=1S/C5H5NO3/c1-3-4(2-7)9-5(8)6-3/h2H,1H3,(H,6,8)	InChI=1S/C5H5NO3/c1-3-4(2-7)9-5(8)6-3/h2H,1H3,(H,6,8)
