17
gdb 116827	14.43694	0.37689	0.36982	5.0526	104.62	-0.2553	-0.0789	0.1764	2837.7537	0.13308	-384.658589	-384.648144	-384.647199	-384.69681	34.501	
C	-0.0277745171	 1.5797067569	 0.0273976911	-0.382876
C	-0.0060440647	 0.0503511482	 0.0180092153	-0.161678
C	 0.7039937001	-0.512130393	-1.2328588314	-0.376864
C	 0.7432056735	-1.9634378612	-1.2749804598	 0.224355
C	 0.7665537742	-3.1754661255	-1.2939509468	-0.093517
C	 0.7940382116	-4.5289615891	-1.3176377974	-0.168086
C	 0.8199488424	-5.7438729955	-1.3414477169	 0.233591
C	 0.8299725027	-7.1801673168	-1.3335545992	-0.037315
O	 1.329424349	-7.8686838739	-2.195680716	-0.224331
H	 0.9869109437	 1.9926224652	 0.0197013414	 0.120595
H	-0.5546376717	 1.9760513804	-0.8475147334	 0.120592
H	-0.5340740236	 1.9575297126	 0.9201734996	 0.121774
H	 0.5019109694	-0.3272412859	 0.9119258805	 0.117266
H	-1.0274545214	-0.34371446	 0.0512469909	 0.117262
H	 0.2040684145	-0.1421697123	-2.1387125781	 0.143879
H	 1.7315688787	-0.1257426586	-1.2790534679	 0.143853
H	 0.3303904588	-7.6293269913	-0.4511213818	 0.101502
14.3764	49.4099	60.5288	114.0059	115.4676	233.8684	234.5722	239.8004	309.7403	395.5291	404.4352	541.6341	560.6893	606.4834	740.5277	741.2909	868.2938	883.8939	973.0425	1017.3626	1044.2488	1105.6382	1118.4441	1257.1764	1270.8307	1318.8963	1323.3507	1382.3567	1413.8736	1419.4841	1459.5574	1491.1853	1498.0818	1507.483	1752.1664	2250.6639	2352.962	2918.4136	3010.9975	3032.8934	3039.8077	3046.7439	3079.0299	3104.8975	3111.1813
CCCC#CC#CC=O	CCCC#CC#CC=O	
InChI=1S/C8H8O/c1-2-3-4-5-6-7-8-9/h8H,2-3H2,1H3	InChI=1S/C8H8O/c1-2-3-4-5-6-7-8-9/h8H,2-3H2,1H3
