17
gdb 79363	2.50136	2.00266	1.84037	2.022	65.06	-0.2396	0.0775	0.3171	851.3695	0.139047	-458.951391	-458.944836	-458.943892	-458.982107	27.053	
O	 0.0207045521	 1.4248072613	 0.0112024206	-0.448841
C	-0.0452428715	 0.0198183008	-0.0031571475	 0.132576
C	-1.4233220277	-0.6107265067	-0.1709540732	-0.160577
C	-1.8873319688	-0.7153089621	-1.620338461	-0.116768
C	-1.1129818661	 0.0170415738	-2.7026118011	-0.10142
O	 0.2797057216	 0.1648229916	-2.372921022	-0.292351
C	 0.6631644829	-0.5952690123	-1.2342430688	 0.125211
O	 0.209716823	-1.9245133836	-1.3153443202	-0.24722
C	-1.1698989778	-1.8593393205	-0.9684840792	 0.089027
H	 0.0732379989	 1.6977179899	-0.9145435243	 0.28852
H	 0.4125553225	-0.338021316	 0.9251607689	 0.093929
H	-2.1460625272	-0.568652767	 0.6336462919	 0.096922
H	-2.9539563992	-0.8073730327	-1.7975586964	 0.09913
H	-1.1827380274	-0.5375072301	-3.6475174649	 0.11838
H	-1.5230047571	 1.0198786156	-2.8724912296	 0.112212
H	 1.7525198893	-0.5863558631	-1.211525389	 0.102699
H	-1.6038600676	-2.832935459	-0.7839839143	 0.108572
136.4793	240.1203	294.5488	435.8557	467.9933	478.7387	537.8824	608.5843	659.2966	689.9383	778.8358	801.6011	825.4064	900.2067	913.4906	937.734	992.6291	1013.5682	1032.1955	1049.5929	1085.8549	1101.0147	1111.4462	1126.2588	1138.0554	1154.3832	1247.8308	1260.6822	1266.4527	1326.8029	1328.4911	1347.0074	1365.7939	1401.4525	1433.9202	1447.2572	1522.1605	3013.4975	3047.4975	3058.2577	3130.4019	3163.8454	3194.501	3208.8296	3758.1375
OC1C2C3COC1OC23	O[C@H]1[C@H]2[C@H]3CO[C@@H]1O[C@@H]23	
InChI=1S/C6H8O3/c7-4-3-2-1-8-6(4)9-5(2)3/h2-7H,1H2	InChI=1S/C6H8O3/c7-4-3-2-1-8-6(4)9-5(2)3/h2-7H,1H2/t2-,3-,4+,5-,6-/m1/s1
