23
gdb 59660	2.28873	1.31007	1.04341	2.5829	81.62	-0.2545	0.0669	0.3213	1280.7777	0.203656	-425.42359	-425.413231	-425.412287	-425.458316	39.656	
C	-0.0240625933	 1.6319903047	 0.0548776753	-0.392938
C	 0.0057415724	 0.1082895896	 0.1232353773	 0.133455
O	 0.5753447053	-0.280889849	 1.3774977125	-0.461201
C	-1.3667353002	-0.5239527936	-0.0312548933	-0.002856
C	-2.1593494899	-0.5363314641	-1.3650964392	-0.266135
C	-2.6816643125	-1.9512399938	-0.9843197705	-0.276354
C	-1.4838142473	-2.0726977204	 0.0062856225	 0.364896
C	-0.3002971265	-2.8371357103	-0.5813572164	-0.45049
O	-1.749672822	-2.5097490316	 1.3336723752	-0.479913
H	 0.9767289793	 2.0346798085	 0.2350743224	 0.121452
H	-0.361741977	 1.9738094097	-0.9292977174	 0.108425
H	-0.6965472299	 2.0376190228	 0.8178070772	 0.114801
H	 0.6606387688	-0.2610929808	-0.6832543545	 0.059056
H	 0.0270381849	-0.9800413941	 1.7520607117	 0.290551
H	-2.0179047639	-0.1430490825	 0.7656734486	 0.08705
H	-2.8990930596	 0.2518116103	-1.5135247863	 0.104738
H	-1.4991140913	-0.5629378711	-2.2372632683	 0.103725
H	-3.6240143497	-1.8985153122	-0.4336247703	 0.109013
H	-2.765016436	-2.7007495831	-1.775932907	 0.090822
H	-0.0689941193	-2.5078058543	-1.5984258467	 0.124754
H	 0.5932609558	-2.705673498	 0.0350983064	 0.136005
H	-0.5364776638	-3.9076442339	-0.6341900013	 0.104103
H	-1.7028837244	-3.4720714429	 1.3591899421	 0.277041
66.0021	111.8377	156.815	226.1874	241.0637	253.029	286.1021	296.7285	331.3925	340.753	366.0775	416.2785	465.1897	479.7275	542.7814	630.7831	735.1677	808.0743	888.1176	900.7654	907.0468	944.8621	964.1848	986.4753	999.0891	1080.3648	1087.4367	1095.5364	1142.7712	1162.0515	1192.9597	1197.8481	1213.4946	1243.5535	1268.424	1294.7085	1305.3607	1362.5553	1371.7658	1378.4647	1406.0518	1413.3118	1438.1457	1480.0087	1486.8733	1495.8616	1497.4245	1501.5245	1502.722	2960.1071	3024.6483	3033.0519	3035.5475	3057.0621	3061.2887	3094.5548	3106.8752	3110.8549	3114.514	3122.3983	3126.0762	3787.6133	3796.1487
CC(O)C1CCC1(C)O	C[C@@H](O)[C@H]1CC[C@]1(C)O	
InChI=1S/C7H14O2/c1-5(8)6-3-4-7(6,2)9/h5-6,8-9H,3-4H2,1-2H3	InChI=1S/C7H14O2/c1-5(8)6-3-4-7(6,2)9/h5-6,8-9H,3-4H2,1-2H3/t5-,6-,7+/m1/s1
