20
gdb 96516	2.34546	1.63865	1.06061	3.6025	77.45	-0.2563	0.0209	0.2772	1165.3858	0.172098	-440.29535	-440.286837	-440.285892	-440.328383	32.822	
C	-0.1853247893	 1.4889735393	 0.0191806757	-0.390773
C	 0.0130573069	-0.0191702292	 0.0414388905	 0.030898
O	 0.6936661247	-0.38446696	-1.1578820455	-0.252441
C	 0.3684060492	-1.6565044855	-1.6794465893	-0.073885
C	 0.9226112738	-2.8116761144	-0.8478215529	-0.210266
C	 0.4298233246	-2.8085137059	 0.5969006727	-0.084259
O	 1.0543036007	-1.8141804074	 1.4148657517	-0.25209
C	 0.8019315001	-0.4818129127	 1.2648364962	 0.401912
N	 1.2379674107	 0.3522069063	 2.1117588561	-0.504113
H	 0.78167853	 1.9931483305	-0.0197411129	 0.143612
H	-0.7691523378	 1.7598075223	-0.8643327167	 0.108714
H	-0.7048620594	 1.82380529	 0.9182991461	 0.130606
H	-0.9742170139	-0.5110483222	 0.0580897566	 0.078809
H	-0.7270709969	-1.7585300714	-1.7709259581	 0.087464
H	 0.7877759747	-1.6819724818	-2.6900048409	 0.1125
H	 0.6229922423	-3.7584487113	-1.3153549484	 0.102879
H	 2.0176996702	-2.7783760162	-0.8434694377	 0.123202
H	-0.6632936822	-2.7091541664	 0.6417665662	 0.107326
H	 0.6922041244	-3.7498835398	 1.0858500325	 0.121548
H	 1.7394612572	-0.137386944	 2.856275248	 0.218359
75.2258	141.3135	222.7384	266.3916	283.7315	307.1949	355.6336	362.4507	408.2443	501.531	552.4825	575.4654	675.3116	791.2853	832.5089	859.7501	911.0034	922.2948	964.7862	982.7871	1030.1003	1064.1714	1106.0242	1120.2008	1140.8863	1161.3745	1184.7704	1243.7923	1286.4919	1287.9095	1319.5674	1370.1466	1377.5049	1393.5832	1409.9242	1415.158	1428.1253	1462.0829	1478.5315	1487.3637	1494.7212	1508.3292	1740.5749	2954.7071	2960.7811	3017.9834	3031.2495	3060.5727	3078.0243	3085.9853	3098.8782	3139.1635	3152.8025	3458.8836
CC1OCCCOC1=N	C[C@H]1OCCCO[C]1[NH]	
InChI=1S/C6H11NO2/c1-5-6(7)9-4-2-3-8-5/h5,7H,2-4H2,1H3	InChI=1S/C6H11NO2/c1-5-6(7)9-4-2-3-8-5/h5,7H,2-4H2,1H3/t5-/m1/s1
