19
gdb 100422	3.03746	0.86941	0.68456	4.0322	75.55	-0.2312	0.0146	0.2458	1598.9532	0.156611	-456.387995	-456.377201	-456.376257	-456.425854	36.973	
C	 0.2290173324	 1.7070099981	 0.4481666024	-0.231806
O	 0.0486158905	 0.3121438417	 0.2149730905	-0.23678
C	 0.82473429	-0.5297337269	 0.9279045718	 0.423328
C	 0.5290200675	-1.9654460154	 0.5822598534	-0.491705
N	 1.6726391405	-0.0914436215	 1.7642146019	-0.32488
C	 2.4873556158	-1.0325294201	 2.5103828405	-0.2561
C	 3.4629428152	-0.354074034	 3.4804175316	 0.380952
N	 3.4016532655	 0.9991938572	 3.4812891905	-0.509694
O	 4.2130353544	-1.0143562458	 4.1743873686	-0.373617
H	 1.2530742133	 2.0122563828	 0.2135451924	 0.131585
H	-0.4779747204	 2.2105128072	-0.2124108183	 0.13131
H	 0.0196772166	 1.957999556	 1.4922449657	 0.13158
H	-0.251013481	-2.0245355086	-0.1762426612	 0.1455
H	 1.4315181282	-2.4608081038	 0.2100354091	 0.15025
H	 0.2062133606	-2.5125594551	 1.4738699287	 0.150306
H	 1.8825837239	-1.7204036392	 3.1180092506	 0.130763
H	 3.1010160426	-1.666824243	 1.8552498549	 0.130772
H	 2.746684625	 1.4552711142	 2.8676559179	 0.262942
H	 4.0105116794	 1.5193300162	 4.089067989	 0.255294
24.7984	42.1143	76.0015	117.1209	164.2412	195.8896	262.4812	269.6528	272.8016	293.084	448.6989	479.1622	541.748	547.189	587.1068	641.262	702.6868	845.1323	885.7039	984.2321	986.6913	1055.6042	1079.9735	1098.0074	1113.0651	1180.5615	1222.9017	1240.4309	1301.0689	1348.366	1367.9847	1402.4869	1448.8572	1466.5099	1478.9088	1481.6177	1487.7716	1502.3991	1578.0643	1740.3262	1805.8663	3000.3095	3035.1434	3040.1755	3047.517	3104.8578	3109.9612	3148.0666	3157.8208	3592.1161	3739.7762
COC(C)=NCC(N)=O	COC(=NCC(=O)N)C	
InChI=1S/C5H10N2O2/c1-4(9-2)7-3-5(6)8/h3H2,1-2H3,(H2,6,8)	InChI=1S/C5H10N2O2/c1-4(9-2)7-3-5(6)8/h3H2,1-2H3,(H2,6,8)
