17
gdb 31579	3.26632	1.1938	0.88493	1.4201	73.31	-0.1824	0.0389	0.2213	1298.0233	0.135641	-455.179317	-455.169936	-455.168992	-455.213667	33.043	
C	 0.0032176407	 1.3264709216	-0.0226969784	-0.234891
O	-0.0784549674	-0.0996545463	-0.100535172	-0.250431
C	-1.3070024201	-0.5900026859	-0.0259085253	 0.496473
N	-2.4301739339	 0.044809532	 0.095969755	-0.431414
C	-3.3741801521	-0.9837377434	 0.1190965707	 0.168313
N	-4.7196839007	-0.6665087746	 0.3064194781	-0.599298
C	-2.7590375758	-2.1882631675	 0.0083804634	 0.268635
C	-3.1842699277	-3.6068334638	-0.0135747492	-0.499415
O	-1.3831826286	-1.9197600934	-0.0894556322	-0.229672
H	 1.0646807271	 1.5644919356	-0.0898642294	 0.137192
H	-0.5466796988	 1.7888798482	-0.8472737545	 0.141167
H	-0.4118979038	 1.6842028155	 0.9236660054	 0.144131
H	-4.9091986918	 0.2836352309	 0.0152798728	 0.251332
H	-5.3551639462	-1.3066736011	-0.1501105639	 0.243685
H	-2.9293032847	-4.108499328	-0.9558169339	 0.131307
H	-2.7290522888	-4.1862239225	 0.7993758737	 0.136501
H	-4.2691510373	-3.6652851473	 0.1131939695	 0.126384
93.3042	101.3353	145.134	182.1262	198.8223	214.958	246.95	264.8669	376.7616	388.0973	551.5377	642.1614	660.8348	667.76	738.0364	768.4386	812.3466	975.0528	1006.1098	1066.226	1073.6938	1118.5476	1180.1438	1183.6946	1225.6288	1280.1181	1391.7702	1416.9088	1434.7275	1467.3773	1476.33	1479.2235	1498.7051	1503.5858	1634.7534	1653.9405	1729.4608	3013.1617	3045.3854	3056.9328	3108.8923	3117.9738	3158.895	3546.4973	3642.2304
COC1=NC(N)=C(C)O1	COc1nc(N)c(C)o1	
InChI=1S/C5H8N2O2/c1-3-4(6)7-5(8-2)9-3/h6H2,1-2H3	InChI=1S/C5H8N2O2/c1-3-4(6)7-5(8-2)9-3/h6H2,1-2H3
