17
gdb 49498	2.40675	1.52306	1.13055	3.3626	74.2	-0.2491	-0.041	0.2081	1093.1904	0.134803	-421.786862	-421.778739	-421.777795	-421.820271	29.7	
O	-0.6187273505	 0.6733198026	 0.414431597	-0.248862
C	 0.2674006252	 0.9688878544	-0.3505156171	 0.120382
C	 1.3396868128	 1.9855738373	-0.0878459702	-0.113681
C	 1.1609845262	 3.472706463	-0.5804382454	-0.073324
C	 0.1191363878	 3.6658340802	 0.5563510907	-0.272462
C	 1.3178136975	 2.8772201517	 1.200285779	 0.254224
C	 2.2639409266	 3.8549262382	 0.4512007185	-0.26055
C	 1.4160863935	 2.4008167152	 2.6114899922	 0.017821
O	 2.2711875863	 2.7625429129	 3.381984159	-0.245591
H	 0.3520942699	 0.4678008986	-1.3424998763	 0.084726
H	 2.3155808999	 1.5560670293	-0.3473419551	 0.095973
H	 1.082317022	 3.8000157241	-1.6170665423	 0.08959
H	-0.0092499814	 4.6887427206	 0.9169443772	 0.10831
H	-0.8306710676	 3.1402987768	 0.4765254191	 0.130787
H	 3.2774535112	 3.5004931018	 0.2512306046	 0.104845
H	 2.2577014313	 4.888877255	 0.8011755592	 0.109563
H	 0.6277259592	 1.6765474183	 2.9091939101	 0.098248
70.0396	86.3452	143.8989	215.1647	271.306	281.2634	434.8353	462.9305	548.1472	692.8725	728.6556	770.9031	817.9486	835.3602	895.0087	948.8533	972.7811	990.0622	1023.5706	1045.6117	1058.0874	1082.1451	1104.9063	1142.7287	1153.5192	1160.7628	1211.7916	1222.5167	1232.2962	1306.9801	1375.7619	1415.2435	1423.1153	1502.0325	1541.1688	1811.4078	1815.4076	2867.5723	2907.3284	3036.2846	3068.3065	3079.4693	3115.9507	3137.647	3163.6863
O=CC1C2CC1(C2)C=O	O=C[C@H]1[C@H]2C[C@@]1(C2)C=O	
InChI=1S/C7H8O2/c8-3-6-5-1-7(6,2-5)4-9/h3-6H,1-2H2	InChI=1S/C7H8O2/c8-3-6-5-1-7(6,2-5)4-9/h3-6H,1-2H2/t5-,6-,7+/m0/s1
