21
gdb 40810	3.38665	1.19797	1.04743	1.1754	84.43	-0.2427	0.0232	0.266	1235.4941	0.184217	-387.082636	-387.074446	-387.073502	-387.115637	32.135	
C	-0.262282241	 1.3434519839	-0.1936309853	-0.251433
C	 1.1638899063	 1.0384760518	 0.2019909984	-0.275471
C	 0.1637252644	-0.0771108344	 0.0629411013	-0.00189
C	-0.3410032183	-0.8346469064	 1.2810403187	 0.064461
O	-0.3555316371	 0.058324983	 2.3848203403	-0.265953
C	-1.0616210067	-0.4430470678	 3.5066152455	-0.072583
C	-2.5507059163	-0.6057669956	 3.1958100599	-0.255107
C	-2.7133912599	-1.3211314415	 1.8807194433	-0.078631
C	-1.6997034208	-1.4447862075	 1.0279692283	-0.05449
H	-0.889979387	 1.8110624953	 0.555271071	 0.120682
H	-0.467548576	 1.6433871206	-1.2153213465	 0.102389
H	 1.9415245343	 1.1246713636	-0.5491476687	 0.102987
H	 1.4645626296	 1.3098407169	 1.206520558	 0.125866
H	 0.2697358894	-0.7191360311	-0.8074512664	 0.079694
H	 0.3771826313	-1.6514146458	 1.4938320938	 0.071418
H	-0.6396732556	-1.4131404887	 3.8163884987	 0.090565
H	-0.8935809682	 0.2722387702	 4.3167210399	 0.104253
H	-3.0384074403	-1.16671976	 4.0033964553	 0.102203
H	-3.0422475435	 0.3761906251	 3.1625248115	 0.114596
H	-3.6854569812	-1.7475369803	 1.6470065467	 0.088288
H	-1.8118077334	-1.9925310013	 0.0957277662	 0.088156
74.7116	98.8866	187.5529	230.9365	296.1322	363.6647	407.1707	488.6532	511.5107	624.5901	661.8018	780.2	787.1742	802.8964	841.4805	872.4293	910.1027	927.5348	971.3483	988.964	1000.6057	1037.8506	1042.7351	1065.4139	1085.4072	1092.7095	1108.6083	1136.4409	1145.2605	1201.8656	1210.6039	1235.0844	1239.0336	1291.8585	1313.4503	1360.5387	1365.0149	1392.2392	1406.799	1426.7689	1457.6439	1472.2969	1497.3597	1503.0842	1723.9284	2897.5361	2973.3938	3013.7734	3047.9351	3085.6826	3137.7135	3138.4155	3145.0961	3149.0648	3171.7039	3223.9434	3237.2727
C1CC1C1OCCC=C1	C1CC1[C@H]1OCCC=C1	
InChI=1S/C8H12O/c1-2-6-9-8(3-1)7-4-5-7/h1,3,7-8H,2,4-6H2	InChI=1S/C8H12O/c1-2-6-9-8(3-1)7-4-5-7/h1,3,7-8H,2,4-6H2/t8-/m0/s1
