21
gdb 104690	2.38858	1.43735	1.08981	2.1876	78.35	-0.2304	0.0764	0.3068	1204.9344	0.180595	-424.165407	-424.155934	-424.154989	-424.199766	35.118	
C	-0.5773310122	 1.4248110389	-0.2764828049	-0.375273
C	-0.1995593027	-0.0395622118	-0.021293568	-0.270785
C	 0.497400179	-0.6688824187	-1.209501739	 0.405598
O	 1.6106998563	 0.0241710787	-1.7106048464	-0.292432
C	 2.7536595059	 0.0028328001	-0.8741747765	-0.248218
C	 0.6209244904	-2.1750119065	-1.4542061576	-0.206556
C	-0.6840016591	-2.8816547319	-1.1137720187	-0.106229
O	-1.4513650924	-1.9312784807	-1.9074285369	-0.290879
C	-0.2441642727	-1.3056217486	-2.3467998329	 0.035413
H	 0.3039448422	 2.0264358844	-0.5147475733	 0.123897
H	-1.2704307478	 1.5043601128	-1.1198930534	 0.124783
H	-1.0629379627	 1.8602994621	 0.6018768825	 0.107561
H	 0.4376436148	-0.1163496354	 0.8689345415	 0.092207
H	-1.1038056018	-0.6147671863	 0.1929326445	 0.121083
H	 2.5959838188	 0.5643385699	 0.0564362101	 0.113964
H	 3.0515364005	-1.0225988611	-0.615387789	 0.107087
H	 3.5620317302	 0.4774134692	-1.4353660773	 0.128275
H	 1.5736774959	-2.6459168071	-1.6544281563	 0.101222
H	-0.7612810321	-3.8858104571	-1.5461748687	 0.112565
H	-1.0046050023	-2.9073006381	-0.0658203551	 0.10599
H	-0.1602399583	-0.9955230228	-3.3819878845	 0.110725
63.4614	114.658	169.077	176.7467	198.9053	214.4122	272.0787	300.8892	395.1673	417.9429	488.3905	567.1833	685.0433	765.2231	789.6003	820.0098	925.6902	939.3988	956.0419	985.8947	1005.0202	1009.9063	1031.9137	1065.4103	1087.5368	1099.7131	1124.2589	1157.1649	1180.6948	1192.5344	1216.1095	1232.5098	1271.5759	1297.8171	1338.0937	1368.4814	1408.4953	1425.0221	1470.0042	1478.8393	1494.2527	1495.4726	1504.7961	1511.1404	1515.8959	2998.1605	3022.8364	3027.1401	3042.06	3052.3064	3069.2413	3094.5064	3110.0838	3117.8779	3121.7471	3181.3419	3206.2367
CCC1(OC)C2COC12	CC[C@@]1(OC)[C@H]2CO[C@@H]12	
InChI=1S/C7H12O2/c1-3-7(8-2)5-4-9-6(5)7/h5-6H,3-4H2,1-2H3	InChI=1S/C7H12O2/c1-3-7(8-2)5-4-9-6(5)7/h5-6H,3-4H2,1-2H3/t5-,6+,7+/m0/s1
