17
gdb 80154	2.34987	1.59771	1.34961	4.9793	72.76	-0.2298	-0.0814	0.1484	1027.3321	0.135663	-421.854923	-421.846851	-421.845907	-421.887703	30.468	
C	-0.236695137	 1.4554633725	 0.1753273807	-0.431729
C	 0.0160097066	-0.0237344511	-0.0349100715	-0.009559
C	 0.6914301114	-0.6201256118	-1.2277698621	-0.083751
C	 1.4870619142	 0.3000659414	-2.1457616432	-0.346699
C	 2.5842785917	 0.9163653271	-1.2794824528	 0.29555
O	 3.3378731792	 1.8031620508	-1.5719687944	-0.281609
C	 2.5934757884	 0.1635518931	 0.0915639081	 0.32975
O	 3.483434818	 0.2535801931	 0.897656315	-0.301889
C	 1.3859665395	-0.6974567989	 0.1397155805	-0.187392
H	 0.5458133067	 2.094777975	-0.2406460673	 0.139911
H	-1.182823029	 1.7471774722	-0.2930696364	 0.128662
H	-0.3085641579	 1.6842890154	 1.2431378915	 0.137838
H	-0.7752404857	-0.6484306571	 0.3722423203	 0.106805
H	 0.2738175519	-1.5236077586	-1.6567232587	 0.102618
H	 1.9779651494	-0.2788802502	-2.9376063317	 0.145559
H	 0.8930898196	 1.0752375326	-2.6388767088	 0.139623
H	 1.4341646529	-1.6032016455	 0.730896311	 0.116313
77.2046	125.5916	173.7656	225.0849	317.1239	336.2046	413.9564	482.4989	507.5803	609.3041	615.9443	690.7987	720.5005	753.9868	825.4557	904.8386	937.9708	959.1349	989.0639	1019.9988	1055.9798	1082.6084	1123.6946	1136.9131	1172.3017	1205.8883	1225.0365	1279.6275	1327.2252	1363.0302	1421.8436	1429.3965	1451.2285	1489.6259	1505.8508	1829.3654	1855.1855	3040.3759	3044.5316	3091.6332	3102.0065	3116.114	3141.7155	3175.0892	3196.709
CC1C2CC(=O)C(=O)C12	C[C@H]1[C@H]2CC(=O)C(=O)[C@@H]12	
InChI=1S/C7H8O2/c1-3-4-2-5(8)7(9)6(3)4/h3-4,6H,2H2,1H3	InChI=1S/C7H8O2/c1-3-4-2-5(8)7(9)6(3)4/h3-4,6H,2H2,1H3/t3-,4+,6-/m0/s1
