18
gdb 63580	3.13039	1.33865	1.16018	2.0385	73.42	-0.2295	0.0075	0.237	1102.0723	0.147171	-439.084954	-439.076557	-439.075613	-439.117794	32.109	
C	-0.1201967104	 1.5507947237	 0.0021409123	-0.440314
C	 0.0223813188	 0.0501991458	 0.013649418	 0.391657
O	-1.1481072407	-0.5755975338	-0.4196015501	-0.477851
C	 1.3534784346	-0.5935618838	-0.3156697138	-0.403647
C	 0.8077610952	-0.6554874822	 1.0985679493	 0.240729
C	 1.4649785581	-0.0107630243	 2.3210651426	-0.18178
O	 1.2157519361	-0.9766612129	 3.3779312118	-0.222675
C	 0.5190056076	-1.9769977844	 2.7961682268	 0.111379
N	 0.2466867681	-1.9124593886	 1.5579113768	-0.314342
H	 0.8081759682	 2.047687091	 0.2981229542	 0.109988
H	-0.3776593333	 1.8893041119	-1.0064890201	 0.134549
H	-0.9208829042	 1.8686444303	 0.6778590803	 0.124523
H	-1.1984329545	-1.4220056798	 0.046905022	 0.293907
H	 1.3372273437	-1.5170297631	-0.8841003599	 0.124522
H	 2.2135366835	 0.0466135157	-0.4926200297	 0.109173
H	 2.5476109976	 0.1144176952	 2.2224497829	 0.124859
H	 1.019196342	 0.9421216668	 2.622807057	 0.126533
H	 0.2384657696	-2.7824358077	 3.4645930296	 0.148787
85.1962	166.9101	173.7987	212.3655	264.2642	374.0309	392.2009	412.4703	432.8806	455.5759	562.3578	618.2812	744.5237	800.2049	866.5098	877.4076	914.0751	940.979	955.9029	956.8618	981.4377	1032.8049	1081.0538	1102.0636	1115.9944	1155.7528	1207.9488	1212.1199	1254.8445	1314.8561	1352.5451	1385.5411	1402.1568	1439.6494	1475.0328	1481.6104	1505.134	1520.7592	1694.6837	3035.8831	3043.474	3087.2749	3104.1385	3113.1295	3118.8104	3217.6656	3224.2055	3733.389
CC1(O)CC11COC=N1	C[C@@]1(O)C[C@]21COC=N2	
InChI=1S/C6H9NO2/c1-5(8)2-6(5)3-9-4-7-6/h4,8H,2-3H2,1H3	InChI=1S/C6H9NO2/c1-5(8)2-6(5)3-9-4-7-6/h4,8H,2-3H2,1H3/t5-,6-/m1/s1
