21
gdb 118985	2.78866	1.14992	1.04346	0.7404	80.83	-0.2486	0.014	0.2625	1297.4405	0.180635	-424.235205	-424.22564	-424.224696	-424.269858	35.513	
C	-0.2068219014	 1.368207421	 0.4218605059	-0.380854
C	-0.0253148939	-0.0635239552	-0.0557199647	-0.051826
O	-1.3139369044	-0.6657236998	-0.1163381622	-0.282606
C	-1.3502913271	-2.0762654404	-0.2417080923	 0.432736
C	-0.6437943876	-2.5677018292	-1.5057288703	-0.438476
O	-0.7382057079	-2.7113054502	 0.8808955508	-0.28972
C	-1.7324558827	-3.1865721924	 1.7828739201	-0.133848
C	-3.0251091294	-3.0737392569	 1.0253627421	-0.097294
C	-2.8085167579	-2.4638590104	-0.1316042017	-0.117455
H	 0.7593770213	 1.8803419033	 0.4674528311	 0.110586
H	-0.8601984481	 1.9215043209	-0.2591770081	 0.122584
H	-0.6589215108	 1.386234355	 1.4175186123	 0.123413
H	 0.4551522171	-0.0734360735	-1.045554133	 0.086608
H	 0.6155158253	-0.6250317261	 0.6354426041	 0.107861
H	 0.4353565696	-2.4136538694	-1.4313128186	 0.12875
H	-0.8242585357	-3.6370877267	-1.6366888824	 0.122593
H	-1.0184034317	-2.031561504	-2.382263198	 0.120027
H	-1.4858432035	-4.2195315943	 2.0640260516	 0.110663
H	-1.7468727698	-2.5887159413	 2.7078587144	 0.109968
H	-3.9718933589	-3.4306145728	 1.4106484468	 0.108093
H	-3.5317590225	-2.2043999076	-0.892580408	 0.108199
60.0946	93.4356	125.0913	170.8483	235.61	251.7704	281.9529	330.7714	381.7773	392.1064	477.6741	562.4951	677.5879	738.1484	788.0913	820.092	825.2753	876.9179	912.6232	952.736	956.261	968.6693	1038.7138	1049.5185	1081.364	1100.5615	1131.1273	1151.3101	1175.3748	1186.9275	1205.1209	1246.0476	1299.4855	1364.0945	1375.1044	1397.6683	1402.3032	1423.6474	1483.0336	1486.3368	1493.6321	1502.0493	1512.1547	1527.6288	1695.241	2982.4291	2988.6308	3024.1252	3041.9502	3046.2098	3051.4009	3115.0128	3120.3561	3128.7242	3132.2704	3210.6456	3239.255
CCOC1(C)OCC=C1	CCO[C@@]1(C)OCC=C1	
InChI=1S/C7H12O2/c1-3-8-7(2)5-4-6-9-7/h4-5H,3,6H2,1-2H3	InChI=1S/C7H12O2/c1-3-8-7(2)5-4-6-9-7/h4-5H,3,6H2,1-2H3/t7-/m0/s1
