19
gdb 36832	5.74247	0.56773	0.54098	1.9251	86.9	-0.2457	0.0296	0.2753	2046.1689	0.157996	-385.820847	-385.81146	-385.810515	-385.858312	33.248	
C	 0.2735275366	 1.5059067988	 0.6977271558	-0.382873
C	 0.2823606026	 0.0481997845	 0.6107777518	 0.099621
C	 0.3037324586	-1.1539467147	 0.5309579225	 0.093203
C	 0.357937022	-2.5875919199	 0.4469314736	-0.113894
C	-0.8582699405	-3.4219631299	 0.5190434923	-0.159942
O	-0.2009215767	-3.2124142226	-0.7231927834	-0.216715
C	 1.5083426036	 2.1546877701	 0.0877698774	 0.045092
C	 1.5602620352	 2.4418100415	-1.3882038995	-0.245767
C	 1.4398245022	 3.5781611366	-0.400474822	-0.27873
H	-0.6233468317	 1.892606302	 0.1953688224	 0.127793
H	 0.1797931816	 1.8049512503	 1.7507823897	 0.130946
H	 1.2938906969	-3.0403832216	 0.7733937161	 0.113921
H	-0.7882128384	-4.4289178839	 0.9293511447	 0.116822
H	-1.8242775309	-2.9327693274	 0.6289677221	 0.122071
H	 2.4402549713	 1.8442399232	 0.5506888769	 0.092718
H	 2.5019646949	 2.305612578	-1.907680312	 0.114694
H	 0.6874901283	 2.1913778024	-1.9823794232	 0.116849
H	 0.4863024065	 4.0925444873	-0.3339740759	 0.110684
H	 2.299256738	 4.2197368654	-0.2409807491	 0.113504
7.2449	52.8452	78.6603	139.7138	172.0848	301.5693	322.7204	349.6428	459.7601	505.0299	551.3919	729.5639	770.0518	799.0609	831.3972	841.8759	891.0416	902.9119	953.9657	993.1622	1002.7515	1059.1238	1079.8721	1085.2411	1134.9502	1146.522	1148.4763	1159.8319	1183.7323	1196.7536	1227.0712	1262.8089	1283.1921	1323.0962	1404.8594	1410.5192	1461.7974	1472.5472	1507.8451	1519.395	2364.2593	3008.7516	3039.4357	3082.3497	3110.1171	3129.1922	3135.1624	3152.2828	3175.5854	3207.6795	3223.1756
C(C#CC1CO1)C1CC1	C(C#C[C@H]1CO1)C1CC1	
InChI=1S/C8H10O/c1(2-7-4-5-7)3-8-6-9-8/h7-8H,2,4-6H2	InChI=1S/C8H10O/c1(2-7-4-5-7)3-8-6-9-8/h7-8H,2,4-6H2/t8-/m0/s1
