21
gdb 113173	3.0148	1.05158	0.89795	3.3575	80.28	-0.2283	0.0305	0.2588	1383.0384	0.180997	-420.424775	-420.414512	-420.413568	-420.459974	37.851	
C	 0.1339989488	 1.556126505	 0.0208666967	-0.375265
C	-0.2559005137	 0.0832782528	-0.0784175961	-0.120274
N	 0.4113099609	-0.5378258385	-1.2211867892	-0.12567
C	 1.7041194848	-1.1730601894	-1.0104148511	-0.272655
C	 0.493196736	-2.0022405197	-1.3299887451	 0.198193
C	-0.0822583756	-2.9376287662	-0.2863809635	-0.4719
C	 0.3582268017	-2.5327734617	-2.7527382689	 0.369467
N	 0.3650547175	-1.5679336598	-3.7092835363	-0.535512
O	 0.2858277507	-3.7263249679	-2.9854855049	-0.375071
H	 1.2103527034	 1.664896708	 0.1892377953	 0.121081
H	-0.1183074209	 2.0855341018	-0.9022928469	 0.123289
H	-0.3891827816	 2.0372242794	 0.8527497184	 0.116079
H	-0.0231698354	-0.4249865821	 0.8697756231	 0.091165
H	-1.3370364018	-0.008054244	-0.2346809446	 0.108863
H	 2.4621719547	-0.9854878054	-1.766067263	 0.122351
H	 2.0787346548	-1.2397021566	 0.010818101	 0.112659
H	 0.2346278716	-2.675662832	 0.7245889242	 0.112134
H	-1.1770477918	-2.9396504341	-0.3189386354	 0.124333
H	 0.2521931192	-3.9517358426	-0.511735193	 0.156579
H	 0.2554356823	-0.6092192909	-3.4161751433	 0.263566
H	 0.2084456645	-1.8411044962	-4.6645183772	 0.256588
65.6951	86.0841	138.6615	158.2293	178.2196	250.2428	278.8831	306.7056	347.8179	366.7972	390.027	442.2647	503.42	584.3687	660.3	693.5335	735.5137	806.776	822.9711	851.131	933.6807	952.362	1003.6163	1069.2198	1088.3942	1101.7313	1107.9498	1123.9574	1170.1097	1199.4632	1236.0688	1314.97	1354.7572	1377.2691	1391.1728	1407.4917	1416.1277	1484.2668	1488.3124	1490.0295	1500.4501	1501.8413	1513.9582	1577.6013	1791.6804	2984.0791	3039.8724	3047.6736	3055.7439	3085.1649	3110.5265	3116.8857	3119.1711	3146.7051	3178.6414	3575.1068	3724.9451
CCN1CC1(C)C(N)=O	CCN1C[C@]1(C)C(=O)N	
InChI=1S/C6H12N2O/c1-3-8-4-6(8,2)5(7)9/h3-4H2,1-2H3,(H2,7,9)	InChI=1S/C6H12N2O/c1-3-8-4-6(8,2)5(7)9/h3-4H2,1-2H3,(H2,7,9)/t6-,8?/m1/s1
