18
gdb 77755	2.08272	1.54491	1.44985	1.6757	73.5	-0.2248	-0.0263	0.1985	1055.6863	0.1448	-439.049458	-439.040081	-439.039136	-439.083274	34.273	
C	-0.1118445934	 1.5230791808	-0.0422587088	-0.315978
N	 0.0918017679	 0.082376296	 0.1268693907	-0.121821
C	 1.3625099243	-0.569927291	-0.1764854281	-0.234459
C	 2.4973374557	 0.3005996743	 0.3118964653	 0.372573
O	 3.5005520883	 0.7461528036	-0.1699989105	-0.318222
C	 1.9382599244	 0.2830920245	 1.7683154513	-0.066191
O	 1.6204739635	 1.4638951822	 2.4619850304	-0.426783
C	 0.7530758809	-0.54036595	 1.2411477802	 0.314227
C	 0.0620668569	-1.6324209884	 2.0030934028	-0.49182
H	 0.7255352871	 2.153707416	 0.2711226212	 0.128529
H	-0.3244621818	 1.7080776246	-1.0992822579	 0.125863
H	-0.9915286622	 1.8110640201	 0.540319924	 0.130485
H	 1.3907677291	-1.3580915427	-0.9212680858	 0.111953
H	 2.6139728059	-0.3624344053	 2.3560678722	 0.097636
H	 2.4343118801	 1.96762466	 2.5766385198	 0.297373
H	-0.5450959653	-1.2087604426	 2.8108832715	 0.137432
H	-0.6013425038	-2.1938576798	 1.3411373057	 0.136847
H	 0.7855294324	-2.3195291323	 2.453564556	 0.122356
96.6435	131.3784	167.7806	192.7809	203.7022	234.1729	261.1137	290.7318	337.9837	411.5939	521.93	590.1748	596.4364	673.7954	704.2479	764.0919	871.6834	907.6069	941.9	989.3764	1051.9731	1091.7153	1122.562	1148.1876	1158.4713	1170.458	1182.0537	1217.3807	1247.535	1296.5162	1378.4509	1410.0275	1437.4272	1464.2613	1481.1333	1489.9959	1494.2943	1495.7719	1879.7316	2958.4705	3034.1204	3036.2894	3097.561	3105.7661	3115.7778	3128.0248	3174.1969	3802.7769
CN1C2C(=O)C(O)C12C	CN1[C@H]2C(=O)[C@@H](O)[C@@]12C	
InChI=1S/C6H9NO2/c1-6-4(7(6)2)3(8)5(6)9/h4-5,9H,1-2H3	InChI=1S/C6H9NO2/c1-6-4(7(6)2)3(8)5(6)9/h4-5,9H,1-2H3/t4-,5+,6-,7?/m0/s1
