23
gdb 104624	2.39496	1.15489	0.93205	0.6042	92.15	-0.2522	0.0567	0.3089	1406.8162	0.20349	-351.125064	-351.114768	-351.113824	-351.160018	39.131	
C	-0.2020940227	 1.5143883486	-0.0242521447	-0.386444
C	 0.1126223563	 0.0167651821	-0.0507188083	-0.241686
C	 0.7870077754	-0.5016492096	 1.2309076654	 0.126738
C	-0.0907056574	-0.5192261752	 2.5352302181	-0.263705
C	 0.4427211261	-1.94139444	 2.8548763775	 0.059445
C	-0.5183470867	-2.9778652668	 3.4142310808	-0.410364
C	 0.898465717	-2.0616869414	 1.3760773697	-0.276388
C	 2.0739208013	 0.1453166701	 1.4534813287	 0.337895
C	 3.1401402143	 0.6742755556	 1.6320226478	-0.503627
H	 0.7111212437	 2.1039427968	 0.0973553813	 0.131538
H	-0.6890170959	 1.8275188532	-0.9527711371	 0.110635
H	-0.873648261	 1.7635137183	 0.8045728334	 0.115696
H	-0.8127771356	-0.5546228967	-0.1950843565	 0.089188
H	 0.7601081324	-0.2132078793	-0.9058486017	 0.102471
H	 0.0834871912	 0.2723813811	 3.2660406623	 0.104896
H	-1.1544512372	-0.5377518173	 2.2738936845	 0.093929
H	 1.3232374272	-1.8618017115	 3.5006885225	 0.082458
H	-1.4091902369	-3.0706615776	 2.7820726162	 0.108481
H	-0.0479877422	-3.9658742437	 3.473599581	 0.114974
H	-0.8525348516	-2.7085626681	 4.4225690292	 0.114844
H	 0.1404503392	-2.5547332263	 0.7577735784	 0.093274
H	 1.8724884148	-2.5098876783	 1.1713288951	 0.104616
H	 4.0802127981	 1.141264156	 1.7917500062	 0.191135
69.1945	96.5161	150.151	165.2145	198.8823	234.3015	252.9468	307.3333	348.607	390.2784	409.9455	484.7737	556.6332	608.7589	614.9633	626.716	706.5046	787.7667	835.5473	851.7091	902.9166	918.7925	950.2939	954.4389	995.0922	1051.2245	1061.7021	1083.8032	1117.933	1151.7609	1180.2691	1217.5605	1235.2525	1263.1774	1281.694	1296.0309	1330.2492	1355.641	1377.238	1409.8547	1411.5221	1469.4148	1480.446	1492.9808	1496.0283	1497.9078	1498.4029	1507.6453	2223.7608	3020.9036	3021.2562	3036.3442	3042.372	3044.7397	3053.4255	3058.9318	3089.6088	3089.9826	3102.2677	3115.4615	3115.9157	3118.7255	3501.9099
CCC1(CC(C)C1)C#C	CC[C@]1(C[C@@H](C)C1)C#C	
InChI=1S/C9H14/c1-4-9(5-2)6-8(3)7-9/h1,8H,5-7H2,2-3H3	InChI=1S/C9H14/c1-4-9(5-2)6-8(3)7-9/h1,8H,5-7H2,2-3H3/t8-,9+
