23
gdb 11567	5.21422	0.94841	0.85505	0.9643	82.82	-0.2292	0.0869	0.3161	1431.4156	0.210974	-330.30276	-330.293078	-330.292134	-330.337489	35.46	
C	 0.0231516337	 1.5802487819	-0.0110626106	-0.390425
C	-0.0395614036	 0.049681906	 0.0214414185	-0.166206
C	-1.4624621824	-0.5391389169	-0.0254555052	 0.042298
C	-2.1766798565	-0.2363358353	-1.3493915732	-0.393052
C	-1.4026033085	-2.0470054144	 0.2642350933	-0.142424
N	-2.7280777174	-2.6501764841	 0.3818365764	-0.068157
C	-3.2371481642	-3.3756444323	-0.7781888329	-0.216967
C	-2.7639505769	-4.1076138705	 0.4267099477	-0.222216
H	 1.0555311017	 1.9301960776	 0.0884534814	 0.110548
H	-0.3706226512	 1.9883456576	-0.9467074594	 0.118088
H	-0.5556631556	 2.0161800448	 0.8110390706	 0.114051
H	 0.5455574754	-0.3575869446	-0.8151715513	 0.090289
H	 0.455849307	-0.3023689013	 0.9358206844	 0.089935
H	-2.047084209	-0.0858972962	 0.7872575579	 0.078975
H	-3.1950496972	-0.6323922335	-1.3455372463	 0.127477
H	-2.243271709	 0.8398697249	-1.5321010332	 0.111891
H	-1.6409905747	-0.6844461995	-2.1959309374	 0.102972
H	-0.7901015268	-2.5510213288	-0.5090046863	 0.072594
H	-0.8902673772	-2.2012467438	 1.2220575472	 0.09689
H	-4.2993726729	-3.2671562021	-0.9793277595	 0.114647
H	-2.6081477238	-3.4225591474	-1.6658858538	 0.109074
H	-1.8198554672	-4.6444209113	 0.3417295237	 0.10577
H	-3.4723929935	-4.5434379408	 1.1257628182	 0.113949
65.0146	73.8768	108.7142	149.869	219.4532	256.3934	291.6062	323.8438	329.9139	420.5871	426.6733	513.0394	770.1323	775.6248	825.9934	841.065	896.9953	919.9743	927.8966	977.8747	1013.4482	1024.7383	1042.1893	1059.3305	1112.062	1120.5948	1148.673	1157.0828	1177.6017	1185.4395	1205.166	1274.6682	1303.4878	1311.7272	1322.1217	1378.0989	1383.6091	1396.5989	1413.4424	1414.7344	1479.765	1487.3041	1494.2449	1497.1607	1498.2438	1508.1562	1513.9129	1523.6425	2912.3719	3004.2636	3012.547	3028.2541	3033.2695	3037.4619	3047.0276	3090.3657	3095.4898	3097.1775	3097.9779	3107.9947	3121.5889	3172.1317	3187.0014
CCC(C)CN1CC1	CC[C@@H](C)CN1CC1	
InChI=1S/C7H15N/c1-3-7(2)6-8-4-5-8/h7H,3-6H2,1-2H3	InChI=1S/C7H15N/c1-3-7(2)6-8-4-5-8/h7H,3-6H2,1-2H3/t7-/m1/s1
