19
gdb 17484	3.41274	2.36643	1.89976	1.5208	73.59	-0.2322	0.0867	0.319	795.4625	0.16768	-327.899032	-327.892381	-327.891436	-327.929244	27.496	
C	-0.015082662	 1.5127842829	-0.0038605002	-0.48986
C	 0.0299523455	-0.0014638337	-0.0030068072	 0.325671
C	-1.2990235924	-0.7634308381	 0.3388496954	-0.292345
C	-0.4964917124	-1.6466497577	 1.301555029	-0.036997
C	 0.6957557177	-0.7533656682	 1.1967270467	-0.098268
N	 0.7677388611	-2.1247020253	 0.7191788685	-0.096705
C	 0.838662027	-2.1361628569	-0.7609783931	-0.166502
C	 0.6774619067	-0.6674829649	-1.225329048	-0.252977
H	 0.9904802267	 1.9366786791	-0.1098005388	 0.114595
H	-0.6231927082	 1.8908038712	-0.8333653125	 0.117321
H	-0.4458087035	 1.9000530486	 0.9257522267	 0.115417
H	-1.9977489735	-0.1254914185	 0.8873653482	 0.100739
H	-1.8333627833	-1.2462210436	-0.4876319637	 0.089182
H	-0.8883848315	-2.1970468514	 2.150193644	 0.087633
H	 1.394365119	-0.3725119881	 1.9333900816	 0.082418
H	 1.8029161322	-2.5593742372	-1.0561881362	 0.10606
H	 0.0578749344	-2.7907480935	-1.1608729542	 0.104888
H	 0.0603866368	-0.5733673325	-2.1253124387	 0.095866
H	 1.6517757796	-0.2113766222	-1.4386709076	 0.093864
205.7743	227.604	263.2019	324.5115	391.4644	433.6953	572.9273	645.2233	718.9859	749.8793	801.7301	837.3472	857.4373	882.1179	920.0406	937.6469	967.0359	983.4239	986.3522	1022.2886	1052.6446	1063.6311	1124.4118	1147.2397	1182.2768	1207.6207	1225.486	1234.498	1247.1677	1266.5417	1281.7287	1325.5742	1340.4214	1373.6549	1413.7457	1485.0939	1488.0918	1493.9091	1496.459	1512.827	3021.4803	3028.3814	3031.9004	3051.7348	3073.5436	3086.0482	3090.2375	3093.7014	3096.45	3161.4693	3176.3233
CC12CC3C1N3CC2	C[C@]12C[C@@H]3[C@H]1N3CC2	
InChI=1S/C7H11N/c1-7-2-3-8-5(4-7)6(7)8/h5-6H,2-4H2,1H3	InChI=1S/C7H11N/c1-7-2-3-8-5(4-7)6(7)8/h5-6H,2-4H2,1H3/t5-,6-,7+,8?/m1/s1
