18
gdb 93180	2.91057	1.38854	0.97334	5.6596	75.66	-0.2327	-0.0269	0.2058	1194.8495	0.150535	-435.321809	-435.313481	-435.312537	-435.35471	31.81	
C	-0.1536010487	 1.5201997921	 0.0218235022	-0.411402
C	 0.0301352742	 0.0048865289	-0.0118769536	 0.0619
C	 0.7284454286	-0.46327159	-1.2873235506	-0.167172
N	 0.9921673906	-1.8879984796	-1.1937961889	-0.341202
C	 1.6565890513	-2.3952784547	-0.0959056482	 0.264629
N	 2.2824096405	-3.5027497505	-0.1379746703	-0.511057
C	 1.5541979583	-1.5842851916	 1.1949293412	 0.37106
O	 2.1056017791	-1.9655119645	 2.210056905	-0.371073
N	 0.8357896027	-0.4279732265	 1.1275662304	-0.347968
H	 0.8117324777	 2.0320138273	-0.0392675864	 0.133902
H	-0.777457432	 1.8475166684	-0.8148742622	 0.130097
H	-0.6493493241	 1.8326700817	 0.9466042671	 0.125735
H	-0.9580751177	-0.4780436526	 0.0273943385	 0.099384
H	 0.073591242	-0.2825772679	-2.1441146153	 0.118358
H	 1.6467727403	 0.12951251	-1.4341224143	 0.107528
H	 1.217696914	-2.3733462755	-2.0513183283	 0.248928
H	 2.6388172319	-3.6938053714	 0.8009306721	 0.239692
H	 0.7125942015	 0.0427003064	 2.0138194118	 0.24866
86.2416	119.6499	227.7952	240.9877	282.3974	354.3413	396.3757	429.5056	441.4166	529.7542	580.2658	599.4821	622.522	694.1136	764.0118	806.3705	883.985	920.8021	952.5667	997.8427	1054.8917	1098.4394	1137.89	1191.0452	1208.4852	1262.9032	1305.8244	1337.4593	1378.6948	1392.584	1411.5754	1448.8298	1455.6782	1474.2929	1497.553	1500.3681	1511.2143	1727.0195	1792.3874	2962.8199	2989.3128	3039.1423	3089.0378	3108.8841	3120.7721	3465.5515	3591.1028	3592.8554
CC1CNC(=N)C(=O)N1	C[C@H]1CN[C]([NH])C(=O)N1	
InChI=1S/C5H9N3O/c1-3-2-7-4(6)5(9)8-3/h3H,2H2,1H3,(H2,6,7)(H,8,9)	InChI=1S/C5H9N3O/c1-3-2-7-4(6)5(9)8-3/h3H,2H2,1H3,(H2,6,7)(H,8,9)/t3-/m0/s1
