21
gdb 101551	2.77064	0.85183	0.73871	3.6824	83.06	-0.2353	-0.0673	0.1679	1614.7637	0.180351	-420.429782	-420.419047	-420.418103	-420.466227	38.133	
C	-0.0356397519	 1.5566342806	 0.0883545326	-0.380772
C	-0.0441378286	 0.029794798	-0.0224378321	-0.191009
C	 0.7142188021	-0.5148175564	-1.2400497459	 0.069549
C	 0.8431128946	-2.044246365	-1.2118919289	-0.40021
N	 0.0681921449	-0.0536328015	-2.4683091967	-0.319662
C	 0.7246637003	 0.0184864492	-3.6638631808	 0.287765
N	 1.9809242097	-0.1855105009	-3.7977438202	-0.519299
C	-0.1683448227	 0.4067011611	-4.8245006527	 0.107759
O	 0.2441309262	 0.5453152378	-5.9449846626	-0.234698
H	 0.9869783439	 1.9361299735	 0.1862153835	 0.123227
H	-0.4745614176	 2.0222178579	-0.7988877268	 0.116761
H	-0.6023117462	 1.8915107462	 0.9622347541	 0.114535
H	 0.4027034775	-0.4101932758	 0.8762147518	 0.106112
H	-1.0795525568	-0.3413823013	-0.0519984462	 0.088436
H	 1.7221103396	-0.0862222434	-1.2620426852	 0.119987
H	-0.1440098714	-2.5207562851	-1.1970311946	 0.103564
H	 1.3883369708	-2.3932361968	-2.0916912437	 0.145025
H	 1.3887117388	-2.3670885644	-0.3194345307	 0.116321
H	-0.9395541298	-0.0965076382	-2.4969183466	 0.236562
H	 2.2280360009	-0.0143964149	-4.7741677309	 0.233102
H	-1.2452260346	 0.5599376496	-4.5804920374	 0.076945
54.8692	61.1121	116.8619	142.1416	172.3957	210.6639	229.2554	254.4405	304.1352	362.8894	381.477	411.5908	460.559	497.0152	586.4213	740.5595	785.1447	835.2239	866.2316	930.4716	947.4513	983.8997	1009.7175	1023.0437	1037.4468	1126.724	1157.8023	1185.8314	1185.9738	1276.3951	1321.5473	1330.7676	1381.9999	1389.5767	1403.0459	1414.3799	1434.354	1481.9909	1489.5182	1497.3696	1502.6725	1508.35	1551.2408	1695.8251	1834.9779	2864.4553	3001.4106	3031.3773	3039.4587	3057.5774	3065.5028	3101.0203	3106.711	3114.1272	3129.6379	3468.8635	3609.5489
CCC(C)NC(=N)C=O	CC[C@@H](C)NC(=N)C=O	
InChI=1S/C6H12N2O/c1-3-5(2)8-6(7)4-9/h4-5H,3H2,1-2H3,(H2,7,8)	InChI=1S/C6H12N2O/c1-3-5(2)8-6(7)4-9/h4-5H,3H2,1-2H3,(H2,7,8)/t5-/m1/s1
