15
gdb 97786	2.97459	0.79504	0.6777	4.0236	76.17	-0.2678	-0.0081	0.2597	1609.5264	0.111755	-416.745537	-416.736274	-416.73533	-416.781781	31.782	
O	 0.0785596054	 1.3535252639	-0.540636484	-0.398289
C	-0.0009464066	 0.1741358268	 0.2442660698	-0.201173
C	-1.3407389987	-0.4134680532	 0.2770224492	 0.134508
C	-2.4451962966	-0.8926340521	 0.2408962892	 0.105951
C	-3.7565325402	-1.4716602857	 0.2417504228	-0.260051
N	-4.342723282	-1.8502290622	-1.057146037	-0.300012
C	-3.9919187783	-2.9204762646	-0.1144898758	-0.185946
C	-2.9014499109	-3.7881391948	-0.4873516517	 0.340987
N	-2.0344954446	-4.5044397568	-0.7530955426	-0.325139
H	-0.2378580923	 1.135980626	-1.423950325	 0.292384
H	 0.7155118605	-0.5901173043	-0.095115441	 0.132577
H	 0.3024413063	 0.4657032912	 1.2557240176	 0.145381
H	-4.4366805874	-1.0872784177	 0.9996107485	 0.127078
H	-5.3490490897	-1.7023898524	-1.0449310392	 0.252201
H	-4.788213345	-3.4246894144	 0.4268591991	 0.139543
19.9255	60.4201	96.0861	167.4072	212.5353	251.1221	290.2202	355.6909	442.5842	462.4696	562.0911	608.3275	631.1023	732.3117	821.2671	879.1358	911.082	959.9442	983.8747	1045.3455	1073.827	1138.8917	1191.2976	1200.9931	1215.9426	1252.1075	1363.9953	1399.168	1417.4854	1439.6478	1487.3709	2364.6077	2366.6301	2987.2847	3067.626	3124.6001	3147.8041	3507.838	3814.781
OCC#CC1NC1C#N	OCC#C[C@H]1N[C@H]1C#N	
InChI=1S/C6H6N2O/c7-4-6-5(8-6)2-1-3-9/h5-6,8-9H,3H2	InChI=1S/C6H6N2O/c7-4-6-5(8-6)2-1-3-9/h5-6,8-9H,3H2/t5-,6+/m1/s1
