23
gdb 42039	2.77781	1.40672	1.03903	1.2304	85.05	-0.2417	0.0787	0.3204	1218.4747	0.208907	-388.287764	-388.279619	-388.278675	-388.320526	32.643	
C	-0.0630866598	 1.5437301323	-0.1807164194	-0.23695
C	 1.4578466561	 1.6458287643	 0.1128618627	-0.23993
C	 1.4410523235	 0.1890679415	 0.6662590498	 0.009992
C	 1.5588366003	 0.0587687158	 2.183648537	-0.216963
C	 1.3471232713	-1.3709865475	 2.7012263328	-0.071608
O	-0.0034389928	-1.7841764927	 2.7762632785	-0.24166
C	-0.6727794103	-1.9778390835	 1.5426920912	-0.070063
C	-1.0932462158	-0.6661032067	 0.863611523	-0.230056
C	 0.0109335075	 0.0068421126	 0.0483802973	 0.037695
H	-0.6702689709	 2.0404624303	 0.5825623999	 0.097839
H	-0.4052826591	 1.8856500647	-1.1606500421	 0.094714
H	 2.0598419098	 1.744904302	-0.7942347889	 0.097137
H	 1.7706017885	 2.4236529478	 0.8153047987	 0.09397
H	 2.1932122626	-0.466013434	 0.2124262913	 0.061167
H	 2.5650843993	 0.3835968997	 2.482669334	 0.092576
H	 0.8533729445	 0.7237667422	 2.6977171645	 0.100436
H	 1.9286914847	-2.07705645	 2.0820571091	 0.079487
H	 1.7218063496	-1.4499525562	 3.7271931077	 0.101262
H	-0.0562948624	-2.5882142896	 0.8604283939	 0.08053
H	-1.5629989204	-2.5644721279	 1.7929563941	 0.101795
H	-1.9527507978	-0.8635605789	 0.2094239581	 0.090868
H	-1.4553123016	 0.0032492168	 1.6534554703	 0.101525
H	 0.1066374931	-0.513812883	-0.9112907734	 0.066238
66.8525	149.1294	218.0347	269.6703	304.2909	360.9324	384.2565	417.4478	524.8334	548.0754	649.5725	737.2441	754.5263	836.4251	865.0535	890.3576	928.1766	948.5653	968.8018	994.3821	1009.7049	1013.8772	1030.2487	1063.5433	1109.9057	1142.7104	1154.8544	1168.7696	1204.0563	1224.0821	1238.7526	1265.2629	1270.4533	1279.1096	1292.956	1303.7719	1334.272	1342.0108	1359.8475	1385.1592	1391.5623	1402.2514	1423.6059	1470.6389	1478.9638	1484.9867	1487.6214	1498.1193	1499.3639	2948.7507	2960.4957	3010.8602	3016.3175	3020.1359	3034.4283	3047.599	3055.2614	3056.8379	3064.637	3065.9306	3069.0048	3091.8727	3110.2362
C1CC2CCOCCC12	C1C[C@H]2CCOCC[C@@H]12	
InChI=1S/C8H14O/c1-2-8-4-6-9-5-3-7(1)8/h7-8H,1-6H2	InChI=1S/C8H14O/c1-2-8-4-6-9-5-3-7(1)8/h7-8H,1-6H2/t7-,8+
