15
gdb 34953	3.66151	1.55575	1.34786	4.6618	68.17	-0.2505	0.0285	0.2791	927.3704	0.115342	-416.75071	-416.744422	-416.743478	-416.781438	25.324	
N	-0.0530652965	-1.1411683611	-0.0662297221	-0.333316
C	-0.007611244	 0.0093536821	 0.0334101803	 0.287126
C	 0.0370311506	 1.4617416185	 0.0747702156	-0.130972
C	-0.3355014605	 2.0907379225	 1.4399718797	-0.087513
N	 0.6718078458	 1.4084314499	 2.3165697367	-0.31281
C	 1.647454075	 2.3015619117	 1.6487257183	-0.053782
C	 0.6144566417	 3.3880494301	 1.3216410124	 0.078698
O	 1.0604924478	 3.526494344	-0.0301131509	-0.280979
C	 1.4466308879	 2.1315560121	 0.0844209823	 0.057706
H	-0.5329983071	 1.8761580289	-0.7597053117	 0.134481
H	-1.3774456088	 2.0999520037	 1.7506104995	 0.097726
H	 0.5538553821	 1.7265738145	 3.2773744941	 0.229443
H	 2.6477586807	 2.443343166	 2.0513498557	 0.099943
H	 0.3888142618	 4.3091242246	 1.8571231911	 0.102126
H	 2.2076128937	 1.8060987725	-0.6201296911	 0.112121
143.6848	156.5985	384.1802	444.2422	483.4366	523.804	576.7498	715.235	754.5684	771.1636	842.4031	845.797	873.8916	902.6897	926.8879	955.3794	975.443	1002.3269	1018.2531	1046.3988	1083.9932	1122.8084	1150.4222	1161.389	1170.4627	1210.1277	1240.4175	1261.3475	1303.5936	1321.4248	1350.8788	1357.7438	2361.6231	3098.0436	3134.8792	3152.5605	3157.5643	3167.0008	3479.8732
N#CC1C2NC3C2OC13	N#C[C@H]1[C@H]2N[C@@H]3[C@H]2O[C@H]13	
InChI=1S/C6H6N2O/c7-1-2-3-6-4(8-3)5(2)9-6/h2-6,8H	InChI=1S/C6H6N2O/c7-1-2-3-6-4(8-3)5(2)9-6/h2-6,8H/t2-,3+,4-,5+,6-/m0/s1
