18
gdb 120571	4.20364	0.74021	0.69174	3.7854	74.25	-0.2801	0.0059	0.286	1618.4771	0.144859	-439.073618	-439.063541	-439.062597	-439.109362	35.153	
C	 0.1122243258	 1.502751969	-0.2014289805	-0.468405
C	-0.0373323321	 0.0320109259	 0.12084454	 0.220164
O	 1.1562085741	-0.7583773621	 0.1687809492	-0.270692
C	 0.4114022492	-0.6060979075	 1.3841417888	 0.020819
C	 1.0625667294	 0.1255380603	 2.5284301439	-0.229714
C	 2.13335759	-0.7313006828	 3.2025005563	-0.067063
O	 2.6500611687	 0.0218003225	 4.2856119982	-0.419261
C	-1.1452331134	-0.6148353816	-0.5729166737	 0.255849
N	-2.0385569153	-1.1018449946	-1.1211045255	-0.330521
H	 0.9631316142	 1.9295000357	 0.3292782479	 0.143494
H	 0.2739557123	 1.6324173255	-1.2752110988	 0.151292
H	-0.7946567349	 2.0484561631	 0.0749966974	 0.145924
H	-0.1242529582	-1.5137591828	 1.6694573736	 0.113132
H	 1.5230271745	 1.0582784916	 2.195177317	 0.119944
H	 0.297400372	 0.3820446448	 3.2708124305	 0.123685
H	 1.6897667099	-1.6800437188	 3.5463689406	 0.091467
H	 2.9149337151	-0.9795365471	 2.4688594886	 0.1092
H	 3.3554141889	-0.4854201811	 4.6978098067	 0.290688
58.1424	86.68	100.1228	154.8219	157.5987	209.6897	259.0916	268.1096	337.6001	377.4214	413.8891	504.7998	581.4205	615.5329	686.7876	788.6389	840.3388	891.3778	951.1394	1010.961	1060.0306	1080.0408	1103.8143	1129.1777	1141.6597	1227.2072	1239.2403	1247.8541	1311.8284	1328.5361	1341.094	1414.6525	1458.8031	1462.5315	1474.6621	1485.5847	1499.6546	1529.9117	2356.9533	2968.1775	3007.8014	3049.0802	3055.0789	3091.7182	3115.6405	3121.3708	3157.226	3832.2051
CC1(OC1CCO)C#N	C[C@]1(O[C@H]1CCO)C#N	
InChI=1S/C6H9NO2/c1-6(4-7)5(9-6)2-3-8/h5,8H,2-3H2,1H3	InChI=1S/C6H9NO2/c1-6(4-7)5(9-6)2-3-8/h5,8H,2-3H2,1H3/t5-,6-/m0/s1
