16
gdb 129669	2.99441	1.39295	1.00479	4.9484	72.38	-0.2214	-0.0135	0.2079	1143.8721	0.124208	-434.036136	-434.027921	-434.026977	-434.06956	30.636	
N	-0.131250263	 1.263733566	 0.4406976571	-0.587602
C	-0.0695140755	-0.0479457901	 0.0734993915	 0.383873
C	-1.0824083935	-0.9255994556	-0.2727057722	 0.164037
N	-0.4483226713	-2.0900980279	-0.6115714077	-0.142833
N	 0.7888379334	-2.0381412092	-0.5108746949	-0.050479
O	 1.1036830785	-0.6269133936	-0.0357760064	-0.236381
C	-2.5393084707	-0.7020365683	-0.3174874756	-0.14183
C	-3.4736118282	-1.727858756	 0.2717622844	-0.246722
C	-3.3004779157	-0.4072855561	 0.9686060049	-0.26935
H	 0.6661873194	 1.6211189906	 0.9440395828	 0.272885
H	-1.0256593087	 1.5718010825	 0.7908723836	 0.27281
H	-2.9114042954	-0.1854832703	-1.1998828261	 0.101902
H	-4.404959767	-1.9167207152	-0.2490464774	 0.11827
H	-3.0233623578	-2.6041770015	 0.7223732906	 0.132654
H	-2.7388042993	-0.400437631	 1.8966368403	 0.113842
H	-4.1121102852	 0.310495336	 0.9252776251	 0.114924
39.652	145.3515	152.9112	268.5375	277.0373	368.7669	388.759	416.2504	509.101	566.0431	617.6919	669.2275	736.8777	764.5029	804.8643	835.0838	914.6746	925.3994	971.5902	1057.5052	1082.1029	1085.4175	1093.2207	1132.0252	1200.0335	1209.2654	1230.6634	1307.3168	1397.8335	1469.0365	1491.7132	1497.6369	1508.7792	1603.5347	1658.3558	3117.4381	3132.2598	3147.8226	3216.3417	3237.0673	3580.8194	3692.3769
NC1=C(N=NO1)C1CC1	Nc1c(nno1)C1CC1	
InChI=1S/C5H7N3O/c6-5-4(3-1-2-3)7-8-9-5/h3H,1-2,6H2	InChI=1S/C5H7N3O/c6-5-4(3-1-2-3)7-8-9-5/h3H,1-2,6H2
