17
gdb 85330	2.45231	1.7117	1.16743	3.4413	67.52	-0.2353	-0.034	0.2013	1037.8338	0.136447	-458.959998	-458.952182	-458.951237	-458.99258	29.598	
O	-0.0245809182	 1.4066254383	-0.078971766	-0.431012
C	 0.0437701401	 0.0001132675	 0.0667356208	 0.100689
C	 0.6139672281	-0.4906509974	 1.4145473853	-0.371714
C	-0.0482779243	-1.8540596857	 1.616732096	 0.403929
O	 0.4279309682	-2.8241315072	 2.1423574497	-0.304547
C	-1.4394112362	-1.7678595157	 0.971698046	 0.015477
O	-2.3331949585	-1.0443420506	 1.8523220439	-0.297514
C	-2.4097009188	 0.0726044194	 0.9298174541	-0.076549
C	-1.3829842117	-0.5781145074	-0.016689087	-0.090938
H	 0.8707947452	 1.7587472575	-0.0598282666	 0.289535
H	 0.6402234456	-0.4396138929	-0.7478971038	 0.081249
H	 1.7023857479	-0.5607952823	 1.4564698376	 0.120266
H	 0.2773447352	 0.1800241444	 2.2150621541	 0.14658
H	-1.8369120233	-2.7402791498	 0.6690331556	 0.091665
H	-3.4191088921	 0.1751795354	 0.516273499	 0.108623
H	-2.1059894346	 1.0182380287	 1.3878670233	 0.124195
H	-1.7122899126	-0.7333130422	-1.0429933319	 0.090067
89.9563	110.7054	229.1473	244.0021	274.8073	343.3401	455.3251	491.1384	538.5955	570.9198	666.3361	785.977	802.8096	867.5237	887.7164	926.825	969.3432	986.5766	1021.496	1048.7998	1093.6998	1109.8292	1154.1423	1170.9506	1179.3427	1218.8859	1236.3218	1245.9366	1265.0284	1288.9135	1334.9589	1346.6407	1378.3709	1422.5409	1457.2123	1526.616	1855.2604	2975.8177	3036.2473	3044.2404	3080.0707	3093.4798	3121.6145	3123.7659	3822.1741
OC1CC(=O)C2OCC12	O[C@H]1CC(=O)[C@H]2OC[C@@H]12	
InChI=1S/C6H8O3/c7-4-1-5(8)6-3(4)2-9-6/h3-4,6-7H,1-2H2	InChI=1S/C6H8O3/c7-4-1-5(8)6-3(4)2-9-6/h3-4,6-7H,1-2H2/t3-,4-,6-/m0/s1
