13
gdb 20395	5.00088	2.13585	1.52814	5.8562	59.2	-0.2167	-0.0063	0.2104	762.2604	0.099044	-394.759431	-394.753524	-394.75258	-394.789735	21.935	
C	 0.0446383602	 1.3578488307	-0.1549168616	-0.082955
C	 1.4970817674	 1.8936881278	 0.1541700697	-0.376947
C	 2.113464324	 0.6054288304	 0.586727005	 0.260069
C	 1.1603043011	-0.3609262821	 0.7122339882	 0.409685
O	-0.101453793	 0.0171898712	 0.3975736235	-0.272426
N	 1.6763870706	-1.5142661715	 1.1665402002	-0.298426
N	 2.9672328113	-1.3065071493	 1.3429490179	-0.126603
N	 3.2357649429	-0.0207028435	 1.001721868	-0.316236
H	-0.7368659163	 1.9815266626	 0.2822999616	 0.131024
H	-0.1149449829	 1.2908178031	-1.2357336191	 0.128058
H	 1.9428490426	 2.3476224801	-0.7358763496	 0.130836
H	 1.4949121482	 2.651856207	 0.9465480313	 0.132806
H	 4.1868007842	 0.3034862935	 1.0670187449	 0.281114
93.6094	200.8971	316.6849	456.542	538.6271	622.382	694.2949	724.8348	740.3251	781.926	840.2673	920.3885	992.0836	1027.6996	1037.1284	1075.3172	1173.0031	1194.9894	1202.5465	1248.8548	1284.9043	1368.2701	1375.1701	1422.2486	1491.4051	1515.6374	1557.9909	1633.0741	3028.9529	3052.2739	3076.1727	3121.8306	3665.1637
C1CC2=C(O1)N=NN2	C1Cc2c(O1)nn[nH]2	
InChI=1S/C4H5N3O/c1-2-8-4-3(1)5-7-6-4/h1-2H2,(H,5,6,7)	InChI=1S/C4H5N3O/c1-2-8-4-3(1)5-7-6-4/h1-2H2,(H,5,6,7)
