16
gdb 48431	2.35551	1.34518	1.04907	2.6824	70.19	-0.2632	-0.0374	0.2258	1159.8858	0.122056	-437.877203	-437.86835	-437.867406	-437.91158	31.656	
O	-0.4241749244	 0.1733835432	 0.2587530678	-0.279846
C	 0.4164975457	 0.78333325	-0.3557549093	 0.124321
C	 1.1292161326	 1.9847856428	 0.1443441234	 0.323165
C	 2.5843704291	 2.164929739	-0.2967040854	-0.318923
C	 1.5178023203	 3.0297842827	-0.8822758893	-0.31116
O	 0.7227187715	 2.5036770301	 1.3732471715	-0.276117
C	 0.9257956764	 1.6686760854	 2.5020168979	-0.217127
C	 2.3415443024	 1.5769282255	 2.903758115	 0.257417
N	 3.4516260899	 1.5077992593	 3.2170025868	-0.311505
H	 0.7344437651	 0.4721452417	-1.3770632968	 0.084339
H	 3.2405955238	 2.5946293631	 0.4490286083	 0.163892
H	 3.0302608141	 1.3875090976	-0.9072714167	 0.134781
H	 1.2077973593	 2.8708424751	-1.9090440771	 0.133388
H	 1.4392737746	 4.0506063917	-0.5279975101	 0.150628
H	 0.361980393	 2.128488427	 3.3183649233	 0.163851
H	 0.5251183768	 0.6646953258	 2.3349992206	 0.178898
37.448	102.486	148.8913	206.7082	239.0288	288.9991	332.2027	356.9943	378.1367	471.1942	546.8966	634.4118	771.7819	790.6167	831.2687	892.242	909.8358	963.9293	987.8098	1038.7461	1053.2477	1065.6254	1092.2592	1097.5143	1196.7444	1272.5311	1287.4225	1324.1596	1392.3148	1434.1128	1455.0053	1480.8529	1487.2961	1813.3457	2356.6622	2873.6891	3069.1157	3114.3203	3145.2813	3149.6119	3235.1722	3250.3615
O=CC1(CC1)OCC#N	O=CC1(CC1)OCC#N	
InChI=1S/C6H7NO2/c7-3-4-9-6(5-8)1-2-6/h5H,1-2,4H2	InChI=1S/C6H7NO2/c7-3-4-9-6(5-8)1-2-6/h5H,1-2,4H2
