19
gdb 77432	2.34325	1.4944	1.20155	4.0009	77.34	-0.2363	-0.0062	0.2301	1117.8546	0.156457	-423.023932	-423.014329	-423.013385	-423.057957	35.46	
C	-0.0458841967	 1.5656717192	 0.1626678515	-0.505642
C	 0.0509078946	 0.0722648447	 0.0710657457	 0.241555
C	 0.5602128863	-0.7164990678	-1.1460754989	-0.427893
C	 1.3100394776	-1.6366331939	-0.1500248559	 0.375736
O	 2.1721155943	-2.4597649995	-0.2927876614	-0.32311
C	 0.7624595238	-0.9398145897	 1.0539355207	 0.147331
C	 1.4530008743	-0.7999724834	 2.3792709804	-0.505413
C	-0.758526274	-0.8668167537	 0.9056158618	 0.003958
O	-1.375243413	-0.3621435492	 2.0542661249	-0.424431
H	 0.9097779997	 2.0443531998	-0.0755576419	 0.128213
H	-0.7912711653	 1.9536620187	-0.5429810899	 0.122684
H	-0.3401823747	 1.8734844284	 1.169412929	 0.132381
H	-0.1938440389	-1.1761222948	-1.7944711942	 0.113456
H	 1.2754778495	-0.1655508246	-1.7649074344	 0.130737
H	 1.6346918645	-1.7900477248	 2.8110997131	 0.138928
H	 2.4236035861	-0.3062636211	 2.2693931674	 0.124888
H	 0.8419773771	-0.2301745263	 3.0812865781	 0.141845
H	-1.3007457805	-1.6920472218	 0.4368530224	 0.090085
H	-2.1883465048	 0.0789846398	 1.7863036017	 0.294691
95.7375	115.9549	156.2834	187.1874	224.3822	250.4102	258.2524	292.9856	311.5168	426.41	501.421	544.0545	567.7243	627.4412	664.4526	679.4415	797.239	857.043	957.2397	978.8804	1008.0657	1050.3093	1080.3583	1095.6382	1110.5298	1137.9049	1186.4911	1203.4671	1244.7663	1268.2299	1349.4788	1368.1863	1406.4295	1420.4815	1436.1982	1464.8876	1488.9922	1489.9484	1495.7073	1499.2668	1870.1622	3024.1366	3040.2407	3041.0739	3057.8934	3082.5153	3097.4525	3098.0181	3117.5337	3138.7162	3809.3493
CC12CC(=O)C1(C)C2O	C[C@@]12CC(=O)[C@]1(C)[C@H]2O	
InChI=1S/C7H10O2/c1-6-3-4(8)7(6,2)5(6)9/h5,9H,3H2,1-2H3	InChI=1S/C7H10O2/c1-6-3-4(8)7(6,2)5(6)9/h5,9H,3H2,1-2H3/t5-,6-,7+/m0/s1
