17
gdb 52292	3.8009	0.90807	0.76108	4.4866	71.3	-0.2491	0.0171	0.2662	1428.0412	0.13693	-455.191573	-455.182757	-455.181813	-455.2264	31.057	
O	-0.1570818811	 0.4988878313	 0.8919325768	-0.328034
C	 0.0174070992	 1.3119376522	 0.0075066187	 0.15474
N	 1.2014279556	 1.5560837488	-0.6119086673	-0.277601
C	 2.4376641309	 0.8951460332	-0.232394379	-0.178823
C	 3.5222415066	 1.939890486	 0.0227730905	-0.153845
C	 5.0159893378	 1.4980841401	-0.020255397	-0.187093
N	 5.1792102993	 2.401968341	-1.1678587422	-0.321987
C	 3.8651169085	 2.7793278507	-1.2320580763	 0.440224
O	 3.2275895279	 3.4488493464	-2.0074696576	-0.376043
H	-0.7933400539	 1.9500304849	-0.3950768141	 0.078469
H	 1.2634254676	 2.2881903125	-1.3063643878	 0.26918
H	 2.2234014897	 0.2998650796	 0.6579108065	 0.15084
H	 2.7656524625	 0.2078613541	-1.0249454411	 0.111512
H	 3.2685852471	 2.5581062544	 0.8870928729	 0.117099
H	 5.6156488022	 1.7679562106	 0.8530322317	 0.123384
H	 5.1705588565	 0.4415321523	-0.2626402294	 0.121614
H	 5.9459845536	 2.5470212418	-1.8084084455	 0.256364
40.6144	85.0477	113.8856	168.4504	210.088	289.1883	308.6409	396.2808	475.8541	507.0643	630.0746	718.1884	754.1976	771.5293	854.9627	891.8764	959.5677	986.1794	1034.2907	1058.467	1080.5036	1133.8354	1166.0568	1188.1803	1196.5391	1227.095	1261.4041	1295.5006	1328.2133	1393.0624	1397.302	1427.861	1505.4833	1525.2758	1543.533	1801.4641	1872.5107	2944.8613	3005.9092	3046.4486	3089.8308	3102.0925	3115.2753	3594.6028	3608.0227
O=CNCC1CNC1=O	O=CNC[C@H]1CNC1=O	
InChI=1S/C5H8N2O2/c8-3-6-1-4-2-7-5(4)9/h3-4H,1-2H2,(H,6,8)(H,7,9)	InChI=1S/C5H8N2O2/c8-3-6-1-4-2-7-5(4)9/h3-4H,1-2H2,(H,6,8)(H,7,9)/t4-/m0/s1
