19
gdb 48771	3.34146	1.35539	1.19994	2.9579	79.28	-0.2467	-0.0206	0.2261	1085.8786	0.160383	-385.886187	-385.87859	-385.877646	-385.918124	30.312	
O	-0.077727212	 0.0568621598	-0.4425814635	-0.28039
C	 0.0446344035	 1.1284332889	 0.1057092835	 0.062525
C	 1.2726429771	 1.9519060184	 0.0781493145	 0.262408
C	 2.2568145477	 1.6949355887	-1.054944087	-0.332501
C	 2.6322687497	 1.2505881546	 0.3144766332	-0.053797
C	 3.465981905	 2.1462805255	 1.2349287238	-0.256965
C	 2.6297378609	 3.3944532782	 1.5410777952	-0.028848
C	 2.2719001408	 4.3492986125	 0.4298156091	-0.306882
C	 1.2977153494	 3.2676545579	 0.8265391573	-0.124793
H	-0.7930212227	 1.5616069265	 0.6989442074	 0.068773
H	 1.9475665943	 0.9190383749	-1.7471491221	 0.139612
H	 2.7501107038	 2.5452569286	-1.5100215531	 0.11856
H	 2.6236630505	 0.181978951	 0.5006097003	 0.109899
H	 3.6674401001	 1.6095746482	 2.167347127	 0.111062
H	 4.4400611769	 2.3919209884	 0.7955793072	 0.110448
H	 2.6882302571	 3.7980702684	 2.5461623342	 0.088634
H	 2.0202802874	 5.3642073233	 0.7202000222	 0.113185
H	 2.7903580704	 4.2908149377	-0.5200917175	 0.114462
H	 0.3691849803	 3.5636034887	 1.3041935483	 0.084607
104.3268	174.674	208.8161	261.578	310.1762	405.8337	430.0722	522.7227	655.1406	673.9268	724.9011	774.0503	805.1136	821.2504	851.6732	868.9447	913.17	958.8444	992.1245	1021.495	1028.0959	1055.8488	1063.2003	1078.5232	1095.3423	1105.3813	1110.7716	1138.1641	1201.9263	1211.8007	1221.6872	1278.2541	1310.796	1347.211	1386.4823	1398.6602	1435.6533	1470.7171	1487.329	1503.4944	1798.7405	2865.762	3037.6425	3078.191	3132.4431	3141.3397	3155.9918	3165.6837	3171.4178	3214.689	3230.0522
O=CC12CC1CC1CC21	O=C[C@]12C[C@H]1C[C@H]1C[C@@H]21	
InChI=1S/C8H10O/c9-4-8-3-6(8)1-5-2-7(5)8/h4-7H,1-3H2	InChI=1S/C8H10O/c9-4-8-3-6(8)1-5-2-7(5)8/h4-7H,1-3H2/t5-,6+,7+,8+/m0/s1
