21
gdb 96163	2.63555	1.53929	1.06954	1.757	78.92	-0.237	0.0847	0.3217	1173.7073	0.183544	-424.220457	-424.21221	-424.211266	-424.252886	32.853	
C	 0.0187349909	 1.5055890461	 0.0296756982	-0.40239
C	 0.0091123814	-0.0108779075	 0.0093703286	 0.218571
O	 0.7132321816	-0.4184126197	-1.1346301537	-0.240562
C	 0.6354046471	-1.7951935888	-1.4742337336	-0.06835
C	 1.3890895095	-2.7042284054	-0.4953770184	-0.227294
C	 0.6321478096	-2.9288060622	 0.8047094518	-0.046019
C	 1.2787199352	-2.6463475885	 2.1476382712	-0.326554
C	 0.2148270877	-1.7322133271	 1.6228852419	 0.110175
O	 0.6198871676	-0.4591930054	 1.210188135	-0.254147
H	 1.050587804	 1.8590750508	 0.1001740558	 0.135193
H	-0.4279769574	 1.8980332361	-0.8863776652	 0.121962
H	-0.5400789785	 1.8728963472	 0.8932423191	 0.120313
H	-1.0203108975	-0.4100615777	-0.0331175749	 0.052207
H	-0.4190441005	-2.108749336	-1.5516317512	 0.08492
H	 1.0787705745	-1.8667741372	-2.472657065	 0.103563
H	 1.5799727057	-3.6700958304	-0.978877927	 0.097398
H	 2.3653156501	-2.2476632173	-0.3038294287	 0.114919
H	-0.0839714901	-3.7461641952	 0.7780835563	 0.084979
H	 1.0460721603	-3.2830847502	 2.9938537699	 0.111845
H	 2.2916390956	-2.2589755749	 2.1320679278	 0.126016
H	-0.7644469568	-1.7514521968	 2.1018712321	 0.083253
131.4043	152.5064	209.8804	259.4183	285.2518	340.1755	365.9521	390.2254	455.5089	537.4072	578.3017	655.4311	759.2683	794.899	823.6475	854.3522	894.3537	932.0665	971.6924	992.8177	1041.677	1053.7657	1067.0906	1090.8409	1114.8888	1131.1823	1142.4662	1153.1994	1171.4976	1192.5483	1250.4863	1257.4287	1299.9066	1348.3436	1370.19	1379.6954	1406.7189	1409.3955	1423.1698	1427.1408	1468.5006	1481.7847	1485.1761	1490.0625	1496.3078	2940.2256	2970.6508	3033.0851	3057.2452	3074.2585	3084.1894	3092.4391	3134.5327	3137.451	3138.5648	3140.6144	3225.0874
CC1OCCC2CC2O1	C[C@H]1OCC[C@H]2C[C@H]2O1	
InChI=1S/C7H12O2/c1-5-8-3-2-6-4-7(6)9-5/h5-7H,2-4H2,1H3	InChI=1S/C7H12O2/c1-5-8-3-2-6-4-7(6)9-5/h5-7H,2-4H2,1H3/t5-,6-,7+/m0/s1
