15
gdb 67420	2.80362	1.56966	1.29082	1.1576	73.49	-0.2245	0.0143	0.2388	997.9953	0.11094	-420.513538	-420.505971	-420.505027	-420.545305	29.929	
O	-0.1352049803	 1.4155212493	 0.0904746655	-0.437206
C	 0.0039055951	 0.0645208233	 0.0185798921	 0.253058
C	-1.0515803201	-1.0018008407	-0.0748758103	-0.202585
C	-0.4057388286	-1.6336519032	-1.3037553748	-0.231307
C	 0.9048620517	-0.971323126	-0.8065361177	-0.034414
O	 1.2148451813	-1.6918234941	 0.4127456089	-0.324646
C	 0.0863498572	-1.060753546	 1.0211939902	 0.287965
C	-0.1492341694	-1.1304866541	 2.4135415367	 0.139993
C	-0.3491794487	-1.1653078121	 3.5998448681	-0.370617
H	 0.626369808	 1.7829312027	 0.5556734905	 0.301783
H	-2.0902842121	-0.9468755953	 0.2221360277	 0.111788
H	-0.3836256444	-2.722875507	-1.3936254149	 0.110699
H	-0.7731087862	-1.1714162429	-2.2234887869	 0.113882
H	 1.7708962728	-0.7943658485	-1.4397916764	 0.094226
H	-0.5273663964	-1.2052184254	 4.6458649313	 0.187382
112.8636	155.8957	251.1532	318.675	376.9262	404.1166	473.8725	504.5845	550.2833	556.7711	592.279	692.2634	698.9749	715.4463	798.7843	860.7854	913.9325	938.5474	951.7488	972.677	1015.2013	1071.1361	1092.5215	1124.3793	1130.9167	1211.3225	1259.4333	1270.4232	1291.7604	1351.3528	1471.3561	1497.9232	2233.3841	3059.7374	3122.5256	3154.8345	3217.5247	3501.6014	3779.058
OC12C3CC1OC23C#C	O[C@@]12[C@H]3C[C@@H]1O[C@@]23C#C	
InChI=1S/C7H6O2/c1-2-6-4-3-5(9-6)7(4,6)8/h1,4-5,8H,3H2	InChI=1S/C7H6O2/c1-2-6-4-3-5(9-6)7(4,6)8/h1,4-5,8H,3H2/t4-,5-,6+,7-/m0/s1
