18
gdb 65169	2.51712	1.32163	1.18771	3.016	78.08	-0.2376	0.0242	0.2617	1144.9157	0.145168	-401.859771	-401.850672	-401.849727	-401.893818	34.023	
C	 0.0311446177	 1.4544508679	-0.8186114287	-0.474632
C	-0.0010084384	 0.1112972274	-0.1184326941	 0.266936
C	 1.1000748862	-0.8654908429	-0.3461908748	-0.274048
N	 0.9637864089	-0.1737323064	 0.9468397005	-0.324002
C	-1.3920122702	-0.4172449051	 0.1018603549	 0.035905
O	-1.569318916	-1.5160355361	 0.9767791643	-0.236827
C	-2.1555154154	-0.2589304296	 1.3624772196	-0.176416
C	-1.6529179863	 0.4167638431	 2.5274337253	 0.356434
C	-1.3336850581	 1.018574301	 3.5177164246	-0.420158
H	 1.0600741686	 1.750031063	-1.0458219277	 0.117372
H	-0.5240513191	 1.4273730671	-1.7631832948	 0.124687
H	-0.417896634	 2.2313644887	-0.189738472	 0.134596
H	 0.8907971784	-1.9304407089	-0.3047650008	 0.130047
H	 1.9034188563	-0.5775894337	-1.0199186763	 0.108051
H	 1.6316875395	 0.5901022879	 1.0152039362	 0.22841
H	-1.9867454884	-0.4719816573	-0.8145457704	 0.09137
H	-3.2430484972	-0.2507891729	 1.2802903987	 0.114483
H	-1.0215310723	 1.5347099268	 4.3916908055	 0.197791
47.6629	107.8993	171.2471	210.9203	241.3567	251.2898	321.8007	365.6611	430.217	499.066	558.6289	596.331	623.1293	662.9641	725.1456	823.1769	832.2269	877.4335	923.9081	954.0875	969.3115	989.6749	1021.9647	1061.083	1109.083	1114.9411	1149.2349	1155.0798	1260.1986	1279.4183	1303.2394	1377.0684	1392.4792	1417.0051	1460.2651	1486.2188	1502.1846	1510.5397	2239.8031	3027.0625	3066.7501	3090.4971	3101.1348	3104.8163	3106.9645	3196.7273	3500.7517	3503.9162
CC1(CN1)C1OC1C#C	C[C@]1(CN1)[C@H]1O[C@H]1C#C	
InChI=1S/C7H9NO/c1-3-5-6(9-5)7(2)4-8-7/h1,5-6,8H,4H2,2H3	InChI=1S/C7H9NO/c1-3-5-6(9-5)7(2)4-8-7/h1,5-6,8H,4H2,2H3/t5-,6-,7-/m0/s1
