16
gdb 64806	2.55925	1.28826	1.01183	2.62	69.73	-0.2807	-0.093	0.1877	1176.0514	0.121755	-437.884717	-437.875601	-437.874657	-437.919524	32.797	
O	 1.3496398196	 0.7213605985	 0.2497558914	-0.466937
C	 0.2566436052	-0.1064784681	-0.0275280315	 0.395229
C	 0.5815062158	-1.3180450826	-0.9022213635	-0.375664
C	 0.6318046482	-1.0050822125	-2.3808252623	 0.311843
O	 0.0953315774	-1.6448476829	-3.2483192885	-0.258574
C	 1.4033388508	 0.2115374416	-2.7473564315	 0.23522
N	 1.9934460026	 1.1712557173	-3.0105182088	-0.318173
C	-0.6979059178	-0.278228851	 1.1160237714	-0.301142
C	-1.1165416515	 0.5206321841	-0.1011962228	-0.321278
H	 1.5179443873	 1.2902481249	-0.5109249838	 0.298208
H	 1.5637635475	-1.7006539567	-0.5955590613	 0.152506
H	-0.152145708	-2.1186309875	-0.7810104253	 0.139581
H	-1.1493789265	-1.2500811663	 1.2803714918	 0.120214
H	-0.4553946737	 0.2752651659	 2.0152560583	 0.135891
H	-1.1665927607	 1.59842732	 0.0011115603	 0.128764
H	-1.8525379961	 0.0911779054	-0.773052414	 0.12431
34.793	76.027	126.5137	189.9274	266.2843	313.8679	335.0186	366.0466	394.6663	447.5427	489.2512	593.2306	643.8516	732.6838	772.5436	784.5961	902.4497	922.5735	942.7243	970.3141	1007.1566	1057.4771	1086.0029	1102.9236	1190.0019	1220.1317	1272.9398	1301.9422	1314.8822	1387.0593	1439.8562	1456.5369	1498.0323	1798.5581	2329.8383	3035.0588	3115.0559	3134.9705	3143.553	3222.981	3238.7478	3785.7439
OC1(CC(=O)C#N)CC1	OC1(CC(=O)C#N)CC1	
InChI=1S/C6H7NO2/c7-4-5(8)3-6(9)1-2-6/h9H,1-3H2	InChI=1S/C6H7NO2/c7-4-5(8)3-6(9)1-2-6/h9H,1-3H2
