15
gdb 27377	2.04413	1.81627	0.96279	5.1798	75.	-0.2017	0.003	0.2046	1144.1669	0.113825	-453.979277	-453.971292	-453.970348	-454.011514	30.843	
N	 0.1446577511	 1.3455438532	 0.1616521133	-0.571007
C	-0.026529828	-0.0209638886	 0.0443981035	 0.408816
C	-1.1782291923	-0.7124430197	 0.0139241339	-0.25832
C	-1.1968108374	-2.1695653419	-0.0068077061	 0.325264
N	-2.3233813583	-2.7971817797	-0.0240914735	-0.560165
C	 0.1350781155	-2.7714967413	-0.0140807032	-0.374433
C	 1.2294037862	-1.9985403015	-0.00428021	 0.471131
O	 2.4900447234	-2.4565271932	-0.0255333922	-0.409926
O	 1.2015960217	-0.6380018617	 0.0275246807	-0.271735
H	 0.9556240518	 1.7012903192	-0.3265731412	 0.256942
H	-0.6887488517	 1.8767614642	-0.0439675572	 0.26558
H	-2.1250685607	-0.1878185317	 0.0112394868	 0.102172
H	-2.1601053994	-3.8059634168	-0.0430706433	 0.197938
H	 0.2595327548	-3.8465470618	-0.032776791	 0.109819
H	 3.0883454632	-1.7022849188	 0.0403181096	 0.307922
156.3343	177.831	194.2377	273.4919	293.1168	329.4011	356.1442	504.3818	516.9649	559.6589	593.0243	631.752	645.4359	687.5447	706.1342	798.1472	848.4426	881.8802	931.6405	953.2133	1021.1169	1129.5091	1158.7024	1206.0699	1260.6591	1282.3923	1334.5969	1421.8376	1445.8466	1628.6244	1658.4389	1697.0117	1774.3357	3214.626	3215.9267	3441.4211	3558.7057	3666.6776	3808.1085
NC1=CC(=N)C=C(O)O1	N[C@@H]1C=C([NH])C=C(O)O1	
InChI=1S/C5H6N2O2/c6-3-1-4(7)9-5(8)2-3/h1-2,6,8H,7H2	InChI=1S/C5H7N2O2/c6-3-1-4(7)9-5(8)2-3/h1-2,4,6,8H,7H2/t4-/m0/s1
