17
gdb 91685	3.3308	1.30306	1.15035	5.5769	72.36	-0.246	0.0174	0.2634	1080.8374	0.138086	-417.9744	-417.966919	-417.965975	-418.006242	29.291	
O	-0.1588262715	 1.4039157403	-0.001230866	-0.43562
C	-0.0385888208	-0.0066128362	 0.0100212294	 0.097113
C	 0.4201276275	-0.6087407425	 1.3887131449	-0.215576
N	-0.778711953	-1.3792842436	 1.8327128033	-0.121989
C	-1.1290974363	-2.0589542373	 0.5145851544	-0.20931
C	-1.4344367958	-0.6396912452	-0.0159571963	-0.035957
C	-1.8642006644	-0.3690611051	 1.4610412017	-0.126149
C	-3.2012818143	-0.8127324194	 1.8288628895	 0.296458
N	-4.2759173431	-1.1340002222	 2.1074405405	-0.329858
H	 0.7226687005	 1.7876044038	 0.0349565225	 0.290105
H	 0.5754754261	-0.3539846661	-0.8315581752	 0.078252
H	 1.2731617457	-1.2868012604	 1.3112108694	 0.114554
H	 0.6537523342	 0.181963074	 2.1065807116	 0.114842
H	-0.3121270062	-2.6288065242	 0.0640798482	 0.109711
H	-2.0108992585	-2.6890741946	 0.6350735751	 0.144071
H	-2.07295282	-0.423208564	-0.8714525829	 0.094916
H	-1.6933817002	 0.6392849127	 1.8435234899	 0.134436
132.3849	161.8222	212.3393	262.3343	331.344	432.3994	469.9819	502.4459	534.6595	550.2373	694.7848	822.827	847.2961	855.2687	871.6495	908.336	954.7867	972.0023	1001.5564	1017.7277	1052.4414	1094.3383	1119.8955	1145.4678	1172.68	1185.3145	1246.6623	1249.6773	1264.0269	1279.1029	1309.9305	1324.2855	1367.3969	1424.5954	1490.9208	1522.1114	2359.8704	3012.1525	3064.0675	3070.3695	3100.8887	3120.5991	3131.9203	3141.5136	3826.28
OC1CN2CC1C2C#N	O[C@H]1CN2C[C@H]1[C@H]2C#N	
InChI=1S/C6H8N2O/c7-1-5-4-2-8(5)3-6(4)9/h4-6,9H,2-3H2	InChI=1S/C6H8N2O/c7-1-5-4-2-8(5)3-6(4)9/h4-6,9H,2-3H2/t4-,5+,6-/m0/s1
