17
gdb 43023	2.81485	1.87597	1.39392	3.1658	72.66	-0.2265	-0.0189	0.2076	939.8749	0.137279	-421.784912	-421.77821	-421.777266	-421.815796	27.566	
O	-0.1097368662	-0.0165264783	 0.0146607402	-0.318872
C	-0.0789165554	 1.1804108961	 0.0234466723	 0.419648
C	-1.2674396237	 2.1930362231	 0.0497376838	-0.042964
C	-0.8677713033	 3.3505676942	 1.0240268361	-0.345319
C	 0.2104082738	 3.4583483325	-0.0651919861	 0.424715
C	 1.3485160841	 4.2308482131	-0.7288499982	-0.339551
C	 1.9304122319	 2.8261509299	-1.1399925223	-0.25552
C	 1.0816160032	 2.191034691	 0.0176511933	-0.1428
O	-0.7929228887	 3.0208010255	-1.0530576797	-0.318893
H	-2.2796901188	 1.8072540354	-0.0533569558	 0.103434
H	-1.622203043	 4.1396465394	 1.0066209857	 0.122387
H	-0.5474608762	 3.1163015966	 2.0423790309	 0.110063
H	 1.0650351342	 4.9310399622	-1.5171233541	 0.119818
H	 1.989804384	 4.7335801238	-0.000671409	 0.117446
H	 1.5944676604	 2.5160817622	-2.1285557312	 0.136305
H	 3.0108098875	 2.7002023749	-1.0621951545	 0.110247
H	 1.6778287162	 2.0842063185	 0.9292411886	 0.099854
133.8532	248.1279	299.955	315.8625	441.0912	506.0699	555.2239	612.1819	655.5731	699.8343	774.4443	808.9081	833.1469	853.6744	871.3193	895.5492	938.473	971.1589	984.7727	1031.0361	1068.8137	1092.0032	1106.3341	1159.9735	1187.1125	1203.8316	1221.0106	1231.1951	1238.8541	1252.2529	1262.6202	1294.956	1322.6019	1469.0829	1481.8166	1486.2252	1876.6939	3063.2255	3067.299	3072.2738	3093.626	3128.7803	3135.3478	3152.8097	3159.3522
O=C1C2CC3(CCC13)O2	O=C1[C@H]2C[C@]3(CC[C@H]13)O2	
InChI=1S/C7H8O2/c8-6-4-1-2-7(4)3-5(6)9-7/h4-5H,1-3H2	InChI=1S/C7H8O2/c8-6-4-1-2-7(4)3-5(6)9-7/h4-5H,1-3H2/t4-,5-,7+/m1/s1
