19
gdb 63022	2.23179	1.76592	1.39907	1.7026	74.42	-0.235	-0.0237	0.2113	1022.0593	0.158544	-423.04768	-423.039189	-423.038245	-423.080378	33.349	
C	 0.0865341869	 1.5963166525	-0.0232998581	-0.442485
C	 0.0899899536	 0.0745503765	-0.0159340869	 0.294287
O	-1.2470104696	-0.4491979275	 0.0455429505	-0.476212
C	 0.7523716373	-0.6078046535	-1.1910796056	-0.04633
C	 2.2569322636	-0.552357638	-1.2728133113	-0.310666
C	 1.5899333264	-1.7736707801	-0.6935701646	-0.044023
C	 1.4984096155	-1.835463567	 0.8186112715	-0.331727
C	 0.8125256169	-0.5277205174	 1.2231874501	 0.338431
O	 0.765297709	-0.0524714777	 2.3289853053	-0.328064
H	 1.0926538712	 1.9955514099	-0.1800394686	 0.122071
H	-0.5648339002	 1.9646080717	-0.8207413584	 0.12151
H	-0.2739673148	 1.9726860661	 0.9398172026	 0.126894
H	-1.6695287185	-0.0580118185	 0.8197457499	 0.286558
H	 0.1732890402	-0.6821269858	-2.1038562044	 0.097114
H	 2.7010116466	-0.6355213281	-2.2582653945	 0.118823
H	 2.8007152442	 0.1097480924	-0.603281619	 0.115337
H	 1.6249996728	-2.7006032652	-1.2528514523	 0.091347
H	 0.860162657	-2.6657858555	 1.1455766081	 0.139364
H	 2.4560626818	-1.9381412549	 1.3379263657	 0.12777
75.1154	196.2508	206.4679	235.2802	290.1481	330.5895	356.7952	379.9347	454.6235	503.7218	562.7834	599.6709	660.9073	693.7277	807.7859	828.038	868.422	890.5242	929.9662	964.2946	1017.0544	1035.7751	1067.6489	1074.7132	1090.1224	1111.5141	1128.1954	1161.49	1189.0868	1198.9596	1228.7896	1283.5329	1335.703	1380.3119	1401.6216	1406.6155	1448.721	1486.1588	1492.3855	1495.1917	1840.6841	3039.0646	3040.3847	3088.7073	3111.1643	3117.575	3122.3981	3178.9555	3185.4041	3209.7079	3790.1226
CC1(O)C2CC2CC1=O	C[C@@]1(O)[C@H]2C[C@H]2CC1=O	
InChI=1S/C7H10O2/c1-7(9)5-2-4(5)3-6(7)8/h4-5,9H,2-3H2,1H3	InChI=1S/C7H10O2/c1-7(9)5-2-4(5)3-6(7)8/h4-5,9H,2-3H2,1H3/t4-,5-,7+/m0/s1
