19
gdb 40841	3.8986	1.09116	0.91149	2.6248	71.92	-0.2633	0.0861	0.3494	1287.8706	0.160088	-460.138222	-460.130196	-460.129252	-460.171387	30.335	
C	 0.1292007609	 1.4127237761	-0.0215170135	-0.174703
O	 1.1904367556	 0.4607701836	-0.12159434	-0.232181
C	-0.1449897975	-0.0250151163	-0.0168889125	 0.054933
C	-0.4889626372	-0.7365889641	 1.2658223866	 0.198016
O	-1.867570958	-0.5653360796	 1.497830489	-0.257238
C	-2.287387759	-1.2301348527	 2.6841124874	-0.075574
C	-1.9333603681	-2.7173626252	 2.6206191397	-0.206978
C	-0.4474659432	-2.846714309	 2.2801047353	-0.078103
O	-0.1422184168	-2.089289493	 1.1149671117	-0.25389
H	 0.0873339325	 1.9712794293	 0.9124384551	 0.116232
H	-0.0706904069	 1.9927595454	-0.9205466064	 0.118591
H	-0.5397991293	-0.5031650884	-0.9120339464	 0.107133
H	 0.0870029761	-0.2995885711	 2.1053981861	 0.058152
H	-1.8040917024	-0.7646144535	 3.5602900209	 0.089788
H	-3.3649592891	-1.0671839289	 2.7653896264	 0.113088
H	-2.1562314846	-3.2074065752	 3.5748889447	 0.09991
H	-2.5286598412	-3.2000666567	 1.8387105583	 0.116281
H	 0.1678559237	-2.4939497693	 3.1252231117	 0.091956
H	-0.1632447452	-3.8789448216	 2.0617967561	 0.114587
60.2884	115.7023	171.3265	254.4152	291.048	350.7014	442.5881	455.154	494.5992	532.9575	652.5228	854.3489	866.9443	883.8763	900.395	932.9808	945.2549	963.3407	1021.5551	1038.7982	1067.9276	1096.1893	1129.4579	1154.36	1163.0441	1176.6083	1203.2777	1239.6386	1263.3098	1281.7716	1299.9795	1351.5396	1367.4522	1371.7748	1407.9446	1415.1827	1469.013	1473.682	1495.0006	1505.4897	1535.7153	2914.2114	2960.9588	2969.2309	3044.3907	3088.8418	3091.2784	3095.4862	3101.0882	3131.5483	3176.2947
C1OC1C1OCCCO1	C1O[C@H]1C1OCCCO1	
InChI=1S/C6H10O3/c1-2-7-6(8-3-1)5-4-9-5/h5-6H,1-4H2	InChI=1S/C6H10O3/c1-2-7-6(8-3-1)5-4-9-5/h5-6H,1-4H2/t5-/m1/s1
