15
gdb 96699	2.80686	1.1332	0.92428	1.7593	72.48	-0.2627	-0.0389	0.2238	1280.9293	0.109343	-453.947722	-453.937874	-453.93693	-453.983319	34.211	
C	-0.4404353829	 1.8371310953	 0.2192175462	-0.333283
N	-0.7751967233	 0.4311553544	 0.1476799409	-0.235021
C	-0.052667234	-0.4300978284	 0.7150567871	 0.273716
O	-0.5067178402	-1.7433646703	 0.6881684167	-0.252627
C	 0.3242569815	-2.6843587528	 0.1228790617	 0.491981
N	-0.2029369163	-3.9210129239	 0.3362273027	-0.557777
O	 1.3505531683	-2.4320651214	-0.4516456675	-0.379432
C	 1.1348161209	-0.2156102759	 1.4876823607	 0.336243
C	 2.1068746306	 0.0028030152	 2.1615390453	-0.509929
H	 0.4673371319	 2.0635349333	 0.7912531976	 0.124592
H	-0.3240815832	 2.2162179457	-0.8019037649	 0.141678
H	-1.2865261621	 2.3752124186	 0.6609209804	 0.137549
H	-1.1561067257	-4.0001120375	 0.6471498227	 0.272597
H	 0.187445468	-4.6728554369	-0.2050949465	 0.274162
H	 2.9772870264	 0.1779687845	 2.7454177367	 0.215552
44.6854	69.7547	121.5836	129.9057	169.5114	260.1535	299.5409	324.7764	342.3213	395.1047	497.29	523.7606	606.6386	652.311	665.1423	674.9121	722.7317	769.374	809.6807	950.1326	1099.3491	1116.2283	1130.8246	1150.8817	1209.4157	1349.7747	1437.8614	1486.4446	1493.974	1611.857	1743.2818	1857.8892	2225.9356	3015.5963	3087.1506	3090.3553	3497.4026	3616.2593	3746.2853
CN=C(OC(N)=O)C#C	CN=C(OC(=O)N)C#C	
InChI=1S/C5H6N2O2/c1-3-4(7-2)9-5(6)8/h1H,2H3,(H2,6,8)	InChI=1S/C5H6N2O2/c1-3-4(7-2)9-5(6)8/h1H,2H3,(H2,6,8)
