17
gdb 72520	2.24795	1.90615	1.66862	1.3528	67.49	-0.2307	-0.0327	0.198	922.8091	0.135989	-458.967761	-458.960018	-458.959074	-458.999799	29.566	
C	 0.0395378573	 1.497556592	 0.0708875963	-0.4794
C	 0.0140464138	-0.0015153312	-0.0453529833	 0.262655
C	 0.6242887329	-0.6583276893	-1.2885320744	-0.109255
O	 0.0932029601	-2.0139785726	-1.2644067315	-0.290222
C	-0.7068782661	-2.1300517786	-0.0810231337	-0.038875
C	 0.2114633015	-2.0160445518	 1.1340050997	-0.090974
O	 0.6243172686	-0.6209351938	 1.1082256601	-0.323895
C	-1.3449732891	-0.7321194564	-0.0350258645	 0.407703
O	-2.4721697151	-0.3377761315	 0.0049258742	-0.318337
H	 1.0674226114	 1.8706641035	 0.0895220687	 0.131713
H	-0.4840134845	 1.9501716746	-0.7755932159	 0.133816
H	-0.4593711969	 1.8090204148	 0.9917219423	 0.142993
H	 0.3168188152	-0.168489475	-2.220379528	 0.113594
H	 1.7178867449	-0.6885785868	-1.2322038794	 0.115244
H	-1.3557585377	-2.999348165	-0.1487303438	 0.108786
H	-0.3051073564	-2.2266035409	 2.0785319515	 0.116349
H	 1.0894853499	-2.664082932	 1.0423692115	 0.118104
133.4858	166.663	171.3038	220.1324	316.7143	330.9956	404.9231	493.1702	566.7455	601.7988	678.0227	750.4544	823.196	842.0744	876.7955	900.1985	932.3985	966.0219	1005.3269	1028.2026	1079.4146	1097.4674	1151.3393	1176.6003	1182.3959	1230.4056	1240.7559	1279.5795	1309.7483	1364.4771	1390.948	1419.1249	1477.7472	1492.6708	1506.7209	1511.4673	1904.7569	3022.2336	3025.1263	3050.6266	3072.9653	3076.2968	3123.3918	3131.7293	3165.4566
CC12COC(CO1)C2=O	C[C@@]12CO[C@@H](CO1)C2=O	
InChI=1S/C6H8O3/c1-6-3-8-4(2-9-6)5(6)7/h4H,2-3H2,1H3	InChI=1S/C6H8O3/c1-6-3-8-4(2-9-6)5(6)7/h4H,2-3H2,1H3/t4-,6-/m0/s1
