18
gdb 84782	2.16988	1.55133	1.38463	2.3373	71.68	-0.2522	-0.0392	0.213	1055.9552	0.145927	-439.114431	-439.105435	-439.104491	-439.148614	32.759	
C	 0.0025069172	 1.4100233433	-0.299319797	-0.400419
C	 0.0052105765	-0.07939983	 0.04550517	-0.020763
N	 0.5614934353	-0.85637625	-1.0818000171	-0.260745
C	 1.6064015494	-1.4201543429	-0.6470948352	 0.102466
O	 1.9705940492	-1.2641844068	 0.6535732925	-0.257756
C	 0.8805882147	-0.5210093318	 1.2675692746	 0.247305
C	 1.472171294	 0.5714591318	 2.1549899177	-0.445403
C	 0.1341986016	-1.5111069212	 2.166443599	 0.128624
O	-1.0232562674	-1.3980844511	 2.4697089561	-0.24354
H	 1.0127521907	 1.7819022519	-0.4948700383	 0.12047
H	-0.5892804435	 1.5625274813	-1.2052333871	 0.137394
H	-0.4413430415	 2.00327344	 0.5053843022	 0.120421
H	-1.0262987538	-0.3957728682	 0.2268929382	 0.115355
H	 2.2818229184	-2.0391620938	-1.2273156284	 0.142932
H	 2.0851929885	 1.2540690891	 1.5625763399	 0.138193
H	 0.6728136513	 1.1372029785	 2.6401729384	 0.145176
H	 2.1049713878	 0.1319854781	 2.9321077966	 0.132775
H	 0.7716136617	-2.3423527981	 2.5407998679	 0.097515
55.0391	62.051	199.2819	236.0418	267.7252	278.6413	283.7646	310.8546	373.8188	482.9977	534.9677	575.0293	664.5614	744.9418	850.6445	874.0747	920.212	946.6549	960.4819	975.5759	1044.8721	1075.415	1103.6703	1137.9295	1160.7212	1206.3362	1222.6342	1299.1469	1334.6892	1380.5938	1393.075	1400.9956	1410.5477	1476.839	1487.9394	1496.3734	1507.4232	1708.3864	1836.152	2896.9925	3043.0348	3049.0692	3066.695	3117.3022	3119.5678	3126.7464	3138.7615	3215.3483
CC1N=COC1(C)C=O	C[C@H]1N=CO[C@]1(C)C=O	
InChI=1S/C6H9NO2/c1-5-6(2,3-8)9-4-7-5/h3-5H,1-2H3	InChI=1S/C6H9NO2/c1-5-6(2,3-8)9-4-7-5/h3-5H,1-2H3/t5-,6-/m1/s1
