17
gdb 54716	4.33409	1.23728	1.1354	2.7166	72.64	-0.2398	0.0316	0.2714	1087.2568	0.136894	-417.938266	-417.93074	-417.929796	-417.970705	29.154	
N	 0.4724578585	 0.1202550256	 0.82502637	-0.518962
C	-0.1275205911	 0.4309409643	-0.356734028	 0.360711
O	 0.2880014528	 1.2657058044	-1.137583307	-0.37175
C	-1.3968279939	-0.3605299611	-0.6252574994	-0.063685
C	-1.4386593012	-1.3763796625	-1.7633889169	-0.064147
C	-0.6868747384	-2.408631141	-0.869178058	-0.003604
C	-1.7418894795	-3.5024351631	-1.0477016555	-0.258867
C	-2.510529799	-2.1817282457	-0.9647433433	-0.003424
N	-1.5813989877	-1.6541178049	 0.1666270978	-0.196533
H	 1.2771163611	 0.6495481904	 1.1183056974	 0.25966
H	 0.0409433362	-0.5369496692	 1.4550013606	 0.273243
H	-2.2593045213	 0.3120385116	-0.5442823345	 0.101449
H	-1.3609814921	-1.2295463363	-2.8434441789	 0.083262
H	 0.3879543352	-2.492544834	-0.7074022435	 0.096249
H	-1.755570398	-4.0212391387	-2.0090297322	 0.106333
H	-1.872685306	-4.1919053258	-0.2097980656	 0.111485
H	-3.5841179955	-1.990732254	-0.9185673432	 0.08858
53.3799	152.5314	170.8441	312.2133	369.5587	386.5407	496.2908	537.5066	638.4798	692.3127	717.6427	807.1832	822.0587	846.7026	873.2369	910.6057	918.4474	949.1294	994.7853	1022.2838	1027.9392	1043.8636	1094.0375	1119.3866	1137.5777	1151.7739	1174.6395	1181.261	1228.8826	1235.7263	1260.1295	1312.6942	1332.0972	1386.8949	1490.8747	1602.4976	1799.0947	3042.9531	3060.9383	3079.2288	3103.8036	3118.5017	3127.7039	3581.9595	3723.3782
NC(=O)C1C2C3CC2N13	NC(=O)[C@H]1[C@H]2[C@@H]3C[C@H]2N13	
InChI=1S/C6H8N2O/c7-6(9)5-4-2-1-3(4)8(2)5/h2-5H,1H2,(H2,7,9)	InChI=1S/C6H8N2O/c7-6(9)5-4-2-1-3(4)8(2)5/h2-5H,1H2,(H2,7,9)/t2-,3+,4-,5-/m1/s1
