18
gdb 106637	2.70363	1.29944	1.04551	1.3278	74.38	-0.261	0.0183	0.2793	1189.6275	0.146236	-439.058296	-439.049229	-439.048285	-439.092282	33.488	
C	 0.0375156749	 1.5448485029	-0.0029768296	-0.489749
C	 0.0359144364	 0.046661405	 0.0621365283	 0.10152
C	 1.2146401762	-0.8508567054	-0.3556066851	-0.367725
C	 0.6390042944	-0.9773306657	 1.009060541	 0.40136
C	 1.2968198522	-0.9211367963	 2.3481278374	-0.176707
O	 1.9266042889	-2.1444905809	 2.6903373216	-0.405509
O	-0.5612645063	-1.8113455064	 0.9141561691	-0.323754
C	-1.1718360758	-0.8344423291	 0.124805259	 0.407459
N	-2.3510780645	-0.7441521081	-0.2878383029	-0.557555
H	 1.0320162411	 1.9474631994	 0.2112256838	 0.121662
H	-0.2527109046	 1.8851037811	-1.0022258677	 0.144304
H	-0.67032483	 1.9731905397	 0.7127869091	 0.136096
H	 1.078764186	-1.6514926777	-1.0756950153	 0.130221
H	 2.1601386642	-0.3202784013	-0.424600938	 0.127086
H	 2.0830478194	-0.1597996528	 2.333036707	 0.120527
H	 0.5547522313	-0.6249354784	 3.1045717839	 0.105151
H	 1.2425429564	-2.8228752096	 2.7081854009	 0.295775
H	-2.9113600201	-1.5462357561	 0.0051063175	 0.229839
68.1813	114.2454	148.1333	169.0711	227.4422	275.6723	324.6176	372.8962	413.9897	464.831	507.2686	628.3073	668.3776	740.3091	774.1852	862.9007	877.0451	879.9147	942.6777	963.5224	989.7997	1000.1392	1053.1024	1069.335	1104.0726	1123.7887	1185.7705	1207.3804	1266.88	1360.6436	1383.0371	1396.4915	1419.2728	1440.8154	1481.9881	1486.9811	1497.3197	1507.3748	1829.8584	2996.3314	3039.0535	3084.95	3104.9131	3112.6727	3121.8413	3213.6014	3479.7338	3809.5895
CC12CC1(CO)OC2=N	C[C@@]12C[C@]1(CO)O[C]2[NH]	
InChI=1S/C6H9NO2/c1-5-2-6(5,3-8)9-4(5)7/h7-8H,2-3H2,1H3	InChI=1S/C6H9NO2/c1-5-2-6(5,3-8)9-4(5)7/h7-8H,2-3H2,1H3/t5-,6+/m0/s1
