20
gdb 66247	2.5319	1.51888	1.30273	2.5433	73.89	-0.2397	0.0799	0.3196	1081.0331	0.171391	-440.261604	-440.252948	-440.252004	-440.295098	32.669	
C	-0.1245565037	 1.536874778	 0.3631708189	-0.415445
C	 0.0475320678	 0.0552195241	 0.0484991558	 0.410897
O	 0.8795166341	-0.0600912112	-1.1019898045	-0.283447
C	 1.7969368763	-1.1165374422	-0.8647054675	-0.106374
C	 2.0002059095	-1.0379314774	 0.647251332	-0.097252
O	 0.7269282149	-0.6090687513	 1.11796447	-0.306933
C	-1.29520242	-0.627045418	-0.1856084029	 0.001199
C	-1.4865251936	-2.0764025096	 0.0497148282	-0.250395
N	-2.0929204556	-1.0865267597	 0.9602744504	-0.331802
H	 0.8501817137	 1.9902289462	 0.5574634712	 0.119057
H	-0.587734709	 2.0485613896	-0.4847920254	 0.128053
H	-0.7636030296	 1.6646938686	 1.2404429234	 0.13108
H	 1.3790991819	-2.0871864404	-1.1653983463	 0.104345
H	 2.7037420124	-0.9236279785	-1.4430250988	 0.116358
H	 2.2447002494	-1.9963379603	 1.113341877	 0.11384
H	 2.7751291752	-0.3043101472	 0.9091432508	 0.106109
H	-1.8796805016	-0.145663396	-0.9666724955	 0.092842
H	-2.1911089817	-2.6310530703	-0.5631676821	 0.115857
H	-0.6429855662	-2.6503538636	 0.4187910119	 0.111694
H	-1.5076193441	-1.0329001308	 1.7927635736	 0.240315
64.9603	108.0547	188.1314	215.0981	229.01	264.8692	343.1146	373.796	459.8964	564.929	631.0252	656.6735	772.5233	844.2124	879.2409	887.8273	909.2771	938.5287	952.0334	971.4067	1001.6908	1071.1088	1087.2982	1102.0627	1125.5175	1150.1843	1153.4384	1184.5804	1200.2321	1232.7711	1245.1657	1264.7993	1282.9556	1309.8258	1372.8121	1385.2528	1405.0752	1418.3874	1479.6819	1484.8873	1499.7751	1516.504	1524.1228	3006.6899	3015.2055	3051.3715	3091.4345	3103.7991	3119.1997	3128.0075	3134.8716	3136.2175	3207.8188	3484.4754
CC1(OCCO1)C1CN1	CC1(OCCO1)[C@H]1CN1	
InChI=1S/C6H11NO2/c1-6(5-4-7-5)8-2-3-9-6/h5,7H,2-4H2,1H3	InChI=1S/C6H11NO2/c1-6(5-4-7-5)8-2-3-9-6/h5,7H,2-4H2,1H3/t5-/m1/s1
