15
gdb 127189	2.36297	2.02625	1.0983	1.8318	71.35	-0.2486	-0.0575	0.1911	1024.9361	0.11523	-450.169402	-450.161619	-450.160675	-450.201879	28.75	
C	-0.0533648395	 1.4620667729	 0.0090242836	-0.33789
N	-0.0161984595	 0.0013386074	 0.0008211098	-0.199247
C	-1.2319532013	-0.691886723	 0.0042329695	 0.35558
N	-2.3268166043	-0.028571709	 0.0145679995	-0.536662
C	-1.0936695496	-2.1502953715	-0.0048117392	-0.049514
N	 0.0280158155	-2.7775067451	-0.0149091281	-0.153757
N	 1.1400189712	-2.0188151284	-0.0171231138	-0.315797
C	 1.2175536289	-0.6309561789	-0.0096281689	 0.520298
O	 2.2882812374	-0.0622730219	-0.0129007753	-0.393135
H	 0.9736283391	 1.8192098443	 0.0030255828	 0.1666
H	-0.5973903107	 1.8206483678	-0.8678391192	 0.150402
H	-0.583545567	 1.8113298701	 0.8980875888	 0.150304
H	-3.1234719712	-0.6639873226	 0.0156684238	 0.224329
H	-1.9945966428	-2.7542129061	-0.0029535205	 0.134434
H	 2.018226934	-2.5132483058	-0.0250094427	 0.284053
101.9372	141.9013	145.8305	218.2551	345.5997	392.8249	429.9775	505.4729	538.9483	595.8008	600.4903	697.4682	736.5507	758.9018	828.7791	862.4942	902.9159	995.6803	1104.2103	1159.2003	1160.8954	1182.0331	1239.4962	1339.2926	1370.7298	1423.8294	1450.6125	1481.8882	1486.051	1508.8229	1649.376	1691.0141	1811.2548	3064.0936	3125.6386	3191.5248	3194.9951	3496.3929	3649.0293
CN1C(=N)C=NNC1=O	Cn1c([NH])cn[nH]c1=O	
InChI=1S/C4H6N4O/c1-8-3(5)2-6-7-4(8)9/h2,5H,1H3,(H,7,9)	InChI=1S/C4H9N4O/c1-8-3(5)2-6-7-4(8)9/h3,5-6H,2H2,1H3,(H,7,9)
