23
gdb 91768	2.2272	1.74022	1.53006	1.3287	83.3	-0.2572	0.0712	0.3284	1039.4745	0.210331	-388.322821	-388.315077	-388.314133	-388.354428	32.648	
O	 0.1070572081	 1.3890476459	-0.2236089031	-0.435745
C	 0.0431588253	-0.0182142122	-0.0348422809	 0.136493
C	 0.7091593161	-0.535910965	 1.2830191618	-0.260798
C	-0.396362859	-1.3351366193	 2.0193207653	 0.017516
C	-1.2910793959	-1.7918505834	 0.8482271425	-0.217013
C	-1.4298536476	-0.4805826043	 0.0543636745	-0.017311
C	-2.320170271	 0.5015602943	 0.8434997263	-0.192373
C	-1.7575112405	 0.8107925475	 2.2435112236	-0.192474
C	-1.225943971	-0.4426295826	 2.9638639026	-0.200833
H	 1.0331850112	 1.6367302736	-0.3001950446	 0.281284
H	 0.5125779405	-0.5202305799	-0.8942338211	 0.061876
H	 1.5627244654	-1.1815512095	 1.0526174419	 0.088535
H	 1.0867307633	 0.3026344592	 1.8772564129	 0.09454
H	 0.0188261773	-2.1773149102	 2.5813664521	 0.053897
H	-0.7911115773	-2.5640730153	 0.2506082685	 0.082928
H	-2.2547020354	-2.1963294093	 1.1743568391	 0.087653
H	-1.8528809887	-0.630939428	-0.9435172604	 0.057994
H	-2.4364644261	 1.4340539821	 0.2839784009	 0.105395
H	-3.3182208976	 0.0516854729	 0.9267274967	 0.08241
H	-0.9424581268	 1.5317896796	 2.1268881221	 0.11121
H	-2.5200452373	 1.3030293021	 2.8574037695	 0.083195
H	-2.0609525874	-1.0365225799	 3.3588197729	 0.086337
H	-0.6220820059	-0.1430711584	 3.8293412766	 0.085284
129.7954	237.2974	273.4909	282.188	337.5962	392.9215	412.0953	440.9174	484.3942	549.6336	711.1148	719.2595	785.0847	796.3182	824.1362	875.0381	885.6684	893.3801	957.2371	962.146	989.2603	1016.5829	1029.459	1062.8189	1071.0217	1095.4038	1122.4019	1127.1836	1174.5402	1189.8939	1214.5014	1243.9569	1255.9652	1280.3967	1293.6279	1320.218	1339.2736	1345.2119	1350.8677	1362.879	1377.0484	1389.29	1394.5619	1426.8721	1478.8687	1485.3395	1486.9924	1501.482	1514.1309	2972.8143	3011.5738	3019.1387	3025.5577	3038.5519	3040.1681	3048.8683	3056.2906	3062.0769	3077.1433	3079.894	3084.8212	3091.6495	3826.3018
OC1CC2CC1CCC2	O[C@H]1C[C@@H]2C[C@H]1CCC2	
InChI=1S/C8H14O/c9-8-5-6-2-1-3-7(8)4-6/h6-9H,1-5H2	InChI=1S/C8H14O/c9-8-5-6-2-1-3-7(8)4-6/h6-9H,1-5H2/t6-,7+,8-/m0/s1
