19
gdb 73543	2.47411	2.05291	1.58558	2.202	75.14	-0.2353	0.0778	0.3131	931.8673	0.159293	-422.944083	-422.936613	-422.935668	-422.975478	30.521	
C	-0.1103607504	 1.6627010739	-0.1799537886	-0.477134
C	-0.0328999344	 0.1623432476	 0.034219433	 0.444761
O	-1.3327896529	-0.355278519	 0.2131110104	-0.320714
C	-1.4384194373	-0.9707949341	 1.5172713249	-0.065579
C	-0.1079141333	-0.7202750279	 2.3068451225	-0.387968
C	 0.7886283506	-0.5516554634	 1.1187825846	 0.362507
C	 2.1143645172	-0.1358785722	 0.4436112274	-0.334156
C	 1.115109912	-0.6774249216	-0.6460660601	-0.029027
O	 0.8089366507	-1.7823313828	 0.2589465529	-0.341709
H	 0.847295843	 2.1076565459	-0.4586464385	 0.115919
H	-0.8204201637	 1.8585201591	-0.9895423842	 0.136604
H	-0.4886251382	 2.1707108552	 0.7136346813	 0.118519
H	-2.308044326	-0.5451867714	 2.0289843421	 0.101442
H	-1.5925267475	-2.0451710134	 1.3841396935	 0.121818
H	-0.149300179	 0.1964404694	 2.90273861	 0.116119
H	 0.1431993951	-1.5604162945	 2.9571003259	 0.123442
H	 2.404583896	 0.9157518012	 0.4528545066	 0.104245
H	 2.951374029	-0.8087542633	 0.6260729633	 0.117348
H	 1.3192246889	-0.9148418486	-1.6916220669	 0.093563
161.9921	182.2503	209.5053	321.202	335.9579	384.9211	449.6935	521.7005	613.5443	616.9914	691.7188	728.2052	775.7831	802.163	847.9728	878.9333	890.4318	929.2763	975.5831	987.9077	1011.7622	1016.6759	1078.8703	1121.7567	1129.4344	1146.282	1179.1941	1194.4587	1206.1207	1209.0732	1228.4559	1259.8019	1296.4717	1343.8831	1388.7446	1410.9204	1475.1711	1479.5412	1489.3229	1499.0825	1510.4436	3039.0241	3043.6237	3063.8416	3081.8018	3090.0157	3102.0957	3104.5389	3125.3899	3126.145	3163.9452
CC12OCCC11CC2O1	C[C@]12OCC[C@@]31C[C@H]2O3	
InChI=1S/C7H10O2/c1-6-5-4-7(6,9-5)2-3-8-6/h5H,2-4H2,1H3	InChI=1S/C7H10O2/c1-6-5-4-7(6,9-5)2-3-8-6/h5H,2-4H2,1H3/t5-,6-,7+/m1/s1
