23
gdb 57044	2.33886	1.24541	0.92774	0.5636	91.24	-0.255	0.0561	0.3111	1364.7419	0.204235	-351.11993	-351.109815	-351.10887	-351.154681	38.482	
C	-0.056706537	 1.5560109666	 0.0344693063	-0.395885
C	 0.0530218664	 0.0223010416	-0.0911973141	-0.184704
C	 0.7879643551	-0.3511200918	-1.3000520407	 0.338051
C	 1.415065019	-0.6497809097	-2.2821898871	-0.480808
C	 0.7067382285	-0.5913330979	 1.1574916686	 0.064756
C	-0.0173617753	-0.4620321472	 2.5255939861	-0.24813
C	 0.4804930819	-1.8895197445	 2.8765456359	-0.227349
C	 0.7549692241	-2.1429522818	 1.3632792572	 0.001934
C	-0.3418357188	-2.947718857	 0.6689200048	-0.403322
H	 0.9360649785	 2.0076609809	 0.1236243216	 0.124124
H	-0.5466056871	 1.9861571916	-0.8429219347	 0.123243
H	-0.6380688074	 1.823287176	 0.9218903677	 0.118716
H	-0.9657533504	-0.3797345405	-0.1783086457	 0.099869
H	 1.9589259565	-0.9167028033	-3.1541417025	 0.192245
H	 1.7236111271	-0.191093337	 1.239408966	 0.075723
H	 0.2824385256	 0.3579260923	 3.1823642236	 0.096167
H	-1.1056276071	-0.4262896092	 2.4082486475	 0.098052
H	 1.4002374976	-1.8688946175	 3.4674838046	 0.098379
H	-0.2303416075	-2.5612046148	 3.365716012	 0.092778
H	 1.7256252024	-2.5922736436	 1.1354272378	 0.068831
H	-1.3418119709	-2.563709761	 0.9014898381	 0.108867
H	-0.2200255911	-2.9353734182	-0.4185960924	 0.128167
H	-0.3111976001	-3.9915409139	 0.9997738793	 0.110295
71.1146	106.8617	129.6162	195.0789	206.081	234.1493	274.7175	283.01	351.2557	382.2544	427.7013	510.312	568.7635	624.2912	629.781	674.9742	771.0802	793.5334	861.5464	887.0423	914.4235	952.176	960.3478	981.6952	1022.3616	1053.363	1074.2333	1108.8388	1122.7438	1169.4121	1186.2722	1217.1196	1248.6866	1262.4284	1282.901	1286.7315	1295.4932	1332.2971	1368.2838	1380.0481	1406.8307	1412.1413	1481.5624	1492.6703	1498.9254	1499.3836	1501.8351	1504.8458	2229.4861	3009.9347	3027.4464	3037.5162	3041.2514	3047.7179	3051.8243	3061.6615	3091.1204	3095.1988	3104.2606	3111.8524	3114.2544	3119.9443	3504.296
CC(C#C)C1CCC1C	C[C@@H](C#C)[C@H]1CC[C@H]1C	
InChI=1S/C9H14/c1-4-7(2)9-6-5-8(9)3/h1,7-9H,5-6H2,2-3H3	InChI=1S/C9H14/c1-4-7(2)9-6-5-8(9)3/h1,7-9H,5-6H2,2-3H3/t7-,8+,9+/m0/s1
