22
gdb 113442	4.77547	0.80988	0.76498	2.3023	84.61	-0.2132	0.0838	0.297	1606.2481	0.192288	-404.306624	-404.296866	-404.295922	-404.341536	35.964	
C	-0.4297194616	 1.4527646052	 0.238379868	-0.37444
C	 0.3272468907	 0.1823200663	-0.1662225382	-0.211857
C	 1.0667664339	-0.4358299654	 0.9957221464	-0.033282
O	 0.2614299561	-1.1106315396	 1.9863311773	-0.290911
C	 1.1596125903	-1.8773774871	 1.20528175	 0.415412
C	 0.7254681781	-3.0687870578	 0.3480590651	-0.250214
N	 1.5931712837	-3.9302076092	 1.1826824048	-0.072313
C	 2.4220331676	-4.9113600179	 0.5221035505	-0.319247
C	 2.2524823624	-2.7613500086	 1.8085509675	-0.25369
H	 0.2553977976	 2.2170976107	 0.6211437171	 0.115379
H	-0.9665202341	 1.8807253074	-0.6132225999	 0.113744
H	-1.1567235579	 1.2299519204	 1.0247655722	 0.135972
H	-0.3713150102	-0.5552892404	-0.5763460898	 0.105575
H	 1.0520414496	 0.4112720988	-0.9586698312	 0.10007
H	 1.8503046559	 0.1892825925	 1.4321617008	 0.085195
H	-0.3377442335	-3.3304371087	 0.3707701194	 0.114632
H	 1.0554708118	-2.9833911266	-0.7010662781	 0.086553
H	 3.0823813085	-4.4768692277	-0.2544854224	 0.08643
H	 3.0547022912	-5.4193869079	 1.2574989674	 0.122406
H	 1.7922183027	-5.6691732668	 0.0444123031	 0.122176
H	 3.2536183239	-2.5416283341	 1.4016277333	 0.086759
H	 2.3070388933	-2.7953071933	 2.9019739267	 0.115651
60.1254	83.0751	128.6446	176.1765	226.845	252.9137	286.4849	295.8143	322.2815	407.3234	448.4278	481.5785	591.7739	736.5541	758.0362	823.3156	909.1241	922.0945	937.3436	962.9627	989.2991	1023.7671	1058.6738	1092.0811	1116.7621	1125.9055	1151.2876	1158.2141	1182.5588	1193.9365	1220.442	1226.48	1290.6342	1302.1533	1320.6395	1343.6891	1383.376	1409.7219	1452.663	1472.5667	1485.882	1489.2718	1497.8535	1498.0151	1506.9786	1514.5157	1538.0174	2911.8623	2958.6779	2968.4196	3024.6471	3037.0347	3056.3516	3061.3204	3062.4653	3064.1214	3080.4307	3099.06	3106.0435	3117.9899
CCC1OC11CN(C)C1	CC[C@H]1OC21CN(C)C2	
InChI=1S/C7H13NO/c1-3-6-7(9-6)4-8(2)5-7/h6H,3-5H2,1-2H3	InChI=1S/C7H13NO/c1-3-6-7(9-6)4-8(2)5-7/h6H,3-5H2,1-2H3/t6-/m1/s1
