19
gdb 33800	3.424	1.36161	1.16396	3.8357	78.99	-0.2285	0.0234	0.2519	1088.2789	0.162788	-382.062093	-382.054576	-382.053632	-382.093916	29.873	
N	-0.0091721729	-1.1830915013	-0.0569073064	-0.339718
C	-0.0300374343	-0.0271863084	-0.0221883915	 0.192892
C	-0.0411424121	 1.4244290197	 0.0385249408	 0.160239
C	-0.163760796	 2.1346387507	 1.4233581896	-0.21727
N	 0.7450834991	 3.2161580789	 0.9102802062	-0.111202
C	 1.3043616913	 2.1987775192	-0.037884666	-0.200162
C	-0.0438209472	 4.191469219	 0.1304743969	-0.164926
C	-1.2431334913	 3.5598694293	-0.6327575962	-0.235446
C	-1.021983257	 2.0649474788	-0.9728321018	-0.245982
H	-1.1544742962	 2.4524867819	 1.7553184788	 0.116837
H	 0.3294022068	 1.577335171	 2.223365775	 0.127271
H	 2.1371396683	 1.66206305	 0.4244181514	 0.12363
H	 1.6058964437	 2.5807143058	-1.0174270227	 0.110389
H	-0.4091126261	 4.965760163	 0.8132419082	 0.109251
H	 0.6511406504	 4.6819979368	-0.5590971763	 0.111414
H	-2.1385169781	 3.6436426928	-0.0097912267	 0.115062
H	-1.4588655581	 4.1286328879	-1.5415692513	 0.10922
H	-0.6059956792	 1.9370624113	-1.9780336643	 0.118272
H	-1.9781547111	 1.5335849435	-0.9572660038	 0.120229
139.2127	147.6766	171.2103	307.1732	397.516	426.5797	427.9039	549.7488	557.4494	569.3366	623.3942	773.7937	799.8241	859.0292	866.7023	924.5815	945.0056	960.5116	970.5507	987.1641	1006.9404	1053.7784	1105.9333	1157.5461	1176.6629	1212.9525	1237.379	1251.2933	1263.2677	1274.068	1299.4	1304.9712	1356.9222	1367.8607	1376.6467	1484.3243	1496.0019	1499.4679	1502.4306	1527.5358	2347.4109	3039.4015	3044.0874	3049.669	3052.2078	3067.8179	3075.4073	3084.5686	3100.4617	3110.1666	3124.9313
N#CC12CN(C1)CCC2	N#C[C@@]12CN(C1)CCC2	
InChI=1S/C7H10N2/c8-4-7-2-1-3-9(5-7)6-7/h1-3,5-6H2	InChI=1S/C7H10N2/c8-4-7-2-1-3-9(5-7)6-7/h1-3,5-6H2
