19
gdb 84726	2.47241	1.68934	1.17209	0.9481	83.24	-0.2102	-0.0244	0.1859	1080.2462	0.160943	-385.881165	-385.873258	-385.872314	-385.913537	31.563	
O	-0.096694801	 1.4022421904	-0.0172460943	-0.43549
C	 0.013392283	-0.0198221113	 0.0804862342	 0.053456
C	 0.7440025848	-0.415997695	 1.3405931639	-0.133251
C	 0.9356473903	-1.6614335179	 1.7955846026	-0.075537
C	 0.409025977	-2.895572785	 1.2250449017	-0.112795
C	-0.7003314734	-3.0429537833	 0.4793517263	-0.059934
C	-1.7067720295	-2.0306718822	 0.0904844298	-0.07699
C	-2.2472852231	-1.0059979317	 1.0876288229	-0.290811
C	-1.4069702719	-0.550540831	-0.0615065873	-0.010268
H	 0.7908561208	 1.7587955085	-0.122734084	 0.281857
H	 0.580987594	-0.4038242856	-0.7863942312	 0.081266
H	 1.1760272286	 0.4189314525	 1.8871391836	 0.088772
H	 1.5632673215	-1.7842305666	 2.6762736858	 0.089064
H	 0.9688696399	-3.7965311978	 1.465433366	 0.086221
H	-0.9322735479	-4.0502688533	 0.1409175467	 0.090224
H	-2.4420551093	-2.4114774909	-0.6111014934	 0.085038
H	-3.3106345546	-0.7953901219	 1.0691075298	 0.112939
H	-1.8021387694	-1.0118551986	 2.0749277597	 0.130478
H	-1.9292500398	-0.0520757394	-0.8738924628	 0.095762
61.3616	216.0126	245.2664	261.677	328.154	352.0649	401.9038	430.8521	515.0599	618.4087	668.9721	712.59	754.8618	797.4969	821.0721	853.9273	884.8226	935.454	952.7352	988.3516	993.4138	1008.1364	1028.8953	1062.991	1070.2966	1110.5599	1138.4589	1154.4898	1219.9048	1240.9905	1253.475	1273.3821	1336.3339	1372.149	1401.0838	1418.2388	1427.2636	1461.2418	1487.1414	1667.5714	1703.1376	2927.2711	3131.2734	3137.9374	3140.3267	3143.5252	3153.1589	3160.805	3167.0794	3233.5363	3820.88
OC1C=CC=CC2CC12	O[C@H]1C=CC=C[C@H]2C[C@@H]12	
InChI=1S/C8H10O/c9-8-4-2-1-3-6-5-7(6)8/h1-4,6-9H,5H2	InChI=1S/C8H10O/c9-8-4-2-1-3-6-5-7(6)8/h1-4,6-9H,5H2/t6-,7+,8-/m0/s1
