18
gdb 126466	3.59588	0.91721	0.77578	2.1578	75.34	-0.2525	-0.0076	0.245	1486.6222	0.147076	-439.085316	-439.076158	-439.075213	-439.120436	32.581	
C	 0.1211319031	 1.1299083829	-0.723231029	-0.376374
C	-0.1604514961	 0.1309232287	 0.4105289472	-0.292386
C	-1.5262386363	-0.4811720764	 0.3232270893	 0.394522
N	-2.4160289564	-0.2386229067	 1.2571431939	-0.208536
O	-3.5660733273	-0.9401944738	 0.8786416861	-0.216146
C	-3.3285148373	-1.5769681322	-0.2792859279	 0.397385
C	-4.443341892	-2.3942015021	-0.8579584448	-0.172191
O	-3.9739140078	-3.3470594623	-1.790331325	-0.401501
C	-2.056215909	-1.3364279575	-0.6901288572	-0.417958
H	 1.1274001236	 1.5474874483	-0.6251193046	 0.119475
H	 0.050065442	 0.6512392904	-1.7050186194	 0.120905
H	-0.5952700155	 1.956250472	-0.7007273628	 0.131974
H	 0.5903489347	-0.6683983423	 0.3883287362	 0.113641
H	-0.0723696573	 0.626774118	 1.3813913374	 0.128809
H	-5.0191696622	-2.8487582408	-0.0378267827	 0.121684
H	-5.1353650096	-1.7479754374	-1.4103083828	 0.143674
H	-3.3858394715	-3.9495503273	-1.3224001397	 0.289924
H	-1.5747280352	-1.7013129516	-1.5815827143	 0.1231
41.3414	73.189	122.2795	146.2388	221.4877	254.1231	327.4622	360.6613	414.8928	454.6156	609.9039	650.5453	710.1327	755.5908	794.5236	825.6844	928.9024	968.2464	987.1981	1008.0507	1031.0664	1074.1077	1091.6783	1098.7993	1149.6671	1203.5741	1261.8213	1284.2803	1349.6363	1386.5473	1408.7173	1416.8389	1456.6937	1479.4437	1492.7617	1498.1137	1505.3843	1523.8456	1641.1594	2998.5323	3035.6389	3040.5237	3061.5708	3089.2777	3113.4473	3118.8755	3281.0781	3810.9639
CCC1=NOC(CO)=C1	CCc1noc(CO)c1	
InChI=1S/C6H9NO2/c1-2-5-3-6(4-8)9-7-5/h3,8H,2,4H2,1H3	InChI=1S/C6H9NO2/c1-2-5-3-6(4-8)9-7-5/h3,8H,2,4H2,1H3
