16
gdb 26994	3.14388	1.18541	0.89826	1.918	75.78	-0.2285	0.0152	0.2437	1246.9072	0.125488	-396.991459	-396.982869	-396.981925	-397.025972	30.376	
C	-0.5402331564	 1.5170090948	 0.3287623848	-0.492928
C	-0.199668289	 0.0827215323	 0.0831140121	 0.196927
C	 0.1775835245	-0.5298580385	-1.0883765188	 0.251932
C	 0.3391620223	-0.0101521677	-2.4875189716	-0.457425
C	 1.428717006	-0.6731437355	-3.2094663351	 0.258707
N	 2.2687785195	-1.243821331	-3.7608120807	-0.307918
N	 0.3541016951	-1.8625216842	-0.7684001206	-0.300477
C	 0.0947261868	-1.9908936716	 0.5609771017	 0.008891
N	-0.2478607446	-0.8465809915	 1.102418006	-0.305241
H	-0.2924987522	 2.14820675	-0.5297454906	 0.111397
H	-1.6086768944	 1.6423829042	 0.5374484995	 0.138177
H	 0.0045270705	 1.8951617956	 1.1990460407	 0.143879
H	-0.5770571841	-0.1379641821	-3.0814477804	 0.167867
H	 0.5373486814	 1.0659511343	-2.4575456517	 0.17284
H	 0.7010029581	-2.5759186147	-1.3897646266	 0.277853
H	 0.1772263267	-2.9371981142	 1.0744741012	 0.13552
32.4686	85.8373	112.7008	223.2176	237.7853	286.9946	377.5405	396.1528	507.2637	530.8437	643.4533	666.6183	694.1792	777.7726	820.8448	934.7518	936.2894	962.5346	983.828	1061.8651	1108.0572	1150.3744	1222.4498	1262.7655	1290.2459	1330.3749	1382.936	1417.2662	1456.9948	1469.694	1473.5905	1493.4354	1525.5346	1632.2141	2361.3117	3010.0757	3034.8183	3082.1046	3092.2357	3112.3898	3252.8142	3648.3611
CC1=C(CC#N)NC=N1	Cc1c(CC#N)[nH]cn1	
InChI=1S/C6H7N3/c1-5-6(2-3-7)9-4-8-5/h4H,2H2,1H3,(H,8,9)	InChI=1S/C6H7N3/c1-5-6(2-3-7)9-4-8-5/h4H,2H2,1H3,(H,8,9)
