18
gdb 70066	2.85442	1.48854	1.12858	2.6432	79.17	-0.24	-0.0619	0.1781	1099.4291	0.1486	-401.965421	-401.957498	-401.956554	-401.997722	30.952	
C	-0.0777890711	 1.5154436986	 0.0394791578	-0.444226
C	 0.0518321471	 0.0066998637	 0.0316111053	 0.293687
C	-1.0622842608	-0.7287977905	-0.6932937394	-0.393439
C	-1.1480479415	-2.2423920172	-0.4820809962	 0.349535
O	-1.7124376184	-2.9533688248	-1.2900457878	-0.330317
C	-0.5809183025	-2.7759371311	 0.7703929445	-0.18492
C	 0.2240814738	-2.0421882801	 1.55543816	-0.033799
C	 0.6821890545	-0.6830111403	 1.2030863754	-0.103606
N	 1.4307843181	-0.4783477046	-0.073106632	-0.358756
H	 0.7782773338	 1.9703021533	 0.5431525578	 0.131539
H	-0.1108405976	 1.9039437325	-0.9846062266	 0.125502
H	-0.9951194366	 1.8280901606	 0.5495831741	 0.118313
H	-2.028343862	-0.326113231	-0.3571626573	 0.13705
H	-1.0198803146	-0.5396774287	-1.7714288887	 0.136104
H	-0.8444884344	-3.7998005916	 1.0137253615	 0.115532
H	 0.5992694989	-2.4598350915	 2.4867323518	 0.115501
H	 1.0702533322	-0.084268683	 2.0221437236	 0.094767
H	 1.4658791009	-1.3656591944	-0.5729325539	 0.231533
86.1983	173.2656	215.3875	281.8793	325.7477	351.5823	402.8571	458.5708	487.9751	545.8942	615.706	673.0485	746.5458	794.6922	815.6453	874.9824	895.3616	954.4362	968.3168	1010.3503	1037.8362	1056.2895	1087.9223	1120.4451	1173.0011	1188.0758	1215.3833	1252.2843	1269.0647	1333.2707	1354.1804	1407.3564	1413.1091	1432.1359	1455.9944	1487.6614	1496.5023	1668.2946	1770.1696	3020.1433	3033.4924	3075.036	3096.4339	3125.6727	3144.5676	3161.6449	3195.7288	3477.8785
CC12CC(=O)C=CC1N2	C[C@]12CC(=O)C=C[C@H]1N2	
InChI=1S/C7H9NO/c1-7-4-5(9)2-3-6(7)8-7/h2-3,6,8H,4H2,1H3	InChI=1S/C7H9NO/c1-7-4-5(9)2-3-6(7)8-7/h2-3,6,8H,4H2,1H3/t6-,7+/m1/s1
