20
gdb 91556	2.87092	1.33233	1.08636	1.7986	79.25	-0.23	0.0649	0.2949	1180.4984	0.171154	-403.082392	-403.073834	-403.07289	-403.11602	32.944	
O	 0.3336758853	 1.3583662024	 0.0160097273	-0.433954
C	 0.114929694	-0.0354331483	 0.0639908606	 0.034869
C	 0.1060514603	-0.7709743901	 1.4337848889	-0.200761
N	-1.3083583005	-1.2388425761	 1.2298617145	-0.175035
C	-2.0959142189	 0.0025884163	 1.1238179536	-0.288062
C	-1.3504404715	-0.4318162572	-0.0773395876	 0.36491
C	-1.9446269535	-0.9136673569	-1.3493022696	-0.127786
C	-3.4178548417	-0.8130861774	-1.6555777037	-0.270294
C	-2.4497035125	 0.1000297233	-2.3570051469	-0.256467
H	 1.2824901559	 1.5191260215	 0.0365073922	 0.284175
H	 0.7409448129	-0.5591262975	-0.6703670074	 0.073415
H	 0.7869574095	-1.6231338753	 1.4924259883	 0.103916
H	 0.2373270539	-0.1326846601	 2.314026328	 0.102524
H	-3.1655579422	-0.1778414615	 1.1359671994	 0.120219
H	-1.774299882	 0.8847940937	 1.6726629203	 0.119357
H	-1.4362993366	-1.7776523275	-1.7709617968	 0.085846
H	-3.86674245	-1.6226073164	-2.2200458381	 0.114285
H	-4.0728363447	-0.3784662029	-0.909438758	 0.113761
H	-2.4327052903	 1.142625455	-2.0597691009	 0.124025
H	-2.2352901375	-0.0715511052	-3.4057671841	 0.111058
43.9567	115.8593	185.1198	215.2461	261.2071	320.4975	339.9218	438.3059	490.5303	538.5272	669.5742	717.3419	774.2071	788.7398	838.0011	859.5574	869.0376	916.8731	938.0912	968.0631	1003.2284	1051.6788	1060.7349	1084.9211	1109.1106	1112.1842	1124.739	1132.1877	1142.1678	1192.6703	1196.5838	1206.3515	1217.3001	1233.1888	1283.7025	1319.2549	1372.0536	1416.51	1452.2373	1470.4103	1485.1914	1503.9692	1513.7033	3014.2646	3043.5006	3109.3392	3111.0695	3129.2038	3137.1993	3142.9478	3205.1283	3216.6603	3231.3935	3814.4923
OC1CN2CC12C1CC1	O[C@H]1CN2C[C@@]12C1CC1	
InChI=1S/C7H11NO/c9-6-3-8-4-7(6,8)5-1-2-5/h5-6,9H,1-4H2	InChI=1S/C7H11NO/c9-6-3-8-4-7(6,8)5-1-2-5/h5-6,9H,1-4H2/t6-,7+,8?/m0/s1
