20
gdb 38536	3.05715	1.63117	1.19985	1.254	86.33	-0.2234	0.0251	0.2486	1069.8552	0.174272	-365.98672	-365.979486	-365.978542	-366.018025	29.989	
C	 0.0446317922	 1.53583092	 0.1372368062	-0.366808
C	 1.5721914597	 1.4431328638	-0.1212541283	-0.127875
N	 1.840061302	 0.8965278215	-1.4464693351	-0.367273
C	 1.4652960994	-0.0434710657	-0.3809516583	 0.326618
C	 2.1796560024	-1.3345767024	-0.106411377	-0.335333
C	 1.2348145262	-2.4618981723	-0.5885138425	-0.211673
C	-0.158291046	-2.4226353328	 0.0810070694	-0.235566
C	-0.7564118732	-1.0329615943	 0.1754225722	-0.249621
C	 0.0066810654	 0.020811013	-0.0860404255	 0.31988
H	-0.2247868066	 1.8175993308	 1.1597543837	 0.11894
H	-0.5040109246	 2.1808764579	-0.5585873278	 0.105057
H	 2.3490428081	 2.0176523835	 0.3700032907	 0.100873
H	 1.0800075184	 1.0766496967	-2.1017746988	 0.222716
H	 3.1431861495	-1.3805641283	-0.6205206314	 0.110128
H	 2.3661954856	-1.4426719278	 0.969552916	 0.101203
H	 1.109131651	-2.3606893646	-1.6735604533	 0.105852
H	 1.6932020818	-3.4409095991	-0.4154090052	 0.092861
H	-0.8366824777	-3.0902818378	-0.4659418673	 0.103027
H	-0.0948015649	-2.8460100646	 1.0953478471	 0.105361
H	-1.7852997986	-0.9395065176	 0.5147803352	 0.081632
132.9247	204.8315	265.8476	318.6484	380.1753	432.4845	465.39	527.209	593.5042	678.3173	724.519	803.1886	810.5112	823.8011	858.6601	877.8726	911.9971	945.0153	952.4817	999.266	1021.5312	1064.9313	1076.8179	1086.5885	1105.7747	1118.2725	1163.5889	1184.7349	1214.1319	1222.229	1250.1061	1268.5826	1287.7934	1325.4052	1354.65	1364.1915	1375.7992	1442.5069	1474.4933	1479.5255	1482.1761	1495.8104	1767.8367	2990.0602	3024.1827	3029.8514	3035.3047	3040.2999	3077.9341	3088.4216	3097.1632	3152.8752	3182.3003	3444.211
C1C2NC22CCCC=C12	C1[C@@H]2N[C@]32CCCC=C13	
InChI=1S/C8H11N/c1-2-4-8-6(3-1)5-7(8)9-8/h3,7,9H,1-2,4-5H2	InChI=1S/C8H11N/c1-2-4-8-6(3-1)5-7(8)9-8/h3,7,9H,1-2,4-5H2/t7-,8+/m0/s1
