15
gdb 5071	3.29007	1.99952	1.26073	1.6526	64.08	-0.1921	0.0325	0.2246	917.9984	0.118121	-399.822512	-399.814089	-399.813145	-399.855448	30.057	
C	 0.1403217193	 1.5555693451	 0.1378858748	-0.536788
C	 0.0500777743	 0.0661140834	 0.0490816478	 0.095581
C	-0.0357440574	-0.6958617229	-1.0784859618	 0.235912
N	-0.0835722348	-0.3217410366	-2.4242317916	-0.595602
O	-0.0692958637	-2.0219895394	-0.7664537648	-0.172596
C	 0.0010855279	-2.1212472395	 0.6014497529	-0.13152
C	 0.0617501948	-0.8748076026	 1.1383602591	 0.228899
O	 0.1426211428	-0.5881945281	 2.4667155285	-0.442819
H	 0.9773956007	 1.8755683583	 0.7723131487	 0.119837
H	 0.3001350842	 1.9777999985	-0.8573983759	 0.148576
H	-0.7710600291	 2.009164734	 0.5489717277	 0.124251
H	-1.0337065027	-0.2234003129	-2.7699248106	 0.248459
H	 0.3912372184	-1.0009153456	-3.0093679129	 0.24721
H	 0.0183991943	-3.1124332818	 1.0179449023	 0.131873
H	 0.1715533011	 0.3676193803	 2.5706549859	 0.298728
61.2272	151.7731	181.4451	193.0847	230.1798	271.2232	308.0917	384.5906	524.2911	576.7551	616.2779	661.827	702.9055	717.2049	765.1455	802.2243	936.8671	1065.5315	1081.3917	1138.9275	1172.2672	1194.916	1225.7568	1316.3638	1327.8472	1412.1376	1460.1534	1489.7806	1499.0003	1630.0588	1655.4466	1719.5491	3009.6085	3052.1966	3117.1525	3295.4001	3492.0997	3572.5918	3835.9505
CC1=C(N)OC=C1O	Cc1c(N)occ1O	
InChI=1S/C5H7NO2/c1-3-4(7)2-8-5(3)6/h2,7H,6H2,1H3	InChI=1S/C5H7NO2/c1-3-4(7)2-8-5(3)6/h2,7H,6H2,1H3
