19
gdb 94885	2.6727	1.69363	1.34596	1.1563	73.53	-0.2285	0.0519	0.2803	1007.3261	0.160415	-422.975181	-422.967575	-422.966631	-423.006856	30.808	
O	 0.1401805748	 1.4170934319	 0.0793010788	-0.434065
C	 0.0337022997	 0.0047525376	 0.0092140855	 0.053363
C	 0.7098124843	-0.6010396437	 1.2746873805	-0.236978
C	 0.0373403916	-1.9821454343	 1.5225724622	-0.30418
C	-1.3534190006	-1.8169823085	 0.9339299371	 0.16959
C	-2.1957548187	-0.6059709538	 1.2867578033	-0.381214
C	-1.3527898464	-0.5942265243	 0.0532896157	 0.350663
O	-1.9933486076	-1.2634000856	-1.0484533866	-0.336962
C	-1.9584621554	-2.5119887864	-0.2917541724	-0.145864
H	-0.2917706677	 1.7864364108	-0.6972783288	 0.285775
H	 0.5215344465	-0.3790406215	-0.9005891953	 0.07843
H	 1.7944455489	-0.6701172073	 1.1622986409	 0.109543
H	 0.522811544	 0.0859303102	 2.1064886917	 0.121034
H	 0.5672512625	-2.7682873437	 0.9722306284	 0.104589
H	 0.0586438604	-2.2637336264	 2.5805365335	 0.105274
H	-3.2729409064	-0.6598350677	 1.1681188045	 0.120402
H	-1.8561557787	-0.0031381804	 2.1213439163	 0.129111
H	-1.2789844665	-3.2330694844	-0.7618453654	 0.106139
H	-2.9556117345	-2.9565477526	-0.19200789	 0.10535
124.1648	198.9521	267.7104	297.5251	314.9101	340.0111	438.3794	479.9415	553.5449	587.7614	646.4575	743.3941	761.9603	852.8657	879.5084	911.6252	928.9615	941.0691	972.5886	982.8316	1009.3602	1026.4444	1048.7171	1062.2283	1092.0245	1149.741	1185.291	1216.7267	1227.2752	1258.4044	1269.5195	1308.8124	1319.7017	1352.6	1361.9033	1386.753	1409.2889	1471.5018	1489.5573	1501.6979	1514.8597	2983.1931	3017.4058	3036.8107	3057.3917	3068.0909	3075.5454	3108.8439	3132.8474	3225.642	3821.7015
OC1CCC23CC12OC3	O[C@H]1CC[C@@]23C[C@@]12OC3	
InChI=1S/C7H10O2/c8-5-1-2-6-3-7(5,6)9-4-6/h5,8H,1-4H2	InChI=1S/C7H10O2/c8-5-1-2-6-3-7(5,6)9-4-6/h5,8H,1-4H2/t5-,6-,7+/m0/s1
