19
gdb 55639	2.89619	1.01829	0.90646	4.2168	76.07	-0.2642	0.0101	0.2743	1339.5391	0.156996	-419.26832	-419.257697	-419.256753	-419.305279	37.839	
C	 0.1098100579	 1.5805307329	-0.0292565283	-0.416412
C	 0.0473991945	 0.0371587043	 0.0435208846	 0.080822
C	 0.8936189046	-0.4921398468	 1.2246652372	-0.416417
C	-1.4175760418	-0.4719408758	 0.1176314467	-0.337557
C	-2.2190692069	-0.0243449635	 1.3450481425	 0.408412
N	-3.5016916395	-0.484945613	 1.3494244976	-0.51932
O	-1.7821697854	 0.6718813798	 2.2429286407	-0.350825
C	 0.6078361827	-0.5078691585	-1.2074706862	 0.267267
N	 1.0398351374	-0.9384598431	-2.189623314	-0.345511
H	 1.1447607428	 1.9125127999	-0.1454130947	 0.12905
H	-0.4631930835	 1.9555736743	-0.8824785443	 0.121893
H	-0.301457603	 1.9993049221	 0.8892794708	 0.160448
H	 0.490385517	-0.0996629416	 2.1582151047	 0.160755
H	 0.8771377227	-1.5855612893	 1.2584674487	 0.121866
H	 1.9337305775	-0.1732791983	 1.118121904	 0.128855
H	-1.9582995828	-0.1471693849	-0.7794405032	 0.137582
H	-1.4201743811	-1.568315443	 0.0916182618	 0.13839
H	-3.8755733925	-1.0607667836	 0.6158064129	 0.264398
H	-4.0945140708	-0.237486942	 2.1245811685	 0.266305
10.3109	110.673	131.0853	156.8651	197.316	228.3644	244.8109	260.9277	311.1974	338.8809	362.7967	417.5753	502.8428	584.3398	584.686	610.6643	647.4377	751.8416	833.2667	909.6105	915.1742	960.7821	1000.2004	1048.413	1089.0566	1133.7003	1207.6674	1232.6455	1293.6284	1299.8179	1394.9674	1397.2971	1418.7601	1458.7106	1481.7926	1499.1667	1505.6339	1516.4631	1618.7438	1787.8096	2350.2888	3033.9916	3048.8801	3052.016	3072.3019	3116.8486	3119.6733	3158.4172	3160.8365	3603.9178	3740.1935
CC(C)(CC(N)=O)C#N	CC(C)(CC(=O)N)C#N	
InChI=1S/C6H10N2O/c1-6(2,4-7)3-5(8)9/h3H2,1-2H3,(H2,8,9)	InChI=1S/C6H10N2O/c1-6(2,4-7)3-5(8)9/h3H2,1-2H3,(H2,8,9)
