20
gdb 11912	4.10615	1.55766	1.3018	1.3059	75.41	-0.2258	0.0857	0.3115	1019.4742	0.177305	-349.006733	-348.998732	-348.997788	-349.040043	30.673	
C	-0.0572783562	 1.4998736171	-0.0126762751	-0.407426
C	 0.1943058258	 0.0033133767	-0.0041224139	 0.142685
C	 0.814663328	-0.5813608798	-1.2832878687	-0.215313
C	 1.5268726865	-1.8512212862	-0.7696588256	-0.317447
C	 1.659484681	-1.5876950807	 0.7361198096	 0.471266
C	 1.4279514908	-2.6610060133	 1.7676077603	-0.327598
C	 2.8034953282	-2.0367085481	 1.5822940837	-0.33834
O	 1.1553516172	-0.2989582859	 1.0072275408	-0.297127
H	 0.8711640005	 2.040594428	-0.221291823	 0.121375
H	-0.793472924	 1.7594347231	-0.7798544097	 0.113844
H	-0.4391656472	 1.8335606444	 0.956220136	 0.124254
H	-0.7469892325	-0.5296490509	 0.2179524956	 0.06194
H	 0.0720100659	-0.7865512156	-2.0584613896	 0.098115
H	 1.5397111318	 0.1315448761	-1.6899659695	 0.103112
H	 0.9290810968	-2.7483181211	-0.9564480385	 0.10571
H	 2.4982710806	-1.998736072	-1.2493695063	 0.107492
H	 0.874200958	-2.3793612526	 2.6563311047	 0.11722
H	 1.2736399581	-3.6823639691	 1.4332883181	 0.105179
H	 3.5856547753	-2.6299077368	 1.1197261194	 0.109565
H	 3.1457490253	-1.3509947131	 2.3495500817	 0.121494
19.4713	133.4745	218.9362	239.6802	300.8691	363.9285	427.7538	488.4678	524.9639	576.0144	767.3313	780.8981	807.1051	860.57	879.2685	899.3746	931.4634	946.3866	978.243	996.0665	1014.2078	1049.5101	1072.5522	1107.8313	1133.0575	1155.1408	1189.982	1205.2228	1217.8266	1262.9273	1296.3365	1318.8994	1353.1951	1377.551	1394.6608	1415.7238	1449.7464	1481.3315	1486.4393	1496.7225	1499.098	1506.9229	2944.4377	3039.2507	3048.3092	3053.9999	3088.7876	3107.1002	3114.0893	3117.1137	3123.6124	3129.8297	3210.7147	3225.317
CC1CCC2(CC2)O1	C[C@H]1CCC2(CC2)O1	
InChI=1S/C7H12O/c1-6-2-3-7(8-6)4-5-7/h6H,2-5H2,1H3	InChI=1S/C7H12O/c1-6-2-3-7(8-6)4-5-7/h6H,2-5H2,1H3/t6-/m0/s1
