17
gdb 19879	3.35187	2.26538	2.02071	1.7736	66.82	-0.2151	0.0652	0.2803	762.4541	0.143098	-363.808618	-363.801836	-363.800891	-363.839391	26.487	
C	-0.3261418513	 1.5394772507	-0.0163352859	-0.311021
N	 0.0712909812	 0.1407232536	 0.0710905797	-0.081709
C	 1.3480358273	-0.4051291959	-0.3254944946	-0.042784
C	 2.6329301208	 0.4394523537	-0.3481077214	-0.278798
C	 2.9208956593	 0.8238146146	 1.1007090874	 0.038845
O	 1.9525885882	 1.6861036298	 1.7077127152	-0.248547
C	 1.8577841561	 0.278019483	 1.9617103561	 0.027253
C	 0.8655949319	-0.4899192254	 1.1054433626	-0.064284
H	 0.4921481525	 2.2631024241	 0.0010198377	 0.12674
H	-0.8987564311	 1.6635710026	-0.9424774818	 0.111603
H	-0.9917868355	 1.7687106083	 0.8207769612	 0.12363
H	 1.3010106896	-1.2438980171	-1.0183174412	 0.088672
H	 3.4548488473	-0.1764193133	-0.729473465	 0.110168
H	 2.563684565	 1.3197196817	-0.9969218798	 0.120371
H	 3.9443458958	 0.9865498351	 1.432166559	 0.097389
H	 2.0143120315	-0.0214325849	 2.9946246122	 0.096539
H	 0.4422244811	-1.3912452706	 1.5436932485	 0.085932
107.5914	182.4777	254.9718	307.8392	384.5247	453.9725	583.2391	693.6487	711.5657	739.6302	782.7893	858.3481	860.8433	881.1673	935.4483	956.1611	1020.8224	1031.929	1041.5713	1072.885	1099.9095	1132.9502	1150.7767	1183.2591	1204.5927	1258.5956	1287.6696	1314.5559	1328.5715	1346.0719	1403.6618	1424.5757	1460.9472	1470.8182	1492.7118	1500.1648	3030.1038	3043.8197	3081.9174	3095.7111	3110.9745	3115.4832	3125.6244	3132.8909	3154.8521
CN1C2CC3OC3C12	CN1[C@H]2C[C@H]3O[C@H]3[C@@H]12	
InChI=1S/C6H9NO/c1-7-3-2-4-6(8-4)5(3)7/h3-6H,2H2,1H3	InChI=1S/C6H9NO/c1-7-3-2-4-6(8-4)5(3)7/h3-6H,2H2,1H3/t3-,4+,5-,6+,7?/m0/s1
