19
gdb 111351	2.51198	1.41112	1.07423	1.8654	74.96	-0.2522	0.061	0.3132	1165.3662	0.158364	-422.958386	-422.94987	-422.948926	-422.99167	32.501	
O	 0.0373033336	 1.4820939008	-0.1100704049	-0.423615
C	 0.0585825826	 0.0727247369	 0.077285502	-0.082377
C	-1.340429626	-0.5273054166	 0.0918594096	-0.141952
C	-2.080537049	-0.5787305516	-1.2678249203	 0.004284
O	-1.3068828847	-1.4026964238	-2.1500916523	-0.249451
C	-2.1859711154	-2.0444128272	-1.2099060003	-0.066885
C	-1.4819819961	-2.0774451483	 0.131012654	 0.351661
C	-0.5418701682	-3.1213130503	 0.655545075	-0.323778
C	-1.8882849437	-2.9084993353	 1.3112635857	-0.332712
H	-0.2183356133	 1.6485414803	-1.0227284793	 0.286467
H	 0.660125371	-0.4304963418	-0.6912349799	 0.10836
H	 0.5475691756	-0.0930814949	 1.0436170517	 0.104689
H	-1.9528198624	-0.0437020776	 0.8596869095	 0.084905
H	-2.7393262788	 0.155065877	-1.7178246088	 0.104754
H	-2.9326833409	-2.7205221587	-1.6113428792	 0.1058
H	-0.3904930258	-4.0183159385	 0.0642284837	 0.118653
H	 0.3408024457	-2.7901098231	 1.1926089158	 0.119388
H	-1.9162547326	-2.4320574255	 2.2860355589	 0.116863
H	-2.6540935817	-3.6640020018	 1.165018269	 0.114946
79.5553	133.0753	147.7552	240.53	249.9402	278.5044	304.9253	437.3448	497.1007	558.9727	626.1455	772.3697	788.1663	835.7674	856.835	860.4926	898.0813	936.209	958.6854	967.8113	1000.167	1022.24	1053.646	1056.7564	1070.193	1079.8137	1113.8598	1184.8224	1187.0041	1209.2409	1214.6326	1229.9456	1265.3656	1334.2897	1367.8375	1396.1822	1400.0344	1412.2736	1465.727	1502.0287	1505.7364	3019.0101	3060.3646	3076.3714	3123.013	3130.3396	3174.6859	3189.716	3201.5311	3217.2159	3821.2526
OCC1C2OC2C11CC1	OC[C@H]1[C@H]2O[C@H]2C21CC2	
InChI=1S/C7H10O2/c8-3-4-5-6(9-5)7(4)1-2-7/h4-6,8H,1-3H2	InChI=1S/C7H10O2/c8-3-4-5-6(9-5)7(4)1-2-7/h4-6,8H,1-3H2/t4-,5+,6+/m0/s1
