17
gdb 23479	2.70947	1.42242	1.09186	1.3743	71.67	-0.2333	-0.0153	0.218	1109.4513	0.135584	-455.042636	-455.034466	-455.033522	-455.075722	31.098	
O	 0.0451462886	 1.2392570595	 0.0273719022	-0.384404
N	 0.0985412754	-0.1572623202	 0.1583622786	-0.23799
C	-1.0562785307	-0.6691652306	 0.0497130282	 0.381729
C	-2.4667945858	-0.2198784446	-0.2683281113	-0.269174
N	-2.8645559378	-1.6572834706	-0.4701403413	-0.137078
C	-2.5137985279	-2.1329849	-1.8555945836	-0.223566
C	-1.2213557488	-2.8351382413	-1.3398558841	 0.143294
O	 0.0009950705	-2.6392032706	-1.9861268325	-0.428719
C	-1.4844627622	-2.1159187874	 0.0093535119	-0.127623
H	 0.9647626015	 1.4949754139	 0.1596800654	 0.312175
H	-2.9932351982	 0.2271526952	 0.5821818756	 0.133756
H	-2.5917882036	 0.4329485051	-1.1385470528	 0.130789
H	-3.2792260836	-2.7867601759	-2.2806386633	 0.11376
H	-2.309122265	-1.3213107679	-2.5641460992	 0.103388
H	-1.3577884883	-3.9157295815	-1.2475982481	 0.102205
H	 0.30206245	-1.7421795972	-1.793663944	 0.288149
H	-1.4121014242	-2.688897896	 0.9367513783	 0.099309
62.7164	101.6751	208.9866	274.8911	342.5391	374.1232	396.9851	414.7062	442.2488	497.5164	626.9295	643.9311	745.6954	769.3411	868.9498	906.931	932.3411	967.45	973.8877	994.0581	1036.1555	1060.364	1150.1115	1154.7525	1177.8508	1180.0642	1191.8626	1211.2438	1271.8983	1292.6299	1308.5002	1337.7379	1409.8367	1443.3572	1470.7231	1498.5821	1773.1122	3031.9859	3038.1742	3073.4856	3084.8124	3086.0142	3101.9833	3769.3002	3814.0396
ON=C1CN2CC(O)C12	ON=C1CN2C[C@@H](O)[C@@H]12	
InChI=1S/C5H8N2O2/c8-4-2-7-1-3(6-9)5(4)7/h4-5,8-9H,1-2H2	InChI=1S/C5H8N2O2/c8-4-2-7-1-3(6-9)5(4)7/h4-5,8-9H,1-2H2/t4-,5-/m1/s1
