17
gdb 125300	3.09495	1.62753	1.08085	2.6494	81.86	-0.2041	-0.0095	0.1946	1084.1158	0.139036	-380.905024	-380.897668	-380.896724	-380.936613	28.755	
C	-0.0204937555	 1.5174800199	 0.0600386131	-0.514492
C	-0.0075943327	 0.022206051	 0.0139571764	 0.220616
C	-0.0270673469	-0.7825822322	-1.0726161244	-0.177396
C	-0.0036675015	-2.2591540619	-0.7031403083	-0.430454
C	 0.0333074715	-2.196514234	 0.7975259891	 0.197637
C	 0.0299222852	-0.8660305508	 1.1725775167	 0.329164
N	 0.0629895721	-0.8331963281	 2.5227367098	-0.354671
N	 0.0883209362	-2.0823733904	 3.0576511074	-0.232843
C	 0.0702152867	-2.910480037	 2.0063866065	-0.157835
H	 0.871881287	 1.9090638247	 0.5637688459	 0.130123
H	-0.053611803	 1.9429779339	-0.9458616018	 0.132498
H	-0.8894834919	 1.8923288395	 0.6147568443	 0.129952
H	-0.0561767748	-0.435928123	-2.0987363665	 0.095131
H	-0.8864877777	-2.7810445598	-1.0958473537	 0.129204
H	 0.868295452	-2.764147662	-1.1397488855	 0.129197
H	 0.0711744798	-0.0445240391	 3.1458015778	 0.267856
H	 0.0848232334	-3.9760708309	 2.1837284533	 0.106313
158.6712	179.65	226.4957	231.695	289.7412	475.6432	491.4888	512.9838	585.4816	646.2225	672.6128	730.2441	767.8766	770.2905	879.4706	943.7628	944.5257	975.9246	1013.0505	1066.4095	1083.7883	1092.0732	1136.1658	1175.986	1227.1526	1259.5587	1292.1178	1333.7963	1400.8154	1415.4691	1434.7	1462.1786	1480.4145	1491.4307	1555.8999	1562.8355	1655.4819	3021.6936	3023.9548	3048.8992	3068.8968	3118.4305	3205.7429	3240.6984	3679.4462
CC1=CCC2=C1NN=C2	CC1=CCc2c1[nH]nc2	
InChI=1S/C7H8N2/c1-5-2-3-6-4-8-9-7(5)6/h2,4H,3H2,1H3,(H,8,9)	InChI=1S/C7H8N2/c1-5-2-3-6-4-8-9-7(5)6/h2,4H,3H2,1H3,(H,8,9)
