23
gdb 63649	3.80864	0.766	0.72707	1.7083	87.35	-0.2551	0.0864	0.3415	1679.0265	0.20394	-388.263206	-388.253153	-388.252209	-388.298638	37.49	
C	 0.0636943804	 1.5116823739	-0.3076617319	-0.452692
C	-0.012406461	 0.0321939321	 0.0223276174	 0.328686
C	-1.2994910487	-0.6253199331	-0.443049033	-0.447397
C	 1.2547901684	-0.7921919946	-0.0418851457	-0.330706
C	 0.6059752188	-0.5044285974	 1.2965914125	-0.010777
C	 1.2930013103	 0.3561549216	 2.3399751761	-0.267226
C	 2.2148941293	-0.463963222	 3.2133203894	 0.111947
C	 2.3928143126	-0.1947773275	 4.6446180598	-0.182714
O	 1.5863279792	-1.2879666344	 4.201825477	-0.238575
H	 1.0129694042	 1.961051863	-0.0052699162	 0.111847
H	-0.0412670519	 1.6681776133	-1.3878035144	 0.113554
H	-0.7424087738	 2.0700281044	 0.1836578838	 0.113308
H	-1.4176064825	-0.5350482406	-1.5297037729	 0.111492
H	-1.3180385803	-1.6906531274	-0.1932580721	 0.11307
H	-2.1743238534	-0.1576216382	 0.0245204011	 0.112927
H	 1.2035251938	-1.7996591559	-0.4419213829	 0.106439
H	 2.1811317796	-0.2733546124	-0.2722463572	 0.100735
H	 0.0715800629	-1.3406798373	 1.7415466769	 0.093862
H	 1.8798453928	 1.1515393476	 1.865827261	 0.097179
H	 0.5483668856	 0.8437395001	 2.981400182	 0.10185
H	 3.0305288968	-0.9628321748	 2.6862962908	 0.091461
H	 3.3233198392	-0.4688947085	 5.1403474031	 0.111572
H	 1.8494731277	 0.629421738	 5.1061404556	 0.110158
55.8424	68.0784	119.8194	188.7029	215.7937	223.88	269.3381	316.9584	363.0531	381.7353	427.5047	463.9825	506.3148	696.1826	789.3061	826.4684	855.6923	876.7887	908.6464	919.9634	957.806	971.2545	984.0073	1014.0391	1055.027	1064.2645	1093.5288	1123.9122	1136.9207	1155.3133	1156.8946	1170.5693	1184.1388	1246.9169	1287.9092	1293.9035	1320.0452	1340.3259	1411.5802	1424.884	1427.6709	1445.7688	1467.2858	1483.0293	1493.3434	1494.2015	1502.2262	1515.7528	1530.1095	3017.5039	3022.9908	3028.5251	3068.8924	3075.3272	3078.0372	3078.6763	3096.3981	3098.1366	3110.7509	3118.3397	3134.4447	3163.1539	3201.5522
CC1(C)CC1CC1CO1	CC1(C)C[C@H]1C[C@H]1CO1	
InChI=1S/C8H14O/c1-8(2)4-6(8)3-7-5-9-7/h6-7H,3-5H2,1-2H3	InChI=1S/C8H14O/c1-8(2)4-6(8)3-7-5-9-7/h6-7H,3-5H2,1-2H3/t6-,7+/m1/s1
