20
gdb 55019	2.94891	1.08943	0.97209	1.7449	82.41	-0.2295	-0.0238	0.2057	1324.588	0.169167	-403.121799	-403.112506	-403.111561	-403.156533	34.331	
C	 2.0758785709	 0.100258338	 0.2114158071	-0.48735
C	 1.848171225	-1.3766051214	-0.0462067647	 0.391041
O	 2.2861872126	-2.2334026244	 0.6942809277	-0.322193
C	 1.0407082392	-1.703048472	-1.2687553224	-0.108665
C	 1.2394276706	-3.0467730072	-1.9124569803	-0.241717
N	-0.0068326314	-2.7502138132	-1.2518827372	-0.095921
C	-0.3307755305	-3.4366927479	-0.0266203156	 0.066339
C	-1.6320653318	-3.0573120655	 0.6250743837	-0.276732
C	-1.5043087215	-4.3762114802	-0.1001166756	-0.277124
H	 2.5599608899	 0.5682405254	-0.6536875304	 0.140815
H	 1.1154495195	 0.6104469135	 0.3497653675	 0.145832
H	 2.6955340121	 0.2323142442	 1.0986654965	 0.142447
H	 0.7824405422	-0.8524838366	-1.8947991996	 0.090931
H	 1.2060273646	-3.1209327025	-2.9965445603	 0.117723
H	 1.9437217226	-3.7064779339	-1.4094918316	 0.135585
H	 0.4967787321	-3.7071022295	 0.6226366492	 0.118653
H	-1.6796803772	-3.0576419386	 1.7081327992	 0.113419
H	-2.2148746109	-2.282602355	 0.1401725526	 0.115841
H	-2.0015588276	-4.4643302893	-1.0589973651	 0.118807
H	-1.4606444404	-5.2908583538	 0.4803111595	 0.112271
50.1095	78.5834	145.1835	160.0465	195.4887	265.8198	294.2854	359.0785	406.8663	487.7493	595.9913	646.0715	698.2651	775.0826	785.552	833.1124	875.4855	908.6058	955.0775	960.8916	1003.5038	1018.9926	1047.8787	1056.6517	1075.0806	1091.7566	1122.7893	1143.16	1148.3335	1187.7505	1193.7723	1199.1835	1229.0958	1328.5834	1375.5059	1390.674	1404.5538	1456.8114	1462.9995	1474.0445	1488.4699	1499.3915	1787.5488	3033.4313	3092.6735	3096.1912	3135.1381	3137.6823	3141.035	3153.0731	3155.4476	3189.6508	3221.8141	3235.7616
CC(=O)C1CN1C1CC1	CC(=O)[C@H]1CN1C1CC1	
InChI=1S/C7H11NO/c1-5(9)7-4-8(7)6-2-3-6/h6-7H,2-4H2,1H3	InChI=1S/C7H11NO/c1-5(9)7-4-8(7)6-2-3-6/h6-7H,2-4H2,1H3/t7-,8?/m1/s1
