17
gdb 41642	3.59185	1.97792	1.63328	1.1888	76.52	-0.2192	-0.0128	0.2064	842.164	0.138286	-384.592469	-384.586504	-384.58556	-384.622305	26.074	
C	-0.1216614512	 1.5229811341	-0.0085965619	-0.107946
O	 1.1464644554	 2.240467718	-0.0909160583	-0.295323
C	 2.0579002659	 1.6959997635	-1.0276711481	 0.174725
C	 3.1711995405	 0.6437262161	-0.675024776	-0.118034
C	 2.8906891823	-0.1150041163	-1.957572918	-0.096281
C	 2.5114514711	-0.7771590291	-0.6636209859	-0.142748
C	 1.0798884075	-0.3358739962	-0.7605558919	 0.200606
C	 0.1896609109	 0.0549513612	 0.1533538178	-0.188067
C	 1.4874613387	 0.5771710176	-1.9272830027	-0.191689
H	-0.6313363418	 1.9421369106	 0.8603708137	 0.11497
H	-0.7209251483	 1.7476352326	-0.9004116075	 0.106319
H	 2.5065645092	 2.5306015539	-1.5756325473	 0.081779
H	 4.1266383401	 0.8149549173	-0.1946407091	 0.09033
H	 3.5418270658	-0.4060528679	-2.7677922978	 0.09685
H	 2.9864027237	-1.5888426063	-0.128287073	 0.095099
H	 0.0959703362	-0.4215212057	 1.1241591571	 0.095524
H	 0.8313370741	 0.7789082166	-2.7702911412	 0.083885
243.1535	301.0141	374.3338	464.2931	514.7443	607.1527	632.8541	706.7847	760.6383	787.6439	811.8148	813.5305	847.3219	868.9075	888.2808	911.9968	942.382	974.0426	993.6822	1009.0565	1020.287	1031.792	1051.3864	1071.2098	1118.6106	1131.4278	1175.4752	1189.7234	1247.8034	1249.1277	1270.8384	1303.8456	1341.982	1350.0448	1372.4801	1491.837	1687.178	3016.4979	3059.7338	3117.6232	3146.1549	3173.8679	3192.044	3202.9045	3232.8889
C1OC2C3C4C3C(=C1)C24	C1O[C@H]2[C@@H]3[C@H]4[C@@H]3[C]([CH]1)[C@@H]24	
InChI=1S/C8H8O/c1-2-9-8-5-3(1)4-6(5)7(4)8/h1,4-8H,2H2	InChI=1S/C8H8O/c1-2-9-8-5-3(1)4-6(5)7(4)8/h1,4-8H,2H2/t4-,5+,6-,7-,8+/m0/s1
