17
gdb 29137	3.01036	1.36791	0.95155	4.4475	80.58	-0.2247	-0.0489	0.1758	1216.1297	0.135499	-421.90266	-421.894149	-421.893205	-421.93574	31.511	
C	 0.0918650625	 1.5478033795	-0.016675127	-0.49133
C	 0.0163027542	 0.0456892868	-0.0099512828	 0.18838
C	-0.134368051	-0.6716591229	-1.142249445	 0.001408
O	-0.2052765556	-2.0159979315	-1.1692040112	-0.215498
C	-0.1280888101	-2.794205429	-0.0126079704	 0.385625
O	-0.2009253022	-3.9901552968	-0.1331289787	-0.344789
C	 0.035413348	-2.0585292238	 1.2379641545	 0.094626
C	 0.1188850973	-2.8900053425	 2.4835653782	-0.471389
C	 0.1016473515	-0.7037714306	 1.2129020526	-0.19644
H	 1.0395344448	 1.9011702532	 0.4057827399	 0.135327
H	 0.0098344944	 1.9449629775	-1.0318518671	 0.129611
H	-0.7126219175	 1.9900949653	 0.5821520502	 0.135331
H	-0.2130562281	-0.2461724959	-2.1362062514	 0.133581
H	 0.9583413752	-3.590993928	 2.4261887305	 0.146911
H	 0.2402615385	-2.2625474967	 3.3698395911	 0.116345
H	-0.7812755785	-3.5024643182	 2.6018342236	 0.146906
H	 0.2235555768	-0.1589447563	 2.1466019028	 0.105395
104.5975	144.8186	151.2114	197.2452	257.2496	316.8339	332.9649	399.0261	468.5578	494.5774	558.2013	580.7263	669.1233	780.5865	796.9215	879.0378	942.031	967.8187	981.8165	1036.1146	1041.2847	1067.9082	1072.1341	1196.8866	1207.3239	1297.4461	1371.5167	1414.3406	1420.202	1421.5587	1468.4673	1479.9661	1486.2295	1497.7199	1613.9232	1705.0892	1820.0747	3028.1704	3038.0091	3080.0298	3093.0291	3115.0008	3124.7463	3153.8425	3202.6693
CC1=COC(=O)C(C)=C1	Cc1coc(=O)c(C)c1	
InChI=1S/C7H8O2/c1-5-3-6(2)7(8)9-4-5/h3-4H,1-2H3	InChI=1S/C7H8O2/c1-5-3-6(2)7(8)9-4-5/h3-4H,1-2H3
