19
gdb 101137	2.559	1.43404	1.02722	1.7375	70.95	-0.2541	0.0562	0.3103	1177.5771	0.158411	-460.113211	-460.104395	-460.10345	-460.146774	33.533	
O	-0.9108909741	 0.2932487356	 1.4353044769	-0.423742
C	-0.5878921334	 0.4696736758	 0.0725939967	-0.080448
C	-1.3763883911	-0.4558941969	-0.8721012732	-0.061349
O	-0.9186272483	-0.2991544399	-2.2114342005	-0.419846
C	-1.3319587539	-1.908752517	-0.4531560528	 0.420557
C	-1.5847552938	-3.1330800108	-1.3490323731	-0.286395
C	-2.0744740533	-3.9098967888	-0.0753502912	-0.241967
C	-1.7891324711	-2.6455039187	 0.7394912593	-0.057346
O	-0.3890625207	-2.3407696304	 0.5641481994	-0.308569
H	-0.5294328404	-0.5612377426	 1.6761767141	 0.296862
H	-0.8106329297	 1.5079175117	-0.1895381312	 0.117442
H	 0.4875248307	 0.307557237	-0.1116340527	 0.08122
H	-2.425498773	-0.1402918624	-0.8983195634	 0.106835
H	 0.0239228214	-0.5023906934	-2.2264896341	 0.284703
H	-2.3821223924	-2.9648428144	-2.0753829344	 0.121367
H	-0.7027928537	-3.5220638175	-1.8619105207	 0.108591
H	-3.1362446037	-4.1621923109	-0.1201206602	 0.112236
H	-1.5011866987	-4.7905550287	 0.2221877971	 0.115175
H	-2.2561347407	-2.2868747675	 1.6493723639	 0.114676
65.2922	144.803	175.2814	196.4103	241.7236	297.1221	327.4347	387.2581	441.9277	508.0448	533.7734	608.9502	676.3084	722.5734	770.2669	869.7426	912.508	929.0183	935.5225	983.7437	1010.772	1039.6424	1062.3561	1083.2922	1091.7305	1132.775	1179.031	1208.3436	1211.0651	1222.2242	1262.8423	1273.5653	1279.3613	1347.1599	1397.0253	1412.389	1440.3194	1442.1219	1463.7161	1488.4815	1496.6405	2965.0252	3052.4499	3069.9617	3077.9565	3091.2597	3122.0403	3138.893	3190.6546	3761.3321	3792.088
OCC(O)C12CCC1O2	OC[C@@H](O)[C@]12CC[C@H]1O2	
InChI=1S/C6H10O3/c7-3-4(8)6-2-1-5(6)9-6/h4-5,7-8H,1-3H2	InChI=1S/C6H10O3/c7-3-4(8)6-2-1-5(6)9-6/h4-5,7-8H,1-3H2/t4-,5-,6-/m1/s1
