22
gdb 59142	2.97985	1.18429	1.15429	1.9229	85.62	-0.2033	0.0717	0.2751	1231.5761	0.19365	-367.121246	-367.112331	-367.111386	-367.155556	34.951	
C	 0.0498268452	 1.4383230075	-0.2092326139	-0.381056
C	 0.1906412608	-0.0372418329	 0.1904132993	-0.01092
C	 0.6963926699	-0.1765724751	 1.6332023189	-0.381052
C	-1.1616561264	-0.7336573718	 0.0545575374	 0.032992
C	-1.9340866197	-1.2116804844	-1.15173992	-0.112398
C	-1.1708495479	-2.1132459341	-2.1642306301	-0.05521
N	 0.2544787914	-2.2447063193	-1.7664897572	-0.330665
C	-0.7949707311	-3.0521297495	-1.0928724233	-0.055209
C	-1.5413720961	-2.1926169105	-0.0323981528	-0.112397
H	 1.0080669013	 1.9614002134	-0.1211568832	 0.103721
H	-0.2947490383	 1.5357910684	-1.2437224191	 0.111589
H	-0.6714170713	 1.9590177654	 0.4338593578	 0.100098
H	 0.9056081032	-0.5128436734	-0.4773476192	 0.112929
H	 0.8122978753	-1.2291479341	 1.9107837528	 0.111591
H	 1.6672813633	 0.3149039464	 1.7573735119	 0.10372
H	-0.0002241101	 0.2825475363	 2.3465164753	 0.100098
H	-1.8812778092	-0.254485356	 0.7269536534	 0.080703
H	-2.9267796486	-0.8415731165	-1.3779403216	 0.085337
H	-1.4870023318	-2.3013948735	-3.1820264069	 0.09192
H	 0.6927511882	-2.85611675	-2.4560642104	 0.226952
H	-0.7534941583	-4.1335817082	-1.091321929	 0.091919
H	-2.2005571196	-2.655560008	 0.6919942397	 0.085337
20.7678	135.616	192.7464	230.9568	249.0969	306.2984	314.2844	369.4831	437.1548	558.4376	638.5504	700.4761	705.6576	735.6504	819.1876	852.2301	860.9021	865.5795	903.7994	928.5611	931.0789	949.9252	973.3095	994.56	1001.1818	1042.1074	1078.9546	1098.7407	1123.4938	1130.4623	1147.9486	1183.5484	1229.1073	1255.9455	1265.8405	1301.3908	1316.4854	1352.3222	1365.3688	1382.922	1394.2773	1411.626	1454.1904	1487.5316	1490.8978	1502.5336	1509.1029	3015.834	3019.874	3049.0725	3079.3364	3079.6121	3099.057	3100.7657	3149.3361	3173.7286	3183.7355	3190.193	3203.3315	3458.3297
CC(C)C1C2C3NC3C12	CC(C)[C@H]1[C@H]2[C@H]3N[C@H]3[C@@H]12	
InChI=1S/C8H13N/c1-3(2)4-5-6(4)8-7(5)9-8/h3-9H,1-2H3	InChI=1S/C8H13N/c1-3(2)4-5-6(4)8-7(5)9-8/h3-9H,1-2H3/t4-,5+,6-,7+,8-
