23
gdb 90428	2.37557	1.47818	1.21901	1.2915	84.72	-0.2467	0.067	0.3138	1165.2543	0.205817	-388.263158	-388.253875	-388.252931	-388.296632	36.456	
C	-0.0324424615	 1.6115435484	 0.0678746289	-0.411289
C	 0.0769651591	 0.0928620965	 0.0283455134	 0.025996
C	 1.0956345949	-0.6176615012	-0.9428012146	-0.008157
C	 2.1260313016	 0.2356598033	-1.678644071	-0.393796
C	 1.540844911	-1.5601276823	 0.2296341899	-0.058811
C	 2.7971499333	-1.2317705434	 1.0537132035	 0.140002
O	 3.9687082702	-0.9212311586	 0.332231146	-0.430313
C	 2.0213634299	-0.1133698544	 1.8103849711	-0.295824
C	 0.6925359874	-0.677630932	 1.2221393528	-0.033289
H	 0.9313360823	 2.099573682	 0.2396786571	 0.115716
H	-0.4295455701	 1.9998679412	-0.8765503991	 0.113185
H	-0.7117013121	 1.9306553617	 0.8667294005	 0.109459
H	-0.9228657273	-0.3139596055	-0.1620561226	 0.067085
H	 0.5571650354	-1.2041795771	-1.6940647242	 0.06863
H	 2.7195136645	 0.8601471037	-1.0089833004	 0.120496
H	 2.8308825727	-0.3980115131	-2.2249440913	 0.118227
H	 1.6249206802	 0.8875499634	-2.4036525204	 0.098348
H	 1.346174987	-2.6190241978	 0.0510321018	 0.057164
H	 2.9834241048	-2.0720640486	 1.7402365067	 0.066032
H	 4.6854832367	-0.7951456351	 0.9619844437	 0.281096
H	 2.1092357964	-0.1257098289	 2.8997389316	 0.091812
H	 2.2721939859	 0.8893433086	 1.4562971811	 0.101744
H	 0.0073867677	-1.1081916508	 1.9539020755	 0.056488
73.4269	176.5552	209.1594	223.0148	247.7174	256.8588	263.7257	305.3506	396.8755	428.8317	499.47	568.5904	600.885	713.7921	743.1626	750.3423	838.0687	852.419	900.357	959.1317	979.447	1000.617	1013.6347	1037.219	1079.8259	1093.0664	1119.5227	1129.3855	1156.8947	1171.6728	1182.0812	1200.6785	1216.5411	1244.1849	1266.7489	1296.326	1313.4088	1328.2973	1345.3429	1367.6559	1371.0749	1410.1923	1420.2941	1430.6209	1482.2592	1487.4228	1488.7619	1500.2436	1506.0926	2972.0357	3021.3308	3029.5127	3033.9923	3045.01	3060.3762	3082.5176	3088.6938	3094.3754	3099.605	3103.8313	3115.6239	3134.2241	3814.6238
CC1C(C)C2C(O)CC12	C[C@H]1[C@@H](C)[C@H]2[C@@H](O)C[C@@H]12	
InChI=1S/C8H14O/c1-4-5(2)8-6(4)3-7(8)9/h4-9H,3H2,1-2H3	InChI=1S/C8H14O/c1-4-5(2)8-6(4)3-7(8)9/h4-9H,3H2,1-2H3/t4-,5+,6-,7-,8+/m0/s1
