17
gdb 22510	2.42639	1.20198	1.1235	0.84	79.11	-0.2379	-0.0053	0.2326	1194.362	0.133176	-417.902519	-417.893078	-417.892133	-417.936582	34.968	
C	-0.228610066	 1.5798569452	 0.2113930965	-0.419983
C	 0.0142972703	 0.0754570706	 0.084021797	 0.052668
N	 1.2092731726	-0.2701065282	-0.7766636587	-0.352461
C	 1.8081846105	-1.12647475	 0.2906866342	-0.26
C	 0.7620319658	-0.5972477736	 1.2393720609	 0.377372
N	 0.5304730455	-0.5783156015	 2.4789599636	-0.235161
O	 1.5075231636	-1.2952140359	 3.1888036578	-0.387339
C	-1.1978516096	-0.6445216241	-0.2993616078	 0.32419
C	-2.1809851029	-1.2395729016	-0.6543182395	-0.487571
H	 0.7069400764	 2.0799662655	 0.4711981646	 0.12537
H	-0.5932170257	 1.9825040826	-0.7377287395	 0.126357
H	-0.9721413879	 1.778912602	 0.9876793833	 0.13571
H	 0.9475059951	-0.7846365235	-1.6106042345	 0.227354
H	 1.7314530748	-2.2096857246	 0.1286912664	 0.127282
H	 2.8481480311	-0.8820209065	 0.5298116939	 0.134159
H	 1.2154179538	-1.1904119164	 4.1008862852	 0.310423
H	-3.0533651374	-1.7661944397	-0.9539822035	 0.20163
81.7779	109.701	161.8517	187.3457	211.6325	239.9553	311.4575	361.7003	410.7061	433.2084	494.7006	524.4526	617.3046	631.7288	638.1882	649.585	745.1237	777.7855	929.6027	950.6196	968.2978	985.0672	1022.488	1106.567	1118.8797	1153.9469	1190.5959	1225.3234	1295.451	1369.7487	1399.2405	1409.9513	1481.2725	1484.6293	1491.3536	1804.0735	2226.197	3019.2663	3047.6999	3072.4656	3126.5498	3136.4126	3499.7387	3538.2263	3815.541
CC1(NCC1=NO)C#C	C[C@]1(NCC1=NO)C#C	
InChI=1S/C6H8N2O/c1-3-6(2)5(8-9)4-7-6/h1,7,9H,4H2,2H3	InChI=1S/C6H8N2O/c1-3-6(2)5(8-9)4-7-6/h1,7,9H,4H2,2H3/t6-/m0/s1
