15
gdb 34162	3.98075	1.59788	1.39682	1.4098	74.11	-0.2297	0.0166	0.2463	913.9213	0.113643	-379.524989	-379.518585	-379.517641	-379.555582	26.515	
C	-0.0176500996	-1.1404524042	 0.0159975512	-0.334552
C	-0.0322442862	 0.0620644753	 0.0139881837	 0.00839
C	-0.0673398551	 1.4923042414	-0.001031065	 0.282214
N	-1.0055977066	 2.2333710487	 0.9231962473	-0.359301
C	-0.8521229832	 3.355116844	-0.0572423539	-0.066556
C	 0.648900099	 3.7069835931	-0.0317475941	-0.024472
C	 1.2317115017	 2.3422532548	-0.0001485776	-0.077017
N	 0.986706021	 3.0084299878	-1.3213082192	-0.186046
C	-0.4240680742	 2.4186774454	-1.2246357374	-0.051339
H	 0.0014336057	-2.2023376776	 0.0206004044	 0.188695
H	-1.9340243045	 1.8245954272	 0.7988576106	 0.219434
H	-1.6088952521	 4.1350865905	-0.08560976	 0.088111
H	 1.1516665067	 4.6087325627	 0.2916100428	 0.107147
H	 2.2193152855	 2.0725158436	 0.3486094033	 0.109767
H	-0.9847848381	 2.1361026873	-2.113514166	 0.095524
146.4431	158.2917	440.628	456.1121	526.4723	541.5989	583.0864	630.2221	662.4698	757.4162	774.5843	790.7183	818.213	856.2886	869.7547	894.4489	914.238	952.8707	959.6901	972.3844	1008.1249	1037.9913	1092.1372	1128.7837	1138.2043	1199.1624	1200.813	1218.6704	1252.6252	1303.5135	1335.9609	1368.1208	2238.5386	3138.1306	3155.2249	3202.6748	3215.4134	3442.3639	3500.9519
C#CC12NC3C4C1N4C23	C#C[C@@]12N[C@H]3[C@H]4[C@@H]1N4[C@@H]23	
InChI=1S/C7H6N2/c1-2-7-5-3(8-7)4-6(7)9(4)5/h1,3-6,8H	InChI=1S/C7H6N2/c1-2-7-5-3(8-7)4-6(7)9(4)5/h1,3-6,8H/t3-,4-,5+,6-,7-,9?/m0/s1
