21
gdb 90031	3.02606	1.19452	1.01907	2.4406	78.57	-0.2439	0.0727	0.3165	1265.6491	0.180997	-424.203116	-424.193929	-424.192984	-424.237424	34.405	
C	 0.3947648011	 1.5602536977	 0.0981703537	-0.398367
C	-0.0619896751	 0.124529688	-0.0547281717	 0.158005
C	 0.4182554066	-0.6751346312	-1.2851977415	-0.3783
C	 1.0489293145	-1.6241542786	-0.2509982049	 0.352617
C	 0.7071666612	-3.123527848	-0.1805913609	-0.128719
O	 2.0795525677	-3.4845553396	-0.4319981855	-0.299892
C	 2.5169400517	-2.1098659623	-0.2872011092	 0.112526
C	 3.4462366945	-1.6731693745	-1.3984020819	-0.41497
O	 0.6479763305	-0.7801296245	 0.8343722039	-0.324842
H	 1.4696050108	 1.6483954942	-0.0892310956	 0.11801
H	-0.1374577576	 2.2082305995	-0.6070495917	 0.117341
H	 0.1928845362	 1.9199196138	 1.1119622614	 0.129648
H	-1.1437966058	 0.0493865737	 0.1183933037	 0.077906
H	-0.358683462	-1.1100652675	-1.9163721603	 0.111132
H	 1.1350626398	-0.1417800784	-1.913542991	 0.112184
H	 0.3658797644	-3.4307860204	 0.816973335	 0.106546
H	 0.0273028919	-3.5236322782	-0.9426475562	 0.098598
H	 2.9830808051	-1.9514063376	 0.6967542898	 0.081119
H	 2.9733161368	-1.7942273552	-2.3776907051	 0.120152
H	 3.7340000296	-0.6238738722	-1.2706824871	 0.118028
H	 4.3581973282	-2.2779557689	-1.3839683049	 0.131278
53.3348	76.7669	194.6691	217.5105	233.0688	249.7233	295.7396	362.9202	385.3352	452.6339	501.8194	524.8851	754.9963	778.4623	867.0615	872.8065	893.5969	916.0244	922.4599	955.1927	1014.9865	1018.572	1068.793	1094.6775	1104.9234	1118.4808	1155.9342	1176.0129	1180.6884	1216.861	1232.7411	1277.5154	1283.1852	1319.6079	1355.7044	1381.9286	1391.0144	1405.0775	1410.3586	1480.2297	1482.8283	1488.3492	1494.3202	1496.2847	1511.4822	2994.6605	3008.8758	3011.7558	3032.541	3034.5124	3058.2528	3073.0787	3105.4128	3106.7643	3111.6489	3113.3411	3127.9238
CC1CC2(COC2C)O1	C[C@H]1C[C@]2(CO[C@H]2C)O1	
InChI=1S/C7H12O2/c1-5-3-7(9-5)4-8-6(7)2/h5-6H,3-4H2,1-2H3	InChI=1S/C7H12O2/c1-5-3-7(9-5)4-8-6(7)2/h5-6H,3-4H2,1-2H3/t5-,6-,7+/m0/s1
