14
gdb 69030	2.93146	1.36727	1.15161	3.3072	71.41	-0.2581	-0.0271	0.231	1054.1901	0.10091	-432.837054	-432.829164	-432.82822	-432.86951	29.712	
O	 0.057693654	 1.3777441381	-0.1891926745	-0.421486
C	 0.0266328583	 0.0347311665	-0.0095582842	 0.299301
C	-0.2767079712	-0.8766517879	-1.1641761528	-0.350364
C	-1.1601084153	-1.0045759862	 0.0600327239	 0.112455
N	-0.4641891957	-1.6788127563	 1.1617988789	-0.387093
C	 0.6216677335	-0.7496867236	 1.1275911111	 0.303591
N	 1.6507689703	-0.5484015563	 1.8225811188	-0.532873
C	-2.564989295	-0.7915107998	 0.0799193471	 0.23915
N	-3.7082837073	-0.6086340086	 0.0866247788	-0.344002
H	 0.0675975917	 1.8051644439	 0.6763267638	 0.312709
H	-0.728328722	-0.3560191291	-2.0036547921	 0.159131
H	 0.3848006638	-1.6972175642	-1.4297191224	 0.132113
H	-0.2681067078	-2.6722229428	 1.0754810914	 0.245854
H	 1.7674913128	-1.2568791936	 2.5492529525	 0.231513
101.5722	119.6049	186.7205	269.7468	352.0189	378.6848	401.865	477.4232	528.9676	558.1364	633.8824	653.4055	683.1331	718.5334	762.6052	847.9887	878.9779	942.9191	970.6477	1027.1115	1077.0174	1106.8855	1169.3632	1256.5497	1310.1033	1328.4142	1383.2004	1425.8742	1491.8626	1809.1	2345.0882	3114.2208	3212.5675	3469.8406	3510.5321	3789.8437
OC12CC1(NC2=N)C#N	O[C@]12C[C@]1(N[C]2[NH])C#N	
InChI=1S/C5H5N3O/c6-2-4-1-5(4,9)3(7)8-4/h9H,1H2,(H2,7,8)	InChI=1S/C5H5N3O/c6-2-4-1-5(4,9)3(7)8-4/h9H,1H2,(H2,7,8)/t4-,5-/m0/s1
