18
gdb 14101	3.18975	1.68261	1.40902	1.9511	68.45	-0.2503	0.0601	0.3104	964.095	0.152157	-384.912506	-384.904168	-384.903224	-384.945049	31.027	
C	-0.0583055849	 1.4964763765	-0.1003834897	-0.418243
C	-0.0439965312	 0.0008143764	 0.0681901998	-0.011335
O	 1.2268069468	-0.6608718482	-0.1072645872	-0.304973
C	 0.6363520083	-0.6735879337	 1.1768040986	 0.421685
C	 1.2212292158	-0.0927454096	 2.4677513122	-0.325682
C	 0.3433874745	-1.1222768449	 3.2418189357	-0.261749
C	 0.1622241072	-1.9222874446	 1.912684199	 0.048051
O	-1.1164608737	-2.377370244	 1.5450239985	-0.430135
H	 0.795171839	 1.9578309989	 0.4028149662	 0.125166
H	-0.0134680036	 1.7629772386	-1.1615457576	 0.129224
H	-0.9812241456	 1.9192138222	 0.3119036302	 0.121684
H	-0.8748382292	-0.5367394632	-0.3888309391	 0.105877
H	 2.2913428977	-0.3001402865	 2.556329324	 0.114883
H	 1.0496637971	 0.9665283551	 2.6689346291	 0.10943
H	 0.8015588313	-1.6427416842	 4.0846363977	 0.098133
H	-0.6116754448	-0.6920328354	 3.5523072076	 0.112852
H	 0.9156570556	-2.7185862298	 1.8276306284	 0.077632
H	-1.2457003503	-3.2604249338	 1.9031449267	 0.287502
106.8464	144.4487	175.5503	202.8268	221.6299	253.5846	380.6625	452.1348	469.8083	549.9161	557.6648	708.1614	792.1224	802.9404	864.6515	922.5774	938.4807	979.6666	1027.4184	1081.5723	1086.0639	1116.0266	1133.4851	1161.4161	1185.9553	1205.1623	1212.8048	1246.4803	1264.7154	1297.4519	1354.1396	1407.9579	1435.3348	1471.0131	1475.0834	1490.4842	1493.8403	1529.4268	3001.5902	3035.8257	3064.1086	3072.0864	3098.7693	3110.2985	3114.1474	3129.4317	3133.6106	3829.6329
CC1OC11CCC1O	C[C@H]1O[C@]21CC[C@H]2O	
InChI=1S/C6H10O2/c1-4-6(8-4)3-2-5(6)7/h4-5,7H,2-3H2,1H3	InChI=1S/C6H10O2/c1-4-6(8-4)3-2-5(6)7/h4-5,7H,2-3H2,1H3/t4-,5-,6+/m1/s1
