17
gdb 41224	3.1067	1.84898	1.51037	0.4816	75.17	-0.1954	-0.0323	0.1631	894.416	0.138194	-421.768427	-421.761779	-421.760835	-421.79901	27.698	
C	-0.0574107352	 1.1341917967	 0.1101439771	-0.12859
O	 1.3866565314	 1.3300534966	-0.323151871	-0.259537
C	 1.9296015103	 0.2583546084	-0.9529054043	 0.059967
C	-0.3159908944	-0.3297180712	 0.1024459391	 0.026751
C	 0.8630651875	-1.018028991	 0.7598458845	-0.310394
C	 1.730137992	-0.9965607997	-0.4826692139	 0.026751
C	 1.3317106098	-2.1423091422	-1.3420123266	-0.12859
O	-0.1881853491	-2.165658394	-1.3704926468	-0.259537
C	-0.7706085636	-1.0041432383	-0.9811563883	 0.059967
H	-0.0954800152	 1.6028616894	 1.096097721	 0.121995
H	-0.6645315679	 1.7015721723	-0.5980649892	 0.120687
H	 2.4310991566	 0.4987947165	-1.8883248431	 0.104142
H	 1.2723223007	-0.435690536	 1.5872233633	 0.109782
H	 0.6444147897	-2.0340081487	 1.0932245016	 0.109782
H	 1.6517030409	-2.056458245	-2.3823538544	 0.120687
H	 1.5963060048	-3.1263392475	-0.9484650704	 0.121995
H	-1.5375623385	-0.6406537963	-1.6623158687	 0.104142
166.7057	290.0083	323.9497	397.1095	420.3333	457.4675	489.4109	586.2552	591.7978	671.9475	702.6813	780.0511	785.2386	840.39	868.3759	877.7609	927.205	982.1997	995.9922	1036.6295	1111.5632	1122.4733	1145.1408	1175.9891	1184.4239	1192.3948	1241.4684	1245.6805	1340.856	1344.5811	1353.6233	1384.7768	1491.5677	1503.2395	1505.0191	1616.7535	1638.1856	3066.9969	3067.7863	3073.0121	3122.4092	3123.6669	3130.2312	3142.9406	3143.9218
C1OC2C11CC22COC12	C1O[CH][C]2C[C]1[CH]OC2	
InChI=1S/C7H8O2/c1-6-2-8-4(6)7(1)3-9-5(6)7/h4-5H,1-3H2	InChI=1S/C7H8O2/c1-6-2-8-4-7(1)5-9-3-6/h2,5H,1,3-4H2
