19
gdb 86790	3.12331	1.00149	0.8674	1.0646	77.67	-0.2489	0.0398	0.2887	1379.856	0.15633	-422.973288	-422.96343	-422.962486	-423.009125	35.779	
C	 0.282034281	 1.4862217489	-0.1829680086	-0.407288
C	 0.0295203459	 0.0173792492	 0.0901704053	 0.118623
O	 0.8091863991	-0.8553754797	-0.7646696689	-0.307653
C	 1.3192748354	-1.6069400376	 0.3565019897	 0.106553
C	 2.8466388817	-1.7015519911	 0.3783637754	-0.368814
C	 3.3714433725	-2.5559222884	-0.6784991841	 0.292962
C	 3.7875600218	-3.271351171	-1.5494328521	-0.428012
C	 0.6399631888	-0.6364007209	 1.3628104801	 0.040036
O	 1.4578995928	 0.1442037743	 2.1966996645	-0.41933
H	 1.3414155244	 1.7459148439	-0.0832038651	 0.104106
H	-0.0162504021	 1.7265838008	-1.2076694358	 0.136944
H	-0.2972241278	 2.1120855921	 0.502991042	 0.129194
H	-1.0422925042	-0.2013385634	-0.0148844654	 0.078533
H	 0.8943443441	-2.6190854481	 0.3758199518	 0.085877
H	 3.2764837251	-0.6967496164	 0.2859105649	 0.113944
H	 3.1515779509	-2.0838126356	 1.3610276653	 0.142416
H	 4.160988605	-3.8972585359	-2.3213258543	 0.195437
H	-0.0845684686	-1.1106033711	 2.0271342276	 0.098735
H	 2.0434166743	 0.6800468801	 1.6520327679	 0.287737
29.7454	54.0615	118.8348	191.4422	219.5882	257.1036	287.671	338.1109	362.6658	388.6642	477.7958	520.4727	570.1378	623.3716	641.2233	782.501	816.1495	839.4475	890.4863	920.2142	976.6008	1019.931	1044.1886	1080.9682	1110.8712	1135.1607	1177.6141	1225.8096	1241.0292	1257.3348	1276.7917	1308.6444	1347.2334	1369.1798	1399.8949	1414.5541	1442.7245	1450.3271	1478.7838	1499.1023	2242.4138	3003.5766	3016.8889	3025.4176	3035.0076	3061.8092	3099.2525	3104.1782	3118.7798	3508.1405	3819.2385
CC1OC(CC#C)C1O	C[C@H]1O[C@@H](CC#C)[C@H]1O	
InChI=1S/C7H10O2/c1-3-4-6-7(8)5(2)9-6/h1,5-8H,4H2,2H3	InChI=1S/C7H10O2/c1-3-4-6-7(8)5(2)9-6/h1,5-8H,4H2,2H3/t5-,6+,7+/m1/s1
