19
gdb 52526	3.66493	0.75745	0.74013	3.2088	89.87	-0.2492	-0.0454	0.2038	1665.4655	0.156707	-385.878969	-385.868724	-385.86778	-385.916178	35.591	
C	 0.0467998598	 1.4378484303	-0.2137458702	-0.503347
C	 0.0230624997	-0.0065105406	-0.0598801005	 0.125573
C	-0.0160559189	-1.2062964342	 0.067690401	-0.007868
C	-0.0617650172	-2.6468845239	 0.2260259002	 0.22673
O	-1.1113743778	-3.2271016452	 0.448442947	-0.328996
C	 1.2473447723	-3.3417487482	 0.0896807408	-0.128917
C	 1.3986575697	-4.7276144399	 0.6948117717	-0.288412
C	 1.3689073107	-4.6000950973	-0.7903027413	 0.016256
C	 0.2188205305	-5.1271577698	-1.6169419485	-0.417559
H	 1.06661301	 1.8325685874	-0.1582373385	 0.155594
H	-0.3740176266	 1.7284802009	-1.1827714811	 0.162519
H	-0.5506702585	 1.9245273098	 0.5646021082	 0.162266
H	 2.1109246765	-2.6868830717	 0.0945001866	 0.0923
H	 2.333278992	-4.9525582318	 1.1961291666	 0.113133
H	 0.5047721037	-5.1104561644	 1.1760731589	 0.139123
H	 2.3365993723	-4.6598234354	-1.2823518435	 0.0933
H	-0.732967653	-4.9989575603	-1.0987629427	 0.157085
H	 0.1565024734	-4.6115308815	-2.5812742026	 0.115611
H	 0.3616325611	-6.1946137241	-1.8182418322	 0.115609
21.2251	40.9621	84.7969	152.4923	179.0069	213.7284	246.5257	298.9841	351.2492	383.7365	414.9523	444.6291	573.7579	717.0427	751.1631	794.63	847.0593	877.112	943.9478	959.6147	1027.6666	1044.4378	1054.6194	1075.9147	1095.1197	1119.7222	1145.8589	1191.7128	1210.132	1234.0444	1389.3435	1407.676	1409.9602	1425.1876	1470.3728	1474.3637	1474.5045	1500.3622	1504.7712	1729.5613	2338.6331	3031.1454	3035.1794	3091.1887	3094.0714	3097.9187	3129.2086	3134.576	3146.6081	3177.9688	3227.9553
CC#CC(=O)C1CC1C	CC#CC(=O)[C@H]1C[C@H]1C	
InChI=1S/C8H10O/c1-3-4-8(9)7-5-6(7)2/h6-7H,5H2,1-2H3	InChI=1S/C8H10O/c1-3-4-8(9)7-5-6(7)2/h6-7H,5H2,1-2H3/t6-,7+/m1/s1
