20
gdb 121002	3.40996	0.86733	0.74355	2.2114	76.61	-0.2406	0.0311	0.2717	1552.4688	0.170446	-440.309272	-440.299569	-440.298625	-440.344934	34.359	
C	 0.1470065453	 1.3718897866	 0.2481223359	-0.471561
C	-0.0132043779	-0.0912479713	 0.0138255708	 0.405832
N	 0.2138136718	-0.7118659291	-1.0707590122	-0.305093
C	-0.0855960056	-2.1258323337	-0.8146470956	-0.206739
C	-0.5097402838	-2.1912517459	 0.6790471298	 0.081635
C	 0.3998752017	-3.0328928767	 1.562490838	-0.1864
C	 0.0080275425	-3.0118678058	 3.0345783339	-0.078007
O	 0.9036395013	-3.8674588905	 3.7284919828	-0.421501
O	-0.4528417184	-0.7988873378	 1.0944501151	-0.266529
H	 0.8678214611	 1.5508297879	 1.0521780778	 0.143171
H	 0.4907256981	 1.8543040252	-0.6660882295	 0.151909
H	-0.8049467982	 1.8119201878	 0.5615718437	 0.143259
H	-0.8765160918	-2.4696024693	-1.4897114986	 0.112822
H	 0.8002128024	-2.7404294705	-1.0140266788	 0.112876
H	-1.5519612403	-2.5096221176	 0.7964389874	 0.086127
H	 0.373907626	-4.069262072	 1.203726814	 0.111851
H	 1.4341170586	-2.6842213596	 1.4582850234	 0.11413
H	 0.0580551311	-1.9806724429	 3.4119666331	 0.103531
H	-1.0354359325	-3.3523674804	 3.1446739639	 0.082175
H	 0.7050497886	-3.8117438143	 4.6675484348	 0.28651
42.583	95.69	102.0779	138.54	161.3584	239.3897	266.5831	316.2879	333.5928	410.0653	500.5275	612.7533	657.1813	753.6775	802.6063	863.8207	939.8777	950.2485	978.0179	997.3617	1047.9934	1066.4119	1071.5258	1085.0521	1098.3239	1142.9425	1206.7234	1227.2191	1251.4015	1257.2431	1310.2493	1316.0098	1331.3491	1364.3076	1399.1728	1419.1266	1462.0062	1475.6531	1476.7788	1479.2968	1505.4489	1529.3718	1745.8049	2960.5171	3016.1873	3029.1592	3036.3863	3036.5392	3050.3446	3068.2208	3082.4014	3107.0649	3166.1824	3832.4994
CC1=NCC(CCO)O1	CC1=NC[C@@H](CCO)O1	
InChI=1S/C6H11NO2/c1-5-7-4-6(9-5)2-3-8/h6,8H,2-4H2,1H3	InChI=1S/C6H11NO2/c1-5-7-4-6(9-5)2-3-8/h6,8H,2-4H2,1H3/t6-/m1/s1
