18
gdb 14441	4.13738	2.06999	1.80557	1.554	70.56	-0.2189	0.0901	0.309	808.6109	0.155317	-347.783392	-347.776729	-347.775785	-347.813755	26.961	
C	-0.0120403371	 1.4681762965	-0.0472968509	-0.498871
C	-0.0331976696	-0.0227335768	 0.018161634	 0.480893
O	 0.8330910678	-0.7392860727	-0.8747118367	-0.346523
C	-0.0803857347	-1.8875331084	-0.8131341043	 0.096473
C	 0.5122960884	-2.8957896947	 0.1649122067	-0.206141
C	 0.6153595809	-2.0743711215	 1.4825888553	-0.227559
C	-0.3058515115	-0.8749593015	 1.2476270672	-0.11904
C	-1.1159682386	-1.0580888504	-0.0275607181	-0.214532
H	 0.9695914077	 1.8534036202	 0.2507522552	 0.13002
H	-0.220258097	 1.8163140959	-1.0640026431	 0.127843
H	-0.7620448096	 1.8911363889	 0.6275116844	 0.121829
H	-0.3304707951	-2.252595633	-1.8108287344	 0.075645
H	-0.1643120498	-3.7513566642	 0.2775115653	 0.095814
H	 1.480434795	-3.2704996481	-0.1789457981	 0.105943
H	 0.2902051566	-2.6554129511	 2.3503447212	 0.096604
H	 1.6450151962	-1.7554995612	 1.6692271517	 0.109005
H	-0.7727228168	-0.371875594	 2.0878015625	 0.081981
H	-2.1891659327	-1.0055532739	-0.1482227481	 0.090617
193.1884	209.9014	224.0497	283.9369	409.0207	496.1936	585.9463	713.5958	730.2715	749.3475	818.6943	843.4973	872.8564	887.9886	903.9186	911.0055	965.1402	986.4281	1008.3826	1030.3537	1039.764	1081.784	1109.7748	1160.9997	1184.8543	1208.016	1232.1782	1263.0807	1283.8575	1304.8807	1328.5833	1339.0033	1404.984	1463.6377	1473.5095	1474.1522	1497.3999	1502.4655	3032.3271	3036.6469	3055.0252	3086.0663	3096.7198	3099.5277	3103.3992	3114.2963	3171.7129	3203.8655
CC12OC3CCC1C23	C[C@@]12O[C@H]3CC[C@@H]1[C@@H]23	
InChI=1S/C7H10O/c1-7-4-2-3-5(8-7)6(4)7/h4-6H,2-3H2,1H3	InChI=1S/C7H10O/c1-7-4-2-3-5(8-7)6(4)7/h4-6H,2-3H2,1H3/t4-,5+,6-,7-/m1/s1
