18
gdb 53214	3.33253	0.91041	0.81247	3.2201	83.38	-0.2576	0.0176	0.2752	1475.7174	0.145669	-401.929755	-401.919888	-401.918944	-401.9671	34.12	
C	 0.1989236354	 1.5847430689	-0.2583214799	-0.499262
C	 0.1141579026	 0.1434209706	-0.0808960614	 0.053601
C	 0.0467003194	-1.0491365439	 0.0738336907	 0.128032
C	-0.0280629598	-2.4830951772	 0.2394507664	-0.088133
O	-0.0475767747	-2.9025319035	 1.6565628477	-0.259616
C	-1.2671570318	-3.5269867891	 1.5024756524	 0.441412
N	-1.9814031369	-4.1364354137	 2.3327116769	-0.546249
C	-1.4045246537	-3.1987994695	 0.0294696027	-0.137635
C	-2.6181110834	-2.3820968768	-0.3879800332	-0.40822
H	 1.1765843473	 1.8814134143	-0.652801145	 0.154483
H	-0.5670711137	 1.9436615292	-0.9541919388	 0.154489
H	 0.051235493	 2.1041347689	 0.6946569176	 0.158842
H	 0.8068852455	-2.980111788	-0.2635938141	 0.115193
H	-1.5523844932	-4.1462977345	 3.2596970007	 0.227595
H	-1.3018859595	-4.0892540497	-0.596933401	 0.110256
H	-2.7068006441	-1.471966631	 0.2102152102	 0.133716
H	-2.5514872239	-2.0939247189	-1.4412573195	 0.121514
H	-3.5253639085	-2.9758071762	-0.2473312723	 0.139981
9.405	56.8891	86.3399	151.5618	186.9708	215.7533	251.7161	321.6209	363.7357	437.091	463.5397	570.7154	640.584	737.1431	774.5053	838.7213	865.177	890.3775	923.3956	1017.5486	1050.0416	1052.4974	1060.809	1078.9807	1139.3067	1194.1574	1224.126	1230.7821	1312.2957	1341.1674	1374.1483	1409.7158	1412.8989	1474.4285	1476.5746	1490.3768	1493.4223	1826.0953	2368.9294	3031.0384	3047.0209	3059.2751	3077.3033	3093.9614	3095.1409	3119.1123	3129.6204	3475.2212
CC#CC1OC(=N)C1C	CC#C[C@H]1O[C]([NH])[C@H]1C	
InChI=1S/C7H9NO/c1-3-4-6-5(2)7(8)9-6/h5-6,8H,1-2H3	InChI=1S/C7H9NO/c1-3-4-6-5(2)7(8)9-6/h5-6,8H,1-2H3/t5-,6+/m0/s1
