15
gdb 131668	2.73961	1.33622	0.90323	5.0557	71.15	-0.2559	-0.0491	0.2068	1200.3701	0.112982	-453.966519	-453.958271	-453.957327	-453.999975	29.083	
O	-0.001270465	 1.4132488209	 0.0069620108	-0.408923
C	 0.0094850497	 0.0001934611	 0.0018984503	-0.194793
C	-1.4192086844	-0.4531739092	 0.0124574908	 0.40912
C	-2.5660794499	 0.2876195129	 0.023802356	-0.303347
C	-3.6191137605	-0.6714753078	 0.029783642	 0.021009
N	-3.1772368081	-1.9100344514	 0.0229129507	-0.229725
N	-1.814899472	-1.7816637205	 0.0121877862	-0.10817
C	-0.9804060684	-2.905461127	 0.0022800416	 0.181913
O	-1.3535059893	-4.0425752305	 0.0022029335	-0.257467
H	 0.9098821353	 1.7201371755	-0.0002218039	 0.2982
H	 0.5243910477	-0.3951981133	-0.8895367146	 0.115943
H	 0.5395304826	-0.4014418216	 0.8815811024	 0.115919
H	-2.631150232	 1.3620850702	 0.0272677193	 0.13468
H	-4.6843989775	-0.4874793973	 0.0389540757	 0.128711
H	 0.0836512521	-2.6070695421	-0.0056121908	 0.096929
72.9317	133.097	175.0171	188.2816	220.3463	259.8028	298.8457	397.4886	567.0393	635.7785	665.2272	699.0573	833.1708	844.0756	921.0331	935.0511	1020.6409	1036.0029	1048.1861	1066.8838	1117.3214	1217.7965	1244.1007	1258.7202	1302.262	1351.6074	1384.1854	1453.9016	1471.4101	1507.6386	1519.4009	1620.1027	1848.8692	2954.63	2975.6493	2975.7582	3239.7964	3291.9456	3840.2593
OCC1=CC=NN1C=O	OCc1ccnn1C=O	
InChI=1S/C5H6N2O2/c8-3-5-1-2-6-7(5)4-9/h1-2,4,8H,3H2	InChI=1S/C5H6N2O2/c8-3-5-1-2-6-7(5)4-9/h1-2,4,8H,3H2
