19
gdb 103315	3.255	1.25212	1.08125	3.1447	75.83	-0.2555	-0.0086	0.2469	1174.3766	0.156745	-422.971928	-422.962995	-422.96205	-423.005396	33.742	
C	 0.083766404	 1.5230099966	-0.2041295535	-0.389675
C	-0.0429090878	 0.0367222819	 0.1538555069	-0.253555
C	-1.4788549461	-0.4970832508	 0.1355526805	 0.333611
C	-2.3864298795	 0.1435902	 1.1810077131	-0.490488
C	-2.0768335765	-0.7532447455	-1.2918305754	-0.111537
O	-1.1338909704	-1.8906066294	-1.4620414073	-0.303527
C	-1.5863839529	-2.0497627341	-0.0547013555	-0.124554
C	-2.9954667795	-1.8399095108	-0.6705191362	 0.463251
O	-4.0728942507	-2.3279818213	-0.7553394696	-0.318675
H	 1.1354038897	 1.8247158908	-0.2075680226	 0.120534
H	-0.3201580309	 1.7284278163	-1.2013762369	 0.117939
H	-0.4391937082	 2.1686227853	 0.5078736952	 0.119112
H	 0.5567094259	-0.5556641189	-0.5411255133	 0.124773
H	 0.3706209006	-0.1324686051	 1.1566392514	 0.096837
H	-2.4940671922	 1.2178252996	 1.005991924	 0.131951
H	-3.3904992682	-0.2918409056	 1.1801611152	 0.138796
H	-1.9657825909	 0.0121953193	 2.1836608852	 0.126765
H	-2.210087265	-0.0798762737	-2.1367690573	 0.109636
H	-1.1513224016	-2.8620249449	 0.5255850262	 0.108806
83.5091	137.4118	152.8857	195.3915	222.7629	291.9754	331.164	365.5929	403.8468	491.3089	547.0611	633.0708	688.5302	756.8619	792.1912	797.6787	805.4955	883.1027	913.9732	961.6072	1009.6802	1022.5434	1047.7452	1073.919	1124.6604	1137.0682	1140.8716	1167.2002	1216.0694	1247.4675	1280.2001	1339.6759	1370.5242	1411.8883	1420.7021	1480.5504	1494.2788	1498.4946	1503.8431	1508.9418	1934.43	3026.3077	3036.4893	3038.9093	3092.4329	3103.4109	3105.5669	3110.8731	3117.0374	3140.3491	3145.5198
CCC1(C)C2OC1C2=O	CC[C@@]1(C)[C@H]2O[C@@H]1C2=O	
InChI=1S/C7H10O2/c1-3-7(2)5-4(8)6(7)9-5/h5-6H,3H2,1-2H3	InChI=1S/C7H10O2/c1-3-7(2)5-4(8)6(7)9-5/h5-6H,3H2,1-2H3/t5-,6+,7-
