20
gdb 85985	3.92722	1.04438	1.01975	3.6658	75.34	-0.2334	0.0593	0.2927	1246.6971	0.171132	-440.239774	-440.231127	-440.230183	-440.272862	34.12	
O	-0.1550257055	 1.4621457386	 0.0053512978	-0.434993
C	-0.0643759929	 0.0389732891	-0.0973158941	 0.087634
C	 0.3379007201	-0.6167920359	 1.2508711862	-0.29781
C	-1.1810255791	-0.6483144752	 1.6255851598	 0.4136
O	-1.5832392845	 0.5108271759	 2.3338342524	-0.501514
C	-1.4854936303	-0.5315237638	 0.0944119926	-0.270609
C	-1.7016961341	-1.8539217655	 2.3643841013	-0.038047
C	-1.7847155524	-1.8592202501	 3.8450956154	-0.243701
N	-3.011973061	-1.8014953489	 3.0279673127	-0.332907
H	 0.7355092506	 1.8087161986	 0.1287245277	 0.288396
H	 0.4915751659	-0.24920865	-0.9967257052	 0.071661
H	 0.7466688147	-1.6217018224	 1.1085718384	 0.103893
H	 0.9915066134	-0.0460023406	 1.9165491048	 0.097725
H	-1.2945242938	 1.2684113967	 1.8070240786	 0.284583
H	-2.3147501579	 0.1163880599	-0.1975745584	 0.11386
H	-1.5959461764	-1.511127269	-0.377125216	 0.106732
H	-1.5030549188	-2.7933124489	 1.8511838167	 0.078013
H	-1.6394336272	-2.7874174522	 4.3907951052	 0.108988
H	-1.4756128503	-0.9582547202	 4.3648503431	 0.123361
H	-3.3260458905	-0.8326966159	 3.005794011	 0.241134
81.3088	128.137	170.8189	271.1863	314.9562	333.8302	375.438	419.1507	430.4173	464.1098	500.2212	551.7815	688.8065	809.0546	849.4608	857.1611	865.2706	877.2249	925.1567	952.8689	967.9249	987.9545	1001.4409	1043.2191	1075.9625	1093.4701	1121.9091	1145.953	1167.301	1185.2261	1195.7069	1237.5043	1268.5787	1272.4345	1286.5009	1313.0559	1322.8821	1375.9252	1405.7826	1447.2498	1464.6485	1479.6276	1502.8954	3033.6733	3051.6606	3070.5256	3111.0757	3114.9244	3120.5692	3131.8496	3208.6794	3490.3183	3749.9436	3805.3149
OC1CC(O)(C1)C1CN1	O[C@H]1C[C@@](O)(C1)[C@H]1CN1	
InChI=1S/C6H11NO2/c8-4-1-6(9,2-4)5-3-7-5/h4-5,7-9H,1-3H2	InChI=1S/C6H11NO2/c8-4-1-6(9,2-4)5-3-7-5/h4-5,7-9H,1-3H2/t4-,5-,6+/m1/s1
