20
gdb 71643	3.0765	1.885	1.62263	1.4481	80.53	-0.2301	0.0827	0.3127	921.0423	0.173637	-365.964873	-365.95814	-365.957196	-365.995401	28.969	
C	-0.0188986454	 1.5630131067	-0.0297578154	-0.49167
C	 0.0001629589	 0.0467097094	 0.0226773273	 0.316977
C	-1.3211922095	-0.7047574748	 0.3764288894	-0.283141
C	-0.4579215603	-1.7172906507	 1.1507305356	-0.038492
C	 0.4700863253	-2.630875328	 0.3027716732	-0.065002
C	 1.6699022599	-1.7734028083	 0.5967143438	-0.066816
C	 0.7255966557	-0.7086128076	 1.2175998554	-0.101667
N	 1.1883157171	-1.9194055095	-0.7660347565	-0.103403
C	 0.6196525664	-0.6396024451	-1.2103569576	-0.197968
H	 0.9920688362	 1.9693436464	-0.150653205	 0.114309
H	-0.6234817207	 1.9222267828	-0.871213671	 0.117062
H	-0.4457486301	 1.9870172242	 0.8853328433	 0.112766
H	-1.9509486477	-0.1241077949	 1.0586987241	 0.091254
H	-1.9342721689	-1.0608070936	-0.4585383631	 0.089624
H	-0.8433622403	-2.2104929235	 2.0442898151	 0.067938
H	 0.3783881325	-3.7065151881	 0.197559311	 0.089856
H	 2.6942951041	-2.0180496453	 0.853062604	 0.087044
H	 0.9869081942	-0.1579277856	 2.1182472532	 0.063362
H	-0.1125583351	-0.8029782734	-2.0081989916	 0.102102
H	 1.4442194176	-0.0450426912	-1.622853685	 0.095866
213.0728	236.6537	260.6049	354.9906	419.6741	481.2971	560.1169	632.09	705.4227	737.6863	760.4606	795.7396	843.0837	860.9732	889.3294	898.7714	928.4998	945.518	947.7187	983.77	1004.1372	1027.5977	1032.9821	1056.1777	1099.4952	1118.7492	1146.0579	1172.7381	1193.1955	1220.6524	1236.1983	1246.9535	1254.379	1271.3553	1277.3177	1308.4002	1336.497	1376.8496	1410.9684	1485.2835	1491.3542	1495.8574	1503.3522	3018.7452	3026.082	3032.757	3076.5826	3082.784	3084.0837	3092.1522	3097.4438	3142.0322	3163.7777	3179.3158
CC12CC3C4C(C13)N4C2	C[C@]12C[C@H]3[C@@H]4[C@H]([C@@H]13)N4C2	
InChI=1S/C8H11N/c1-8-2-4-5(8)7-6(4)9(7)3-8/h4-7H,2-3H2,1H3	InChI=1S/C8H11N/c1-8-2-4-5(8)7-6(4)9(7)3-8/h4-7H,2-3H2,1H3/t4-,5+,6-,7+,8-,9?/m1/s1
