20
gdb 108920	3.32368	1.10474	0.93488	2.1261	81.77	-0.2107	0.0209	0.2316	1312.6104	0.17035	-403.127782	-403.118769	-403.117825	-403.161445	34.085	
C	 0.0370393866	 1.5371293281	 0.086671489	-0.476513
C	-0.027494332	 0.0324895443	-0.0120549255	 0.315091
C	-0.859878621	-0.7899906551	 0.9161359839	-0.276225
N	 0.6036013374	-0.7886720668	 1.0555919659	-0.14238
C	 1.2791944699	-1.9176067024	 0.3829511078	-0.264672
C	 0.9997359056	-1.7527565322	-1.1001696971	 0.287018
C	 1.4772846669	-2.7390922252	-2.1130824678	-0.178234
O	 1.0830320756	-2.3247137449	-3.4084145349	-0.412478
C	 0.2856356234	-0.645966923	-1.3072814555	-0.235468
H	 1.0089709123	 1.9114085971	-0.2520472662	 0.120966
H	-0.7380665959	 1.9992837566	-0.5351135792	 0.11618
H	-0.1132062133	 1.8625061662	 1.1191749274	 0.125681
H	-1.3847138601	-0.3194691017	 1.744744615	 0.107442
H	-1.3456766917	-1.6734344108	 0.5063960277	 0.104325
H	 2.3561899667	-1.8762581847	 0.600302664	 0.108363
H	 0.9157927207	-2.8742504268	 0.782539221	 0.107864
H	 2.575980912	-2.8329580718	-2.0375400107	 0.096191
H	 1.0703866087	-3.7371282327	-1.868789573	 0.095756
H	 1.4234095223	-2.9616126899	-4.0428807642	 0.290033
H	-0.036772584	-0.2779124145	-2.2720601177	 0.11106
75.206	144.0465	169.8366	188.6659	227.2027	244.9747	335.0218	390.1572	395.4969	467.0604	505.1358	592.8407	668.1704	754.4096	782.0044	854.6512	891.1576	919.8701	948.4045	977.5726	982.8147	1040.4796	1065.7212	1079.5476	1103.1936	1116.1296	1154.0306	1171.0311	1206.4623	1220.7858	1251.719	1256.8215	1330.0679	1344.8293	1358.0016	1414.8086	1466.2974	1484.8242	1488.8632	1495.3356	1501.2812	1508.728	1718.2332	2934.8478	2945.3172	2997.6407	3029.4792	3031.8911	3088.4387	3093.9469	3119.4003	3176.1431	3228.7886	3837.0499
CC12CN1CC(CO)=C2	C[C@]12CN1CC(=C2)CO	
InChI=1S/C7H11NO/c1-7-2-6(4-9)3-8(7)5-7/h2,9H,3-5H2,1H3	InChI=1S/C7H11NO/c1-7-2-6(4-9)3-8(7)5-7/h2,9H,3-5H2,1H3/t7-,8?/m0/s1
