19
gdb 6782	4.6916	0.89321	0.79371	3.5852	70.77	-0.2392	0.0392	0.2784	1463.3249	0.16355	-402.22685	-402.216844	-402.2159	-402.263611	33.514	
C	-0.180480317	 1.3348105947	-0.2560971651	-0.22809
O	-0.0514507083	-0.0450602293	-0.0042087171	-0.240361
C	 0.7099627736	-0.722789874	-0.9855035557	-0.062491
C	 0.7064445258	-2.2015418003	-0.6299030776	-0.167486
N	-0.6453494161	-2.7208015306	-0.5807257987	-0.309064
C	-1.0361167251	-3.8374874164	-1.2605788702	 0.409115
C	-2.5019502926	-4.2112105967	-1.0953946632	-0.480429
O	-0.2729328628	-4.5004240877	-1.941484524	-0.377278
H	 0.7983953539	 1.8386145106	-0.2701759253	 0.108864
H	-0.6797905807	 1.5289119169	-1.2182666624	 0.107994
H	-0.7844016524	 1.760361376	 0.5489377472	 0.128825
H	 0.2701015196	-0.5697360454	-1.9846219808	 0.09632
H	 1.7436790245	-0.340442322	-1.0089040514	 0.092089
H	 1.2475540348	-2.7827904941	-1.3794434675	 0.147384
H	 1.2070369263	-2.3376374745	 0.3378336411	 0.113046
H	-1.3173842307	-2.1827569696	-0.0592973701	 0.250321
H	-2.9354511452	-4.3740957844	-2.0848581913	 0.150093
H	-2.5647883363	-5.1582351162	-0.5515330774	 0.150961
H	-3.0904406414	-3.4597020569	-0.5624709206	 0.110187
32.371	51.983	70.2147	110.8522	125.4114	228.6776	235.5612	294.3863	336.1486	440.6981	489.9319	547.9058	616.365	644.9359	818.9952	899.3711	964.4444	1004.6382	1050.3461	1055.1967	1118.8131	1138.071	1162.7821	1186.7721	1218.6327	1257.5076	1258.3896	1295.67	1386.869	1396.8304	1419.4227	1470.7635	1479.649	1485.7759	1486.2501	1487.6071	1501.4563	1522.9356	1536.2966	1777.7365	2962.1378	2977.2169	2996.262	3020.7862	3026.2159	3049.0205	3115.5134	3122.6112	3124.4744	3134.23	3654.7997
COCCNC(C)=O	COCCNC(=O)C	
InChI=1S/C5H11NO2/c1-5(7)6-3-4-8-2/h3-4H2,1-2H3,(H,6,7)	InChI=1S/C5H11NO2/c1-5(7)6-3-4-8-2/h3-4H2,1-2H3,(H,6,7)
