21
gdb 105042	2.66035	1.26741	1.12462	1.8732	77.47	-0.2592	0.0825	0.3417	1202.6815	0.181172	-424.19297	-424.183591	-424.182647	-424.226836	36.029	
C	 0.0361579682	 1.4016694755	 0.6198557221	-0.47322
C	-0.0132923321	-0.0068228886	 0.053031984	 0.274706
C	 0.9065059121	-0.3503463235	-1.0916236842	-0.309076
C	 1.1731173957	-0.9161696867	 0.2824444528	-0.299222
C	-1.3821275507	-0.6408911715	 0.075735219	 0.301381
C	-2.0043970274	-0.8565322046	 1.4535954829	-0.135393
O	-3.1816597041	-1.6291293619	 1.3883440784	-0.420977
C	-2.268949369	-0.5595160376	-1.0919603826	-0.224297
O	-1.5674185882	-1.7807762711	-0.7824103707	-0.292318
H	 1.0469391067	 1.8119635644	 0.53851185	 0.119021
H	-0.6407991337	 2.0721557371	 0.077769407	 0.119434
H	-0.2432709387	 1.4285631906	 1.6787323642	 0.123593
H	 0.5395897019	-1.0394236791	-1.8427810037	 0.128813
H	 1.5585908984	 0.432735946	-1.4636187293	 0.106654
H	 2.0100796011	-0.5283527425	 0.8533598328	 0.109934
H	 0.9816070033	-1.9741785693	 0.424992693	 0.121017
H	-1.2469608412	-1.3232092519	 2.1050255135	 0.095849
H	-2.273438854	 0.1058495533	 1.9011893593	 0.116191
H	-2.9758194361	-2.360816814	 0.7909778517	 0.291005
H	-3.3453384825	-0.6092743807	-0.950323361	 0.129812
H	-1.9214451394	-0.052948704	-1.9898577093	 0.117093
69.9829	118.7009	190.3397	210.7656	237.322	282.3855	304.925	332.5326	362.4168	451.4281	494.0029	512.3619	521.2662	669.7363	791.7329	799.3462	851.3316	877.4024	913.2508	928.2887	950.8404	960.2543	1039.8378	1063.6603	1075.0419	1090.1076	1093.9106	1128.4448	1132.9587	1162.2738	1181.1184	1197.8179	1228.2192	1305.6887	1347.1961	1358.6338	1412.514	1420.5897	1442.6134	1458.3108	1491.5602	1495.2079	1506.0061	1508.2492	1515.1658	2970.6091	3027.534	3072.0676	3089.0481	3101.9881	3105.4414	3131.1899	3137.6747	3198.0905	3214.4597	3231.5399	3759.9188
CC1(CC1)C1(CO)CO1	CC1(CC1)[C@@]1(CO)CO1	
InChI=1S/C7H12O2/c1-6(2-3-6)7(4-8)5-9-7/h8H,2-5H2,1H3	InChI=1S/C7H12O2/c1-6(2-3-6)7(4-8)5-9-7/h8H,2-5H2,1H3/t7-/m1/s1
