17
gdb 76434	2.71732	1.12795	1.07161	0.4626	68.9	-0.2502	0.0398	0.2901	1199.0585	0.133129	-458.898077	-458.888878	-458.887934	-458.931813	35.085	
O	-0.5077453322	 1.6208595719	 0.2484957456	-0.439446
C	-0.6310882155	 0.3798229289	-0.3821938323	 0.001181
C	-0.2775053082	-0.819409265	 0.4824560645	-0.006213
O	 0.0755003266	-0.5371679646	 1.8059142314	-0.439265
C	-1.7259186249	-0.5348070763	 0.1339556146	 0.328943
O	-2.4813899661	 0.0169895455	 1.1772113845	-0.474489
C	-2.5614374467	-1.4232176811	-0.7728720562	-0.421549
C	-1.8207638397	-1.9854399037	-1.8956527357	 0.286141
C	-1.1990137678	-2.4449469665	-2.8159850168	-0.441544
H	-1.3573916084	 1.7765967615	 0.689549498	 0.295072
H	-0.3662112499	 0.3793379697	-1.4343964225	 0.11696
H	 0.22802115	-1.6758963806	 0.0479018851	 0.115877
H	 0.3583288776	 0.3912742341	 1.8066052428	 0.296899
H	-1.9882396909	-0.1866804853	 1.9891181568	 0.295009
H	-2.9869215615	-2.2322525834	-0.1650834783	 0.140849
H	-3.4121020911	-0.8374576991	-1.145328115	 0.143954
H	-0.6602476813	-2.8566031461	-3.6334261167	 0.201621
67.9717	120.9774	206.8943	221.4057	254.9637	286.5431	341.8252	347.1225	431.994	439.7965	467.1158	587.5364	623.7806	627.7786	660.6432	678.5616	703.0702	725.0483	808.7573	879.9627	972.6031	1006.7987	1021.9452	1078.1881	1130.9133	1147.0374	1189.5151	1233.0378	1241.2859	1317.5077	1340.3921	1373.6686	1379.3546	1381.3733	1454.3849	1473.8765	2239.517	3018.1342	3050.0716	3162.5945	3170.1407	3504.5661	3672.2676	3692.4226	3703.3574
OC1C(O)C1(O)CC#C	O[C@H]1[C@@H](O)[C@]1(O)CC#C	
InChI=1S/C6H8O3/c1-2-3-6(9)4(7)5(6)8/h1,4-5,7-9H,3H2	InChI=1S/C6H8O3/c1-2-3-6(9)4(7)5(6)8/h1,4-5,7-9H,3H2/t4-,5+,6-
