16
gdb 34432	3.04689	1.79384	1.30406	2.4259	75.27	-0.2398	0.0346	0.2745	956.4603	0.12504	-400.637076	-400.630182	-400.629238	-400.668143	28.036	
C	-0.0457770746	-1.1737584559	 0.0732175546	-0.376875
C	-0.0164382532	 0.0262582112	 0.0438097726	 0.260057
C	 0.0119368886	 1.463612056	 0.0160319528	 0.361385
O	-0.8508263747	 2.0501659141	 0.9693551767	-0.334867
C	-0.6615615557	 3.4643651513	 0.7640125232	-0.120176
C	 0.3572870153	 3.4566454252	-0.3600977242	-0.113263
C	 1.3495287757	 2.278255964	-0.0880192112	-0.120312
N	 1.4287165559	 1.9110298483	-1.5459960674	-0.322554
C	-0.013584153	 2.2812896326	-1.3235113404	-0.120313
H	-0.067492319	-2.2353599269	 0.0945450819	 0.188593
H	-1.6154732912	 3.9302354623	 0.4896427702	 0.111414
H	-0.2939069213	 3.9272942594	 1.6874778042	 0.111414
H	 0.731238169	 4.3947831124	-0.7703726829	 0.081768
H	 2.20885817	 2.2418527319	 0.582188996	 0.090882
H	 1.8896941273	 2.6715569571	-2.0527230671	 0.211963
H	-0.764854379	 2.248470987	-2.113110689	 0.090882
148.0127	154.7601	298.6223	392.8878	404.6825	509.9933	516.1196	594.9429	626.5626	669.258	705.0952	728.0302	755.844	839.3392	894.1275	918.1547	934.4522	958.6751	1005.9452	1015.4998	1043.7999	1075.571	1110.0927	1131.3523	1153.4302	1167.4836	1215.7306	1226.86	1259.8315	1289.7052	1307.9208	1338.2301	1368.1046	1521.0491	2251.3869	3025.4854	3065.2951	3113.7428	3114.6768	3129.4326	3403.3918	3502.6266
C#CC12OCC3C1NC23	C#C[C@@]12OC[C@H]3[C@@H]1N[C@@H]23	
InChI=1S/C7H7NO/c1-2-7-5-4(3-9-7)6(7)8-5/h1,4-6,8H,3H2	InChI=1S/C7H7NO/c1-2-7-5-4(3-9-7)6(7)8-5/h1,4-6,8H,3H2/t4-,5-,6+,7+
