15
gdb 124718	4.82836	1.05	0.87424	2.5356	74.38	-0.2203	-0.0126	0.2077	1252.6388	0.114014	-446.307611	-446.299228	-446.298284	-446.341945	29.858	
C	-0.7205711432	 1.3470637576	 0.2555491446	-0.452472
C	 0.049193354	 0.0735479456	-0.0067071566	 0.389387
N	 0.4335517144	-0.6063261504	 1.1080392627	-0.52085
N	 0.3999168138	-0.4267713258	-1.1443807913	-0.375625
C	 0.1745405439	 0.1970157304	-2.3368495466	 0.455575
N	 0.3213363663	-0.467961011	-3.4919259454	-0.288373
N	 0.0484854574	 0.4843230727	-4.3716856189	-0.065352
N	-0.241854507	 1.6666251189	-3.8551526643	-0.113381
N	-0.1676859908	 1.5090804923	-2.5603084282	-0.290867
H	-0.0930499908	 2.2145215915	 0.0379208078	 0.172527
H	-1.5795283891	 1.4181044101	-0.4132089529	 0.163157
H	-1.0584132991	 1.4020818055	 1.2938814925	 0.104125
H	 0.0208315565	-0.4049682283	 2.0006098881	 0.260777
H	 0.8660035236	-1.5063317792	 0.9731938027	 0.26461
H	 0.06936666	 0.3263702602	-5.367421784	 0.296762
20.7294	130.5612	144.8898	181.2329	248.6293	360.0221	402.1007	417.9053	518.9822	553.9693	560.4578	640.411	731.7279	760.6059	804.015	890.0287	1013.749	1018.8866	1052.4819	1058.3848	1137.1236	1154.0955	1209.4461	1263.4402	1335.4176	1386.4908	1408.6372	1463.2672	1473.6661	1493.7067	1544.1253	1632.34	1702.1642	3054.206	3130.1677	3145.614	3604.345	3655.053	3743.2296
CC(N)=NC1=NNN=N1	CC(=Nc1n[nH]nn1)N	
InChI=1S/C3H6N6/c1-2(4)5-3-6-8-9-7-3/h1H3,(H3,4,5,6,7,8,9)	InChI=1S/C3H6N6/c1-2(4)5-3-6-8-9-7-3/h1H3,(H3,4,5,6,7,8,9)
