18
gdb 26678	2.32171	1.53603	0.93902	1.7631	75.87	-0.1669	0.0673	0.2342	1222.574	0.147962	-435.292485	-435.282546	-435.281602	-435.326866	36.45	
C	-0.0302129817	 1.5093443618	 0.0408931822	-0.514658
C	 0.007722103	 0.013796849	 0.0128139657	 0.194305
C	-0.0274483025	-0.7873777633	-1.1064985845	 0.135871
N	-0.1041759881	-0.5356490939	-2.4968892278	-0.614555
N	 0.0290739227	-2.114649844	-0.6847886012	-0.331401
C	 0.0980000009	-2.1489993361	 0.6708897986	 0.393889
O	 0.162730653	-3.3202732803	 1.3418171491	-0.443368
C	 0.0882139255	-0.8622883169	 1.1525735526	-0.038582
N	 0.1523198009	-0.6050129046	 2.5566468068	-0.627531
H	 0.8637666224	 1.9372474256	 0.5126641675	 0.115491
H	-0.0916534688	 1.9163682445	-0.9731471405	 0.106221
H	-0.893868783	 1.8910273743	 0.6006118035	 0.1155
H	-0.9495005323	-0.0375710417	-2.7546054377	 0.239157
H	 0.6839624095	 0.0048809868	-2.8371089741	 0.239157
H	 0.0175065744	-2.9062025321	-1.3040914607	 0.261612
H	 0.2032068291	-3.0613462584	 2.2746609152	 0.301442
H	-0.6603778573	-0.0924371689	 2.8871933882	 0.233725
H	 0.9654095123	-0.0484907917	 2.804906677	 0.233726
83.5574	124.1497	169.6337	186.636	221.1888	239.7948	256.7613	284.947	306.8161	332.7502	463.5133	517.7109	543.6751	610.5423	618.5989	653.6281	693.6061	740.4376	774.9685	848.7856	880.8488	1051.9047	1060.3697	1152.0514	1178.8894	1198.7141	1207.4724	1244.761	1257.4935	1395.5051	1411.3568	1449.5664	1485.5182	1493.3018	1569.8362	1599.8086	1635.3598	1659.162	1693.5532	3010.2712	3051.4332	3095.1735	3476.0148	3498.0068	3534.9688	3560.3403	3686.101	3738.2912
CC1=C(N)NC(O)=C1N	Cc1c(N)[nH]c(O)c1N	
InChI=1S/C5H9N3O/c1-2-3(6)5(9)8-4(2)7/h8-9H,6-7H2,1H3	InChI=1S/C5H9N3O/c1-2-3(6)5(9)8-4(2)7/h8-9H,6-7H2,1H3
