18
gdb 55264	3.28282	1.08803	0.93293	5.591	74.72	-0.2321	0.0029	0.235	1287.3139	0.148542	-439.133613	-439.125076	-439.124132	-439.167346	31.491	
C	-0.0445949486	 1.5889775799	 0.0418959914	-0.490792
C	 0.0512241239	 0.0978118518	 0.0237473333	 0.325131
C	-0.1538543283	-0.7303373817	-0.9987750225	-0.173094
C	 0.0300670272	-2.1711589472	-0.5980450895	-0.166827
N	 0.2307762522	-2.096053768	 0.8657611433	-0.343581
H	-1.4206866682	-3.0071621736	 0.8818894064	 0.300654
H	 0.9935201401	-2.6854357703	 1.1717460807	 0.237156
C	 0.4293559304	-0.684091935	 1.2597896973	-0.249735
C	-1.2169382361	-3.0142874129	-0.9498269959	 0.421158
O	-1.5131545406	-3.2919443544	-2.0809635955	-0.349973
O	-1.9293553679	-3.3752907458	 0.1215482893	-0.364627
H	 0.9083886918	 2.0447337958	 0.3388930969	 0.130216
H	-0.319549137	 1.9838269993	-0.9389161739	 0.135298
H	-0.7933639658	 1.9275275538	 0.7687852911	 0.134159
H	-0.4399937057	-0.4574640507	-2.006021249	 0.121911
H	 0.8736343473	-2.634152708	-1.1297326399	 0.108658
H	 1.4694554588	-0.4768321149	 1.5573946587	 0.107771
H	-0.2001205935	-0.4236688781	 2.1220596277	 0.116517
66.8457	99.9472	157.7417	175.398	252.5959	323.5945	327.6632	440.5546	467.793	588.8708	608.1279	680.3281	743.0911	837.1729	855.1642	893.5308	901.0171	930.3915	962.6223	989.3155	1006.7579	1046.3929	1088.2063	1108.7827	1183.5686	1212.067	1223.5546	1256.8323	1299.9245	1307.316	1369.3237	1416.2432	1429.8917	1443.4614	1479.8367	1488.4182	1517.2604	1729.7358	1869.9412	2977.8916	3002.1573	3014.8042	3022.1906	3068.2756	3121.6526	3226.9108	3416.4392	3573.0041
CC1=CC([NH2+]C1)C([O-])=O	CC1=C[C@@H](NC1)C(=O)O	
InChI=1S/C6H9NO2/c1-4-2-5(6(8)9)7-3-4/h2,5,7H,3H2,1H3,(H,8,9)	InChI=1S/C6H9NO2/c1-4-2-5(6(8)9)7-3-4/h2,5,7H,3H2,1H3,(H,8,9)/t5-/m1/s1
