20
gdb 20026	3.28421	1.44482	1.11873	1.038	76.18	-0.2297	0.0854	0.3151	1123.1869	0.176302	-348.961589	-348.953004	-348.952059	-348.995028	31.774	
C	-0.4993383412	 0.9708994246	-0.1316708582	-0.238373
O	 0.5148339493	 0.0072133638	 0.0807667744	-0.234349
C	 0.9280396634	-0.6072737413	-1.0994811978	 0.119855
C	 1.6089676326	-1.9303332051	-0.9546772486	-0.341134
C	 0.2252377938	-1.8604264863	-1.581205339	-0.045012
C	-0.9550660572	-2.4079755546	-0.8438027478	 0.029398
C	-2.3150871683	-2.4510594566	-1.4997980499	-0.273373
C	-1.5575791115	-3.731724084	-1.2448940054	-0.277001
H	-0.1543265627	 1.7757446173	-0.798770923	 0.104694
H	-1.4027511227	 0.5219042482	-0.5660148652	 0.117287
H	-0.7427775662	 1.4015840105	 0.8425685174	 0.124476
H	 1.299890451	 0.0887387513	-1.8540992393	 0.077748
H	 2.4685162426	-2.1494945498	-1.5782141891	 0.109468
H	 1.6661318132	-2.3261222425	 0.0539271143	 0.123292
H	 0.1816642688	-1.9926596893	-2.660266284	 0.076205
H	-0.946068716	-2.189253908	 0.2192713093	 0.092
H	-3.1896846162	-2.2382736754	-0.8946367302	 0.108899
H	-2.393026762	-2.106451447	-2.5261569645	 0.107451
H	-1.1279815981	-4.2430494542	-2.100358421	 0.109106
H	-1.9132708724	-4.3962264915	-0.4649621426	 0.109362
66.2642	101.0122	152.1583	188.1083	213.9076	285.3607	322.4241	391.1143	490.8879	609.1362	739.2701	774.9369	804.6851	827.7844	834.2242	923.1504	927.7998	995.957	1002.9019	1042.236	1058.0331	1073.5017	1076.1897	1103.1133	1126.5009	1145.1035	1163.0839	1184.7023	1200.4174	1210.7854	1224.2554	1237.7246	1259.4971	1309.6064	1394.0556	1445.0502	1469.6849	1474.7377	1485.7868	1493.0819	1506.9442	1510.3543	2983.9738	3042.3038	3076.9227	3117.1597	3125.0403	3125.8503	3131.1728	3134.0146	3160.9174	3203.3155	3219.4848	3221.9695
COC1CC1C1CC1	CO[C@H]1C[C@H]1C1CC1	
InChI=1S/C7H12O/c1-8-7-4-6(7)5-2-3-5/h5-7H,2-4H2,1H3	InChI=1S/C7H12O/c1-8-7-4-6(7)5-2-3-5/h5-7H,2-4H2,1H3/t6-,7-/m0/s1
