19
gdb 38789	2.64209	2.35021	1.92961	1.6775	76.12	-0.2393	0.0702	0.3094	828.2245	0.163491	-385.857233	-385.851455	-385.850511	-385.886933	25.875	
C	-0.0477632349	 1.5444184266	 0.0408776789	-0.234551
C	 1.5142803146	 1.562570153	-0.0251175878	-0.038572
C	 2.1072274035	 1.7855727108	-1.4252793991	-0.227178
C	 1.786699108	 0.5132951724	-2.2043119675	 0.100846
O	 0.3593728117	 0.3809110661	-2.4780397168	-0.306149
C	 0.2102724992	-0.6016791376	-1.4349732796	 0.101373
C	-0.0285878792	 0.0004637803	-0.0062478345	-0.049639
C	 1.5251556495	 0.0070547602	 0.2124240163	-0.051472
C	 1.7353599778	-0.6517663251	-1.17898865	-0.098017
H	-0.4141785141	 1.9072730476	 1.0048474497	 0.093137
H	-0.5809313886	 2.0549001167	-0.7642870744	 0.107481
H	 1.9959089089	 2.1844516214	 0.7316942764	 0.065145
H	 1.7099609688	 2.6761904093	-1.9236292389	 0.107665
H	 3.1980000356	 1.8952297069	-1.3612787402	 0.0944
H	 2.368397983	 0.3874597248	-3.1225133378	 0.07295
H	-0.4163352354	-1.4417863605	-1.7433686262	 0.072661
H	-0.7219015438	-0.5565280425	 0.6260835814	 0.059712
H	 2.0184461753	-0.4018425193	 1.0928795464	 0.060573
H	 2.3638479503	-1.530744771	-1.3073699564	 0.069636
259.659	322.7414	394.0166	484.2642	613.1866	635.89	649.045	751.1115	794.8761	808.7693	845.3567	848.1918	862.1622	879.4198	916.7631	922.449	940.5508	966.724	981.2912	1015.6848	1037.3871	1048.8691	1072.9188	1119.2925	1126.9997	1158.5944	1183.165	1187.9129	1206.9415	1217.7623	1250.9229	1258.9064	1269.3476	1292.3806	1301.0966	1307.084	1339.0115	1349.6046	1356.7759	1464.0643	1475.0031	3023.2199	3057.8586	3061.7684	3075.4639	3081.3367	3085.8831	3093.9344	3116.3306	3118.7725	3133.4926
C1C2CC3OC4C1C2C34	C1[C@@H]2C[C@@H]3O[C@@H]4[C@H]1[C@H]2[C@H]34	
InChI=1S/C8H10O/c1-3-2-5-7-6(3)4(1)8(7)9-5/h3-8H,1-2H2	InChI=1S/C8H10O/c1-3-2-5-7-6(3)4(1)8(7)9-5/h3-8H,1-2H2/t3-,4-,5+,6+,7+,8-/m1/s1
