16
gdb 46865	2.4008	1.80624	1.22172	3.7793	70.29	-0.2387	-0.078	0.1607	1008.8786	0.124775	-437.882598	-437.874963	-437.874018	-437.915362	28.573	
O	 0.0083226844	-0.0374742358	 0.0740718049	-0.281776
C	-0.0249613876	 1.1654804587	 0.0510171051	 0.30452
C	-1.2806723992	 2.0133108377	 0.0013842866	-0.317741
C	-1.3176473654	 2.9880880499	 1.1931240376	-0.172776
N	-0.1002409946	 3.8094843778	 1.3442588471	-0.0897
C	 0.9254497413	 3.3042396878	 2.2270978437	-0.239684
C	 1.1623976709	 3.3413765145	 0.7438211438	-0.131852
C	 1.2565756555	 2.0323968456	 0.0271547313	 0.310764
O	 2.2285842549	 1.7002517251	-0.607104956	-0.298363
H	-1.2570057585	 2.5974169036	-0.9288600836	 0.138369
H	-2.16526407	 1.3718569185	-0.0158698998	 0.133979
H	-2.1636034757	 3.6704099617	 1.0646969946	 0.129715
H	-1.4963970267	 2.428431326	 2.1186739541	 0.122123
H	 1.4339233863	 4.0314612435	 2.8539495696	 0.137528
H	 0.7758785261	 2.3278577697	 2.6890211417	 0.128913
H	 1.8102517082	 4.1151962658	 0.3409088895	 0.125982
45.5339	136.6899	189.249	316.9864	338.4315	397.2645	428.7443	466.8407	543.3628	642.3598	694.8306	730.0323	776.1707	894.1796	899.2462	920.1866	936.3994	1031.9658	1051.3472	1073.3286	1114.2478	1127.6129	1156.5319	1202.1461	1233.1947	1264.474	1299.498	1334.0931	1352.4998	1387.1281	1463.7458	1501.9709	1521.9201	1800.9363	1831.513	3023.3316	3035.1703	3076.9725	3085.7136	3110.3858	3151.6509	3181.9379
O=C1CCN2CC2C1=O	O=C1CCN2C[C@H]2C1=O	
InChI=1S/C6H7NO2/c8-5-1-2-7-3-4(7)6(5)9/h4H,1-3H2	InChI=1S/C6H7NO2/c8-5-1-2-7-3-4(7)6(5)9/h4H,1-3H2/t4-,7?/m0/s1
