20
gdb 65714	3.65987	1.07733	0.99382	3.3814	81.34	-0.2525	0.0249	0.2775	1270.3399	0.170134	-403.117267	-403.108504	-403.10756	-403.15062	33.696	
C	-0.0589166193	 1.6571819114	 0.1077001823	-0.443576
C	 0.0319243989	 0.1397833029	 0.0326750666	 0.402101
C	 1.0712912446	-0.5312987894	-0.9391153413	-0.299747
C	 1.6629732742	-1.2957792425	 0.2523465869	-0.037547
C	 2.1556649509	-0.3276478701	 1.2862561398	-0.294587
C	 0.6808410736	-0.6099704363	 1.2014646159	-0.07746
O	-1.2849698857	-0.4274349678	-0.1119933592	-0.235349
C	-1.9293385905	-0.239447362	-1.2772560301	 0.109989
N	-3.1209330016	-0.6395945724	-1.4109709514	-0.445275
H	 0.918445746	 2.0958904195	 0.323754293	 0.122528
H	-0.4143902777	 2.0869261052	-0.83454088	 0.117142
H	-0.7545196365	 1.9493972834	 0.9001925432	 0.135149
H	 0.5751378512	-1.1793854628	-1.6630157968	 0.118535
H	 1.7541275854	 0.1410460465	-1.4695619338	 0.095325
H	 1.9770452954	-2.3313772984	 0.2333503315	 0.091928
H	 2.6477476427	-0.7703798299	 2.1462015852	 0.118763
H	 2.5673517339	 0.6352502752	 0.9929638432	 0.106383
H	 0.1120877451	-1.0183117579	 2.0271248524	 0.100708
H	-1.3282539774	 0.2582284058	-2.0489422536	 0.089862
H	-3.4484497832	-0.4336390404	-2.3526754141	 0.225129
73.7514	152.8882	175.4265	192.6024	233.0755	287.7062	370.7861	376.2629	429.8824	464.3925	576.5975	689.7746	766.0064	794.0637	820.7115	843.734	862.608	927.2165	950.797	961.3328	987.0896	992.1303	1043.7044	1052.899	1067.397	1087.6352	1104.6688	1139.109	1163.6049	1190.7627	1202.4299	1249.129	1259.4735	1293.5472	1316.9236	1362.6627	1410.128	1425.1935	1473.748	1487.2969	1489.6284	1502.3214	1738.5914	3032.3564	3040.5706	3046.4082	3107.8622	3111.252	3122.2138	3125.4351	3190.1495	3194.8784	3206.8398	3512.6889
CC1(CC2CC12)OC=N	C[C@]1(C[C@H]2C[C@@H]12)O[CH][NH]	
InChI=1S/C7H11NO/c1-7(9-4-8)3-5-2-6(5)7/h4-6,8H,2-3H2,1H3	InChI=1S/C7H11NO/c1-7(9-4-8)3-5-2-6(5)7/h4-6,8H,2-3H2,1H3/t5-,6-,7-/m1/s1
