23
gdb 90433	2.02615	1.64023	1.33775	1.5955	84.13	-0.2475	0.0549	0.3024	1132.001	0.205955	-388.262736	-388.253431	-388.252487	-388.296319	36.405	
C	 0.6810574611	 1.4491483081	-0.4913469701	-0.431951
C	 0.1756098049	 0.0740676893	-0.0587847843	 0.038711
C	 0.637383194	-1.1736431548	-0.8780295349	-0.260264
C	 1.1453797297	-1.8489963879	 0.41982356	-0.027215
C	 2.624638602	-1.5656800479	 0.8424692294	-0.030069
C	 3.6599931791	-1.1974314898	-0.2131509619	-0.418486
C	 2.1085772638	-0.4208912497	 1.7889308046	 0.118307
O	 2.7360306651	 0.8391557997	 1.8019977582	-0.426176
C	 0.6599861599	-0.6096090416	 1.2632133854	-0.090359
H	 1.7450646488	 1.4401811407	-0.7595182034	 0.106613
H	 0.1489407085	 1.7837195371	-1.3889456163	 0.116732
H	 0.5295075476	 2.2032973324	 0.2874688694	 0.129441
H	-0.9177186888	 0.1203775006	-0.0304950103	 0.07854
H	-0.1867674653	-1.7106758303	-1.3545863881	 0.097477
H	 1.3935053747	-0.9828608961	-1.6449612504	 0.094029
H	 0.7918749312	-2.8622454846	 0.6131650105	 0.059964
H	 3.0257796876	-2.3967327514	 1.431443479	 0.071235
H	 3.3641732557	-0.3399530917	-0.8266102347	 0.107088
H	 4.6105565765	-0.9396025688	 0.2642354778	 0.124618
H	 3.8409220579	-2.0344553213	-0.896188346	 0.115848
H	 2.1534244493	-0.7559972029	 2.8297706267	 0.087713
H	 2.6906176741	 1.2170323081	 0.9202219598	 0.279859
H	-0.1062874375	-0.673710817	 2.0383642596	 0.058344
67.9836	166.0506	188.2536	220.5356	237.9445	260.0877	283.0004	318.6208	370.0208	449.5341	516.0351	562.9965	625.6584	696.1759	745.0853	780.7582	839.6197	876.342	885.3208	913.9123	967.6936	985.9244	1019.722	1049.77	1091.5619	1100.2289	1117.5254	1126.8282	1141.5053	1169.4883	1181.9326	1209.4793	1235.6113	1251.9361	1275.3173	1294.9903	1309.1276	1313.6627	1335.5661	1363.37	1371.4693	1401.6383	1410.6846	1444.1811	1483.8689	1487.2054	1497.4041	1505.6762	1512.2128	3016.921	3031.6778	3037.2305	3038.6552	3055.483	3058.209	3074.3821	3082.0488	3093.0039	3095.018	3100.3612	3102.8967	3107.8093	3850.677
CC1CC2C(C)C(O)C12	C[C@H]1C[C@H]2[C@@H](C)[C@@H](O)[C@@H]12	
InChI=1S/C8H14O/c1-4-3-6-5(2)8(9)7(4)6/h4-9H,3H2,1-2H3	InChI=1S/C8H14O/c1-4-3-6-5(2)8(9)7(4)6/h4-9H,3H2,1-2H3/t4-,5+,6-,7-,8+/m0/s1
