13
gdb 8663	2.46516	1.83858	1.47882	3.3341	54.9	-0.2842	-0.0611	0.2231	885.3737	0.092522	-435.737388	-435.728829	-435.727885	-435.771053	29.378	
O	 0.1439340105	 1.1976088682	-0.2652436589	-0.421338
C	-0.0158203921	-0.1603576131	 0.0867237943	-0.105978
C	-1.5272621403	-0.5339093287	 0.0307052693	 0.110566
O	-2.0649119997	-0.1501263575	-1.2080392809	-0.441484
C	-1.6594289323	-2.0617225505	 0.1508083014	 0.141021
O	-1.4865354833	-2.6622531241	 1.1725805168	-0.228781
C	-2.2119744272	 0.1499578754	 1.150035582	 0.259492
N	-2.7078948085	 0.7471839391	 2.0060125258	-0.327678
H	-0.1349261593	 1.7406476814	 0.4825882546	 0.310435
H	 0.5088257579	-0.7422751526	-0.6766085402	 0.137907
H	 0.3939050757	-0.4050108151	 1.0725749061	 0.142327
H	-1.6393437109	 0.6902983292	-1.4356345013	 0.30332
H	-1.8840767804	-2.5430272518	-0.823165119	 0.120191
46.183	104.763	152.329	185.9458	224.5804	281.7203	366.4115	403.4344	440.9517	481.2796	555.9835	604.4303	698.2348	737.7568	885.9519	948.7957	1045.6262	1082.1318	1119.9743	1147.5332	1254.9189	1363.089	1375.5862	1391.5756	1416.2449	1489.1815	1846.493	2351.7687	2935.1546	3047.396	3109.7592	3728.6099	3788.5977
OCC(O)(C=O)C#N	OC[C@@](O)(C=O)C#N	
InChI=1S/C4H5NO3/c5-1-4(8,2-6)3-7/h2,7-8H,3H2	InChI=1S/C4H5NO3/c5-1-4(8,2-6)3-7/h2,7-8H,3H2/t4-/m0/s1
