21
gdb 84088	2.31026	1.44762	1.01017	1.4872	80.24	-0.2459	0.0095	0.2555	1233.2351	0.181793	-424.240802	-424.231167	-424.230223	-424.274855	36.91	
C	 0.7833201308	 1.5195288732	 0.1165931637	-0.426947
C	 0.1172314404	 0.1453521467	-0.005443555	-0.061359
C	 0.6588044346	-0.6623679926	-1.2317911082	 0.101337
O	 1.1522870927	 0.1166990715	-2.3141703289	-0.431024
C	 1.67683262	-1.5874318235	-0.6144413725	-0.238278
C	 1.5741130588	-1.6595308507	 0.7143059892	 0.277529
C	 2.3580009579	-2.5126922947	 1.6598652783	-0.48558
C	 0.4388503476	-0.7792075461	 1.2109998851	 0.041044
O	 0.7042519318	-0.1185683974	 2.4414038686	-0.429141
H	 1.8735966101	 1.4397625449	 0.2238921458	 0.096957
H	 0.5837147053	 2.117589138	-0.7752358748	 0.132209
H	 0.3994789753	 2.0570740097	 0.9872899507	 0.127411
H	-0.9622251095	 0.2982567017	-0.0938218327	 0.074282
H	-0.1590574201	-1.2392928902	-1.6823624624	 0.094641
H	 1.9779505506	 0.522249382	-2.0294197022	 0.276716
H	 2.3659198306	-2.1599536836	-1.2278428522	 0.09316
H	 3.1673066988	-3.0428385696	 1.1513398795	 0.121797
H	 2.7836977222	-1.9127108177	 2.4711352142	 0.128219
H	 1.7098337534	-3.2563965325	 2.1412107817	 0.132443
H	-0.4327408664	-1.4064171629	 1.4408737858	 0.095175
H	 1.4780371351	 0.4408434636	 2.3157784465	 0.279409
65.2899	132.8811	165.7256	240.4104	274.0752	280.744	288.9925	332.2498	353.4835	386.6464	401.6594	467.7539	529.7888	577.749	662.6516	716.1851	770.3614	840.0494	865.5409	908.978	1007.3241	1012.0931	1041.7697	1051.7917	1070.1396	1089.3421	1105.1871	1138.2429	1195.2124	1244.7604	1262.4385	1269.3143	1279.9224	1305.5762	1347.2632	1367.9068	1398.2157	1411.6666	1427.104	1436.8893	1474.4993	1485.6612	1504.1296	1517.1774	1717.8428	3016.1946	3018.7543	3021.3353	3025.3624	3064.5119	3078.109	3098.9252	3118.1475	3130.2889	3179.3524	3811.7977	3812.2366
CC1C(O)C=C(C)C1O	C[C@H]1[C@@H](O)C=C(C)[C@H]1O	
InChI=1S/C7H12O2/c1-4-3-6(8)5(2)7(4)9/h3,5-9H,1-2H3	InChI=1S/C7H12O2/c1-4-3-6(8)5(2)7(4)9/h3,5-9H,1-2H3/t5-,6-,7+/m0/s1
