16
gdb 44702	3.44852	1.33174	1.08585	3.0945	69.55	-0.2484	-0.0359	0.2124	1081.8885	0.125327	-437.931569	-437.924272	-437.923327	-437.963819	27.847	
O	-0.0918239694	 0.1122460213	 0.6661275061	-0.335789
C	-0.1211968914	 1.2300944491	 0.2353915429	 0.391115
C	-1.2079917234	 2.2635412025	-0.1434952985	-0.395492
C	-0.0424919018	 3.288190666	-0.1726823325	 0.01636
C	 0.2316129908	 4.1606249543	 1.0551259447	-0.353064
C	 1.66326776	 3.7801707258	 1.4945445246	 0.387923
O	 2.3760680364	 4.4147420496	 2.2193622938	-0.282735
C	 2.0372714575	 2.4302118586	 0.8320821559	-0.305847
N	 0.9055384378	 2.1439180131	-0.0228284045	-0.08862
H	-1.7022782249	 2.085301478	-1.1000422852	 0.140333
H	-1.9609654566	 2.4154642374	 0.6322065936	 0.137469
H	 0.0856828012	 3.83534727	-1.1102094484	 0.095765
H	 0.1576309037	 5.2365395625	 0.8900945204	 0.142683
H	-0.4383005892	 3.9057560206	 1.8864772341	 0.142615
H	 2.9808601264	 2.5380258277	 0.2854750115	 0.144494
H	 2.1690204531	 1.6497841637	 1.5888853317	 0.162789
72.3461	118.0926	210.2965	318.1358	448.1761	456.8013	472.2336	548.8383	587.0175	613.8345	722.1259	751.937	800.9794	816.6328	866.464	948.5755	992.2847	1037.7082	1055.6335	1076.3624	1113.4955	1130.2512	1184.8353	1219.1556	1225.2376	1239.5046	1256.4551	1294.3508	1332.4179	1371.151	1447.187	1457.5404	1472.352	1863.7368	1886.3319	3039.3332	3043.6105	3071.7536	3086.4533	3091.5805	3127.4468	3143.5129
O=C1CC2CC(=O)CN12	O=C1C[C@H]2CC(=O)CN12	
InChI=1S/C6H7NO2/c8-5-1-4-2-6(9)7(4)3-5/h4H,1-3H2	InChI=1S/C6H7NO2/c8-5-1-4-2-6(9)7(4)3-5/h4H,1-3H2/t4-/m1/s1
