15
gdb 8589	5.05321	1.82171	1.72474	3.4223	66.44	-0.2493	0.0004	0.2497	779.7243	0.120328	-362.559693	-362.553813	-362.552869	-362.589442	24.15	
O	-0.1802523298	-0.050228066	-0.2418104147	-0.318525
C	-0.0341381917	 1.1142761363	-0.0300390524	 0.33711
N	-0.9922067573	 2.1645910153	 0.1416090227	-0.418296
C	 0.0484201348	 3.0088629544	 0.7306738189	 0.313464
C	 1.000688993	 4.2475304932	 0.6637913274	-0.293425
C	 1.8469067686	 2.9981673606	 1.1992330506	-0.075067
C	 0.6620972863	 2.6710935777	 2.1250225408	-0.253751
C	 1.1336972591	 2.177859917	 0.0539747044	-0.154895
H	-1.9140225666	 1.9992994333	 0.53278019	 0.243515
H	 1.2594023869	 4.6226091308	-0.3276501703	 0.113254
H	 0.8385021642	 5.0569945275	 1.3808626049	 0.103362
H	 2.9064687472	 3.0142906538	 1.4558232748	 0.09196
H	 0.459550222	 3.3715711669	 2.9379406844	 0.095504
H	 0.5719805178	 1.6310288976	 2.4485760736	 0.110425
H	 1.4005205754	 2.4867638114	-0.960054275	 0.105364
153.8005	295.3895	415.1266	473.1636	541.6628	556.3868	610.8676	667.8923	747.1625	770.3541	830.7867	837.9978	907.1496	933.9294	954.8317	994.5127	1018.0879	1034.7034	1056.578	1087.3806	1119.9886	1132.2195	1169.8282	1185.7697	1202.562	1222.8722	1233.3544	1303.7435	1335.7241	1492.98	1530.5757	1894.2423	3056.6107	3061.1754	3074.5005	3111.1065	3128.4509	3138.2617	3536.2604
O=C1NC23CC(C2)C13	O=C1N[C@@]23C[C@@H](C2)[C@@H]13	
InChI=1S/C6H7NO/c8-5-4-3-1-6(4,2-3)7-5/h3-4H,1-2H2,(H,7,8)	InChI=1S/C6H7NO/c8-5-4-3-1-6(4,2-3)7-5/h3-4H,1-2H2,(H,7,8)/t3-,4-,6-/m0/s1
