22
gdb 101144	3.5898	0.95256	0.82033	1.1699	83.8	-0.2392	0.0314	0.2706	1497.6814	0.194244	-404.381443	-404.37149	-404.370546	-404.417369	35.48	
C	 0.0376933627	 1.5976934222	-0.0567470387	-0.396753
C	 0.042983458	 0.0675514096	-0.1178882487	-0.159784
C	-1.3480095698	-0.5659884501	 0.048008715	-0.077011
C	-2.319936272	-0.2179117553	-1.0982988501	-0.398732
C	-1.2534814683	-2.059186731	 0.1928130344	 0.425096
N	-0.2280074149	-2.7857135513	 0.008637894	-0.317625
C	-0.6378801901	-4.1741105876	 0.2602479623	-0.187583
C	-2.1444976296	-4.0805169757	 0.6168012646	-0.112331
O	-2.424128718	-2.6661275991	 0.5547288423	-0.264597
H	 1.0583713546	 1.9878641191	-0.1153282905	 0.114421
H	-0.5289500662	 2.04391332	-0.8798866164	 0.116689
H	-0.4001269126	 1.9580906253	 0.8814868021	 0.111177
H	 0.4757236574	-0.2719035731	-1.0656924476	 0.109213
H	 0.6986338034	-0.3289308307	 0.6635818834	 0.109499
H	-1.7962947578	-0.1982541633	 0.9824314987	 0.094094
H	-2.5016286381	 0.8587240711	-1.140953609	 0.11933
H	-1.9054495406	-0.5321079549	-2.0623989028	 0.121316
H	-3.2798309125	-0.7200790063	-0.9582185578	 0.131521
H	-0.4544127607	-4.7865815595	-0.6289932192	 0.114712
H	-0.0396526275	-4.5994024414	 1.0734150333	 0.114731
H	-2.7957106281	-4.5933243068	-0.0972518877	 0.116025
H	-2.3802378996	-4.4338429912	 1.6246679283	 0.116592
42.0202	74.7053	89.6178	148.5762	162.6029	212.6996	259.0312	291.6963	342.0201	378.1413	450.7775	662.4761	731.8594	759.9437	780.7367	830.8285	853.4436	918.924	961.6468	975.6762	983.3703	1011.0611	1018.4844	1037.9949	1104.1795	1123.575	1146.9102	1168.0114	1214.1656	1216.6001	1246.0909	1288.8809	1313.2122	1341.3305	1347.9131	1372.9728	1404.0147	1407.5077	1414.4179	1481.5866	1494.955	1500.9529	1503.6065	1508.5139	1511.8848	1527.6007	1734.5184	3006.0921	3030.8458	3037.7823	3042.5985	3048.1564	3051.9899	3064.5037	3078.1511	3098.3688	3099.6324	3107.294	3114.9373	3131.0205
CCC(C)C1=NCCO1	CC[C@@H](C)C1=NCCO1	
InChI=1S/C7H13NO/c1-3-6(2)7-8-4-5-9-7/h6H,3-5H2,1-2H3	InChI=1S/C7H13NO/c1-3-6(2)7-8-4-5-9-7/h6H,3-5H2,1-2H3/t6-/m1/s1
