21
gdb 39274	2.29161	2.14563	1.4854	2.1994	79.85	-0.2557	0.0735	0.3293	970.283	0.186601	-387.079578	-387.072689	-387.071745	-387.110357	29.78	
C	 0.045043406	 1.6040900291	 0.0620417642	-0.20881
C	 1.5493558719	 2.039396042	-0.0945822298	-0.302318
C	 2.17179969	 0.6855977663	 0.1771975357	 0.42027
C	 1.3551459147	-0.2818202069	-0.6718132247	-0.283284
C	 0.0170572104	 0.0254058046	 0.0243960243	 0.007095
C	 0.0409914144	-0.6750500763	 1.423747773	-0.209328
C	 1.4940478793	-0.9323600862	 1.9513739351	-0.268048
C	 2.2979488775	 0.297336925	 1.581581295	 0.014256
O	 3.4413031002	 0.3210354702	 0.6891095071	-0.330568
H	-0.3761154358	 1.9821262433	 0.9982209321	 0.099293
H	-0.5639667399	 2.0096868148	-0.7505863748	 0.101072
H	 1.7562795532	 2.4108476793	-1.1035847648	 0.09737
H	 1.8477820677	 2.8072465662	 0.6217679175	 0.10328
H	 1.3531821109	 0.0152177871	-1.725867809	 0.090566
H	 1.6794754159	-1.3202798674	-0.6083603831	 0.102833
H	-0.859508331	-0.3175882537	-0.530370728	 0.063644
H	-0.5057553176	-0.062385818	 2.1502356117	 0.098439
H	-0.4937679969	-1.6296295941	 1.3658151177	 0.098489
H	 1.4837120815	-1.1123296516	 3.0300075328	 0.097324
H	 1.9222750086	-1.8235694833	 1.4862284647	 0.119248
H	 2.341311319	 1.0901945497	 2.3278469133	 0.089176
158.8557	261.4999	341.2496	379.7877	418.4281	476.1493	487.4645	529.1067	560.4415	695.5056	753.6911	767.3317	819.9278	842.1575	870.983	896.2219	914.5937	935.1894	977.0782	988.2781	1000.2136	1021.8922	1038.1042	1074.3697	1103.3828	1143.8917	1156.0833	1168.8696	1200.7167	1225.3846	1232.1883	1249.0457	1274.7657	1305.1595	1313.6274	1335.7857	1346.7178	1351.0873	1366.3227	1478.8682	1484.6042	1488.7868	1498.0007	1507.434	1526.5536	3030.2773	3045.878	3051.9536	3053.4064	3062.2837	3065.9923	3075.9776	3094.6423	3100.0137	3112.3025	3117.6939	3132.3267
C1CC23CC1CCC2O3	C1C[C@]23C[C@H]1CC[C@H]2O3	
InChI=1S/C8H12O/c1-2-7-8(9-7)4-3-6(1)5-8/h6-7H,1-5H2	InChI=1S/C8H12O/c1-2-7-8(9-7)4-3-6(1)5-8/h6-7H,1-5H2/t6-,7+,8-/m0/s1
