18
gdb 88777	3.42709	1.25837	1.08802	2.8111	72.09	-0.2514	0.0214	0.2728	1148.8769	0.147955	-439.076355	-439.067993	-439.067049	-439.11038	30.249	
C	 0.1069045513	 1.5689753275	-0.2571106949	-0.431701
C	 0.0933266522	 0.0990108822	 0.0717382607	 0.078866
O	 1.3434636704	-0.6148391821	 0.0784831726	-0.256847
C	 0.6082238922	-0.5390807971	 1.2950107734	 0.0386
C	 1.2803116883	 0.0999790312	 2.4906667911	 0.044092
C	 2.4397362226	-0.7770431804	 3.0618369981	-0.19691
N	 3.6442095831	 0.0592566796	 2.9512507147	-0.255749
C	 3.2570827002	 1.1541210472	 2.4533520919	 0.126729
O	 1.9434588553	 1.3439541225	 2.1644237699	-0.220261
H	 0.9067053597	 2.0906439597	 0.2637933074	 0.152576
H	 0.2329936815	 1.7030127268	-1.33674484	 0.126345
H	-0.8521971131	 2.0197750718	 0.0215749001	 0.119241
H	-0.6991061263	-0.4580019784	-0.4352200341	 0.090101
H	 0.1309906138	-1.4801946713	 1.5896468359	 0.091892
H	 0.5191815921	 0.322103588	 3.2467634654	 0.099496
H	 2.2760401419	-1.059946797	 4.1061137901	 0.118977
H	 2.5749157836	-1.6970487014	 2.4837983349	 0.130752
H	 3.8879569114	 2.0063364411	 2.2277377927	 0.143801
47.6142	67.1118	156.8367	194.3263	231.5319	278.3675	392.9415	487.9918	494.6974	670.6229	727.4101	777.7368	783.1739	874.8452	890.734	951.9975	961.215	982.8587	989.735	1033.2091	1044.156	1085.07	1114.4862	1119.5993	1177.0995	1186.9162	1216.9492	1297.9812	1304.6697	1323.6929	1335.8993	1382.5002	1398.3466	1421.1845	1471.2049	1495.9509	1498.011	1514.4093	1719.7404	3040.0875	3041.6504	3045.4151	3054.6934	3074.6633	3086.272	3095.8368	3181.9132	3221.2511
CC1OC1C1CN=CO1	C[C@H]1O[C@H]1[C@H]1CN=CO1	
InChI=1S/C6H9NO2/c1-4-6(9-4)5-2-7-3-8-5/h3-6H,2H2,1H3	InChI=1S/C6H9NO2/c1-4-6(9-4)5-2-7-3-8-5/h3-6H,2H2,1H3/t4-,5-,6-/m1/s1
