25
gdb 84373	1.73433	1.66764	1.42533	0.0725	93.06	-0.236	0.0286	0.2646	1184.2949	0.228349	-352.380125	-352.370215	-352.369271	-352.413715	39.619	
C	-0.268912522	 1.5533050025	-0.1123008863	-0.41086
C	-0.0406646714	 0.0354275684	 0.0062525102	-0.042313
C	 0.7842645157	-0.4885582992	-1.1463442958	-0.073467
C	 1.9948912988	-0.8896207301	-0.767209546	-0.073466
C	 2.2256703328	-0.7153818435	 0.716007777	-0.042311
C	 3.2695125286	 0.381058417	 0.995848813	-0.410861
C	 0.7682974572	-0.4678126763	 1.2611296917	 0.284919
C	 0.7022828212	 0.4747316477	 2.468979268	-0.444785
C	 0.1854019657	-1.8328888105	 1.6783495678	-0.421098
H	 0.6758008833	 2.105654707	-0.1229054703	 0.118612
H	-0.7917528248	 1.7828847718	-1.0471661643	 0.108897
H	-0.8804317231	 1.9361007906	 0.7104577851	 0.112624
H	-1.0342723697	-0.4347211466	 0.0150448984	 0.065486
H	 0.4141897219	-0.4873806467	-2.1669810345	 0.084689
H	 2.7675315571	-1.2670040813	-1.4299802845	 0.084688
H	 2.6148676883	-1.6436454379	 1.1578524746	 0.065486
H	 2.9584084439	 1.3494595247	 0.5919935837	 0.118612
H	 3.4539388087	 0.5001375818	 2.0678694107	 0.112624
H	 4.2231484023	 0.1215071857	 0.5233501318	 0.108897
H	 1.0991692019	 1.4695029544	 2.254058564	 0.114071
H	-0.3323613215	 0.5970056986	 2.8088084859	 0.107262
H	 1.2716790499	 0.0655761371	 3.3111808367	 0.107261
H	 0.7543931793	-2.266126272	 2.5085338865	 0.104566
H	-0.8559503923	-1.7326418691	 2.0042144847	 0.104566
H	 0.2115358583	-2.5419743742	 0.8448092318	 0.115902
84.2482	188.6083	233.3097	238.6495	266.2212	270.1492	273.2598	319.1531	323.831	340.2874	380.5012	421.1774	490.948	561.9079	598.6079	700.7109	750.1192	781.0906	807.2366	896.3097	932.2438	939.2485	953.4398	978.889	1007.8997	1032.5069	1034.9187	1062.5165	1092.056	1098.3978	1106.9198	1141.7723	1203.4763	1222.1402	1235.2193	1285.9827	1327.2225	1344.6021	1364.4714	1370.9481	1394.9673	1405.012	1406.5297	1421.7099	1483.0705	1486.899	1494.1403	1496.1224	1498.2325	1500.1064	1511.4684	1516.1076	1690.8212	2994.6558	2997.0335	3022.2968	3028.9305	3031.4128	3034.2018	3082.6738	3090.0802	3095.5493	3096.8142	3101.621	3107.5923	3110.165	3117.2469	3165.3019	3191.5926
CC1C=CC(C)C1(C)C	C[C@H]1C=C[C@@H](C)C1(C)C	
InChI=1S/C9H16/c1-7-5-6-8(2)9(7,3)4/h5-8H,1-4H3	InChI=1S/C9H16/c1-7-5-6-8(2)9(7,3)4/h5-8H,1-4H3/t7-,8+
