16
gdb 52538	3.79814	0.77271	0.64725	3.9259	78.81	-0.2626	-0.0387	0.2239	1699.0141	0.120382	-437.901936	-437.891535	-437.890591	-437.940409	34.12	
C	 1.4601008812	-0.0241516304	-2.9278749856	-0.505831
C	 1.097676685	-1.3139217314	-2.3661461909	 0.205038
C	 0.792770989	-2.3871432814	-1.9125937872	 0.041816
C	 0.4276101762	-3.6640458997	-1.3829780983	 0.168657
N	-0.0781520826	-4.5841510673	-2.0799260183	-0.495725
O	 0.7333661894	-3.6754527712	-0.0046068381	-0.260838
C	 0.5065858768	-4.751350857	 0.8047217446	 0.444822
C	 0.9474429926	-4.4232720084	 2.2082605271	-0.481873
O	 0.0292243196	-5.7978038343	 0.4517560036	-0.332653
H	 1.9116440779	 0.6262445516	-2.1716143832	 0.157189
H	 2.1791981111	-0.1427222368	-3.7455516863	 0.162116
H	 0.579295409	 0.4869824683	-3.331315486	 0.162022
H	-0.2657596172	-5.4124383808	-1.5166890794	 0.264793
H	 2.0100384445	-4.164627067	 2.2138675609	 0.158525
H	 0.3993115069	-3.5515417585	 2.5765826572	 0.158521
H	 0.7660297808	-5.2817438257	 2.8535185299	 0.153421
15.5236	42.294	78.8949	82.163	100.8159	168.6526	233.6748	311.4191	381.1974	385.864	405.051	575.4717	588.2875	605.7474	705.3768	794.4894	855.933	943.5101	977.7901	1031.6848	1047.5516	1053.6734	1062.8656	1142.8199	1225.2977	1328.8133	1394.1759	1411.4433	1466.2542	1472.1993	1472.5692	1473.1472	1715.4578	1829.2391	2370.326	3032.3568	3058.4109	3095.7651	3099.1513	3124.4462	3172.3148	3509.4976
CC#CC(=N)OC(C)=O	CC#C[C]([NH])OC(=O)C	
InChI=1S/C6H7NO2/c1-3-4-6(7)9-5(2)8/h7H,1-2H3	InChI=1S/C6H7NO2/c1-3-4-6(7)9-5(2)8/h7H,1-2H3
