18
gdb 8434	2.79748	2.12178	1.79701	2.1383	67.32	-0.2268	0.0695	0.2963	848.7278	0.151237	-384.901189	-384.892936	-384.891992	-384.93292	32.059	
C	-0.0570411593	 1.5644008118	 0.0055743147	-0.438973
C	 0.0186688501	 0.047506397	 0.0604407508	 0.344398
C	-1.3034490949	-0.6148794084	-0.3016647965	-0.413872
O	 1.0841730077	-0.4809744022	-0.8123828069	-0.33481
C	 1.6434189544	-1.222536232	 0.2701266677	 0.049031
C	 2.1691483301	-0.2945435494	 1.3356765668	-0.375372
C	 0.69439401	-0.6324325317	 1.2709998662	 0.275823
O	 0.0046405373	-1.2456889981	 2.2990013441	-0.453909
H	 0.8940093704	 2.0267537801	 0.2796523761	 0.118256
H	-0.3141995688	 1.8937742689	-1.0063612844	 0.127196
H	-0.8323775596	 1.9321825843	 0.6864655497	 0.114337
H	-1.6073612649	-0.3120799913	-1.3081613789	 0.118395
H	-1.2093844322	-1.7029094567	-0.2757667319	 0.127583
H	-2.0887836382	-0.3232223292	 0.4025988726	 0.114384
H	 1.9986765	-2.2285458031	 0.0826049697	 0.109363
H	 2.6820169209	-0.7955124158	 2.1520630997	 0.115167
H	 2.5600554816	 0.6821376568	 1.0657954184	 0.113458
H	 0.0005476953	-0.6524168912	 3.0581682521	 0.289545
170.1859	186.0028	213.8626	230.9949	279.0622	290.5766	351.486	399.0586	449.8242	474.2174	503.6437	647.0151	653.5103	815.2591	848.271	898.3599	922.5742	936.0268	981.0347	996.0325	1004.0091	1015.4056	1067.716	1078.9326	1149.2566	1212.7553	1226.366	1256.5933	1295.2969	1323.4071	1395.2955	1410.7628	1413.0737	1470.6707	1477.7853	1488.8561	1496.7179	1504.6045	3036.4203	3043.6584	3102.3983	3113.3971	3114.446	3122.8262	3128.8586	3188.2668	3207.316	3793.4738
CC1(C)OC2CC12O	CC1(C)O[C@H]2C[C@@]12O	
InChI=1S/C6H10O2/c1-5(2)6(7)3-4(6)8-5/h4,7H,3H2,1-2H3	InChI=1S/C6H10O2/c1-5(2)6(7)3-4(6)8-5/h4,7H,3H2,1-2H3/t4-,6-/m0/s1
