17
gdb 112112	2.56169	1.44143	0.95325	5.5002	70.61	-0.2361	-0.0313	0.2049	1182.272	0.137024	-455.163484	-455.154954	-455.15401	-455.197881	30.957	
O	-0.2583999566	 1.5723671828	 0.2187178426	-0.427784
C	-0.0486793731	 0.1901540376	 0.3853477931	-0.050683
C	-1.2434914533	-0.597664019	-0.1767014855	-0.100933
N	-1.4927980666	-0.1391331309	-1.543693045	-0.285636
C	-2.0988825058	-0.9325719053	-2.3350514364	 0.088764
N	-2.5093922534	-2.2112849898	-2.0578379002	-0.310629
C	-1.8543007264	-2.9808194493	-1.0105254368	-0.256301
C	-1.0741388864	-2.1014461056	-0.0298329636	 0.367181
O	-0.3751514332	-2.6134728029	 0.8108119918	-0.305937
H	-0.5801745835	 1.6685590802	-0.6889378706	 0.289426
H	 0.8681553021	-0.1516137918	-0.1218243768	 0.086758
H	 0.0682393625	-0.0111572714	 1.4523724576	 0.119292
H	-2.1292229559	-0.3329026094	 0.4279156278	 0.121255
H	-2.3617148977	-0.5843108387	-3.334740515	 0.119328
H	-2.8938834013	-2.7372959782	-2.8267379936	 0.252057
H	-2.59081187	-3.5523093444	-0.4320133989	 0.14845
H	-1.1380693912	-3.704537114	-1.4215926707	 0.145394
34.1075	81.8009	121.2868	187.5871	318.2485	329.0429	446.2858	476.4832	514.9321	521.5388	527.7519	575.9602	610.5242	774.6018	851.6025	894.5176	964.8061	988.326	1013.328	1063.9002	1089.2834	1110.1245	1155.7949	1216.5602	1227.8495	1246.0639	1288.4538	1290.7055	1327.3929	1381.4084	1417.3047	1443.0684	1468.8376	1507.1633	1527.3915	1739.9691	1816.6479	2952.6089	2978.0901	3017.7559	3053.0761	3107.5058	3125.2771	3623.1242	3738.3045
OCC1N=CNCC1=O	OC[C@H]1N=CNCC1=O	
InChI=1S/C5H8N2O2/c8-2-4-5(9)1-6-3-7-4/h3-4,8H,1-2H2,(H,6,7)	InChI=1S/C5H8N2O2/c8-2-4-5(9)1-6-3-7-4/h3-4,8H,1-2H2,(H,6,7)/t4-/m1/s1
