17
gdb 72712	2.76164	2.09212	1.62198	0.3189	72.74	-0.2402	-0.0155	0.2247	875.063	0.134022	-421.662245	-421.655021	-421.654077	-421.693194	29.946	
C	-0.0449105655	 1.5269234686	-0.0908698656	-0.439338
C	-0.0082233101	 0.0174939445	 0.0310516691	 0.425621
O	-1.2606357972	-0.4084899183	 0.7449509464	-0.352588
C	-0.4464427661	-0.4469822146	 1.9871354515	-0.206935
C	 0.750372244	-0.7474023562	 1.0519185367	 0.257977
O	 2.014276494	-0.2741438362	 0.3730830017	-0.364751
C	 1.1954661993	-0.619119009	-0.8512388724	-0.108631
C	 1.0170649428	-2.1115117437	-0.71295852	-0.058253
C	 0.7029761596	-2.2062655531	 0.5778510809	-0.102089
H	 0.9051290391	 1.9242664079	-0.4511877438	 0.135552
H	-0.82918418	 1.784542404	-0.8124925875	 0.130704
H	-0.297669523	 2.0214840546	 0.8508318531	 0.122057
H	-0.4543066726	 0.5184592186	 2.4990534027	 0.123757
H	-0.7691726552	-1.2514473983	 2.652645624	 0.123068
H	 1.5875385703	-0.1604495999	-1.7593354006	 0.087404
H	 1.1097140438	-2.8550840844	-1.4896352946	 0.117661
H	 0.4528886669	-3.0568367745	 1.1951147884	 0.108781
174.3062	222.4733	268.9037	326.4703	374.5667	409.5564	505.4959	528.1648	569.0977	605.0429	685.6761	712.3938	740.5865	807.3519	820.1639	847.9527	884.1601	900.9137	907.5345	962.3713	989.7024	1051.6191	1071.3294	1089.6924	1124.5265	1144.1743	1148.0792	1207.6312	1259.2042	1268.7035	1296.7797	1329.6575	1406.15	1474.4258	1494.5314	1506.412	1627.1016	3039.5598	3059.6536	3101.6486	3124.5639	3125.9467	3140.3575	3232.1047	3262.2167
CC12OCC11OC2C=C1	C[C@]12OC[C@@]31O[C@H]2C=C3	
InChI=1S/C7H8O2/c1-6-5-2-3-7(6,9-5)4-8-6/h2-3,5H,4H2,1H3	InChI=1S/C7H8O2/c1-6-5-2-3-7(6,9-5)4-8-6/h2-3,5H,4H2,1H3/t5-,6+,7-/m0/s1
