20
gdb 73293	2.88856	1.81862	1.30764	0.1903	78.74	-0.2338	0.0824	0.3162	1019.5866	0.1715	-403.095416	-403.087552	-403.086607	-403.127046	31.981	
C	 0.0293365172	 1.5100642043	-0.0447391123	-0.506032
C	 0.0368337768	 0.0024997945	-0.0151444123	 0.335281
C	 0.4421232511	-0.7741760859	-1.258302183	-0.150957
O	 0.3168509825	-2.1341663097	-0.817661924	-0.312964
C	-0.1126290835	-1.994760104	 0.5237028673	 0.476602
C	-0.3038496948	-3.3382475311	 1.1703373467	-0.493394
C	 0.6213809033	-0.7891759555	 1.2070405334	-0.159872
N	-0.601755589	-0.411830174	 2.0012296212	-0.340649
C	-1.1311243518	-0.8089021904	 0.6479591287	-0.159851
H	 1.0258070674	 1.9050732001	-0.2730187204	 0.114716
H	-0.6583346941	 1.8861521373	-0.8107431588	 0.11471
H	-0.2849690642	 1.8997049456	 0.9259942882	 0.147237
H	-0.222402104	-0.5914111371	-2.1127300057	 0.101204
H	 1.4747419156	-0.5723608989	-1.5713697769	 0.101206
H	 0.6340330625	-3.9014092458	 1.1602706103	 0.133204
H	-0.6344317475	-3.2388838897	 2.2082228542	 0.11461
H	-1.0531274071	-3.9193039208	 0.6245893487	 0.133168
H	 1.6307686584	-0.7360352465	 1.6209312602	 0.072323
H	-0.812139903	-1.1424804269	 2.6864620475	 0.207136
H	-2.1945694859	-0.7790944855	 0.4005907068	 0.072321
199.749	200.2575	232.7301	261.4602	263.9192	329.534	378.4778	441.8684	507.3722	581.8981	686.4588	706.0835	726.3832	735.7989	823.908	866.7584	896.1049	922.7712	942.5307	1007.5468	1030.3925	1039.7732	1084.3568	1096.1372	1126.9297	1142.8888	1156.5221	1162.6585	1185.4686	1219.5383	1252.2082	1277.287	1286.0083	1303.8965	1332.9989	1396.6218	1407.2083	1422.0078	1474.3528	1492.1684	1497.2537	1500.3993	1521.0001	3011.4833	3030.735	3043.2168	3048.1711	3086.3595	3088.2091	3094.5598	3113.7287	3115.0596	3128.8216	3399.6785
CC12COC3(C)C1NC23	C[C@@]12CO[C@@]3(C)[C@@H]1N[C@@H]23	
InChI=1S/C7H11NO/c1-6-3-9-7(2)4(6)8-5(6)7/h4-5,8H,3H2,1-2H3	InChI=1S/C7H11NO/c1-6-3-9-7(2)4(6)8-5(6)7/h4-5,8H,3H2,1-2H3/t4-,5+,6-,7+
