19
gdb 14736	5.01987	0.70078	0.6245	2.063	72.65	-0.245	0.0269	0.2719	1753.162	0.163062	-402.179567	-402.169396	-402.168452	-402.215963	33.788	
C	-0.0243741897	 1.0587025953	-0.5494837124	-0.251109
O	-0.3896552103	 0.1006273612	 0.4340639281	-0.196244
C	-1.1977673165	-0.8941635804	 0.003458685	 0.131162
N	-1.5710588862	-1.7866112961	 0.804927822	-0.23381
C	-2.4382340902	-2.8661731824	 0.3676395293	-0.129614
C	-2.8976448186	-2.9058625095	-1.0956460666	-0.18343
C	-3.7980431442	-4.1021830223	-1.3750472534	-0.083292
O	-4.1711477828	-4.0562273627	-2.7444385488	-0.42338
H	 0.6191779331	 1.7834059193	-0.0490848752	 0.14448
H	 0.5315226355	 0.598620227	-1.3761399239	 0.124831
H	-0.9018859555	 1.5794076504	-0.9530895781	 0.124829
H	-1.4619584799	-0.8216739114	-1.0595195785	 0.077791
H	-1.9224655449	-3.806343492	 0.6095755184	 0.110662
H	-3.3209113173	-2.850283789	 1.0226928186	 0.110654
H	-3.4497023568	-1.9939573987	-1.3538103446	 0.108077
H	-2.0355985774	-2.9607052345	-1.7715569503	 0.108075
H	-3.2611782273	-5.0358854671	-1.1399924448	 0.087308
H	-4.6836992949	-4.0633846635	-0.719775158	 0.08731
H	-4.740169956	-4.8098375535	-2.9261922569	 0.285702
44.8508	92.4481	96.3113	107.6718	135.4221	163.7369	220.2645	268.6502	290.6882	325.5464	422.2241	509.2155	614.1882	762.8388	876.8714	984.9579	997.1806	1033.3287	1040.2752	1083.9909	1084.8196	1153.8302	1177.6567	1178.698	1226.1139	1235.7337	1275.4553	1313.8237	1315.3416	1321.485	1397.2448	1420.3473	1463.1345	1480.5882	1489.6619	1494.3128	1502.1041	1503.7106	1529.9549	1782.5249	2959.897	2985.4005	3002.5565	3007.3341	3021.2553	3027.4359	3038.0867	3070.4218	3075.691	3141.8378	3828.7593
COC=NCCCO	COC=NCCCO	
InChI=1S/C5H11NO2/c1-8-5-6-3-2-4-7/h5,7H,2-4H2,1H3	InChI=1S/C5H11NO2/c1-8-5-6-3-2-4-7/h5,7H,2-4H2,1H3
