19
gdb 107703	3.35482	1.27605	1.09847	2.8226	75.29	-0.2275	0.0719	0.2994	1161.3289	0.157451	-422.936029	-422.927539	-422.926595	-422.968943	32.832	
C	 0.0069052931	 1.5426794452	 0.0670742603	-0.380548
C	-0.0868593746	 0.0173779607	-0.0614739586	-0.316185
C	-1.4993471131	-0.4949335172	-0.0931251784	 0.32935
C	-2.6504904004	-0.2034226846	-1.0875502059	-0.395336
C	-3.2915292565	-1.1748689346	-0.0694476809	 0.362755
O	-4.5904813848	-1.6124617021	 0.0246141279	-0.460617
C	-1.9499208917	-1.9771559731	 0.1261036863	-0.050578
O	-1.9666421003	-1.8785766902	 1.57979433	-0.326491
C	-2.4853243872	-0.5949897364	 1.1252486822	 0.000747
H	 1.0506211808	 1.8694268864	 0.0953361466	 0.115922
H	-0.4777522836	 2.0444392599	-0.7769108433	 0.118768
H	-0.4772834292	 1.8916893054	 0.9851548591	 0.119339
H	 0.4356815619	-0.3089429685	-0.9701320273	 0.09932
H	 0.4239133604	-0.4627443843	 0.7824028778	 0.116776
H	-3.0454652344	 0.8164131642	-1.0995630395	 0.103827
H	-2.5158484864	-0.5760391313	-2.1084520705	 0.091599
H	-4.8262535386	-2.0639042316	-0.7931883192	 0.287997
H	-1.5871141928	-2.8950838648	-0.3379234378	 0.088705
H	-2.7716382025	 0.152959167	 1.8644858211	 0.094649
89.6348	140.3807	184.9386	230.288	274.3587	298.5725	323.3769	428.9021	434.0573	566.4139	595.9802	706.3705	723.73	771.3586	805.6998	852.3383	898.9962	917.0557	933.2009	965.1319	1014.8221	1027.3827	1059.2545	1071.5697	1093.788	1108.2264	1142.052	1151.6317	1167.0471	1199.1111	1277.8837	1285.4652	1317.1574	1330.5894	1376.1181	1409.9193	1422.547	1479.7832	1499.6919	1506.4937	1521.2874	3019.773	3035.0435	3041.9156	3056.1556	3101.1935	3104.232	3108.1745	3112.8034	3125.106	3806.1033
CCC12CC3(O)C1OC23	CC[C@@]12C[C@@]3(O)[C@@H]1O[C@@H]23	
InChI=1S/C7H10O2/c1-2-6-3-7(8)4(6)9-5(6)7/h4-5,8H,2-3H2,1H3	InChI=1S/C7H10O2/c1-2-6-3-7(8)4(6)9-5(6)7/h4-5,8H,2-3H2,1H3/t4-,5+,6-,7-
