19
gdb 27159	2.838	1.40049	0.9905	1.8675	83.41	-0.1695	0.0515	0.2211	1203.2656	0.161349	-382.087853	-382.079224	-382.078279	-382.121406	33.192	
N	-0.1538878628	 1.3123127336	 0.416837975	-0.611494
C	-0.0480430059	-0.0666908146	 0.1432992072	 0.180488
C	-1.0874349117	-0.9198843173	-0.1856893542	 0.232356
N	-0.5153820629	-2.1511764964	-0.4717601387	-0.297861
C	 0.8379346721	-2.0925300538	-0.310915836	-0.08774
C	 1.1651718978	-0.8096925661	 0.0691811302	-0.211023
C	-2.5370065777	-0.6729315594	-0.310981444	-0.148954
C	-3.5293614699	-1.567467492	 0.4051391432	-0.267079
C	-3.3242345657	-0.1545839786	 0.8788383837	-0.252367
H	 0.4718806352	 1.6039186912	 1.1578916301	 0.235191
H	-1.0999108567	 1.5742122193	 0.6663451419	 0.238101
H	-1.0396068952	-2.9643582667	-0.7409408751	 0.254096
H	 1.4593219969	-2.9589516012	-0.4711020071	 0.110438
H	 2.1590921168	-0.4369422374	 0.2660916305	 0.081846
H	-2.8823295461	-0.2972465868	-1.2739778834	 0.094164
H	-4.4559897178	-1.8095694205	-0.1031949521	 0.110196
H	-3.1329957347	-2.3642890112	 1.0246450224	 0.11271
H	-2.7882975128	-0.0143934683	 1.8107873915	 0.115936
H	-4.1112437187	 0.5682683862	 0.694265615	 0.110997
47.9117	132.9409	153.8152	219.5983	277.5063	314.3147	378.9659	405.5554	482.7987	599.1773	638.8736	681.3692	700.4422	713.828	785.4782	799.409	812.2053	832.8632	900.0575	919.5311	920.9309	1042.9702	1052.7336	1077.9718	1085.579	1091.8624	1133.4058	1137.7879	1200.2955	1204.2139	1242.0196	1262.3534	1328.9939	1389.1944	1456.0386	1464.6109	1497.5306	1500.7388	1517.4027	1632.2188	1656.6841	3092.2645	3132.2879	3137.7684	3213.8496	3228.5748	3240.1207	3266.9154	3519.8977	3610.3362	3689.7158
NC1=C(NC=C1)C1CC1	Nc1c([nH]cc1)C1CC1	
InChI=1S/C7H10N2/c8-6-3-4-9-7(6)5-1-2-5/h3-5,9H,1-2,8H2	InChI=1S/C7H10N2/c8-6-3-4-9-7(6)5-1-2-5/h3-5,9H,1-2,8H2
