18
gdb 26163	2.62194	1.46447	0.97097	1.2597	74.53	-0.1778	0.0587	0.2365	1189.5773	0.148337	-439.123444	-439.114788	-439.113844	-439.156584	33.583	
C	 0.2466285729	 1.1581657486	 1.1390581346	-0.399138
C	-0.2640797796	 0.5319897546	-0.1551833822	-0.003522
O	 0.7112441932	-0.4014255981	-0.6920655584	-0.437328
C	-1.5969810297	-0.1476219918	-0.0227811394	 0.114816
C	-2.0175936141	-1.1532634535	-0.8712882203	 0.31854
O	-1.3934606854	-1.7606552722	-1.902876295	-0.441031
N	-3.2779348787	-1.5331564001	-0.5235227436	-0.30852
C	-3.7004182268	-0.7758189888	 0.5580386896	-0.093198
C	-2.6833951036	 0.0818362869	 0.8845937624	-0.267372
H	 1.2369236587	 1.593592848	 0.9812703865	 0.121104
H	-0.4291511198	 1.9483941266	 1.4796733556	 0.126589
H	 0.3111964002	 0.4078914507	 1.9354206441	 0.113343
H	-0.296337841	 1.3109978702	-0.9288535978	 0.100844
H	 0.8414312958	-1.0774178021	-0.0147383542	 0.281592
H	-0.4773687655	-1.4306374017	-1.8651726911	 0.30419
H	-3.7897417268	-2.2700051029	-0.9765890155	 0.26386
H	-4.6771915406	-0.9226149737	 0.9870519986	 0.115921
H	-2.7082716694	 0.8067583897	 1.6839837361	 0.08931
65.2794	165.683	198.7246	254.3861	284.406	320.232	362.9343	445.1936	452.6238	459.6839	515.1939	618.3948	627.6615	659.4019	706.5456	715.5817	750.7791	808.7306	873.2048	912.789	1017.8207	1049.8463	1083.3275	1093.2686	1104.7475	1180.3249	1246.3299	1261.8106	1297.3531	1353.9503	1396.9812	1402.3932	1403.2562	1421.9782	1490.5647	1493.7916	1528.7053	1577.4563	1635.41	3011.7178	3034.1248	3105.3537	3122.2942	3244.4539	3279.5616	3620.5011	3683.4009	3774.2391
CC(O)C1=C(O)NC=C1	C[C@@H](O)c1c(O)[nH]cc1	
InChI=1S/C6H9NO2/c1-4(8)5-2-3-7-6(5)9/h2-4,7-9H,1H3	InChI=1S/C6H9NO2/c1-4(8)5-2-3-7-6(5)9/h2-4,7-9H,1H3/t4-/m1/s1
