17
gdb 107901	3.59842	1.26017	1.1688	2.9039	72.79	-0.2374	0.0053	0.2427	1093.7394	0.135109	-421.781003	-421.773172	-421.772228	-421.813523	29.831	
C	 0.148867686	 1.2942867861	 0.1205998197	-0.265092
O	-0.1203735212	-0.0682401419	-0.1867285662	-0.282208
C	 0.5743426663	-0.5383352869	-1.2648845795	 0.453239
C	 0.3442596	-0.2191602048	-2.7456075651	-0.312027
C	 1.2208916064	-1.4841893746	-3.0147810026	-0.199538
C	 0.9310519472	-1.9493325354	-1.5317474185	-0.160822
C	 2.0658457334	-0.9749424714	-1.1079502852	-0.281682
C	 2.6167468116	-1.0689705746	-2.4929786442	 0.453925
O	 3.7104401336	-1.0256396599	-2.9809457261	-0.341195
H	 1.2108377814	 1.4466777362	 0.3533276556	 0.121018
H	-0.1299914346	 1.9564981106	-0.7093724939	 0.121653
H	-0.4547063149	 1.5440748588	 0.9948079016	 0.135489
H	-0.700944914	-0.3838512645	-3.0223049566	 0.115751
H	 0.7018947639	 0.7322599309	-3.153279977	 0.107719
H	 1.0994488624	-2.077439016	-3.9162710474	 0.098857
H	 0.673568904	-2.8985616004	-1.0892545996	 0.122397
H	 2.5570066287	-0.9149317023	-0.1463412049	 0.112517
95.3397	123.0124	165.497	210.6379	326.2452	384.7993	464.6602	494.214	539.5826	651.2265	704.0535	764.7229	807.5373	826.9978	849.9064	898.2758	910.502	952.3071	997.7498	1033.3844	1059.231	1080.2788	1107.318	1124.2131	1129.6616	1174.3529	1181.3199	1207.9818	1231.2459	1253.8406	1292.3944	1402.2506	1484.1943	1489.133	1503.5849	1509.3975	1881.5106	3005.3602	3043.2614	3064.2158	3106.1887	3134.781	3169.7761	3219.6806	3250.1416
COC12CC3C1C2C3=O	CO[C@]12C[C@@H]3[C@H]1[C@H]2C3=O	
InChI=1S/C7H8O2/c1-9-7-2-3-4(7)5(7)6(3)8/h3-5H,2H2,1H3	InChI=1S/C7H8O2/c1-9-7-2-3-4(7)5(7)6(3)8/h3-5H,2H2,1H3/t3-,4+,5+,7-/m1/s1
