19
gdb 87060	2.50956	1.35098	1.10695	2.869	81.08	-0.2499	0.0169	0.2668	1189.8974	0.158541	-382.03929	-382.030209	-382.029265	-382.073201	33.727	
C	-0.1588511301	 1.4489908373	-0.0278992047	-0.327541
N	 0.0434499666	 0.0070363913	 0.0605507461	-0.114098
C	 1.3673890021	-0.5095051186	-0.2244709657	-0.275961
C	 0.819706436	-0.5517658983	 1.1783757776	 0.183621
C	 1.4321496468	 0.3636647551	 2.1214340863	 0.240321
N	 1.8937994431	 1.0842732842	 2.9002970352	-0.363314
C	 0.2933100156	-1.8323204126	 1.7662011871	-0.039805
C	 1.0166400617	-2.548959747	 2.8788102715	-0.280899
C	-0.3090722988	-1.8838042205	 3.1478346239	-0.279505
H	 0.712269079	 2.0418889054	 0.2875870253	 0.127281
H	-0.3924638458	 1.6969608043	-1.0672465088	 0.132115
H	-1.0127632295	 1.730016043	 0.5946051473	 0.138368
H	 1.4129041407	-1.4354556463	-0.7920168616	 0.128136
H	 2.1702572939	 0.1988065193	-0.4232691477	 0.12732
H	-0.1787144063	-2.4469877982	 1.0073048773	 0.098433
H	 1.0612794267	-3.63125555	 2.8367878935	 0.117623
H	 1.9023347053	-2.0795936988	 3.293213412	 0.133993
H	-0.2992700782	-0.9755455721	 3.7405403937	 0.135398
H	-1.1862408989	-2.5041772075	 3.2912671716	 0.118514
63.6131	137.7936	153.0571	169.3735	207.473	245.259	351.1156	361.1557	375.5396	480.9366	585.9102	622.3978	633.2533	775.1357	787.3252	843.6578	865.64	904.6763	947.3872	953.3177	1053.2804	1062.4855	1073.1244	1089.7128	1121.8756	1124.4247	1133.0921	1160.1647	1199.5896	1204.7834	1229.1637	1301.2577	1320.9949	1409.006	1454.3144	1469.2543	1491.9889	1494.0289	1505.462	1510.0391	2342.5478	2997.3232	3085.2724	3093.2307	3119.3355	3137.781	3140.8068	3167.9349	3185.2854	3218.0581	3231.9923
CN1CC1(C#N)C1CC1	CN1C[C@]1(C#N)C1CC1	
InChI=1S/C7H10N2/c1-9-5-7(9,4-8)6-2-3-6/h6H,2-3,5H2,1H3	InChI=1S/C7H10N2/c1-9-5-7(9,4-8)6-2-3-6/h6H,2-3,5H2,1H3/t7-,9?/m1/s1
