18
gdb 77532	3.13744	1.30632	1.09048	2.3095	80.92	-0.2435	0.0276	0.2711	1149.7104	0.146367	-401.854629	-401.846059	-401.845115	-401.887326	33.682	
C	-0.0039612006	 1.4476286733	 0.1030492873	-0.515686
C	-0.0272865767	-0.0442034834	-0.0348171898	 0.270352
C	 0.6134548673	-0.9549675808	-1.1130199557	-0.30516
C	 0.0143190477	-1.9062725517	-0.0416624754	 0.203386
N	 0.5098716477	-0.9677716254	 1.0658995496	-0.418814
C	 0.1106145495	-3.3310268136	 0.0494316744	 0.058665
C	 0.1793270008	-4.5301899696	 0.1144921673	-0.360696
C	-1.2694883107	-0.9943950659	-0.0513432847	 0.147467
O	-2.1119678475	-1.0099537234	 1.0430540777	-0.44639
H	 1.0180248445	 1.8251626247	 0.2153803549	 0.122521
H	-0.4444934777	 1.9211464222	-0.7803172558	 0.128979
H	-0.58278186	 1.7546112596	 0.9797710362	 0.136921
H	 0.1690920604	-0.9699866689	-2.113813321	 0.100872
H	 1.7056376533	-0.9421181798	-1.1547354128	 0.102268
H	 1.53434863	-0.9547525618	 1.0639033543	 0.210423
H	 0.2352391519	-5.5888863655	 0.1762861856	 0.182349
H	-1.8672490114	-1.0152418638	-0.963928776	 0.090193
H	-1.5211231784	-1.017442166	 1.8125198739	 0.29235
121.3705	138.65	184.4526	206.859	290.7505	331.1742	366.0054	498.2497	518.0601	536.4388	545.6145	606.2741	617.4204	656.6805	659.9376	690.8848	752.314	809.0766	905.7041	922.0127	964.5168	1020.7211	1062.2745	1091.9356	1116.7846	1141.9531	1163.8345	1183.2525	1219.0646	1236.6917	1278.5356	1332.367	1363.5493	1414.6262	1457.021	1483.6184	1487.1493	1515.7291	2233.8249	3033.4912	3041.6338	3101.2795	3110.4553	3112.4302	3117.0245	3396.6897	3500.8016	3708.6353
CC12CC(N1)(C#C)C2O	C[C@@]12C[C@](N1)(C#C)[C@H]2O	
InChI=1S/C7H9NO/c1-3-7-4-6(2,8-7)5(7)9/h1,5,8-9H,4H2,2H3	InChI=1S/C7H9NO/c1-3-7-4-6(2,8-7)5(7)9/h1,5,8-9H,4H2,2H3/t5-,6-,7+/m0/s1
