19
gdb 36034	3.14422	1.10974	0.93631	2.4525	81.04	-0.2411	0.0349	0.276	1284.7156	0.158856	-381.97433	-381.965335	-381.964391	-382.008336	34.022	
C	-0.0470229213	-1.2748067821	 0.07252421	-0.411603
C	-0.0363325898	-0.0745875231	 0.001270828	 0.271281
C	-0.0058470451	 1.3775538136	-0.1123015831	-0.469442
C	 1.3953676321	 1.9930329987	-0.0182252354	 0.299048
C	 2.4526531808	 1.2992471385	 0.7653306644	-0.272051
N	 2.5093475913	 1.3221771326	-0.7084227236	-0.345477
C	 1.4734051407	 3.495641715	-0.0996394117	-0.01316
C	 0.3582523481	 4.3637934986	-0.5557509571	-0.253694
N	 0.7710616658	 4.3653199728	 0.8604199138	-0.328308
H	-0.0734295014	-2.334320069	 0.1424623619	 0.20347
H	-0.4474337088	 1.6616203061	-1.0763756502	 0.146626
H	-0.6553657375	 1.8134291056	 0.6592831334	 0.13283
H	 3.2182975731	 1.8879460065	 1.2627099836	 0.120273
H	 2.1949371735	 0.3652028345	 1.25509478	 0.125111
H	 2.1938830075	 0.4212361586	-1.0640122275	 0.235503
H	 2.4872766677	 3.8259035612	-0.3116609543	 0.102446
H	 0.5775888861	 5.2800215341	-1.0966481908	 0.120349
H	-0.5919168713	 3.9095465729	-0.821011406	 0.109911
H	 0.1133730085	 3.8197142348	 1.4132540647	 0.226886
67.6036	78.5878	140.379	222.0441	243.6811	340.6303	351.0454	352.0917	415.3746	506.0339	540.6228	622.6307	655.8298	703.4678	812.8376	844.905	853.8058	918.9365	936.3432	944.6892	968.1979	990.9008	996.2764	1023.3609	1069.1293	1117.6433	1140.1738	1161.2423	1185.4239	1241.2325	1250.0166	1267.3708	1291.6255	1297.7836	1336.7099	1369.1276	1439.633	1472.2123	1505.6409	1516.5971	2236.4596	3010.1796	3041.6188	3114.6398	3115.2021	3141.1053	3196.0348	3204.1776	3483.0663	3492.2357	3503.1369
C#CCC1(CN1)C1CN1	C#CC[C@]1(CN1)[C@H]1CN1	
InChI=1S/C7H10N2/c1-2-3-7(5-9-7)6-4-8-6/h1,6,8-9H,3-5H2	InChI=1S/C7H10N2/c1-2-3-7(5-9-7)6-4-8-6/h1,6,8-9H,3-5H2/t6-,7+/m1/s1
