18
gdb 18761	3.80732	2.23181	1.70398	1.6751	70.97	-0.2314	0.0661	0.2975	811.1831	0.155402	-347.754522	-347.748029	-347.747085	-347.78493	26.269	
C	-0.0437140367	 1.4846772806	 0.0729636294	-0.234638
C	 1.5151906754	 1.6030349756	-0.0206589628	-0.345281
C	 1.6115683085	 0.0805535768	 0.1195135938	 0.332001
C	 2.6078365047	-0.9909404887	-0.3346215344	-0.345279
C	 2.1753109618	-1.8706075477	 0.8868805427	-0.234636
C	 1.3518339121	-0.6767823686	 1.4510812627	 0.074534
O	-0.0724264122	-0.7633949213	 1.2316030355	-0.306449
C	 0.0712029076	-0.0642541757	-0.0232903949	 0.074537
H	-0.4719830884	 1.8016802982	 1.0259323643	 0.114718
H	-0.5935207646	 1.9624414375	-0.7411653382	 0.102096
H	 1.8418040967	 1.9526607186	-1.0051839287	 0.105152
H	 2.0229749772	 2.2028818661	 0.7401076834	 0.099208
H	 2.4627414094	-1.4089989621	-1.3349220329	 0.099208
H	 3.6467486688	-0.656246965	-0.2518845129	 0.105151
H	 1.5382744122	-2.7214999941	 0.6374392516	 0.114718
H	 2.9945208741	-2.2133565461	 1.5230962381	 0.102096
H	 1.6051880246	-0.3114398821	 2.4506917858	 0.071433
H	-0.4472767313	-0.5624824719	-0.8478102226	 0.071432
126.6421	201.955	297.2922	349.183	445.4592	499.5653	652.2666	688.4243	737.4271	807.6723	823.3317	849.7694	882.6214	896.5743	924.7687	940.1188	953.531	1029.9083	1034.9884	1097.9155	1106.1457	1135.7324	1165.6229	1177.3417	1201.1453	1208.6755	1222.1674	1237.901	1256.122	1264.8697	1291.2808	1312.4099	1325.8524	1349.807	1467.6084	1467.9981	1488.866	1491.8582	3045.1764	3047.2301	3060.2578	3062.2884	3070.747	3074.1663	3091.2656	3091.5069	3129.9323	3130.041
C1CC23CCC2OC13	C1C[C@@]23CC[C@@H]2O[C@@H]13	
InChI=1S/C7H10O/c1-3-7-4-2-6(7)8-5(1)7/h5-6H,1-4H2	InChI=1S/C7H10O/c1-3-7-4-2-6(7)8-5(1)7/h5-6H,1-4H2/t5-,6-,7-/m0/s1
