17
gdb 27769	2.05871	1.73891	0.94887	4.7048	84.92	-0.1865	-0.0195	0.167	1208.2436	0.136455	-418.058215	-418.049714	-418.04877	-418.09108	32.652	
C	-0.0059582705	 1.5318679957	 0.0057051209	-0.486901
C	-0.0062882975	 0.0282355178	-0.0166031153	 0.338386
C	-0.011639905	-0.6693536808	-1.1821520334	-0.276344
C	-0.007901957	-2.1084097215	-1.2054910954	 0.37818
N	-0.0068639892	-2.8321697661	-2.2499794245	-0.546626
O	-0.0016638323	-2.7374489776	 0.0618526677	-0.268927
C	-0.0055927991	-2.0344959142	 1.2098121122	 0.446921
N	-0.0713749747	-2.8713268378	 2.2974808952	-0.56322
C	 0.0010558351	-0.6770282604	 1.2322412683	-0.352007
H	 0.8777862362	 1.9126443365	 0.5312972055	 0.132804
H	-0.0125712291	 1.9486736273	-1.0035694467	 0.130955
H	-0.8824617372	 1.9126160336	 0.5431654538	 0.134199
H	-0.0156949318	-0.1822178209	-2.1481992605	 0.107356
H	-0.0067153116	-3.8220204421	-2.0061446912	 0.212465
H	 0.2698890277	-3.8065304203	 2.1317924653	 0.264072
H	 0.2229547386	-2.4734700696	 3.1753664096	 0.263911
H	-0.0005820124	-0.1502578798	 2.1774434786	 0.084776
123.7571	142.4019	171.2007	206.2913	285.3964	321.095	353.5833	478.7669	510.0166	524.5259	551.6996	565.2586	621.4185	670.5544	720.0304	761.7184	811.6533	854.0576	862.4411	980.3377	994.5685	1051.6233	1060.8073	1083.8125	1117.2497	1176.7991	1260.3983	1286.6566	1399.4717	1415.9525	1464.0284	1478.8112	1488.3201	1595.887	1640.778	1677.8129	1748.5116	3028.3266	3079.2825	3127.656	3210.1035	3220.3655	3496.7835	3581.7801	3694.9081
CC1=CC(=N)OC(N)=C1	C[C@H]1C=C([NH])OC(=C1)N	
InChI=1S/C6H8N2O/c1-4-2-5(7)9-6(8)3-4/h2-3,7H,8H2,1H3	InChI=1S/C6H9N2O/c1-4-2-5(7)9-6(8)3-4/h2-4,7H,8H2,1H3/t4-/m0/s1
