18
gdb 8323	5.42344	1.28677	1.26962	2.9347	72.07	-0.2388	-0.0181	0.2207	1014.8939	0.153145	-347.803388	-347.79589	-347.794945	-347.835894	28.717	
O	-0.1118568632	 0.3500067196	-1.0465127657	-0.29016
C	-0.0782832881	 1.2761988076	-0.2899138757	 0.40967
C	-1.1559916193	 2.1336910887	 0.3928003152	-0.409717
C	-0.0215842914	 3.1094637973	 0.8446624827	 0.369956
C	-0.1043992779	 4.5687741906	 0.3195615202	-0.276129
C	-0.5990359144	 5.0076610423	 1.7243290743	-0.204812
C	-0.0496945405	 3.6694760584	 2.2889060249	-0.284917
C	 1.0534955504	 2.1156236399	 0.3221038908	-0.431106
H	-1.9338613578	 2.52911667	-0.2674015048	 0.127103
H	-1.6411787697	 1.5997768876	 1.2180898535	 0.127506
H	 0.8892364549	 4.9700166768	 0.0960374622	 0.102347
H	-0.7565731356	 4.7589041049	-0.5375350885	 0.099423
H	-0.1922242053	 5.9339667596	 2.1351103365	 0.100181
H	-1.6901542197	 5.0545564482	 1.7763567987	 0.106465
H	-0.6586910167	 3.13258307	 3.0219249023	 0.096663
H	 0.9608101537	 3.7845101713	 2.6941220323	 0.102702
H	 1.5828538813	 1.5762572231	 1.1164346873	 0.12845
H	 1.7947188492	 2.502025974	-0.3844292162	 0.126376
33.0967	110.5937	256.1339	330.7399	348.7861	402.2387	446.3195	501.694	655.2284	675.2192	722.505	791.7892	844.3906	862.5697	896.5963	908.5377	936.7931	965.0066	994.7084	1071.7369	1079.0904	1113.099	1149.3388	1177.5784	1192.143	1200.3471	1239.4749	1243.8176	1258.0057	1279.9413	1282.4716	1302.3158	1421.0544	1438.889	1474.6512	1484.3692	1505.3017	1893.183	3037.9909	3042.3728	3043.0729	3048.0594	3062.4084	3091.3361	3094.4813	3095.2581	3098.7006	3119.3738
O=C1CC2(CCC2)C1	O=C1CC2(CCC2)C1	
InChI=1S/C7H10O/c8-6-4-7(5-6)2-1-3-7/h1-5H2	InChI=1S/C7H10O/c8-6-4-7(5-6)2-1-3-7/h1-5H2
