16
gdb 20379	4.71015	1.97788	1.43769	2.647	70.05	-0.2202	0.0276	0.2478	845.3569	0.135469	-342.814666	-342.808471	-342.807527	-342.844921	24.25	
C	 0.0250374867	 1.5188258771	-0.057001386	-0.192571
C	 1.5358240676	 1.9210642681	 0.0309285036	-0.351673
C	 2.1093752038	 0.6868542127	 0.651686552	 0.365093
C	 1.2617748152	-0.3941386869	 0.6536059395	 0.221334
C	-0.0544387045	-0.0438654879	 0.0176180151	-0.353164
C	 2.0133235988	-1.4391962964	 1.2283879503	-0.164375
N	 3.2384520986	-1.0266341449	 1.5624151597	-0.22899
N	 3.2780208614	 0.2785004006	 1.1912587029	-0.327409
H	-0.4989742895	 1.9416305585	 0.8053398773	 0.113158
H	-0.4546032296	 1.9196817434	-0.9534508847	 0.101265
H	 1.9639706064	 2.1084593987	-0.9628092421	 0.116171
H	 1.6833306037	 2.8341879083	 0.6171823328	 0.111463
H	-0.9303588285	-0.370852524	 0.5871508633	 0.108143
H	-0.1503881162	-0.4843416624	-0.9834833878	 0.108509
H	 1.7348104213	-2.4643347747	 1.4256463617	 0.105378
H	 4.1189249348	 0.8018267298	 1.3642442624	 0.267669
132.0313	233.6218	249.3372	419.0111	494.1802	566.7661	664.0696	683.6991	714.8526	720.2398	838.212	880.699	900.9798	906.6699	980.183	993.0418	1060.6778	1099.0536	1118.3648	1156.5618	1208.7713	1217.5005	1235.0573	1287.1791	1301.5773	1333.1883	1341.013	1403.0558	1443.9924	1484.6483	1494.0877	1509.3727	1543.113	1608.923	3016.2647	3017.5167	3051.866	3063.5947	3069.4133	3106.0695	3239.3225	3676.1794
C1CC2=C(C1)C=NN2	C1Cc2c(C1)cn[nH]2	
InChI=1S/C6H8N2/c1-2-5-4-7-8-6(5)3-1/h4H,1-3H2,(H,7,8)	InChI=1S/C6H8N2/c1-2-5-4-7-8-6(5)3-1/h4H,1-3H2,(H,7,8)
