19
gdb 110005	2.58192	1.13125	0.86196	4.3692	72.68	-0.2485	-0.0287	0.2199	1324.0247	0.157924	-460.148884	-460.139451	-460.138507	-460.183624	34.405	
O	 0.1206983916	 1.3814561824	-0.1276705564	-0.428093
C	 0.0606290751	-0.0082547778	 0.1209065012	-0.074002
C	-1.3859701131	-0.5093491596	 0.0709124692	-0.074533
C	-1.9750830362	-0.5668407546	-1.3631141415	 0.127076
O	-1.3085098744	 0.2686484836	-2.2922169327	-0.433949
C	-1.6975546626	-2.088922918	-1.4035128382	-0.29465
C	-1.5947044754	-2.070055204	 0.1528744959	-0.088503
C	-0.5190845658	-2.9165043191	 0.7760462478	 0.15734
O	-0.6790421496	-3.6332491263	 1.7311401561	-0.253267
H	-0.2148891053	 1.5018408522	-1.0249580194	 0.292602
H	 0.6958534307	-0.5671779545	-0.5835017852	 0.090223
H	 0.4720099624	-0.1668461916	 1.1240715233	 0.114125
H	-1.9692124608	 0.0676300274	 0.7921487388	 0.092306
H	-3.0522025793	-0.3576557427	-1.3557462595	 0.08233
H	-1.7856207338	 0.2637097324	-3.1271997793	 0.294015
H	-2.4463618861	-2.7463421355	-1.8498256136	 0.11053
H	-0.7238398654	-2.2867380874	-1.8631298495	 0.116647
H	-2.541899621	-2.3133827053	 0.6386221049	 0.096227
H	 0.473614139	-2.8512417416	 0.2726758179	 0.073576
59.1055	81.7091	167.3453	179.6956	199.1306	243.6958	315.1976	345.2428	392.3687	417.7087	446.0282	523.3715	591.0635	685.2631	803.594	852.8634	884.4789	921.4012	970.8697	1014.7064	1055.9484	1079.3152	1095.8558	1108.976	1128.6519	1148.0777	1199.7625	1223.6936	1239.1586	1257.4719	1279.6106	1309.5934	1321.7805	1351.1532	1401.2294	1427.3025	1435.6456	1452.5827	1483.2312	1507.6218	1824.8623	2860.8234	2983.0783	3020.3118	3057.4195	3061.7145	3083.9874	3095.4968	3121.3022	3778.8489	3831.3116
OCC1C(O)CC1C=O	OC[C@H]1[C@@H](O)C[C@H]1C=O	
InChI=1S/C6H10O3/c7-2-4-1-6(9)5(4)3-8/h2,4-6,8-9H,1,3H2	InChI=1S/C6H10O3/c7-2-4-1-6(9)5(4)3-8/h2,4-6,8-9H,1,3H2/t4-,5+,6-/m0/s1
