14
gdb 42570	3.39653	1.6118	1.32798	3.3553	65.97	-0.2559	-0.0235	0.2323	931.6427	0.10094	-436.609128	-436.602591	-436.601647	-436.640116	25.619	
O	 0.0956614278	 0.1024344831	 0.1664254234	-0.321207
C	 0.0496123432	 1.2953834104	 0.1599353836	 0.484178
C	-1.0450106971	 2.318623414	 0.1255287843	-0.191905
C	-0.4610217544	 3.5967698543	 0.6606443308	-0.147308
N	-0.1712292989	 3.2102881966	-0.7523175867	-0.146195
C	 1.0522254597	 2.4192586607	-0.1447989016	-0.265625
C	 0.963248692	 3.3358998218	 1.0691204212	 0.503535
C	 1.9461969781	 4.2588156289	 1.6229504331	-0.279289
O	 1.4860325499	 3.0983768052	 2.349371321	-0.268841
H	-2.1055454115	 2.1950881638	-0.0533040141	 0.131996
H	-1.0987238099	 4.4399367802	 0.9012154473	 0.121536
H	 1.9593571542	 2.25598396	-0.7194150618	 0.118913
H	 2.9804997731	 4.2165495534	 1.2866375459	 0.130876
H	 1.6230016939	 5.2166375078	 2.0278468435	 0.129334
117.9784	207.4337	268.058	358.882	446.4434	493.1425	588.1733	634.4602	718.9961	746.3245	811.2389	829.2035	858.2073	902.9591	928.7575	958.8394	1000.3984	1020.6122	1038.2593	1088.2609	1115.5929	1124.1909	1157.4158	1162.8828	1175.5891	1205.8671	1288.6232	1303.0563	1462.9807	1548.5011	1905.6884	3088.5023	3175.7784	3178.8904	3185.2138	3211.9841
O=C1C2C3N2C1C31CO1	O=C1[C@H]2[C@@H]3N2[C@H]1[C@]13CO1	
InChI=1S/C6H5NO2/c8-3-2-4-6(1-9-6)5(3)7(2)4/h2,4-5H,1H2	InChI=1S/C6H5NO2/c8-3-2-4-6(1-9-6)5(3)7(2)4/h2,4-5H,1H2/t2-,4-,5+,6+,7?/m0/s1
