24
gdb 13498	2.941	1.51036	1.16422	0.062	84.91	-0.2777	0.0785	0.3562	1165.303	0.222938	-314.27398	-314.264494	-314.263549	-314.307511	36.225	
C	-0.2520688272	 1.5163645481	-0.885986827	-0.388986
C	-0.07040072	 0.098279774	-0.3246136763	 0.013018
C	 0.6455912447	 0.1412592857	 1.0333739587	-0.390896
C	-1.4158384568	-0.6204835225	-0.2195212544	 0.079395
C	-2.2883917539	-0.8311810157	-1.4883540722	-0.245053
C	-2.7362864952	-2.1970668089	-0.9056030084	-0.225326
C	-1.50487066	-2.1652222339	 0.0482079008	-0.005099
C	-0.3356130809	-3.0063505243	-0.4619017637	-0.396153
H	 0.7117080981	 2.0262263675	-0.9899110116	 0.106529
H	-0.7311404637	 1.502120068	-1.8700175943	 0.113673
H	-0.8773271632	 2.1232472878	-0.2197236802	 0.108692
H	 0.5640300308	-0.459261917	-1.0279244974	 0.066592
H	 0.0623829401	 0.7187588767	 1.7609537268	 0.109219
H	 0.7922836913	-0.860504713	 1.4490031647	 0.114008
H	 1.6291686358	 0.6152455439	 0.9473894337	 0.107454
H	-2.0210525609	-0.1074097412	 0.5403754693	 0.060504
H	-3.062096313	-0.0900610907	-1.7033089687	 0.092216
H	-1.6733462542	-0.9533282221	-2.386139637	 0.096526
H	-3.6817711372	-2.1187497925	-0.3615603475	 0.095586
H	-2.8027423349	-3.0435224718	-1.5951642595	 0.089374
H	-1.7134658842	-2.435717731	 1.0881340873	 0.060404
H	-0.1114950657	-2.7993187216	-1.5141671889	 0.11365
H	 0.5796673855	-2.8305758603	 0.1123822773	 0.114639
H	-0.5759438951	-4.0724919154	-0.3842900615	 0.110036
93.8857	130.4112	155.59	220.7292	235.9835	252.188	255.9202	307.3894	347.5981	388.5446	445.5901	495.2748	660.0403	755.5057	795.2875	878.6461	887.5559	910.6926	929.3673	949.7662	954.4769	974.1952	993.1519	1022.121	1067.4902	1104.4009	1136.5189	1167.5292	1189.3544	1209.7937	1218.6659	1255.5256	1263.662	1284.6327	1287.8261	1317.522	1352.446	1368.1801	1397.064	1398.5565	1407.9592	1420.3565	1480.5461	1486.5913	1491.1111	1496.4867	1498.72	1501.808	1504.9693	1510.1048	2999.901	3013.5535	3022.0109	3026.8246	3027.2873	3043.0643	3046.228	3055.0448	3085.0694	3090.4672	3091.4618	3092.7445	3095.0487	3100.8309	3102.313	3108.8462
CC(C)C1CCC1C	CC(C)[C@H]1CC[C@H]1C	
InChI=1S/C8H16/c1-6(2)8-5-4-7(8)3/h6-8H,4-5H2,1-3H3	InChI=1S/C8H16/c1-6(2)8-5-4-7(8)3/h6-8H,4-5H2,1-3H3/t7-,8-/m1/s1
