22
gdb 97739	2.74178	0.81311	0.80328	1.6667	93.14	-0.2122	0.0434	0.2556	1638.0131	0.191701	-367.164018	-367.153025	-367.152081	-367.202552	38.658	
C	 0.1409855135	 0.4720093333	 0.7089978002	-0.365801
C	-0.3924791733	 0.6306103437	-0.7266925607	-0.315981
C	 0.3296106562	-0.1834176906	-1.6991940523	 0.065147
C	 0.9400447489	-0.8587123418	-2.4914244378	 0.097865
C	 1.6188257792	-1.6672991118	-3.4672161247	-0.218663
C	 3.0881953984	-1.9814821776	-3.3260018806	 0.013129
C	 3.9216068825	-1.4227548431	-2.1947909497	-0.420699
N	 2.0928047396	-3.0327388225	-3.1555656513	-0.103351
C	 1.8364179729	-3.5895531391	-1.8341548393	-0.311152
H	 0.0625031968	-0.567232436	 1.0398817821	 0.128184
H	 1.1923111365	 0.7668279999	 0.7678955237	 0.127475
H	-0.4317288622	 1.0975995634	 1.4000341732	 0.115547
H	-1.4585688227	 0.3697845203	-0.7508889919	 0.129529
H	-0.3349516773	 1.6860941101	-1.0229727147	 0.129979
H	 1.2142367444	-1.578837873	-4.474180667	 0.105591
H	 3.6390174225	-2.0853618754	-4.2611773446	 0.090084
H	 3.3161268632	-1.1359084739	-1.3335499989	 0.132928
H	 4.6733229546	-2.1499295741	-1.8684068613	 0.120602
H	 4.4537650741	-0.5294999029	-2.5379144289	 0.122929
H	 1.7882805213	-2.8547050153	-1.0202449171	 0.113015
H	 0.8800593376	-4.1209567867	-1.8624570313	 0.124322
H	 2.6205600032	-4.3180554768	-1.604959537	 0.11932
6.5826	71.5443	87.2231	144.822	166.8308	181.8276	199.9577	256.6014	277.1646	349.2697	372.2948	448.4013	483.702	577.5499	592.8358	705.8701	773.2965	785.2215	786.1632	902.685	971.6124	1006.2373	1045.7305	1075.5108	1092.1897	1103.2999	1133.1735	1152.3924	1164.6059	1189.706	1204.5875	1284.4709	1335.7072	1348.2476	1368.802	1400.0836	1407.8214	1418.4821	1451.6374	1476.4482	1482.1776	1488.4195	1494.874	1497.9023	1505.516	1510.0367	2351.6316	3010.8446	3017.5498	3038.6881	3043.8225	3044.0284	3078.7463	3093.3069	3096.3177	3103.4408	3111.8044	3117.3999	3122.1201	3137.9892
CCC#CC1C(C)N1C	CCC#C[C@H]1[C@@H](C)N1C	
InChI=1S/C8H13N/c1-4-5-6-8-7(2)9(8)3/h7-8H,4H2,1-3H3	InChI=1S/C8H13N/c1-4-5-6-8-7(2)9(8)3/h7-8H,4H2,1-3H3/t7-,8+,9?/m1/s1
