16
gdb 19991	3.69403	1.40634	1.14265	4.5971	70.21	-0.25	0.0247	0.2747	1039.0217	0.131634	-342.755463	-342.74791	-342.746966	-342.787916	27.668	
N	-0.0507378841	-1.0615676335	-0.4761890291	-0.342004
C	-0.0060213305	 0.0752401093	-0.2647082124	 0.293878
C	 0.0479652495	 1.4865592626	-0.006268306	-0.177593
C	 0.2329529943	 1.9865159031	 1.4180424267	-0.297816
C	 1.357911535	 2.1395003753	 0.4362602307	-0.02676
C	 2.6090675637	 1.3362619766	 0.5740221644	 0.016774
C	 3.7750523295	 1.617768667	-0.299411565	-0.245324
N	 3.8199379178	 1.9600306191	 1.1339620069	-0.321919
H	-0.5898859423	 2.0747248505	-0.6570187409	 0.136795
H	-0.3390557956	 2.8594849409	 1.7097037766	 0.132417
H	 0.3409333469	 1.2327534352	 2.1896756535	 0.147739
H	 1.5088486777	 3.1356411335	 0.0265858649	 0.098027
H	 2.4558829574	 0.3131233815	 0.9101558541	 0.114709
H	 4.436606043	 0.8108827448	-0.5998670581	 0.130142
H	 3.6823370445	 2.4205844351	-1.0270258237	 0.111798
H	 3.6700530536	 2.9592724491	 1.2566085174	 0.229136
64.6172	110.6882	179.9116	249.1492	288.5647	371.8153	451.7511	560.6208	626.1863	763.3073	780.2252	830.5771	857.2307	890.5717	937.5387	959.9009	978.9098	1007.0928	1073.9597	1086.0133	1120.4934	1124.58	1148.5692	1158.8861	1206.0618	1252.6822	1260.8489	1294.2534	1335.1693	1375.005	1459.5666	1488.4946	1514.7006	2352.416	3108.3444	3130.4211	3141.1305	3145.0906	3171.8043	3195.818	3236.7898	3490.8885
N#CC1CC1C1CN1	N#C[C@H]1C[C@H]1[C@H]1CN1	
InChI=1S/C6H8N2/c7-2-4-1-5(4)6-3-8-6/h4-6,8H,1,3H2	InChI=1S/C6H8N2/c7-2-4-1-5(4)6-3-8-6/h4-6,8H,1,3H2/t4-,5-,6-/m1/s1
