15
gdb 66406	2.3258	1.50063	1.27722	2.3425	72.47	-0.2363	-0.0202	0.2161	1041.0205	0.109795	-420.573132	-420.564664	-420.56372	-420.606137	31.762	
O	-0.0559077366	 1.4492681182	 0.0170214257	-0.44515
C	-0.0057801197	 0.0814361398	-0.0604143408	 0.265412
C	-1.1711202138	-0.9195499813	-0.0381991243	-0.122722
C	-0.489082015	-1.8087419974	-1.0889745598	-0.365216
C	 0.6417427703	-0.7447777915	-1.149178516	 0.352404
O	 1.5483800091	-0.539747681	-1.9014797519	-0.312213
C	-0.2838214609	-0.8017299662	 1.1778685324	-0.29956
C	 0.5791188655	-1.8474934334	 1.6480136222	 0.334365
C	 1.3050131093	-2.7195679143	 2.0476543745	-0.440413
H	 0.7930296822	 1.7716609189	 0.3418150017	 0.304407
H	-2.2268160158	-0.6886431095	 0.0071621723	 0.119749
H	-0.2110051775	-2.8162279222	-0.773620818	 0.139292
H	-1.0172800386	-1.8474772443	-2.0455650004	 0.136602
H	-0.7192467647	-0.1807242511	 1.9578773563	 0.130629
H	 1.9494975464	-3.4868331047	 2.3993923461	 0.202415
86.6493	134.3839	171.9142	187.6988	284.5347	323.2737	368.6362	456.988	476.8072	561.8198	599.8531	630.8169	660.9023	664.6203	687.9179	797.4199	833.5526	894.9125	956.7241	976.6273	1018.2789	1034.5711	1068.3473	1133.553	1179.7536	1212.9121	1272.4898	1302.8821	1335.4651	1437.2393	1468.5911	1889.6193	2233.6334	3071.4558	3130.8765	3138.3978	3212.8027	3502.8908	3794.5721
OC12C(CC1=O)C2C#C	O[C@@]12[C@@H](CC1=O)[C@H]2C#C	
InChI=1S/C7H6O2/c1-2-4-5-3-6(8)7(4,5)9/h1,4-5,9H,3H2	InChI=1S/C7H6O2/c1-2-4-5-3-6(8)7(4,5)9/h1,4-5,9H,3H2/t4-,5+,7+/m1/s1
