15
gdb 128436	4.6185	1.16711	0.93717	1.2096	70.92	-0.2645	-0.0405	0.224	1195.2316	0.114382	-450.129053	-450.121207	-450.120262	-450.162193	27.789	
C	 0.0451726496	 1.2939991363	 0.0082691046	-0.228709
O	-0.0545546704	-0.1342500804	 0.0020127031	-0.220004
C	-1.2934657271	-0.6128048499	 0.0106135214	 0.5671
N	-2.34598875	 0.0809111418	 0.0232309448	-0.570616
N	-1.2597882384	-2.0430110304	 0.0035083608	 0.007708
N	-0.1402248473	-2.7714265375	-0.0087504738	-0.195905
C	-0.5859527956	-4.0210465218	-0.011116496	-0.055658
C	-1.9948702031	-4.0016470212	 0.0001207128	-0.049494
N	-2.4009884607	-2.7400793462	 0.0094790361	-0.21533
H	 1.1136038802	 1.5082575408	-0.0001299065	 0.138773
H	-0.4432613039	 1.7156667057	-0.8737523753	 0.146309
H	-0.4274977559	 1.7067800029	 0.9029952468	 0.146299
H	-3.1679850966	-0.5194725907	 0.027623337	 0.25332
H	 0.0988756007	-4.8541403401	-0.0204836981	 0.137418
H	-2.7040903617	-4.8140094595	 0.0018894024	 0.138789
65.8686	108.9036	173.6866	188.8177	210.62	337.72	426.0261	510.6279	670.1125	674.7804	729.603	802.1866	859.747	866.7674	906.2135	962.1529	977.9901	1001.5204	1084.6978	1121.3839	1182.8237	1194.6575	1219.0256	1292.6823	1300.4562	1320.5067	1410.8626	1436.951	1478.8788	1481.1072	1498.7974	1527.4883	1763.6061	3053.0662	3129.0591	3163.7569	3263.7067	3280.0952	3531.1525
COC(=N)N1N=CC=N1	CO[C]([NH])n1nccn1	
InChI=1S/C4H6N4O/c1-9-4(5)8-6-2-3-7-8/h2-3,5H,1H3	InChI=1S/C4H6N4O/c1-9-4(5)8-6-2-3-7-8/h2-3,5H,1H3
