18
gdb 47715	2.33212	1.83502	1.27749	2.8981	72.83	-0.2598	0.0108	0.2706	1026.6955	0.149177	-439.079922	-439.072048	-439.071103	-439.112584	30.103	
N	 0.1828993157	 0.732977682	 1.2907733455	-0.52781
C	 0.0845059082	-0.1581784148	 0.3978748123	 0.371836
O	 1.1142710426	-0.4944989116	-0.4254232776	-0.254198
C	 0.8286020418	-1.4714277415	-1.4436745009	-0.084126
C	 0.2794368187	-2.7473549677	-0.8144345473	-0.225028
C	-0.9985629773	-2.4340933743	 0.0061539754	-0.283078
C	-1.1832391728	-0.9358073469	 0.1752101069	 0.309685
C	-2.4556373232	-0.3483212012	 0.5864822272	-0.233254
O	-2.0590139917	-0.3091824182	-0.7912700113	-0.278967
H	 1.1137301869	 1.1557941543	 1.2638371798	 0.221538
H	 0.1219799434	-1.0472709183	-2.1666377703	 0.135011
H	 1.7810650981	-1.6431005506	-1.9486196026	 0.118958
H	 0.0749659165	-3.4818270232	-1.5992163423	 0.113177
H	 1.0539755689	-3.1737309594	-0.1692591814	 0.117895
H	-1.8939842487	-2.8176673829	-0.4900604754	 0.121569
H	-0.9426748015	-2.9070497135	 0.9920767045	 0.120749
H	-3.2933678829	-1.0089417923	 0.8061947344	 0.110051
H	-2.4466208226	 0.6065002001	 1.1041439431	 0.145991
79.6694	94.1568	223.7802	294.782	302.2294	337.5016	417.9985	484.5996	532.9648	594.1831	686.4295	725.1722	784.7725	865.3832	878.2054	900.7858	919.5952	944.6575	978.2743	998.157	1066.6123	1104.844	1124.6879	1135.3394	1163.597	1197.9853	1249.002	1259.7316	1282.7666	1320.2926	1339.4662	1370.6434	1413.9059	1444.4031	1469.7452	1492.0817	1513.9296	1522.9187	1754.5539	3042.5526	3046.859	3056.9671	3087.605	3094.8544	3107.62	3117.5396	3199.2518	3458.2007
N=C1OCCCC11CO1	[NH][C]1OCCC[C@]21CO2	
InChI=1S/C6H9NO2/c7-5-6(4-9-6)2-1-3-8-5/h7H,1-4H2	InChI=1S/C6H9NO2/c7-5-6(4-9-6)2-1-3-8-5/h7H,1-4H2/t6-/m1/s1
