20
gdb 70842	3.05593	1.8032	1.46497	1.6161	81.78	-0.2177	0.0896	0.3073	980.7174	0.17106	-365.94059	-365.93299	-365.932046	-365.97189	31.502	
C	-0.0803282067	 1.4606148796	 0.0106737019	-0.498336
C	 0.0154898307	-0.037647017	-0.0468256273	 0.354738
C	 0.2655972939	-0.830695213	-1.3443116434	-0.32692
C	-0.484526033	-1.9487402082	-0.5943340158	 0.354705
C	-1.2578417997	-3.0399054352	-1.2788632608	-0.498316
C	 0.2988894788	-2.2494498539	 0.6993479964	-0.137295
C	-0.647138564	-1.4066039332	 1.5007472701	-0.039428
C	 0.674307069	-0.8164519172	 1.1095221917	-0.137356
N	-1.264081476	-0.877610117	 0.2161432717	-0.24727
H	 0.901177039	 1.9196132763	-0.157322094	 0.114941
H	-0.7703381146	 1.8356989131	-0.7512420954	 0.122953
H	-0.4434271034	 1.788735003	 0.9905019448	 0.122814
H	-0.3305097021	-0.4370023363	-2.1736958236	 0.102467
H	 1.295857058	-1.008825933	-1.6633858559	 0.092909
H	-0.5800002038	-3.7415175053	-1.779391046	 0.114938
H	-1.8547288331	-3.6050394582	-0.5550403651	 0.122809
H	-1.9369703559	-2.6234297229	-2.0289579788	 0.122937
H	 0.875885656	-3.1199558456	 0.9853231654	 0.083687
H	-1.1555370416	-1.544092415	 2.4465107753	 0.091332
H	 1.5416917685	-0.578880311	 1.7125942487	 0.083691
207.6929	214.2693	220.1206	251.8408	287.3248	348.328	421.4972	567.0317	579.4073	608.0646	742.3949	789.3846	796.1468	824.1806	838.0301	847.3874	853.3491	905.3582	910.5551	957.0071	990.3502	1007.5726	1016.1788	1039.5758	1045.8662	1054.9672	1096.1107	1150.3732	1167.562	1191.3296	1200.7431	1252.5988	1256.5349	1320.5582	1321.3827	1367.9477	1409.849	1415.7385	1478.0084	1483.0359	1484.5914	1489.8069	1491.0589	3027.0997	3027.3373	3050.6357	3093.0535	3093.1169	3106.0031	3106.6157	3112.2544	3182.2602	3185.3044	3201.7824
CC12CC3(C)C4C(C14)N23	C[C@@]12C[C@@]3(C)[C@@H]4[C@@H]([C@H]14)N23	
InChI=1S/C8H11N/c1-7-3-8(2)5-4(7)6(5)9(7)8/h4-6H,3H2,1-2H3	InChI=1S/C8H11N/c1-7-3-8(2)5-4(7)6(5)9(7)8/h4-6H,3H2,1-2H3/t4-,5+,6-,7-,8+
