20
gdb 95562	2.40006	1.57576	1.01868	2.8619	82.69	-0.2167	0.0008	0.2175	1189.7861	0.173161	-403.203687	-403.195155	-403.194211	-403.2368	32.923	
C	-0.3915947998	 1.4134494992	 0.0618240765	-0.390047
C	 0.0663951898	-0.0468335465	 0.0295928981	-0.096611
C	 0.8200917487	-0.4012289456	-1.2757892339	-0.217881
C	 0.6222842641	-1.8527240635	-1.7169310748	-0.270654
C	 0.9665361884	-2.9033376812	-0.7015914025	-0.068891
C	 1.3031943687	-2.7751843831	 0.5853773983	 0.003518
N	 1.410639469	-1.6353277355	 1.3891162702	-0.335903
C	 0.9206746631	-0.3499890386	 1.2554720442	 0.404524
O	 1.1789581423	 0.4770338425	 2.1099791934	-0.365457
H	 0.4619818529	 2.0906020654	-0.0344484978	 0.127267
H	-1.0833364505	 1.6079913732	-0.763467783	 0.102247
H	-0.8889897309	 1.6504976398	 1.0041478157	 0.130064
H	-0.816967937	-0.6993411495	 0.0913514276	 0.09909
H	 0.4603971438	 0.2549839128	-2.075221473	 0.103781
H	 1.887788571	-0.1811466733	-1.1576317865	 0.111554
H	-0.4245493652	-1.9902712098	-2.0291266702	 0.109724
H	 1.2136350931	-2.0378163743	-2.6244872758	 0.107872
H	 0.933609179	-3.9268218682	-1.0650310001	 0.090017
H	 1.544648923	-3.6737235262	 1.1452595949	 0.105778
H	 1.9123562165	-1.7478641778	 2.2585823487	 0.250011
73.6862	131.5609	209.1946	224.7437	291.6961	315.9586	349.505	387.318	449.2388	536.0788	596.3177	618.5492	702.934	741.9622	763.8285	826.6973	845.1601	897.9856	936.2977	969.466	972.7796	1045.4012	1078.9681	1099.5241	1127.2077	1135.9381	1193.4214	1243.5109	1268.9245	1308.3198	1322.0306	1360.6697	1385.2061	1406.1018	1414.6092	1453.9783	1475.4738	1489.0523	1490.8433	1492.29	1499.9261	1743.416	1776.563	2987.718	3001.7752	3018.2615	3038.4411	3046.5953	3074.7191	3114.8752	3134.575	3155.7326	3179.0161	3604.6706
CC1CCC=CNC1=O	C[C@H]1CCC=CNC1=O	
InChI=1S/C7H11NO/c1-6-4-2-3-5-8-7(6)9/h3,5-6H,2,4H2,1H3,(H,8,9)	InChI=1S/C7H11NO/c1-6-4-2-3-5-8-7(6)9/h3,5-6H,2,4H2,1H3,(H,8,9)/t6-/m0/s1
