19
gdb 76778	2.22072	1.63648	1.06185	3.9814	79.6	-0.2249	0.0212	0.2461	1173.4659	0.157561	-419.176886	-419.16738	-419.166435	-419.211469	34.089	
C	-0.4424961824	 1.3612216156	-0.0693361203	-0.412863
C	 0.0319391288	-0.0787212405	 0.0364492565	-0.024947
N	 1.2674043453	-0.4077122378	-0.7046412451	-0.107489
C	 1.4357103853	-0.6477245104	-2.1122463481	-0.348722
C	 1.9309974917	-0.9722559767	 0.3812819685	 0.307394
N	 3.00792548	-1.6038156044	 0.5865979324	-0.567585
C	 0.8080888417	-0.5307421413	 1.2945412579	 0.347345
C	 0.8408471065	-0.0126594672	 2.6607863332	-0.259445
O	 0.2673539544	-1.2909330336	 2.3464797945	-0.26068
H	 0.363436916	 2.0556824244	 0.1854282415	 0.124001
H	-0.7872200225	 1.5903567053	-1.0832879014	 0.121789
H	-1.2838554687	 1.5349535262	 0.6095223897	 0.128359
H	-0.7871815071	-0.7782942201	-0.1858910342	 0.090206
H	 1.1582052207	 0.2381446575	-2.6928810495	 0.134055
H	 2.4892083822	-0.8622641618	-2.3147603602	 0.137901
H	 0.8365098176	-1.4988739711	-2.4698832744	 0.12521
H	 3.5264905019	-1.7738288541	-0.276770446	 0.208988
H	 1.7764905991	-0.047671788	 3.215117001	 0.13834
H	 0.1308733896	 0.7546708884	 2.965841954	 0.118145
81.2856	83.9136	113.5372	195.1375	214.0829	232.8274	247.3534	266.6751	322.3346	479.6854	520.9568	575.091	696.5176	730.0607	788.6344	818.103	852.4003	909.4599	955.727	965.6572	1060.0637	1068.061	1115.3929	1128.7825	1147.4731	1157.9031	1158.7588	1216.9558	1223.2311	1283.8316	1376.5773	1401.9276	1410.435	1449.3974	1455.4995	1481.9844	1489.8703	1496.3485	1511.3959	1537.0395	1791.463	2988.9297	2999.8124	3034.7649	3067.6032	3088.378	3101.2135	3108.4276	3116.3754	3182.9082	3461.0276
CC1N(C)C(=N)C11CO1	C[C@H]1N(C)[C]([NH])[C@]21CO2	
InChI=1S/C6H10N2O/c1-4-6(3-9-6)5(7)8(4)2/h4,7H,3H2,1-2H3	InChI=1S/C6H10N2O/c1-4-6(3-9-6)5(7)8(4)2/h4,7H,3H2,1-2H3/t4-,6-/m1/s1
