23
gdb 75600	2.25555	1.49136	1.04999	1.0455	88.51	-0.2254	0.0283	0.2538	1250.1429	0.207166	-388.299422	-388.290447	-388.289503	-388.332611	35.231	
C	 0.0693560443	 1.5536138299	-0.016649644	-0.476929
C	 0.0612420555	 0.0482482479	 0.0203165232	 0.360829
C	 0.0007974846	-0.6879116341	-1.0931116834	-0.140426
C	-0.031765592	-2.196986487	-1.1637106191	-0.259883
C	-1.4081631194	-2.8408279359	-0.8852666464	-0.177275
C	-1.8909847372	-2.7848509586	 0.5683144344	-0.06712
O	-2.2462533269	-1.4750721731	 0.9825925429	-0.235563
C	-1.3860758993	-0.8472259375	 1.9071306168	-0.061861
C	 0.0472481077	-0.5924031794	 1.3866298632	-0.332932
H	 0.9737943402	 1.9574957247	 0.4573760553	 0.118058
H	 0.0235733177	 1.9338138199	-1.0406860257	 0.118446
H	-0.7824027339	 1.97211888	 0.5357258949	 0.122549
H	-0.0441223826	-0.1685129844	-2.0489911953	 0.07277
H	 0.2898948203	-2.505719741	-2.1645441235	 0.095037
H	 0.7010664743	-2.6306617307	-0.4692573163	 0.09873
H	-2.1709154104	-2.370478365	-1.5167705738	 0.106818
H	-1.3669463735	-3.8999905947	-1.1740566339	 0.087101
H	-2.7926267479	-3.4050550919	 0.6610899578	 0.098412
H	-1.1351451714	-3.2176965708	 1.2411548387	 0.085209
H	-1.8724798782	 0.105774637	 2.1415080361	 0.106781
H	-1.3259643073	-1.4268838795	 2.8431888365	 0.085083
H	 0.5913282327	-1.5426465003	 1.3682992388	 0.103243
H	 0.5559274527	 0.0414945545	 2.1238257727	 0.092923
112.0999	164.7158	168.8643	202.8241	232.4862	297.4816	361.0825	368.4351	394.2405	464.965	489.1423	541.0766	615.4068	736.3415	782.3788	839.2376	853.4632	879.9782	930.2549	956.9085	976.2141	994.3062	1032.5691	1063.3784	1074.9801	1092.9444	1119.0705	1148.951	1199.7739	1224.765	1256.3815	1274.8144	1288.4749	1319.5908	1342.478	1358.329	1375.4509	1392.2885	1402.1503	1413.0276	1423.0205	1470.8414	1476.162	1480.8173	1490.4488	1493.8014	1495.5207	1508.5932	1735.0867	2966.3645	2987.817	3007.6549	3009.9496	3015.104	3030.7287	3034.7163	3053.4779	3057.9429	3060.1118	3070.2997	3080.6102	3108.9514	3135.8181
CC1=CCCCOCC1	CC1=CCCCOCC1	
InChI=1S/C8H14O/c1-8-4-2-3-6-9-7-5-8/h4H,2-3,5-7H2,1H3/b8-4-	InChI=1S/C8H14O/c1-8-4-2-3-6-9-7-5-8/h4H,2-3,5-7H2,1H3/b8-4-
