18
gdb 30100	3.65129	1.1841	1.16863	2.5407	79.02	-0.2012	0.0386	0.2398	1141.6184	0.149606	-398.143761	-398.135717	-398.134773	-398.176857	30.565	
C	-0.2417568544	 1.5263779401	-0.2146175223	-0.416029
C	-0.1644515851	 0.0394341007	 0.0274167708	 0.006404
C	 1.0718413465	-0.7272348763	-0.2718270376	-0.240526
N	 0.6775186031	-0.5245662225	 1.1232202859	-0.213108
C	 1.4702152041	 0.3378962753	 1.8849732433	 0.423138
N	 2.6093802355	 0.9142710102	 1.5668545716	-0.308708
C	 2.991325751	 1.6131435594	 2.6938275467	-0.09325
C	 2.0734069433	 1.4594478302	 3.6947132437	-0.11285
N	 1.0991296496	 0.6366214515	 3.163170072	-0.292989
H	 0.7384257466	 1.9961723771	-0.1075242488	 0.15276
H	-0.6099460681	 1.7189748607	-1.2278165189	 0.12264
H	-0.9334401437	 2.0059917506	 0.4869639053	 0.118799
H	-1.1125013173	-0.488576432	-0.0538624501	 0.093819
H	 1.0136908775	-1.7565666323	-0.6146555785	 0.115242
H	 1.937433333	-0.1671568626	-0.6129891648	 0.150157
H	 3.9064296186	 2.1851984291	 2.7134954859	 0.104546
H	 2.0166676532	 1.8377189061	 4.7014741395	 0.124783
H	 0.2900926367	 0.2650558647	 3.6312345662	 0.265173
47.5297	118.8032	189.8518	223.7449	292.2873	371.1679	451.177	503.0132	542.6064	613.6463	646.5677	710.0604	752.5344	791.4508	845.8278	854.8992	913.3476	930.9274	982.1228	1021.9822	1049.7426	1090.241	1129.1415	1133.9509	1140.129	1162.3103	1197.3253	1200.6519	1243.3717	1320.0743	1393.3144	1397.9577	1425.3777	1468.5693	1490.811	1499.4392	1506.1149	1522.8447	1582.8251	3035.2998	3093.9973	3113.7203	3120.5192	3138.5276	3207.9504	3247.5881	3281.8171	3672.099
CC1CN1C1=NC=CN1	C[C@H]1CN1c1ncc[nH]1	
InChI=1S/C6H9N3/c1-5-4-9(5)6-7-2-3-8-6/h2-3,5H,4H2,1H3,(H,7,8)	InChI=1S/C6H9N3/c1-5-4-9(5)6-7-2-3-8-6/h2-3,5H,4H2,1H3,(H,7,8)/t5-,9?/m0/s1
