18
gdb 113613	3.57811	0.66641	0.59374	4.3301	87.63	-0.2622	-0.0612	0.2011	1854.6412	0.145745	-401.902614	-401.892745	-401.891801	-401.939028	33.926	
C	 0.2798975237	 1.5539787963	 0.0987466927	-0.380028
C	-0.254681877	 0.1506613774	-0.2080732964	-0.19063
C	 0.5079596554	-0.5069385667	-1.3333797099	 0.017751
N	 1.787060987	-1.1256032304	-0.9960640923	-0.313758
C	 0.6742148239	-1.9985542334	-1.4544643196	-0.284931
C	 0.1124953315	-2.910213536	-0.5049858924	 0.187746
C	-0.3927240554	-3.6990265976	 0.2600000686	 0.036161
C	-0.9658076342	-4.6136650742	 1.2096908856	 0.018447
O	-1.6185670384	-5.5904921363	 0.9176536497	-0.233196
H	 1.3351703827	 1.5091520731	 0.3846979949	 0.132184
H	 0.1935528681	 2.2141786257	-0.771583925	 0.112621
H	-0.2759104803	 2.0140152121	 0.9207646486	 0.118659
H	-0.1827621747	-0.481364609	 0.6820650517	 0.117813
H	-1.3159477945	 0.2001098305	-0.4814482621	 0.105407
H	 0.4432961565	 0.0089170214	-2.2921260293	 0.094617
H	 2.4580852022	-1.0221442153	-1.7530874736	 0.241581
H	 0.729678702	-2.3856239605	-2.4695233106	 0.120557
H	-0.7599498086	-4.3511008471	 2.2676333993	 0.098998
43.7378	64.7287	90.1782	111.0321	170.0457	223.6814	236.4466	259.5328	386.9818	434.6574	504.7647	584.9907	639.2447	766.0421	782.5593	827.2302	880.1388	903.6821	950.5863	1019.9847	1028.2758	1031.093	1090.9108	1129.1795	1154.3109	1208.0556	1230.5731	1264.5619	1305.3885	1345.2946	1408.3044	1412.1444	1421.8348	1460.8556	1478.4372	1500.1606	1508.2235	1762.8428	2320.1131	2915.9863	3034.9068	3037.4199	3083.0633	3099.775	3110.1167	3116.3094	3131.8821	3504.5367
CCC1NC1C#CC=O	CC[C@H]1N[C@H]1C#CC=O	
InChI=1S/C7H9NO/c1-2-6-7(8-6)4-3-5-9/h5-8H,2H2,1H3	InChI=1S/C7H9NO/c1-2-6-7(8-6)4-3-5-9/h5-8H,2H2,1H3/t6-,7+/m1/s1
