17
gdb 37896	3.08508	2.15682	1.71092	1.7183	69.82	-0.2335	0.0623	0.2959	826.5536	0.138512	-421.743417	-421.737547	-421.736602	-421.773292	25.512	
C	 0.018764444	 1.5508766015	 0.0359688359	-0.209541
C	 1.5543812908	 1.9682074407	 0.0307443169	-0.363099
C	 2.1264299023	 0.5765177209	-0.0074527982	 0.419393
O	 3.3347312007	-0.1613245419	-0.382944055	-0.387692
C	 2.2897322175	-1.2092147233	-0.1272208669	-0.028453
C	 1.831405261	-0.4318095928	 1.1331333624	 0.066881
O	 0.4383130538	-0.4706820475	 1.3326052038	-0.27889
C	-0.0126883583	-0.014642844	 0.0328764234	 0.035948
C	 1.2055448583	-0.3540630581	-0.8316010919	-0.080123
H	-0.5112875937	 1.9334110615	 0.910600771	 0.119553
H	-0.4808762876	 1.9362968809	-0.8582835694	 0.108952
H	 1.808271457	 2.5567168935	-0.8547451145	 0.118459
H	 1.8316763204	 2.5409848365	 0.9189502962	 0.116765
H	 2.6003479922	-2.2417827374	-0.2806833864	 0.094342
H	 2.4064040264	-0.4529049375	 2.0560463635	 0.098099
H	-0.9900324208	-0.4459866567	-0.1842699387	 0.082
H	 1.1818044261	-0.2533186463	-1.914556442	 0.087407
209.8878	351.2349	395.3538	472.6177	483.226	607.1627	687.0591	724.1213	744.252	786.3663	800.562	839.182	852.0125	895.6796	914.3937	936.7806	956.7455	974.0399	1003.3322	1029.2663	1035.1334	1081.6782	1083.9198	1142.4177	1161.709	1197.5981	1202.4275	1231.8787	1242.3546	1257.9435	1262.7327	1301.2178	1313.4183	1345.2007	1395.598	1470.9287	1502.501	3056.3859	3066.271	3105.4624	3116.6292	3124.352	3127.2144	3150.3129	3161.3558
C1CC23OC4C2OC1C34	C1C[C@@]23O[C@H]4[C@@H]2O[C@@H]1[C@@H]34	
InChI=1S/C7H8O2/c1-2-7-4-3(1)8-6(7)5(4)9-7/h3-6H,1-2H2	InChI=1S/C7H8O2/c1-2-7-4-3(1)8-6(7)5(4)9-7/h3-6H,1-2H2/t3-,4+,5+,6-,7-/m0/s1
