18
gdb 78405	2.55782	1.73064	1.43318	3.0196	75.69	-0.2287	-0.0354	0.1933	978.8334	0.147292	-401.882347	-401.874567	-401.873623	-401.914488	30.412	
C	-0.3731678325	 1.4526426705	 0.2809550889	-0.446922
C	 0.0200297586	 0.0190708967	-0.0017668991	 0.033636
C	 0.5872926204	-0.6531413718	-1.1915401401	-0.073387
C	 1.7478536034	 0.0212563485	-1.9425073094	-0.03835
C	 1.773085712	 1.5555828663	-2.1682336859	-0.380318
C	 2.4397214424	 1.6943145435	-0.7694612592	 0.386103
O	 2.8951479166	 2.6161814564	-0.1596898773	-0.295958
C	 2.4508664493	 0.1535217629	-0.5711696792	-0.087234
N	 1.3460610503	-0.6165430119	 0.1554533688	-0.176726
H	 0.2838789792	 2.2128754826	-0.1314367442	 0.149077
H	-1.3808245388	 1.6309232313	-0.1103240175	 0.124989
H	-0.4062789491	 1.6055715116	 1.3647140756	 0.136494
H	-0.6898359066	-0.6534423385	 0.4843425036	 0.10733
H	 0.1573842631	-1.5879020883	-1.5418717951	 0.098661
H	 2.175500672	-0.5973757533	-2.7287246451	 0.088677
H	 2.4716345862	 1.856117477	-2.9567650508	 0.136374
H	 0.8300657384	 2.081914979	-2.3284919551	 0.132774
H	 3.4200224351	-0.2843244126	-0.3281902788	 0.104778
96.2306	161.8361	183.7078	247.582	292.1243	411.0906	428.6841	524.7566	607.343	626.4407	652.7167	692.8621	750.4712	837.9369	856.9538	871.8828	906.2171	925.7141	995.8918	1028.4679	1041.4051	1051.4129	1085.5591	1099.4676	1123.1939	1155.3894	1163.8029	1218.717	1232.2087	1252.4785	1285.2198	1315.1604	1373.6534	1420.1084	1436.0656	1451.8105	1493.1334	1503.4694	1879.8183	3044.4512	3056.7286	3084.6451	3098.1865	3104.1551	3117.4251	3131.4626	3144.9158	3190.8878
CC1C2C3CC(=O)C3N12	C[C@H]1[C@H]2[C@H]3CC(=O)[C@H]3N12	
InChI=1S/C7H9NO/c1-3-6-4-2-5(9)7(4)8(3)6/h3-4,6-7H,2H2,1H3	InChI=1S/C7H9NO/c1-3-6-4-2-5(9)7(4)8(3)6/h3-4,6-7H,2H2,1H3/t3-,4+,6-,7-,8?/m0/s1
