17
gdb 105709	2.46691	1.19844	0.99726	5.4662	65.66	-0.2678	-0.0044	0.2634	1225.2042	0.133522	-496.085241	-496.075909	-496.074965	-496.120523	32.658	
O	 0.3971241478	 1.3093533821	 0.0716077603	-0.414257
C	 0.1494184953	-0.0647757253	-0.1277735857	-0.122896
C	-1.3271606651	-0.4206925327	-0.188488355	 0.369953
C	-2.1178211623	 0.1079443938	-1.3656192969	-0.177183
O	-2.0164788149	 1.5390818177	-1.4677985194	-0.202926
C	-2.8975485296	 2.2753612553	-0.7413752478	 0.184786
O	-2.8347060954	 3.4639557825	-0.6942237207	-0.265864
C	-1.8237546816	-1.6333275564	 0.4796080588	-0.226095
O	-2.0344488058	-0.3459248013	 1.0579610048	-0.259948
H	-0.0269957614	 1.8010264016	-0.6409266936	 0.301206
H	 0.6380060054	-0.4452743338	-1.041618818	 0.088908
H	 0.5980960016	-0.5821399666	 0.7251615781	 0.116876
H	-1.7234177818	-0.2775659925	-2.30968317	 0.134618
H	-3.1683441557	-0.189409002	-1.2749949588	 0.124555
H	-3.6547179026	 1.6540436592	-0.2315766641	 0.104533
H	-2.7154169694	-2.1355409334	 0.1055141885	 0.117234
H	-1.1207776246	-2.2756544084	 1.0073931595	 0.126501
50.4555	60.994	111.5375	134.2179	230.4119	281.9301	309.296	339.8489	378.6932	450.827	472.3927	527.5491	673.1153	766.7413	877.7711	893.5985	945.4588	980.156	1022.7386	1035.3754	1058.2125	1086.5378	1120.7565	1131.6493	1171.3759	1216.6066	1288.5559	1319.0994	1370.8986	1375.8564	1413.0937	1430.7998	1457.6991	1481.0008	1491.7341	1531.0145	1873.9576	2957.6791	2991.7187	3046.0391	3083.6276	3087.5652	3107.3967	3170.5911	3802.9062
OCC1(COC=O)CO1	OC[C@@]1(COC=O)CO1	
InChI=1S/C5H8O4/c6-1-5(3-9-5)2-8-4-7/h4,6H,1-3H2	InChI=1S/C5H8O4/c6-1-5(3-9-5)2-8-4-7/h4,6H,1-3H2/t5-/m1/s1
