12
gdb 33368	4.56407	0.52953	0.47586	4.6165	94.02	-0.264	-0.054	0.21	2090.451	0.075426	-361.139452	-361.130489	-361.129545	-361.174226	31.034	
C	-0.0527896959	-3.8093362709	-0.0178680965	-0.531955
C	-0.0275715315	-2.6027529825	-0.0116306154	 0.297609
C	 0.000502744	-1.2423100455	-0.0045933814	-0.262728
C	 0.0254551505	-0.0344940417	 0.0016540992	 0.422673
C	 0.0445370329	 1.4255086929	 0.0093134385	-0.548448
C	 1.395444883	 1.9830845829	-0.0006062324	 0.130442
C	 2.5076822971	 2.4501079503	-0.0087252309	 0.029928
C	 3.7659024221	 2.9813195899	-0.0178741042	 0.219831
N	 4.8346223613	 3.4357300409	-0.0256293749	-0.331223
H	-0.0733211131	-4.8712140948	-0.0233722756	 0.201104
H	-0.5071985066	 1.8112734623	-0.860039909	 0.186383
H	-0.4904421739	 1.8018558264	 0.8931460926	 0.186384
41.6347	130.1027	132.5004	151.9425	210.5912	326.968	345.0338	350.982	453.0445	539.1878	547.3011	576.0744	576.206	605.1	613.3487	723.3186	743.4423	921.4782	1148.1507	1186.033	1224.778	1336.8661	1437.3404	2188.6156	2272.876	2375.9545	2410.3535	3005.0652	3031.9053	3502.2081
C#CC#CCC#CC#N	C#CC#CCC#CC#N	
InChI=1S/C8H3N/c1-2-3-4-5-6-7-8-9/h1H,5H2	InChI=1S/C8H3N/c1-2-3-4-5-6-7-8-9/h1H,5H2
