23
gdb 96324	2.15877	1.4093	0.94627	1.177	81.73	-0.2426	0.0776	0.3203	1312.123	0.206609	-425.435706	-425.426398	-425.425454	-425.469284	36.386	
C	 0.6254729748	 1.4586270901	 0.2347607202	-0.395283
C	-0.1490581278	 0.1910145164	-0.1351139747	 0.125378
C	 0.3993700111	-0.4584733827	-1.4144751085	-0.215661
C	-0.1069050019	-1.878611167	-1.6875769632	 0.132849
O	 0.0006064975	-2.0612360849	-3.0999764595	-0.445305
C	 0.7116080482	-2.9511118864	-0.9525581849	-0.216959
C	 0.5975371529	-2.9391912678	 0.5776934004	-0.199
C	 0.8385941184	-1.574279498	 1.2281639843	-0.077405
O	-0.245161227	-0.6923247346	 0.9835625675	-0.264233
H	 1.6741612464	 1.2305913459	 0.4551183929	 0.114018
H	 0.607377482	 2.1800609374	-0.5889271185	 0.113541
H	 0.1834936363	 1.9268944462	 1.1181777273	 0.120186
H	-1.1949719633	 0.466403333	-0.3205927248	 0.084655
H	 0.1030346213	 0.1689653111	-2.2613172159	 0.113082
H	 1.4965349597	-0.4632665408	-1.4095811455	 0.094701
H	-1.1631544506	-1.9493059854	-1.378598381	 0.069159
H	-0.2403453691	-2.9717209137	-3.2986979191	 0.276447
H	 0.4002680351	-3.9398346238	-1.3179248087	 0.079383
H	 1.7601373539	-2.8285463964	-1.2546798188	 0.101291
H	-0.4032888264	-3.2686831151	 0.8822905212	 0.106197
H	 1.3086703256	-3.663968211	 0.9938704274	 0.091549
H	 0.8944000055	-1.6940643758	 2.3162764513	 0.101564
H	 1.7978352375	-1.1451052668	 0.9044535807	 0.089847
97.5965	150.0448	187.111	229.3906	252.3657	294.7615	314.4192	319.002	370.6777	416.7837	469.2718	491.2247	523.0761	574.487	777.0354	840.4726	856.3676	886.9411	922.2737	932.6295	967.7965	994.9044	1039.341	1066.1912	1071.6264	1094.4597	1118.3317	1153.0916	1174.1907	1227.5642	1238.7485	1253.4327	1282.4163	1309.0684	1324.4444	1344.8009	1375.4364	1385.8898	1394.2282	1397.8172	1405.2428	1413.331	1438.0731	1473.0263	1482.0093	1487.7097	1491.4687	1496.5975	1510.3719	2961.8255	3000.1807	3002.9219	3022.469	3024.5192	3032.093	3037.5782	3044.2877	3057.7065	3070.4233	3082.3687	3102.8334	3119.2392	3814.6625
CC1CC(O)CCCO1	C[C@H]1C[C@@H](O)CCCO1	
InChI=1S/C7H14O2/c1-6-5-7(8)3-2-4-9-6/h6-8H,2-5H2,1H3	InChI=1S/C7H14O2/c1-6-5-7(8)3-2-4-9-6/h6-8H,2-5H2,1H3/t6-,7-/m0/s1
