23
gdb 85848	2.26374	1.42058	1.14022	1.4909	88.55	-0.2245	0.0256	0.2501	1246.9231	0.203058	-388.321942	-388.311645	-388.310701	-388.356584	38.998	
C	 0.2412726613	 1.5764413658	-0.1334853373	-0.387709
C	-0.0190961529	 0.0847129363	 0.0810695855	 0.081105
O	 0.4732450942	-0.6620086074	-1.035396814	-0.317848
C	 1.3430097226	-1.7270419779	-0.6116258649	 0.282846
C	 0.6815893388	-3.0691721234	-0.9675574384	-0.411292
C	 2.6807253434	-1.5699395934	-1.3487327742	-0.411024
C	 1.4653673483	-1.5273689188	 0.8923513147	 0.305106
C	 2.3357336438	-2.3855603841	 1.7548501184	-0.50202
C	 0.686359569	-0.516117017	 1.2646048259	-0.227972
H	 1.3158992755	 1.7751600018	-0.1827503917	 0.115287
H	-0.2178446907	 1.9071970913	-1.0696164577	 0.122686
H	-0.1873907899	 2.1642191074	 0.6854904987	 0.107358
H	-1.1103615205	-0.0667096061	 0.157338367	 0.073528
H	 0.5018848865	-3.1185621628	-2.0455798196	 0.120835
H	 1.3171002953	-3.916046253	-0.6884144567	 0.107867
H	-0.2779066043	-3.1705319253	-0.4528039571	 0.116065
H	 3.1513122157	-0.6177725683	-1.0890966173	 0.115351
H	 3.3715335013	-2.3822231785	-1.1004736475	 0.108264
H	 2.5105422569	-1.5859577393	-2.429267426	 0.122047
H	 3.3879286274	-2.3222585505	 1.4519951273	 0.130835
H	 2.2692490809	-2.0881881056	 2.8045413833	 0.12551
H	 2.0529978357	-3.443019179	 1.6848025539	 0.130017
H	 0.5546250716	-0.1491932321	 2.2760821775	 0.093159
60.6178	134.7901	178.4948	201.8153	226.4537	228.3169	253.1144	264.0317	297.4999	344.2267	386.5804	454.1266	480.0076	577.8688	596.1627	670.1745	734.1606	841.4309	845.5201	890.436	918.2604	938.5002	988.9351	1001.9702	1013.7703	1054.1914	1067.9198	1103.2599	1131.7381	1162.6123	1193.7199	1199.6991	1252.5691	1337.3487	1341.251	1376.646	1387.5947	1398.0628	1406.7362	1415.2916	1471.9243	1479.6771	1484.9605	1486.8511	1489.3433	1494.0081	1498.1026	1503.7196	1732.3487	2937.9562	3023.5631	3033.9889	3034.6852	3040.1345	3071.2018	3105.8187	3107.7027	3111.7623	3114.7445	3116.7076	3118.7267	3120.054	3198.1939
CC1OC(C)(C)C(C)=C1	C[C@H]1OC(C)(C)C(=C1)C	
InChI=1S/C8H14O/c1-6-5-7(2)9-8(6,3)4/h5,7H,1-4H3	InChI=1S/C8H14O/c1-6-5-7(2)9-8(6,3)4/h5,7H,1-4H3/t7-/m1/s1
