17
gdb 41666	3.09972	2.02372	1.51014	0.8612	79.75	-0.2	-0.0222	0.1778	883.7323	0.138497	-384.642173	-384.635884	-384.634939	-384.672419	26.769	
C	 0.0212681377	 1.4517439206	 0.094184597	-0.116888
O	 1.4253903708	 1.8903081094	 0.0462735064	-0.26105
C	 1.9651703302	 1.6803999555	-1.2157988573	 0.106299
C	 2.8718661483	 0.4949292923	-1.7535993043	-0.126643
C	 3.0711842092	-0.8403456815	-1.1173267226	-0.071236
C	 1.9012253848	-1.4574416863	-0.8615155448	-0.159959
C	 0.8403900891	-0.455468665	-1.0828923282	 0.185886
C	 0.0038855756	-0.0384094837	-0.114788052	-0.159495
C	 1.3905837157	 0.5819035411	-2.0356737187	-0.206396
H	-0.335127868	 1.7254302498	 1.0884624832	 0.117577
H	-0.5434438398	 2.0248078618	-0.650858506	 0.110406
H	 2.2108765635	 2.613519104	-1.7242116872	 0.091009
H	 3.6040678136	 0.8418999765	-2.4758120398	 0.088749
H	 4.05082551	-1.2347502664	-0.8755822239	 0.104686
H	 1.7730611528	-2.3852149683	-0.3178147006	 0.10608
H	-0.2683875556	-0.6840976246	 0.7147492598	 0.094884
H	 0.9445548822	 0.7278716348	-3.0145577109	 0.096091
188.9811	258.1377	351.1449	413.9753	506.2759	529.6534	624.81	669.2976	698.3339	760.3047	788.7483	798.7305	808.8195	821.9952	853.365	882.578	927.4762	969.9399	981.3419	1017.282	1044.0885	1055.7865	1066.7042	1106.4134	1118.6601	1169.0397	1206.2237	1249.5861	1280.5987	1321.359	1336.4809	1356.8655	1365.2122	1400.1907	1488.2536	1595.4778	1638.7519	3030.517	3090.9989	3122.1215	3145.9711	3162.5452	3169.1212	3198.6261	3222.247
C1OC2C3C=CC(=C1)C23	C1O[C@H]2[C@H]3C=C[C]([CH]1)[C@@H]23	
InChI=1S/C8H8O/c1-2-6-7-5(1)3-4-9-8(6)7/h1-3,6-8H,4H2	InChI=1S/C8H8O/c1-2-6-7-5(1)3-4-9-8(6)7/h1-3,6-8H,4H2/t6-,7+,8-/m0/s1
