20
gdb 95247	2.84226	1.50229	1.12714	3.1243	75.8	-0.2456	0.0672	0.3127	1130.2788	0.172241	-440.259061	-440.25091	-440.249966	-440.291639	31.815	
C	-0.3831130331	 1.407167262	 0.0228488059	-0.402756
C	 0.0447299932	-0.0491035443	 0.0000790912	 0.22166
O	 0.7544232267	-0.2561484617	-1.196635695	-0.227663
C	 0.836835026	-1.5833197636	-1.659582009	-0.103426
C	 1.6566000927	-2.5395970316	-0.8126913523	-0.028806
N	 2.8391164677	-2.0285825387	-0.1072943549	-0.316779
C	 1.7078792381	-2.5477547023	 0.672338281	-0.028805
C	 0.9488388173	-1.6011461806	 1.5842024332	-0.103427
O	 0.8351885989	-0.2690032824	 1.1426453306	-0.227658
H	 0.5066890697	 2.0410639706	-0.0043798917	 0.140726
H	-1.0045301826	 1.6313284857	-0.8468375835	 0.119037
H	-0.9430203192	 1.6215391778	 0.9357062239	 0.119037
H	-0.8295638381	-0.7279615272	 0.0265333327	 0.047428
H	-0.1722578309	-2.0146790814	-1.7854969287	 0.086831
H	 1.2881339057	-1.5162940302	-2.6559222483	 0.112808
H	 1.7369030671	-3.5187925438	-1.2887850184	 0.080276
H	 3.5987476791	-2.7023372325	-0.1372296879	 0.231603
H	 1.8204576752	-3.5320854073	 1.1309853336	 0.080276
H	-0.0493278324	-2.0342496352	 1.7746740105	 0.086831
H	 1.4678088087	-1.5448912034	 2.547717877	 0.112809
83.8075	178.0716	210.4371	260.4245	288.1981	325.3421	359.4756	383.6198	485.3076	549.7293	681.5327	689.6197	740.4893	777.785	846.3362	855.5612	897.7848	970.0844	1019.6132	1031.6115	1050.509	1071.742	1092.3061	1123.6986	1147.018	1149.0032	1181.7555	1189.0576	1234.697	1264.8521	1300.9792	1323.2281	1382.4438	1389.2509	1405.916	1415.2851	1420.2207	1425.2227	1481.5586	1483.1182	1487.9515	1492.3123	1493.3967	2915.1141	2949.6641	2953.3523	3057.6522	3060.4208	3061.7667	3082.0112	3093.2929	3139.4001	3140.3757	3511.4954
CC1OCC2NC2CO1	C[C@H]1OC[C@H]2N[C@H]2CO1	
InChI=1S/C6H11NO2/c1-4-8-2-5-6(7-5)3-9-4/h4-7H,2-3H2,1H3	InChI=1S/C6H11NO2/c1-4-8-2-5-6(7-5)3-9-4/h4-7H,2-3H2,1H3/t4-,5+,6-
