15
gdb 99411	2.13196	1.10891	0.78798	5.5353	76.15	-0.2627	-0.0592	0.2035	1406.0302	0.111268	-413.006381	-412.99634	-412.995396	-413.043013	33.046	
C	 0.0324627177	 1.4398327425	-0.0141305415	-0.320894
N	-0.0599402327	-0.0074705351	-0.0524821539	-0.332931
C	-1.260842131	-0.6413210985	-0.058608195	 0.341611
N	-2.3653873969	 0.0038157286	-0.0046062826	-0.303559
C	-3.6244646425	-0.7133369685	 0.0252170361	-0.307762
C	-4.3682936779	-0.4054293711	 1.2562399503	 0.278349
N	-4.957669643	-0.1725026673	 2.2216883842	-0.303025
C	-1.1553672789	-2.0953231573	-0.132539604	 0.230274
N	-1.1037478083	-3.248153515	-0.2010974974	-0.322629
H	 1.0849588211	 1.7188425155	 0.0502619189	 0.13503
H	-0.4100163913	 1.8921703739	-0.9087039234	 0.147234
H	-0.5011778034	 1.8305187377	 0.8567752953	 0.162036
H	 0.7697004558	-0.5571725974	-0.1908402037	 0.273082
H	-4.2400864738	-0.386242233	-0.8225496178	 0.162451
H	-3.5291727549	-1.807285225	-0.0495778956	 0.160733
34.3664	66.1854	86.0867	133.6019	146.425	212.0915	234.044	291.7313	353.0371	374.332	381.3955	517.3912	565.9924	625.8878	722.5387	810.2317	931.0583	1010.6105	1050.1035	1089.1899	1156.8808	1208.3363	1262.2259	1312.7983	1377.2424	1457.8143	1471.8403	1473.4794	1507.6655	1549.5647	1704.7281	2348.0246	2366.7289	2995.9116	3038.6054	3045.5153	3100.4114	3147.833	3679.0436
CNC(=NCC#N)C#N	CNC(=NCC#N)C#N	
InChI=1S/C5H6N4/c1-8-5(4-7)9-3-2-6/h3H2,1H3,(H,8,9)	InChI=1S/C5H6N4/c1-8-5(4-7)9-3-2-6/h3H2,1H3,(H,8,9)
