20
gdb 30660	3.01377	1.2462	0.99894	1.4072	83.31	-0.1726	0.0416	0.2142	1254.9644	0.170898	-403.169008	-403.159761	-403.158817	-403.203576	34.078	
C	 0.2044990857	 1.5718275473	 0.1580618526	-0.382527
C	 0.0823781652	 0.052160122	-0.0172768846	-0.164046
N	 0.6537312983	-0.7421008911	 1.070599677	-0.160029
C	-0.0677121382	-0.7664014259	 2.3279189747	-0.33589
C	 2.0255801719	-0.820402837	 1.175703284	 0.466763
C	 2.8721280294	-1.032696751	 2.2308128521	-0.315357
C	 4.1911648392	-1.0952347065	 1.6637076545	-0.166273
C	 4.0555208834	-0.9052065207	 0.331610264	-0.03795
O	 2.7263075045	-0.7354234277	 0.0150305573	-0.202422
H	 1.2549847737	 1.8712246256	 0.2163251955	 0.134687
H	-0.2498134616	 2.0890176591	-0.6933130638	 0.115698
H	-0.3007342251	 1.914629657	 1.0665921643	 0.117576
H	-0.9717973053	-0.2341271765	-0.1005408819	 0.101758
H	 0.5705387705	-0.2535689993	-0.9453307247	 0.130728
H	 0.2252982982	-1.6509851011	 2.9019705409	 0.135079
H	 0.112097555	 0.1204358617	 2.9568372749	 0.113498
H	-1.1389823536	-0.8334208208	 2.1219665685	 0.124172
H	 2.6034389555	-1.1215147191	 3.2695671901	 0.096662
H	 5.1170557342	-1.2538829754	 2.1947949078	 0.103191
H	 4.7369671389	-0.8498193309	-0.4993950732	 0.12468
53.7783	69.8684	143.5063	189.011	211.1243	252.7163	279.966	379.5085	442.959	507.8479	602.6444	605.0666	654.86	711.453	728.9117	792.6066	833.0997	868.7296	898.1167	949.9918	1013.2022	1031.4885	1084.8146	1098.0776	1106.2653	1153.5304	1167.0164	1208.8073	1229.7702	1281.8793	1301.8134	1376.784	1390.6882	1406.1383	1440.4499	1457.4342	1483.6053	1484.9073	1492.7271	1504.3802	1515.4603	1575.9851	1639.8987	2973.025	3037.86	3047.3564	3067.6069	3096.7788	3110.6741	3115.7707	3122.5463	3251.026	3276.2726	3295.8904
CCN(C)C1=CC=CO1	CCN(C)c1ccco1	
InChI=1S/C7H11NO/c1-3-8(2)7-5-4-6-9-7/h4-6H,3H2,1-2H3	InChI=1S/C7H11NO/c1-3-8(2)7-5-4-6-9-7/h4-6H,3H2,1-2H3
