22
gdb 123096	6.36279	0.48144	0.45613	4.0682	81.4	-0.2449	0.0288	0.2737	2417.7211	0.191378	-441.512134	-441.500651	-441.499707	-441.551062	39.105	
C	-0.0661093286	 1.538450728	 0.0739250824	-0.379242
C	 0.0367082221	 0.0116294892	 0.0248001183	-0.166761
C	 0.7177009959	-0.5782484908	 1.2637801939	-0.178306
C	 0.815995007	-2.0961466887	 1.2164499365	-0.048974
O	 1.4590664919	-2.5428921887	 2.3935470483	-0.222501
C	 1.6148219674	-3.927376323	 2.444829529	-0.155308
C	 2.4453409278	-4.2958772359	 3.6805303561	 0.370958
N	 2.3164890234	-5.6099171366	 4.0475175486	-0.524141
O	 3.1904800006	-3.523655486	 4.2379013619	-0.328343
H	 0.9253409203	 1.9991186601	 0.1437460103	 0.117367
H	-0.5558066706	 1.9345305777	-0.8211001833	 0.110758
H	-0.6441668018	 1.8676875198	 0.9443373816	 0.116094
H	-0.9680877223	-0.4190594361	-0.080504945	 0.094395
H	 0.590730911	-0.2883700781	-0.8746541753	 0.095863
H	 1.7286184461	-0.1674385196	 1.3717794166	 0.111594
H	 0.1678061605	-0.292334016	 2.1686517998	 0.106519
H	-0.1898240914	-2.5452881175	 1.1338238123	 0.080851
H	 1.3847027814	-2.4199559018	 0.3269382211	 0.084447
H	 0.6386131582	-4.4453028232	 2.4723262161	 0.085175
H	 2.1484570876	-4.3094215072	 1.5554291829	 0.111885
H	 1.5534557576	-6.1773764474	 3.7205629408	 0.255682
H	 2.7969376859	-5.9040799782	 4.8826530169	 0.261989
24.3581	49.1552	73.2607	85.051	130.0572	138.8177	194.4698	243.3837	248.4729	272.2201	352.3485	444.4626	482.6229	517.133	610.0749	674.0289	744.7649	814.6847	857.5386	909.0514	952.815	1016.5279	1031.3996	1048.7173	1073.0159	1097.6798	1148.1777	1193.6462	1194.4083	1249.3791	1263.6102	1290.132	1303.076	1312.0842	1325.2459	1386.2239	1407.99	1412.7893	1448.0231	1488.0389	1492.5051	1498.3301	1498.4161	1511.6689	1531.7363	1618.5057	1827.7275	2930.5749	2944.6047	2956.6168	2966.231	3012.3236	3029.9956	3035.4949	3038.9309	3077.6126	3098.8481	3102.9811	3595.6384	3727.452
CCCCOCC(N)=O	CCCCOCC(=O)N	
InChI=1S/C6H13NO2/c1-2-3-4-9-5-6(7)8/h2-5H2,1H3,(H2,7,8)	InChI=1S/C6H13NO2/c1-2-3-4-9-5-6(7)8/h2-5H2,1H3,(H2,7,8)
