17
gdb 54479	3.21684	1.45007	1.15716	3.1615	72.65	-0.2506	-0.0303	0.2204	1065.7285	0.13595	-418.00909	-418.001047	-418.000103	-418.042038	30.082	
C	 0.0315355038	 1.3349011462	 0.5625825485	-0.501558
C	 0.0043860316	-0.0161401599	-0.1198632218	 0.314411
O	 0.9683939658	-0.477028973	-0.6900938259	-0.297518
C	-1.2791955351	-0.8029213403	-0.082871636	 0.205533
C	-2.6141147221	-0.1360741293	-0.0478757167	-0.281367
N	-2.0918419517	-0.7636392548	 1.1793382757	-0.158431
C	-2.5260844347	-2.1284766533	 1.2837546806	 0.035796
N	-2.120475413	-2.97760577	 0.4332026275	-0.194934
C	-1.2518093105	-2.268140191	-0.5220266024	-0.247877
H	 1.0666866498	 1.6611504126	 0.6674746261	 0.146968
H	-0.5057095414	 2.072113366	-0.0456094536	 0.143922
H	-0.4621026865	 1.2874777196	 1.5370559647	 0.160191
H	-2.6862327892	 0.9460806183	-0.008704778	 0.130248
H	-3.4297491549	-0.6377775755	-0.5632026331	 0.137306
H	-3.1742548118	-2.3776597312	 2.1187231402	 0.13415
H	-1.6112462601	-2.433649804	-1.5425196629	 0.125619
H	-0.2312562601	-2.6588767505	-0.4726354829	 0.14754
57.6504	144.4104	157.7342	209.2528	330.2075	341.1766	406.0724	464.9389	538.5582	587.0421	614.3848	733.093	798.2281	825.1106	895.3963	937.9352	941.3029	955.2299	971.3452	1011.4625	1043.0585	1060.8605	1117.7587	1133.948	1160.4075	1197.7633	1277.0783	1303.7049	1327.8325	1361.3255	1385.1548	1466.4815	1474.6467	1486.8939	1502.2409	1686.5614	1796.7663	3041.4107	3059.1061	3097.5282	3109.4475	3111.0062	3158.0705	3191.204	3204.4031
CC(=O)C12CN1C=NC2	CC(=O)[C@]12CN1C=NC2	
InChI=1S/C6H8N2O/c1-5(9)6-2-7-4-8(6)3-6/h4H,2-3H2,1H3	InChI=1S/C6H8N2O/c1-5(9)6-2-7-4-8(6)3-6/h4H,2-3H2,1H3/t6-,8?/m0/s1
