19
gdb 102831	1.81026	1.50327	0.92756	5.1666	72.83	-0.2335	0.025	0.2585	1278.2073	0.159542	-456.333285	-456.323746	-456.322802	-456.368063	34.208	
O	 0.2793316197	 1.4185144763	-0.1428752995	-0.426719
C	 0.2258355344	 0.0145329911	-0.3752967073	-0.105545
C	-1.1706299678	-0.45847772	 0.0260922209	-0.006642
N	-1.4081040941	-0.0603446859	 1.4122056297	-0.268772
C	-2.199375083	-0.7701654113	 2.248594103	 0.166802
O	-2.7833726814	-1.7976058824	 1.9541536626	-0.341637
C	-2.2450770675	 0.0564331358	-0.9162401195	 0.02468
C	-2.7472408835	-0.8290860426	-1.9981833875	-0.245402
N	-3.5990186946	-0.504244851	-0.8455531808	-0.323778
H	 1.1634392252	 1.7329171598	-0.3512112417	 0.297635
H	 0.3973473562	-0.225318786	-1.4338687851	 0.106116
H	 0.9789922227	-0.5130042663	 0.2278561286	 0.100062
H	-1.188570447	-1.5534450465	 0.0095372353	 0.104876
H	-1.018344719	 0.8214199166	 1.7083314947	 0.25915
H	-2.25209161	-0.3211311689	 3.2589803551	 0.084423
H	-2.2148319724	 1.1304671768	-1.0847735676	 0.098167
H	-3.0678907904	-0.4043568282	-2.9454776466	 0.115004
H	-2.3268285828	-1.8298989483	-2.0743191666	 0.107617
H	-3.6091401545	-1.274089169	-0.1779445179	 0.253962
85.791	97.5001	114.8447	162.8802	197.1861	244.681	264.8596	275.8863	341.2167	394.0233	511.8222	586.3816	622.517	761.5392	833.7706	872.9356	921.4618	937.3608	966.4995	981.8398	1032.7559	1073.8723	1103.3893	1106.6974	1141.9398	1166.4111	1181.8004	1204.3402	1246.2794	1273.1486	1279.2104	1307.5805	1336.1934	1349.4489	1423.2442	1438.7048	1452.1822	1508.7611	1513.7825	1519.1094	1780.5599	2950.6065	2991.3649	3033.3796	3062.0518	3100.1067	3137.6438	3183.7643	3486.236	3631.3085	3839.9551
OCC(NC=O)C1CN1	OC[C@@H](NC=O)[C@H]1CN1	
InChI=1S/C5H10N2O2/c8-2-5(7-3-9)4-1-6-4/h3-6,8H,1-2H2,(H,7,9)	InChI=1S/C5H10N2O2/c8-2-5(7-3-9)4-1-6-4/h3-6,8H,1-2H2,(H,7,9)/t4-,5-/m1/s1
