20
gdb 18716	3.09484	2.07809	1.43911	1.7369	73.95	-0.2566	0.0826	0.3392	932.1291	0.179064	-349.013386	-349.005926	-349.004982	-349.044792	29.443	
C	-0.0552265603	 1.5425114668	 0.0561928956	-0.404357
C	 0.0328340562	 0.0113127323	 0.0077309385	 0.007681
C	 0.688383657	-0.4893746272	-1.291071235	-0.199572
C	 0.8858732123	-2.0091459473	-1.2704176584	-0.212173
C	 1.8527867482	-2.4509830734	-0.1579020861	-0.221249
C	 1.6376362465	-1.7048117952	 1.1476395513	 0.03966
O	 2.1882925222	-0.3795636195	 1.2199938394	-0.261828
C	 0.7636445131	-0.5216177285	 1.2253718776	 0.066649
H	 0.9466960532	 1.9839323992	 0.0587277952	 0.130857
H	-0.5963968095	 1.9317823933	-0.8122725343	 0.110104
H	-0.5753377143	 1.8851234995	 0.9571287388	 0.109292
H	-0.9883659686	-0.3972105923	 0.0542029876	 0.071394
H	 0.0634585366	-0.1989442164	-2.1429788239	 0.089733
H	 1.6562897487	 0.009541187	-1.419932907	 0.108963
H	-0.0891349925	-2.490097671	-1.1140466672	 0.093973
H	 1.2524935543	-2.3625821609	-2.2400682808	 0.093824
H	 1.7509106958	-3.5268477316	 0.0230493963	 0.096653
H	 2.8914877396	-2.2845918672	-0.4689615063	 0.114805
H	 1.7957724054	-2.2821983917	 2.0593796094	 0.086534
H	 0.3005412361	-0.2837655257	 2.1858280593	 0.079057
106.7202	208.1565	235.3734	265.1708	317.5565	365.6758	436.6007	464.7547	591.7089	641.0594	761.5603	780.4324	851.2755	858.9283	885.5111	945.5304	958.5681	989.8404	998.8138	1060.3763	1073.0506	1085.5614	1107.95	1164.8433	1181.7354	1199.7418	1237.244	1289.4672	1292.0651	1326.7937	1349.0438	1369.1075	1377.5467	1383.3373	1399.034	1411.239	1463.5488	1481.5799	1485.1055	1496.7153	1498.3085	1503.6268	2990.0298	3016.3347	3029.6689	3030.3104	3033.8928	3064.1375	3071.9158	3077.5251	3078.8817	3098.2854	3101.7591	3107.2058
CC1CCCC2OC12	C[C@H]1CCC[C@H]2O[C@@H]12	
InChI=1S/C7H12O/c1-5-3-2-4-6-7(5)8-6/h5-7H,2-4H2,1H3	InChI=1S/C7H12O/c1-5-3-2-4-6-7(5)8-6/h5-7H,2-4H2,1H3/t5-,6+,7-/m0/s1
