18
gdb 65331	3.09168	1.08133	1.01947	4.3106	76.69	-0.2893	-0.0003	0.289	1247.794	0.145988	-401.928886	-401.919841	-401.918897	-401.963207	33.144	
C	 0.525679741	 1.2410765657	-1.0044604012	-0.46232
C	 0.0074287259	 0.0966202831	-0.161512271	 0.377574
O	 0.926406363	-1.0019915396	-0.0101644921	-0.270124
C	 0.6462105614	-0.2130396699	 1.143414233	-0.167598
C	 1.7261223895	 0.5992901665	 1.6662101855	 0.303801
N	 2.5711429669	 1.2506708627	 2.1109939778	-0.330706
C	-1.4259656923	-0.2658798027	-0.4139354287	-0.049529
C	-2.2810872202	-1.0605284171	 0.5348655983	-0.281913
C	-2.542464376	 0.4113081146	 0.3485744965	-0.261686
H	 1.5711760194	 1.4604707398	-0.7817815823	 0.151753
H	 0.4443799595	 0.9815018736	-2.0649140859	 0.133242
H	-0.0703300089	 2.1420476846	-0.8311464911	 0.136326
H	 0.0763848423	-0.7170166284	 1.9206075295	 0.132177
H	-1.6173278205	-0.4379170202	-1.4703410276	 0.099498
H	-2.9756136862	-1.7675683318	 0.0959446221	 0.123612
H	-1.8653256358	-1.3923247006	 1.4788611983	 0.121723
H	-2.2626148224	 1.0761867139	 1.1590428644	 0.121124
H	-3.4243242368	 0.7235403056	-0.1988205055	 0.123046
46.8412	105.8106	139.4722	178.5363	229.7997	244.1516	343.9135	364.2793	476.0321	483.0948	532.7149	585.9955	691.6521	778.256	811.0593	838.3148	874.0589	936.6501	951.2702	969.8662	1041.4247	1059.6851	1067.4027	1085.4987	1096.3174	1136.1035	1146.2103	1194.6746	1213.8565	1248.3961	1318.2015	1410.2327	1417.5604	1432.9897	1474.0796	1483.5149	1497.6987	1509.7482	2358.4053	3046.352	3111.777	3135.35	3136.8243	3139.7508	3142.9017	3147.3448	3216.2749	3230.8958
CC1(OC1C#N)C1CC1	C[C@]1(O[C@H]1C#N)C1CC1	
InChI=1S/C7H9NO/c1-7(5-2-3-5)6(4-8)9-7/h5-6H,2-3H2,1H3	InChI=1S/C7H9NO/c1-7(5-2-3-5)6(4-8)9-7/h5-6H,2-3H2,1H3/t6-,7-/m0/s1
