16
gdb 49248	3.1265	1.43533	1.07675	6.7814	75.29	-0.215	-0.0333	0.1816	1085.1873	0.125197	-437.882871	-437.875067	-437.874123	-437.915902	28.315	
O	-0.0814771065	-0.0238077796	 0.1486049165	-0.30494
C	 0.0101374291	 1.1884874334	 0.2002393049	 0.056553
C	 1.2359767256	 1.9332258205	 0.0622665971	 0.157271
C	 1.3456378446	 3.2885004838	 0.016997242	-0.064254
N	 2.598626479	 3.7218383101	-0.2897569575	-0.283357
C	 3.5210313825	 2.594739359	-0.3801564475	-0.065424
C	 4.2213405306	 2.1478425416	 0.9188335386	-0.0789
O	 3.3300020584	 1.0278211096	 1.0788485729	-0.278887
C	 2.6116839726	 1.3504542189	-0.144157817	 0.00714
H	-0.8943515775	 1.8232018125	 0.3573800899	 0.044344
H	 0.5509819213	 4.0135037646	 0.1529222925	 0.141851
H	 2.8998779913	 4.6744513863	-0.1768005226	 0.258375
H	 4.1419882438	 2.6546406967	-1.2758638713	 0.10162
H	 5.2646500075	 1.829503623	 0.7947409763	 0.106389
H	 4.1584484505	 2.8610233033	 1.7505460329	 0.100351
H	 2.6428835573	 0.5130108563	-0.8451960977	 0.101868
59.1235	126.6469	160.4866	198.1998	263.9529	357.5882	454.2034	488.9065	601.6082	652.4618	769.2454	820.1655	859.0993	889.4561	922.7325	940.3668	979.951	1024.6535	1031.5414	1067.2237	1088.9855	1153.6204	1164.877	1216.0466	1228.164	1293.008	1302.7442	1343.8284	1357.8188	1366.9454	1431.4497	1467.49	1515.9829	1640.2899	1764.873	2839.699	3007.1838	3051.6148	3084.3036	3095.6483	3206.6284	3666.368
O=CC1=CNC2COC12	O=CC1=CN[C@H]2CO[C@@H]12	
InChI=1S/C6H7NO2/c8-2-4-1-7-5-3-9-6(4)5/h1-2,5-7H,3H2	InChI=1S/C6H7NO2/c8-2-4-1-7-5-3-9-6(4)5/h1-2,5-7H,3H2/t5-,6-/m0/s1
