15
gdb 60727	2.8448	1.14654	0.93883	4.6456	65.62	-0.2581	-0.0729	0.1853	1227.5883	0.110192	-491.10522	-491.095853	-491.094909	-491.139862	33.328	
N	 0.0003316649	 1.3349900744	 0.176147454	-0.531923
C	 0.0750818681	-0.0140135824	 0.041978704	 0.274703
N	 1.0964855108	-0.7798033864	-0.0835736606	-0.520415
C	-1.2952729327	-0.6734422414	 0.0517605497	 0.337606
O	-2.2984300459	-0.0040022446	 0.0415687785	-0.298738
C	-1.3361429576	-2.2161345254	 0.072951724	-0.04537
O	-2.5958863153	-2.6790608685	 0.4259348932	-0.411943
C	-0.921796805	-2.7670273396	-1.2959858774	 0.120552
O	-1.7153081339	-3.3865413837	-1.9600710912	-0.253383
H	 0.8049351806	 1.9171856633	 0.0213960704	 0.259998
H	-0.9193352792	 1.7462733711	 0.1226601303	 0.278054
H	 1.9735007197	-0.2566727545	-0.112579403	 0.214555
H	-0.568311518	-2.544297935	 0.7887765756	 0.14016
H	-2.9671948963	-3.074806967	-0.3787901079	 0.298591
H	 0.1130600997	-2.5608951301	-1.6128955196	 0.137553
67.6815	77.0067	110.0835	196.015	260.1458	283.2706	319.9735	340.6212	373.6396	421.0743	442.9	533.4995	557.027	623.5489	716.9095	790.2627	796.9581	871.6662	905.2689	1030.4939	1045.1591	1095.9439	1147.5597	1173.5616	1216.8723	1322.7283	1365.0507	1421.6195	1432.5826	1601.4663	1716.8567	1791.9008	1825.1822	3014.5066	3025.0194	3456.0783	3585.7796	3690.4817	3722.5039
NC(=N)C(=O)C(O)C=O	NC(=N)C(=O)[C@@H](O)C=O	
InChI=1S/C4H6N2O3/c5-4(6)3(9)2(8)1-7/h1-2,8H,(H3,5,6)	InChI=1S/C4H6N2O3/c5-4(6)3(9)2(8)1-7/h1-2,8H,(H3,5,6)/t2-/m0/s1
