19
gdb 112157	3.21121	1.09868	0.86099	0.7083	79.75	-0.2367	-0.0529	0.1839	1356.9071	0.159502	-419.260016	-419.250846	-419.249902	-419.294207	34.217	
C	 0.0105819139	 1.5870608253	 0.0611502151	-0.380144
C	 0.0436803552	 0.0575896513	 0.0434541994	-0.171845
C	 0.6501007736	-0.5233948679	-1.2409827278	 0.040881
C	 0.7421068805	-2.0680769572	-1.2448833835	-0.377325
C	 0.0767092657	-2.457516585	-2.5514081819	 0.348401
O	-0.0216989886	-3.5362584836	-3.0841057682	-0.325207
C	-0.4555370884	-1.1618805726	-3.1064789959	 0.282068
N	-1.2082774359	-1.2080626194	-4.2348747505	-0.569642
N	-0.1449003278	-0.124093194	-2.4206661143	-0.28269
H	 1.0226629648	 2.0031818262	-0.0001847828	 0.109568
H	-0.5591059362	 1.9695363266	-0.7890190132	 0.139083
H	-0.4468978102	 1.9596746748	 0.9826904074	 0.10725
H	 0.6239627624	-0.315347585	 0.8972401887	 0.093263
H	-0.973187017	-0.3411984503	 0.1566259574	 0.095155
H	 1.6524985713	-0.0898924786	-1.3645285069	 0.083234
H	 1.7616867313	-2.4595028996	-1.1957167731	 0.136183
H	 0.1845439276	-2.5189213146	-0.4157197642	 0.13919
H	-1.1675739045	-2.069682814	-4.7566048253	 0.269107
H	-1.3692299076	-0.3559474825	-4.7455119601	 0.263469
51.1118	116.3083	144.0098	218.5027	238.0345	278.4162	343.6537	359.713	421.5786	447.7182	509.8557	561.2563	625.1454	646.6892	704.8248	759.0437	799.4951	835.9301	936.6652	957.412	1009.3002	1061.2878	1094.2323	1107.441	1123.6555	1170.4484	1196.6143	1258.4747	1285.6077	1312.3694	1343.9148	1382.9405	1407.504	1418.8056	1442.272	1481.2905	1495.6467	1509.5154	1606.677	1724.718	1829.6043	3000.1309	3016.2668	3035.6528	3051.8769	3054.3138	3098.9373	3102.7012	3128.1897	3591.2637	3716.0599
CCC1CC(=O)C(N)=N1	CC[C@H]1CC(=O)C(=N1)N	
InChI=1S/C6H10N2O/c1-2-4-3-5(9)6(7)8-4/h4H,2-3H2,1H3,(H2,7,8)	InChI=1S/C6H10N2O/c1-2-4-3-5(9)6(7)8-4/h4H,2-3H2,1H3,(H2,7,8)/t4-/m0/s1
