20
gdb 35268	3.30203	0.90953	0.80524	0.7164	86.16	-0.2312	0.0492	0.2804	1474.9892	0.169734	-365.929616	-365.920418	-365.919474	-365.964284	34.554	
C	-0.1820059962	-1.1854096252	 0.1234651636	-0.477985
C	-0.0693795217	 0.0126350544	 0.1460693632	 0.338957
C	 0.0435025638	 1.4423632916	 0.1625803509	-0.205773
C	 0.7945704884	 2.1448468147	 1.285953823	-0.287451
C	 1.3756179507	 2.1359487799	-0.09790925	 0.007344
C	 2.6145851735	 1.3356746703	-0.4264784985	-0.177119
N	 3.8110494554	 2.1559060212	-0.2572272154	-0.06262
C	 4.449676421	 2.1176784103	 1.0537579957	-0.215689
C	 5.0708380773	 1.4364308284	-0.1157631836	-0.2207
H	-0.2808248557	-2.2422366722	 0.1053686573	 0.19393
H	-0.8308921712	 1.9626379621	-0.2175035688	 0.11383
H	 0.3692902244	 3.0631440597	 1.6746946692	 0.119066
H	 1.2522224169	 1.5052647182	 2.0323497128	 0.123612
H	 1.3011406525	 3.0650313905	-0.6549478962	 0.101556
H	 2.6419390268	 0.4180956908	 0.1862601137	 0.090639
H	 2.5786302226	 1.0160321837	-1.475221042	 0.10987
H	 4.8428222883	 3.0620852183	 1.4190406787	 0.115389
H	 4.0091359669	 1.4814775666	 1.8198641921	 0.108274
H	 5.0419175066	 0.3476288629	-0.1275370033	 0.109072
H	 5.9257928499	 1.8739041638	-0.6235506625	 0.115798
53.2529	88.8277	94.9266	189.2292	209.5318	315.0149	341.6208	376.3066	452.9862	526.4432	573.2587	601.2863	647.5192	764.0068	779.3075	819.539	839.402	877.5873	906.0813	920.6686	958.9346	1019.95	1030.8324	1067.8945	1071.4687	1111.4565	1116.511	1121.8896	1130.1647	1158.4912	1173.6941	1203.6394	1230.1975	1284.3404	1321.9285	1353.4909	1380.4343	1430.3998	1483.634	1489.5382	1497.6921	1523.0536	2233.198	2958.0054	3046.9093	3092.3157	3097.8594	3138.0717	3144.164	3159.7771	3175.1702	3189.6461	3227.7973	3505.336
C#CC1CC1CN1CC1	C#C[C@H]1C[C@H]1CN1CC1	
InChI=1S/C8H11N/c1-2-7-5-8(7)6-9-3-4-9/h1,7-8H,3-6H2	InChI=1S/C8H11N/c1-2-7-5-8(7)6-9-3-4-9/h1,7-8H,3-6H2/t7-,8-/m0/s1
