22
gdb 108793	2.85392	1.10695	0.98006	0.9221	83.65	-0.2396	0.0343	0.2739	1366.4825	0.192935	-404.391262	-404.381194	-404.38025	-404.426925	36.819	
C	 0.1117050454	 1.5184175705	 0.114473313	-0.368834
C	-0.0497135757	 0.017038011	-0.1178114596	-0.286429
C	-1.472320351	-0.4458554801	-0.0846961173	 0.414128
N	-2.5048071617	 0.2662728965	 0.110063203	-0.338601
C	-3.6810388053	-0.6286974305	 0.0540412499	 0.275942
C	-4.4163239944	-0.5835176894	 1.3992442528	-0.413519
C	-4.6059104652	-0.1789508715	-1.0837547465	-0.413524
C	-3.0503370918	-2.0300613476	-0.2224397318	-0.147692
O	-1.6324514273	-1.7856524032	-0.2907175175	-0.262372
H	 1.1685951581	 1.7974976506	 0.079270547	 0.107865
H	-0.4253254468	 2.0910245891	-0.6455493001	 0.131905
H	-0.2930827983	 1.8087646735	 1.0869765135	 0.131901
H	 0.3755669972	-0.2808983992	-1.0846787736	 0.125986
H	 0.506492874	-0.5605025222	 0.6315505787	 0.125986
H	-4.7600148146	 0.4328470609	 1.6102650574	 0.126013
H	-5.2868605241	-1.2489756136	 1.3907768771	 0.108428
H	-3.754148986	-0.8931190173	 2.2135312677	 0.114672
H	-4.0791255903	-0.1996248282	-2.0426407709	 0.11467
H	-5.4813943941	-0.833845052	-1.157109492	 0.108428
H	-4.9524507878	 0.8434618722	-0.9098773165	 0.126013
H	-3.2379868996	-2.7519509209	 0.5786322249	 0.10952
H	-3.3715825108	-2.4663799985	-1.1734834892	 0.109516
39.3484	57.1781	144.0074	167.6789	217.7335	226.7694	255.3358	328.09	329.2125	380.0863	445.4722	451.9106	598.4267	632.3298	665.7968	802.5365	828.8948	892.7172	927.2822	940.7064	964.7894	979.9877	1008.8818	1032.5421	1039.5152	1101.4294	1111.8382	1177.9869	1201.933	1210.2961	1266.4399	1267.258	1281.0051	1366.8335	1395.3015	1402.4772	1415.2675	1421.1553	1470.5943	1477.1329	1485.7233	1490.8833	1495.4844	1502.4887	1504.6984	1523.49	1736.2795	3029.4872	3031.2582	3033.4316	3043.0797	3051.6777	3056.718	3085.897	3099.7834	3104.0791	3116.2743	3120.219	3123.0398	3130.4813
CCC1=NC(C)(C)CO1	CCC1=NC(C)(C)CO1	
InChI=1S/C7H13NO/c1-4-6-8-7(2,3)5-9-6/h4-5H2,1-3H3	InChI=1S/C7H13NO/c1-4-6-8-7(2,3)5-9-6/h4-5H2,1-3H3
