18
gdb 14422	4.13032	1.82181	1.64377	1.8782	71.23	-0.2251	0.0831	0.3083	874.3057	0.153527	-347.744848	-347.737515	-347.736571	-347.775966	28.591	
C	 0.0497286427	 1.6018157209	-0.0021571162	-0.420271
C	 0.0739862617	 0.0812966861	-0.0156266738	 0.030696
C	 0.7811645433	-0.6837997467	-1.139477668	-0.183443
C	 2.2434288517	-0.8097202606	-0.6636396472	 0.038203
O	 2.3704929686	-0.1065277015	 0.5724823121	-0.291366
C	 1.0712520615	-0.6640201752	 0.9200556743	-0.00025
C	 1.2292058631	-1.7894119741	-0.1820698599	 0.293872
C	 1.1009683408	-3.2766102819	-0.1918797427	-0.531827
H	 1.0664420071	 1.998214687	-0.0547588626	 0.133494
H	-0.5193397044	 1.9921318962	-0.8529194158	 0.109667
H	-0.4200757228	 1.9806207443	 0.9127875215	 0.108739
H	-0.9271287431	-0.3398129494	 0.1301008163	 0.071219
H	 0.4982416307	-0.7763151065	-2.1814850919	 0.082595
H	 3.1066224516	-0.9007061505	-1.3104758399	 0.103394
H	 0.920110284	-0.7706399208	 1.993246252	 0.078531
H	 0.0777297553	-3.5960720363	 0.0371782994	 0.12298
H	 1.3555361927	-3.6764241702	-1.1794587816	 0.125465
H	 1.7707230055	-3.7428629606	 0.5394374641	 0.128303
163.241	199.023	205.8483	216.5974	285.887	324.2879	526.5601	589.5164	644.0481	714.9902	748.8094	802.0328	852.1209	890.517	903.1328	918.2761	941.3845	999.5723	1024.789	1037.2576	1057.7287	1095.3408	1102.909	1132.827	1156.7931	1178.9499	1214.2856	1226.6477	1263.2424	1317.75	1379.6379	1403.1306	1411.9173	1467.4801	1484.075	1490.7507	1497.6527	1503.0254	3022.3553	3031.0166	3048.1406	3082.8164	3090.8398	3092.7657	3127.1877	3133.0256	3185.5718	3204.7124
CC1C2C3OC1C23C	C[C@H]1[C@H]2[C@H]3O[C@@H]1[C@@]23C	
InChI=1S/C7H10O/c1-3-4-6-7(4,2)5(3)8-6/h3-6H,1-2H3	InChI=1S/C7H10O/c1-3-4-6-7(4,2)5(3)8-6/h3-6H,1-2H3/t3-,4-,5-,6+,7+/m0/s1
