19
gdb 23054	3.15664	1.07286	0.93558	1.0169	81.86	-0.2161	0.0034	0.2196	1318.2373	0.157944	-419.125731	-419.116469	-419.115525	-419.159818	34.455	
C	-0.1347216827	 1.4023620948	-0.1081461974	-0.395767
C	 0.0712905426	-0.0924736127	-0.0407302415	-0.042172
C	 1.464201826	-0.6803367771	-0.0892115546	-0.358371
C	 0.6803395965	-0.7063444791	 1.1959646816	 0.265539
N	 0.9946907269	 0.0287640966	 2.4440451647	-0.380589
C	 0.5837404442	-1.1639980197	 3.2630003353	-0.260524
C	 0.1999245745	-1.8726325399	 1.9797704383	 0.337915
N	-0.3166606728	-2.9734800868	 1.6306819241	-0.260281
O	-0.6207222733	-3.7640427165	 2.7568605018	-0.393467
H	 0.6231578308	 1.9272643307	 0.4805736105	 0.121211
H	-0.0807987255	 1.7636756145	-1.1407999631	 0.115253
H	-1.1119057842	 1.6816332767	 0.2987709649	 0.123129
H	-0.7071096252	-0.6966043697	-0.499952969	 0.100682
H	 1.6277778728	-1.6233844886	-0.5999874784	 0.127215
H	 2.2975973598	 0.0157376596	-0.1385745679	 0.112199
H	 1.9895281305	 0.2100673014	 2.5335346257	 0.221771
H	 1.3915439054	-1.653529179	 3.8184296222	 0.12523
H	-0.239558552	-0.9529160103	 3.9526058188	 0.13383
H	-1.0018314142	-4.5516731249	 2.3544900238	 0.307198
89.0367	104.3981	139.1356	165.8759	217.0132	261.9564	306.2583	350.662	413.4237	461.1565	512.1596	569.9879	603.3034	756.859	776.3501	833.9606	869.0613	896.1513	917.4262	966.7516	978.6047	1004.1195	1044.7698	1059.9127	1083.1011	1117.7424	1141.5768	1144.0895	1186.6399	1235.6859	1294.0907	1307.1361	1361.9397	1393.0622	1414.9361	1438.1695	1471.7542	1486.7958	1490.4061	1502.8877	1795.7009	3034.0791	3038.2792	3083.2097	3097.099	3109.3696	3116.5028	3144.741	3208.8822	3514.1157	3819.2145
CC1CC11NCC1=NO	C[C@H]1C[C@]21NCC2=NO	
InChI=1S/C6H10N2O/c1-4-2-6(4)5(8-9)3-7-6/h4,7,9H,2-3H2,1H3	InChI=1S/C6H10N2O/c1-4-2-6(4)5(8-9)3-7-6/h4,7,9H,2-3H2,1H3/t4-,6+/m0/s1
