16
gdb 43973	3.22002	1.63884	1.46287	3.6201	73.	-0.2426	-0.0016	0.241	927.3667	0.126377	-400.73645	-400.729737	-400.728793	-400.767284	27.378	
O	-0.0481887309	 0.010679837	 0.0468620763	-0.346716
C	-0.0376442	 1.2072988991	-0.0065778822	 0.373411
N	-1.0771615424	 2.1563006166	 0.0196837989	-0.383422
C	-0.140644713	 3.2825216402	-0.0765524815	 0.240613
C	 0.8796506428	 3.2664707943	 1.0231838295	-0.342627
C	 1.029775905	 2.2965009431	-0.144743792	 0.06377
C	 1.8885384401	 2.6505164824	-1.3499179756	-0.359303
C	 1.142837	 3.8471525702	-1.93612109	-0.052702
C	 0.0289120336	 4.1654266058	-1.2631926127	-0.153981
H	-1.8867961604	 2.1111500173	 0.6278577627	 0.241459
H	 1.5936981315	 4.0840254318	 1.0478971428	 0.130539
H	 0.6014115202	 2.8760276592	 1.997160596	 0.126589
H	 2.9218832298	 2.9034927265	-1.0838404805	 0.120572
H	 1.9489415273	 1.8203505328	-2.0634606378	 0.134267
H	 1.5173804657	 4.3899097643	-2.7992446887	 0.102738
H	-0.6437862891	 4.9761856194	-1.5169682654	 0.104793
135.5287	249.5652	265.0129	374.886	448.1132	471.7105	525.7591	640.3168	661.4302	692.0915	714.0416	778.4521	811.1445	841.3352	880.3148	910.8834	922.0651	946.387	958.228	981.5803	1060.9554	1070.5838	1126.3036	1134.955	1175.0336	1232.0735	1262.8868	1316.8393	1322.9369	1337.7224	1377.1451	1471.1674	1481.945	1646.1416	1890.1846	3033.4967	3063.0246	3122.1558	3173.7897	3206.9425	3213.3287	3544.8521
O=C1NC23CC12CC=C3	O=C1N[C@@]23C[C@@]12CC=C3	
InChI=1S/C7H7NO/c9-5-6-2-1-3-7(6,4-6)8-5/h1,3H,2,4H2,(H,8,9)	InChI=1S/C7H7NO/c9-5-6-2-1-3-7(6,4-6)8-5/h1,3H,2,4H2,(H,8,9)/t6-,7-/m0/s1
