15
gdb 8255	6.81855	1.01669	0.9339	1.2387	63.96	-0.2597	-0.0352	0.2245	1180.9204	0.117641	-399.80657	-399.798779	-399.797835	-399.839937	27.237	
N	 0.1204575208	 1.2198198757	 0.6858607359	-0.532605
C	 0.0187845971	 0.1061670196	 0.1243817871	 0.442855
C	-1.1165973733	-0.8615825075	-0.1379625709	-0.380269
C	-0.0204734339	-1.7181749228	-0.8075179332	 0.118397
C	-0.1201955924	-1.9629670917	-2.3066421075	-0.295322
C	 1.1755250402	-2.497050842	-2.8899753464	 0.15414
O	 1.2585076437	-3.5061999418	-3.5405603365	-0.231445
O	 0.975444736	-0.6851271125	-0.4886953647	-0.266457
H	 1.08182343	 1.5639911687	 0.6669446529	 0.23243
H	-1.5769522728	-1.2823231375	 0.7568750482	 0.145188
H	-1.8934403689	-0.4840124663	-0.8056200117	 0.141126
H	 0.2276378159	-2.6382131875	-0.2700301948	 0.109862
H	-0.9235392287	-2.673372812	-2.5240813856	 0.131693
H	-0.3495361971	-1.0090357469	-2.8013514114	 0.129449
H	 2.0688017532	-1.8740060753	-2.6689484113	 0.100956
54.5613	70.269	107.1182	200.0113	337.1921	392.1393	484.7575	494.1324	507.7004	716.013	790.3847	846.575	868.2767	914.3605	946.9183	976.0374	1010.597	1061.5574	1076.6907	1094.5766	1155.0189	1217.7794	1235.9759	1244.0427	1279.8347	1344.0689	1389.223	1424.5085	1449.9898	1465.4465	1831.7589	1835.1025	2906.97	3023.3208	3069.2685	3088.2329	3103.0173	3144.4759	3480.5043
N=C1CC(CC=O)O1	[NH][C]1C[C@@H](CC=O)O1	
InChI=1S/C5H7NO2/c6-5-3-4(8-5)1-2-7/h2,4,6H,1,3H2	InChI=1S/C5H7NO2/c6-5-3-4(8-5)1-2-7/h2,4,6H,1,3H2/t4-/m1/s1
