21
gdb 32785	3.00092	0.99206	0.78937	3.5061	86.54	-0.2063	0.0371	0.2434	1513.7804	0.183279	-383.329587	-383.319897	-383.318952	-383.364985	35.107	
C	-0.2520730469	 1.6435456125	-0.0928003717	-0.38109
C	-0.179738242	 0.1157080373	-0.0512861843	-0.147229
C	 0.8141973427	-0.4656965284	-1.0729032788	-0.299794
C	 0.8342200269	-1.9630370704	-1.0862014161	 0.214602
C	 1.8398596073	-2.8235258938	-0.7092300449	 0.217301
C	 3.220688469	-2.610306124	-0.1864832643	-0.511119
N	 1.3168565512	-4.0893276774	-0.9119320098	-0.29115
C	 0.0493036775	-3.9396227213	-1.3894888698	-0.001838
N	-0.2747295154	-2.6762280775	-1.5071089679	-0.310264
H	 0.7228865219	 2.0959736873	 0.123422071	 0.106819
H	-0.5664866446	 1.9977017759	-1.0810678074	 0.113592
H	-0.9666418096	 2.0295870461	 0.6411273334	 0.10844
H	 0.1050997614	-0.2177426117	 0.9546946135	 0.087448
H	-1.1673477618	-0.314908889	-0.2491486099	 0.118578
H	 0.5414177539	-0.104253952	-2.0731712723	 0.10763
H	 1.8200802847	-0.0792733948	-0.8679739782	 0.087374
H	 3.351519232	-3.0246803986	 0.8211884604	 0.128066
H	 3.9821072821	-3.0686814519	-0.8300816511	 0.127057
H	 3.4398682936	-1.5420133006	-0.1307597258	 0.143198
H	 1.7925199195	-4.9591338587	-0.7394414234	 0.258973
H	-0.5787316334	-4.783974399	-1.6333166824	 0.123407
43.7372	88.2623	112.3477	126.7716	233.1267	240.8007	261.153	318.491	354.8103	430.5603	498.999	646.969	661.7269	703.8413	747.4076	785.0882	804.6077	872.0214	898.4473	957.3005	982.4446	1045.2261	1054.0186	1062.6972	1112.0428	1117.7349	1172.6911	1246.1498	1264.9686	1288.9346	1314.387	1327.2024	1378.0417	1383.0768	1410.8507	1421.1948	1461.8355	1476.9414	1481.436	1492.634	1493.7349	1499.2482	1510.1768	1531.2465	1636.5585	3014.9524	3016.808	3025.3662	3030.0678	3051.7622	3059.5418	3072.4786	3096.1245	3098.8692	3125.565	3245.6053	3661.1376
CCCC1=C(C)NC=N1	CCCc1c(C)[nH]cn1	
InChI=1S/C7H12N2/c1-3-4-7-6(2)8-5-9-7/h5H,3-4H2,1-2H3,(H,8,9)	InChI=1S/C7H12N2/c1-3-4-7-6(2)8-5-9-7/h5H,3-4H2,1-2H3,(H,8,9)
