17
gdb 53102	2.21264	1.14695	0.95566	3.9609	82.44	-0.2338	0.0143	0.2481	1325.4757	0.134589	-380.842236	-380.832106	-380.831161	-380.879063	34.606	
C	 0.0753682669	 1.4790722577	 0.019992118	-0.500658
C	 0.0428956838	 0.0245251621	-0.0027799525	 0.103759
C	 0.0047609143	-1.1794991197	-0.0388704193	 0.071495
C	-0.0370582912	-2.608114869	-0.0538001251	-0.255262
C	-0.405412559	-3.3790272471	 1.2167154595	 0.012249
N	-0.7447154735	-2.7589864049	 2.4578619817	-0.514032
C	-1.3891528859	-3.3528358055	 0.0682321559	-0.213559
C	-2.5995099738	-2.5942058634	 0.1919321414	 0.305164
N	-3.5730427121	-1.9793524258	 0.3071021017	-0.343919
H	 0.6850978157	 1.855899638	 0.8485982645	 0.148262
H	 0.4946473033	 1.8781340963	-0.9100319011	 0.153388
H	-0.9333356255	 1.8909135579	 0.1325565968	 0.160825
H	 0.6647955451	-3.0983414641	-0.7231961117	 0.120533
H	 0.1141547715	-4.3253974043	 1.3399229187	 0.116988
H	 0.0858839578	-2.3725422679	 2.896395742	 0.240826
H	-1.3920768554	-1.9891963549	 2.3184631901	 0.253732
H	-1.4914984319	-4.2574988554	-0.5208601707	 0.140208
25.0256	63.0598	88.3299	112.8785	149.5447	186.4033	242.0151	315.749	377.8792	400.4565	453.7735	563.8728	629.3155	642.7691	736.2871	747.4843	811.9672	869.0617	949.9086	978.6796	1013.1242	1050.9834	1053.4286	1099.1083	1131.2049	1192.2447	1239.7014	1278.9048	1356.2281	1380.7017	1414.0716	1436.9377	1475.6549	1477.4872	1662.7319	2351.5458	2367.4103	3028.7856	3089.1407	3093.901	3139.0551	3148.6205	3176.18	3498.8882	3577.1529
CC#CC1C(N)C1C#N	CC#C[C@H]1[C@@H](N)[C@H]1C#N	
InChI=1S/C7H8N2/c1-2-3-5-6(4-8)7(5)9/h5-7H,9H2,1H3	InChI=1S/C7H8N2/c1-2-3-5-6(4-8)7(5)9/h5-7H,9H2,1H3/t5-,6+,7-/m1/s1
