16
gdb 51378	3.99912	0.92563	0.88692	2.5186	71.55	-0.2555	-0.0328	0.2226	1309.792	0.12295	-437.857622	-437.84944	-437.848495	-437.891941	29.486	
N	 0.2303780868	 1.1320875453	-0.0109389787	-0.548162
C	 0.021059544	-0.1003077461	 0.0394381772	 0.449448
O	 0.9231873245	-1.1682269345	 0.1286547008	-0.272843
C	-0.1725205059	-2.1046670215	-0.0405326836	 0.073285
C	-1.1175650529	-2.0083349753	 1.1078857646	-0.062295
C	-0.707540036	-1.6880329761	 2.5337865405	-0.307617
C	-0.1894542537	-2.9213545265	 3.2476497764	 0.162473
O	-0.6198911922	-3.3429501609	 4.2889170135	-0.233301
C	-1.184185461	-0.9790092726	-0.033454301	-0.232862
H	 1.2284012178	 1.3444646701	 0.0328803721	 0.235574
H	-0.0131793136	-2.9345924003	-0.7151236603	 0.130349
H	-1.9403524519	-2.7170240513	 1.0262941907	 0.119338
H	 0.1034849544	-0.950111388	 2.5226956542	 0.143292
H	-1.5448139741	-1.2744840829	 3.1018559578	 0.130955
H	 0.6497858894	-3.4318045905	 2.721214992	 0.081843
H	-2.0763783053	-0.8024378291	-0.6152966861	 0.130525
45.0828	55.7376	111.5977	202.4725	268.1988	382.401	434.6569	487.7101	583.5754	681.3007	721.515	781.0884	828.4864	838.2426	869.7939	888.4938	933.2694	949.6189	987.2272	1034.6716	1054.5446	1060.5285	1065.228	1101.3606	1166.5595	1194.4846	1244.6392	1284.2217	1304.0336	1330.3996	1426.8084	1430.2947	1453.5432	1833.5813	1838.3226	2869.3708	3046.9105	3110.4284	3133.8097	3215.8801	3236.5066	3482.2364
N=C1OC2C(CC=O)C12	[NH][C]1O[C@H]2[C@@H](CC=O)[C@@H]12	
InChI=1S/C6H7NO2/c7-6-4-3(1-2-8)5(4)9-6/h2-5,7H,1H2	InChI=1S/C6H7NO2/c7-6-4-3(1-2-8)5(4)9-6/h2-5,7H,1H2/t3-,4+,5-/m0/s1
