21
gdb 113953	3.05583	0.99239	0.85878	1.4205	79.97	-0.2308	0.0759	0.3066	1438.422	0.180187	-424.162757	-424.153108	-424.152163	-424.198619	35.208	
C	-0.4345611177	 0.9778439299	-0.1521377518	-0.234575
O	 0.3628092593	-0.1382778634	 0.2065970343	-0.231926
C	 0.9437408605	-0.7593850999	-0.8892228185	 0.088054
C	 1.1908936287	-2.2356776167	-0.7516114967	-0.353129
C	 0.1315175988	-1.7286770211	-1.7102680825	 0.081305
O	-1.2192758658	-1.8438881723	-1.3878624845	-0.247473
C	-1.7839008005	-3.0774377393	-1.7291865743	 0.155009
C	-1.8173243328	-4.1925198987	-0.7174764042	-0.283754
C	-3.0750210022	-3.4166394568	-1.0616617445	-0.293077
H	 0.158484085	 1.7449900694	-0.6735219415	 0.099255
H	-1.2731437675	 0.6788029378	-0.7917527305	 0.129108
H	-0.8190811655	 1.4042076875	 0.7775138814	 0.123074
H	 1.6776829786	-0.1507146654	-1.4219058067	 0.081331
H	 2.105480769	-2.6656472076	-1.1443731372	 0.111791
H	 0.8291111555	-2.670957449	 0.1721385712	 0.132058
H	 0.3432020017	-1.7933656439	-2.7788354696	 0.084455
H	-1.6575268759	-3.344747733	-2.7786151198	 0.083132
H	-1.7175664969	-5.2149701976	-1.0653812232	 0.111636
H	-1.3713401599	-3.9938350992	 0.2496460425	 0.122737
H	-3.4325072642	-2.7089930866	-0.3223282319	 0.127125
H	-3.8513690981	-3.8976320542	-1.6456907821	 0.113864
25.3405	89.253	93.5101	151.4439	199.1166	219.6585	291.3593	346.6698	386.9912	437.3115	517.872	635.8865	755.4257	761.4433	814.1565	814.9026	839.8675	869.6878	968.1602	984.3578	1012.8405	1045.7734	1057.6847	1071.732	1078.6017	1091.0431	1127.5214	1127.9287	1157.9748	1171.9493	1187.2157	1194.3422	1197.6425	1231.0084	1244.4825	1272.077	1359.3215	1390.3725	1419.0854	1452.2399	1465.8928	1487.0819	1488.8821	1501.3755	1509.3634	2986.1587	3063.5445	3071.6521	3086.8862	3097.8971	3120.4231	3137.7218	3141.7984	3143.4704	3222.3169	3235.6685	3239.5918
COC1CC1OC1CC1	CO[C@H]1C[C@H]1OC1CC1	
InChI=1S/C7H12O2/c1-8-6-4-7(6)9-5-2-3-5/h5-7H,2-4H2,1H3	InChI=1S/C7H12O2/c1-8-6-4-7(6)9-5-2-3-5/h5-7H,2-4H2,1H3/t6-,7+/m0/s1
