23
gdb 72162	2.23737	2.07413	1.62424	0.1301	87.6	-0.2676	0.0826	0.3502	992.0992	0.20972	-351.169567	-351.162214	-351.16127	-351.200655	31.646	
C	-0.0084086198	 1.5292042245	-0.0067298892	-0.508633
C	-0.02053431	 0.0166163658	-0.0241800969	 0.362699
C	 0.2499955341	-0.7921138258	-1.3175394341	-0.282004
C	-0.4173785981	-1.943522824	-0.521560542	-0.035986
C	 0.6518804694	-2.1959529233	 0.5579097731	-0.222467
C	 0.72907827	-0.7430479487	 1.1231769037	-0.042215
C	-0.2459204726	-0.6586032757	 2.3129326011	-0.217992
C	-1.6194353327	-0.9843637223	 1.6498882892	-0.24589
C	-1.3173375902	-0.842857301	 0.1509053984	-0.022807
H	 1.0028013422	 1.9163225704	-0.1813847874	 0.113524
H	-0.657947366	 1.9390839031	-0.7877772915	 0.110933
H	-0.3516905022	 1.9315924103	 0.9525757881	 0.114465
H	-0.3628064886	-0.4349744342	-2.1504540331	 0.08728
H	 1.2839218171	-0.9305498986	-1.6515979875	 0.080234
H	-0.8497495295	-2.8124095248	-1.0201241414	 0.052024
H	 0.3543475733	-2.922385085	 1.3206397081	 0.086792
H	 1.5926743782	-2.5409271745	 0.118205665	 0.089297
H	 1.7390067815	-0.3886012582	 1.3420300226	 0.050183
H	 0.0194917189	-1.3555376021	 3.1137834062	 0.090162
H	-0.2520809633	 0.3459526758	 2.7494463497	 0.092123
H	-1.9721437916	-1.9901209337	 1.9019732361	 0.097299
H	-2.4006257477	-0.2879808481	 1.9692366673	 0.094249
H	-2.1569780724	-0.5434499298	-0.4798906355	 0.056731
187.5964	215.5147	250.4112	273.5346	395.7802	401.1924	460.5029	550.8433	612.2768	692.5041	699.7696	793.4188	813.9748	833.6028	859.4291	887.8252	892.3999	912.8098	930.7459	964.2623	973.2426	993.3301	1013.5227	1048.488	1070.7535	1074.4149	1094.7017	1109.7836	1166.9501	1182.6165	1193.8134	1201.2949	1216.6343	1237.4912	1257.8792	1278.3262	1280.6651	1300.0102	1310.9186	1332.7405	1342.8079	1364.2705	1411.4088	1484.6746	1491.9626	1493.9638	1497.4406	1506.986	1520.1694	3022.0957	3036.7974	3037.8114	3043.1339	3046.3296	3071.5753	3078.4176	3082.7276	3086.2441	3087.0771	3091.9575	3094.2473	3095.0168	3103.5395
CC12CC3CC1CCC23	C[C@@]12C[C@H]3C[C@@H]1CC[C@@H]23	
InChI=1S/C9H14/c1-9-5-6-4-7(9)2-3-8(6)9/h6-8H,2-5H2,1H3	InChI=1S/C9H14/c1-9-5-6-4-7(9)2-3-8(6)9/h6-8H,2-5H2,1H3/t6-,7+,8-,9-/m1/s1
