21
gdb 53673	6.02643	0.51917	0.50798	1.9243	88.01	-0.2427	0.0576	0.3003	2200.3628	0.18092	-387.047052	-387.036542	-387.035598	-387.085851	35.506	
C	-0.0199745175	 1.507830407	 0.023657157	-0.497123
C	-0.002128931	 0.0523571863	 0.0670430249	 0.113516
C	 0.0234073352	-1.1509132456	 0.105450172	 0.022781
C	 0.0178606419	-2.6089390356	 0.1442863008	-0.359496
C	-1.3689553051	-3.2186811746	-0.1493757716	-0.199321
C	-1.3627020971	-4.7403255517	-0.0941596506	-0.020126
C	-1.2866665843	-5.4134544854	 1.2979621783	-0.075779
O	-2.5422783243	-6.0906118674	 1.0930802688	-0.271044
C	-2.7273399773	-5.4599820206	-0.1900647167	-0.096554
H	 0.6675989927	 1.8932833293	-0.7374877494	 0.146069
H	-1.0202142398	 1.8873878542	-0.2132804587	 0.146236
H	 0.276960601	 1.9398283517	 0.9858720586	 0.14639
H	 0.7440324778	-3.0018482322	-0.580582811	 0.124067
H	 0.363317952	-2.95213621	 1.1292491583	 0.127436
H	-2.0949610466	-2.824697772	 0.5721872657	 0.110928
H	-1.7020517026	-2.8848518833	-1.1393605033	 0.109225
H	-0.6241975356	-5.1401966116	-0.7958786671	 0.078143
H	-0.4619402045	-6.1184418901	 1.4581785801	 0.10075
H	-1.3292458245	-4.7197679912	 2.1498396563	 0.096433
H	-3.6005345693	-4.7929084306	-0.1982279866	 0.097467
H	-2.8358678312	-6.1945008568	-0.9973547158	 0.100004
15.7446	37.7797	63.2562	79.4302	106.4708	191.3109	218.4719	279.0169	362.7009	380.8057	404.4446	504.4093	728.878	768.6986	800.4615	877.8199	893.3164	944.3069	973.7984	1007.7934	1042.8331	1052.4079	1053.5812	1076.7741	1111.7359	1140.4655	1160.5684	1165.1065	1169.8748	1230.8316	1256.8381	1294.61	1311.8578	1318.7402	1355.1166	1384.1783	1402.3261	1415.6146	1473.7057	1479.2424	1479.577	1493.419	1512.449	1537.8651	2374.219	2992.8119	3003.9738	3005.9157	3024.9391	3030.2087	3030.9358	3039.1906	3045.6517	3060.3885	3078.1928	3084.7273	3084.8387
CC#CCCC1COC1	CC#CCCC1COC1	
InChI=1S/C8H12O/c1-2-3-4-5-8-6-9-7-8/h8H,4-7H2,1H3	InChI=1S/C8H12O/c1-2-3-4-5-8-6-9-7-8/h8H,4-7H2,1H3
