19
gdb 71838	2.44418	1.86095	1.55948	2.3054	78.9	-0.2387	-0.0014	0.2372	973.1854	0.159802	-382.046783	-382.038864	-382.03792	-382.078637	31.279	
C	-0.0899707941	 1.5208340716	 0.0265777337	-0.493388
C	-0.0727755612	 0.0280209544	-0.0855819662	 0.287807
C	 0.7412765827	-0.8036755832	-1.0785438903	-0.280173
C	-0.1710706195	-2.0258307193	-0.7180160756	-0.081883
N	 0.5104758093	-2.7350428511	 0.3784512302	-0.193045
C	 0.4229830247	-1.9320955317	 1.362690261	 0.026058
N	-0.371154884	-0.7546388976	 1.1964577192	-0.231126
C	-1.147209264	-1.0033706293	-0.0392840127	 0.296763
C	-2.6419616999	-0.9502696115	-0.0476008127	-0.523266
H	 0.8745326051	 1.8936944094	 0.3895051564	 0.12916
H	-0.2797218945	 1.9808619221	-0.9493079309	 0.120841
H	-0.8623333535	 1.8487849102	 0.7264675897	 0.134424
H	 0.5489786332	-0.4478838487	-2.0942027132	 0.109897
H	 1.8160912332	-0.9358032074	-0.9228138988	 0.104041
H	-0.5058196058	-2.6829585295	-1.5179555659	 0.079094
H	 0.9053948509	-2.0955731431	 2.3213361628	 0.122881
H	-2.9984099166	-0.0837318369	 0.516222636	 0.134698
H	-3.0243161778	-0.8775388417	-1.0714301702	 0.123232
H	-3.0676260784	-1.8507815168	 0.4085899874	 0.133986
175.7645	182.2746	185.1396	212.4607	295.137	307.0432	394.2635	477.6098	554.7164	589.322	618.9024	704.6608	769.8371	814.1771	837.5459	889.7688	909.7036	926.4017	950.8642	967.5065	1004.0723	1050.2475	1100.0762	1106.7492	1138.3825	1152.4191	1171.4787	1184.9106	1219.2503	1280.1586	1306.3241	1314.2265	1405.2348	1409.4682	1453.8308	1479.32	1482.2515	1487.6173	1490.8587	1503.5459	1657.3943	3031.7347	3033.0592	3052.0222	3091.9671	3095.4633	3110.8497	3115.6618	3122.4562	3139.0782	3191.7291
CC12CC3N=CN1C23C	C[C@@]12C[C@H]3[N][CH]N1[C@@]23C	
InChI=1S/C7H10N2/c1-6-3-5-7(6,2)9(6)4-8-5/h4-5H,3H2,1-2H3	InChI=1S/C7H10N2/c1-6-3-5-7(6,2)9(6)4-8-5/h4-5H,3H2,1-2H3/t5-,6+,7-,9?/m1/s1
