12
gdb 133459	3.56158	1.20521	1.06787	2.6827	52.87	-0.2522	-0.0023	0.2499	1049.2625	0.076136	-563.209972	-563.20273	-563.201786	-563.243902	25.839	
F	 0.4567168047	 0.159430616	 0.2235649241	-0.081974
C	-0.0193498934	 1.4055855551	 0.0265178654	 0.213381
F	 1.0524868449	 2.1711169331	-0.2572317748	-0.075808
F	-0.8047972933	 1.3874950829	-1.0523332206	-0.060296
C	-0.7647975906	 1.8977308375	 1.2101649771	 0.148862
C	-2.0139381757	 2.4451210833	 1.3438165912	-0.158946
N	-2.2572551039	 2.7653451926	 2.6554404137	-0.252476
C	-1.1701398358	 2.4165503697	 3.3071925876	 0.0264
N	-0.2293531078	 1.8856981195	 2.4798994187	-0.320163
H	-2.7418009272	 2.6208051035	 0.5675476178	 0.134677
H	-1.0067545957	 2.521006769	 4.369331359	 0.144351
H	 0.6766635939	 1.5299331077	 2.7382676608	 0.281992
12.268	134.5359	168.7876	374.1883	383.9222	410.8632	520.8689	555.7079	582.7232	679.8297	706.2214	743.6792	834.1483	881.8588	929.7429	989.353	1105.5563	1135.4944	1152.9753	1159.8552	1210.6319	1273.6111	1333.1983	1399.7533	1445.1608	1496.1146	1617.9135	3256.1087	3265.4212	3659.2717
FC(F)(F)C1=CN=CN1	FC(F)(F)c1cnc[nH]1	
InChI=1S/C4H3F3N2/c5-4(6,7)3-1-8-2-9-3/h1-2H,(H,8,9)	InChI=1S/C4H3F3N2/c5-4(6,7)3-1-8-2-9-3/h1-2H,(H,8,9)
