18
gdb 85189	2.46518	1.46638	1.06582	3.0369	73.59	-0.2457	-0.0282	0.2175	1151.3276	0.146292	-439.049695	-439.041138	-439.040193	-439.083709	31.86	
O	 0.0062900855	 1.4392963213	-0.028496414	-0.441561
C	 0.0938344253	 0.0455023252	 0.1005748431	 0.111767
C	 0.2139938207	-0.3761309538	 1.5950907072	-0.355357
C	-1.3054047918	-0.5939941932	 1.5859088688	 0.390565
O	-2.1639023625	-0.6353936306	 2.4170381596	-0.29696
C	-1.3366730419	-0.6008190075	 0.0359039714	-0.11052
N	-2.326653109	 0.208117424	-0.6324218709	-0.096752
C	-3.0998366257	-0.3735503999	-1.7309491978	-0.230052
C	-3.738253705	-0.1168323629	-0.4130875896	-0.207422
H	-0.8612869282	 1.608262719	-0.4341970976	 0.288793
H	 0.8429948765	-0.3737965824	-0.580066021	 0.071439
H	 0.7572147329	-1.3147683532	 1.7492250207	 0.125683
H	 0.595510238	 0.3866703349	 2.2756434964	 0.143128
H	-1.294804673	-1.6427739422	-0.3180315215	 0.092512
H	-3.2865370168	 0.2882916707	-2.5710944054	 0.126922
H	-2.8902466752	-1.4067535217	-2.0004440729	 0.119757
H	-3.9609588817	-0.9687990685	 0.2217949976	 0.139112
H	-4.3949749082	 0.7368736009	-0.2772681242	 0.128947
50.2017	75.492	142.8425	181.9057	314.9547	335.3144	379.4924	431.5586	506.5237	524.374	578.4424	696.7492	753.6932	795.3183	860.4718	881.244	890.0004	909.6731	981.2598	1027.9211	1047.3801	1070.3192	1078.3655	1120.8199	1125.1693	1132.7014	1175.1694	1184.8768	1200.836	1227.7005	1258.1061	1313.7966	1343.4557	1372.1704	1419.6154	1428.7185	1494.4074	1521.1917	1890.9512	2983.5954	3039.1925	3060.1988	3104.3948	3124.3147	3135.7467	3192.4272	3214.486	3637.0961
OC1CC(=O)C1N1CC1	O[C@H]1CC(=O)[C@H]1N1CC1	
InChI=1S/C6H9NO2/c8-4-3-5(9)6(4)7-1-2-7/h4,6,8H,1-3H2	InChI=1S/C6H9NO2/c8-4-3-5(9)6(4)7-1-2-7/h4,6,8H,1-3H2/t4-,6-/m0/s1
