20
gdb 108334	2.72161	1.55757	1.27833	0.6143	77.65	-0.2305	0.0493	0.2798	1076.9531	0.17117	-403.071807	-403.063795	-403.062851	-403.104158	31.652	
C	 0.0630367636	 1.5522632232	 0.0642482353	-0.385029
C	 0.0149102498	 0.0207914333	-0.0012187243	-0.268813
C	 0.6350046959	-0.5146421482	-1.2685200479	 0.330701
C	-0.1021162865	-0.3767285804	-2.6151294744	-0.141784
O	 0.1608414177	-1.7693438564	-2.9382099146	-0.300294
C	 0.78374047	-1.9916925778	-1.6513239405	 0.031338
C	 2.3072831392	-1.8030463519	-1.6055769351	-0.042232
C	 2.7437346078	-0.7493921452	-2.5339304887	-0.255093
N	 2.1554872422	-0.3220816946	-1.2498434813	-0.18725
H	 1.0957623965	 1.9021358338	-0.0172503513	 0.141673
H	-0.5145558151	 2.0061602793	-0.7489094776	 0.11289
H	-0.3504730461	 1.9181345856	 1.008394778	 0.113543
H	 0.5551215221	-0.4006127037	 0.8546493319	 0.106874
H	-1.0210577241	-0.3339743986	 0.0672465793	 0.096825
H	-1.1788538269	-0.1920792752	-2.5084875196	 0.103169
H	 0.3077779578	 0.3154872577	-3.3591815225	 0.108562
H	 0.3578993669	-2.8351226383	-1.1034577932	 0.08122
H	 2.995555716	-2.4439771371	-1.0631848904	 0.094731
H	 3.8074561645	-0.5361549187	-2.5793868037	 0.122895
H	 2.2144298287	-0.6114574069	-3.4702694093	 0.136073
100.063	155.401	196.5735	237.4988	318.2137	328.1692	367.0018	461.9486	552.813	630.9673	686.202	742.6904	768.0641	802.92	871.2887	891.6254	928.278	954.6003	980.0564	988.4933	994.3367	1035.3862	1041.9698	1055.704	1106.6319	1123.7273	1136.7372	1147.5373	1189.811	1207.132	1225.0362	1269.6408	1300.323	1316.3584	1348.0549	1358.7377	1390.9731	1405.7742	1477.7499	1494.0665	1498.1602	1509.6866	1519.312	3012.5946	3027.5949	3036.6636	3061.8657	3065.9512	3087.7933	3103.0727	3122.2313	3129.0446	3157.7558	3214.7926
CCC12COC1C1CN21	CC[C@]12CO[C@H]1[C@H]1CN21	
InChI=1S/C7H11NO/c1-2-7-4-9-6(7)5-3-8(5)7/h5-6H,2-4H2,1H3	InChI=1S/C7H11NO/c1-2-7-4-9-6(7)5-3-8(5)7/h5-6H,2-4H2,1H3/t5-,6+,7+,8?/m1/s1
