23
gdb 59830	3.53278	0.59017	0.57397	1.489	91.7	-0.2422	0.0584	0.3006	2082.5883	0.202453	-388.277981	-388.266325	-388.265381	-388.317103	41.399	
C	 1.0173320733	 0.3994586539	 0.0134367134	-0.402297
C	-0.4338657155	-0.0631255943	-0.0888255812	 0.145493
O	-1.3268601256	 1.0344165218	-0.251010137	-0.434714
C	-0.6862708675	-0.966680026	-1.3091788531	-0.337054
C	 0.0292153051	-2.2353789228	-1.2530961744	-0.005202
C	 0.6198368475	-3.2843453138	-1.1912362784	 0.122379
C	 1.3474421798	-4.5528485754	-1.1218066055	-0.123458
C	 2.535198295	-4.5684005195	-2.1044209002	-0.37243
C	 1.8094130821	-4.8506126189	 0.3185512278	-0.372684
H	 1.6916865487	-0.4579250657	 0.0897230603	 0.13143
H	 1.2915929801	 0.9854080484	-0.8701563115	 0.121211
H	 1.1651136274	 1.0262027467	 0.9006483629	 0.10271
H	-0.6943535065	-0.6351887771	 0.8160443354	 0.073464
H	-1.1474507286	 1.6689997881	 0.4495507391	 0.280956
H	-1.7667773116	-1.1417362713	-1.3743139763	 0.133593
H	-0.4097570344	-0.4079739727	-2.2129118614	 0.127824
H	 0.6563759004	-5.3535898919	-1.4214191179	 0.1026
H	 3.2620243428	-3.7933111989	-1.8417311387	 0.120846
H	 3.0418346856	-5.5385752271	-2.0742622475	 0.109825
H	 2.2005045183	-4.3844001482	-3.1286428215	 0.122872
H	 0.9615507309	-4.8663329107	 1.0083877825	 0.121969
H	 2.3114121663	-5.8225268261	 0.3638390229	 0.110454
H	 2.5123629364	-4.0855724485	 0.6632286103	 0.120214
8.2423	59.0076	66.0629	137.0884	182.6235	229.6197	246.6791	264.3002	267.6822	298.7412	332.8992	352.2747	383.7552	448.8422	462.7573	537.2071	567.6375	726.047	837.9685	886.2778	897.6947	930.4655	953.3394	963.2785	1061.8841	1082.6938	1100.5479	1120.5356	1126.9517	1150.0493	1208.4363	1225.9546	1272.6129	1325.3829	1327.9754	1351.1093	1382.5025	1394.5325	1405.5339	1416.5738	1419.3585	1472.4478	1485.5569	1488.7988	1493.9296	1498.1515	1498.6302	1509.9799	2361.6373	2971.7208	3000.6669	3022.8659	3028.5934	3033.8826	3037.4943	3060.6166	3095.4241	3103.9903	3109.359	3117.0589	3118.9198	3120.7421	3822.8081	8.2404	59.0074	66.0628	137.0883	182.6236	229.6196	246.6787	264.3001	267.682	298.7412	332.8992	352.2755	383.7551	448.8422	462.7573	537.2076	567.6376	726.047	837.9685	886.2778	897.6948	930.4655	953.3394	963.2785	1061.8842	1082.6939	1100.548	1120.5356	1126.9517	1150.0494	1208.4364	1225.9548	1272.613	1325.3829	1327.9755	1351.1092	1382.5025	1394.5325	1405.534	1416.5738	1419.3585	1472.4482	1485.5569	1488.7988	1493.9298	1498.1515	1498.6304	1509.98	2361.6377	2971.7207	3000.6669	3022.8659	3028.5934	3033.8826	3037.4943	3060.6166	3095.4242	3103.9903	3109.359	3117.0589	3118.9198	3120.742	3822.808
CC(O)CC#CC(C)C	C[C@@H](O)CC#CC(C)C	
InChI=1S/C8H14O/c1-7(2)5-4-6-8(3)9/h7-9H,6H2,1-3H3	InChI=1S/C8H14O/c1-7(2)5-4-6-8(3)9/h7-9H,6H2,1-3H3/t8-/m1/s1
