20
gdb 53975	2.77654	1.13598	1.00034	3.2873	76.31	-0.2502	-0.0272	0.223	1266.7925	0.167207	-440.334067	-440.323381	-440.322437	-440.369841	38.325	
C	-0.051046174	 1.5267263765	-0.0688794172	-0.495058
C	-0.0351881552	 0.0071120607	 0.0253835341	 0.364301
O	-0.1114534396	-0.5512558541	 1.0931751258	-0.299699
C	 0.0148952277	-0.816907146	-1.2828818077	 0.150692
C	 0.6438892776	-2.1934731154	-1.0226951903	-0.405106
C	-1.4582581097	-0.9679191556	-1.7359482174	-0.412786
N	 0.7851524606	-0.0681304947	-2.291450516	-0.3123
C	 0.93296017	-0.4307273157	-3.5960465566	 0.163481
O	 0.369464124	-1.3476642177	-4.1553100434	-0.325578
H	 0.9768213964	 1.9069397293	-0.1327067042	 0.142481
H	-0.5877748278	 1.8870044374	-0.9494022942	 0.146077
H	-0.4926901995	 1.9286782107	 0.8438034513	 0.153142
H	 0.0964615432	-2.7124115749	-0.2347593814	 0.13776
H	 0.6187901397	-2.784085458	-1.9402361757	 0.144491
H	 1.6833209374	-2.0879161129	-0.6981397639	 0.10973
H	-1.9223488596	 0.0073112496	-1.9111111215	 0.115747
H	-1.4959401767	-1.5381444068	-2.6638975849	 0.167752
H	-2.0238582448	-1.4909151503	-0.9606548905	 0.132591
H	 1.4364788946	 0.6265489698	-1.9609012428	 0.242552
H	 1.6448787957	 0.2408224181	-4.1186440334	 0.079731
50.5688	69.4688	160.218	173.403	209.7788	225.4203	244.3085	257.8018	262.5092	337.3362	350.2337	415.9569	471.9982	515.9188	540.7331	612.287	658.2749	823.883	835.4385	941.3448	943.3591	984.2712	1022.9506	1030.1139	1049.6969	1144.1994	1172.9135	1197.9743	1235.1641	1273.1316	1381.5258	1387.985	1408.5805	1437.41	1463.9626	1474.3511	1477.3251	1489.0867	1492.6305	1513.431	1526.3989	1803.6179	1813.2433	2921.125	3032.5732	3050.6209	3054.9805	3106.3349	3122.0643	3129.6457	3155.0357	3157.2233	3161.2406	3624.3888
CC(=O)C(C)(C)NC=O	CC(=O)C(C)(C)NC=O	
InChI=1S/C6H11NO2/c1-5(9)6(2,3)7-4-8/h4H,1-3H3,(H,7,8)	InChI=1S/C6H11NO2/c1-5(9)6(2,3)7-4-8/h4H,1-3H3,(H,7,8)
