23
gdb 113578	3.86153	0.90454	0.83546	1.5629	85.99	-0.2464	0.0898	0.3362	1495.805	0.206452	-388.286791	-388.277479	-388.276535	-388.321664	35.036	
C	-0.070218025	 1.5811100145	-0.3745848843	-0.372976
C	-0.0318959047	 0.1644877058	 0.2110375182	-0.200253
C	-1.3840128277	-0.5179787497	 0.1731932887	-0.035765
C	-1.8367671603	-1.2761183551	-1.0549108709	-0.340989
C	-1.5481891254	-2.0158414777	 0.2273205496	 0.320381
C	-0.3864795252	-3.0113779558	 0.3525504423	-0.316694
C	-0.9319805422	-4.032349553	 1.3689938935	-0.077038
O	-2.3436690629	-3.9999435379	 1.2202507044	-0.24254
C	-2.6858850908	-2.6342467239	 1.049557705	-0.148676
H	 0.9167568442	 2.0528575766	-0.3398440921	 0.109902
H	-0.401536666	 1.5648274994	-1.4180639028	 0.119014
H	-0.7647299271	 2.2195402523	 0.1825088412	 0.114027
H	 0.6983924394	-0.4381507412	-0.3425176958	 0.096071
H	 0.3312663132	 0.2076918059	 1.2469063659	 0.094783
H	-2.1663299818	 0.0413967285	 0.686757837	 0.075399
H	-2.8688115322	-1.1850107091	-1.3802954811	 0.106568
H	-1.1226560498	-1.382582333	-1.8675436836	 0.105578
H	-0.1846882974	-3.4967312272	-0.6072939619	 0.107843
H	 0.5438110536	-2.5519664926	 0.6973006549	 0.102797
H	-0.5973432047	-5.0573896503	 1.1917136235	 0.107315
H	-0.6458818241	-3.7467426238	 2.3953553032	 0.085913
H	-2.7706559686	-2.1337940345	 2.0303067352	 0.083348
H	-3.6610134345	-2.5886984682	 0.5555019999	 0.105991
37.1342	88.012	136.3309	166.5713	243.7677	271.9484	294.1067	339.91	424.7884	437.005	564.331	664.3249	748.4066	782.5483	810.6517	858.8354	893.9299	929.6346	940.1398	964.5116	970.2908	987.1106	1022.5643	1051.1773	1077.9682	1086.4024	1107.3901	1128.6001	1138.0423	1191.9543	1210.5463	1219.6018	1248.7374	1277.293	1293.848	1297.8502	1322.6127	1344.9377	1363.911	1405.8084	1409.5524	1432.6855	1482.7903	1491.575	1495.0796	1497.8652	1507.1741	1508.869	1522.5462	2945.2422	2962.6124	3012.8651	3031.6962	3047.6969	3051.7125	3075.8925	3091.162	3097.0733	3101.1963	3103.4391	3105.3074	3109.9966	3194.4532
CCC1CC11CCOC1	CC[C@H]1C[C@]21CCOC2	
InChI=1S/C8H14O/c1-2-7-5-8(7)3-4-9-6-8/h7H,2-6H2,1H3	InChI=1S/C8H14O/c1-2-7-5-8(7)3-4-9-6-8/h7H,2-6H2,1H3/t7-,8+/m0/s1
