16
gdb 78129	2.20514	1.70352	1.33023	2.0613	69.8	-0.2522	-0.0437	0.2086	1007.2835	0.122421	-437.871106	-437.86271	-437.861766	-437.904437	30.262	
C	-0.0819123004	 1.5323744633	-0.0627965917	-0.412808
C	 0.0218583401	 0.0426673485	-0.2797430294	 0.012324
C	 0.7900894459	-0.6715051715	-1.3118709193	-0.052657
C	 2.1146756394	-0.0221127511	-1.6873981857	-0.241311
C	 2.1878645128	 1.2403160488	-2.5015829587	 0.1409
O	 1.232702493	 1.8001046495	-2.9774182379	-0.242138
C	 2.3856849016	-0.0114430583	-0.1485452007	 0.374868
O	 3.2744777654	 0.3629249709	 0.5458989541	-0.286026
N	 1.2038191252	-0.770364677	 0.1779769241	-0.197532
H	 0.8377906813	 2.0710714077	-0.2925114526	 0.138232
H	-0.8722840307	 1.9387086645	-0.7003042755	 0.145491
H	-0.3398348992	 1.7342790518	 0.9813507346	 0.136108
H	-0.8821173341	-0.4892038463	 0.0104408499	 0.12039
H	 0.3991716954	-1.5536108882	-1.8045365067	 0.121141
H	 2.8205939636	-0.7490020371	-2.1098941239	 0.142429
H	 3.2181995309	 1.6372846948	-2.6296451107	 0.10059
92.1503	109.9734	141.9037	174.021	216.5532	263.7766	360.1323	449.1277	534.601	626.2432	658.5627	670.4677	758.5598	822.2608	838.3537	897.6035	940.7958	971.0914	1025.0526	1043.7689	1060.5449	1095.4154	1102.6969	1166.0445	1177.6304	1267.3301	1330.1967	1360.2854	1420.6568	1422.3669	1439.2822	1480.544	1498.3287	1815.9322	1913.7101	2901.186	3045.8146	3052.3929	3117.4382	3129.7395	3151.7386	3192.1402
CC1C2C(C=O)C(=O)N12	C[C@H]1[C@H]2[C@@H](C=O)C(=O)N12	
InChI=1S/C6H7NO2/c1-3-5-4(2-8)6(9)7(3)5/h2-5H,1H3	InChI=1S/C6H7NO2/c1-3-5-4(2-8)6(9)7(3)5/h2-5H,1H3/t3-,4+,5-,7?/m0/s1
