20
gdb 87724	2.39662	1.46174	1.3432	2.4755	75.4	-0.2453	0.0728	0.3182	1086.0753	0.170384	-440.238669	-440.229871	-440.228927	-440.271855	34.208	
C	-0.2495003225	 1.3176520044	-0.0035060316	-0.323371
N	 0.0669337175	-0.0999564456	 0.1131162366	-0.132472
C	 1.444913159	-0.5285759584	-0.1538241447	-0.338049
C	 0.8992766519	-0.5470320994	 1.2223381201	 0.307004
C	 1.215490731	 0.249880793	 2.4928858381	-0.331043
C	 0.2253999655	-0.6766528351	 3.2532102848	 0.10551
O	-1.058334191	-0.1034689615	 3.3160847046	-0.448508
C	 0.3020598004	-1.6918985967	 2.0562545749	 0.046908
O	-0.932999653	-2.1728795231	 1.599111018	-0.44138
H	 0.6126606477	 1.9747210484	 0.1856592001	 0.108071
H	-0.6191342524	 1.5193608285	-1.0132145549	 0.126166
H	-1.0349626798	 1.5631496155	 0.7172061959	 0.142619
H	 1.5573996314	-1.4479121614	-0.7234608453	 0.120918
H	 2.1702478012	 0.2487305398	-0.3934708115	 0.113647
H	 2.252444327	 0.1214569329	 2.8170344692	 0.106394
H	 0.9590098093	 1.3105259261	 2.5084536044	 0.117916
H	 0.549470707	-1.040554126	 4.2359171898	 0.062719
H	-1.6498245708	-0.7713323832	 2.9349681981	 0.2854
H	 0.9918026366	-2.5224213328	 2.2418900123	 0.080629
H	-1.1152867461	-1.6358150654	 0.8048762913	 0.290923
72.1731	154.6469	196.6518	231.024	248.6949	278.9823	367.8387	423.102	434.3577	464.1103	502.5413	586.0851	662.8722	693.9081	771.2264	790.6472	859.362	869.5599	895.5041	931.4513	1006.1295	1049.2753	1095.3478	1108.2372	1125.5984	1142.7055	1164.201	1171.3024	1179.7671	1207.0594	1228.6232	1256.2636	1268.7822	1336.5481	1366.0171	1400.6536	1410.2331	1437.3842	1444.1914	1469.2958	1491.3938	1499.647	1511.1421	2989.412	3021.649	3050.0172	3064.6048	3078.1626	3086.6256	3115.9891	3126.0357	3173.5097	3586.6403	3692.7683
CN1CC11CC(O)C1O	CN1C[C@]21C[C@@H](O)[C@H]2O	
InChI=1S/C6H11NO2/c1-7-3-6(7)2-4(8)5(6)9/h4-5,8-9H,2-3H2,1H3	InChI=1S/C6H11NO2/c1-7-3-6(7)2-4(8)5(6)9/h4-5,8-9H,2-3H2,1H3/t4-,5-,6-,7?/m1/s1
