19
gdb 68370	2.95322	1.52699	1.20988	4.5316	74.91	-0.2587	0.0128	0.2714	1066.3821	0.160195	-423.066792	-423.059123	-423.058179	-423.098632	30.852	
C	-0.0592262649	 1.5600548996	 0.1026690354	-0.477227
C	 0.0530357416	 0.0523791278	-0.0221664433	 0.300712
C	 1.1980897238	-0.5719610531	-0.882305188	-0.275312
C	 1.1228431906	-1.7663038892	 0.0928388712	 0.116877
C	 0.6144439647	-0.7854378476	 1.1710109444	-0.275313
O	 0.076713161	-2.6754940062	-0.2990430697	-0.234309
C	-1.1384473447	-2.1395196998	-0.5886943095	 0.413011
O	-2.0445874064	-2.8515068776	-0.92030042	-0.333337
C	-1.2547655467	-0.6181530264	-0.4636176249	-0.387122
H	 0.8920558811	 2.0005789262	 0.4188827913	 0.114783
H	-0.3399370014	 2.016629124	-0.8535503054	 0.120679
H	-0.8211114394	 1.8406462641	 0.8391562118	 0.120679
H	 1.0126185262	-0.773455959	-1.9407964005	 0.109107
H	 2.1366215204	-0.023416816	-0.7672444356	 0.106941
H	 1.9967831866	-2.3897534666	 0.2764336168	 0.092844
H	 1.4442667041	-0.2766571193	 1.6685228525	 0.106941
H	-0.0839072922	-1.1745255396	 1.9168794319	 0.109107
H	-2.0678049533	-0.4148502801	 0.2431131636	 0.135468
H	-1.5903748312	-0.2402626513	-1.4364485519	 0.13547
105.7321	216.2722	244.9415	264.6799	367.2994	400.5851	433.4344	443.2422	495.639	583.0819	608.48	663.6537	793.5778	836.0494	849.201	899.1245	923.7323	928.6318	945.4458	1011.607	1014.2741	1026.9933	1076.2902	1119.3196	1155.4337	1191.0092	1203.1645	1219.9991	1241.0315	1261.0621	1278.1952	1287.7369	1357.2719	1390.8909	1413.4113	1457.3568	1467.4091	1491.3926	1492.3777	1499.6515	1856.0558	3022.766	3040.7665	3054.7104	3061.1066	3078.4133	3088.4423	3096.389	3116.349	3118.2139	3125.7868
CC12CC(C1)OC(=O)C2	C[C@@]12C[C@@H](C1)OC(=O)C2	
InChI=1S/C7H10O2/c1-7-2-5(3-7)9-6(8)4-7/h5H,2-4H2,1H3	InChI=1S/C7H10O2/c1-7-2-5(3-7)9-6(8)4-7/h5H,2-4H2,1H3/t5-,7+
