17
gdb 52137	4.4802	0.80192	0.71709	2.518	72.17	-0.2424	-0.0018	0.2406	1519.5748	0.134915	-458.979317	-458.970488	-458.969543	-459.014945	30.1	
O	 0.33706997	 0.1093580596	-0.216879796	-0.268832
C	 0.3927878692	 1.2980572767	-0.2963871923	 0.176876
O	 0.8238105978	 2.0759824226	 0.7183223466	-0.167373
C	 0.9115417926	 3.4821066195	 0.4783690917	-0.205673
C	 2.3061027838	 3.9126656387	 0.1644031096	 0.274257
C	 3.4098322536	 3.1755160679	 0.0925443489	-0.199097
C	 4.5826664959	 4.0486152567	-0.2460249848	-0.104155
O	 4.0481767819	 5.3652560343	-0.3756056639	-0.262607
C	 2.6511697702	 5.3546796998	-0.1185634335	-0.148593
H	 0.0926873512	 1.8840929758	-1.1874563435	 0.081651
H	 0.2245854913	 3.7710636193	-0.3319785322	 0.120844
H	 0.5460533171	 3.9711399354	 1.3890607157	 0.141222
H	 3.4837237087	 2.1094936037	 0.259873334	 0.127647
H	 5.3549509181	 4.0332588837	 0.5392110389	 0.111792
H	 5.0725965803	 3.7521613536	-1.1865330594	 0.11157
H	 2.1051758837	 5.7530014162	-0.989813415	 0.104472
H	 2.4162733944	 6.0133500466	 0.7343870651	 0.105999
29.0546	61.2463	104.4662	130.3282	210.0847	222.414	349.1875	384.939	433.9026	661.085	698.8423	776.0536	813.8116	920.6857	928.0234	978.9629	984.3472	1032.6683	1040.0687	1055.0282	1077.7734	1112.4261	1157.9146	1178.4817	1194.5573	1225.5036	1274.0635	1308.2457	1356.1699	1397.5589	1411.9286	1432.5226	1490.9282	1517.0825	1529.8482	1736.7124	1871.4927	2944.2421	2959.0714	2973.8699	2978.3698	2993.1114	2994.8764	3055.5621	3233.1892
O=COCC1=CCOC1	O=COCC1=CCOC1	
InChI=1S/C6H8O3/c7-5-9-4-6-1-2-8-3-6/h1,5H,2-4H2	InChI=1S/C6H8O3/c7-5-9-4-6-1-2-8-3-6/h1,5H,2-4H2
