21
gdb 96496	2.45023	1.41774	1.01205	0.8784	80.45	-0.2399	0.0197	0.2596	1217.4051	0.183896	-424.219152	-424.210564	-424.20962	-424.251917	33.884	
O	-0.01064756	 1.4973386533	 0.0100819198	-0.432441
C	 0.0526151551	 0.0751108586	-0.0651481438	 0.112712
C	 0.8970510024	-0.4468764269	 1.1125818472	-0.097493
O	 1.2210779967	-1.8174176109	 0.9931952064	-0.234902
C	 0.6041251197	-2.7006592256	 1.9066256837	-0.060126
C	-0.9387387808	-2.7493104374	 1.8146717724	-0.28454
C	-1.4237193379	-2.8892490356	 0.400338829	-0.023402
C	-1.5954307149	-1.8612478237	-0.4312164756	-0.059876
C	-1.4076663184	-0.4056544474	-0.0772330278	-0.252396
H	 0.8860811572	 1.8413459386	-0.0572090142	 0.282602
H	 0.5411326861	-0.2489005064	-0.9972968348	 0.075285
H	 1.8444933211	 0.1133342762	 1.1190234297	 0.083945
H	 0.3860497987	-0.2217373454	 2.0591838297	 0.097522
H	 1.0221759246	-3.6843294208	 1.6691808989	 0.108824
H	 0.8929435652	-2.4552073881	 2.9414513281	 0.088604
H	-1.2791330278	-3.5849231332	 2.437187007	 0.099109
H	-1.3493002343	-1.8394209119	 2.2673592889	 0.107534
H	-1.5758293272	-3.8998110396	 0.0278944208	 0.085092
H	-1.8901524401	-2.0677116596	-1.4576406344	 0.086312
H	-1.8461056251	-0.1762624475	 0.9024713091	 0.107937
H	-1.9353671301	 0.2208573732	-0.8025657101	 0.109698
125.7895	156.8863	207.3393	257.3657	283.8775	290.658	356.568	382.4693	424.9523	472.7623	500.6426	558.6222	613.3264	735.4995	845.9998	872.0096	885.8149	899.5245	972.3341	999.1235	1000.1222	1026.467	1059.3441	1071.031	1077.1617	1132.7744	1151.94	1217.8915	1244.9228	1251.2388	1279.0574	1286.0775	1309.2511	1327.0063	1343.7906	1356.3058	1397.9194	1404.2015	1429.5686	1436.1581	1481.1671	1491.0823	1495.8957	1508.2792	1721.9895	2973.3125	2981.6032	2984.2715	3027.0647	3031.7223	3037.2942	3063.69	3081.326	3083.5255	3139.2894	3163.1131	3812.4268
OC1COCCC=CC1	O[C@H]1COCCC=CC1	
InChI=1S/C7H12O2/c8-7-4-2-1-3-5-9-6-7/h1-2,7-8H,3-6H2/b2-1-	InChI=1S/C7H12O2/c8-7-4-2-1-3-5-9-6-7/h1-2,7-8H,3-6H2/b2-1-/t7-/m1/s1
