22
gdb 64420	2.35767	1.62411	1.27805	0.3133	81.16	-0.2412	0.0738	0.315	1106.4201	0.195764	-404.346674	-404.338014	-404.33707	-404.379223	35.064	
C	-0.0526543585	 1.5324114638	 0.0308953291	-0.440328
C	 0.0146930537	 0.0029504517	-0.0105292658	 0.374772
O	-1.305293914	-0.5525511558	 0.1004126487	-0.474094
C	 0.6958156194	-0.4940375066	-1.3013386968	-0.23323
C	 0.893350245	-2.0134107836	-1.2778758358	-0.206653
C	 1.8756119384	-2.4416749166	-0.1741221293	-0.200481
C	 1.6386928392	-1.7080439039	 1.1396521647	-0.03237
N	 2.1933999584	-0.3405275931	 1.2355812485	-0.346951
C	 0.7375233597	-0.5266357747	 1.2180017617	-0.026367
H	 0.9535166159	 1.9598270268	 0.0551076071	 0.1322
H	-0.5681071955	 1.9237209052	-0.8549104728	 0.098511
H	-0.5995336856	 1.8656468479	 0.9184365707	 0.113335
H	-1.8341766953	-0.1852770403	-0.6158665728	 0.274135
H	 0.0717162015	-0.1982259999	-2.1547717585	 0.074186
H	 1.6594326406	 0.0138947923	-1.4168604825	 0.112434
H	-0.0814354276	-2.4803038839	-1.1000390881	 0.107571
H	 1.2496244976	-2.3686308218	-2.2505043313	 0.084895
H	 1.7907903118	-3.52071599	-0.005421258	 0.092753
H	 2.9071437565	-2.2512244763	-0.4931415322	 0.105525
H	 1.7069184599	-2.3179407421	 2.0378687404	 0.081279
H	 2.5135114737	-0.1511497406	 2.1810423116	 0.229128
H	 0.1828467749	-0.3698422084	 2.1411488713	 0.07975
102.3536	202.8224	244.5735	254.3114	284.5006	317.8907	323.406	399.9496	411.397	458.791	504.2663	529.3124	648.9547	715.1145	787.1643	831.6591	867.5659	893.71	914.3704	937.4892	945.0522	961.0202	1007.2066	1041.3232	1068.7246	1092.3295	1108.2649	1145.2718	1161.7702	1172.672	1211.5615	1235.6549	1255.3542	1269.0289	1293.6485	1346.3096	1369.4131	1380.8807	1385.9376	1397.9769	1420.0436	1458.5946	1477.6388	1480.1727	1491.6139	1494.7717	1503.2455	3018.2165	3025.9342	3030.5677	3042.1602	3066.9997	3073.3194	3089.4742	3093.2422	3119.2329	3120.9025	3131.2182	3507.1156	3806.9267
CC1(O)CCCC2NC12	C[C@@]1(O)CCC[C@H]2N[C@@H]12	
InChI=1S/C7H13NO/c1-7(9)4-2-3-5-6(7)8-5/h5-6,8-9H,2-4H2,1H3	InChI=1S/C7H13NO/c1-7(9)4-2-3-5-6(7)8-5/h5-6,8-9H,2-4H2,1H3/t5-,6-,7-/m1/s1
