13
gdb 132095	3.01921	1.46341	0.99173	2.4312	67.1	-0.2449	-0.0916	0.1534	1079.0287	0.087628	-497.896612	-497.889034	-497.88809	-497.929034	27.583	
C	 0.0909885692	 1.5065772768	 0.0361064641	-0.481116
C	-0.0343286924	 0.0246618177	-0.0019005314	 0.232541
C	-1.1667348519	-0.6921030814	-0.1962235436	 0.220949
F	-2.3326179348	-0.073530761	-0.380096862	-0.068092
N	-1.2077074045	-2.0418710489	-0.2190203197	-0.236488
C	-0.1000935701	-2.6866196223	-0.0450139886	-0.125453
C	 1.1957931647	-2.0413623574	 0.1752762074	 0.392395
O	 2.2555199172	-2.5767967149	 0.3427764518	-0.326158
O	 1.127739426	-0.6463798471	 0.1807440604	-0.238912
H	 0.7812426041	 1.8517426375	-0.7411369708	 0.158644
H	-0.8836002156	 1.9695981464	-0.1183420598	 0.158007
H	 0.4956630436	 1.8312877731	 1.0007173158	 0.15864
H	-0.1042068956	-3.7724236186	-0.0586177836	 0.155044
102.6024	125.6048	179.703	270.9607	354.1879	372.4899	449.6063	468.4794	517.4366	599.5414	613.9357	704.3278	768.7155	805.1082	858.8126	927.1635	1030.5051	1058.3123	1090.2366	1176.107	1293.2094	1334.661	1401.0724	1426.0243	1473.3102	1474.2	1574.2965	1687.7921	1845.6384	3041.4594	3096.5985	3159.0048	3183.2875
CC1=C(F)N=CC(=O)O1	Cc1c(F)ncc(=O)o1	
InChI=1S/C5H4FNO2/c1-3-5(6)7-2-4(8)9-3/h2H,1H3	InChI=1S/C5H4FNO2/c1-3-5(6)7-2-4(8)9-3/h2H,1H3
