19
gdb 31532	3.27475	1.11675	0.85653	1.7919	82.29	-0.1701	0.0458	0.216	1374.4679	0.159138	-419.232482	-419.222707	-419.221763	-419.267212	35.491	
C	-0.0795480187	 1.4436000065	-0.220258637	-0.32862
N	 0.3674766152	 0.0875613588	 0.0855124867	-0.386539
C	 0.7469576186	-0.7360588991	-0.960806001	 0.426957
C	 0.6386666744	-2.0796007955	-1.1700319246	-0.419212
C	 1.3411445094	-2.35255012	-2.3990074707	 0.293972
C	 1.5215270343	-3.6801528896	-3.0629384761	-0.506228
C	 1.8066270459	-1.1609704216	-2.8530503242	 0.163008
N	 2.5258655441	-0.8175883647	-3.9969183353	-0.598232
O	 1.4419532252	-0.1468706065	-1.9610080013	-0.207463
H	 0.7184721646	 1.9781216615	-0.7387777587	 0.148496
H	-0.9817566876	 1.4798305384	-0.8502633571	 0.111209
H	-0.2848768893	 1.9642141645	 0.7180930424	 0.122517
H	-0.2464826183	-0.3978357775	 0.7240558054	 0.24002
H	 0.1310373683	-2.7907342065	-0.5368509491	 0.08568
H	 0.5582504089	-4.1321422031	-3.3283488973	 0.119323
H	 2.1105910138	-3.5690239961	-3.9762410234	 0.136211
H	 2.036345016	-4.3907064363	-2.4054760457	 0.120578
H	 3.3958350402	-0.3400125934	-3.781886911	 0.239818
H	 1.998071445	-0.2277993199	-4.6338317816	 0.238504
58.1869	122.4305	140.9418	183.9945	202.2979	224.7931	253.8754	258.9195	347.7898	386.5523	520.986	558.8644	634.0816	653.1771	688.5002	706.283	732.0791	772.3118	824.6769	978.0574	996.7175	1063.1272	1066.8869	1078.5936	1146.8299	1154.2838	1198.7475	1213.8939	1255.0565	1354.6233	1396.7645	1419.619	1452.4101	1488.1345	1488.9151	1490.7825	1496.7389	1516.8815	1643.0323	1661.8086	1718.8796	2984.1749	3024.1605	3070.0825	3093.7232	3123.7562	3137.882	3246.2464	3482.0638	3543.2767	3596.6086
CNC1=CC(C)=C(N)O1	CNc1cc(C)c(N)o1	
InChI=1S/C6H10N2O/c1-4-3-5(8-2)9-6(4)7/h3,8H,7H2,1-2H3	InChI=1S/C6H10N2O/c1-4-3-5(8-2)9-6(4)7/h3,8H,7H2,1-2H3
