23
gdb 122897	4.88257	0.50959	0.47685	1.267	89.55	-0.2635	0.0339	0.2974	2334.5566	0.202546	-388.262854	-388.25141	-388.250466	-388.300388	40.81	
C	 0.0411795859	 1.5987234017	 0.0177024761	-0.380034
C	 0.019178174	 0.0678256122	 0.0260704098	-0.162564
C	-1.397920668	-0.5153244129	 0.0011807299	-0.167309
C	-1.4251767698	-2.0471243529	 0.0054602491	-0.179453
C	-2.8434467446	-2.622999233	-0.0224200106	-0.195844
C	-2.8634872299	-4.1633574827	 0.0227428814	-0.063877
O	-2.2024559119	-4.6762866948	 1.1788144179	-0.41541
C	-4.2314129894	-4.6804502181	-0.0844841702	 0.295767
C	-5.3648596985	-5.0793173411	-0.1291412669	-0.440455
H	 1.0652081377	 1.9847888502	 0.0357837373	 0.110785
H	-0.4487853175	 1.9966397567	-0.8780248539	 0.112722
H	-0.4837598964	 2.0072069324	 0.8885826095	 0.112565
H	 0.581067579	-0.3117361324	-0.8376715048	 0.094208
H	 0.5462777834	-0.302781029	 0.9150839771	 0.095342
H	-1.9597714977	-0.1381680754	 0.8674850177	 0.090292
H	-1.9281426889	-0.1415557073	-0.8861770431	 0.090379
H	-0.8657299848	-2.4236547028	-0.8625761553	 0.091519
H	-0.9047048766	-2.4289323387	 0.8909064814	 0.110408
H	-3.4256253572	-2.2445542633	 0.8287529838	 0.094886
H	-3.3723460063	-2.2973267376	-0.9265719447	 0.106749
H	-2.2730840755	-4.5441572324	-0.8205977426	 0.116858
H	-2.7853046345	-4.5278962423	 1.9320025055	 0.284193
H	-6.3597280128	-5.4472639563	-0.1833868446	 0.198271
53.4743	61.1625	78.4428	134.7617	144.7137	165.1331	212.3885	248.2889	252.9778	298.9333	342.7983	387.327	483.8289	557.3909	572.29	629.8465	670.4405	734.7101	761.0793	831.457	881.0715	910.3168	961.3927	1001.4951	1024.8343	1050.9095	1067.5047	1081.8601	1127.0138	1138.779	1224.3498	1247.8077	1271.1573	1298.4101	1319.2427	1330.9107	1338.0852	1357.1204	1389.7423	1401.7092	1413.193	1419.5213	1477.5401	1484.4037	1490.6371	1500.2741	1504.4854	1514.4676	2231.3707	3000.7621	3008.8383	3015.9623	3019.7208	3027.6345	3028.7948	3032.6135	3050.3058	3058.9214	3080.9957	3095.1872	3100.6188	3502.9964	3802.9061
CCCCCC(O)C#C	CCCCC[C@@H](O)C#C	
InChI=1S/C8H14O/c1-3-5-6-7-8(9)4-2/h2,8-9H,3,5-7H2,1H3	InChI=1S/C8H14O/c1-3-5-6-7-8(9)4-2/h2,8-9H,3,5-7H2,1H3/t8-/m0/s1
