15
gdb 14016	5.24802	1.31242	1.21742	1.9121	63.2	-0.2612	-0.0101	0.2511	981.8371	0.118179	-399.759235	-399.751834	-399.75089	-399.791515	26.166	
O	 0.2192680018	 0.1143254713	-0.5463841992	-0.277981
C	 0.1235236244	 1.2240489092	-0.0858290171	 0.133669
N	 1.1395848974	 1.8949565673	 0.5782435854	-0.107046
C	 2.5357011066	 1.8524256642	 0.1870906214	-0.300405
C	 1.7612239031	 3.1296637884	 0.179910472	 0.262104
C	 1.4216430178	 4.0528845494	-0.9928021654	-0.137427
O	 1.6313832484	 5.2063005147	-0.1519423777	-0.270519
C	 1.8938809714	 4.3976172696	 1.0172684167	-0.135722
H	-0.8187927909	 1.8039470359	-0.0846114575	 0.090871
H	 3.2465873802	 1.6555979281	 0.9852881024	 0.133441
H	 2.7652092975	 1.3845420122	-0.7676482142	 0.141984
H	 2.1135427649	 4.0246490228	-1.8430005906	 0.119115
H	 0.3904809907	 3.9928818529	-1.3634990919	 0.11472
H	 1.1262780645	 4.5192729435	 1.7913593537	 0.117715
H	 2.8832710521	 4.5969093104	 1.4453733119	 0.115481
85.2826	91.7496	173.3651	227.5437	325.8701	366.2389	411.3515	512.2306	667.7764	831.3904	879.9713	890.1101	950.8087	972.6346	994.2885	1029.8403	1037.7835	1115.1709	1119.6804	1137.2816	1147.0784	1159.6439	1192.7996	1243.1801	1304.7497	1351.2022	1415.184	1458.8724	1503.9601	1519.3856	1529.2857	1803.4141	2957.5097	3012.3789	3023.9949	3060.9328	3068.4034	3106.3427	3195.8149
O=CN1CC11COC1	O=CN1CC21COC2	
InChI=1S/C5H7NO2/c7-4-6-1-5(6)2-8-3-5/h4H,1-3H2	InChI=1S/C5H7NO2/c7-4-6-1-5(6)2-8-3-5/h4H,1-3H2
