21
gdb 96201	2.58414	1.34938	0.94285	0.9046	94.02	-0.2222	-0.0109	0.2113	1286.8036	0.182844	-349.954378	-349.945354	-349.94441	-349.987788	35.227	
C	-0.0120963445	 1.5746433023	-0.0203758651	-0.40246
C	 0.0347624488	 0.039674959	 0.0179102309	-0.074292
C	 0.6575277766	-0.5207918189	-1.2716253032	-0.193849
C	 0.9623268305	-2.016652451	-1.1661454788	-0.219838
C	 1.9762716799	-2.2732704631	-0.0447109972	-0.243355
C	 1.6403802168	-1.5062108807	 1.2022268114	-0.14115
C	 0.7648020769	-0.4867596072	 1.2544016151	 0.134446
C	 0.462712394	 0.126098783	 2.5060584175	 0.243202
C	 0.1795665002	 0.6516733947	 3.5535644304	-0.42169
H	 0.9987852109	 1.9944118252	-0.069095114	 0.11511
H	-0.5615127381	 1.9142546888	-0.9045354066	 0.10789
H	-0.5019631989	 1.9822263227	 0.8668260735	 0.128726
H	-1.0042259712	-0.3179906661	 0.0831489678	 0.087824
H	-0.0153700387	-0.3191181457	-2.1126400727	 0.091982
H	 1.5892925812	 0.0230103494	-1.4809148932	 0.095635
H	 0.0356170626	-2.5632136327	-0.9492157209	 0.100734
H	 1.3417990051	-2.4031338331	-2.1178788081	 0.092326
H	 2.0307376964	-3.3435567951	 0.1915964121	 0.106162
H	 2.988983839	-1.9994711061	-0.3791793527	 0.112322
H	 2.1316588085	-1.8139481819	 2.1214784356	 0.091411
H	-0.058467576	 1.1084312865	 4.481832548	 0.188864
71.3383	153.4878	169.971	223.0342	275.4336	294.5362	330.885	397.8507	437.5971	462.995	538.4229	572.2513	601.6908	632.6637	649.6424	724.115	831.9976	851.515	882.0198	908.3743	946.268	991.0595	1014.5367	1072.0044	1092.664	1108.7522	1124.632	1161.8643	1188.0431	1244.8313	1281.983	1321.0536	1331.0908	1362.2807	1372.3964	1380.4635	1383.9665	1411.1807	1471.6634	1486.4794	1494.3621	1497.6383	1501.8064	1682.1356	2213.1059	2984.4657	2990.3576	3012.9569	3023.7372	3033.926	3040.8088	3063.7756	3073.3958	3098.3429	3124.2513	3163.4717	3503.8118
CC1CCCC=C1C#C	C[C@H]1CCCC=C1C#C	
InChI=1S/C9H12/c1-3-9-7-5-4-6-8(9)2/h1,7-8H,4-6H2,2H3	InChI=1S/C9H12/c1-3-9-7-5-4-6-8(9)2/h1,7-8H,4-6H2,2H3/t8-/m0/s1
