16
gdb 8769	3.58963	1.21636	1.149	3.3117	67.11	-0.2467	-0.0263	0.2204	1084.2777	0.126368	-383.707183	-383.697744	-383.6968	-383.741867	32.881	
C	 0.1035046175	 1.5377098766	 0.0030291367	-0.428614
C	 0.0096334901	 0.0022820101	-0.0019179237	-0.062023
C	 0.7498245081	-0.5489392649	 1.205640831	 0.139669
O	 1.821121546	-1.0967055858	 1.1505099521	-0.24893
C	-1.4646513736	-0.4955806345	 0.0143507054	-0.074525
O	-2.170811452	-0.0284131982	 1.161345532	-0.421448
C	-2.1544355391	-0.1512004279	-1.2298054605	 0.29378
C	-2.7207089161	 0.1725974294	-2.2397660937	-0.431288
H	 1.1452892336	 1.8577405075	-0.0784934374	 0.138855
H	-0.4521501019	 1.9565550419	-0.8411322041	 0.137031
H	-0.3042191091	 1.9557271735	 0.9293471836	 0.123964
H	 0.4999512797	-0.397461974	-0.8949941386	 0.107339
H	 0.228301315	-0.3902615753	 2.1745249884	 0.096254
H	-1.453570355	-1.5880086776	 0.1162535764	 0.12975
H	-2.4930671115	 0.8583637566	 0.9685083463	 0.293413
H	-3.2292368718	 0.4372859426	-3.1343213637	 0.206772
43.0705	70.0263	137.7073	204.8581	220.5053	241.821	292.6186	299.5849	322.5338	425.1353	469.4607	573.5039	636.6274	680.3238	694.5742	833.0989	891.6696	936.9205	1000.6917	1012.3925	1092.673	1120.4831	1161.2289	1250.6117	1276.6162	1322.3015	1351.6217	1396.6422	1416.9736	1421.9476	1499.3374	1506.9299	1830.0329	2231.7921	2902.2719	3034.0113	3040.1982	3072.1802	3111.7373	3123.0263	3499.8064	3819.4322
CC(C=O)C(O)C#C	C[C@@H](C=O)[C@@H](O)C#C	
InChI=1S/C6H8O2/c1-3-6(8)5(2)4-7/h1,4-6,8H,2H3	InChI=1S/C6H8O2/c1-3-6(8)5(2)4-7/h1,4-6,8H,2H3/t5-,6-/m0/s1
