17
gdb 58024	1.84797	1.66294	0.90901	7.9699	69.14	-0.2717	0.0056	0.2772	1233.0717	0.135482	-455.19303	-455.18377	-455.182826	-455.227448	33.556	
C	 0.0113683752	 1.5749962096	-0.1423227859	-0.407101
C	 0.0371230607	 0.0492466324	-0.0324757164	 0.009271
N	 0.7771993262	-0.4329408381	 1.1545228388	-0.534458
H	 0.1370095861	-2.0175660768	 1.0869464451	 0.323676
H	 1.7754299682	-0.3007580008	 1.0266353246	 0.257218
H	 0.5108250803	 0.1034116182	 1.9770788004	 0.248224
C	-1.392014156	-0.5773263152	 0.0188877295	-0.331703
C	-2.2370550941	-0.0549951611	-1.0532886324	 0.320608
N	-2.8694318372	 0.4126508211	-1.8987542215	-0.323829
C	-1.4221395638	-2.1396297339	 0.000396042	 0.441497
O	-0.4769668416	-2.7211029943	 0.7313560073	-0.378228
O	-2.2632655878	-2.7459201396	-0.6013656634	-0.311965
H	 1.0331528557	 1.9666313803	-0.163980361	 0.121084
H	-0.5016558086	 1.9040953433	-1.0485149544	 0.166538
H	-0.5046111501	 2.0176570681	 0.7182105861	 0.122822
H	 0.5473436577	-0.3678168597	-0.9077130659	 0.127164
H	-1.8488753609	-0.2769969735	 0.9742007172	 0.14918
55.6625	92.0819	156.9245	209.4643	239.3167	272.5806	330.7744	357.5483	392.5808	439.6766	449.7697	502.251	534.9999	607.3186	731.4945	858.6646	883.1932	931.036	962.6879	998.6407	1023.8204	1051.7611	1112.367	1164.59	1175.516	1233.707	1281.5338	1319.5514	1357.6749	1406.2568	1417.6477	1490.94	1500.0567	1524.7725	1648.847	1868.2665	2369.3826	3005.543	3032.474	3058.1426	3102.1656	3120.4016	3135.8676	3487.692	3573.8869
CC([NH3+])C(C#N)C([O-])=O	C[C@@H](N)[C@@H](C#N)C(=O)O	
InChI=1S/C5H8N2O2/c1-3(7)4(2-6)5(8)9/h3-4H,7H2,1H3,(H,8,9)	InChI=1S/C5H8N2O2/c1-3(7)4(2-6)5(8)9/h3-4H,7H2,1H3,(H,8,9)/t3-,4-/m1/s1
