14
gdb 130351	3.13693	1.64235	1.16358	4.061	63.05	-0.2664	-0.0474	0.219	987.4598	0.102984	-469.939479	-469.932386	-469.931441	-469.972057	26.306	
N	-0.1734196974	 1.5244704117	-0.0739987887	-0.49756
C	 0.0597895341	 0.0826754522	-0.0080180155	-0.154968
C	-1.302051581	-0.7079531131	-0.0174419135	-0.097306
O	-1.4004367785	-1.504566707	-1.2446726894	-0.259957
C	-0.2071568798	-1.4180295073	-1.8379263258	 0.427833
N	 0.2971457559	-1.9546722989	-2.9056295599	-0.227325
O	 1.589876698	-1.4132352934	-2.9337227095	-0.166039
N	 1.8255963677	-0.559006128	-1.8714853076	-0.196129
C	 0.7179997144	-0.5642711741	-1.1997021345	 0.271373
H	 0.7114035378	 2.0172490199	 0.0080416355	 0.24817
H	-0.5523595419	 1.7746194897	-0.9844262752	 0.239053
H	 0.600574482	-0.1210254325	 0.9198295079	 0.125784
H	-1.3760365147	-1.40190188	 0.8226742103	 0.140972
H	-2.1475691668	-0.0186663593	 0.002378396	 0.146097
31.1632	162.431	262.4412	291.1361	353.1574	458.5254	523.9595	591.7898	653.655	702.2628	748.303	791.6783	835.6553	872.7899	884.7605	916.8125	980.75	1009.5116	1059.7214	1121.6209	1196.8429	1211.0472	1255.0822	1260.5351	1362.3693	1415.2653	1470.5219	1504.0227	1585.5446	1664.133	1680.5824	3074.3946	3083.3065	3139.9803	3484.1158	3565.0333
NC1COC2=NON=C12	N[C@H]1COc2nonc12	
InChI=1S/C4H5N3O2/c5-2-1-8-4-3(2)6-9-7-4/h2H,1,5H2	InChI=1S/C4H5N3O2/c5-2-1-8-4-3(2)6-9-7-4/h2H,1,5H2/t2-/m0/s1
