19
gdb 33161	3.1354	1.05313	0.84486	3.5114	77.78	-0.2122	0.0339	0.2461	1366.5569	0.159808	-419.243534	-419.234183	-419.233239	-419.278511	33.319	
C	 0.0505874271	 1.5004799149	-0.0314664588	-0.504859
C	 0.0135317451	 0.0079958499	-0.0354661087	 0.333903
N	-0.0117627147	-0.7437465783	-1.1169947852	-0.307664
C	-0.0303696409	-2.0436068109	-0.6684602904	-0.10261
C	-0.0152752839	-2.0781556012	 0.6974824597	-0.138031
N	 0.017153225	-0.7572660773	 1.1049598306	-0.022618
C	-0.0144515521	-0.2954195322	 2.4792154013	-0.175892
C	-1.4383693041	-0.201092225	 3.0312645578	-0.071876
O	-1.3238024896	 0.2466659532	 4.3687362274	-0.413012
H	 0.9519636008	 1.8920076597	 0.4550056127	 0.132619
H	 0.0469539706	 1.8398776811	-1.0678894522	 0.156182
H	-0.8145457211	 1.9407305279	 0.4779742812	 0.128421
H	-0.0467508235	-2.876495505	-1.3549651294	 0.103331
H	-0.0121555303	-2.8859812187	 1.4111826426	 0.120353
H	 0.5679098352	-0.9799570173	 3.1025411597	 0.131853
H	 0.4617604154	 0.6860826275	 2.5422515518	 0.133644
H	-2.0261898816	 0.4941268408	 2.4121745288	 0.100689
H	-1.9198428507	-1.188787803	 2.9653301155	 0.100891
H	-2.2058023666	 0.3152205141	 4.7448519453	 0.294676
59.0122	88.8908	100.0531	133.1138	235.1028	244.3565	276.3769	324.1105	374.0515	432.3802	641.9871	675.6679	692.2394	731.6052	779.9318	804.3078	846.6664	929.8849	995.8289	1010.4912	1061.906	1074.5726	1090.7376	1109.3493	1173.981	1196.6212	1239.6502	1246.2658	1302.3321	1311.4973	1369.7103	1397.9506	1407.9485	1455.5318	1461.4365	1483.0765	1484.0579	1497.0899	1527.2854	1533.5187	1571.4178	2978.8834	3011.0668	3026.1221	3066.755	3073.2376	3117.5792	3147.7375	3244.4106	3271.5053	3838.1849
CC1=NC=CN1CCO	Cc1nccn1CCO	
InChI=1S/C6H10N2O/c1-6-7-2-3-8(6)4-5-9/h2-3,9H,4-5H2,1H3	InChI=1S/C6H10N2O/c1-6-7-2-3-8(6)4-5-9/h2-3,9H,4-5H2,1H3
