14
gdb 24047	4.02299	1.06955	0.947	6.0288	69.55	-0.2119	0.0127	0.2246	1201.4223	0.101657	-432.890527	-432.88248	-432.881536	-432.924292	28.589	
N	 0.1973287014	-0.8941981975	-0.6268344857	-0.318426
C	 0.1451138886	 0.1804538791	-0.2048731374	 0.267224
C	 0.0948285066	 1.5524319214	 0.332978048	-0.290642
N	 1.3826607216	 2.2243754594	 0.2952387076	-0.394883
C	 1.7656891564	 2.6728234984	-0.8307642741	 0.548585
N	 2.9404254806	 3.3345346459	-1.0921679304	-0.372075
C	 2.99883742	 3.6663439252	-2.4438393341	-0.088589
C	 1.8669322948	 3.2198049596	-2.9962300767	-0.037238
O	 1.0896333419	 2.6056337395	-2.0262676576	-0.211064
H	-0.6906848571	 2.0925821874	-0.2161296955	 0.145027
H	-0.2303898878	 1.4871133474	 1.3762559967	 0.149833
H	 3.641414734	 3.4897402946	-0.390588039	 0.282886
H	 3.8354002116	 4.1863484546	-2.8764904497	 0.159431
H	 1.4681952674	 3.2403899748	-3.9939837722	 0.159931
36.2533	89.937	165.566	210.687	288.7403	365.2476	373.1922	462.0677	583.9418	632.8387	689.4049	710.4029	749.1194	794.1216	893.1359	911.4295	914.3377	1011.2162	1052.3952	1082.0166	1124.6099	1156.913	1215.4217	1276.824	1357.5527	1392.3537	1417.5286	1473.9245	1660.9842	1783.4137	2354.7457	2999.4036	3071.9449	3292.6387	3321.2933	3706.4673
N#CCN=C1NC=CO1	N#CCN=c1[nH]cco1	
InChI=1S/C5H5N3O/c6-1-2-7-5-8-3-4-9-5/h3-4H,2H2,(H,7,8)	InChI=1S/C5H5N3O/c6-1-2-7-5-8-3-4-9-5/h3-4H,2H2,(H,7,8)
