22
gdb 36983	5.00975	0.64934	0.63627	1.6585	82.97	-0.2354	0.0779	0.3133	1816.9993	0.194356	-404.289099	-404.279757	-404.278812	-404.325009	33.577	
C	 0.0044649532	 1.4560314562	 0.1285900973	-0.211413
C	 0.0882492141	-0.0693117721	 0.2070333553	-0.141488
N	-1.2425717895	-0.6642251358	 0.242540647	-0.058621
C	-1.8456215186	-0.9794985975	-1.048918621	-0.219771
C	-1.3392040855	-2.0616873661	-0.160734103	-0.221411
C	 1.3728826807	 2.1242047949	 0.1290325804	-0.02071
C	 2.2263585141	 2.0412549936	-1.1597972453	-0.074655
O	 2.2873854134	 3.4766156237	-1.2706935943	-0.271687
C	 1.4261709007	 3.6477598951	-0.1267526484	-0.09101
H	-0.5427933288	 1.7431443711	-0.7792279091	 0.100521
H	-0.5889566467	 1.8177602976	 0.9769462358	 0.110708
H	 0.6887948527	-0.4560245311	-0.6390261817	 0.079187
H	 0.6103666555	-0.3642556054	 1.1262651597	 0.102519
H	-2.9109447752	-0.7869541212	-1.1366008119	 0.117735
H	-1.2686367434	-0.7666010147	-1.9482998637	 0.107774
H	-0.4259546355	-2.5689591486	-0.46908278	 0.108047
H	-2.0273815427	-2.6745241733	 0.4144787407	 0.117264
H	 1.9355702719	 1.8309787487	 1.0206986296	 0.078541
H	 3.2231318546	 1.5940877601	-1.0631371186	 0.099968
H	 1.7166953079	 1.5844950573	-2.0204788868	 0.092003
H	 0.4635882141	 4.1011630567	-0.4017243647	 0.096594
H	 1.895440013	 4.2595616709	 0.6531251727	 0.099906
41.7573	68.02	72.7691	117.8485	160.8729	262.0249	311.2816	378.0472	427.2435	479.1813	740.4351	781.7558	795.0619	844.871	877.868	895.5746	905.2268	960.8191	978.2278	1008.103	1035.6722	1038.6206	1052.5438	1093.7623	1113.2241	1119.0042	1121.2601	1153.751	1162.8572	1163.9593	1180.5331	1204.9033	1251.3043	1268.3397	1305.7384	1313.1253	1319.5439	1328.8255	1366.8705	1398.4922	1413.1707	1483.5703	1493.7583	1502.0866	1512.8189	1525.9528	1538.2559	2915.8151	2992.2353	3004.7572	3019.8858	3037.3422	3039.8255	3046.6106	3059.7323	3074.9622	3091.3567	3096.1092	3175.3184	3189.5833
C(CN1CC1)C1COC1	C(CN1CC1)C1COC1	
InChI=1S/C7H13NO/c1(2-8-3-4-8)7-5-9-6-7/h7H,1-6H2	InChI=1S/C7H13NO/c1(2-8-3-4-8)7-5-9-6-7/h7H,1-6H2
