22
gdb 109947	2.2119	1.36955	0.94451	1.1095	83.53	-0.2184	0.0764	0.2948	1325.5689	0.192547	-404.304768	-404.295123	-404.294179	-404.339328	35.933	
C	 0.0950867082	 1.5622946753	 0.0937226212	-0.389389
C	-0.0757973489	 0.042925881	 0.0013130066	-0.183945
C	 0.620106226	-0.5833909565	-1.1999577491	-0.024538
N	 2.1104958925	-0.5661041589	-1.1869035179	-0.093121
C	 2.7938109716	 0.406823927	-2.0147315358	-0.326141
C	 2.1876287387	-1.9802025481	-1.6235979798	-0.258494
C	 0.7023305876	-2.1107907627	-1.3018593163	 0.416538
C	-0.0315290701	-3.1553982786	-0.5917973036	-0.264095
O	-0.2090001434	-2.9277163783	-2.0016089178	-0.268535
H	 1.1478412127	 1.8304054813	 0.2243420456	 0.12883
H	-0.272211914	 2.0618721859	-0.8098129713	 0.113143
H	-0.4576792074	 1.9684554903	 0.946333565	 0.113163
H	 0.3124512124	-0.4283328206	 0.9116629228	 0.097607
H	-1.14416034	-0.2048265164	-0.0586352849	 0.097991
H	 0.2089736852	-0.1698114771	-2.1382250338	 0.065912
H	 2.5967197801	 1.4188650255	-1.6495665317	 0.122241
H	 3.8749654143	 0.2382831027	-1.964802894	 0.120574
H	 2.4911865327	 0.3613346844	-3.0784944952	 0.092914
H	 2.3748403309	-2.1018386868	-2.7026563379	 0.09841
H	 2.8998178658	-2.597092376	-1.0647714618	 0.106822
H	 0.4704741265	-4.0860889837	-0.329877986	 0.116179
H	-0.8863547413	-2.8970950298	 0.0313127155	 0.117935
68.912	90.6038	150.7411	209.6548	225.2505	248.0391	276.1168	315.3224	335.1913	360.8923	498.2161	506.9343	519.9901	744.848	779.4509	847.8321	869.9109	905.721	920.0808	970.0322	991.2852	1034.1951	1082.2574	1094.7984	1121.363	1130.2002	1152.5758	1156.7782	1170.1072	1185.2251	1214.0647	1214.5919	1287.5048	1294.2115	1310.0464	1349.598	1399.4027	1408.4101	1450.0368	1454.0788	1476.5074	1487.4799	1496.2525	1501.6519	1510.0982	1510.7627	1543.2312	2924.7381	2944.1568	2977.0857	3018.6937	3033.1394	3056.8142	3060.7926	3062.9138	3082.6997	3100.6667	3105.2579	3111.4918	3169.2879
CCC1N(C)CC11CO1	CC[C@H]1N(C)C[C@]21CO2	
InChI=1S/C7H13NO/c1-3-6-7(5-9-7)4-8(6)2/h6H,3-5H2,1-2H3	InChI=1S/C7H13NO/c1-3-6-7(5-9-7)4-8(6)2/h6H,3-5H2,1-2H3/t6-,7-/m1/s1
