20
gdb 94442	2.50056	1.32253	1.26372	2.3371	74.42	-0.2335	0.0574	0.291	1136.8861	0.170384	-440.237987	-440.228918	-440.227974	-440.272121	33.865	
C	-0.2950385882	 1.3499674724	-0.1914338886	-0.39084
C	 0.1908210125	-0.0855975961	-0.1710151838	 0.088104
O	 1.5316057104	-0.231329957	-0.7139879393	-0.29539
C	 2.0518219541	-0.695663221	 0.542039924	-0.137595
C	 0.6477705285	-0.6698125652	 1.1852564302	 0.225309
N	 0.3706841381	 0.0049261138	 2.4605231874	-0.359564
C	 0.1829695223	-1.2883860286	 3.161080679	-0.213049
C	 0.0280239557	-1.9698939243	 1.7763706141	 0.078871
O	-1.2883271993	-2.2589512399	 1.3722682656	-0.427397
H	 0.3732842958	 2.004353772	 0.3760209453	 0.112286
H	-0.3417611653	 1.7133560216	-1.2225133204	 0.125154
H	-1.2949247358	 1.4231513852	 0.2481477232	 0.115294
H	-0.5108400797	-0.7421274977	-0.7017619852	 0.086176
H	 2.5337682725	-1.6790657505	 0.4587974115	 0.100369
H	 2.7697259541	 0.0127196941	 0.9824022356	 0.089461
H	 1.0969996979	 0.6160066707	 2.817216243	 0.218777
H	 1.0576529512	-1.6474522427	 3.7197279882	 0.098469
H	-0.6950766487	-1.3301695534	 3.8155943905	 0.101395
H	 0.6016134603	-2.8841046019	 1.6136114594	 0.094514
H	-1.8322609163	-1.4846511115	 1.5569787502	 0.289656
63.289	78.91	152.1171	201.5345	220.1534	288.5125	347.0913	365.1312	414.7435	485.9729	513.7254	544.58	697.332	791.2011	842.8527	874.1128	879.8358	930.2316	991.229	1010.1838	1026.7099	1049.3134	1064.9722	1080.8573	1107.1897	1136.708	1153.429	1161.1794	1190.8834	1215.4522	1245.3819	1280.9964	1301.8535	1316.6671	1356.0577	1380.9127	1386.6013	1405.854	1437.637	1479.7408	1490.6254	1514.4786	1515.6601	2981.3083	3007.2708	3023.2198	3029.5158	3038.7161	3059.9469	3100.3968	3112.1114	3115.591	3530.4672	3799.558
CC1OCC11NCC1O	C[C@H]1OC[C@]21NC[C@H]2O	
InChI=1S/C6H11NO2/c1-4-6(3-9-4)5(8)2-7-6/h4-5,7-8H,2-3H2,1H3	InChI=1S/C6H11NO2/c1-4-6(3-9-4)5(8)2-7-6/h4-5,7-8H,2-3H2,1H3/t4-,5-,6-/m1/s1
