17
gdb 88339	4.06102	0.9029	0.85138	4.3044	73.89	-0.2375	-0.0411	0.1965	1380.7452	0.134768	-455.156074	-455.146909	-455.145965	-455.190891	32.281	
C	-1.0590234009	 0.8348972757	 0.6152541747	-0.330137
N	-0.1371827255	-0.2434350747	 0.2593155872	-0.080321
C	 0.963545205	 0.0500448573	-0.6268129505	-0.231921
C	 1.2273922303	-0.2729709573	 0.8128628559	-0.140564
C	 1.7389720655	 0.8360278733	 1.6888546521	 0.452936
O	 1.6040362534	 2.0110180585	 1.4450933249	-0.320051
N	 2.3824029493	 0.3563654188	 2.8421024455	-0.368844
C	 2.9912036916	 1.0963365577	 3.8544943483	 0.167184
O	 3.0720572375	 2.2902326001	 3.9197535154	-0.24779
H	-0.5872157367	 1.8192236658	 0.7056083603	 0.152487
H	-1.8304962748	 0.8740833115	-0.1593880411	 0.127614
H	-1.5442123318	 0.5850226905	 1.5637796638	 0.123619
H	 1.1866978652	-0.6971975959	-1.3840443704	 0.121299
H	 1.135386434	 1.0866033899	-0.9107938981	 0.141851
H	 1.5598151939	-1.2762241148	 1.0747566667	 0.086677
H	 2.4128626692	-0.645560235	 2.9612946188	 0.259041
H	 3.408908275	 0.4121751187	 4.6217733263	 0.086922
47.3263	72.0795	152.3097	182.973	220.1076	248.8358	269.9612	330.1219	392.0321	416.526	583.6182	617.0564	719.0682	737.6016	819.8521	886.2621	932.5951	999.5842	1027.5365	1040.2764	1069.8698	1110.6325	1125.1871	1135.7966	1159.2858	1178.3224	1214.84	1336.8022	1401.0962	1446.4234	1446.9138	1487.0444	1495.8424	1504.3541	1510.6154	1793.6633	1866.643	2920.4401	3029.4225	3097.5814	3103.4287	3109.891	3110.8057	3190.9891	3614.8178
CN1CC1C(=O)NC=O	CN1C[C@H]1C(=O)NC=O	
InChI=1S/C5H8N2O2/c1-7-2-4(7)5(9)6-3-8/h3-4H,2H2,1H3,(H,6,8,9)	InChI=1S/C5H8N2O2/c1-7-2-4(7)5(9)6-3-8/h3-4H,2H2,1H3,(H,6,8,9)/t4-,7?/m0/s1
