16
gdb 34712	3.13148	1.6607	1.47348	4.2405	75.77	-0.2401	-0.0034	0.2367	921.0933	0.126812	-363.596445	-363.589872	-363.588928	-363.627364	26.668	
N	-0.0339016447	-1.2065134825	-0.05999025	-0.335507
C	 0.0033753609	-0.0525338222	 0.001933767	 0.278804
C	 0.0321576037	 1.4051441019	 0.0656008865	-0.157297
C	-0.2527326817	 2.1335593377	 1.3767491196	-0.084506
C	 0.9999911367	 2.2442671098	 2.2839174236	-0.075101
C	 2.1530147155	 1.3323537116	 2.0356916653	-0.071013
C	 2.4552390067	 1.3392579072	 0.7333646994	-0.095361
C	 1.4321955518	 2.1753972831	 0.0015760655	-0.113539
C	 0.8389283021	 3.1357742405	 1.0851751602	-0.085654
H	-0.6239393291	 1.805342381	-0.7116702261	 0.129037
H	-1.2408377248	 2.2856212317	 1.7924331846	 0.105653
H	 0.7928026792	 2.6362016727	 3.2726540793	 0.095444
H	 2.6221103323	 0.7344652938	 2.8062132005	 0.110147
H	 3.1890699635	 0.7198605073	 0.2346813655	 0.114036
H	 1.6998977966	 2.5577922119	-0.9809558848	 0.085232
H	 0.8240234914	 4.2180897947	 1.080752144	 0.099624
122.9818	150.356	340.7867	379.8412	501.3463	535.5428	574.848	703.2153	739.9285	742.5495	781.6463	816.7813	827.1645	835.3881	882.1661	938.5408	958.0668	974.2373	988.2084	997.3616	1029.9047	1059.5533	1077.3392	1098.1499	1117.7122	1133.8548	1219.036	1238.3632	1275.2454	1304.5762	1337.6361	1362.2143	1382.5517	1645.0035	2351.1805	3080.9405	3138.2855	3185.0669	3188.7285	3202.2485	3211.0939	3234.5128
N#CC1C2C3C=CC1C23	N#C[C@H]1[C@H]2[C@H]3C=C[C@@H]1[C@@H]23	
InChI=1S/C8H7N/c9-3-6-4-1-2-5-7(4)8(5)6/h1-2,4-8H	InChI=1S/C8H7N/c9-3-6-4-1-2-5-7(4)8(5)6/h1-2,4-8H/t4-,5-,6+,7+,8+/m0/s1
