21
gdb 81443	3.27626	1.32829	1.22703	1.7732	82.23	-0.2521	0.0903	0.3424	1127.7664	0.183995	-387.062006	-387.05424	-387.053296	-387.093868	31.764	
C	-0.2129800807	 1.4802694838	 0.0428164148	-0.439726
C	 0.0181262386	-0.0253606719	 0.052668836	 0.051203
C	 1.1212031736	-0.6014594439	-0.8991017538	-0.031049
C	 2.1566093689	-0.2392865223	 0.2077566394	-0.245796
C	 0.9723256274	-0.6079248844	 1.1520103102	-0.105936
C	 0.8393517223	-2.0954891844	 0.8627550018	 0.502723
C	 1.174780439	-3.1832125457	 1.7798501356	-0.290009
O	-0.1928745077	-2.8426994464	 1.5003260793	-0.297994
C	 0.9595328009	-2.1205549258	-0.6769568992	-0.31624
H	 0.7113265912	 2.060079639	 0.11550144	 0.116121
H	-0.7197456402	 1.7837133303	-0.8800357476	 0.116072
H	-0.8538746162	 1.7755128413	 0.8807346713	 0.118992
H	-0.9496184524	-0.5355814647	-0.0127777035	 0.076773
H	 1.2289109154	-0.2537894609	-1.9273270236	 0.059364
H	 3.0659288549	-0.8445870658	 0.2718858734	 0.090306
H	 2.4187798289	 0.8177616284	 0.2369143493	 0.10305
H	 0.9242105789	-0.2985659934	 2.1963216266	 0.060762
H	 1.5042995575	-4.1447422372	 1.3864083169	 0.109583
H	 1.5121696819	-2.9606698202	 2.7921424837	 0.109181
H	 0.053081512	-2.5309121441	-1.1312341524	 0.112824
H	 1.8199752858	-2.6967651018	-1.0305098181	 0.099796
120.7723	195.337	228.2936	265.5015	328.5557	365.7707	436.0915	455.5444	526.0046	548.6601	746.5479	778.6413	826.3269	840.2307	845.9617	874.3759	905.0962	941.3811	949.5559	989.8353	996.7018	1027.5272	1061.374	1083.0486	1090.286	1099.6817	1118.9258	1124.4134	1163.4019	1181.9793	1207.9168	1221.6783	1241.0328	1256.6489	1273.9461	1278.3872	1304.7344	1399.0636	1414.1673	1438.8379	1485.6215	1496.0682	1498.1321	1521.4916	1538.0241	3032.6028	3038.5282	3050.9763	3060.2981	3072.6613	3090.7726	3100.2318	3105.156	3111.4506	3115.1478	3138.6852	3156.5219
CC1C2CC1C1(CO1)C2	C[C@H]1[C@H]2C[C@@H]1[C@]1(CO1)C2	
InChI=1S/C8H12O/c1-5-6-2-7(5)8(3-6)4-9-8/h5-7H,2-4H2,1H3	InChI=1S/C8H12O/c1-5-6-2-7(5)8(3-6)4-9-8/h5-7H,2-4H2,1H3/t5-,6-,7-,8+/m0/s1
