17
gdb 14507	3.52609	2.04627	1.60272	1.9876	68.7	-0.24	-0.0283	0.2117	837.8766	0.141387	-363.781799	-363.7743	-363.773356	-363.813787	28.035	
C	-0.2357202333	 1.470953681	-0.2861546957	-0.494112
C	 0.0264722314	-0.0169951871	-0.0610938534	 0.296407
C	-1.3224531408	-0.6200729118	 0.29496552	 0.081078
O	-2.0706192217	-1.129131383	-0.4997722621	-0.25376
C	 0.9978955086	-0.8514225842	-0.9412789915	-0.093119
C	 2.1230554491	-0.0951316487	-0.2038581831	-0.181203
N	 1.146219921	-0.4045910722	 0.9512251259	-0.189813
C	 1.0681764345	-1.7946878378	 0.2810810285	-0.182239
H	 0.6632163001	 2.0424744986	-0.5188692364	 0.131707
H	-0.9412138916	 1.593270385	-1.1140754195	 0.143672
H	-0.6873882633	 1.91314356	 0.6089271402	 0.135977
H	-1.6015503883	-0.498860423	 1.3680784422	 0.090825
H	 0.9068710015	-1.1014590787	-2.0024052559	 0.078281
H	 3.079451131	-0.6110093493	-0.0888538582	 0.10712
H	 2.2845908124	 0.9643380645	-0.3971629383	 0.104931
H	 0.1850562025	-2.3784676878	 0.5492042633	 0.120219
H	 1.9786507968	-2.3822809854	 0.4178632541	 0.104028
62.3499	145.6351	168.0187	279.8014	305.7703	369.1499	470.5776	573.4008	631.1757	694.8406	777.6773	790.0638	833.8617	898.9671	917.836	926.6371	982.5492	1010.1206	1058.5776	1063.3367	1102.1096	1117.7191	1162.4227	1191.9037	1198.0728	1217.8274	1231.3253	1258.6777	1297.8344	1399.4194	1407.9965	1485.0051	1490.5895	1529.3694	1563.434	1826.863	2859.969	3041.0041	3057.9908	3067.0003	3078.9473	3103.6077	3128.521	3133.668	3149.8779
CC1(C=O)C2CN1C2	C[C@@]1(C=O)[C@H]2CN1C2	
InChI=1S/C6H9NO/c1-6(4-8)5-2-7(6)3-5/h4-5H,2-3H2,1H3	InChI=1S/C6H9NO/c1-6(4-8)5-2-7(6)3-5/h4-5H,2-3H2,1H3/t6-/m1/s1
