18
gdb 113176	3.4213	1.06099	0.94212	12.6193	69.46	-0.1933	0.0032	0.1966	1277.275	0.146058	-476.18794	-476.179069	-476.178125	-476.221868	32.482	
C	 0.2105805303	 1.1419112745	 0.4899448898	-0.338323
N	-0.2389793185	 0.1110081844	-0.4850878115	-0.228628
H	-0.4444785473	-0.8317943431	-0.0290278798	 0.314244
H	-1.1055100109	 0.4134960171	-0.9301638036	 0.305616
C	 0.7005025029	-0.3159932894	-1.5501016999	-0.139877
C	 2.0138821398	-0.9425366847	-1.1434661831	-0.341548
C	 0.861501423	-1.8321447792	-1.4554986597	 0.272577
O	 0.1508538103	-2.3845974573	-0.3918652317	-0.50352
C	 0.6789190716	-2.696540034	-2.7246786254	 0.351192
O	-0.1178058772	-3.6427620687	-2.4586964522	-0.507364
O	 1.2511255654	-2.3371949167	-3.7503246857	-0.461127
H	 1.1063395515	 0.7780121515	 0.9902455535	 0.186246
H	 0.4374859073	 2.0659536325	-0.042819541	 0.174536
H	-0.5805842067	 1.3111808043	 1.2229714843	 0.164749
H	 0.5810698577	 0.1961509582	-2.495530307	 0.146892
H	 2.7860399782	-0.8776296646	-1.9025010155	 0.166191
H	 2.3534244199	-0.8731572837	-0.1148764756	 0.118607
H	-0.2628709174	-3.1477121011	-0.9611712357	 0.319536
88.8817	105.8907	126.5977	169.9473	214.8483	279.0841	318.1939	397.3778	456.9749	503.2103	550.1166	644.179	716.2079	782.9807	834.6529	870.0863	880.0141	903.9827	939.9519	1002.6751	1021.9949	1030.6378	1076.0666	1099.2911	1155.0978	1184.2547	1223.1099	1273.1624	1327.2525	1348.4567	1372.4322	1412.5736	1438.4484	1463.1266	1481.3606	1495.1938	1500.762	1656.407	1815.0306	2662.7804	2815.3056	3075.0958	3129.0005	3161.7982	3185.5773	3208.9719	3225.9827	3486.9853
C[NH2+]C1CC1(O)C([O-])=O	C[NH2][C@H]1C[C@]1(O)C(=O)[O]	
InChI=1S/C5H9NO3/c1-6-3-2-5(3,9)4(7)8/h3,6,9H,2H2,1H3,(H,7,8)	InChI=1S/C5H9NO3/c1-6-3-2-5(3,9)4(7)8/h3,9H,2,6H2,1H3/t3-,5+/m0/s1
