15
gdb 112393	3.47453	1.26041	0.97126	8.6192	63.88	-0.2743	-0.0263	0.248	1146.9746	0.114676	-491.140306	-491.132699	-491.131755	-491.172604	28.413	
N	-1.1197682422	 1.5386325429	 0.5111744652	-0.529619
H	-1.8836663809	 0.8712893346	 0.4595942532	 0.255624
H	-0.9598281975	 1.8771755592	-0.4313028985	 0.261296
H	-1.3297939788	 2.803666164	 1.8664936497	 0.313187
C	 0.0971089159	 0.8987694065	 1.0551588544	-0.207291
C	-0.0366757032	 0.9007334727	 2.5823561024	 0.000273
O	 1.0801986032	 0.3670171301	 3.249312329	-0.253941
C	 1.5295065369	 1.3267688911	 4.1755002514	 0.447283
O	 2.4425292361	 1.0949496809	 4.9017235916	-0.334224
N	 0.7741766424	 2.5137263365	 4.0713680146	-0.369001
C	-0.0977779271	 2.303766967	 3.1547322598	 0.402773
O	-0.9611544441	 3.1862705112	 2.7054777185	-0.375422
H	 0.262200076	-0.1225714025	 0.6921931905	 0.129392
H	 0.9661750517	 1.4986541751	 0.7696768794	 0.143271
H	-0.9421053385	 0.3408079905	 2.8636993087	 0.116397
102.8814	174.8672	200.5195	235.1453	321.487	369.5276	403.9875	412.4129	596.5043	640.9798	704.238	757.7118	790.9374	813.1219	872.1315	908.6392	938.6627	994.0836	1042.8752	1075.9329	1090.9255	1165.9169	1181.4247	1283.397	1309.6912	1359.8273	1371.9719	1409.0651	1498.8522	1513.424	1653.1823	1724.6165	1918.5891	2991.9025	3035.1	3100.0706	3275.4825	3508.2608	3588.6549
[NH3+]CC1OC(=O)[N-]C1=O	NC[C@H]1OC(=O)N=C1O	
InChI=1S/C4H6N2O3/c5-1-2-3(7)6-4(8)9-2/h2H,1,5H2,(H,6,7,8)	InChI=1S/C4H6N2O3/c5-1-2-3(7)6-4(8)9-2/h2H,1,5H2,(H,6,7,8)/t2-/m1/s1
