19
gdb 33782	3.44036	1.37069	1.17842	1.2755	81.61	-0.2481	0.0431	0.2913	1086.8533	0.160567	-385.845384	-385.837664	-385.836719	-385.877212	31.197	
C	-0.0235649315	-1.2077103225	-0.0824780358	-0.359965
C	-0.0141102223	-0.0066201839	-0.0127390487	 0.115919
C	-0.0021014654	 1.4368198368	 0.0581298641	 0.171355
C	-0.2288002626	 2.1707449608	 1.4243159064	-0.255614
C	 0.6706358003	 3.291153202	 0.8307036321	-0.060745
C	 1.3608904365	 2.1956020914	-0.0200017817	-0.254938
C	-0.184923771	 4.16877549	-0.089428131	-0.067136
O	-1.2553917954	 3.4263411903	-0.6608862291	-0.263316
C	-0.9564235579	 2.0786467847	-0.981803013	-0.117429
H	-0.028868248	-2.2680559134	-0.1378740566	 0.183597
H	-1.2571699577	 2.4188473338	 1.6938653719	 0.112862
H	 0.2613597588	 1.637508006	 2.2406275651	 0.108363
H	 1.2845178335	 3.8953821586	 1.5013661618	 0.070335
H	 2.1446008963	 1.6681128361	 0.5277579894	 0.107695
H	 1.7238082285	 2.4653275091	-1.0170445574	 0.096803
H	-0.6595676181	 4.9834481364	 0.4681294953	 0.10794
H	 0.4460303114	 4.618335806	-0.874275147	 0.089822
H	-0.5048007211	 1.9940513485	-1.9831995911	 0.097358
H	-1.9153560142	 1.5523205994	-0.9945533944	 0.117096
140.7375	143.8453	201.4365	300.758	393.131	412.9491	438.8496	516.2284	520.6546	593.472	626.0357	629.0936	633.6467	827.3395	864.9157	885.6845	890.1604	927.3992	934.5231	964.8231	1007.9007	1024.7579	1074.9437	1100.5242	1118.0895	1158.2931	1189.4558	1212.246	1236.5412	1244.5872	1265.9144	1274.7557	1298.8831	1341.7837	1381.0416	1413.6224	1476.2339	1503.8423	1505.3389	1517.4293	2231.6481	2965.7246	2977.8543	3048.1477	3062.4459	3073.9235	3081.9855	3092.6632	3115.2499	3137.0798	3502.2983
C#CC12CC(C1)COC2	C#C[C@@]12C[C@@H](C1)COC2	
InChI=1S/C8H10O/c1-2-8-3-7(4-8)5-9-6-8/h1,7H,3-6H2	InChI=1S/C8H10O/c1-2-8-3-7(4-8)5-9-6-8/h1,7H,3-6H2/t7-,8+
