20
gdb 94658	3.93214	0.71614	0.64336	1.399	76.59	-0.2406	-0.0307	0.2099	1715.7498	0.16878	-440.258123	-440.248145	-440.247201	-440.294903	34.55	
C	-0.0418222104	 1.5972050991	-0.1414491329	-0.402479
C	 0.117925702	 0.0884286035	-0.096086672	 0.125368
O	 1.3019791284	-0.3657565764	-0.7972636873	-0.289178
C	 1.8872693067	-0.9063153109	 0.4017929192	-0.094361
C	 0.6115261651	-0.5704725064	 1.2231488058	-0.014097
N	 0.6689655748	 0.2599164156	 2.403379961	-0.306479
C	 1.1228331483	-0.4089224907	 3.612970618	-0.228286
C	 0.8226111298	 0.4386567652	 4.8393918086	 0.148809
O	 1.4906859176	 0.4487346297	 5.839093112	-0.23393
H	 0.8549597469	 2.1115150997	 0.2189753625	 0.111652
H	-0.2117389637	 1.9170071035	-1.1738160258	 0.130461
H	-0.8953590541	 1.9139892167	 0.46560227	 0.127268
H	-0.7794886677	-0.389113503	-0.5109978671	 0.079912
H	 2.1455207308	-1.9668435076	 0.294375376	 0.102487
H	 2.7856847476	-0.352344596	 0.7120342102	 0.090246
H	 0.0349220342	-1.464980345	 1.4760264172	 0.090336
H	 1.235045869	 1.0837151972	 2.2290002488	 0.224707
H	 0.5391172921	-1.3349985726	 3.7286985471	 0.134477
H	 2.1854028158	-0.6980216354	 3.6354585285	 0.116429
H	-0.097940243	 1.056126504	 4.7329397001	 0.086658
42.6309	61.0533	67.5765	97.337	148.8824	208.3018	264.0517	298.9035	392.6397	411.5912	475.2155	569.403	722.2148	751.5459	793.1561	852.3372	874.0782	924.1088	1001.2097	1019.9988	1041.6635	1061.3922	1076.9421	1087.5046	1127.2313	1156.0659	1170.7593	1209.2245	1252.3471	1264.0284	1287.6952	1323.4046	1348.3227	1381.3051	1387.0523	1403.3709	1408.3986	1473.0451	1479.76	1494.8644	1517.0797	1521.689	1840.954	2885.123	2980.1109	2989.9799	3012.6718	3024.6126	3037.6473	3044.4748	3069.994	3108.0505	3118.3558	3524.4773
CC1OCC1NCC=O	C[C@H]1OC[C@H]1NCC=O	
InChI=1S/C6H11NO2/c1-5-6(4-9-5)7-2-3-8/h3,5-7H,2,4H2,1H3	InChI=1S/C6H11NO2/c1-5-6(4-9-5)7-2-3-8/h3,5-7H,2,4H2,1H3/t5-,6-/m1/s1
