21
gdb 103967	2.47641	1.49072	1.16074	1.6841	77.58	-0.2326	0.0632	0.2958	1155.2642	0.180908	-424.186341	-424.177116	-424.176171	-424.219849	35.849	
C	-0.3467338692	 1.4061338234	 0.0281624333	-0.388897
C	 0.2316511398	-0.0026852707	-0.1551141867	-0.243581
C	 0.7993267061	-0.6137218104	 1.1278031018	 0.409346
C	 2.0292389047	 0.1235455494	 1.6477630481	-0.428113
O	-0.1990898957	-0.6787908025	 2.2240351463	-0.350063
C	 0.1161415722	-2.059172957	 2.4516595082	 0.012923
C	-0.3614551386	-2.8553715974	 1.2936644496	 0.117511
O	-1.5202899453	-2.5175651172	 0.5978869779	-0.433825
C	 0.9784180403	-2.1363813901	 1.1945400449	-0.236153
H	 0.4203543784	 2.1386499647	 0.2965645523	 0.116373
H	-0.8181863925	 1.7488137282	-0.8976073225	 0.114037
H	-1.1054035889	 1.412681224	 0.8166403595	 0.130332
H	-0.535816639	-0.6709526854	-0.5508572212	 0.121502
H	 1.0387256484	 0.0152139524	-0.8988359972	 0.096871
H	 1.7900884089	 1.1647576907	 1.8779752042	 0.12839
H	 2.4043487647	-0.3505957869	 2.558398689	 0.12045
H	 2.8272576099	 0.1097197496	 0.8972436832	 0.114399
H	 0.2495364395	-2.3825838414	 3.4784240062	 0.100381
H	-0.2512820057	-3.9325559418	 1.3896643983	 0.110013
H	-1.815677012	-1.6776944802	 0.9752062446	 0.29373
H	 1.9101601541	-2.6575263215	 1.0122899703	 0.094374
81.3716	147.224	181.8603	216.8772	227.9781	262.7837	308.1119	368.9733	403.9487	439.2246	460.3018	584.2159	643.5153	691.317	732.7451	783.5848	814.4029	850.2863	895.2971	928.1388	963.843	990.2309	1006.2811	1027.0305	1051.2713	1059.0053	1073.9872	1075.4328	1159.7448	1165.7766	1217.1153	1237.4665	1270.5364	1307.7912	1325.8226	1363.8463	1381.887	1407.2971	1411.5793	1452.3486	1483.585	1487.2468	1500.346	1505.6509	1513.013	3032.8883	3040.9108	3042.8972	3098.3366	3111.3118	3112.574	3119.7082	3128.7864	3149.7173	3166.3861	3190.1088	3755.6293
CCC1(C)OC2C(O)C12	CC[C@@]1(C)O[C@H]2[C@@H](O)[C@@H]12	
InChI=1S/C7H12O2/c1-3-7(2)4-5(8)6(4)9-7/h4-6,8H,3H2,1-2H3	InChI=1S/C7H12O2/c1-3-7(2)4-5(8)6(4)9-7/h4-6,8H,3H2,1-2H3/t4-,5+,6-,7-/m1/s1
