15
gdb 30521	2.6445	1.62488	1.01279	4.8747	73.77	-0.2193	-0.0388	0.1805	1113.7772	0.112705	-453.980408	-453.972103	-453.971159	-454.01446	29.678	
C	-0.0031317761	 1.4326283196	-0.1380140938	-0.321157
N	 0.0038042392	-0.0194905415	-0.1727054672	-0.248731
C	-1.0504265855	-0.6386226075	 0.1253237562	 0.280966
O	-2.2049779082	 0.0375993997	 0.4820911078	-0.250992
C	-3.347301535	-0.6440034231	 0.805176256	 0.008794
C	-3.4078673963	-1.9734186509	 0.7934381753	-0.072121
N	-2.2826211895	-2.7148643442	 0.4437129552	-0.361179
C	-1.0713417712	-2.1561842997	 0.0973110568	 0.363466
O	-0.1104725861	-2.8240743124	-0.2025123324	-0.331691
H	 0.9843655193	 1.801427176	-0.4216323053	 0.127699
H	-0.7478274322	 1.8497668862	-0.8283971071	 0.127683
H	-0.24805262	 1.8118618039	 0.8626849854	 0.127669
H	-4.1653471812	 0.0111266622	 1.0620584438	 0.141497
H	-4.3053721782	-2.517482121	 1.047142468	 0.141404
H	-2.3124362189	-3.7233091172	 0.4295676213	 0.266692
32.7906	89.9928	167.9877	201.5278	208.0537	356.2805	491.016	501.8139	525.0454	544.0915	587.5944	617.8356	735.7296	738.7414	789.6127	851.7339	924.4098	1031.3727	1070.9915	1078.5352	1101.2185	1139.2221	1168.9461	1242.9369	1352.8813	1410.6135	1433.4369	1466.7078	1482.2731	1497.4102	1732.3747	1756.5602	1815.9377	3008.246	3060.5263	3118.8748	3243.4155	3265.8981	3629.1311
CN=C1OC=CNC1=O	CN=c1occ[nH]c1=O	
InChI=1S/C5H6N2O2/c1-6-5-4(8)7-2-3-9-5/h2-3H,1H3,(H,7,8)	InChI=1S/C5H6N2O2/c1-6-5-4(8)7-2-3-9-5/h2-3H,1H3,(H,7,8)
