21
gdb 94114	5.08889	0.75449	0.69144	4.016	80.08	-0.2423	-0.0166	0.2257	1644.7661	0.181405	-424.248958	-424.239274	-424.23833	-424.28506	34.394	
C	-0.622694706	 1.3926980431	-0.0040976248	-0.413381
C	 0.1396263144	 0.0704028588	 0.0146482324	 0.011505
C	 1.1568937904	-0.0905977547	-1.1250671613	-0.069557
O	 2.1455044665	-1.0128572656	-0.6688086124	-0.282749
C	 2.0091934288	-1.2323065879	 0.7412817127	 0.128637
C	 3.3978810536	-1.2046270722	 1.3899824646	-0.291485
C	 4.3199693183	-2.2660003003	 0.8262414503	 0.153935
O	 4.9136667424	-3.0745991055	 1.4942920018	-0.244296
C	 1.0403311617	-0.1544362611	 1.2400592343	-0.24895
H	 0.0647512646	 2.2431621805	 0.0690125205	 0.118029
H	-1.1984286332	 1.5065877612	-0.9287108967	 0.120008
H	-1.3255895972	 1.4573079001	 0.8323683178	 0.120751
H	-0.5776873804	-0.7585344761	-0.0433705448	 0.082682
H	 0.7095063933	-0.4782454666	-2.0471446273	 0.105425
H	 1.6313045047	 0.875207278	-1.3601577939	 0.089746
H	 1.5644520032	-2.2282945237	 0.8970473193	 0.080707
H	 3.8475754734	-0.2228197354	 1.1870060669	 0.11786
H	 3.3256264916	-1.3436777596	 2.4728645407	 0.116665
H	 4.4137948526	-2.2487084456	-0.2802931601	 0.096951
H	 1.5881852477	 0.7663231442	 1.4785887771	 0.099679
H	 0.4923135895	-0.4623014617	 2.134123533	 0.107838
36.2729	65.2864	72.6876	118.3715	201.6758	233.5586	278.7817	358.8818	409.0361	433.1002	502.7896	556.92	658.7936	821.7025	838.4539	866.8418	899.2571	943.1642	957.5157	991.994	1000.2796	1055.0416	1077.2775	1112.2341	1130.7302	1156.9205	1166.7018	1195.8845	1230.8102	1264.6572	1268.1272	1303.0893	1336.6466	1357.5054	1368.6832	1394.604	1407.2909	1416.0062	1423.1091	1448.3662	1488.8234	1497.2659	1500.5851	1528.9469	1829.37	2914.218	2968.527	2979.359	3017.4832	3021.9645	3028.4416	3033.5701	3058.5627	3095.8296	3099.0908	3102.0824	3104.5898
CC1COC(CC=O)C1	C[C@H]1CO[C@@H](CC=O)C1	
InChI=1S/C7H12O2/c1-6-4-7(2-3-8)9-5-6/h3,6-7H,2,4-5H2,1H3	InChI=1S/C7H12O2/c1-6-4-7(2-3-8)9-5-6/h3,6-7H,2,4-5H2,1H3/t6-,7+/m1/s1
