18
gdb 124601	3.98344	0.99852	0.9672	1.6506	75.04	-0.2266	0.0048	0.2314	1298.479	0.148155	-435.282595	-435.273731	-435.272787	-435.317366	32.531	
C	 0.0094460295	 1.5260846317	-0.0056643187	-0.385732
C	 0.0323136634	-0.0041118596	-0.0580736438	 0.065033
C	-1.3675137509	-0.6172891238	 0.0384807208	-0.38571
N	 0.707072034	-0.4626415604	-1.2765058013	 0.129898
N	 0.2525629238	-0.1942406903	-2.4867221547	-0.224231
C	 1.1306638777	-0.7765936704	-3.309023534	-0.127147
C	 2.1108712985	-1.3923654986	-2.5179991834	 0.358167
O	 3.1821386489	-2.0910777928	-2.9379613564	-0.425151
N	 1.8333325276	-1.1877382894	-1.2332543074	-0.333501
H	 1.0228271456	 1.9336151774	-0.0554397244	 0.12731
H	-0.5668418775	 1.9278803476	-0.8431465997	 0.143212
H	-0.4526952957	 1.8605827364	 0.9277287134	 0.119166
H	 0.6610202066	-0.3914424058	 0.7471769546	 0.114427
H	-1.9883191148	-0.2843255942	-0.7973970716	 0.143163
H	-1.3175044817	-1.7093648814	 0.0192625534	 0.127331
H	-1.8462281404	-0.3090949231	 0.972577278	 0.119174
H	 1.0282283964	-0.7320753158	-4.3801605704	 0.127012
H	 3.6624058289	-2.3847153474	-2.1542065944	 0.307579
16.0812	114.6955	197.001	221.7311	263.9951	302.9082	317.8731	379.4473	408.4082	424.3862	520.5639	648.6563	685.1025	724.0104	743.7885	837.2207	893.1043	937.0307	951.9333	1009.0353	1054.1563	1100.9976	1146.951	1178.0738	1196.192	1237.3193	1292.2679	1350.0831	1352.3783	1397.8675	1398.3545	1417.2738	1434.6229	1482.3442	1489.1513	1496.6319	1512.4775	1523.794	1603.3196	3044.3121	3048.3306	3090.0761	3117.8809	3122.049	3127.8426	3135.0409	3281.8417	3803.8371
CC(C)N1N=CC(O)=N1	CC(C)n1ncc(O)n1	
InChI=1S/C5H9N3O/c1-4(2)8-6-3-5(9)7-8/h3-4H,1-2H3,(H,7,9)	InChI=1S/C5H9N3O/c1-4(2)8-6-3-5(9)7-8/h3-4H,1-2H3,(H,7,9)
