18
gdb 37379	2.89197	2.06539	1.85402	1.1163	72.22	-0.2351	0.0718	0.3069	832.9637	0.152281	-401.923518	-401.917654	-401.91671	-401.95332	25.721	
C	-0.0062213923	 1.5562307481	 0.0203024665	-0.231651
C	 1.4799544703	 1.8868721663	 0.0049403965	-0.037723
C	 2.3535733143	 1.0478865156	 0.8749970246	-0.049294
C	 1.7321328204	 0.093934489	 1.8526440153	 0.035854
O	 0.4982510407	 0.4799300652	 2.4910782145	-0.256401
C	 0.4452908225	-0.4719792597	 1.4287447795	 0.044504
C	 0.0207254787	 0.0157165115	 0.0463322426	-0.103776
C	 1.2273862067	-0.2769883154	-0.884703341	-0.159487
N	 2.2345097004	 0.7641484868	-0.5900769685	-0.125611
H	-0.5314658959	 1.983715525	 0.8745096079	 0.128197
H	-0.4751782911	 1.9153870558	-0.9021187157	 0.099486
H	 1.7990162705	 2.888301656	-0.2683958585	 0.090596
H	 3.3350867553	 1.4310417774	 1.1384634932	 0.088505
H	 2.4069666431	-0.4646269163	 2.4971793525	 0.096584
H	 0.1545466765	-1.4773361399	 1.728087038	 0.094203
H	-0.9116131113	-0.4434981409	-0.287147928	 0.072834
H	 1.6527800748	-1.2750170621	-0.7364575839	 0.10468
H	 0.9510146664	-0.1764027024	-1.9392624256	 0.108501
284.0804	312.3983	376.0055	468.9043	484.907	578.1451	662.8444	712.1617	742.3245	770.9744	811.0328	851.0586	873.8807	890.5936	913.02	919.0381	965.6099	987.6252	1006.0205	1052.4591	1070.6366	1080.5357	1081.7291	1109.8523	1141.9851	1192.3281	1213.2099	1227.7687	1249.6459	1288.749	1310.8568	1321.4594	1330.5983	1359.7216	1375.248	1412.3063	1453.1228	1480.9237	1502.4908	3044.5705	3052.4813	3088.6404	3094.1693	3124.6946	3133.4913	3135.5687	3147.28	3156.3328
C1C2C3C4OC4C1CN23	C1[C@H]2[C@H]3[C@H]4O[C@H]4[C@@H]1CN23	
InChI=1S/C7H9NO/c1-3-2-8-4(1)5(8)7-6(3)9-7/h3-7H,1-2H2	InChI=1S/C7H9NO/c1-3-2-8-4(1)5(8)7-6(3)9-7/h3-7H,1-2H2/t3-,4-,5-,6-,7+,8?/m0/s1
