16
gdb 18231	3.90795	1.83729	1.55956	3.7792	64.64	-0.2452	-0.0203	0.2249	843.6223	0.130871	-383.734118	-383.727168	-383.726224	-383.765657	25.883	
O	-0.14311574	 0.0116001656	-0.2165074588	-0.237631
C	-0.0381528145	 1.1841898426	 0.0188625089	 0.155022
C	 1.2614927032	 1.9704628093	 0.0222077219	 0.020546
O	 2.3687060408	 1.0969459801	-0.0192148469	-0.249306
C	 3.4490855641	 1.7405238718	-0.6928847809	-0.091721
C	 2.8063023687	 2.6902981694	-1.6861449516	-0.048954
C	 1.6709055991	 2.1305787729	-2.5020768142	-0.289349
C	 1.3818150253	 2.8652129325	-1.2157381248	-0.079336
H	-0.9277248619	 1.8230258435	 0.2321640243	 0.072274
H	 1.2693645115	 2.6045236056	 0.9284462545	 0.081803
H	 4.0789636204	 2.3016092148	 0.0155212646	 0.095939
H	 4.0576647094	 0.9523105193	-1.1477027393	 0.117203
H	 3.3830326809	 3.5281111242	-2.0594755025	 0.095762
H	 1.4232836024	 2.6364030692	-3.4281033608	 0.116444
H	 1.5265331794	 1.054645319	-2.5131467102	 0.143547
H	 0.8803112013	 3.8247063503	-1.2235835742	 0.097757
69.9283	142.2926	230.5231	272.0432	352.1737	410.513	625.8822	713.0092	725.7108	768.9265	829.0591	837.6241	904.68	953.9867	975.625	997.1464	1018.9858	1070.1865	1076.3438	1088.8065	1100.7007	1123.6158	1148.8757	1195.2708	1238.791	1289.6026	1321.9038	1349.3014	1364.4283	1399.4526	1426.3889	1482.4272	1518.8072	1846.4221	2852.0839	2932.9855	2981.3618	3073.949	3133.8542	3183.0864	3193.9916	3225.182
O=CC1OCC2CC12	O=C[C@H]1OC[C@H]2C[C@@H]12	
InChI=1S/C6H8O2/c7-2-6-5-1-4(5)3-8-6/h2,4-6H,1,3H2	InChI=1S/C6H8O2/c7-2-6-5-1-4(5)3-8-6/h2,4-6H,1,3H2/t4-,5-,6-/m1/s1
