17
gdb 104560	2.583	1.20978	0.98162	2.9728	75.27	-0.2492	-0.0282	0.2211	1219.5858	0.132699	-421.794423	-421.785268	-421.784324	-421.828641	34.171	
O	 0.0829662849	 1.2089146378	-0.3966432978	-0.417141
C	-0.1008038881	-0.142749321	-0.0440953579	-0.10098
C	-1.587559256	-0.5050193376	 0.1444105285	 0.08256
C	-2.3729043315	-0.4499710304	-1.216539793	-0.378974
C	-2.3441540911	-1.9844831389	-1.2365357158	 0.407292
O	-2.6059540725	-2.8084019573	-2.0613837075	-0.282251
C	-1.8046883189	-2.0599461682	 0.202157517	-0.392547
C	-2.154236179	 0.2722076136	 1.2324476975	 0.246619
C	-2.585690073	 0.9512768584	 2.1277150187	-0.442328
H	-0.3052492911	 1.7426777349	 0.3073224836	 0.289858
H	 0.3099476396	-0.7348035664	-0.8696351863	 0.112581
H	 0.4510466426	-0.4110117443	 0.8698851486	 0.100831
H	-3.3920838911	-0.0649525921	-1.1193331331	 0.142048
H	-1.8722479543	 0.0738932347	-2.0340269344	 0.15065
H	-0.9136878205	-2.6743556203	 0.3607267303	 0.13546
H	-2.5762049161	-2.3659597237	 0.9140951343	 0.144031
H	-2.987807214	 1.5319332908	 2.9212186673	 0.202292
49.284	107.8916	156.4316	166.2605	241.296	329.1108	390.9621	408.3589	436.5848	442.7129	497.2928	559.7806	624.314	647.8192	654.2323	689.7695	724.1885	853.2992	898.1955	929.2089	1002.7585	1024.2138	1089.7753	1102.3457	1116.2266	1134.9197	1198.0538	1213.5559	1235.1654	1308.4208	1376.9629	1423.3782	1428.5773	1444.2776	1502.5795	1900.8223	2226.0574	2988.5021	3060.3248	3067.5063	3069.7311	3118.2828	3127.7417	3497.7343	3783.426
OCC1(CC(=O)C1)C#C	OCC1(CC(=O)C1)C#C	
InChI=1S/C7H8O2/c1-2-7(5-8)3-6(9)4-7/h1,8H,3-5H2	InChI=1S/C7H8O2/c1-2-7(5-8)3-6(9)4-7/h1,8H,3-5H2
