23
gdb 95368	2.49451	1.56169	1.11692	1.6567	83.64	-0.2443	0.0712	0.3154	1173.8291	0.209401	-388.317021	-388.30887	-388.307926	-388.349605	32.635	
C	-0.6136242798	 1.3976173779	-0.0024463685	-0.415432
C	 0.1283001036	 0.0626886157	-0.0919866923	 0.032472
C	 1.1864707435	-0.0280858793	-1.2073796564	-0.209737
C	 1.9470563724	-1.3228891808	-0.8737438313	-0.237107
C	 2.0258185216	-1.3454788101	 0.6711129915	-0.013949
C	 3.3114405346	-0.7262622591	 1.2656556151	-0.094777
O	 2.8992276602	 0.0881619972	 2.3501992688	-0.241826
C	 1.6991552999	 0.7122642866	 1.9215428192	-0.099364
C	 0.9003528718	-0.3808559268	 1.175925856	-0.025499
H	 0.070843072	 2.2357704506	 0.1640903941	 0.117313
H	-1.1574742193	 1.6008595675	-0.9310549599	 0.112523
H	-1.3446204325	 1.3961582918	 0.813478253	 0.112066
H	-0.6183504635	-0.7180059835	-0.2953574313	 0.070914
H	 0.7478997642	-0.0321488068	-2.2100370653	 0.092573
H	 1.8601094956	 0.8375257719	-1.1566113443	 0.095542
H	 1.3767419144	-2.1866040094	-1.2334503472	 0.09599
H	 2.934704941	-1.3761508757	-1.3437224084	 0.093843
H	 1.8903013576	-2.3567549432	 1.0607053716	 0.071618
H	 4.0204663859	-1.4642901227	 1.6501028815	 0.104491
H	 3.8297736155	-0.1184829715	 0.5032894362	 0.080217
H	 1.1907753506	 1.1060276761	 2.8051601687	 0.105743
H	 1.9312532279	 1.5596338815	 1.255188416	 0.083635
H	 0.2342250227	-0.878515778	 1.8854705332	 0.068754
84.8912	171.482	217.5492	230.8582	268.8823	328.4811	373.6859	479.0566	544.6232	568.8927	633.4963	695.0392	789.0947	814.212	890.0934	901.5072	947.1441	958.2852	968.9054	976.1784	1000.781	1027.1074	1031.4697	1056.7571	1088.0651	1111.4192	1149.6642	1172.6672	1189.8128	1213.5207	1234.3739	1251.2527	1288.4534	1299.7129	1312.0659	1325.2981	1331.6892	1344.1149	1358.8452	1381.1703	1383.1628	1401.4153	1416.6092	1487.9824	1498.7773	1499.8132	1503.6878	1506.6727	1523.3501	2948.932	2967.0587	2996.9804	3024.1176	3031.3445	3036.6383	3060.14	3073.8636	3076.0819	3084.631	3091.0179	3094.0088	3097.4475	3101.9014
CC1CCC2COCC12	C[C@H]1CC[C@H]2COC[C@@H]12	
InChI=1S/C8H14O/c1-6-2-3-7-4-9-5-8(6)7/h6-8H,2-5H2,1H3	InChI=1S/C8H14O/c1-6-2-3-7-4-9-5-8(6)7/h6-8H,2-5H2,1H3/t6-,7-,8-/m0/s1
