19
gdb 117608	2.1338	1.16292	0.96105	1.2688	84.18	-0.2589	0.0346	0.2935	1348.9351	0.15417	-385.804891	-385.794068	-385.793124	-385.84064	38.892	
C	-0.0161844597	 1.4021985138	-0.0147855589	-0.228684
O	 0.0394653597	-0.0046984269	 0.0195154885	-0.23523
C	 0.623647716	-0.5576031811	-1.1310944978	-0.059003
C	 0.5832429806	-2.10610659	-1.0166346962	-0.157935
C	 1.319748978	-2.56098479	 0.2714528554	-0.404221
C	-0.8127214393	-2.568032623	-0.984345462	 0.376822
C	-1.9495946851	-2.9527813368	-0.9469779872	-0.494536
C	 1.2588690024	-2.6551670296	-2.2015322681	 0.325606
C	 1.8414415262	-3.0782047753	-3.1630463494	-0.464515
H	 0.9878732596	 1.8490174009	-0.0876751353	 0.106108
H	-0.6164063665	 1.7645984629	-0.8636174638	 0.109689
H	-0.483583473	 1.731529531	 0.9159601239	 0.131185
H	 0.0852495199	-0.2470811858	-2.0390777715	 0.104912
H	 1.6748349876	-0.2426065216	-1.2345638187	 0.096468
H	 0.8381417581	-2.1129289425	 1.1412094269	 0.145817
H	 1.2896001168	-3.6485412383	 0.3581817195	 0.132257
H	 2.3643598004	-2.2397534312	 0.2317903421	 0.12061
H	-2.9555927923	-3.2915539082	-0.9185260901	 0.197044
H	 2.3422795906	-3.4656040482	-4.0156924373	 0.197606
68.1161	106.3469	117.7997	130.4877	175.4776	215.9186	227.6918	235.9633	294.2268	343.5553	399.4312	467.9558	489.455	560.9416	587.8221	633.4599	637.6473	638.4052	650.1721	727.7232	911.4703	960.2405	980.1047	1012.5839	1128.6052	1164.5347	1174.6922	1186.7877	1211.1393	1238.2547	1290.6255	1392.3866	1412.6895	1479.1625	1485.7351	1487.8795	1492.197	1501.1836	1523.8704	2237.1595	2242.7764	2966.6426	2978.0056	3014.1893	3020.7956	3055.4302	3118.9506	3133.5871	3157.2788	3501.9395	3503.1445
COCC(C)(C#C)C#C	COCC(C)(C#C)C#C	
InChI=1S/C8H10O/c1-5-8(3,6-2)7-9-4/h1-2H,7H2,3-4H3	InChI=1S/C8H10O/c1-5-8(3,6-2)7-9-4/h1-2H,7H2,3-4H3
