25
gdb 102546	2.08594	1.203	0.98401	1.3798	88.61	-0.2351	0.0646	0.2997	1404.874	0.226409	-389.481105	-389.469919	-389.468974	-389.517227	41.584	
C	-0.4795629228	 1.3300961701	-0.4625036272	-0.39629
C	-0.2109134462	-0.174363322	-0.3588100793	-0.175238
C	 0.9455699365	-0.6739363958	-1.2475772852	-0.000872
C	 2.3125173924	-0.0110951502	-0.9490129902	-0.192865
C	 2.8143123117	-0.0826915963	 0.4988472491	-0.375236
C	 1.0105550089	-2.1956651476	-1.2377868699	 0.442107
O	 1.1912015445	-2.6843580203	 0.0719447467	-0.474188
C	 0.148290082	-2.9807069771	-2.190584415	-0.338142
C	 1.6581586385	-2.9221120795	-2.3857019762	-0.337915
H	 0.3651749563	 1.9243266848	-0.1002319426	 0.119302
H	-0.6735281268	 1.6300731069	-1.4991394744	 0.1077
H	-1.3552089416	 1.610818097	 0.1314674256	 0.109591
H	-0.0137403984	-0.4498900711	 0.6817479405	 0.115035
H	-1.117783332	-0.7212230006	-0.6454287706	 0.089726
H	 0.6993904806	-0.4023798077	-2.284028733	 0.063174
H	 3.0579207243	-0.4707824119	-1.6097032229	 0.091029
H	 2.2552891817	 1.040847248	-1.2539680472	 0.089316
H	 2.9014369409	-1.1160253661	 0.8392350702	 0.13567
H	 3.7960320742	 0.3954569892	 0.5819923082	 0.100086
H	 2.1403024302	 0.4372379972	 1.1872981061	 0.111112
H	 1.154213998	-3.6452995598	 0.0524996056	 0.278834
H	-0.276911252	-3.9161813064	-1.8379122973	 0.102965
H	-0.4858875873	-2.4473141364	-2.8910968967	 0.115286
H	 2.0499167429	-2.3482345943	-3.2193251987	 0.115147
H	 2.2296561735	-3.8173668401	-2.1596475156	 0.104666
64.2103	95.111	109.5371	140.514	171.8092	204.125	226.7582	277.9128	285.9264	301.216	325.4642	357.7887	445.5206	524.9321	579.2083	709.1065	759.8046	780.8631	813.2535	838.1147	872.7894	923.4448	938.7385	954.7196	977.6744	1021.2234	1027.2133	1047.0754	1060.2324	1062.9812	1091.7424	1145.6357	1172.3547	1183.6845	1186.3281	1255.1997	1274.9827	1313.9698	1342.4343	1348.9314	1374.876	1393.4371	1412.7287	1417.0391	1440.0092	1459.7966	1484.0008	1489.5949	1499.3206	1502.2111	1504.7632	1507.8767	1517.5737	3000.133	3025.1647	3029.7192	3031.8648	3039.0412	3053.443	3076.5937	3094.6069	3098.5174	3105.4759	3116.0101	3122.1142	3139.6746	3195.4669	3210.9088	3827.7652
CCC(CC)C1(O)CC1	CCC(CC)C1(O)CC1	
InChI=1S/C8H16O/c1-3-7(4-2)8(9)5-6-8/h7,9H,3-6H2,1-2H3	InChI=1S/C8H16O/c1-3-7(4-2)8(9)5-6-8/h7,9H,3-6H2,1-2H3
