14
gdb 124435	3.32066	1.21628	1.10278	3.8731	67.22	-0.3044	-0.0463	0.2581	1105.4794	0.102109	-429.038494	-429.03062	-429.029676	-429.072375	27.271	
C	-0.0879055896	 1.5789303736	-0.0289526867	-0.398144
C	-0.0019872989	 0.0468185661	-0.0405640831	-0.103359
C	-1.3350024371	-0.5721333787	 0.047324075	 0.301636
N	-2.3871416882	-1.0368531058	 0.145675238	-0.299519
N	 0.7101659657	-0.4429684871	-1.2230759397	 0.146758
N	 1.6476943363	-1.3827679094	-1.1552401617	-0.233259
C	 1.9702280715	-1.512510598	-2.4345093027	 0.08206
N	 1.2573519731	-0.6906407044	-3.2410855687	-0.193205
N	 0.4571116038	-0.0179149555	-2.4563721705	-0.113561
H	 0.9194751714	 2.0003800472	-0.0443531211	 0.14819
H	-0.6395416023	 1.9374792514	-0.8985719545	 0.176991
H	-0.5992292666	 1.9044335859	 0.8793303411	 0.152813
H	 0.5911923301	-0.3103697486	 0.8050787443	 0.173834
H	 2.7231336706	-2.1970527768	-2.7891164598	 0.158765
26.65	99.211	197.7948	203.6159	229.348	322.905	411.6821	489.0304	570.4014	698.2591	724.2624	746.7191	864.769	905.3154	1001.2956	1023.3912	1042.1095	1092.6899	1115.2455	1153.7078	1205.5129	1263.3942	1319.7051	1321.6483	1378.1183	1389.3931	1414.7271	1485.0499	1492.764	1497.5169	2370.2111	3065.71	3097.4172	3146.4039	3163.004	3291.6311
CC(C#N)N1N=CN=N1	C[C@@H](C#N)n1ncnn1	
InChI=1S/C4H5N5/c1-4(2-5)9-7-3-6-8-9/h3-4H,1H3	InChI=1S/C4H5N5/c1-4(2-5)9-7-3-6-8-9/h3-4H,1H3/t4-/m0/s1
