19
gdb 99797	2.37982	0.96243	0.84715	4.704	85.18	-0.2602	0.0105	0.2707	1502.6464	0.156487	-382.051901	-382.0408	-382.039856	-382.089239	38.456	
C	-0.0525904427	 1.5289333954	 0.1277801874	-0.41547
C	-0.0562847869	 0.0113698912	-0.0579357974	-0.183397
C	 0.7321420745	-0.4922925217	-1.3133149492	-0.152601
N	 0.2574435001	 0.0433050889	-2.6030903769	-0.517361
C	 2.1519538273	-0.0810286124	-1.16635951	 0.326302
N	 3.2413495556	 0.2720640571	-1.0155853113	-0.350147
C	 0.6644343463	-1.9588281944	-1.3576007857	 0.132127
C	 0.566233965	-3.1575494596	-1.3681582408	 0.0951
C	 0.4714590496	-4.6093239601	-1.3937396692	-0.501733
H	 0.9658583324	 1.9166934402	 0.2261205871	 0.148835
H	-0.5362027508	 2.0447843097	-0.7082890355	 0.112154
H	-0.6026485099	 1.7969124491	 1.034090213	 0.125335
H	 0.366977887	-0.4781185032	 0.8252019191	 0.125017
H	-1.0801002026	-0.3629357873	-0.1682938816	 0.107103
H	-0.6911622258	-0.285730008	-2.7581554642	 0.238031
H	 0.2307952702	 1.0581675212	-2.5644105486	 0.240864
H	 0.3011426126	-4.9749420266	-2.411845214	 0.157263
H	 1.3962108904	-5.0663642797	-1.0258530469	 0.160474
H	-0.3514746422	-4.9667689298	-0.7657150953	 0.152103
24.7542	80.5204	91.6867	112.4286	166.5139	198.7147	233.8048	265.474	274.7511	321.3843	347.4814	391.7674	463.5445	518.7646	538.4269	593.6842	670.3266	785.6731	830.1219	882.1999	953.915	1011.1684	1051.0385	1053.7179	1063.676	1094.5818	1133.9903	1203.0323	1293.7683	1329.7663	1371.1797	1413.3517	1414.6259	1475.6815	1476.2251	1477.9846	1500.3212	1507.042	1639.2224	2359.8501	2378.8469	3032.814	3040.5917	3043.6371	3084.5492	3096.133	3097.8132	3109.7077	3119.4149	3488.8065	3581.3311
CCC(N)(C#N)C#CC	CC[C@@](N)(C#N)C#CC	
InChI=1S/C7H10N2/c1-3-5-7(9,4-2)6-8/h4,9H2,1-2H3	InChI=1S/C7H10N2/c1-3-5-7(9,4-2)6-8/h4,9H2,1-2H3/t7-/m0/s1
