18
gdb 53196	3.92029	0.99854	0.89624	1.5738	85.64	-0.2217	0.0093	0.231	1355.1003	0.147573	-364.761884	-364.75329	-364.752346	-364.796825	31.446	
C	 0.0927461945	 1.5693122229	-0.1070011551	-0.497878
C	 0.0773353298	 0.115540449	-0.0309152345	 0.025811
C	 0.0615500976	-1.087354828	 0.0213726452	 0.129475
C	 0.0576465549	-2.5463142642	 0.0974178155	-0.202987
C	 0.6358621596	-3.0934594183	 1.4001323621	-0.082882
C	-0.22388378	-3.927858427	 1.9791511188	-0.084594
C	-1.4815965789	-4.0093567364	 1.184937612	-0.0663
C	-2.2398868965	-2.7312760177	 1.0574853108	-0.23196
N	-1.3134624556	-3.1390644802	-0.0042689538	-0.097891
H	 0.7642590061	 1.9192937843	-0.8987557349	 0.149219
H	-0.9064407543	 1.9629509889	-0.3237054217	 0.151108
H	 0.4277368634	 2.016551503	 0.8354227099	 0.147111
H	 0.6306706491	-2.9357844955	-0.7570472826	 0.114453
H	 1.604836117	-2.7893357126	 1.7755555341	 0.109567
H	-0.0664218767	-4.4709913403	 2.9029558766	 0.105709
H	-1.9741592541	-4.966798638	 1.0363495813	 0.095473
H	-3.2844522389	-2.7421031537	 0.7577697383	 0.114591
H	-1.9530710473	-1.9137355463	 1.713625448	 0.121974
18.8934	84.7437	93.4348	217.5285	275.4057	334.9499	385.1709	451.5609	485.4696	531.1703	701.1812	746.8097	755.2968	795.5955	848.4169	857.0328	924.8244	936.3278	971.5992	1017.8988	1052.0818	1054.1367	1056.6678	1083.0839	1107.4079	1123.8966	1155.2319	1184.1231	1246.0458	1281.3864	1326.9417	1332.8678	1370.6913	1414.5497	1477.6458	1478.8595	1496.5592	1672.7513	2370.4104	2985.1711	3027.3314	3087.7128	3089.2021	3105.2332	3140.8063	3195.7158	3201.0061	3226.0946
CC#CC1C=CC2CN12	CC#C[C@H]1C=C[C@H]2CN12	
InChI=1S/C8H9N/c1-2-3-7-4-5-8-6-9(7)8/h4-5,7-8H,6H2,1H3	InChI=1S/C8H9N/c1-2-3-7-4-5-8-6-9(7)8/h4-5,7-8H,6H2,1H3/t7-,8-,9?/m0/s1
