20
gdb 18107	3.38535	2.16201	1.65583	0.1489	78.43	-0.2337	0.0313	0.265	861.7542	0.18112	-311.902658	-311.895969	-311.895025	-311.933656	27.163	
C	-0.1061355295	 1.3542469112	 0.1950539637	-0.195086
C	 1.2980992115	 1.9743774639	 0.1027212923	-0.210315
C	 2.2690600372	 0.8085649566	 0.4099932217	-0.001501
C	 2.6507900037	 0.6663947664	 1.914899356	-0.264869
C	 2.0292560246	-0.638235654	 2.3421172579	-0.065502
C	 1.4102077935	-1.2599569828	 1.3416855305	-0.064672
C	 1.4695686979	-0.4980423441	 0.0408609475	-0.044768
C	 0.0824572287	-0.019253889	-0.4665314714	-0.208379
H	-0.3938440791	 1.2269743047	 1.2454187653	 0.102176
H	-0.878256594	 1.9622218622	-0.2853034574	 0.089547
H	 1.46572549	 2.3371465497	-0.9188546283	 0.090666
H	 1.4412893561	 2.8280913864	 0.7723149908	 0.089358
H	 3.1762947225	 0.9021935173	-0.1908804998	 0.065377
H	 3.7389904998	 0.6582507269	 2.0611501741	 0.100418
H	 2.2773872827	 1.5081320295	 2.514120637	 0.098603
H	 2.1005545617	-1.0095396215	 3.3594244484	 0.086627
H	 0.8946285321	-2.2120871505	 1.4223266914	 0.085382
H	 1.9708440028	-1.0926208088	-0.7319102952	 0.067033
H	-0.7168695546	-0.7286030344	-0.2309224884	 0.089629
H	 0.1036708425	 0.0956055204	-1.5570618261	 0.090274
64.791	188.5973	289.5021	387.8185	445.0242	554.6961	572.0524	723.5957	741.8925	783.9811	814.8944	820.8158	871.727	906.4427	915.5678	945.8027	972.0302	982.73	988.3055	1002.375	1042.2121	1065.9245	1115.6215	1130.6261	1144.3284	1173.8164	1196.5755	1207.2634	1276.5885	1285.9505	1303.2108	1315.3704	1326.568	1332.136	1348.9721	1361.2456	1385.0691	1483.4126	1488.7767	1491.3664	1507.0687	1693.7637	3008.5519	3020.386	3026.8011	3030.6144	3035.8429	3038.218	3075.7002	3080.0204	3080.7038	3093.4708	3168.3496	3195.2669
C1CC2CC=CC2C1	C1C[C@H]2CC=C[C@H]2C1	
InChI=1S/C8H12/c1-3-7-5-2-6-8(7)4-1/h1,3,7-8H,2,4-6H2	InChI=1S/C8H12/c1-3-7-5-2-6-8(7)4-1/h1,3,7-8H,2,4-6H2/t7-,8+/m0/s1
