14
gdb 47984	7.1095	0.66016	0.60867	4.5033	80.81	-0.2615	-0.0924	0.1691	1720.7015	0.100359	-436.669148	-436.660571	-436.659627	-436.705038	28.159	
O	-0.1294052638	 0.0208193149	 0.2274604355	-0.21419
C	-0.0096838857	 1.211882076	 0.0641709403	 0.006332
C	 1.2591484265	 1.9000978339	 0.0166886648	 0.23721
C	 2.3020576039	 2.5060416232	-0.0282270132	-0.004988
C	 3.5327944736	 3.2194506309	-0.0809399544	 0.219767
N	 4.6861956369	 2.6911981396	 0.0381544777	-0.300976
C	 5.6511849708	 3.7930129955	-0.0796387148	-0.202928
C	 4.7850884271	 5.0625702075	-0.2920282464	-0.121326
O	 3.4261778502	 4.5630642318	-0.2744049681	-0.25323
H	-0.8871649598	 1.8760558391	-0.0638069619	 0.111646
H	 6.2618210704	 3.842056016	 0.8277818907	 0.132273
H	 6.3293917687	 3.5963834357	-0.9163389282	 0.132272
H	 4.8853994853	 5.8008155227	 0.5076630111	 0.129068
H	 4.9537577959	 5.5527016433	-1.2542622731	 0.12907
19.573	72.1861	86.7118	98.008	201.9429	244.8336	411.4241	439.7049	514.5183	698.8204	716.498	760.0788	825.7771	904.831	957.2138	980.1876	1011.5719	1019.0186	1055.4059	1114.0593	1212.7626	1245.709	1264.4351	1345.3723	1386.7291	1420.4634	1494.5787	1525.9534	1682.6603	1768.1179	2339.2839	2934.6789	3047.1646	3062.9727	3076.5835	3112.8731
O=CC#CC1=NCCO1	O=CC#CC1=NCCO1	
InChI=1S/C6H5NO2/c8-4-1-2-6-7-3-5-9-6/h4H,3,5H2	InChI=1S/C6H5NO2/c8-4-1-2-6-7-3-5-9-6/h4H,3,5H2
