16
gdb 20660	3.26263	2.20023	1.33573	4.8766	72.99	-0.2245	-0.0403	0.1843	901.8213	0.131365	-342.818008	-342.810594	-342.809649	-342.849554	27.331	
C	 0.0171950868	 1.5287335566	-0.0231031794	-0.502534
C	 0.0103587998	 0.0259882051	 0.0172378661	 0.213072
C	-0.0120084423	-0.7310005881	-1.1584587172	-0.029162
N	-0.0195755442	-2.0608293955	-1.2149708058	-0.207899
N	-0.0050530979	-2.7523898215	-0.0786052585	-0.207899
C	 0.0165099607	-2.0910140919	 1.0763029754	-0.029162
C	 0.0255785386	-0.6987768143	 1.2081645048	 0.213072
C	 0.0502725667	-0.04396214	 2.5611336996	-0.502534
H	 0.9067910811	 1.9373442395	 0.4700010375	 0.140222
H	 0.0029668562	 1.8954946871	-1.0522269577	 0.1353
H	-0.8525045237	 1.9460741971	 0.497426941	 0.14023
H	-0.0248558191	-0.2328892084	-2.125383583	 0.110769
H	 0.0274355159	-2.7209747246	 1.9630126214	 0.110769
H	 0.935250251	 0.5916028975	 2.6810125385	 0.140227
H	-0.8240383612	 0.6004466557	 2.7088364732	 0.140225
H	 0.0591559916	-0.7895343844	 3.3597919041	 0.1353
130.8679	154.343	173.3055	251.9366	278.4541	394.3119	438.7154	516.0145	536.5801	615.788	785.1996	786.448	871.2406	918.7204	973.3383	995.5339	1026.3348	1047.0574	1077.7842	1084.4308	1197.8721	1214.9901	1272.8583	1323.7192	1341.7159	1412.9294	1421.1715	1477.8524	1483.7158	1484.9926	1491.3679	1498.2244	1592.804	1610.6806	3030.5588	3030.9675	3081.1086	3083.8658	3120.5232	3121.3184	3154.9648	3157.9294
CC1=CN=NC=C1C	Cc1cnncc1C	
InChI=1S/C6H8N2/c1-5-3-7-8-4-6(5)2/h3-4H,1-2H3	InChI=1S/C6H8N2/c1-5-3-7-8-4-6(5)2/h3-4H,1-2H3
