16
gdb 5582	3.28712	1.85297	1.26271	0.3097	67.39	-0.1765	0.0628	0.2393	952.9441	0.131982	-379.939492	-379.931645	-379.930701	-379.971645	29.403	
C	-0.5451802543	 1.1106402454	-0.0412966638	-0.315837
N	 0.3597613291	-0.0213781907	 0.180226384	-0.405972
C	 0.8688251467	-0.6318530979	-1.0014176837	 0.099772
C	 0.5757124459	-1.9425385831	-1.2980534429	 0.363442
O	-0.1617845816	-2.8352766553	-0.6043742409	-0.441131
N	 1.170291088	-2.2800086254	-2.4738593948	-0.305835
C	 1.8655582553	-1.1797073374	-2.9585750091	-0.09515
C	 1.6955910431	-0.148889009	-2.071624612	-0.229668
H	-0.0918830261	 1.9426240091	-0.6027406051	 0.104185
H	-1.418082803	 0.7671939703	-0.6042078912	 0.126205
H	-0.8893587117	 1.4946831279	 0.9246674409	 0.110289
H	 1.1131107401	 0.2661597553	 0.7966275649	 0.224922
H	-0.440970622	-2.3480222292	 0.1864121719	 0.299311
H	 1.1159568384	-3.1870245753	-2.9020449588	 0.265026
H	 2.4101504332	-1.2417368524	-3.8856467184	 0.113363
H	 2.1140526488	 0.8415795278	-2.1695979111	 0.087077
76.6174	158.8439	188.1231	265.8371	274.7338	380.6989	422.9518	504.1105	512.877	624.2267	627.998	640.3759	705.8803	739.8899	804.8562	826.2091	910.3386	1029.6001	1078.1049	1099.312	1148.4699	1165.7646	1176.3621	1225.3289	1285.0132	1388.1163	1396.7437	1453.7087	1465.7514	1490.7791	1516.1655	1527.1014	1573.4663	1664.456	2980.1546	3065.3421	3108.1095	3241.1853	3277.5237	3501.1975	3690.3902	3720.7428
CNC1=C(O)NC=C1	CNc1c(O)[nH]cc1	
InChI=1S/C5H8N2O/c1-6-4-2-3-7-5(4)8/h2-3,6-8H,1H3	InChI=1S/C5H8N2O/c1-6-4-2-3-7-5(4)8/h2-3,6-8H,1H3
