19
gdb 87407	2.32879	1.43094	1.27508	2.2841	72.37	-0.2419	0.067	0.309	1098.452	0.157735	-460.115542	-460.106496	-460.105552	-460.148929	34.884	
O	 0.1433922344	 1.3105073151	 0.3246154821	-0.418547
C	 0.0700017271	-0.0827668121	 0.2558546252	 0.030763
C	-0.6584635959	-0.8366314388	 1.344962636	-0.408347
C	-1.2670117063	-0.6725119122	-0.0271536957	 0.351778
C	-2.590012935	 0.0258599428	-0.3358637253	 0.011033
O	-2.3775995436	 0.9241061776	-1.4237346175	-0.429508
C	-3.1236491394	-1.3509113114	-0.8309739225	-0.276441
C	-1.6408916882	-1.8188686053	-0.9831441113	 0.056504
O	-1.1094680331	-1.684292025	-2.281645622	-0.441016
H	 0.8073064662	 1.5357313918	 0.9850127008	 0.287071
H	 0.9234867256	-0.5724742258	-0.2144950619	 0.095599
H	-0.3017272114	-1.819061576	 1.6394253611	 0.112716
H	-1.0807408507	-0.2390615004	 2.1472464611	 0.113881
H	-3.1151521978	 0.5199069361	 0.4900823639	 0.069117
H	-3.2408986348	 1.1585347648	-1.7818759571	 0.284725
H	-3.6514691901	-1.8984092105	-0.0452161801	 0.103818
H	-3.7224333586	-1.34367659	-1.7458428238	 0.091918
H	-1.4102204762	-2.8356741993	-0.6550475973	 0.079763
H	-1.2460823924	-0.7611489515	-2.5347409556	 0.285172
95.5293	125.9003	159.3157	208.3398	299.0417	309.9794	332.3196	382.6359	393.9819	441.7858	490.2886	520.5204	545.5205	667.7633	799.7714	830.9149	869.4145	881.6733	889.9717	984.6181	996.5796	1004.1178	1028.9188	1036.2125	1087.2023	1124.5195	1148.5612	1156.9734	1168.1752	1219.6441	1223.0965	1254.4612	1293.0979	1302.6419	1317.2297	1337.3767	1409.1288	1430.4606	1448.7179	1464.1122	1495.3288	3029.3725	3055.1107	3078.7643	3096.0986	3116.8551	3117.383	3207.5492	3757.0985	3801.8405	3801.9536
OC1CC11C(O)CC1O	O[C@H]1C[C@]21[C@@H](O)C[C@H]2O	
InChI=1S/C6H10O3/c7-3-1-4(8)6(3)2-5(6)9/h3-5,7-9H,1-2H2	InChI=1S/C6H10O3/c7-3-1-4(8)6(3)2-5(6)9/h3-5,7-9H,1-2H2/t3-,4+,5-,6-/m0/s1
