21
gdb 83045	2.07399	1.7757	1.34237	1.9119	82.75	-0.2437	0.0183	0.2621	1075.6551	0.184001	-387.089925	-387.081324	-387.08038	-387.12272	33.838	
C	 0.2915687511	 1.7412738699	-0.1961489683	-0.4365
C	 0.1291613254	 0.2438173783	-0.0205968902	-0.012126
C	 1.2167304608	-0.7632743482	-0.3244726222	-0.066484
C	 2.6241358129	-0.3312166992	-0.7063190122	-0.278112
C	 3.364931583	 0.4286975091	 0.3584025598	-0.059121
C	 2.9360246768	 0.580296896	 1.6098159205	-0.089981
C	 1.6572944637	 0.0043882797	 2.1570914217	 0.070008
O	 0.9909436513	 0.9395555498	 3.0135398796	-0.441152
C	 0.7317113612	-0.5785283018	 1.1024567938	-0.078214
H	 1.2907179721	 2.0935610062	 0.0665414645	 0.130218
H	 0.1046699615	 2.0279534145	-1.2373550606	 0.117472
H	-0.4361669839	 2.2869866658	 0.4172953604	 0.114997
H	-0.866255189	-0.0938564579	-0.3006344061	 0.083947
H	 0.8880061966	-1.6659649299	-0.8310086381	 0.081067
H	 3.2106784414	-1.2240001326	-0.9661374945	 0.114919
H	 2.6014398251	 0.2679035638	-1.6283843375	 0.108447
H	 4.3165445208	 0.8643248305	 0.0607515313	 0.087851
H	 3.526908516	 1.1353942392	 2.3343398177	 0.092282
H	 1.928312456	-0.8104441548	 2.8425976561	 0.096102
H	 0.7115131526	 1.6786775226	 2.4633096786	 0.280098
H	 0.0789604545	-1.3505584714	 1.4985925659	 0.084281
99.2537	154.8821	186.122	213.5179	269.3619	305.4474	344.5103	436.0173	467.3422	483.6314	535.0181	668.3023	717.5532	747.9277	765.3905	817.7225	857.0732	920.9175	939.9735	963.6309	998.8563	1016.168	1046.8782	1056.1243	1070.3423	1109.8979	1135.2158	1152.2234	1158.7909	1196.5087	1237.4509	1254.2003	1265.0848	1349.3737	1361.9174	1367.3076	1381.4434	1409.3794	1418.5711	1430.3135	1451.4834	1475.3121	1506.877	1509.4148	1726.0609	2999.1453	3008.8702	3017.5366	3024.1649	3073.6921	3115.776	3133.7872	3137.5284	3140.8444	3152.3815	3167.572	3817.1887
CC1C2CC=CC(O)C12	C[C@H]1[C@H]2CC=C[C@@H](O)[C@@H]12	
InChI=1S/C8H12O/c1-5-6-3-2-4-7(9)8(5)6/h2,4-9H,3H2,1H3	InChI=1S/C8H12O/c1-5-6-3-2-4-7(9)8(5)6/h2,4-9H,3H2,1H3/t5-,6+,7+,8-/m0/s1
