17
gdb 68202	3.72046	1.23116	1.14422	3.8031	71.91	-0.2504	0.0149	0.2652	1084.2556	0.137708	-417.979949	-417.972423	-417.971479	-418.011767	29.746	
O	-0.1122579236	 1.4151385006	-0.0365313184	-0.480629
C	-0.0080294734	 0.0326719749	 0.0149267789	 0.402257
C	 0.2965188682	-0.7967523518	 1.2993215334	-0.253159
N	-0.4232819904	-1.9243560834	 0.5815923968	-0.129465
C	-1.2856322622	-0.8308010987	-0.0257899191	-0.211802
C	 0.5169508315	-2.1511731725	-0.5734208956	-0.116392
C	 0.8770736137	-0.6912959476	-1.0244013624	-0.316638
C	 1.6727405294	-2.9529646926	-0.1762282144	 0.293594
N	 2.6033609284	-3.5698239173	 0.1216393476	-0.326145
H	 0.7694341234	 1.7963522459	-0.1081936669	 0.288369
H	 1.3301537765	-1.0123283028	 1.5826219259	 0.120698
H	-0.2851647643	-0.4799387252	 2.165958257	 0.123271
H	-2.0454317283	-0.5198761422	 0.6923868455	 0.12572
H	-1.7410778588	-1.071841129	-0.9906545773	 0.106858
H	-0.0223004369	-2.6962204725	-1.3525967788	 0.132032
H	 0.5741602293	-0.4806246674	-2.0524317204	 0.120665
H	 1.9395969274	-0.4598774685	-0.9126920216	 0.120763
116.1012	159.4956	252.9376	302.9749	349.5864	395.9114	448.9875	482.1815	535.8877	573.7952	644.2017	692.659	812.9103	840.0942	856.1136	896.3093	951.094	958.5384	974.5391	1020.177	1037.2896	1065.034	1104.853	1142.414	1196.2707	1208.04	1222.4889	1228.579	1257.1806	1271.043	1326.6435	1361.0943	1388.1822	1495.6504	1499.6264	1534.9164	2361.3941	3060.5803	3065.336	3069.4308	3079.1248	3120.1305	3136.2255	3141.333	3809.3796
OC12CN(C1)C(C2)C#N	O[C@@]12CN(C1)[C@@H](C2)C#N	
InChI=1S/C6H8N2O/c7-2-5-1-6(9)3-8(5)4-6/h5,9H,1,3-4H2	InChI=1S/C6H8N2O/c7-2-5-1-6(9)3-8(5)4-6/h5,9H,1,3-4H2/t5-/m0/s1
