16
gdb 39998	3.47	1.5453	1.29685	0.5074	67.8	-0.252	0.0115	0.2635	967.6115	0.125654	-437.860474	-437.853627	-437.852683	-437.892026	26.665	
C	-0.452517806	 1.3540460828	 0.0214233958	-0.256427
O	 0.927044643	 0.97140228	-0.0835848419	-0.267989
C	-0.0409545215	-0.0497095052	 0.0309876172	 0.431042
C	-0.0761031475	-1.0986050755	 1.1543899422	-0.331544
C	-0.5289545954	-2.1502446577	 0.0999974274	-0.017711
N	-1.9777175878	-2.3942531686	 0.0610167418	-0.262536
C	-2.4207911791	-1.7377714422	-0.9297625884	 0.114752
O	-1.5749392739	-1.0040413353	-1.7040646659	-0.2242
C	-0.2974827471	-1.1109624136	-1.0458026568	-0.024035
H	-0.7325907995	 1.8351701228	 0.9573123134	 0.121933
H	-0.8901376926	 1.7800338558	-0.879466338	 0.128433
H	 0.9174738801	-1.2991980429	 1.5645743052	 0.122777
H	-0.779745744	-0.9235715346	 1.9707081287	 0.121971
H	 0.0192820704	-3.0937450227	 0.0955541302	 0.093355
H	-3.4560427627	-1.7054445721	-1.2506281877	 0.144577
H	 0.4835909633	-1.248807871	-1.7935317431	 0.1056
70.8585	205.9362	278.9166	332.4139	339.3785	494.3767	495.6351	613.0496	730.5427	795.0001	835.0346	862.4369	878.5721	890.1629	920.9814	944.2124	966.9374	998.0274	1026.7725	1083.9036	1102.3656	1123.9234	1146.4564	1158.0444	1170.0667	1200.5915	1251.7852	1266.6314	1306.7424	1310.0939	1348.491	1427.8793	1468.5448	1531.8418	1685.9049	3065.405	3088.0161	3094.0333	3121.4134	3126.38	3179.4352	3218.495
C1OC11CC2N=COC12	C1O[C@]21C[C@H]1N=CO[C@@H]21	
InChI=1S/C6H7NO2/c1-4-5(8-3-7-4)6(1)2-9-6/h3-5H,1-2H2	InChI=1S/C6H7NO2/c1-4-5(8-3-7-4)6(1)2-9-6/h3-5H,1-2H2/t4-,5-,6+/m1/s1
