16
gdb 16862	3.72803	2.01455	1.59597	4.4079	63.94	-0.2614	0.0146	0.2759	820.1159	0.132511	-383.77146	-383.764846	-383.763902	-383.802303	25.583	
O	-0.1294825076	-0.0521160456	-0.3044355418	-0.323172
C	-0.0484516975	 1.0774729015	 0.0917434296	 0.400608
C	-1.1840480923	 2.0867438925	-0.005731617	-0.354419
C	-1.225995265	 3.089640169	 1.1309741636	-0.030966
C	-0.8198160419	 2.6742715654	 2.5269995888	-0.299102
C	 0.1082393537	 3.5069761983	 1.6796401594	-0.03652
C	 1.3111133943	 2.8680113718	 1.0248220233	-0.094637
O	 1.1080879831	 1.4909249812	 0.673977941	-0.223745
H	-1.0625363433	 2.6192523715	-0.9596581173	 0.133895
H	-2.1063009501	 1.5062450236	-0.0883706664	 0.140208
H	-2.005648489	 3.8399472572	 1.0473266952	 0.094152
H	-1.3118403783	 3.1620245008	 3.360535638	 0.117866
H	-0.5628810732	 1.6357736813	 2.7071967422	 0.137046
H	 0.2611560638	 4.5456911076	 1.956054592	 0.095667
H	 1.5925182306	 3.4276000146	 0.1218167963	 0.11427
H	 2.1775858327	 2.8572604192	 1.6921792032	 0.128851
94.6702	182.2704	305.3473	328.012	430.4524	516.3258	523.3275	609.9136	730.9689	766.1422	771.2918	830.6979	851.0702	930.6691	1002.8207	1010.9348	1052.5973	1068.223	1084.3728	1103.9371	1129.1487	1137.068	1194.5084	1213.9036	1243.4616	1285.5587	1331.5675	1370.548	1413.6603	1427.5086	1466.7911	1499.0091	1515.7929	1850.0252	3010.7388	3020.4749	3084.5934	3099.5926	3138.1499	3153.1849	3162.1633	3223.934
O=C1CC2CC2CO1	O=C1C[C@H]2C[C@H]2CO1	
InChI=1S/C6H8O2/c7-6-2-4-1-5(4)3-8-6/h4-5H,1-3H2	InChI=1S/C6H8O2/c7-6-2-4-1-5(4)3-8-6/h4-5H,1-3H2/t4-,5+/m1/s1
