16
gdb 42917	2.94882	1.33863	1.02023	1.8127	69.87	-0.2492	-0.0325	0.2167	1139.1239	0.123735	-437.820208	-437.812553	-437.811609	-437.853106	28.456	
O	-1.0945276229	 0.3288173158	 0.4502613173	-0.302722
C	-0.6550018528	 1.4302303803	 0.3016436212	 0.388662
C	-1.1394903797	 2.68922861	-0.3524522135	-0.159022
C	-0.8167590222	 3.838190972	 0.5443297366	-0.243365
N	 0.261404157	 3.2980882419	-0.2740338151	-0.121505
C	 0.7623082285	 2.0593459481	 0.4416419811	-0.110151
C	 1.4629557915	 2.2110104474	 1.7575894126	 0.068418
C	 2.3104615128	 1.1262878005	 2.2730291202	-0.174625
O	 2.890615254	 2.3025739995	 1.7144189668	-0.227486
H	-1.7856214626	 2.7793014844	-1.2173670904	 0.129255
H	-1.1644366086	 4.8136499054	 0.2189944932	 0.143239
H	-0.8161406106	 3.6992275262	 1.6222476034	 0.129045
H	 1.427201992	 1.5232567502	-0.2447971943	 0.130366
H	 1.0033329272	 2.8793106752	 2.4844532985	 0.100722
H	 2.4258425558	 1.0054128282	 3.3486742973	 0.122908
H	 2.4326711506	 0.2167534251	 1.686883035	 0.126261
58.1702	131.3918	165.3777	229.225	314.2403	357.7583	500.6384	521.097	616.7604	701.6327	743.8197	814.4154	847.3901	865.5296	897.7222	935.4347	966.3463	1025.382	1041.0113	1084.2382	1094.3677	1112.9104	1129.0597	1155.8125	1158.1654	1188.1771	1201.5727	1217.828	1292.8802	1298.7526	1304.8818	1444.1211	1504.6852	1529.4004	1895.0477	3062.4161	3089.1636	3113.7609	3123.3769	3177.3898	3195.2823	3206.6746
O=C1C2CN2C1C1CO1	O=C1[C@H]2CN2[C@H]1[C@H]1CO1	
InChI=1S/C6H7NO2/c8-6-3-1-7(3)5(6)4-2-9-4/h3-5H,1-2H2	InChI=1S/C6H7NO2/c8-6-3-1-7(3)5(6)4-2-9-4/h3-5H,1-2H2/t3-,4-,5+,7?/m1/s1
