17
gdb 54231	2.32304	1.51873	1.28954	1.3236	69.44	-0.2521	0.0054	0.2575	1054.7254	0.135833	-455.184025	-455.175096	-455.174152	-455.217797	32.858	
C	-0.0819589519	 1.5668208549	-0.1292964306	-0.450624
C	-0.0124016699	 0.0390287055	-0.0311451436	 0.065903
C	 0.8711528957	-0.6722662837	-1.0788407107	-0.11942
O	 1.7940563462	-1.091265698	-0.0108648268	-0.259301
C	 1.0126543487	-0.5044273571	 0.9469513691	 0.423264
N	 1.1054967973	-0.4769570084	 2.2004143703	-0.569801
C	-1.427144382	-0.5394697383	 0.1072385389	 0.341051
N	-1.8526886086	-0.6472783551	 1.3909693345	-0.522845
O	-2.0958493665	-0.8109733813	-0.8714029106	-0.372905
H	 0.914563521	 1.992991764	-0.2777319215	 0.127623
H	-0.7179248735	 1.8547642418	-0.9712729862	 0.144672
H	-0.5029922595	 1.9895765168	 0.7864322521	 0.143576
H	 0.4180823267	-1.5331357197	-1.5710046001	 0.145661
H	 1.3811619441	-0.0289429376	-1.7983387452	 0.123036
H	 1.9231545233	-0.9839806558	 2.5407555489	 0.233942
H	-1.1935621878	-0.5654501425	 2.153802503	 0.284213
H	-2.7627652434	-1.0453437254	 1.5576631285	 0.261951
59.0683	119.2984	173.0206	216.9203	231.4403	233.3603	323.3895	392.4846	424.2354	461.9473	579.9611	623.7939	659.6062	688.2482	774.0785	784.6919	855.4536	893.2908	925.9803	961.6417	986.1355	1032.0785	1125.889	1143.3816	1173.9246	1195.8292	1221.2149	1249.2387	1357.0456	1368.5254	1409.0847	1487.6436	1495.9952	1516.3634	1629.7444	1798.4716	1808.6144	3042.6064	3080.7728	3117.7343	3127.6999	3151.4732	3486.8067	3539.7082	3695.6828
CC1(COC1=N)C(N)=O	C[C@]1(CO[C]1[NH])C(=O)N	
InChI=1S/C5H8N2O2/c1-5(3(6)8)2-9-4(5)7/h7H,2H2,1H3,(H2,6,8)	InChI=1S/C5H8N2O2/c1-5(3(6)8)2-9-4(5)7/h7H,2H2,1H3,(H2,6,8)/t5-/m0/s1
