16
gdb 10929	5.87841	1.36042	1.25995	2.1884	71.39	-0.2452	0.0464	0.2916	987.3282	0.128398	-346.536901	-346.529134	-346.52819	-346.568704	29.431	
C	 0.0698856734	 1.570629238	 0.036153351	-0.500508
C	-0.07707339	 0.0873295502	 0.1223909338	 0.419329
C	-1.3592467236	-0.7567127367	 0.0044907457	-0.305598
C	-0.684175202	-1.8338847404	 0.9462366948	-0.198663
C	-0.5422341816	-3.1946961981	 0.4697906723	 0.339196
C	-0.4273061986	-4.3251382126	 0.0769306311	-0.462266
C	 0.5753771224	-0.9349803218	 0.9598864654	-0.048196
O	 0.9823790428	-0.7363868803	-0.3930238528	-0.274472
H	 1.0856281924	 1.8698145793	 0.3075455961	 0.136664
H	-0.127300244	 1.9211473005	-0.9833156492	 0.134135
H	-0.6367190354	 2.071750699	 0.7055534135	 0.124838
H	-2.2401140742	-0.3034134252	 0.4643569328	 0.108944
H	-1.5945221055	-1.0918635872	-1.0068822616	 0.120714
H	-1.1675755696	-1.8213504894	 1.9286313873	 0.106452
H	-0.3182469742	-5.3207393835	-0.2755960629	 0.19531
H	 1.3373870377	-0.8678547017	 1.7287434427	 0.104121
97.1133	139.6778	196.8848	254.5245	307.7477	360.4382	436.6437	493.493	569.7005	618.5367	627.8699	674.4376	723.6374	798.7313	874.7048	898.8292	925.9117	961.8207	1016.3387	1039.3647	1055.1782	1104.3595	1156.4831	1195.9925	1205.1432	1250.7837	1275.4832	1335.8598	1405.3838	1455.7661	1476.5867	1486.5109	1498.3676	2236.5876	3034.7758	3054.8256	3075.1632	3096.724	3122.2074	3138.2314	3179.1927	3504.218
CC12CC(C#C)C1O2	C[C@]12C[C@@H](C#C)[C@H]1O2	
InChI=1S/C7H8O/c1-3-5-4-7(2)6(5)8-7/h1,5-6H,4H2,2H3	InChI=1S/C7H8O/c1-3-5-4-7(2)6(5)8-7/h1,5-6H,4H2,2H3/t5-,6-,7+/m1/s1
