12
gdb 133321	2.41552	1.80902	1.035	4.7584	60.84	-0.2454	-0.0387	0.2067	1001.1974	0.077136	-518.071343	-518.064216	-518.063272	-518.102862	27.057	
N	-0.0178548654	 1.4177747928	 0.1582341745	-0.604436
C	-0.0235336074	 0.0528913489	 0.0557639506	 0.076462
C	-1.1684388562	-0.7274766297	 0.032600845	 0.222865
F	-2.3604982516	-0.1239776304	 0.0538622852	-0.073693
C	-1.0594755817	-2.1112421906	-0.0178816051	-0.079962
N	 0.1083281699	-2.7472300552	-0.0499768666	-0.219915
N	 1.2308554439	-2.0190052172	-0.0382115281	-0.251807
C	 1.153848443	-0.7187341297	 0.0109932073	 0.321217
F	 2.3034809283	-0.0390445629	 0.0120558056	-0.074043
H	 0.8359674653	 1.881778969	-0.1069838248	 0.274523
H	-0.8687068604	 1.8943513031	-0.0944501482	 0.27213
H	-1.9525543476	-2.727587928	-0.0335713854	 0.136658
142.4563	261.5447	261.7431	314.7897	322.872	398.5648	461.7573	489.352	542.9538	589.2013	599.1497	615.454	713.1962	768.6419	880.9672	931.3921	974.7657	1135.426	1206.7323	1258.7582	1307.6185	1341.5129	1436.6233	1517.1866	1601.4013	1626.1028	1663.1722	3190.8192	3594.9281	3709.7704
NC1=C(F)C=NN=C1F	Nc1c(F)cnnc1F	
InChI=1S/C4H3F2N3/c5-2-1-8-9-4(6)3(2)7/h1H,(H2,7,8)	InChI=1S/C4H3F2N3/c5-2-1-8-9-4(6)3(2)7/h1H,(H2,7,8)
