21
gdb 57342	1.67979	1.63042	1.03617	2.3202	84.98	-0.2505	-0.0337	0.2168	1259.4806	0.177533	-387.07368	-387.062816	-387.061872	-387.109419	39.996	
C	-0.0320595184	 1.5476735986	-0.0491714984	-0.413769
C	 0.0011675061	 0.0119464473	 0.0356849121	 0.235996
C	 0.7338779092	-0.4291210706	 1.3153473622	-0.417073
C	-1.4405359816	-0.5239362064	 0.0538967708	-0.411903
C	 0.7270302614	-0.5579897697	-1.2478841722	-0.257291
C	 2.1803456033	-0.0756927294	-1.338587492	 0.155544
O	 2.5206929947	 0.904505652	-1.9455859667	-0.251851
C	 0.7180826471	-2.0147014835	-1.3184041873	 0.30073
C	 0.7758332847	-3.214591963	-1.3790453036	-0.434562
H	 0.9699686344	 1.9830536936	-0.076507581	 0.131374
H	-0.564867318	 1.884452749	-0.944615618	 0.116565
H	-0.5533122891	 1.9546329944	 0.8234120535	 0.111511
H	 0.1800985303	-0.0941859164	 2.1982321457	 0.116843
H	 0.8247510744	-1.5181288327	 1.3664125156	 0.128228
H	 1.7388323213	 0.0013207157	 1.378910116	 0.115638
H	-1.9850736611	-0.2264490496	-0.8488108131	 0.112889
H	-1.4616602039	-1.6149526722	 0.1184432775	 0.128906
H	-1.9787480976	-0.1200204261	 0.917805696	 0.112924
H	 0.2124004801	-0.1402095267	-2.1215356589	 0.121953
H	 2.9125452339	-0.7080172793	-0.7924717238	 0.096384
H	 0.804309179	-4.274493825	-1.4427735044	 0.200964
44.1227	82.1831	144.6843	168.9003	221.1122	251.247	265.4382	275.9431	311.4661	327.5754	373.7585	395.775	423.9764	487.1966	519.0108	550.752	635.4206	646.2185	749.1377	869.388	939.5236	941.2461	962.354	967.6074	1000.9441	1053.1586	1066.0703	1082.8361	1194.0861	1238.1182	1243.4513	1276.9563	1317.6343	1399.8256	1406.336	1420.3955	1435.5792	1479.8944	1484.2417	1487.9568	1505.7018	1507.4483	1517.5647	1828.8572	2228.5235	2903.1876	3030.8073	3032.9546	3038.0731	3042.2437	3095.8738	3099.0701	3103.3374	3111.8204	3118.7214	3120.5398	3501.704
CC(C)(C)C(C=O)C#C	CC(C)(C)[C@@H](C=O)C#C	
InChI=1S/C8H12O/c1-5-7(6-9)8(2,3)4/h1,6-7H,2-4H3	InChI=1S/C8H12O/c1-5-7(6-9)8(2,3)4/h1,6-7H,2-4H3/t7-/m1/s1
