23
gdb 39454	2.21078	1.70389	1.1557	0.2189	90.33	-0.235	0.0197	0.2547	1161.3889	0.209066	-351.1504	-351.142225	-351.14128	-351.182773	33.466	
C	-0.0545905051	 1.4460686032	-0.0448822143	-0.308088
C	 1.2506046879	 0.6977010582	 0.1238580953	 0.000749
C	 1.9604412482	 0.7375753146	 1.4671455124	-0.205132
C	 2.6985212912	-0.5415334093	 1.8898785202	-0.19196
C	 1.7747208401	-1.7791450782	 2.0212606546	-0.239291
C	 0.4975529911	-1.4574187252	 2.7468203733	-0.037586
C	-0.6279413016	-1.0756442268	 2.1403653337	-0.060259
C	-0.8254334061	-1.0462441113	 0.639505268	-0.285451
C	-0.0306981459	-0.0517611098	-0.2109823042	 0.018025
H	-0.492239258	 1.8403705263	 0.8679812993	 0.108697
H	-0.219358877	 2.0698846088	-0.9173016692	 0.102985
H	 1.9366518744	 0.7592508752	-0.7189865985	 0.075054
H	 2.6830758974	 1.5633731165	 1.4347707435	 0.088782
H	 1.2414161095	 0.9987761849	 2.2484738913	 0.10089
H	 3.5008953443	-0.776161807	 1.1791119799	 0.091356
H	 3.1879938665	-0.3484251301	 2.8530411573	 0.091067
H	 1.5447711059	-2.1565545329	 1.0195019308	 0.105434
H	 2.3210046518	-2.5760249697	 2.5390246258	 0.093508
H	 0.5326155898	-1.4680536652	 3.8349819817	 0.079626
H	-1.4879713007	-0.8098995462	 2.7505394234	 0.082495
H	-0.5965018408	-2.0481717078	 0.2495841512	 0.111254
H	-1.8892181504	-0.8895763395	 0.4239862704	 0.099251
H	-0.0577041024	-0.3585813484	-1.2552944958	 0.078595
88.3656	201.0098	218.1334	263.4844	279.5991	325.6452	393.1138	477.7613	498.9611	554.5761	660.5514	696.9378	751.4995	780.9123	813.762	851.4354	865.2534	895.8213	901.0495	954.6762	1002.6564	1006.7855	1029.8554	1045.8206	1052.1679	1068.4615	1088.3763	1131.7939	1146.5219	1156.6325	1197.729	1231.7401	1261.6996	1268.3534	1283.5539	1301.7334	1331.9397	1348.275	1366.5304	1374.8287	1404.9791	1422.0041	1436.7569	1476.5122	1482.4102	1489.1684	1499.1715	1499.9602	1715.2178	3002.1468	3013.996	3027.2803	3035.9729	3045.1804	3050.7311	3077.3546	3083.8149	3106.4026	3118.3188	3121.8347	3131.8856	3159.0841	3201.2577
C1C2CCCC=CCC12	C1[C@H]2CCCC=CC[C@@H]12	
InChI=1S/C9H14/c1-2-4-6-9-7-8(9)5-3-1/h1,3,8-9H,2,4-7H2/b3-1-	InChI=1S/C9H14/c1-2-4-6-9-7-8(9)5-3-1/h1,3,8-9H,2,4-7H2/b3-1-/t8-,9+/m0/s1
