26
gdb 122345	3.20863	0.68184	0.63717	1.3832	93.79	-0.2095	0.0777	0.2872	1945.5783	0.238604	-369.592076	-369.580543	-369.579599	-369.62968	41.356	
C	 3.4006326734	 1.898969665	-8.4396823308	-0.380668
C	 3.8515133948	 1.5979646497	-7.007877956	-0.164679
C	 3.3249529858	 0.259717202	-6.4790815298	-0.156871
C	 3.772113779	-0.0461005691	-5.0424680811	-0.218173
C	 3.1668394815	-1.3365063293	-4.5231326727	-0.012492
C	 3.8346545696	-2.6738800651	-4.6383100151	 0.007168
C	 5.1941089887	-2.8799016423	-5.273231084	-0.415917
N	 3.6390883394	-2.043406992	-3.3288021026	-0.118244
C	 4.7746453501	-1.5421274423	-2.5700708477	-0.310694
H	 3.7467517567	 1.1258104426	-9.1347647874	 0.11317
H	 2.3078689176	 1.9391795181	-8.5102744805	 0.113915
H	 3.7919022169	 2.8595775899	-8.7891311937	 0.111026
H	 4.9487575372	 1.5994600949	-6.9609627553	 0.093197
H	 3.5200815381	 2.4052980869	-6.3413268272	 0.094788
H	 2.2270207529	 0.2582618126	-6.525007091	 0.09449
H	 3.6547952724	-0.5514672642	-7.142035964	 0.096669
H	 4.8653173544	-0.0680155516	-5.0027249039	 0.094472
H	 3.4619050738	 0.7789616698	-4.3857368019	 0.097815
H	 2.0770046144	-1.3305126465	-4.5911337449	 0.079719
H	 3.1799497108	-3.5351039316	-4.7789555449	 0.081956
H	 5.8388675545	-2.0009254287	-5.2215336602	 0.119127
H	 5.7237085926	-3.709314539	-4.7909275692	 0.121743
H	 5.0740686593	-3.1401786601	-6.3305012767	 0.12103
H	 5.5912567213	-1.096558699	-3.1556169416	 0.097408
H	 4.4181737764	-0.7836399217	-1.8652103851	 0.120783
H	 5.1956545083	-2.3662756991	-1.9845202126	 0.119259
40.6052	76.7991	93.0347	119.7258	144.9297	153.8023	213.3325	228.2152	247.7645	284.7756	323.843	386.8591	461.8805	531.3333	545.6106	712.8275	737.1524	777.9054	797.1495	865.9904	914.7722	941.1733	990.4927	1016.0829	1040.3186	1050.4086	1066.8869	1113.2672	1129.7488	1144.9544	1165.6607	1170.6074	1186.8765	1205.6616	1241.8173	1278.2467	1311.7941	1330.4703	1352.3177	1354.8789	1392.0036	1397.9593	1412.3815	1414.5687	1437.8934	1461.9202	1478.0163	1485.8796	1489.2175	1494.9561	1499.6022	1499.7344	1505.4703	1508.6944	1514.7001	2994.3299	3006.1795	3009.9074	3017.6138	3028.797	3031.7214	3035.771	3053.0272	3062.9663	3067.9507	3084.7346	3088.4739	3089.2224	3094.1041	3095.2855	3100.8949	3130.895
CCCCC1C(C)N1C	CCCC[C@H]1[C@@H](C)N1C	
InChI=1S/C8H17N/c1-4-5-6-8-7(2)9(8)3/h7-8H,4-6H2,1-3H3	InChI=1S/C8H17N/c1-4-5-6-8-7(2)9(8)3/h7-8H,4-6H2,1-3H3/t7-,8+,9?/m1/s1
