13
gdb 48376	2.62974	1.26283	0.99375	4.8027	71.74	-0.2731	-0.0558	0.2172	1152.8019	0.086621	-415.555015	-415.546377	-415.545433	-415.588698	30.568	
O	-0.3211868552	 0.3809438255	 0.7500447554	-0.229887
C	 0.2760864153	 0.8274218757	-0.1879445807	 0.146847
C	 1.3728852799	 1.8645464575	-0.0703180649	-0.0114
N	 2.3397354989	 1.798542774	-1.1911051199	-0.32912
C	 1.4476094088	 2.9487102576	-1.140910007	-0.223273
C	 0.45619138	 3.0677914069	-2.1850659435	 0.33908
N	-0.3456629301	 3.1928412821	-3.0078711939	-0.316544
C	 1.8244869503	 2.2147281018	 1.2457344013	 0.257091
C	 2.2285909752	 2.4962556382	 2.3413973255	-0.39046
H	 0.0902050531	 0.5148527717	-1.2351310091	 0.117933
H	 3.2675724595	 2.0549989103	-0.8618761179	 0.266375
H	 1.8309973162	 3.9005759627	-0.7843780513	 0.158099
H	 2.5714901781	 2.7387811759	 3.3175364061	 0.21526
82.7458	111.8826	133.6853	161.229	244.7648	283.898	337.6656	432.8148	467.6666	557.9366	586.779	605.7105	643.3453	682.4969	755.379	780.6224	906.3829	942.8598	1022.6435	1038.043	1061.6404	1197.8635	1254.4819	1328.6151	1402.6718	1429.8729	1843.5542	2245.0963	2362.6456	2944.2445	3158.871	3497.6786	3516.6
O=CC1(NC1C#N)C#C	O=C[C@]1(N[C@H]1C#N)C#C	
InChI=1S/C6H4N2O/c1-2-6(4-9)5(3-7)8-6/h1,4-5,8H	InChI=1S/C6H4N2O/c1-2-6(4-9)5(3-7)8-6/h1,4-5,8H/t5-,6+/m0/s1
