19
gdb 68291	2.8403	1.49235	1.38648	1.1459	75.65	-0.2377	0.0764	0.3141	1040.7785	0.15825	-422.94845	-422.940347	-422.939403	-422.980989	31.367	
C	-0.1088009675	 1.4739513546	-0.0051124804	-0.523502
C	-0.0359415335	-0.0168688715	-0.0804680898	 0.329398
C	 0.6958235896	-0.9370301239	-1.0959748872	-0.277416
C	 0.2025999191	-1.8119443427	 0.0752550667	-0.031366
O	 0.6354242085	-0.7614285137	 1.0245768596	-0.35299
C	-1.1598939987	-1.0865854422	 0.0221196824	 0.487736
C	-2.2465593169	-1.1426284938	 1.0970161746	-0.376931
C	-3.1952283301	-1.3831721458	-0.0961201816	-0.083831
O	-2.0965455738	-1.2964177259	-1.0362170921	-0.333612
H	 0.8928060948	 1.9141679253	-0.0102057482	 0.135136
H	-0.6629174717	 1.8615446622	-0.8658016465	 0.135106
H	-0.6204570299	 1.7908430867	 0.9092782094	 0.130813
H	 0.2327658297	-1.0834887106	-2.0737636408	 0.117578
H	 1.777356994	-0.7980706784	-1.1402108037	 0.101611
H	 0.4408316371	-2.845511763	 0.3263942282	 0.090364
H	-2.1561064256	-1.9646748463	 1.8078601787	 0.120278
H	-2.4058903646	-0.2123122704	 1.6443976001	 0.117507
H	-3.6785906464	-2.3657762255	-0.1320024446	 0.107317
H	-3.9452452242	-0.6061782152	-0.2802007348	 0.106805
91.2886	173.4364	192.5967	201.8845	221.846	335.0291	426.8963	449.4856	553.6821	640.3097	650.6341	727.7432	786.5799	817.3882	866.5906	878.4472	910.5174	948.5134	968.9069	1008.08	1014.6016	1022.6023	1095.3115	1107.5126	1133.3874	1155.8829	1164.909	1179.1887	1201.2934	1218.5653	1231.7372	1245.0968	1307.9805	1350.0927	1370.4198	1413.5458	1476.792	1482.4133	1486.8701	1490.6117	1531.2761	3029.3995	3038.0966	3070.9509	3072.6817	3085.7946	3110.5781	3115.0631	3121.6874	3139.4081	3150.3068
CC12CC(O1)C21CCO1	C[C@@]12C[C@@H](O1)[C@]12CCO1	
InChI=1S/C7H10O2/c1-6-4-5(9-6)7(6)2-3-8-7/h5H,2-4H2,1H3	InChI=1S/C7H10O2/c1-6-4-5(9-6)7(6)2-3-8-7/h5H,2-4H2,1H3/t5-,6+,7+/m1/s1
