19
gdb 86358	2.91209	1.09899	0.98754	2.5537	77.24	-0.246	0.0569	0.3029	1267.0546	0.157626	-422.973414	-422.964132	-422.963188	-423.007594	35.384	
O	-0.0739719925	 1.4204267324	 0.0180055353	-0.434577
C	 0.0054935178	-0.0052499531	 0.0099026062	 0.088807
C	 0.2518240729	-0.5681520817	 1.4366601882	-0.282312
C	-1.2911462246	-0.544795967	 1.6537840111	 0.115547
O	-1.7675541833	 0.6328536267	 2.2663397584	-0.436937
C	-1.437609534	-0.5668420406	 0.096813272	-0.011025
C	-2.5944799414	 0.1860525586	-0.5644238921	-0.367502
C	-2.5706328672	 0.0794732841	-2.018553084	 0.29928
C	-2.5278610236	-0.0311313468	-3.2149481431	-0.455127
H	 0.8161718149	 1.7686472486	 0.1341998073	 0.290307
H	 0.6423874225	-0.3544111509	-0.8102832097	 0.074498
H	 0.6556315906	-1.5843573424	 1.4164562341	 0.105622
H	 0.8467356245	 0.0481604162	 2.1165210474	 0.095991
H	-1.7362099316	-1.3782779624	 2.2021460935	 0.08163
H	-1.3420271107	 1.3708430854	 1.8091282688	 0.283856
H	-1.425447816	-1.6052857174	-0.2482825735	 0.089423
H	-3.5409143976	-0.2132831304	-0.1781472385	 0.131695
H	-2.5639715308	 1.2393944015	-0.2712763464	 0.139783
H	-2.5050781699	-0.1142022009	-4.272937515	 0.191041
51.9476	105.9377	148.4304	221.3327	241.9867	320.9315	345.2807	373.3088	407.0538	441.4698	514.4414	557.1252	597.0841	616.7558	636.19	759.3858	825.5938	863.6731	881.518	897.9157	948.0525	965.5879	1015.5744	1024.9351	1112.3431	1119.445	1142.1452	1175.684	1210.0758	1229.6435	1242.5671	1262.8077	1298.601	1326.6482	1337.0473	1381.9285	1407.6853	1451.67	1462.3477	1470.0108	2237.2917	3032.6037	3038.5826	3054.9784	3065.7377	3085.7399	3089.9055	3115.3134	3507.7296	3755.6317	3814.3585
OC1CC(O)C1CC#C	O[C@H]1C[C@@H](O)[C@H]1CC#C	
InChI=1S/C7H10O2/c1-2-3-5-6(8)4-7(5)9/h1,5-9H,3-4H2	InChI=1S/C7H10O2/c1-2-3-5-6(8)4-7(5)9/h1,5-9H,3-4H2/t5-,6-,7+
