16
gdb 123272	2.79262	2.09848	1.5948	1.4227	69.88	-0.1951	-0.0043	0.1909	853.7399	0.12701	-437.840369	-437.833949	-437.833005	-437.870718	27.013	
C	 0.0179689633	 1.2080421372	 0.2998829483	-0.289692
C	 1.4309308838	 1.4862746817	-0.150064783	 0.22192
O	 2.3216183669	 0.5635505382	 0.4270066098	-0.254936
C	 1.9590436626	-0.7059681764	 0.8665005823	 0.03681
C	 0.8682395332	-1.495989341	 0.7651242051	-0.086509
N	-0.3676921328	-1.2412945169	 0.1142704911	-0.361918
C	-0.1916576453	-0.0203270611	-0.585356652	 0.001724
C	 0.5481345525	 0.1709169077	-1.6908400649	 0.047232
O	 1.333315712	 1.292507043	-1.6042640095	-0.241189
H	-0.0628998255	 0.9950342732	 1.3648014446	 0.132653
H	-0.6542002301	 2.0307560649	 0.0348023073	 0.118875
H	 1.8621529498	 2.4766705911	-0.0048191358	 0.099002
H	 2.7816058972	-1.0857928462	 1.4611463351	 0.110768
H	 0.9105733092	-2.4281409293	 1.3209547428	 0.106786
H	-0.6945956804	-2.0258641412	-0.4367010513	 0.239765
H	 0.7206569538	-0.471714425	-2.543686	 0.11871
183.1294	327.7509	372.9085	389.6341	445.2523	480.8337	522.1754	560.857	630.2775	723.5841	758.7571	780.1567	794.1691	822.2227	863.1368	891.6288	901.9957	942.5607	964.8319	1023.5946	1044.6944	1090.5404	1128.6912	1160.9025	1233.0161	1260.2037	1286.1876	1325.5523	1339.0424	1375.9388	1412.8711	1428.2994	1478.2288	1648.9955	1676.0181	3056.3444	3130.7365	3149.8392	3171.2534	3205.0795	3224.239	3544.8509
C1C2OC3C4NC13C4O2	C1[C@H]2OC=CN[C]1[CH]O2	
InChI=1S/C6H7NO2/c1-2-8-4-3-5(9-2)6(1,4)7-3/h2-5,7H,1H2	InChI=1S/C6H7NO2/c1-2-8-6-3-5(7-1)4-9-6/h1-2,4,6-7H,3H2/t6-/m0/s1
