18
gdb 108243	2.2286	1.4878	1.14573	3.8295	68.56	-0.2187	0.0458	0.2645	1120.9895	0.146782	-476.151111	-476.142044	-476.141099	-476.184831	34.135	
O	 0.0206261638	 1.4224591981	 0.0058083473	-0.417593
C	 0.0721025726	 0.0096547933	 0.1422331426	-0.169198
C	-1.316156129	-0.5632525746	 0.0855748067	 0.241518
N	-2.2106845679	-0.1474241217	-1.0121954974	-0.375586
C	-2.7841174686	-1.5320905636	-1.1190094703	-0.241832
C	-1.9033662831	-1.9672456586	 0.0418889808	 0.237232
O	-1.2221801992	-3.1705596312	 0.1686775148	-0.460483
C	-2.1080768757	-1.0939355519	 1.2646432412	 0.006924
O	-1.3702379739	-1.4889264174	 2.379377301	-0.435814
H	-0.4006048354	 1.5898276231	-0.8459706854	 0.286637
H	 0.7047678209	-0.4377693127	-0.6395043609	 0.09252
H	 0.5218288358	-0.2068952632	 1.1147781669	 0.125208
H	-2.9025612954	 0.5327011411	-0.7031496896	 0.222928
H	-3.8691895997	-1.608470799	-0.9769337429	 0.099891
H	-2.5101715415	-1.9982227866	-2.0715518283	 0.120151
H	-1.8640241862	-3.8617836654	 0.3750374668	 0.295178
H	-3.0804574468	-0.6704131006	 1.522630384	 0.085635
H	-0.9898591207	-2.3543739489	 2.1738144629	 0.286685
64.4801	128.4325	190.6871	232.6937	265.5431	272.831	292.4802	349.1577	429.909	437.2718	476.5818	557.5259	571.7607	680.0496	697.5889	787.0987	860.6159	914.5097	949.6279	1010.287	1014.1432	1052.8591	1067.7278	1110.6832	1138.5356	1169.5244	1211.7932	1240.4784	1260.2382	1279.0986	1313.8034	1338.5805	1361.6315	1378.3864	1393.6833	1423.5682	1470.9685	1499.8691	1512.339	2985.1546	3019.7705	3071.6123	3084.8895	3099.753	3471.2163	3736.6349	3768.9949	3784.7275
OCC12NCC1(O)C2O	OC[C@@]12NC[C@]1(O)[C@H]2O	
InChI=1S/C5H9NO3/c7-2-4-3(8)5(4,9)1-6-4/h3,6-9H,1-2H2	InChI=1S/C5H9NO3/c7-2-4-3(8)5(4,9)1-6-4/h3,6-9H,1-2H2/t3-,4-,5-/m0/s1
