19
gdb 118318	2.0619	1.38244	0.93577	3.9783	75.39	-0.2386	-0.0137	0.2249	1281.0562	0.157594	-456.357167	-456.347014	-456.346069	-456.393071	35.806	
C	-0.172022097	-0.7352104467	 1.3658559954	-0.508109
C	 0.0384510419	 0.0928539797	 0.1038147898	 0.407381
O	 0.1476459408	 1.2925627984	 0.1570185343	-0.305772
N	 0.131572614	-0.6252387068	-1.1057651497	-0.103015
C	 0.098040681	-2.0884929281	-1.1633708995	-0.200276
C	-1.2980199936	-2.6332126696	-1.4969954949	-0.057902
O	-1.762313577	-2.1825535614	-2.7542158522	-0.414105
C	 0.2748823338	 0.0147617032	-2.3527420334	 0.057535
N	-0.1824358791	 1.1643204679	-2.6236179545	-0.406859
H	-1.0217338856	-1.4189489036	 1.2883104161	 0.136956
H	 0.7158806593	-1.3299604049	 1.6057991957	 0.146719
H	-0.3466039482	-0.0311482934	 2.1785585367	 0.154493
H	 0.7910449249	-2.4119017161	-1.948209991	 0.12346
H	 0.4554307461	-2.5140428215	-0.2251026419	 0.119022
H	-1.2462152061	-3.7261443068	-1.5566854217	 0.116206
H	-2.004232719	-2.379851842	-0.6923361223	 0.099388
H	-2.0050852792	-1.2538444779	-2.6722071309	 0.302529
H	 0.8153360571	-0.6261842727	-3.0601100913	 0.101368
H	 0.0755364757	 1.4153247624	-3.5778772147	 0.23098
50.9991	78.3233	85.4924	147.645	179.9854	203.8834	245.2588	295.0305	380.4423	396.2546	459.2846	497.7575	518.2483	588.5842	642.0801	715.101	823.176	873.4165	939.0308	978.7716	1032.6405	1046.5156	1061.0338	1075.6584	1124.1163	1209.2814	1219.1455	1233.7373	1266.8714	1378.6562	1388.3728	1398.9267	1406.3757	1415.8349	1441.6425	1467.5252	1487.2649	1495.8016	1499.8424	1709.9165	1817.2261	2995.3252	3034.7613	3045.5544	3049.5649	3074.2438	3111.5605	3128.9919	3163.4327	3484.8254	3812.5584
CC(=O)N(CCO)C=N	CC(=O)N(CCO)C=N	
InChI=1S/C5H10N2O2/c1-5(9)7(4-6)2-3-8/h4,6,8H,2-3H2,1H3	InChI=1S/C5H10N2O2/c1-5(9)7(4-6)2-3-8/h4,6,8H,2-3H2,1H3
