21
gdb 59326	3.43793	1.01048	0.82371	3.7175	85.89	-0.2348	-0.0431	0.1917	1424.683	0.182139	-387.137274	-387.128052	-387.127108	-387.171624	34.798	
C	 0.0031667328	 1.5879319221	 0.11394836	-0.388688
C	 0.040233126	 0.0541282559	 0.0518911572	 0.026185
C	 0.8043115604	-0.5026003535	 1.2616637037	-0.398219
C	-1.3945737358	-0.5240103199	-0.0583475102	-0.025597
C	-2.1446041328	-0.1269224876	-1.3513357906	-0.359446
C	-2.6464279273	-1.4396755643	-1.9744459318	 0.378881
O	-3.3267966589	-1.5398993341	-2.9687060054	-0.331078
C	-2.1354442976	-2.5361333811	-1.1207115343	-0.194625
C	-1.459964906	-2.0372523057	-0.0795913488	-0.058707
H	 1.0169984698	 1.9995444334	 0.1433571537	 0.114217
H	-0.5082475936	 2.024250128	-0.7487730933	 0.119795
H	-0.5186521521	 1.926585735	 1.0171852481	 0.11365
H	 0.5798104378	-0.2417792227	-0.8592672253	 0.077971
H	 0.2669397848	-0.2967099925	 2.1954412683	 0.113998
H	 0.9614151522	-1.5827028961	 1.194836943	 0.114456
H	 1.7904535564	-0.0342735529	 1.3409218489	 0.116377
H	-1.946755195	-0.1701564348	 0.8259599884	 0.087393
H	-2.9877818983	 0.5479893606	-1.1824444165	 0.130378
H	-1.4865018349	 0.3667062991	-2.0743210359	 0.131968
H	-2.3229825173	-3.5798713713	-1.3386467656	 0.11456
H	-1.0059761906	-2.6361080674	 0.7022680265	 0.116529
49.1385	90.4093	171.0782	220.179	233.5396	254.3415	336.173	368.3457	397.3002	441.6739	499.6995	563.5076	659.2331	744.1301	798.255	826.0178	836.1497	892.6672	930.1623	949.5569	964.1472	996.533	1011.9691	1041.3339	1105.5458	1126.2835	1143.1662	1180.4612	1188.4609	1211.024	1256.2819	1291.1516	1305.2365	1352.4844	1362.7548	1372.2677	1402.1492	1422.1333	1453.9817	1487.319	1493.9218	1505.1602	1512.0364	1649.5783	1815.7337	2983.3188	3006.6495	3026.6294	3031.694	3059.5533	3091.3394	3097.5069	3104.621	3108.0109	3110.0063	3192.2075	3225.6426
CC(C)C1CC(=O)C=C1	CC(C)[C@H]1CC(=O)C=C1	
InChI=1S/C8H12O/c1-6(2)7-3-4-8(9)5-7/h3-4,6-7H,5H2,1-2H3	InChI=1S/C8H12O/c1-6(2)7-3-4-8(9)5-7/h3-4,6-7H,5H2,1-2H3/t7-/m1/s1
