14
gdb 98068	3.36246	0.98257	0.86096	4.0976	60.08	-0.2417	-0.0906	0.1511	1313.6028	0.097125	-510.992757	-510.982791	-510.981847	-511.029057	33.34	
N	-0.0339925654	 1.2674608248	-0.0181158192	-0.525425
C	-0.107087353	-0.0455971991	 0.2923512894	 0.342035
O	 0.6465954378	-0.6664661944	 1.0133626824	-0.333294
C	-1.3352133331	-0.7343469577	-0.3287238288	 0.207939
O	-2.282032018	-0.1129411255	-0.752896317	-0.298033
C	-1.2793713875	-2.2688969102	-0.4240718125	 0.338233
O	-0.3771143274	-2.7678484439	-1.0423613822	-0.261167
C	-2.4494562414	-3.0069622595	 0.1892598122	-0.189676
O	-2.3428587569	-4.3745527787	-0.0875457005	-0.394559
H	 0.67477753	 1.8412385728	 0.4079280768	 0.274796
H	-0.7866771726	 1.6930025397	-0.5346997828	 0.280921
H	-2.4338033249	-2.7779452396	 1.2709918944	 0.124164
H	-3.366817155	-2.544497777	-0.2128255067	 0.135195
H	-3.0784092725	-4.8256345217	 0.3369212245	 0.298872
32.4838	61.6736	95.8766	148.8043	181.1528	212.1089	267.4266	313.4658	325.5326	352.4207	452.8302	477.2223	607.1884	619.7253	647.5902	760.281	810.1283	918.0757	1008.6486	1091.3179	1136.4003	1192.0689	1246.9044	1248.5779	1372.5861	1440.4105	1490.6753	1600.1445	1790.8391	1801.9206	1833.7767	2945.9708	2984.7338	3594.761	3730.9962	3838.1777
NC(=O)C(=O)C(=O)CO	NC(=O)C(=O)C(=O)CO	
InChI=1S/C4H5NO4/c5-4(9)3(8)2(7)1-6/h6H,1H2,(H2,5,9)	InChI=1S/C4H5NO4/c5-4(9)3(8)2(7)1-6/h6H,1H2,(H2,5,9)
