20
gdb 102093	1.93439	1.51433	1.01009	2.3288	76.79	-0.2425	-0.0363	0.2062	1248.0921	0.168089	-440.254999	-440.244861	-440.243917	-440.290391	36.085	
C	-1.58252352	 0.2772879374	 0.0169907204	-0.246228
O	-0.7899700197	-0.8535258469	 0.3298154755	-0.251987
C	 0.5260745912	-0.5369017034	 0.7316369516	-0.037332
C	 0.5242814421	-0.0204174068	 2.1691911671	 0.141035
O	 1.3629446445	 0.7007542495	 2.6424213463	-0.240273
C	 1.3897299939	-1.8068579361	 0.6696348092	 0.30452
C	 2.8771388124	-1.5482904858	 0.7613847764	-0.459631
C	 0.7955339117	-3.0717561054	 1.18346372	-0.275158
N	 0.982203352	-2.8595098875	-0.2650792031	-0.361911
H	-1.1423041787	 0.8570222985	-0.8068752786	 0.121351
H	-2.5627101907	-0.0940670158	-0.2887101314	 0.138569
H	-1.7098405734	 0.9445974722	 0.8812857235	 0.121002
H	 0.9678126416	 0.230918848	 0.0772270058	 0.091265
H	-0.3302109234	-0.4128242925	 2.7675550094	 0.088891
H	 3.1339899044	-1.0000797219	 1.672163306	 0.139863
H	 3.4199788769	-2.4960229647	 0.7519759935	 0.128574
H	 3.2174677963	-0.9566011978	-0.095873874	 0.12055
H	 1.4414720154	-3.8240366079	 1.6275392971	 0.116417
H	-0.218078514	-3.0454986068	 1.5725182605	 0.11988
H	 0.0828131875	-2.6056821663	-0.6691770452	 0.240601
61.6945	88.8762	112.1238	180.6013	184.995	198.4409	239.0561	322.5136	325.8306	354.128	373.9247	466.9946	500.9346	562.09	730.3704	845.1882	902.1178	934.5671	986.0342	992.6828	1033.9992	1051.7348	1057.3143	1104.0279	1120.8408	1139.6209	1148.561	1184.4139	1221.4296	1269.9582	1299.0267	1318.306	1345.4844	1385.6431	1400.5681	1425.6057	1481.9232	1484.9069	1490.1546	1495.4509	1507.085	1509.6361	1830.7021	2872.0529	2986.8274	2993.2558	3039.231	3044.0486	3106.2413	3113.1219	3127.7015	3132.4107	3201.6009	3496.5222
COC(C=O)C1(C)CN1	CO[C@@H](C=O)[C@@]1(C)CN1	
InChI=1S/C6H11NO2/c1-6(4-7-6)5(3-8)9-2/h3,5,7H,4H2,1-2H3	InChI=1S/C6H11NO2/c1-6(4-7-6)5(3-8)9-2/h3,5,7H,4H2,1-2H3/t5-,6+/m0/s1
