21
gdb 122867	7.1119	0.45781	0.43652	2.4888	76.71	-0.2432	-0.0081	0.235	2419.5749	0.178665	-461.365622	-461.354146	-461.353201	-461.404538	38.608	
O	-0.1442783639	 1.4919124764	 0.0144809689	-0.422331
C	-0.0031580442	 0.0803769348	-0.0492151088	-0.074852
C	-1.3918968194	-0.5357679701	 0.0572363658	-0.172544
C	-1.3673114912	-2.0648266169	-0.0028091159	-0.17729
C	-2.7613998687	-2.6832095064	 0.1060063938	-0.314697
C	-2.7501951867	-4.2075876642	 0.1171162444	 0.371627
O	-1.7442301757	-4.854231609	 0.2683286944	-0.278629
C	-4.1165396679	-4.8624761742	-0.076577754	-0.168283
O	-4.0123121247	-6.2494135464	 0.1048380653	-0.394303
H	 0.7313143374	 1.8843693777	-0.0464412664	 0.28531
H	 0.4696916494	-0.2310489526	-0.9952730615	 0.084979
H	 0.6326967044	-0.2949504076	 0.7693252929	 0.086667
H	-1.8483911316	-0.1988007578	 0.9965198484	 0.103096
H	-2.0124842779	-0.1300899088	-0.75179697	 0.101863
H	-0.9011716176	-2.3975634354	-0.9382973131	 0.106599
H	-0.7409225661	-2.4693026634	 0.7995005111	 0.118939
H	-3.254197242	-2.3541500451	 1.0331942172	 0.126042
H	-3.415947248	-2.3339154286	-0.7044939205	 0.1128
H	-4.8238222835	-4.3896697423	 0.6272187239	 0.104118
H	-4.462692402	-4.5903645966	-1.0899982892	 0.108247
H	-4.8792827703	-6.6359787234	-0.0481201468	 0.292643
28.4087	44.5552	74.6972	94.9144	113.5037	136.6193	209.8462	229.7065	252.3819	263.9231	312.084	426.9937	468.1511	488.7275	675.4949	724.2681	777.2856	845.3709	888.12	972.9727	993.2699	1023.099	1059.4091	1068.2651	1104.2148	1129.3215	1149.5804	1199.8103	1229.3369	1237.2779	1251.573	1280.4223	1293.4348	1316.0603	1325.9724	1359.419	1399.933	1442.6706	1453.386	1464.0389	1487.3302	1494.1814	1502.6975	1529.0078	1829.646	2945.4787	2958.9697	2967.7245	2984.227	3006.2103	3022.9991	3035.5857	3040.2422	3058.5689	3086.664	3830.8262	3836.0631
OCCCCC(=O)CO	OCCCCC(=O)CO	
InChI=1S/C6H12O3/c7-4-2-1-3-6(9)5-8/h7-8H,1-5H2	InChI=1S/C6H12O3/c7-4-2-1-3-6(9)5-8/h7-8H,1-5H2
