17
gdb 50831	4.14399	0.93702	0.77543	2.7995	74.31	-0.251	0.006	0.257	1434.4271	0.136096	-455.169678	-455.160575	-455.159631	-455.206572	30.658	
N	-0.2733180519	 1.2950162469	 0.1558530005	-0.436081
C	-0.0938733278	 0.048917985	 0.132826157	 0.12561
O	-1.1872971255	-0.7577425972	-0.0115549353	-0.22699
C	-0.9608862829	-2.1257613529	-0.0343816682	 0.521134
O	 0.124313277	-2.6508899635	 0.0623667165	-0.412775
N	-2.1347893671	-2.7581592769	-0.17945516	-0.13877
C	-3.526207489	-2.3223750816	-0.3236298181	-0.164737
C	-3.9260894498	-3.8249525861	-0.425169902	-0.244564
C	-2.4183872896	-4.1881740773	-0.2688754943	-0.160741
H	 0.6235314156	 1.7653129978	 0.2678966668	 0.234948
H	 0.8355433259	-0.5159817716	 0.213184982	 0.142103
H	-3.9120811587	-1.7846919519	 0.5475913762	 0.129623
H	-3.7085351964	-1.7200386414	-1.21863862	 0.129657
H	-4.5637136712	-4.1794457671	 0.3844790859	 0.12337
H	-4.3655743205	-4.1135631276	-1.3797841911	 0.123365
H	-1.9527244033	-4.6742739691	-1.1319743662	 0.127435
H	-2.1526420945	-4.7455545957	 0.6348350205	 0.127412
7.5037	99.5694	119.1237	120.4904	131.8759	164.3468	280.8795	405.0594	477.4744	612.0545	751.8899	774.5302	825.412	844.1003	848.0413	907.5495	933.6727	963.8066	1021.4228	1071.4516	1136.0722	1142.5608	1146.6474	1199.9929	1202.4181	1227.9879	1271.4516	1281.196	1307.3833	1341.3275	1385.9332	1448.2457	1494.264	1513.6062	1535.7835	1748.1223	1828.4608	3043.4955	3050.0819	3087.2217	3092.0003	3098.442	3135.1507	3153.5907	3507.6922
N=COC(=O)N1CCC1	[NH][CH]OC(=O)N1CCC1	
InChI=1S/C5H8N2O2/c6-4-9-5(8)7-2-1-3-7/h4,6H,1-3H2	InChI=1S/C5H8N2O2/c6-4-9-5(8)7-2-1-3-7/h4,6H,1-3H2
