17
gdb 127397	4.76809	1.22441	0.99867	3.3558	75.	-0.2202	-0.0118	0.2084	1154.9144	0.137864	-417.986302	-417.978971	-417.978027	-418.018065	28.136	
C	-0.0130962938	 1.4281798248	 0.0377731001	-0.314895
N	-0.084637531	-0.0112931925	 0.1504317037	-0.081491
C	-1.4556948861	-0.5676413876	 0.1603704147	-0.306029
C	-1.23935961	-1.893188614	 0.8157858229	 0.162244
C	-1.7336952682	-3.1200109483	 1.0922822438	-0.087009
O	-0.8366484107	-3.8140780946	 1.8304765665	-0.175127
N	 0.3016956872	-3.0232869539	 2.0558483488	-0.248323
C	 0.028689835	-1.904846251	 1.4465194087	 0.378721
C	 0.7152512477	-0.5903387727	 1.2475627555	-0.28601
H	 1.0300963121	 1.7420346334	-0.0706274381	 0.124927
H	-0.5542761867	 1.7583487773	-0.8548843223	 0.123263
H	-0.4396764247	 1.9591391763	 0.9110021032	 0.09434
H	-2.1589696246	 0.0544513474	 0.746570785	 0.099353
H	-1.8466906374	-0.6223743982	-0.862158611	 0.123276
H	-2.6457769783	-3.6482862758	 0.8630903031	 0.152343
H	 1.7684637274	-0.6740014051	 0.9593416901	 0.133894
H	 0.6707910423	 0.0094319243	 2.1764253153	 0.106523
99.2621	216.7837	260.3411	278.9197	291.8672	303.113	476.412	514.7211	593.2327	672.7157	721.1707	789.7094	826.6404	850.6788	885.0065	964.9433	1016.86	1020.4958	1052.9301	1109.9087	1139.2882	1150.9529	1186.747	1193.9249	1215.8847	1236.3401	1285.4942	1344.9879	1368.3838	1429.4972	1461.2764	1486.6596	1500.8289	1506.4333	1521.1844	1569.3895	1685.6294	2911.8199	2917.3631	2926.1013	3043.8663	3058.3013	3060.4952	3101.8977	3266.9547
CN1CC2=CON=C2C1	CN1Cc2conc2C1	
InChI=1S/C6H8N2O/c1-8-2-5-4-9-7-6(5)3-8/h4H,2-3H2,1H3	InChI=1S/C6H8N2O/c1-8-2-5-4-9-7-6(5)3-8/h4H,2-3H2,1H3
