20
gdb 108633	2.23055	1.31684	0.88295	3.8227	83.7	-0.2018	0.0062	0.208	1353.0417	0.170062	-403.215882	-403.206208	-403.205264	-403.250643	35.405	
C	 0.216224917	 1.6236747701	-0.1659442502	-0.370642
C	-0.0416685001	 0.1175119572	 0.0243009834	-0.304403
C	 0.5951130774	-0.4460751741	 1.2550877008	 0.281137
C	 0.0579106207	-0.9335373895	 2.3868813765	 0.166852
C	-1.3824945979	-1.0688439242	 2.758447229	-0.496729
C	 1.1834741983	-1.3536257188	 3.3039469431	-0.439049
C	 2.4591124379	-1.0383887473	 2.5086370468	 0.409089
O	 3.6144064491	-1.2168623368	 2.8205763991	-0.374223
N	 2.0079403179	-0.4945461146	 1.3238428386	-0.369104
H	 1.2860791218	 1.8454344181	-0.2318779555	 0.118471
H	-0.2558349302	 1.9824386134	-1.0852040222	 0.120111
H	-0.1885398912	 2.1957853658	 0.6739640211	 0.127771
H	-1.1183401721	-0.0673417662	 0.0646137223	 0.117672
H	 0.3311916865	-0.4266288431	-0.854779418	 0.110679
H	-1.6430561209	-2.1118254287	 2.9822260307	 0.124516
H	-1.6221779956	-0.4893253324	 3.6600081556	 0.12444
H	-2.048491939	-0.7262387911	 1.9620933175	 0.122192
H	 1.2000964368	-0.8058688452	 4.2544954091	 0.138815
H	 1.1652546328	-2.4195605301	 3.5623460871	 0.138546
H	 2.6350626808	-0.2227540424	 0.5847689053	 0.253859
60.9759	102.1928	141.9439	172.6297	199.27	235.8119	278.1701	306.1526	358.3948	429.2979	525.2991	562.1888	571.9023	592.3779	669.7202	773.7126	803.4702	875.2846	925.5587	944.7727	975.1648	1050.2707	1058.6189	1079.1919	1125.5462	1152.8425	1199.5638	1210.4002	1268.7458	1307.6068	1320.3549	1354.7963	1409.2769	1417.8219	1425.8863	1438.5041	1477.3677	1479.4253	1496.2314	1497.4158	1506.6057	1735.3111	1836.0173	3009.2939	3014.0033	3034.9231	3040.27	3048.3607	3065.37	3087.0777	3107.9477	3113.2267	3117.7956	3658.2456
CCC1=C(C)CC(=O)N1	CCC1=C(C)CC(=O)N1	
InChI=1S/C7H11NO/c1-3-6-5(2)4-7(9)8-6/h3-4H2,1-2H3,(H,8,9)	InChI=1S/C7H11NO/c1-3-6-5(2)4-7(9)8-6/h3-4H2,1-2H3,(H,8,9)
