18
gdb 37641	3.21875	2.33144	2.06947	1.7089	75.72	-0.2091	0.0789	0.288	772.5659	0.152394	-364.741473	-364.7362	-364.735256	-364.770663	24.234	
C	-0.0674425213	 1.5846637331	 0.0550625574	-0.247719
C	 1.4803063487	 1.4883816747	 0.0003290217	-0.027778
C	 2.0678633516	 1.2729626348	 1.384372431	-0.05098
C	 1.3440339159	 0.2231055186	 2.2045752269	-0.095477
C	 2.6736304345	-0.095146564	 1.5174965741	-0.086207
C	 1.8892645324	-0.8642581622	 0.4404489539	-0.020155
C	 0.5587069103	-0.6885389083	 1.2291829403	-0.064496
C	-0.0234695326	 0.0509905185	-0.0101376427	 0.005859
N	 1.3757029998	 0.1009492224	-0.6131813921	-0.146231
H	-0.50568946	 2.0610554493	 0.935594712	 0.095775
H	-0.4995353148	 2.0114985461	-0.8526924927	 0.107162
H	 2.0339327268	 2.2152039282	-0.5995257838	 0.068711
H	 2.5121947814	 2.1015568632	 1.9247385213	 0.085566
H	 1.1345580328	 0.3626995471	 3.2578205555	 0.08536
H	 3.6507816953	-0.3122355588	 1.9282564862	 0.087884
H	 2.2601322201	-1.8121113509	 0.0533694694	 0.071918
H	 0.0169242304	-1.5178591642	 1.6846463151	 0.063973
H	-0.7913270014	-0.4903870475	-0.5693077935	 0.066835
322.9338	406.2446	547.5677	628.5914	674.1684	681.7336	734.988	765.725	778.1263	813.5131	855.2817	860.4417	889.4155	915.6135	933.3446	950.0147	952.8032	972.6903	987.3722	1018.855	1024.1851	1048.3175	1059.3078	1073.9605	1102.2428	1118.0334	1173.0097	1192.4999	1200.4791	1231.6153	1239.7279	1254.7172	1269.8732	1281.5102	1283.2664	1334.1361	1344.4779	1393.6586	1478.7594	3057.6403	3066.2046	3071.6361	3102.1171	3119.83	3122.9183	3173.6818	3183.9062	3202.1712
C1C2C3C4C3C3C4C1N23	C1[C@H]2[C@H]3[C@@H]4[C@H]3[C@H]3[C@@H]4[C@@H]1N23	
InChI=1S/C8H9N/c1-2-4-6-5-3(1)9(2)8(5)7(4)6/h2-8H,1H2	InChI=1S/C8H9N/c1-2-4-6-5-3(1)9(2)8(5)7(4)6/h2-8H,1H2/t2-,3+,4-,5+,6-,7-,8+/m0/s1
