22
gdb 104294	2.74062	1.38566	1.20614	0.9649	80.86	-0.228	0.0719	0.3	1144.1881	0.194921	-404.333302	-404.324364	-404.323419	-404.366281	35.26	
C	-0.5287635384	 1.7240789153	 0.1477927779	-0.432005
C	 0.0073382757	 0.2987940845	 0.0221016857	 0.296649
C	-1.160155647	-0.7011628154	-0.0004573091	-0.09894
O	-1.9552787927	-0.4468897714	-1.151153193	-0.426343
C	 0.9218358059	 0.0923752639	-1.2174872587	-0.269571
C	 1.9393168654	-0.9799751881	-0.7738488105	-0.236691
C	 1.9875980872	-0.8308165731	 0.739342665	-0.00758
C	 2.1344375316	 0.5397250341	 1.2904569985	-0.258451
N	 0.8055850789	-0.0847554331	 1.2168641392	-0.119335
H	 0.2861552413	 2.4539119397	 0.1602755241	 0.104718
H	-1.1862190211	 1.9523799421	-0.6943690698	 0.133845
H	-1.1019196782	 1.8376814098	 1.0734389854	 0.116319
H	-0.7608106178	-1.7269120524	-0.0124405756	 0.083422
H	-1.7380134889	-0.5826232234	 0.9269447817	 0.09578
H	-2.6972353502	-1.0575164939	-1.1443987842	 0.289103
H	 0.3377297162	-0.2071785532	-2.0893149877	 0.120674
H	 1.4279251813	 1.0265765171	-1.4778900261	 0.095211
H	 1.5897908135	-1.9859846238	-1.030536171	 0.10459
H	 2.9193631398	-0.8532429433	-1.2446183695	 0.102342
H	 2.2926428254	-1.6853236807	 1.3372834964	 0.083967
H	 2.5074748624	 0.683229428	 2.3004993177	 0.112434
H	 2.3817886397	 1.3475699272	 0.6060940335	 0.109863
111.2512	173.2582	189.7829	228.0903	232.6019	287.8123	322.5649	356.915	393.0174	418.5724	508.5423	617.3311	667.7188	728.0916	786.0791	836.5507	843.6776	918.6318	926.7466	953.7144	972.8632	993.6809	1023.673	1041.9532	1075.8535	1083.4146	1109.5355	1136.3139	1154.5477	1172.9762	1190.4523	1218.6712	1243.8621	1276.1025	1280.9186	1284.9131	1329.9284	1342.9602	1386.2773	1403.5514	1450.3641	1489.8453	1492.0728	1497.0805	1499.905	1518.714	1523.7731	2980.7791	3021.9643	3041.1842	3044.2377	3058.6284	3082.4102	3105.8692	3109.1432	3121.0064	3129.0234	3142.6183	3188.2169	3840.1472
CC1(CO)CCC2CN12	C[C@@]1(CO)CC[C@H]2CN12	
InChI=1S/C7H13NO/c1-7(5-9)3-2-6-4-8(6)7/h6,9H,2-5H2,1H3	InChI=1S/C7H13NO/c1-7(5-9)3-2-6-4-8(6)7/h6,9H,2-5H2,1H3/t6-,7-,8?/m0/s1
