21
gdb 112045	2.39546	1.41004	1.02177	1.8131	83.58	-0.244	0.0204	0.2644	1246.0763	0.182321	-387.085854	-387.077047	-387.076103	-387.119641	33.703	
C	-0.0485798212	 1.6337126535	 0.0025158083	-0.387164
C	-0.0837400057	 0.1026947802	-0.0241568949	-0.175792
C	 0.6884405304	-0.5138254361	-1.2110779404	-0.107585
C	 2.1768764943	-0.2400410614	-1.1611995206	-0.071502
C	 2.8969298169	-1.3391685985	-0.9381341984	-0.077325
C	 2.0365908454	-2.5728190706	-0.8245709364	-0.334379
C	 0.6577632217	-2.0532673409	-1.2430453434	 0.406371
C	-0.564186233	-2.858656474	-1.1670178126	-0.247756
O	 0.0948140943	-2.653022764	-2.418989603	-0.273081
H	 0.9703622864	 2.0127321415	 0.1288171971	 0.118803
H	-0.4472028842	 2.0543925401	-0.9276259962	 0.115991
H	-0.6502488247	 2.0249854107	 0.8286273393	 0.113298
H	 0.3263058052	-0.2924178455	 0.913944349	 0.096314
H	-1.1271674968	-0.2308752523	-0.0721024628	 0.095172
H	 0.2402483981	-0.1418336382	-2.1421026142	 0.090459
H	 2.587173769	 0.7567020093	-1.2753604088	 0.09565
H	 3.9762313152	-1.3704761897	-0.8391530253	 0.094365
H	 2.3473696119	-3.3873214143	-1.4884041377	 0.122404
H	 2.0363816324	-2.975400815	 0.1977929917	 0.110145
H	-0.5168343688	-3.8739086355	-0.7722352286	 0.106665
H	-1.5355793268	-2.3758935193	-1.0650655921	 0.108947
60.2517	93.126	175.0552	210.5101	262.5142	296.2963	331.2095	385.9501	458.2454	523.4526	543.6592	727.1664	746.1451	786.6632	811.8611	814.3466	888.0417	928.5165	959.3561	972.3669	975.9007	982.1495	1019.0055	1056.7463	1107.1214	1115.896	1132.8034	1135.8452	1161.7749	1182.7647	1224.5159	1261.5484	1277.6028	1286.764	1336.5129	1367.4898	1378.0225	1412.1192	1420.9133	1471.1429	1485.3837	1499.3772	1507.2312	1533.3892	1683.2413	3012.6587	3016.8585	3024.2092	3033.091	3059.1362	3065.0385	3073.4314	3099.6921	3106.658	3154.9865	3184.5699	3209.3752
CCC1C=CCC11CO1	CC[C@H]1C=CC[C@]21CO2	
InChI=1S/C8H12O/c1-2-7-4-3-5-8(7)6-9-8/h3-4,7H,2,5-6H2,1H3	InChI=1S/C8H12O/c1-2-7-4-3-5-8(7)6-9-8/h3-4,7H,2,5-6H2,1H3/t7-,8+/m0/s1
