18
gdb 111933	3.11253	1.58006	1.50981	0.7844	76.98	-0.2123	-0.0458	0.1665	953.4893	0.147901	-401.811681	-401.804212	-401.803268	-401.843526	29.799	
O	 0.0057898678	 1.4861219536	 0.1432366617	-0.417913
C	 0.0144623044	 0.0684122563	 0.1361097517	-0.086601
C	-1.3885641418	-0.5379656249	 0.0407360851	 0.004592
C	-2.3223030193	 0.0243847117	 1.109207879	-0.102583
C	-3.4829554475	 0.3621271924	 0.5168425284	 0.006623
C	-3.5225029823	 1.8073152185	-0.0080398721	-0.269088
C	-2.9486766389	 1.1164120171	-1.3153950982	-0.060679
C	-3.488361565	-0.1979375242	-0.9265349859	-0.083594
N	-2.0754505141	-0.1559311354	-1.237529177	-0.14408
H	-0.3351914229	 1.7697163252	-0.7113650357	 0.29514
H	 0.6194317611	-0.3246261283	-0.693814666	 0.103378
H	 0.4882891289	-0.2426030349	 1.0729297661	 0.114105
H	-1.2828535976	-1.6318412461	 0.0034942363	 0.091311
H	-1.9078400654	 0.5868874406	 1.9402661243	 0.115102
H	-4.504485473	 2.2259929125	-0.2566233296	 0.111802
H	-2.9136128832	 2.5398838301	 0.5256170485	 0.118848
H	-2.9475651771	 1.5720892911	-2.3005851264	 0.109064
H	-4.191920514	-0.8631208552	-1.4129207904	 0.094574
104.2154	109.642	266.6422	293.9944	370.97	404.5392	441.3131	576.6393	609.9472	701.536	749.0581	758.9598	799.4822	812.7244	867.672	885.4432	900.074	933.1505	986.0948	1000.7993	1010.4032	1022.4929	1066.9145	1070.745	1105.4366	1112.0814	1192.2468	1201.7865	1208.6768	1218.0492	1254.8433	1288.0953	1313.3846	1324.1912	1396.5285	1416.1763	1491.8071	1495.0647	1583.8266	2994.8478	3009.207	3033.6403	3080.3381	3115.2588	3163.2524	3175.1074	3184.7908	3818.8435
OCC1C=C2CC3C2N13	OC[C@H]1[CH][C]2C[C@@H]3[C@H]2N13	
InChI=1S/C7H9NO/c9-3-5-1-4-2-6-7(4)8(5)6/h1,5-7,9H,2-3H2	InChI=1S/C7H9NO/c9-3-5-1-4-2-6-7(4)8(5)6/h1,5-7,9H,2-3H2/t5-,6-,7+,8?/m1/s1
