19
gdb 46396	3.60008	0.92936	0.81362	3.8283	75.47	-0.2703	0.0103	0.2806	1432.7935	0.159636	-423.039723	-423.031164	-423.03022	-423.073993	31.368	
O	 0.3075354234	 0.0942161857	 0.0921395586	-0.324244
C	 0.181038303	 1.2615253796	-0.0987937931	 0.460551
O	-0.8994334786	 1.9091565934	-0.6449529371	-0.239374
C	-0.2695217288	 3.2190764401	-0.4609596052	-0.109571
C	 0.9829244823	 2.5476580236	 0.135599545	-0.177906
C	 1.3713251933	 2.8446296485	 1.586468882	-0.249136
C	 2.4458335115	 1.9050873816	 2.0930691516	 0.036419
C	 3.9029499727	 2.2262216738	 1.8643526855	-0.258715
C	 3.3179984317	 2.3036851276	 3.2539270514	-0.281433
H	-0.1478925919	 3.7277809727	-1.4191119023	 0.125505
H	-0.8552865792	 3.8315842863	 0.2287292879	 0.124776
H	 1.8610435823	 2.5986825803	-0.5145292587	 0.117232
H	 1.7232142571	 3.8820013975	 1.6559393197	 0.100739
H	 0.4781536186	 2.7744942749	 2.2215778302	 0.108961
H	 2.1751518074	 0.8554029364	 2.0298502642	 0.115668
H	 4.5819047951	 1.4132178732	 1.6333705218	 0.117752
H	 4.1469814831	 3.1613614282	 1.3694076713	 0.106509
H	 3.1703790189	 3.2888370527	 3.6851005145	 0.109371
H	 3.5951998282	 1.5426299941	 3.9746030727	 0.116897
64.7484	78.6773	107.5879	161.1333	237.59	313.8568	375.1155	407.3497	509.208	706.8003	760.7838	772.407	806.0267	815.9107	843.6802	887.4631	930.7289	946.064	962.8408	995.0988	1056.5685	1078.6511	1085.8423	1111.2174	1128.8858	1144.0651	1153.8557	1163.4117	1200.2081	1221.3283	1233.8926	1266.3793	1301.6392	1349.1792	1371.4831	1420.6966	1470.061	1486.6709	1508.5673	1516.3166	1928.3472	3012.8905	3049.0438	3068.8665	3080.7127	3127.1307	3130.4939	3132.9859	3160.6088	3206.9428	3222.2134
O=C1OCC1CC1CC1	O=C1OC[C@H]1CC1CC1	
InChI=1S/C7H10O2/c8-7-6(4-9-7)3-5-1-2-5/h5-6H,1-4H2	InChI=1S/C7H10O2/c8-7-6(4-9-7)3-5-1-2-5/h5-6H,1-4H2/t6-/m1/s1
