21
gdb 116909	4.48222	0.58089	0.56078	0.9039	91.84	-0.2364	0.0388	0.2752	2089.713	0.179832	-387.038861	-387.028227	-387.027283	-387.076135	37.421	
C	-0.2428445264	 1.4113475315	-0.325997977	-0.217277
O	-0.3344287755	 0.0071248985	-0.3603015377	-0.227244
C	 0.8770881471	-0.5927524463	-0.7842979598	-0.206333
C	 0.7486528802	-2.0418638952	-0.8080145013	-0.002446
C	 0.6654238498	-3.2437938841	-0.8428341702	 0.101257
C	 0.5684573682	-4.679444375	-0.8501955993	 0.177815
C	 0.9611982407	-5.3656526072	 0.4501303172	-0.456697
C	-0.5469755621	-5.2982040038	-1.6826556152	-0.284617
C	 0.8724393136	-5.393976759	-2.1611102388	-0.286738
H	 0.5357850674	 1.7559430055	 0.3738631915	 0.102724
H	-0.018871593	 1.8335156037	-1.319228599	 0.102443
H	-1.2108533175	 1.7911022869	 0.0085422257	 0.129307
H	 1.1523646118	-0.2237105714	-1.7884779213	 0.110632
H	 1.7019978541	-0.3010483394	-0.109964951	 0.111246
H	 0.3282933214	-5.0274258668	 1.276407926	 0.12878
H	 0.8547167538	-6.4512817372	 0.3606375306	 0.111242
H	 2.001520198	-5.1455324069	 0.7096372856	 0.124909
H	-1.0184522844	-6.1894829929	-1.2825076292	 0.115729
H	-1.2183908112	-4.6233972919	-2.1994905114	 0.126966
H	 1.1708890508	-4.7856827884	-3.0063474641	 0.123086
H	 1.378530233	-6.3508299407	-2.0896098912	 0.115215
24.9814	70.5138	73.8397	119.0277	191.4476	229.4649	231.1763	283.8599	298.8831	333.601	371.7305	457.6287	530.8717	554.5389	654.994	787.1425	838.1457	856.6011	942.7939	953.4812	973.7454	1026.0546	1046.6801	1073.886	1077.8004	1088.1747	1117.2679	1149.8769	1182.6263	1193.966	1219.6441	1256.8005	1293.1535	1349.6486	1412.6266	1416.2156	1465.5128	1477.1928	1484.2667	1487.1149	1494.6421	1497.0121	1502.9675	1516.2322	2361.0273	2939.3197	2955.5174	2965.3358	3006.3363	3033.8902	3105.0208	3107.2435	3118.3362	3136.5604	3141.3802	3222.3676	3236.8115
COCC#CC1(C)CC1	COCC#CC1(C)CC1	
InChI=1S/C8H12O/c1-8(5-6-8)4-3-7-9-2/h5-7H2,1-2H3	InChI=1S/C8H12O/c1-8(5-6-8)4-3-7-9-2/h5-7H2,1-2H3
