15
gdb 65877	3.21201	1.18777	1.1537	2.0396	62.59	-0.265	-0.0527	0.2122	1101.5602	0.109604	-494.947007	-494.938368	-494.937424	-494.98133	30.222	
C	-0.1685685985	 1.5094698814	-0.0231053948	-0.421257
C	 0.0749821796	 0.019862635	-0.0482135268	 0.347959
O	 0.8875784114	-0.3494307109	-1.1620341716	-0.289277
C	 1.9429843626	-1.1781119742	-0.7171910303	-0.230165
C	 1.8564399956	-1.1600591451	 0.8008199957	 0.392326
O	 2.5724267666	-1.6709929664	 1.6038993677	-0.311329
O	 0.7615801655	-0.413558697	 1.126734641	-0.243279
C	-1.2133756185	-0.8202147159	-0.1471693823	 0.151168
O	-2.3111799251	-0.3618924568	-0.2922289846	-0.223075
H	 0.7852461054	 2.0359922666	 0.0485966931	 0.131993
H	-0.6820755785	 1.8069019993	-0.9392669584	 0.15244
H	-0.7989849223	 1.7736339427	 0.8281722572	 0.149713
H	 1.8446932258	-2.2054306187	-1.0895446997	 0.148939
H	 2.9089801334	-0.7805941897	-1.0461325404	 0.154255
H	-1.0192807829	-1.9149581202	-0.0970534458	 0.089589
53.1777	68.436	118.3421	181.1693	244.4483	315.5317	333.6787	428.4265	469.5632	506.314	564.2794	665.489	723.0536	804.3356	865.5657	914.0665	976.4516	986.7875	1035.1587	1070.2214	1123.1652	1195.7345	1206.7656	1238.293	1264.3404	1350.5255	1398.5483	1423.1031	1472.9502	1476.5974	1501.7118	1853.0618	1910.323	2891.2783	3033.0816	3065.5592	3078.6552	3150.0314	3152.5672
CC1(OCC(=O)O1)C=O	C[C@]1(OCC(=O)O1)C=O	
InChI=1S/C5H6O4/c1-5(3-6)8-2-4(7)9-5/h3H,2H2,1H3	InChI=1S/C5H6O4/c1-5(3-6)8-2-4(7)9-5/h3H,2H2,1H3/t5-/m1/s1
