18
gdb 44603	2.79758	1.87656	1.47399	2.5312	73.3	-0.2338	-0.0231	0.2107	929.1358	0.150764	-401.965241	-401.958516	-401.957572	-401.996434	27.431	
O	-0.0308669447	 0.0775491204	 0.3480786027	-0.31258
C	-0.059669595	 1.2472016783	 0.0752996506	 0.415341
C	-1.3157003643	 2.0923124732	-0.1926497658	-0.367254
C	-0.7709359192	 3.416782639	-0.6738775441	-0.034509
C	 0.0934768339	 4.2560658985	 0.2019852817	-0.021078
C	 0.4578867332	 3.7986642271	 1.6130833484	-0.257665
C	 1.5183325487	 2.6994082482	 1.3656052756	-0.207201
C	 1.1561495256	 2.1781929146	-0.0445733368	-0.122495
N	 0.7215953573	 3.3702681506	-0.8134919933	-0.12501
H	-1.9319236905	 1.6018619706	-0.9520078795	 0.138637
H	-1.9186853747	 2.1462282607	 0.7210882017	 0.137639
H	-1.2833588858	 3.9010524327	-1.500044701	 0.096545
H	 0.1550683865	 5.3177592479	-0.0200752035	 0.092507
H	 0.8546025392	 4.6273798675	 2.2033977755	 0.112593
H	-0.4080411902	 3.4062854481	 2.1577709967	 0.112098
H	 2.5184279951	 3.1415391894	 1.331394762	 0.116516
H	 1.5233670675	 1.9062017344	 2.1178185216	 0.121112
H	 1.9848584775	 1.6691425288	-0.5394230525	 0.104804
82.2142	226.4243	252.899	430.0724	447.7686	503.0584	597.0072	640.1235	695.9007	720.3664	751.9848	785.7278	796.4406	880.2016	904.3391	933.3473	938.3592	959.7379	985.1932	1037.1917	1054.7834	1104.3577	1110.6475	1149.2153	1166.2585	1187.1767	1202.2399	1244.2675	1260.6062	1272.2523	1284.5409	1317.708	1329.0381	1367.4985	1407.1211	1454.1934	1486.4413	1508.2408	1851.4567	3044.7941	3048.0413	3056.8503	3093.0299	3099.5084	3103.4914	3112.9529	3141.149	3151.6983
O=C1CC2C3CCC1N23	O=C1C[C@H]2[C@H]3CC[C@@H]1N23	
InChI=1S/C7H9NO/c9-7-3-6-4-1-2-5(7)8(4)6/h4-6H,1-3H2	InChI=1S/C7H9NO/c9-7-3-6-4-1-2-5(7)8(4)6/h4-6H,1-3H2/t4-,5+,6+,8?/m1/s1
