25
gdb 89714	3.09102	1.0028	0.93659	0.1306	94.19	-0.2442	0.0858	0.33	1454.2102	0.227264	-352.348565	-352.338326	-352.337382	-352.383279	39.558	
C	 0.0577889133	 1.5751845953	 0.0281386646	-0.406051
C	 0.0391758605	 0.0547406139	 0.0144035666	 0.05877
C	 1.040413355	-0.6922093606	-0.9194158344	-0.315944
C	 1.3322538673	-1.6571334955	 0.2393905853	 0.352872
C	 1.1477553523	-3.1516655418	 0.1954770602	-0.393329
C	 2.5201186889	-2.5577524913	 0.4506366919	 0.277141
C	 3.552341028	-2.6527037368	-0.6570317364	-0.452539
C	 3.0934583385	-2.6697380476	 1.8506968903	-0.452539
C	 0.646667585	-0.7068274065	 1.232351617	-0.315944
H	 1.0695264297	 1.9534590978	 0.2158429005	 0.109632
H	-0.2785652831	 1.9872865592	-0.9301270748	 0.111968
H	-0.5970843699	 1.9754612249	 0.8105420234	 0.111968
H	-0.9783074675	-0.3033763399	-0.1742155828	 0.07116
H	 0.63578767	-1.1180550365	-1.8420979753	 0.093244
H	 1.9040023136	-0.0669411753	-1.1761241581	 0.092434
H	 0.6328187399	-3.628496253	 1.0251077482	 0.100947
H	 0.9611052244	-3.6163091209	-0.768930736	 0.100947
H	 3.0941075873	-2.5601831494	-1.6460533042	 0.113794
H	 4.3066486399	-1.8615216435	-0.5648786697	 0.109804
H	 4.0786808191	-3.6142000333	-0.6222491106	 0.111195
H	 3.6003250078	-3.6319561667	 1.991909659	 0.111195
H	 3.8296162333	-1.8792278851	 2.0420251452	 0.109804
H	 2.3144796986	-2.5891264132	 2.6145003048	 0.113794
H	 1.3618946914	-0.087067437	 1.7864212713	 0.092434
H	-0.0574385133	-1.1437915175	 1.9462884239	 0.093244
54.0563	142.1597	164.6924	202.581	206.2267	237.9295	263.5749	299.0211	334.6437	366.4918	420.772	437.4079	442.8987	536.7571	691.93	720.009	829.3126	880.6679	885.8322	898.0527	904.1595	930.7579	948.9914	970.049	987.5536	1026.5001	1048.6122	1063.6439	1077.0423	1129.8877	1148.1625	1160.2513	1190.1338	1203.9191	1235.896	1245.2006	1274.3514	1285.4015	1300.0424	1368.1397	1407.4781	1408.5931	1414.4849	1423.9686	1474.528	1481.3188	1486.9542	1492.1992	1493.2892	1496.2314	1497.872	1501.2378	1516.7317	3015.6455	3019.2068	3019.8706	3025.8196	3031.5958	3042.6058	3071.9953	3074.9139	3082.3721	3082.875	3087.6404	3092.7523	3100.9383	3102.1957	3107.6952	3190.4336
CC1CC2(CC2(C)C)C1	C[C@H]1C[C@]2(CC2(C)C)C1	
InChI=1S/C9H16/c1-7-4-9(5-7)6-8(9,2)3/h7H,4-6H2,1-3H3	InChI=1S/C9H16/c1-7-4-9(5-7)6-8(9,2)3/h7H,4-6H2,1-3H3/t7-,9+
