18
gdb 80245	2.3975	1.65129	1.28861	3.3285	73.18	-0.2485	0.0277	0.2762	1042.5176	0.148432	-439.073125	-439.065177	-439.064233	-439.105206	31.243	
C	-0.0940915183	 1.6398917712	-0.019909198	-0.437123
C	 0.0108224641	 0.1263957189	 0.0099226277	 0.021514
C	 1.1634246409	-0.6056177743	-0.7243545342	 0.016597
O	 2.3618053821	-0.0228568976	-0.1402968271	-0.26289
C	 2.0433030652	-0.0156079069	 1.2098340547	 0.444371
N	 2.7655701211	 0.4046708501	 2.1507970286	-0.579061
C	 0.6678220119	-0.6247813923	 1.2355776257	-0.168634
C	 0.9297297284	-1.8084780504	 0.2410224606	 0.124358
O	-0.2210531947	-2.5830795114	 0.0370851432	-0.433948
H	 0.8659982497	 2.1209333496	 0.1829382055	 0.137474
H	-0.443467066	 1.981572498	-1.0001541263	 0.118108
H	-0.8125281252	 1.9907960323	 0.7279701069	 0.125477
H	-0.9395404196	-0.3510375784	-0.2294207039	 0.105453
H	 1.2778954965	-0.6775176507	-1.805059399	 0.084672
H	 3.6558087552	 0.7553021905	 1.7907584171	 0.222496
H	 0.190164142	-0.7556878852	 2.2021395122	 0.100047
H	 1.8179164651	-2.421334882	 0.438657175	 0.08919
H	-0.0321329185	-3.2271496913	-0.6529556187	 0.291899
146.3635	184.8442	215.35	252.5083	289.9394	306.544	341.19	446.2916	507.7062	585.0491	658.3266	713.4448	741.9569	835.3471	853.3926	886.9908	900.4029	937.1265	946.8559	987.568	1057.8719	1060.3844	1063.2659	1110.1637	1128.3437	1153.2285	1184.105	1209.4641	1237.1122	1253.2957	1260.5468	1315.9315	1342.7656	1389.3611	1416.6225	1432.24	1493.758	1498.0556	1808.2903	3033.0112	3038.8678	3099.6839	3112.0452	3129.318	3135.6886	3173.0142	3462.6867	3817.6086
CC1C2OC(=N)C1C2O	C[C@H]1[C@H]2O[C]([NH])[C@@H]1[C@H]2O	
InChI=1S/C6H9NO2/c1-2-3-4(8)5(2)9-6(3)7/h2-5,7-8H,1H3	InChI=1S/C6H9NO2/c1-2-3-4(8)5(2)9-6(3)7/h2-5,7-8H,1H3/t2-,3+,4-,5-/m1/s1
