25
gdb 92904	2.28631	1.4212	1.0745	0.231	93.68	-0.2344	0.03	0.2644	1284.3768	0.229606	-352.385662	-352.375956	-352.375011	-352.419278	38.376	
C	-0.0651242181	 1.5585639359	-0.0395426727	-0.418622
C	 0.0626700575	 0.0325136955	 0.0032975382	 0.029647
C	 0.6574108656	-0.526739744	-1.3016524942	-0.249305
C	 0.9712021238	-1.9954641738	-1.2025099043	-0.079221
C	 0.9671993721	-2.6657476382	-0.0509843098	-0.033277
C	 0.6679539324	-2.0367542522	 1.2928508434	-0.024213
C	 1.4693847682	-2.7129114895	 2.4159269017	-0.417238
C	 0.8382951828	-0.4962552747	 1.2354330944	 0.01655
C	 2.3110967299	-0.0548785726	 1.2593739387	-0.404241
H	 0.9044854581	 2.047549365	-0.1809605924	 0.115353
H	-0.7092287747	 1.8707063014	-0.8689855622	 0.108958
H	-0.5035468257	 1.9470996524	 0.8862315552	 0.107794
H	-0.9546811893	-0.3757462726	 0.0891887827	 0.069959
H	-0.0423634044	-0.3512074698	-2.1299281059	 0.098457
H	 1.5670620872	 0.0299293888	-1.5753831243	 0.102642
H	 1.2082167348	-2.5143104916	-2.1289485179	 0.079804
H	 1.1875933887	-3.7319135861	-0.0490357821	 0.076147
H	-0.394803194	-2.2246521811	 1.5156693652	 0.078599
H	 2.5474743267	-2.6577623872	 2.2380138373	 0.120294
H	 1.2609195152	-2.2471680999	 3.3852524502	 0.108464
H	 1.2030781184	-3.7726513597	 2.4911222519	 0.109688
H	 0.35533938	-0.0796632475	 2.1306676366	 0.058746
H	 2.8880246394	-0.5238335824	 0.4563737837	 0.122107
H	 2.4019897715	 1.0296386857	 1.1512184287	 0.110022
H	 2.7871194641	-0.3227626619	 2.2065072978	 0.112886
115.8484	137.3251	208.8512	216.5276	238.3935	259.6471	264.3579	318.9596	333.4642	398.4924	439.5749	456.2626	546.3684	586.4624	676.6307	752.2869	795.9439	820.5223	890.8689	925.2354	935.1398	975.301	999.2047	1003.154	1027.2424	1032.6464	1049.7019	1088.7945	1117.3359	1135.5418	1137.4481	1202.1405	1211.8164	1237.9304	1293.844	1321.8621	1330.0001	1342.6434	1345.3366	1384.8947	1395.6633	1402.3661	1412.118	1416.4442	1422.358	1475.3408	1490.6578	1495.1086	1497.3471	1503.2191	1504.9485	1518.4881	1720.2039	2963.1759	2985.5679	2996.2242	3003.22	3025.6623	3028.2062	3030.4198	3045.3954	3090.9086	3094.2307	3095.2939	3106.3103	3112.881	3113.6048	3130.0095	3155.8746
CC1CC=CC(C)C1C	C[C@H]1CC=C[C@@H](C)[C@H]1C	
InChI=1S/C9H16/c1-7-5-4-6-8(2)9(7)3/h4-5,7-9H,6H2,1-3H3	InChI=1S/C9H16/c1-7-5-4-6-8(2)9(7)3/h4-5,7-9H,6H2,1-3H3/t7-,8+,9-/m1/s1
