22
gdb 26379	3.92573	0.90181	0.82201	1.7172	89.58	-0.1935	0.048	0.2414	1498.9844	0.194984	-367.263212	-367.253718	-367.252774	-367.2982	35.915	
C	-0.0532284749	 1.5825603092	 0.0627019744	-0.389599
C	 0.0374711708	 0.0516023098	 0.0484470453	 0.06099
C	 0.836931095	-0.4628936714	 1.2514386772	-0.390603
C	-1.3804510587	-0.5706349895	-0.0195857541	-0.321629
C	-1.4200821599	-2.0555030176	-0.2059242357	 0.297917
C	-1.3861332245	-2.82588052	-1.3501638216	-0.219962
C	-1.4188031118	-4.1945327429	-0.9624132846	-0.136005
C	-1.4738767279	-4.2289840411	 0.410430169	-0.10393
N	-1.4726354218	-2.9301653854	 0.8567739824	-0.276994
H	 0.9423932426	 2.038125702	 0.070728616	 0.109985
H	-0.588782418	 1.9608319874	-0.8145930137	 0.109829
H	-0.5853875542	 1.935629797	 0.9546170463	 0.109069
H	 0.5655602438	-0.2546543904	-0.8643206633	 0.08075
H	 0.3494556917	-0.1817394858	 2.1943371458	 0.099833
H	 0.9358434567	-1.5518402899	 1.2319680006	 0.123853
H	 1.8447550361	-0.0351644162	 1.2653021472	 0.112146
H	-1.9299349752	-0.2933599528	 0.8920817684	 0.08763
H	-1.9219212469	-0.1037739714	-0.8502915912	 0.109756
H	-1.347061915	-2.4413822312	-2.3586461124	 0.083383
H	-1.4110988374	-5.0531001575	-1.6163604567	 0.088416
H	-1.5222152451	-5.0547523973	 1.1018382069	 0.110678
H	-1.5162685454	-2.6504077551	 1.8212810839	 0.254485
36.5061	77.7116	108.8852	228.4383	252.6526	280.9235	317.2758	333.317	411.2146	415.9642	489.1551	629.4625	659.6388	701.8146	746.4771	790.8571	821.495	849.9815	875.9921	896.5052	929.1161	946.011	965.8833	984.3087	1051.8736	1091.1236	1119.5046	1137.749	1144.9055	1190.2915	1235.4391	1260.5923	1308.3086	1314.919	1366.7121	1369.5534	1399.3799	1420.5575	1437.0921	1463.4895	1476.0433	1489.1788	1494.3853	1496.5275	1505.3374	1512.3722	1612.0067	2999.4671	3015.509	3020.5033	3026.5601	3061.0607	3083.8397	3091.0066	3098.6158	3110.7262	3236.0862	3249.9153	3270.2525	3677.4946
CC(C)CC1=CC=CN1	CC(C)Cc1ccc[nH]1	
InChI=1S/C8H13N/c1-7(2)6-8-4-3-5-9-8/h3-5,7,9H,6H2,1-2H3	InChI=1S/C8H13N/c1-7(2)6-8-4-3-5-9-8/h3-5,7,9H,6H2,1-2H3
