18
gdb 58026	1.81699	1.64711	0.9112	4.3618	74.34	-0.2415	0.0303	0.2718	1259.7168	0.14459	-439.082918	-439.072679	-439.071735	-439.118503	37.584	
C	 0.785672687	-1.2663471761	-0.7869965305	-0.405364
C	-0.0040079738	-0.4945408378	 0.2654247176	 0.107915
O	 0.4363817173	 0.8702403138	 0.3053523124	-0.434058
C	-1.531532849	-0.4362859351	-0.025710331	-0.327691
C	-2.0631436772	-1.7308661505	-0.4299381522	 0.363752
C	-2.4885372775	-2.7976198704	-0.780411204	-0.439303
C	-2.3467290534	 0.1250298228	 1.179145686	 0.393043
N	-1.9935148545	 1.3904241033	 1.5430646871	-0.525575
O	-3.2417868816	-0.4981941502	 1.7074049306	-0.346187
H	 1.8559479528	-1.2271373858	-0.5530671899	 0.103179
H	 0.4808845233	-2.3136631321	-0.8173949908	 0.145467
H	 0.6347201133	-0.8262723837	-1.7775058317	 0.12925
H	 0.1401711939	-0.96302031	 1.2504217886	 0.093749
H	 1.3689251513	 0.8767472777	 0.541914428	 0.291133
H	-1.646272465	 0.275741416	-0.8553179236	 0.133456
H	-2.8848173362	-3.7367361447	-1.0779664321	 0.195132
H	-1.1006652221	 1.7547997182	 1.2437523048	 0.268233
H	-2.4165044987	 1.7464702145	 2.3856286108	 0.253868
36.16	65.8229	151.5589	194.7234	219.0308	250.0652	278.817	338.3588	352.3289	405.8384	445.6923	470.6853	490.0062	512.2956	596.565	629.5429	642.6647	648.0461	714.4201	853.9746	886.0142	952.0252	1022.0537	1077.9651	1107.2212	1114.0112	1147.5215	1217.9746	1262.3351	1302.7952	1353.0749	1376.8162	1403.653	1410.8798	1487.9675	1495.3477	1619.0335	1809.4233	2246.4223	2992.5633	3018.753	3034.4479	3102.881	3144.1462	3504.8479	3554.8616	3697.3088	3828.6555
CC(O)C(C#C)C(N)=O	C[C@@H](O)[C@@H](C#C)C(=O)N	
InChI=1S/C6H9NO2/c1-3-5(4(2)8)6(7)9/h1,4-5,8H,2H3,(H2,7,9)	InChI=1S/C6H9NO2/c1-3-5(4(2)8)6(7)9/h1,4-5,8H,2H3,(H2,7,9)/t4-,5-/m1/s1
