16
gdb 8119	4.23422	1.71681	1.41917	3.1729	64.27	-0.2464	-0.0193	0.2271	890.1221	0.129592	-383.764377	-383.757137	-383.756193	-383.795825	27.624	
C	-0.0655476464	 1.5200577824	 0.0437096401	-0.483147
C	-0.0481142229	 0.0173040619	 0.0765397981	 0.408709
C	-1.1866272401	-0.7909079017	-0.5136964536	-0.388246
C	-1.0507967984	-2.190545338	 0.1114086755	 0.395402
O	-1.6535378236	-3.1691005314	-0.2370010277	-0.297766
C	-0.0379694316	-2.1336203076	 1.2707303519	-0.351784
C	 0.6247173559	-0.7875110634	 1.1178243579	-0.016677
O	 1.2222990966	-0.6128010805	-0.1749689275	-0.298727
H	 0.8177284298	 1.9239856664	 0.5449506924	 0.132678
H	-0.0678290248	 1.8850391993	-0.9890484696	 0.132763
H	-0.9607261755	 1.9107306064	 0.5390002506	 0.123665
H	-2.1655466054	-0.3736150956	-0.2450837204	 0.128878
H	-1.147297493	-0.8582930534	-1.6047641831	 0.141684
H	-0.5765537387	-2.2200555132	 2.2230059836	 0.130781
H	 0.6584646033	-2.974383386	 1.2077507679	 0.144843
H	 1.1588183649	-0.3276812757	 1.9459160237	 0.096943
78.023	195.8151	229.0913	292.1895	374.8952	414.8903	479.5126	482.5251	558.397	658.0375	717.2863	783.6269	812.9218	841.8995	905.4858	961.1427	982.5326	1024.9481	1070.8773	1098.292	1148.7049	1156.8705	1214.0958	1223.1273	1281.687	1309.8412	1318.0478	1413.6701	1433.0046	1439.041	1458.4535	1487.1504	1498.0189	1856.1557	3035.679	3040.255	3043.021	3097.2333	3100.1201	3101.0646	3123.0002	3143.5469
CC12CC(=O)CC1O2	C[C@]12CC(=O)C[C@H]1O2	
InChI=1S/C6H8O2/c1-6-3-4(7)2-5(6)8-6/h5H,2-3H2,1H3	InChI=1S/C6H8O2/c1-6-3-4(7)2-5(6)8-6/h5H,2-3H2,1H3/t5-,6+/m1/s1
