13
gdb 25095	3.15313	1.50526	1.13738	2.7266	70.9	-0.2603	-0.0944	0.1659	1012.4689	0.090301	-452.767722	-452.760608	-452.759664	-452.799796	26.229	
N	 0.0876175822	 1.3579830598	-0.2981702484	-0.482243
C	 0.0308122453	 0.1339652047	 0.0822769132	 0.240967
C	-1.2556402314	-0.4774594561	 0.3971563065	-0.159032
C	-1.5010604731	-1.687167117	 0.9236703748	 0.0586
O	-0.6473174751	-2.5851816009	 1.4734932852	-0.212016
C	 0.650833768	-2.2088040408	 1.8313288959	 0.448576
O	 1.0289704392	-2.4120116715	 2.9408107969	-0.280025
N	 1.4667881543	-1.7662684163	 0.7983214711	-0.237537
C	 1.2291720034	-0.7540458491	 0.0689895822	-0.031463
H	 1.0425667187	 1.6146730353	-0.5623984115	 0.227902
H	-2.1201628352	 0.1065096755	 0.1026429989	 0.132717
H	-2.5149630703	-2.0652467887	 0.9946435974	 0.149827
H	 1.989266734	-0.4931331949	-0.673596562	 0.143725
79.4838	111.3125	261.8063	321.0288	363.7484	422.3557	483.9012	558.5188	627.7391	695.3379	737.9569	803.516	808.1293	872.1443	893.1061	903.9822	973.562	992.9585	1058.0306	1089.6992	1165.9066	1306.0281	1377.0869	1402.0852	1442.6421	1647.0862	1689.5535	1736.7954	1878.4608	3090.0507	3195.4318	3212.8133	3435.099
N=C1C=COC(=O)N=C1	[NH]C1=C[CH]OC(=O)N=C1	
InChI=1S/C5H4N2O2/c6-4-1-2-9-5(8)7-3-4/h1-3,6H	InChI=1S/C5H4N2O2/c6-4-1-2-9-5(8)7-3-4/h1-3,6H
