20
gdb 51001	3.59268	0.96098	0.85047	1.2759	79.78	-0.2471	-0.0322	0.2149	1391.4112	0.169621	-403.112639	-403.103409	-403.102465	-403.147611	33.927	
O	 0.052240619	-0.3612527086	-0.3853743217	-0.235352
C	 0.0441416922	 0.8332866122	-0.2363853105	 0.144095
C	 1.2831718979	 1.6966939828	-0.169710339	-0.345745
C	 1.2964702866	 2.9314136623	-1.0726646567	 0.283435
C	 0.4405087172	 2.9669632734	-2.2898453683	-0.277156
N	 0.1247874223	 3.8190338531	-1.1271194615	-0.34512
C	 2.6257029553	 3.6377110908	-1.0638292051	-0.038712
C	 2.7418680526	 5.0903680881	-1.4369695422	-0.277474
C	 2.9252327371	 4.668205358	-0.0008500935	-0.264843
H	-0.924148821	 1.3743958949	-0.1109499103	 0.068745
H	 1.3906359636	 2.0340166678	 0.8730342252	 0.130489
H	 2.143608261	 1.0578787862	-0.3917081805	 0.13001
H	 0.778044498	 3.5074213454	-3.1694258256	 0.123811
H	-0.2014902187	 2.1148575658	-2.5017736297	 0.120522
H	-0.657661322	 3.4371615559	-0.6032881418	 0.229406
H	 3.4537100136	 2.9965998592	-1.3563886088	 0.084994
H	 3.6143296265	 5.3998709139	-2.0014347375	 0.107496
H	 1.823176312	 5.6113225408	-1.6792904667	 0.135586
H	 2.1235533618	 4.9176560389	 0.6861792462	 0.115579
H	 3.9188761252	 4.6932924988	 0.432152468	 0.110235
52.4557	71.4962	86.4127	169.6326	226.5476	253.8949	339.8575	373.3052	433.1882	479.7695	568.7833	669.0493	789.0398	799.7073	825.6915	844.7134	861.1461	934.7708	944.6391	959.57	986.4616	1007.7036	1056.7448	1064.4651	1090.4004	1092.1851	1129.523	1135.7883	1139.8319	1202.3425	1212.2198	1224.7558	1248.5225	1274.4163	1321.9349	1370.5656	1420.3238	1440.8271	1454.9763	1458.7343	1496.527	1514.8157	1833.2953	2836.1478	3000.9092	3087.3369	3105.1276	3133.1561	3135.2512	3141.5767	3192.088	3217.2493	3234.2678	3510.6963
O=CCC1(CN1)C1CC1	O=CC[C@]1(CN1)C1CC1	
InChI=1S/C7H11NO/c9-4-3-7(5-8-7)6-1-2-6/h4,6,8H,1-3,5H2	InChI=1S/C7H11NO/c9-4-3-7(5-8-7)6-1-2-6/h4,6,8H,1-3,5H2/t7-/m0/s1
