23
gdb 96553	2.24677	1.5209	1.06707	0.1441	81.98	-0.2373	0.082	0.3193	1232.202	0.20666	-425.426108	-425.416914	-425.415969	-425.459765	35.689	
C	 0.0427374239	 1.5722626265	-0.1244982158	-0.40739
C	 0.0247855136	 0.0427207166	-0.0018115137	 0.004658
C	 0.6169336315	-0.5589951275	-1.2994561407	-0.083852
O	 1.1549567376	-1.8655933774	-1.1759862758	-0.249044
C	 2.5258044261	-1.8867215009	-0.8215337853	-0.080692
C	 2.7576198137	-1.6324785103	 0.6671676753	-0.082962
O	 2.1670127297	-0.4305597697	 1.1199544437	-0.268747
C	 0.7432211049	-0.4971572454	 1.2546775379	 0.137815
C	 0.370495683	 0.2317943385	 2.5421792827	-0.407895
H	 1.069757715	 1.9481386178	-0.0644336887	 0.12893
H	-0.3734526839	 1.8879429513	-1.0876783551	 0.110479
H	-0.5452844636	 2.0564387738	 0.6593393813	 0.115756
H	-1.0190663275	-0.2881988882	 0.0860996715	 0.071186
H	-0.1699324145	-0.6191347717	-2.0598161503	 0.102953
H	 1.3929234837	 0.1179845173	-1.6869874952	 0.090541
H	 2.9086900447	-2.8800038424	-1.0854392187	 0.100595
H	 3.0773215403	-1.1401970946	-1.4144094374	 0.093327
H	 2.3736029386	-2.4852996537	 1.2490501671	 0.093434
H	 3.834396902	-1.5513252054	 0.8589111569	 0.100453
H	 0.4564989715	-1.552685134	 1.3563620322	 0.075642
H	 0.7485435398	 1.2575575242	 2.5343618101	 0.12764
H	-0.7158131392	 0.2637127033	 2.6751539691	 0.11096
H	 0.8091754388	-0.2815149681	 3.402102739	 0.116211
66.0241	132.2562	230.2172	238.8789	265.9153	283.4448	303.4204	328.2569	374.402	418.4774	446.1754	555.6089	580.7134	613.8392	754.2306	839.8856	869.4887	906.1738	937.8109	952.5287	984.3745	1013.327	1021.206	1095.1535	1121.4067	1139.2088	1142.4855	1161.8124	1184.2093	1193.173	1283.343	1300.946	1321.6904	1331.107	1356.4351	1364.796	1393.772	1400.5998	1406.0404	1411.3573	1427.021	1429.1108	1478.0899	1482.6772	1488.3438	1497.6113	1499.9487	1503.0741	1513.4625	2976.2339	2983.2137	2989.7962	3000.8024	3015.3256	3032.585	3042.9553	3058.2705	3060.9249	3063.1168	3095.3954	3112.6331	3114.217	3124.4535
CC1COCCOC1C	C[C@H]1COCCO[C@H]1C	
InChI=1S/C7H14O2/c1-6-5-8-3-4-9-7(6)2/h6-7H,3-5H2,1-2H3	InChI=1S/C7H14O2/c1-6-5-8-3-4-9-7(6)2/h6-7H,3-5H2,1-2H3/t6-,7-/m0/s1
