21
gdb 60595	3.65734	0.93304	0.86545	2.5415	78.28	-0.2425	0.0628	0.3053	1414.8233	0.182116	-424.181546	-424.172183	-424.171239	-424.216568	34.23	
O	-0.230593961	 1.4824680983	 0.1412983601	-0.43033
C	-0.0544275237	 0.074901967	-0.0057261004	 0.070802
C	 0.6889551123	-0.2804758623	-1.2763950204	 0.000754
C	 0.3219576311	-1.5234000075	-2.0505134163	-0.265571
C	 0.0010180327	-0.1607031814	-2.6100291395	-0.273323
C	 0.6012091856	-0.5496416589	 1.2292852641	-0.028016
C	 1.9438077685	 0.0431654628	 1.7196446678	-0.086583
O	 1.3843834482	 0.3824963573	 2.9986407716	-0.270205
C	 0.0783518047	-0.1002056768	 2.6116631284	-0.095945
H	 0.6232261365	 1.9087846257	 0.012985476	 0.282234
H	-1.0778234165	-0.3173110427	-0.0808927405	 0.082459
H	 1.7483889801	-0.0285103941	-1.2566534348	 0.079888
H	 1.1187123947	-2.0985501278	-2.5085596367	 0.113894
H	-0.5010466884	-2.1257175882	-1.6793137684	 0.113963
H	-1.0350217462	 0.1606148938	-2.6093495529	 0.122156
H	 0.5763541527	 0.1967787992	-3.4566274975	 0.113093
H	 0.6343497361	-1.6347965213	 1.1037758366	 0.083375
H	 2.7803799981	-0.6610484049	 1.8054132593	 0.100947
H	 2.2992255769	 0.9337725228	 1.1794143261	 0.076523
H	-0.6591184508	 0.709139409	 2.5752562288	 0.115214
H	-0.2761449017	-0.8956948999	 3.2778758087	 0.094675
63.8849	77.4796	84.8013	156.7701	211.6881	264.6526	276.7194	295.1562	407.2353	475.9452	615.612	735.2309	782.2214	834.3923	848.1831	879.5429	893.8949	942.8199	955.9419	987.8208	1011.3816	1026.5286	1050.5615	1059.9315	1080.3529	1110.8742	1123.8476	1135.6458	1161.3282	1167.1218	1177.4464	1197.6251	1225.9615	1255.6179	1275.586	1311.6085	1324.006	1347.6396	1394.0364	1409.2955	1433.7214	1472.6336	1506.2604	1507.9222	1534.5985	2982.0465	3018.4065	3022.7093	3037.3699	3070.0148	3084.6704	3113.6677	3131.2821	3138.1069	3210.1192	3225.5217	3814.0411
OC(C1CC1)C1COC1	O[C@@H](C1CC1)C1COC1	
InChI=1S/C7H12O2/c8-7(5-1-2-5)6-3-9-4-6/h5-8H,1-4H2	InChI=1S/C7H12O2/c8-7(5-1-2-5)6-3-9-4-6/h5-8H,1-4H2/t7-/m0/s1
