17
gdb 73049	3.38724	1.0276	0.90935	2.1847	74.26	-0.237	0.0529	0.29	1292.768	0.133492	-421.73333	-421.724551	-421.723606	-421.76711	32.951	
O	-0.1641554513	 1.4502398661	 0.0750952533	-0.4497
C	-0.0323124345	 0.0779738331	 0.0353741487	 0.27645
C	-0.934355938	-0.8458434001	-0.7819187587	-0.149472
O	-0.9308572191	-1.8329367689	 0.2865745264	-0.28055
C	-0.1912806832	-0.9485742779	 1.1340625251	 0.037697
C	 1.1755987285	-0.6752508556	 0.5579395666	-0.113081
C	 1.9705990884	-1.7133780099	-0.2249625539	-0.387696
C	 2.9330673592	-2.4205821908	 0.6129913737	 0.30509
C	 3.725913352	-2.9820728162	 1.3204563457	-0.448599
H	 0.5528434057	 1.8432434459	-0.4342857869	 0.291767
H	-1.9372931391	-0.4262949212	-0.9160016761	 0.120179
H	-0.5635859666	-1.2495737202	-1.7313574397	 0.104223
H	-0.4616397209	-0.8968825876	 2.1815556158	 0.115517
H	 1.7674228398	-0.0425781872	 1.2162807705	 0.107298
H	 1.2697107838	-2.4346993381	-0.6605393127	 0.151469
H	 2.4978268669	-1.2367256549	-1.0618810971	 0.124369
H	 4.4233580185	-3.4909182166	 1.9382669592	 0.195039
49.6247	117.5665	195.3176	219.0393	262.6309	304.9602	338.2227	362.0916	441.8601	491.1541	602.4484	617.6438	639.3378	646.259	760.6901	837.7991	909.1795	931.3738	964.2936	970.2316	988.5152	1020.4285	1058.2316	1083.5076	1096.2244	1147.9531	1211.636	1225.1678	1266.5283	1277.1796	1313.7916	1334.5728	1368.4731	1463.889	1483.7351	1515.565	2239.8323	3017.9675	3027.4668	3064.5499	3083.0132	3144.3642	3195.3735	3507.7576	3798.9706
OC12COC1C2CC#C	O[C@]12CO[C@H]1[C@H]2CC#C	
InChI=1S/C7H8O2/c1-2-3-5-6-7(5,8)4-9-6/h1,5-6,8H,3-4H2	InChI=1S/C7H8O2/c1-2-3-5-6-7(5,8)4-9-6/h1,5-6,8H,3-4H2/t5-,6+,7+/m1/s1
