18
gdb 88062	2.29119	1.37511	1.03521	2.9394	73.28	-0.2411	-0.03	0.2111	1203.4979	0.145341	-439.048041	-439.038946	-439.038002	-439.082744	32.594	
C	-0.0704452458	 1.3456618897	-0.2834233567	-0.419714
C	-0.0546122683	-0.1218452679	 0.0490503443	-0.014796
O	 1.2295258628	-0.7873113689	 0.0104571079	-0.276434
C	 0.5883815365	-0.6588704573	 1.250239904	 0.392298
C	 1.1810218708	 0.0222124953	 2.48510674	-0.25482
N	 0.4974091372	-0.9990744596	 3.3242975718	-0.334432
C	 0.1886126851	-1.8528702345	 2.1541252771	-0.150029
C	-1.256979076	-2.2900645109	 2.0628618411	 0.15122
O	-1.6651008109	-3.1127442168	 1.2832018009	-0.251803
H	 0.7487495681	 1.8716085176	 0.213738646	 0.128764
H	 0.031440785	 1.495027155	-1.3630172896	 0.136759
H	-1.0182887194	 1.7960782926	 0.0301363175	 0.129245
H	-0.8540105482	-0.7185751319	-0.3919392954	 0.115641
H	 2.2773412288	-0.0320259227	 2.4852789677	 0.1138
H	 0.8739063029	 1.0525232416	 2.694927544	 0.11492
H	 1.0841217079	-1.4350804119	 4.0254378197	 0.230092
H	 0.850618617	-2.7106964812	 1.9795700352	 0.104594
H	-1.9281815034	-1.7439736682	 2.7637916645	 0.084697
42.3415	95.4109	134.4257	180.6528	190.8373	217.5032	328.7435	432.9407	455.2553	459.6871	493.3148	582.7987	685.158	798.2426	867.489	920.7428	953.6325	983.7691	993.4881	1023.3142	1043.1013	1082.4115	1107.7364	1131.1012	1134.909	1141.1984	1199.8501	1216.8987	1280.521	1324.1631	1357.97	1379.2057	1398.77	1410.604	1472.7855	1489.5482	1509.4075	1526.0779	1823.5933	2883.795	3017.335	3032.7666	3038.9994	3067.1664	3105.1392	3105.6922	3127.4534	3549.3589
CC1OC11CNC1C=O	C[C@H]1O[C@]21CN[C@H]2C=O	
InChI=1S/C6H9NO2/c1-4-6(9-4)3-7-5(6)2-8/h2,4-5,7H,3H2,1H3	InChI=1S/C6H9NO2/c1-4-6(9-4)3-7-5(6)2-8/h2,4-5,7H,3H2,1H3/t4-,5+,6+/m1/s1
