22
gdb 29685	2.33629	1.51208	0.93944	1.8564	92.66	-0.1793	0.0524	0.2317	1316.4567	0.19273	-367.268936	-367.258224	-367.257279	-367.305616	37.934	
C	 0.1252368707	 1.4243406549	 0.0275885613	-0.341763
N	 0.0555362176	-0.0201580751	-0.0000652931	-0.093803
C	-0.0901233026	-0.8070275545	-1.1265332228	 0.292616
C	-0.1706614119	-0.2476861202	-2.5092411439	-0.502637
C	-0.1389721494	-2.1149231888	-0.7066798444	-0.335842
C	-0.0231814019	-2.1393970181	 0.7143957535	 0.216631
C	-0.0247132262	-3.3704026006	 1.5712685215	-0.504148
C	 0.0945551249	-0.8275037907	 1.1272717676	 0.188701
C	 0.2437498065	-0.2397194627	 2.4918349222	-0.507659
H	 1.026748375	 1.7671173192	 0.5468182388	 0.133536
H	 0.1557653388	 1.8080911328	-0.9922264103	 0.139951
H	-0.7452433849	 1.8619330235	 0.5311531408	 0.131536
H	 0.7299557528	 0.3105051725	-2.7968193637	 0.122198
H	-0.2836526023	-1.0693246201	-3.2204491953	 0.132339
H	-1.0269475662	 0.4249635272	-2.6485905716	 0.121817
H	-0.2455983742	-2.972940307	-1.3550858002	 0.080238
H	 0.0123627496	-3.1286822989	 2.6373652411	 0.112756
H	-0.9250636369	-3.9746593901	 1.4069588317	 0.119672
H	 0.8344987681	-4.0178674647	 1.3560171752	 0.119797
H	 1.1856394723	 0.312192996	 2.6131914569	 0.121368
H	-0.5680099762	 0.456323492	 2.7419813525	 0.120683
H	 0.2349528763	-1.0309767564	 3.2441059523	 0.132013
27.4017	53.0345	129.475	157.8764	167.9274	198.0953	238.4404	270.493	288.3845	306.458	324.7799	512.9854	577.7558	585.6718	628.7488	654.6021	724.6707	770.6192	821.0481	986.0551	991.2155	1017.7622	1051.9854	1060.6575	1064.7382	1115.8442	1148.4981	1173.8358	1196.6957	1221.5391	1361.1194	1409.0756	1416.4118	1424.1574	1430.7545	1447.2922	1471.9109	1474.6969	1481.3532	1484.196	1492.0166	1495.889	1497.3547	1509.8572	1520.2411	1564.7126	1640.1454	3005.5814	3009.116	3018.8368	3024.3733	3043.1238	3050.0984	3062.3201	3074.6041	3101.3634	3118.1206	3124.5641	3148.0741	3230.2003
CN1C(C)=CC(C)=C1C	Cn1c(C)cc(C)c1C	
InChI=1S/C8H13N/c1-6-5-7(2)9(4)8(6)3/h5H,1-4H3	InChI=1S/C8H13N/c1-6-5-7(2)9(4)8(6)3/h5H,1-4H3
