16
gdb 51994	3.08491	0.90706	0.77186	2.2656	69.59	-0.2596	-0.0328	0.2268	1444.3536	0.124025	-471.226271	-471.217046	-471.216102	-471.262072	31.535	
N	-0.6804801147	 0.3993137424	 1.6008245457	-0.434525
C	-0.8042579212	-0.0938138807	 0.4494111791	 0.129924
O	-0.4851015961	-1.3967672544	 0.244836129	-0.201703
C	-0.9215253352	-1.9837387417	-0.9799730703	-0.15985
C	-2.3080807038	-2.6014843606	-0.8621948038	 0.340887
N	-3.037558808	-2.6856753041	-1.8939448359	-0.495148
N	-2.5891168832	-3.0568063504	 0.4374646864	-0.332533
C	-3.7304741267	-3.7046367785	 0.8422255742	 0.16535
O	-4.6551856265	-4.013458955	 0.1251996038	-0.295856
H	-0.9172777388	 1.3891382688	 1.5878465601	 0.239022
H	-1.1359957529	 0.4191922447	-0.46276703	 0.108701
H	-0.9332801127	-1.2634566229	-1.8026511259	 0.147906
H	-0.1912485771	-2.7645164264	-1.2124366816	 0.149134
H	-3.9098110326	-3.1720635794	-1.6823866139	 0.256909
H	-1.9067212615	-2.8171471608	 1.1448083473	 0.279234
H	-3.7101730189	-3.9228196509	 1.9263428656	 0.102548
39.1734	57.8785	97.5251	119.2893	214.3593	256.7491	271.7196	359.8869	435.2947	481.0165	573.8031	671.8918	684.7216	772.0968	831.5047	922.42	948.5064	980.9775	1028.8568	1042.4418	1050.3312	1084.44	1130.6736	1191.1808	1230.6102	1318.7322	1340.6932	1376.4416	1414.7098	1437.2346	1484.5986	1518.7674	1736.4244	1749.8785	1813.1012	2962.6535	3038.6679	3061.3861	3114.6558	3484.6785	3522.9109	3587.9147
N=COCC(=N)NC=O	[NH][CH]OCC(=N)NC=O	
InChI=1S/C4H7N3O2/c5-2-9-1-4(6)7-3-8/h2-3,5H,1H2,(H2,6,7,8)	InChI=1S/C4H7N3O2/c5-2-9-1-4(6)7-3-8/h2-3,5H,1H2,(H2,6,7,8)
