15
gdb 55721	2.44243	1.28153	1.04856	5.0347	66.05	-0.2574	-0.0123	0.2452	1156.3877	0.111266	-453.963313	-453.954345	-453.9534	-453.997979	31.917	
N	 0.0957454216	 0.2482573908	-1.0339831856	-0.513413
C	-0.0001238664	 0.1763808229	 0.3211274551	 0.391869
O	 0.6475748624	 0.864100613	 1.0812542983	-0.349053
C	-1.0498582833	-0.8246306762	 0.8369073562	-0.377462
C	-1.0233682303	-2.1841310928	 0.1635730438	 0.212223
C	-2.2706629559	-2.8802512712	-0.2184148524	-0.206736
O	-1.4732652596	-2.2240005707	-1.2022849649	-0.253493
C	 0.1532057869	-3.000476517	 0.420638694	 0.289728
N	 1.0856035106	-3.6446922533	 0.6446038024	-0.319257
H	 0.7678676369	 0.8853065975	-1.4288982158	 0.26648
H	-0.4508859034	-0.3396390238	-1.6411779245	 0.280086
H	-0.8830017073	-0.9312959664	 1.910326363	 0.154325
H	-2.04375443	-0.3894456855	 0.687655439	 0.136238
H	-2.2821645665	-3.9656617681	-0.2815236952	 0.150088
H	-3.2201124157	-2.4029540692	 0.0160911966	 0.138376
39.8631	65.7001	155.0615	195.8497	241.0449	313.7175	322.6019	351.5177	431.299	524.6569	561.025	578.3832	603.3455	671.4155	756.0854	827.3438	869.9512	927.7245	945.6261	976.6252	1110.1238	1131.0842	1164.401	1182.8482	1267.467	1308.8296	1358.1125	1377.2652	1454.4183	1517.9747	1623.142	1813.8957	2363.8513	3059.0355	3099.5095	3130.3056	3198.3627	3591.5194	3728.9412
NC(=O)CC1(CO1)C#N	NC(=O)C[C@]1(CO1)C#N	
InChI=1S/C5H6N2O2/c6-2-5(3-9-5)1-4(7)8/h1,3H2,(H2,7,8)	InChI=1S/C5H6N2O2/c6-2-5(3-9-5)1-4(7)8/h1,3H2,(H2,7,8)/t5-/m1/s1
