19
gdb 99089	4.3069	0.75507	0.74885	6.5564	75.78	-0.2394	0.0166	0.256	1591.2655	0.157658	-456.397434	-456.386765	-456.385821	-456.435071	35.808	
C	 0.3215322784	 1.4376671352	 0.2059048594	-0.333924
N	 0.366203341	-0.0009695222	 0.0195811341	-0.311365
C	 0.6758265014	-0.5788600366	-1.1740448179	 0.4078
O	 0.9707818812	 0.0429230473	-2.1757123885	-0.358772
C	 0.5927787278	-2.1207538046	-1.161131855	-0.316961
N	 1.2997792759	-2.7301586048	-2.2527530017	-0.000877
C	 2.7507895614	-2.6438911399	-2.2770075397	-0.351271
C	 0.6287095131	-3.2589591148	-3.3187882508	 0.164725
O	 1.1399589371	-3.7451985241	-4.3028964514	-0.338578
H	 1.0345445358	 1.7611247502	 0.971849409	 0.129729
H	 0.5894572654	 1.8955583575	-0.7467632636	 0.176015
H	-0.6808976717	 1.7718469902	 0.4948891029	 0.130005
H	 0.1461540699	-0.5948359059	 0.8024783356	 0.248045
H	 0.9630557524	-2.5077453396	-0.2008666446	 0.113055
H	-0.4661344437	-2.3975972809	-1.2298119123	 0.142699
H	 3.1775647325	-3.1128124068	-1.3821790638	 0.114634
H	 3.0959683888	-3.1730196178	-3.1650172497	 0.168707
H	 3.0730995914	-1.5993564312	-2.3267177063	 0.14835
H	-0.4690226881	-3.2100607214	-3.1729579157	 0.067986
28.9354	42.578	79.9296	112.9137	148.2354	163.2591	237.4981	292.5883	325.1077	355.9526	387.6916	397.2865	443.3862	609.0839	686.3975	744.8609	885.1157	893.4101	978.7606	1025.3869	1058.4887	1109.3848	1154.0222	1156.091	1170.8687	1222.6147	1239.5414	1295.6199	1377.6767	1425.2213	1441.4443	1441.7667	1444.3917	1468.0476	1493.7204	1495.861	1499.8801	1521.4759	1563.1851	1793.4132	1806.6119	2929.3606	3000.8575	3027.0351	3031.464	3062.8075	3085.1882	3093.2123	3156.5628	3160.6991	3639.0954
CNC(=O)CN(C)C=O	CNC(=O)CN(C)C=O	
InChI=1S/C5H10N2O2/c1-6-5(9)3-7(2)4-8/h4H,3H2,1-2H3,(H,6,9)	InChI=1S/C5H10N2O2/c1-6-5(9)3-7(2)4-8/h4H,3H2,1-2H3,(H,6,9)
