18
gdb 125547	4.65685	1.25464	1.01685	3.2027	78.65	-0.2368	0.0256	0.2624	1179.6911	0.151327	-398.18218	-398.174475	-398.173531	-398.214666	28.649	
C	-0.0368612982	 1.4077485647	-0.0418748273	-0.483188
C	 0.008415482	-0.0823407278	 0.0109619807	 0.327243
N	-0.0317879221	-0.8333002122	-1.0911205106	-0.327699
N	 0.0551756918	-2.0768060474	-0.5707488745	 0.066818
C	-0.0128347628	-3.3995675041	-1.1581111694	-0.172758
C	 0.391030047	-4.2824798586	 0.0595970825	-0.219446
C	 0.1475339393	-3.415935441	 1.3370265397	-0.357114
C	 0.122814868	-2.0327471766	 0.7683698115	 0.381617
N	 0.1012488927	-0.782731727	 1.1891972943	-0.401634
H	 0.8736962729	 1.8395797957	 0.3859012841	 0.136319
H	-0.1361714886	 1.7441667871	-1.0752661529	 0.136623
H	-0.8806767693	 1.7901416387	 0.5409767017	 0.136373
H	-1.0276041843	-3.6094728732	-1.5156162288	 0.127793
H	 0.6737068713	-3.4956976648	-2.0025943429	 0.134794
H	-0.1652896722	-5.2209671067	 0.0793835473	 0.118658
H	 1.4528760199	-4.5304643752	-0.0140623387	 0.127009
H	-0.8098860224	-3.6533086234	 1.8149085851	 0.132818
H	 0.9264119951	-3.5554580584	 2.0900690181	 0.135772
102.6714	111.2913	162.1718	223.5755	274.1509	320.3818	500.3207	538.0574	665.3429	685.7796	716.5966	746.5129	802.8159	869.8912	904.6247	916.7438	993.295	1006.0729	1041.0012	1067.9614	1092.3421	1146.8857	1188.7915	1224.1786	1229.8472	1294.861	1302.9059	1323.7991	1358.8848	1363.7787	1405.014	1473.9862	1477.6546	1480.2364	1494.2554	1499.0356	1525.8577	1544.2521	1573.7658	3039.4622	3044.9444	3045.9558	3072.5933	3099.2291	3100.1036	3102.0242	3127.7367	3143.2612
CC1=NN2CCCC2=N1	Cc1nn2CCCc2n1	
InChI=1S/C6H9N3/c1-5-7-6-3-2-4-9(6)8-5/h2-4H2,1H3	InChI=1S/C6H9N3/c1-5-7-6-3-2-4-9(6)8-5/h2-4H2,1H3
