17
gdb 52196	3.57684	0.71771	0.63373	4.6945	75.05	-0.256	-0.0276	0.2284	1680.1556	0.134806	-417.999936	-417.990669	-417.989725	-418.035683	31.999	
O	-0.3292692338	 0.4474223593	 0.7494850591	-0.23326
C	 0.120518357	 0.9482521345	-0.2478733286	 0.154973
C	 1.3980013104	 1.7555195711	-0.3097350822	-0.271536
C	 1.1688772726	 3.1449246866	-0.9323888914	-0.221162
C	 2.4687658667	 3.8963608218	-1.0988421758	-0.007639
N	 3.322582303	 3.4869530818	-2.2130217781	-0.309839
C	 2.7230582545	 4.8373400699	-2.2379040055	-0.202502
C	 1.7283327906	 5.0863864857	-3.2538571531	 0.332013
N	 0.9204863466	 5.3090403655	-4.0502811232	-0.330823
H	-0.4008266059	 0.8440530531	-1.2284067581	 0.080155
H	 1.8168194312	 1.8224152331	 0.6988434556	 0.119198
H	 2.1082130529	 1.2089886603	-0.9462811109	 0.137447
H	 0.6885973866	 3.0377679083	-1.9107320912	 0.136177
H	 0.4916527725	 3.7344515684	-0.303292643	 0.124117
H	 2.9624346104	 4.1758661562	-0.1685380105	 0.106815
H	 4.3091402252	 3.5580846432	-1.9792581721	 0.24967
H	 3.3639866693	 5.6920486513	-2.0390608611	 0.136197
56.0543	59.4994	85.5246	118.8002	174.2144	235.837	307.1343	361.8693	451.3881	512.7989	575.2299	624.1085	763.8587	804.3551	828.6302	860.6634	915.2381	958.9292	993.3217	1025.8455	1053.5542	1089.3005	1135.5625	1181.0382	1208.287	1238.7921	1256.5512	1274.8886	1320.4274	1364.2197	1406.6487	1428.5121	1461.1234	1464.6545	1486.1984	1837.9268	2360.8908	2860.7209	3020.3027	3043.0295	3082.7127	3101.07	3118.4009	3150.0561	3514.6806
O=CCCC1NC1C#N	O=CCC[C@H]1N[C@H]1C#N	
InChI=1S/C6H8N2O/c7-4-6-5(8-6)2-1-3-9/h3,5-6,8H,1-2H2	InChI=1S/C6H8N2O/c7-4-6-5(8-6)2-1-3-9/h3,5-6,8H,1-2H2/t5-,6+/m1/s1
