14
gdb 16114	4.82831	1.66202	1.44535	2.1801	64.23	-0.26	0.0152	0.2752	855.4295	0.106494	-382.482377	-382.475524	-382.47458	-382.513283	25.965	
C	-0.0149756365	-1.1815523923	 0.1338093548	-0.363956
C	 0.0410445005	 0.0153805863	 0.0406633528	 0.19442
C	 0.0529899436	 1.4398975645	-0.1010684389	 0.26152
C	-0.9213658049	 2.1385065038	-1.0408555551	-0.164851
O	-0.4235486296	 3.4587559372	-1.1976604721	-0.257747
C	 0.9797326754	 3.4742348	-0.9635724491	-0.10507
C	 1.2477235795	 2.3031310534	-0.0445191922	-0.057257
O	 0.3485128144	 2.2419309467	 1.0601185793	-0.282181
H	-0.0545001279	-2.2390054496	 0.2261786981	 0.197483
H	-0.9547372129	 1.5908215804	-1.9954024114	 0.106559
H	-1.9345161881	 2.2049502131	-0.6336377428	 0.128881
H	 1.556236224	 3.3488658877	-1.8946917116	 0.100801
H	 1.2330265093	 4.442752847	-0.5209440442	 0.125974
H	 2.2508650633	 1.919092182	 0.1172161524	 0.115423
144.82	151.4631	217.4959	318.381	403.81	504.6548	512.2662	564.8264	622.8899	678.9314	695.4445	769.7598	878.0043	905.2954	933.5767	975.6278	1015.2509	1061.6539	1108.3958	1118.5163	1200.1956	1222.5115	1242.9054	1276.6436	1348.7648	1373.1287	1446.3708	1497.8301	1509.9789	2244.4164	2977.4859	2992.1917	3078.4611	3087.6606	3164.7345	3500.9932
C#CC12COCC1O2	C#C[C@]12COC[C@H]1O2	
InChI=1S/C6H6O2/c1-2-6-4-7-3-5(6)8-6/h1,5H,3-4H2	InChI=1S/C6H6O2/c1-2-6-4-7-3-5(6)8-6/h1,5H,3-4H2/t5-,6+/m1/s1
