19
gdb 72065	2.50885	1.6666	1.31545	2.9514	82.01	-0.2397	-0.0206	0.2191	1042.8327	0.159114	-385.862925	-385.854804	-385.85386	-385.895412	31.235	
C	-0.3686715065	 1.3460761259	 0.0622180297	-0.505956
C	-0.0244367601	-0.1116376649	 0.0374270639	 0.29774
C	 0.9421917413	-0.8374063736	-0.9062000168	-0.276271
C	 0.2189596426	-2.1514725377	-0.5101796031	-0.142705
C	 0.5551383648	-2.304933854	 0.9989742991	-0.233422
C	-0.2581136799	-1.0268715677	 1.2125958967	-0.136782
C	-1.030315579	-1.2859781234	-0.0929552743	 0.251343
C	-2.4571326885	-1.2258281813	-0.354672178	-0.014356
O	-3.2137838367	-0.4341729288	 0.1729003474	-0.289972
H	 0.4131735368	 1.9268051823	 0.5652697295	 0.121888
H	-0.4809625178	 1.7412635255	-0.9527049286	 0.122132
H	-1.314035183	 1.5054471567	 0.588447124	 0.152985
H	 0.7510418328	-0.5580303264	-1.9460462592	 0.103605
H	 2.0170831742	-0.7731925417	-0.6975595052	 0.092026
H	 0.2126875673	-3.0120586982	-1.1754363217	 0.078381
H	 0.0574432519	-3.1693204572	 1.4453776309	 0.108285
H	 1.6150290224	-2.2993593831	 1.2783180324	 0.094527
H	-0.706004929	-0.6585860753	 2.1267614848	 0.108459
H	-2.8322651136	-1.9613268772	-1.1015576315	 0.068094
118.9326	141.9204	177.8289	194.2311	271.5553	309.116	385.4832	490.1195	499.0669	605.2732	700.5398	708.092	763.1155	816.977	868.7096	926.38	929.0644	976.1638	984.4381	997.8133	1028.1694	1048.8245	1055.3242	1085.6272	1125.6794	1137.8221	1180.3377	1209.7596	1221.6235	1239.8429	1261.6213	1294.6934	1341.4245	1408.2006	1424.7459	1446.7151	1487.3638	1489.9764	1497.2869	1509.8956	1762.672	2870.8135	3026.1972	3030.1408	3036.7194	3090.7258	3095.8928	3105.2014	3117.5429	3141.5319	3205.8555
CC12CC3CC1C23C=O	C[C@@]12C[C@H]3C[C@@H]1[C@@]23C=O	
InChI=1S/C8H10O/c1-7-3-5-2-6(7)8(5,7)4-9/h4-6H,2-3H2,1H3	InChI=1S/C8H10O/c1-7-3-5-2-6(7)8(5,7)4-9/h4-6H,2-3H2,1H3/t5-,6+,7-,8+/m1/s1
