19
gdb 32236	2.4682	1.58615	0.97838	2.1071	88.51	-0.1976	-0.0022	0.1954	1214.7823	0.161093	-382.14208	-382.133326	-382.132382	-382.175279	32.825	
C	-0.0067378602	 1.4575932246	-0.0084532614	-0.309325
N	 0.1309896	 0.0136314636	 0.0305274399	-0.353377
C	 0.6481685823	-0.6833441685	-1.0383465281	 0.341451
N	 1.2084194384	 0.0372530761	-2.0146800951	-0.350798
C	 1.756701298	-0.6157640349	-3.0445100848	-0.010652
C	 1.7673738657	-1.9950283848	-3.1650437341	-0.147422
C	 1.1729639651	-2.7366623229	-2.1400863684	-0.143496
C	 0.6011981366	-2.1037591901	-1.0505175459	 0.215658
C	-0.0315736588	-2.868191546	 0.0809985147	-0.522594
H	 0.9664184194	 1.9204252039	-0.1838764112	 0.148286
H	-0.6818309603	 1.8014043225	-0.8039973765	 0.121117
H	-0.3917154687	 1.7953979225	 0.9569031234	 0.112217
H	-0.5339917086	-0.4804190131	 0.6004494386	 0.239082
H	 2.2059827134	 0.0100245736	-3.8128192355	 0.098425
H	 2.2202873612	-2.4767158694	-4.0231533312	 0.088253
H	 1.1588316677	-3.8222603492	-2.1880630185	 0.090721
H	 0.4338597407	-2.6234401863	 1.0442506303	 0.132763
H	-1.1043623992	-2.6490997027	 0.1788800449	 0.123348
H	 0.0648231575	-3.9458983789	-0.0730167315	 0.126344
117.8521	129.3207	168.1033	197.0534	214.4258	288.3325	308.3634	398.8119	459.7261	500.2995	541.2645	569.918	625.2573	774.1374	793.575	801.0777	870.2965	955.3672	972.5344	1003.6099	1064.6727	1078.4875	1090.3752	1121.0991	1152.6594	1176.5491	1208.3231	1288.8853	1323.0825	1361.4676	1410.7736	1437.6001	1455.3811	1475.1505	1482.7405	1485.9237	1512.5082	1514.5242	1545.6187	1617.1549	1645.6769	3003.2614	3010.8742	3051.5721	3091.662	3111.052	3133.5834	3146.6356	3163.3064	3204.7134	3656.9011
CNC1=NC=CC=C1C	CNc1ncccc1C	
InChI=1S/C7H10N2/c1-6-4-3-5-9-7(6)8-2/h3-5H,1-2H3,(H,8,9)	InChI=1S/C7H10N2/c1-6-4-3-5-9-7(6)8-2/h3-5H,1-2H3,(H,8,9)
