16
gdb 24212	4.17907	1.72267	1.48201	4.8556	73.38	-0.2122	0.0234	0.2357	883.7629	0.128734	-396.89026	-396.884258	-396.883314	-396.920951	24.573	
C	-0.0450292616	 1.5443191122	-0.0223578994	-0.171521
C	 1.4971609673	 1.3576092175	-0.0109684754	-0.050181
C	 1.158038063	 0.1332986651	 0.8950908394	-0.17801
N	-0.0990377453	 0.0052053541	-0.0002074072	-0.21743
C	 0.5990597322	-0.2427110421	-1.2499108581	 0.398656
N	 0.6301713647	-1.1433022261	-2.1881341855	-0.394355
C	 1.7698139324	-0.8008909961	-2.9116404088	-0.104251
C	 2.4219315739	 0.2825563707	-2.3646480995	-0.165411
N	 1.6224798684	 0.6599596837	-1.3088234545	 0.033867
H	-0.4597696638	 1.9452851031	 0.9036931094	 0.122785
H	-0.4995034796	 2.0038105547	-0.9013788155	 0.130345
H	 2.2389280525	 2.1283746309	 0.1903622283	 0.098664
H	 1.8257584516	-0.7292070576	 0.8640292221	 0.135874
H	 0.8719574345	 0.3810560855	 1.9193894636	 0.122622
H	 2.0442561675	-1.3490798372	-3.7998658948	 0.108963
H	 3.3036784223	 0.8225275017	-2.6657707541	 0.129381
61.959	303.617	445.1022	510.8948	533.7491	622.2875	689.2561	722.5429	726.1818	761.8292	817.3378	821.9529	822.9731	844.6511	912.4321	945.515	1012.8234	1020.5346	1034.7592	1085.8283	1097.1766	1125.2508	1140.8518	1198.2105	1209.9931	1229.3951	1230.728	1266.059	1290.1028	1384.7912	1415.3067	1483.5663	1486.0152	1521.8674	1608.2199	3070.9848	3080.8228	3139.797	3146.0707	3153.2648	3251.0199	3281.8558
C1C2CN1C1=NC=CN21	C1[C@H]2CN1c1nccn21	
InChI=1S/C6H7N3/c1-2-9-5-3-8(4-5)6(9)7-1/h1-2,5H,3-4H2	InChI=1S/C6H7N3/c1-2-9-5-3-8(4-5)6(9)7-1/h1-2,5H,3-4H2
