21
gdb 89997	3.93039	1.08075	1.00543	1.7338	85.05	-0.2358	0.0137	0.2496	1288.3221	0.183179	-387.091596	-387.083067	-387.082123	-387.125243	32.78	
C	 0.0576122041	 1.6581650168	 0.1262514598	-0.396344
C	 0.019742818	 0.1253838819	 0.1079158106	-0.021474
C	 0.5898009509	-0.5120308829	-1.1861105639	-0.304896
C	 1.391988025	-1.7565929649	-0.7522302001	 0.437776
C	 0.9065054603	-3.1723196341	-1.1852550723	-0.34551
C	 2.2285791246	-3.2473795803	-1.9659893108	-0.069951
O	 2.6203790005	-1.9354300789	-1.5182798737	-0.323538
C	 1.6089351144	-1.5250075642	 0.7170613223	-0.140792
C	 0.8631191648	-0.5254604922	 1.1828323259	-0.072802
H	 1.0838352485	 2.0233554747	 0.0107698738	 0.120335
H	-0.5431196524	 2.0755958462	-0.6885981816	 0.114343
H	-0.3371090519	 2.0540013458	 1.0683305579	 0.110992
H	-1.0270206378	-0.1854078201	 0.2433921711	 0.080005
H	-0.1786894324	-0.7391299983	-1.9300118755	 0.092081
H	 1.3046871335	 0.1746898261	-1.6523358305	 0.117949
H	 0.8025936447	-3.8892082628	-0.3687046563	 0.108471
H	-0.0043420704	-3.1810574665	-1.7869816219	 0.10775
H	 2.9326908083	-4.0212411909	-1.6360166737	 0.098911
H	 2.1390963154	-3.2978839747	-3.0583835882	 0.098711
H	 2.2779280108	-2.1521681765	 1.2962832205	 0.094646
H	 0.8247559411	-0.2005362141	 2.2182164969	 0.093339
56.7829	72.983	181.8232	240.4145	283.3059	300.3756	390.8053	419.1818	445.9123	561.5144	668.9091	774.9831	791.7836	804.7675	848.1714	856.4902	881.6269	930.571	960.6696	977.073	978.8677	989.1185	1026.8977	1057.4299	1084.6989	1130.9308	1137.8208	1160.8788	1171.6589	1206.4029	1229.141	1255.034	1262.9677	1284.5724	1312.3156	1343.9166	1352.1964	1386.676	1409.8713	1478.9518	1490.9449	1497.8126	1499.2609	1533.2219	1681.0291	2987.7148	3012.222	3027.5396	3048.564	3049.3553	3074.0686	3095.1242	3098.0744	3101.4382	3128.9106	3171.7646	3200.8477
CC1CC2(CCO2)C=C1	C[C@H]1C[C@]2(CCO2)C=C1	
InChI=1S/C8H12O/c1-7-2-3-8(6-7)4-5-9-8/h2-3,7H,4-6H2,1H3	InChI=1S/C8H12O/c1-7-2-3-8(6-7)4-5-9-8/h2-3,7H,4-6H2,1H3/t7-,8-/m1/s1
