20
gdb 112999	2.77552	1.01394	0.79824	5.0218	77.84	-0.2377	0.0261	0.2639	1437.2314	0.169836	-440.290849	-440.280915	-440.279971	-440.326693	34.972	
C	-0.4198724221	 1.4473076121	 0.1195090335	-0.402535
C	-0.0471976197	-0.0273323918	 0.015489622	 0.014411
C	 0.6384256657	-0.5710807175	-1.2878563309	-0.012309
C	 0.9990032267	 0.4270400729	-2.3721664568	-0.096944
O	 1.7302733744	-0.2906010969	-3.3547789673	-0.420691
C	 1.8286849471	-1.0435847478	-0.405242667	-0.174847
N	 1.1643200894	-0.4351371476	 0.7495515802	-0.046951
C	 1.4036108537	-0.6325636066	 2.0653189066	 0.125661
O	 2.3768308577	-1.2060788821	 2.5117513816	-0.331441
H	 0.4243123662	 2.0966043927	-0.1266186011	 0.125928
H	-1.2520063848	 1.6811477672	-0.5527731158	 0.123755
H	-0.7412445277	 1.6880155552	 1.1377060395	 0.127052
H	-0.9169091058	-0.6369037938	 0.2938314395	 0.089914
H	 0.0874334294	-1.394558532	-1.746066144	 0.09345
H	 0.0856444998	 0.8730067387	-2.7977017594	 0.090159
H	 1.6015860579	 1.246350508	-1.9508183341	 0.09292
H	 2.0427011602	 0.3331021333	-4.0166407624	 0.290592
H	 1.9522197757	-2.1264549849	-0.3097564013	 0.125056
H	 2.7989378261	-0.6004744502	-0.6495950695	 0.124355
H	 0.60786815	-0.194690299	 2.7041360467	 0.062466
41.6126	80.3913	96.9598	168.6304	189.805	231.002	264.7588	288.6123	320.8174	344.2306	441.3297	478.0065	598.4164	727.4743	824.6199	858.31	910.5274	927.3987	1003.9628	1032.1836	1041.9715	1070.6561	1094.1966	1132.0126	1143.7723	1170.4294	1183.8	1237.2844	1256.7729	1279.9428	1289.9679	1316.9896	1361.8574	1381.48	1399.5748	1409.4506	1440.5167	1465.1524	1487.3193	1499.091	1514.554	1527.2947	1789.8859	2911.3124	2968.2419	2999.4856	3010.3529	3039.6152	3048.8358	3087.825	3100.6852	3105.4694	3122.6878	3831.7746
CC1C(CO)CN1C=O	C[C@H]1[C@@H](CO)CN1C=O	
InChI=1S/C6H11NO2/c1-5-6(3-8)2-7(5)4-9/h4-6,8H,2-3H2,1H3	InChI=1S/C6H11NO2/c1-5-6(3-8)2-7(5)4-9/h4-6,8H,2-3H2,1H3/t5-,6+/m0/s1
