21
gdb 69823	2.99477	1.51291	1.22203	1.9169	81.03	-0.2492	0.0778	0.327	1094.126	0.184458	-387.079299	-387.071507	-387.070562	-387.110992	32.093	
C	 0.0349988164	 1.5147671751	 0.0083410833	-0.46334
C	-0.0276263073	 0.000461277	 0.0244169028	 0.341114
C	-0.8677461789	-0.6561000554	 1.0883534727	-0.338821
C	 0.6424192505	-0.72272073	 1.1834660668	-0.078231
C	 1.3555051161	-2.0179303467	 0.919337164	 0.042964
O	 0.5918597948	-3.2301660899	 0.8833217715	-0.257938
C	 1.1410592034	-2.7390639655	-0.3477116182	 0.041569
C	 0.1539872892	-2.178300227	-1.3610273254	-0.263486
C	 0.0964244208	-0.6372128181	-1.3520236702	-0.261663
H	 0.9665249743	 1.8690904222	-0.4491415723	 0.112942
H	-0.7978372438	 1.9393333489	-0.5652112453	 0.11496
H	-0.0170345832	 1.926180063	 1.0213805935	 0.112095
H	-1.3854684273	-0.0147266003	 1.7935414804	 0.105595
H	-1.3787086538	-1.5865737265	 0.8726719546	 0.12786
H	 1.1126142149	-0.1010274864	 1.9390057663	 0.075867
H	 2.3180032786	-2.1236828613	 1.4192936247	 0.084617
H	 1.948551915	-3.3561633024	-0.7409647739	 0.088245
H	 0.423837848	-2.5161580548	-2.3664320994	 0.100342
H	-0.8339846124	-2.5993725773	-1.1474810399	 0.121554
H	-0.7346796478	-0.3060641801	-1.987458527	 0.098446
H	 1.0107950425	-0.2463955145	-1.8207588391	 0.095309
159.984	189.8734	233.3321	277.4399	343.8838	365.9657	398.9494	470.7381	474.8272	560.4669	673.0675	691.57	764.77	790.4742	852.6499	884.8923	896.9859	914.6988	947.3173	972.1954	1003.6015	1041.971	1058.8218	1063.977	1081.7466	1092.4238	1118.2684	1119.1385	1161.7442	1212.0205	1245.7387	1267.3787	1297.4814	1323.3107	1358.9742	1375.8681	1392.7743	1416.4077	1423.2019	1456.9878	1483.3585	1487.5977	1492.0516	1500.1329	1514.3034	3004.8289	3019.156	3039.9254	3052.9554	3077.5169	3086.8567	3096.9197	3102.5414	3114.3512	3137.9852	3153.3768	3227.9572
CC12CC1C1OC1CC2	C[C@]12C[C@H]1[C@H]1O[C@H]1CC2	
InChI=1S/C8H12O/c1-8-3-2-6-7(9-6)5(8)4-8/h5-7H,2-4H2,1H3	InChI=1S/C8H12O/c1-8-3-2-6-7(9-6)5(8)4-8/h5-7H,2-4H2,1H3/t5-,6-,7+,8-/m0/s1
