20
gdb 85334	2.07808	1.59517	1.05074	5.463	84.37	-0.2097	-0.0217	0.188	1207.0324	0.171415	-403.203836	-403.194769	-403.193825	-403.23742	34.472	
C	-0.1971236376	 1.5362992021	-0.0511130237	-0.387329
C	 0.023617808	 0.0165829073	 0.0134273288	-0.003426
C	 0.797068979	-0.5183494951	-1.1985263524	-0.313629
C	 2.2940531469	-0.1807957758	-1.1620662809	 0.36703
O	 2.9290985422	-0.0320986192	-2.1932554113	-0.364458
C	 2.8735131532	-0.1399951494	 0.1676369228	-0.289576
C	 2.1075087984	-0.2621122036	 1.2875871926	 0.372538
C	 2.6975285363	-0.3066548166	 2.6695442623	-0.488431
N	 0.7438923002	-0.3752815432	 1.2311493501	-0.337853
H	 0.7563206131	 2.0712168074	-0.0884131799	 0.13966
H	-0.7715835961	 1.8001410404	-0.9445633648	 0.124822
H	-0.7548327078	 1.886618597	 0.8237910143	 0.106226
H	-0.9550519998	-0.4751058399	 0.0509287609	 0.087274
H	 0.7211392029	-1.6135166395	-1.2220266165	 0.122426
H	 0.3720725142	-0.1410355796	-2.1312449457	 0.119512
H	 3.9494021169	-0.0525853111	 0.2516910061	 0.087657
H	 3.7867013256	-0.2771050021	 2.6301446779	 0.146228
H	 2.3493081972	 0.5412227902	 3.2722514307	 0.133296
H	 2.3932545764	-1.2227628388	 3.1888670657	 0.140856
H	 0.252863681	-0.2182547204	 2.0984678231	 0.237178
109.4507	117.3389	130.7991	186.0241	237.1953	302.5252	345.9655	401.8774	458.6576	490.1852	512.6615	520.1024	578.4643	617.9512	678.1578	814.2488	839.8215	862.3056	923.5482	952.7844	989.3572	1037.3957	1060.2742	1067.5155	1091.115	1156.0115	1190.111	1218.0383	1249.2988	1290.0991	1362.6337	1370.9889	1395.1569	1405.83	1414.6931	1455.5788	1477.6553	1479.735	1492.2846	1496.5386	1542.5486	1655.0091	1755.2592	3025.5869	3028.378	3035.3553	3040.8643	3081.2798	3103.611	3112.1639	3119.3007	3146.5965	3209.6991	3606.2598
CC1CC(=O)C=C(C)N1	C[C@H]1CC(=O)C=C(C)N1	
InChI=1S/C7H11NO/c1-5-3-7(9)4-6(2)8-5/h3,6,8H,4H2,1-2H3	InChI=1S/C7H11NO/c1-5-3-7(9)4-6(2)8-5/h3,6,8H,4H2,1-2H3/t6-/m0/s1
