16
gdb 15845	2.60162	2.03571	1.32144	2.823	71.37	-0.24	-0.0252	0.2148	943.8247	0.128001	-346.581151	-346.572949	-346.572004	-346.613953	30.287	
C	-0.292667627	 1.508700712	-0.0501414971	-0.394608
C	 0.0185524575	 0.0178656072	-0.0320617774	-0.010641
C	 1.2386481369	-0.3887686744	-0.9167247943	-0.355096
C	 2.0749521682	-0.5149515181	 0.3623977351	 0.397018
O	 3.2421432168	-0.5369602477	 0.6027420237	-0.279284
C	 0.7951413071	-0.4790534452	 1.2535678012	-0.305899
C	 0.7920435098	 0.2949009375	 2.4708406374	 0.327692
C	 0.8015538014	 0.960765624	 3.4721796822	-0.438505
H	 0.6082927035	 2.1062110226	 0.1267810827	 0.127924
H	-0.7065635381	 1.8013690997	-1.0203984216	 0.117356
H	-1.0166971215	 1.7698646668	 0.7266449821	 0.131378
H	-0.8856176163	-0.5627055197	-0.224609257	 0.084531
H	 1.1231672338	-1.3557842928	-1.4170668144	 0.133241
H	 1.5973174036	 0.3414324151	-1.646656551	 0.133558
H	 0.5216631977	-1.5222141794	 1.4622561758	 0.131821
H	 0.8151715465	 1.5419546324	 4.3607736828	 0.199512
55.8515	123.9461	153.8175	241.2579	321.1825	349.0946	376.6628	416.9917	522.8068	580.9994	615.4396	647.536	694.9058	715.2276	808.9343	879.7177	886.4585	999.2062	1021.6451	1065.8005	1088.3331	1094.3133	1136.1022	1209.7823	1221.7552	1267.4999	1305.3583	1365.7151	1417.1592	1438.1773	1492.744	1496.3022	1902.5418	2233.7732	3021.7145	3035.6572	3056.5266	3083.9901	3106.154	3113.8989	3117.3002	3503.8021
CC1CC(=O)C1C#C	C[C@H]1CC(=O)[C@H]1C#C	
InChI=1S/C7H8O/c1-3-6-5(2)4-7(6)8/h1,5-6H,4H2,2H3	InChI=1S/C7H8O/c1-3-6-5(2)4-7(6)8/h1,5-6H,4H2,2H3/t5-,6-/m0/s1
