20
gdb 113463	4.51768	0.93522	0.92124	2.5334	79.68	-0.2342	0.0781	0.3124	1374.6041	0.170105	-403.082649	-403.074028	-403.073084	-403.116252	32.724	
C	 0.0060753111	 1.4563149373	-0.4491004248	-0.374071
C	-0.0099891672	 0.1690918032	 0.3839481845	-0.211681
C	-1.382187593	-0.4564177034	 0.4451371043	-0.044841
O	-1.8489517482	-1.1003342294	-0.7619405614	-0.298624
C	-1.6044628358	-1.9024031572	 0.3774035207	 0.443832
C	-0.6740594619	-3.1194246184	 0.3214591184	-0.259956
N	-1.7642386658	-4.0151999176	 0.8639893339	-0.124898
C	-2.1123965022	-3.4633574662	 2.1834187815	-0.239238
C	-2.6622281837	-2.7911792621	 0.9856202205	-0.136796
H	 1.010043336	 1.8887980599	-0.4871915126	 0.114826
H	-0.3182446983	 1.2525491064	-1.4737158771	 0.136185
H	-0.6678191489	 2.2097295973	-0.0269767548	 0.116288
H	 0.6940829495	-0.5575445701	-0.0364771399	 0.104631
H	 0.322111776	 0.3788763892	 1.4092469421	 0.101168
H	-2.1502725866	 0.1491190356	 0.9327294493	 0.087752
H	-0.4333822933	-3.4002091468	-0.7059875008	 0.130689
H	 0.2379522659	-3.1112717384	 0.9280157715	 0.106598
H	-2.7777851313	-4.1062754247	 2.7516851774	 0.126274
H	-1.3422783629	-2.9701298922	 2.7742485319	 0.111671
H	-3.7104145596	-2.8077603423	 0.7070211955	 0.110191
65.5831	109.4716	144.6338	187.0527	247.145	319.8039	392.7078	448.0548	454.7515	503.5214	611.5651	743.9462	759.0049	787.3391	837.9327	847.1637	918.1685	939.563	954.7214	975.2481	1030.7734	1044.2326	1064.8507	1091.9722	1108.4767	1114.3286	1132.9489	1154.3111	1188.3076	1201.0789	1226.8813	1271.5378	1292.0014	1320.3162	1339.3013	1380.0605	1408.1401	1471.7496	1482.0636	1497.8168	1499.8141	1506.4244	1525.6122	3025.0105	3037.4647	3045.8004	3064.8488	3083.5413	3097.89	3106.6508	3118.1564	3118.58	3174.3443	3194.7988
CCC1OC11CN2CC12	CC[C@H]1O[C@]21CN1C[C@@H]21	
InChI=1S/C7H11NO/c1-2-6-7(9-6)4-8-3-5(7)8/h5-6H,2-4H2,1H3	InChI=1S/C7H11NO/c1-2-6-7(9-6)4-8-3-5(7)8/h5-6H,2-4H2,1H3/t5-,6+,7+,8?/m0/s1
