17
gdb 50098	4.70178	0.72456	0.67363	2.4262	70.88	-0.2633	-0.0446	0.2188	1617.1929	0.133289	-458.918623	-458.909724	-458.90878	-458.95386	31.133	
O	-0.2262971461	 0.267800486	 0.7984274004	-0.242783
C	 0.4482005725	 0.7550654934	-0.0723234397	 0.141
C	 1.0711727113	 2.1083969991	 0.0383257415	-0.056097
O	 2.2007058397	 2.3528716268	-0.8092570023	-0.24553
C	 1.0147811208	 3.0914661628	-1.0725539477	 0.07874
C	 0.3213672898	 2.8679387339	-2.3992619893	-0.281169
C	 0.9880402708	 3.6756996178	-3.4912269991	 0.09976
C	 0.2200875565	 4.3332511749	-4.553816022	-0.177945
O	 0.7464563497	 5.0856079273	-3.4587661438	-0.235401
H	 0.6692374405	 0.2210745079	-1.0215921022	 0.090664
H	 1.1473143674	 2.4866868306	 1.0568460133	 0.119957
H	 1.072223452	 4.1395821754	-0.774258298	 0.124664
H	 0.3389237003	 1.8073157933	-2.6674622663	 0.11478
H	-0.7258333722	 3.1792358441	-2.311356532	 0.121312
H	 2.0257238904	 3.4095052927	-3.6964067459	 0.110233
H	 0.6844881613	 4.5250215787	-5.5196649655	 0.121185
H	-0.8643943048	 4.2308907053	-4.5719969613	 0.11663
44.1123	70.8921	83.7462	141.7239	222.2851	288.7159	354.0026	398.7758	470.0912	471.1801	543.9488	790.9757	807.9471	854.3532	872.5141	941.221	952.9722	973.138	1033.5372	1071.8853	1102.032	1106.6393	1144.2421	1160.5496	1172.8032	1177.021	1253.1363	1267.3847	1292.5367	1316.1992	1343.3836	1410.6586	1442.3704	1453.3771	1469.063	1529.7868	1824.5578	2903.5241	3046.1307	3084.4564	3092.0636	3107.052	3113.7517	3134.2045	3172.2714
O=CC1OC1CC1CO1	O=C[C@H]1O[C@H]1C[C@H]1CO1	
InChI=1S/C6H8O3/c7-2-6-5(9-6)1-4-3-8-4/h2,4-6H,1,3H2	InChI=1S/C6H8O3/c7-2-6-5(9-6)1-4-3-8-4/h2,4-6H,1,3H2/t4-,5-,6+/m0/s1
