23
gdb 63529	2.81075	1.32775	1.19558	0.201	89.94	-0.2326	0.088	0.3205	1193.3678	0.204972	-351.120067	-351.110948	-351.110004	-351.153247	36.232	
C	-0.0919286356	 1.507135364	 0.0291914252	-0.453749
C	-0.0372922992	-0.0089411623	 0.0346467838	 0.287546
C	-1.2510804733	-0.6823602978	-0.576968389	-0.450537
C	 1.3173639888	-0.6635355838	-0.1724580988	-0.414131
C	 0.6631987102	-0.6979242619	 1.1802323198	 0.357199
C	 1.254442108	-0.0977366463	 2.4780722826	-0.324198
C	 0.8210025898	-1.3735658185	 3.2169756583	-0.041905
C	-0.6586893311	-1.5933032883	 3.0744573906	-0.277907
C	 0.243048603	-1.9542200669	 1.9227232293	-0.128772
H	 0.7989778429	 1.9466785195	 0.4875005537	 0.113906
H	-0.1621070332	 1.8925782041	-0.995300402	 0.111401
H	-0.965950318	 1.8758640582	 0.5798073078	 0.110282
H	-1.3652017905	-0.4040911433	-1.6316602168	 0.11038
H	-1.1758691349	-1.7723728744	-0.5254882215	 0.112889
H	-2.1705799882	-0.3890333711	-0.0566147058	 0.111696
H	 1.3589014179	-1.5872349639	-0.7433851976	 0.102853
H	 2.1837050672	-0.0216152215	-0.3069519239	 0.101527
H	 2.3404015027	 0.0185182526	 2.4245659695	 0.102433
H	 0.817724299	 0.8380530582	 2.8448257591	 0.092772
H	 1.4008324474	-1.8771147	 3.9803074369	 0.084066
H	-1.0590264128	-2.4339518953	 3.6328351085	 0.106883
H	-1.3370046882	-0.7465352524	 2.9960064569	 0.10363
H	 0.3145084681	-2.9660588691	 1.5410540534	 0.081735
108.7739	145.2711	168.0418	200.726	224.1574	297.1686	356.3656	374.8853	399.1514	435.4736	477.9471	562.413	711.9296	747.8493	786.0544	821.0191	890.2657	897.5805	918.8412	928.9661	966.0384	969.2962	972.9663	991.4004	1018.861	1045.1716	1050.4476	1062.0207	1081.4943	1099.398	1143.6636	1156.977	1184.2401	1190.298	1223.2682	1251.8175	1283.9215	1310.4431	1344.5894	1409.1379	1415.3391	1425.7811	1479.1998	1479.6242	1486.2523	1491.9083	1494.7454	1498.9951	1516.0609	3016.8975	3021.8363	3033.4406	3073.2198	3077.3109	3089.8334	3099.8685	3103.1428	3104.47	3108.3652	3172.7678	3185.3917	3190.2849	3199.3435
CC1(C)CC11CC2CC12	CC1(C)C[C@]21C[C@H]1C[C@@H]21	
InChI=1S/C9H14/c1-8(2)5-9(8)4-6-3-7(6)9/h6-7H,3-5H2,1-2H3	InChI=1S/C9H14/c1-8(2)5-9(8)4-6-3-7(6)9/h6-7H,3-5H2,1-2H3/t6-,7-,9-/m1/s1
