21
gdb 118765	2.55541	1.10566	0.9061	1.6757	75.74	-0.2478	0.0752	0.323	1371.474	0.180408	-461.336549	-461.326639	-461.325695	-461.371389	36.964	
C	-0.1858092859	 1.266801033	-0.432129741	-0.226182
O	-0.1030717181	-0.1238371772	-0.2255009275	-0.256969
C	 0.6401790481	-0.7994213695	-1.2264906784	-0.126531
C	 0.7151516793	-2.2604590879	-0.8034179169	 0.42167
O	 1.2717927256	-2.3567499936	 0.4867419754	-0.490905
C	-0.6085266094	-3.0512583733	-1.0647214274	-0.28204
C	 0.0187204201	-3.6210789174	-2.3563694967	 0.11639
O	-0.4511215746	-2.8763181359	-3.4710673083	-0.431442
C	 1.4156623133	-3.1694083863	-1.8413946873	-0.315392
H	 0.809950095	 1.7369688061	-0.4398728243	 0.106903
H	-0.6860524048	 1.5053384302	-1.3829038358	 0.110803
H	-0.7701742533	 1.6871281487	 0.3900923123	 0.128037
H	 0.1602219633	-0.7052009572	-2.2100842657	 0.111036
H	 1.6593834215	-0.3816802567	-1.2889545794	 0.084983
H	 0.8801101988	-1.6359482295	 0.9973842578	 0.282255
H	-0.7461488654	-3.819522508	-0.3012201867	 0.10495
H	-1.5298199122	-2.4800875487	-1.1927550643	 0.110426
H	-0.1057990479	-4.6969794724	-2.5296524261	 0.06759
H	 0.0981381521	-3.1022106548	-4.2290062095	 0.281441
H	 2.0850071471	-2.6963291558	-2.5671999551	 0.089066
H	 1.9473771275	-3.9746385341	-1.3283757252	 0.113912
67.3798	109.7855	120.883	162.4515	233.214	268.1221	301.058	336.3897	375.9373	386.9811	413.2153	451.264	460.39	516.7176	714.1339	820.3014	842.1733	857.2708	938.2325	942.2641	960.9389	984.7034	1008.873	1066.48	1089.5344	1155.4979	1165.7761	1174.68	1192.56	1197.518	1224.2044	1242.5333	1258.5369	1271.4936	1315.8439	1326.9371	1377.6595	1412.5297	1434.0325	1451.4848	1477.1279	1480.7775	1486.1891	1501.5173	1524.6347	2961.9261	2978.0941	3018.4569	3024.2187	3039.002	3048.9698	3076.4359	3113.8786	3115.4467	3138.9618	3765.3979	3808.7814
COCC1(O)CC(O)C1	COC[C@@]1(O)C[C@@H](O)C1	
InChI=1S/C6H12O3/c1-9-4-6(8)2-5(7)3-6/h5,7-8H,2-4H2,1H3	InChI=1S/C6H12O3/c1-9-4-6(8)2-5(7)3-6/h5,7-8H,2-4H2,1H3/t5-,6-
