19
gdb 41680	3.76055	1.56946	1.44527	1.1138	78.61	-0.225	0.013	0.238	956.7565	0.162793	-385.858586	-385.852122	-385.851178	-385.88906	27.469	
C	-0.0210314417	 1.4848097556	-0.0112644691	-0.105402
O	 1.2719230335	 2.054437205	 0.0913004296	-0.248366
C	 2.1235943322	 1.3541787026	 0.9806944435	-0.105402
C	 1.9362026525	-0.1581473843	 0.8890130632	-0.008177
C	 1.3828980395	-0.6455229384	-0.5041886282	-0.076189
C	 1.1623324971	-2.132832082	-0.223223291	-0.102502
C	 0.6004500374	-2.1438302911	 0.9902077307	-0.10103
C	 0.5220925488	-0.6625177791	 1.3546491315	-0.083297
C	 0.017718268	-0.0412920397	 0.0016500903	-0.008178
H	-0.6787805236	 1.845326053	 0.80007921	 0.085811
H	-0.4358955621	 1.8531401612	-0.9561344452	 0.107427
H	 3.1448327475	 1.6350301281	 0.7000634642	 0.107426
H	 1.9658894804	 1.6842417041	 2.0233216954	 0.085812
H	 2.7959557476	-0.6967218365	 1.2978499027	 0.065889
H	 1.8371213466	-0.3383966885	-1.445779086	 0.065894
H	 1.4166188753	-2.9519583615	-0.8808980925	 0.099517
H	 0.2689978275	-2.9741241708	 1.597508147	 0.099624
H	 0.095803286	-0.3672007857	 2.3151779081	 0.055255
H	-0.8991656625	-0.4716505221	-0.4112670041	 0.065889
181.0411	253.3794	322.5559	340.4568	452.2825	528.0921	576.8623	677.1841	716.9574	737.7103	824.0211	858.9888	873.8742	904.2323	908.8756	912.13	938.7152	966.7176	973.2834	1021.6024	1031.2561	1054.8088	1092.8079	1094.1477	1142.0313	1163.4518	1193.806	1206.7968	1227.1669	1229.1913	1237.0112	1268.606	1289.7351	1304.7116	1328.8044	1361.6668	1375.6551	1424.2989	1498.7197	1509.2001	1623.0247	2941.4696	2948.0867	3054.7855	3056.6456	3071.6956	3074.6975	3098.526	3122.6762	3218.2303	3245.1571
C1OCC2C3C=CC2C13	C1OC[C@@H]2[C@H]3C=C[C@@H]2[C@@H]13	
InChI=1S/C8H10O/c1-2-6-7-3-9-4-8(6)5(1)7/h1-2,5-8H,3-4H2	InChI=1S/C8H10O/c1-2-6-7-3-9-4-8(6)5(1)7/h1-2,5-8H,3-4H2/t5-,6+,7-,8+
