15
gdb 125770	7.25113	0.84437	0.75986	4.6305	77.8	-0.2316	-0.0346	0.197	1446.2199	0.112634	-450.151981	-450.143172	-450.142228	-450.186633	30.433	
C	 0.0056037699	 1.4638544944	 0.0226299004	-0.487386
C	 0.0085663708	-0.0257312196	-0.0030392253	 0.364242
N	-0.0535912574	-0.6969273981	-1.1254658504	-0.188361
O	-0.0252291315	-2.0378624211	-0.6975693011	-0.226738
C	 0.0519740194	-2.0091086604	 0.6541335012	 0.503429
N	 0.0968660335	-3.1603587105	 1.3803586964	-0.368472
C	 0.0651668672	-4.2885810831	 0.7568463962	 0.138782
N	 0.1061736498	-5.4531195642	 1.4259114109	-0.487761
N	 0.0757942932	-0.7943079444	 1.1331293482	-0.384703
H	 0.9145152953	 1.8360489093	 0.5048960585	 0.145118
H	-0.0524943853	 1.8611882183	-0.9918900357	 0.143478
H	-0.8458901528	 1.830872301	 0.6035856239	 0.145119
H	 0.0041047192	-4.3879569378	-0.3298393265	 0.146325
H	 0.0840083776	-6.3338140372	 0.9456925961	 0.277415
H	 0.164181541	-5.4413564566	 2.4318268871	 0.279513
27.5665	118.999	141.9845	150.3774	198.951	257.0513	312.03	391.9281	424.6573	521.8454	637.8405	681.4964	689.6812	785.4915	800.0067	931.7284	988.3377	1023.3726	1033.7476	1048.5636	1070.7499	1114.7006	1299.095	1331.2974	1376.1776	1385.5383	1426.8348	1474.5306	1475.5376	1569.5627	1608.5322	1647.535	1719.4276	3050.2343	3105.5873	3110.048	3147.6268	3608.9113	3752.8294
CC1=NOC(N=CN)=N1	Cc1noc(N=CN)n1	
InChI=1S/C4H6N4O/c1-3-7-4(6-2-5)9-8-3/h2H,1H3,(H2,5,6,7,8)	InChI=1S/C4H6N4O/c1-3-7-4(6-2-5)9-8-3/h2H,1H3,(H2,5,6,7,8)
