22
gdb 12779	3.3539	1.4745	1.25549	0.3045	82.07	-0.2405	0.0871	0.3276	1104.107	0.200121	-313.053908	-313.04521	-313.044265	-313.086729	33.402	
C	 0.0351617806	 1.5630008558	 0.0819001581	-0.377942
C	-0.135744705	 0.047956938	-0.0727813643	-0.196088
C	 0.7044257562	-0.5333323356	-1.2073727856	-0.012474
C	 2.2673865874	-0.5875368193	-1.0711010639	-0.248899
C	 2.2208593634	-2.0901401473	-1.3676473172	-0.092084
C	 1.3768448297	-2.7819635486	-0.332415522	-0.327326
C	 0.6904575932	-2.0553334243	-1.4597041359	 0.352785
C	-0.2428004459	-2.7397937213	-2.4179776396	-0.498464
H	 1.0781376004	 1.8252354853	 0.2906734855	 0.117361
H	-0.2596193919	 2.0900312297	-0.8327032258	 0.111354
H	-0.5757846389	 1.9527901542	 0.9021351306	 0.109471
H	 0.1235631131	-0.4462525314	 0.8717732023	 0.09281
H	-1.1934949168	-0.1839794552	-0.2566347966	 0.092092
H	 0.4458405158	-0.0150734731	-2.139208475	 0.062894
H	 2.7804390133	 0.0020986094	-1.8339130595	 0.098098
H	 2.677207484	-0.3160101922	-0.0909267072	 0.089436
H	 2.9264483023	-2.633664343	-1.9856498433	 0.078683
H	 1.343437734	-3.8649877327	-0.4063698873	 0.103997
H	 1.349951677	-2.4128973589	 0.6906018265	 0.100052
H	-1.2680106321	-2.7696065308	-2.0280286988	 0.117211
H	-0.2730461569	-2.2224837454	-3.3844058763	 0.112253
H	 0.0657302771	-3.774289113	-2.6030985446	 0.11478
94.0709	148.9548	161.8573	206.1347	233.8115	272.9524	314.691	389.18	439.6235	491.1948	608.7866	713.0682	772.4566	800.9148	828.2901	872.7974	919.63	953.8202	966.8761	977.9804	999.7468	1025.485	1047.23	1070.6406	1091.6646	1102.122	1133.6098	1160.3394	1185.6038	1236.9179	1248.0398	1264.4417	1289.3637	1305.9441	1340.0328	1378.7476	1405.9536	1412.0038	1423.7626	1483.3584	1485.7303	1487.7317	1498.8289	1499.5479	1506.7123	1508.9071	3013.8198	3015.9639	3020.2059	3028.7029	3031.5696	3050.8736	3071.3941	3090.1905	3094.6701	3100.5672	3101.2338	3103.0641	3171.274	3189.801
CCC1CC2CC12C	CC[C@H]1C[C@H]2C[C@@]12C	
InChI=1S/C8H14/c1-3-6-4-7-5-8(6,7)2/h6-7H,3-5H2,1-2H3	InChI=1S/C8H14/c1-3-6-4-7-5-8(6,7)2/h6-7H,3-5H2,1-2H3/t6-,7-,8-/m0/s1
