13
gdb 131118	3.3065	1.21626	0.98021	4.0698	63.27	-0.2916	-0.039	0.2527	1132.8994	0.089401	-452.735399	-452.727626	-452.726682	-452.768733	27.531	
O	 0.1516816736	 1.485321056	-0.0975843769	-0.396898
C	 0.0236167945	 0.0929663887	-0.0066863966	-0.100189
C	 0.5783100598	-0.5908449599	-1.204092235	 0.261502
N	 1.0010424017	-1.1273189401	-2.1355454178	-0.314031
C	 0.6695825574	-0.4786087018	 1.2373292947	 0.372491
N	 1.3895014605	 0.3214668995	 1.9828638167	-0.201373
O	 1.8678747191	-0.4559776275	 3.0220408328	-0.161692
C	 1.4136719864	-1.7088249328	 2.8664356368	 0.096723
C	 0.6451355181	-1.8042692853	 1.7526552119	-0.339618
H	 0.9764667125	 1.7348296051	 0.3410869355	 0.31311
H	-1.0508406456	-0.1317152707	 0.0159810278	 0.156471
H	 1.7183946223	-2.4148933494	 3.6231072978	 0.168375
H	 0.1485787997	-2.6726857618	 1.3540515024	 0.14513
42.1333	108.5093	195.1072	223.3117	298.6267	330.6582	426.9574	475.6944	602.5165	614.2234	675.1579	792.1862	818.829	882.142	922.2772	928.8337	975.6508	1027.958	1076.6884	1102.0661	1158.3421	1239.5218	1307.8207	1332.7468	1424.6883	1456.0957	1480.3639	1607.8174	2358.2766	3033.2739	3268.2954	3291.9454	3763.7724
OC(C#N)C1=NOC=C1	O[C@@H](C#N)c1nocc1	
InChI=1S/C5H4N2O2/c6-3-5(8)4-1-2-9-7-4/h1-2,5,8H	InChI=1S/C5H4N2O2/c6-3-5(8)4-1-2-9-7-4/h1-2,5,8H/t5-/m0/s1
