17
gdb 98553	3.7074	1.15327	0.96312	3.1007	70.49	-0.264	-0.008	0.256	1234.3758	0.134436	-458.952395	-458.943728	-458.942784	-458.986564	30.946	
C	-0.0245986476	 1.3674732456	-0.1007207654	-0.242613
O	-0.0903480096	-0.0597109972	-0.2195598887	-0.234841
C	-1.2733097707	-0.60714868	 0.128951136	 0.335823
O	-2.22378979	 0.0173550536	 0.5221751922	-0.369917
C	-1.2337145123	-2.0799711474	-0.072008137	 0.329574
C	-0.1177550525	-2.9955862668	-0.5940858408	-0.302718
C	-1.2259417142	-3.9108133981	-1.2266297561	-0.242583
C	-2.2829083208	-2.9486405396	-0.6660982547	-0.025795
O	-2.1017126844	-2.8755616119	 0.7392790164	-0.264694
H	 0.9800171121	 1.6456140805	-0.4187465783	 0.134789
H	-0.7748093686	 1.8416483215	-0.7385750566	 0.142687
H	-0.1990736762	 1.6748113088	 0.9333039179	 0.145912
H	 0.5090926498	-2.5127482532	-1.3444412553	 0.124217
H	 0.5090949185	-3.4393971365	 0.1816428912	 0.116064
H	-1.1884334937	-3.9209072986	-2.3179687629	 0.113143
H	-1.2978601075	-4.9340552991	-0.8519705278	 0.119137
H	-3.2579458725	-2.6776311715	-1.0545850199	 0.121814
48.444	111.7883	129.0626	153.5155	211.1686	309.1276	325.4333	395.6813	446.4633	520.9437	746.1283	760.6685	774.4233	796.9798	887.2015	904.0656	930.2577	942.0765	984.0623	1044.2753	1059.028	1129.0464	1156.2389	1179.2453	1209.7382	1212.1351	1219.8237	1232.7517	1273.5321	1298.7315	1421.3185	1464.3064	1474.4017	1481.2173	1486.709	1497.5544	1826.8859	3053.1441	3072.7292	3083.8153	3127.1351	3128.3209	3147.6431	3161.3194	3192.168
COC(=O)C12CCC1O2	COC(=O)[C@]12CC[C@H]1O2	
InChI=1S/C6H8O3/c1-8-5(7)6-3-2-4(6)9-6/h4H,2-3H2,1H3	InChI=1S/C6H8O3/c1-8-5(7)6-3-2-4(6)9-6/h4H,2-3H2,1H3/t4-,6+/m1/s1
