13
gdb 5667	5.21282	2.18667	1.55532	2.0249	64.33	-0.2112	-0.0152	0.196	752.8581	0.098406	-361.489494	-361.483973	-361.483029	-361.51898	21.73	
C	-0.0843520219	 1.495250132	 0.0110737559	-0.415315
C	 1.4011400148	 1.8708408733	-0.0018506826	-0.088571
C	 2.1968443847	 0.7801342845	-0.0147861692	-0.183625
C	 1.330169512	-0.3980733245	-0.0121678062	 0.242848
C	 0.0409957201	 0.013392479	 0.0024508022	 0.297204
O	-0.7699921224	-1.0725200953	 0.0054022539	-0.195208
C	 0.1233505917	-2.1162946885	-0.0097226603	 0.029545
N	 1.3775073604	-1.7841374774	-0.0191133705	-0.342265
H	-0.5928057645	 1.8908230538	 0.8994074748	 0.143577
H	-0.6103045843	 1.8996087285	-0.8629993725	 0.143549
H	 1.7287562638	 2.9014927582	-0.0000377231	 0.106511
H	 3.277992394	 0.7747560174	-0.0252763637	 0.113384
H	-0.3083767086	-3.1044031408	-0.0106028888	 0.148365
181.8839	277.2777	437.2316	439.8694	621.5603	645.454	681.8826	722.7228	756.382	801.4825	860.0992	915.0874	928.25	943.1004	950.5861	1065.2265	1068.8814	1125.9422	1148.8567	1222.5269	1274.1065	1302.2823	1384.7655	1434.0002	1447.8925	1514.9158	1565.2419	1629.5854	3036.1005	3067.0594	3220.8875	3242.3674	3281.5404
C1C=CC2=C1OC=N2	C1C=Cc2c1ocn2	
InChI=1S/C6H5NO/c1-2-5-6(3-1)8-4-7-5/h1-2,4H,3H2	InChI=1S/C6H5NO/c1-2-5-6(3-1)8-4-7-5/h1-2,4H,3H2
