17
gdb 61189	3.60233	0.84042	0.77383	2.2463	73.02	-0.3167	-0.0069	0.3098	1444.8283	0.134355	-418.033336	-418.023462	-418.022518	-418.068585	34.655	
C	 0.0621210417	 1.5741577767	-0.0903249404	-0.433499
C	 0.0136370741	 0.04449717	-0.0162719417	 0.005195
C	 0.765159253	-0.5048397569	 1.2201259935	-0.354928
C	 2.1723490917	-0.1168295183	 1.2420953918	 0.262204
N	 3.2845413044	 0.1967609291	 1.2432687054	-0.305566
C	-1.437495807	-0.4988801464	 0.0298622119	-0.026951
O	-2.1509841247	-0.0875892792	 1.1813806125	-0.414501
C	-2.1664489439	-0.1522147608	-1.206211519	 0.261124
N	-2.7364606807	 0.150318293	-2.1646798224	-0.311345
H	 1.0963226995	 1.9213522438	-0.1477658981	 0.159803
H	-0.4681221754	 1.941039254	-0.9734934528	 0.149758
H	-0.3857787582	 2.0299362789	 0.7999913518	 0.119855
H	 0.4802855811	-0.3707297137	-0.9171440107	 0.119812
H	 0.2780701016	-0.1450736625	 2.1325211226	 0.16887
H	 0.709460943	-1.5995128906	 1.2434186569	 0.153315
H	-1.4009934483	-1.5928681165	 0.0920195031	 0.142438
H	-2.386696182	 0.8420273395	 1.0843902355	 0.304415
61.2081	82.7302	109.2757	180.6507	216.1783	232.3011	258.4934	310.4798	347.002	363.0133	396.5446	469.8236	529.0445	600.1677	682.241	820.9685	869.3701	894.1292	964.8348	987.7032	1016.29	1103.1483	1116.2142	1136.1889	1241.304	1262.4234	1292.8387	1320.1333	1368.0111	1373.8019	1419.7379	1421.65	1469.1494	1501.3439	1505.8801	2356.3906	2363.2585	3038.2605	3044.8476	3048.3962	3054.2185	3092.7574	3110.5062	3131.1166	3810.8474
CC(CC#N)C(O)C#N	C[C@@H](CC#N)[C@@H](O)C#N	
InChI=1S/C6H8N2O/c1-5(2-3-7)6(9)4-8/h5-6,9H,2H2,1H3	InChI=1S/C6H8N2O/c1-5(2-3-7)6(9)4-8/h5-6,9H,2H2,1H3/t5-,6-/m0/s1
