18
gdb 47481	3.04762	1.42925	1.12602	2.2078	73.26	-0.2613	0.0176	0.2789	1100.4706	0.148951	-439.083383	-439.075666	-439.074722	-439.115692	30.183	
N	-0.0565186705	 1.3139421187	-0.1881523145	-0.501657
C	-0.0140202592	 0.0706976258	 0.0344841913	 0.373501
C	-1.2638688127	-0.7829964033	 0.0483462137	-0.331752
C	-1.1174849858	-1.9622518501	 0.9853688833	 0.414318
C	-1.6285494259	-1.9275066035	 2.4043699709	-0.323019
C	-2.2642177636	-2.8328714583	 1.3623400636	-0.338
O	 0.1054219803	-2.6288611088	 0.7525244338	-0.26322
C	 1.1734672065	-1.7720618442	 0.9984097316	 0.004771
O	 1.1697360604	-0.6076423633	 0.1679637043	-0.253301
H	 0.8907140571	 1.6991604857	-0.1987464433	 0.220385
H	-2.1182347952	-0.1527650557	 0.2975769878	 0.133593
H	-1.4113548257	-1.1635059793	-0.9709636711	 0.137116
H	-1.0199875787	-2.4042712851	 3.1645103477	 0.123389
H	-2.1755560317	-1.0528826749	 2.7389788974	 0.124891
H	-3.2473397227	-2.5800315629	 0.9803690832	 0.121335
H	-2.0619415663	-3.8950181681	 1.4392303442	 0.131293
H	 1.1752774121	-1.4434554928	 2.0493722014	 0.098098
H	 2.0930984515	-2.3078575498	 0.7598706647	 0.128261
90.207	122.981	249.3772	272.8964	335.8648	399.3139	441.6992	478.3773	513.6604	568.2346	694.8726	765.9801	793.8521	821.404	872.1212	921.7754	934.4851	945.6077	981.2527	1010.4571	1027.8335	1053.7064	1079.671	1084.6628	1130.3674	1185.9752	1188.2977	1195.459	1268.3969	1300.8662	1307.0334	1344.6814	1385.4103	1452.7842	1459.0572	1463.4715	1499.0757	1518.1647	1758.6919	2984.0756	3030.6438	3127.1702	3131.0122	3136.5999	3139.8045	3220.9487	3234.0911	3459.368
N=C1CC2(CC2)OCO1	[NH][C]1CC2(CC2)OCO1	
InChI=1S/C6H9NO2/c7-5-3-6(1-2-6)9-4-8-5/h7H,1-4H2	InChI=1S/C6H9NO2/c7-5-3-6(1-2-6)9-4-8-5/h7H,1-4H2
