12
gdb 15486	3.88167	1.88212	1.27768	6.5407	59.15	-0.2635	-0.088	0.1755	865.2604	0.083572	-418.527415	-418.520705	-418.519761	-418.558799	23.58	
O	-0.1418978706	-0.0036192069	 0.0014157484	-0.227739
C	-0.0301988289	 1.1950230217	 0.0083787643	 0.078567
C	 1.2488959104	 1.9323744546	 0.0009183458	 0.072361
C	 1.3821332632	 3.2638361015	 0.0095420885	-0.181677
C	 2.8351167849	 3.6147735664	-0.002327178	-0.126604
O	 3.5196145093	 2.370137017	-0.0185344633	-0.230419
C	 2.6174421243	 1.3236746282	-0.0173553225	 0.405131
O	 2.962492209	 0.1832448683	-0.0293880065	-0.311305
H	-0.9209607357	 1.8633738568	 0.0214950112	 0.079106
H	 0.5882063812	 4.0010426943	 0.0229912002	 0.14507
H	 3.1152471296	 4.2013579124	-0.8873502172	 0.148753
H	 3.1329499432	 4.1880184056	 0.8856518392	 0.148755
86.6433	174.5602	187.9199	269.5792	384.0926	449.1867	499.8883	728.3384	751.1748	765.7985	797.4917	846.421	953.5225	1021.7767	1044.2229	1051.504	1096.3215	1201.2383	1211.8034	1337.2733	1365.7681	1429.6656	1482.8901	1678.1859	1808.3809	1901.0953	2872.1767	3020.7512	3051.392	3214.9716
O=CC1=CCOC1=O	O=CC1=CCOC1=O	
InChI=1S/C5H4O3/c6-3-4-1-2-8-5(4)7/h1,3H,2H2	InChI=1S/C5H4O3/c6-3-4-1-2-8-5(4)7/h1,3H,2H2
