17
gdb 83820	2.22371	1.79282	1.41045	1.4309	69.23	-0.2246	0.0021	0.2267	985.054	0.135511	-458.928703	-458.92066	-458.919716	-458.960852	31.487	
O	 0.0698995338	 1.3739493591	 0.041832971	-0.422976
C	-0.0446050825	-0.0030211935	-0.0493353606	 0.037249
C	-0.5269412019	-0.7656496147	 1.1671762049	-0.032686
O	-0.8636847673	 0.0721586026	 2.2408093681	-0.273265
C	-2.2608510889	 0.1693817282	 2.5232002964	-0.125422
C	-3.0905431192	 0.4389614154	 1.2934134746	-0.0866
C	-2.6735744912	 0.0493348085	 0.0915711255	-0.110194
C	-1.4038255194	-0.7047591106	-0.0585648321	 0.249022
O	-1.4766271747	-1.9135327186	-0.7705078328	-0.458628
H	-0.1498164324	 1.5947424909	 0.9587281474	 0.292097
H	 0.7222889382	-0.4655205565	-0.6657983455	 0.103183
H	-0.0765726701	-1.7152736986	 1.4449844941	 0.107143
H	-2.6087326239	-0.7477542508	 3.0264353744	 0.11712
H	-2.3531519305	 0.9877840308	 3.2439242878	 0.121147
H	-4.0355151437	 0.9552823322	 1.4331340798	 0.102177
H	-3.2537541206	 0.2464146973	-0.8059650254	 0.094335
H	-1.4369659756	-1.7050483615	-1.7109763077	 0.286297
130.5593	150.0002	244.9404	276.1254	304.1057	326.8398	393.1767	417.2579	491.2096	520.4405	562.1705	632.4265	686.5891	747.4412	819.5505	895.5274	905.2467	919.4462	976.5277	990.9833	1028.0368	1045.966	1089.2762	1146.8194	1153.8818	1189.5084	1210.3125	1266.8879	1278.9518	1319.0471	1325.766	1373.4013	1406.821	1416.0491	1448.5851	1493.2149	1713.4573	2974.3238	3075.5859	3135.5815	3145.7807	3157.2373	3182.4599	3725.287	3789.5193
OC1C2OCC=CC12O	O[C@H]1[C@H]2OCC=C[C@@]12O	
InChI=1S/C6H8O3/c7-4-5-6(4,8)2-1-3-9-5/h1-2,4-5,7-8H,3H2	InChI=1S/C6H8O3/c7-4-5-6(4,8)2-1-3-9-5/h1-2,4-5,7-8H,3H2/t4-,5+,6+/m0/s1
