18
gdb 108288	2.85513	1.37259	1.08516	3.7927	72.4	-0.2232	-0.022	0.2012	1139.5093	0.146252	-439.042149	-439.03356	-439.032616	-439.075554	32.02	
C	-0.0675029346	 1.4766786836	 0.1335392272	-0.265327
O	 0.0202454408	 0.0633325663	 0.112992146	-0.288441
C	-1.2071647647	-0.5681787908	-0.0270394117	 0.427869
C	-2.18710094	-0.5989962746	 1.1736010759	-0.229976
N	-2.4616879199	-2.0279434398	 0.8787875944	-0.320695
C	-1.2852822431	-2.130879255	-0.0338978538	-0.222163
C	-1.8124992163	-2.0726482543	-1.4800543322	 0.461511
O	-2.0481951941	-2.8851213451	-2.3231297478	-0.30066
C	-1.877385217	-0.5251189778	-1.4418480622	-0.424754
H	 0.9502523129	 1.8584350851	 0.2362523439	 0.134302
H	-0.5051113686	 1.8712161826	-0.7945495233	 0.114963
H	-0.6685524466	 1.834445797	 0.9819745988	 0.114481
H	-1.6465540542	-0.4274412432	 2.1137385207	 0.103324
H	-3.0726691781	 0.0450691995	 1.1402653958	 0.103657
H	-2.4292788147	-2.6527249299	 1.6737349948	 0.2342
H	-0.4693758399	-2.7986172485	 0.2494492836	 0.090676
H	-2.8770489072	-0.0909792743	-1.5189418124	 0.129754
H	-1.2290108347	-0.0780452207	-2.2020523875	 0.137279
78.4461	106.6346	180.5765	195.4975	224.7648	327.2939	377.9351	390.8694	435.2173	514.5663	593.7762	639.4399	667.7378	767.708	869.9752	908.0542	929.8719	977.1511	1017.4354	1036.9078	1049.4638	1056.0532	1130.6413	1137.1955	1143.9294	1181.6257	1183.9051	1206.1336	1223.6108	1239.7239	1293.1981	1349.2895	1373.2187	1421.2897	1482.9135	1489.1952	1505.6894	1509.6054	1901.1252	2989.608	3011.3992	3041.5361	3060.0184	3066.2201	3098.683	3121.2039	3125.4923	3565.3484
COC12CNC1C(=O)C2	CO[C@]12CN[C@H]1C(=O)C2	
InChI=1S/C6H9NO2/c1-9-6-2-4(8)5(6)7-3-6/h5,7H,2-3H2,1H3	InChI=1S/C6H9NO2/c1-9-6-2-4(8)5(6)7-3-6/h5,7H,2-3H2,1H3/t5-,6+/m0/s1
