17
gdb 25716	2.64092	1.5158	0.97472	4.4153	78.98	-0.2339	-0.0428	0.1911	1176.8818	0.135941	-418.082111	-418.073173	-418.072228	-418.116557	31.832	
C	-0.0836180847	 1.5641332229	-0.0372451737	-0.511293
C	 0.0802854068	 0.0477977195	-0.0263750683	 0.316259
O	 1.1890828483	-0.4572352516	-0.0514092343	-0.321117
C	-1.1396161919	-0.7563559416	 0.014923774	 0.151135
C	-1.3463205773	-2.1319613968	 0.0345214116	 0.218942
C	-0.3297095827	-3.2238644388	 0.0179740166	-0.501251
N	-2.6877040285	-2.4078770185	 0.0737829115	-0.302159
C	-3.2961262628	-1.238193195	 0.0784091003	 0.014815
N	-2.4203358454	-0.21024693	 0.0441367779	-0.323502
H	 0.9052236895	 2.0219780304	-0.0687600571	 0.151108
H	-0.6578510664	 1.893141609	-0.9114424528	 0.133636
H	-0.6096894164	 1.9110298143	 0.8600406878	 0.133635
H	-0.4370167202	-3.8547450427	 0.906992114	 0.135496
H	-0.4838750392	-3.8717511414	-0.8517272272	 0.1355
H	 0.6772420066	-2.8100376426	-0.0129526398	 0.161121
H	-4.3654360561	-1.0861237911	 0.1059088917	 0.139085
H	-2.6504522398	 0.7690008241	 0.0405877079	 0.26859
50.5885	73.7469	145.8845	170.2953	194.5102	282.8725	308.8638	415.7307	485.8924	516.3139	571.4204	634.3884	673.5896	695.5076	721.9644	844.5891	934.8381	954.3198	1000.422	1038.0235	1066.9173	1075.3681	1151.7038	1184.7272	1293.9166	1297.6228	1369.0516	1381.22	1405.4056	1461.598	1475.1219	1478.9396	1481.8607	1491.9861	1508.6717	1588.7751	1756.4596	3027.4238	3040.336	3088.6591	3090.731	3154.0581	3167.5146	3247.1447	3672.1614
CC(=O)C1=C(C)N=CN1	CC(=O)c1c(C)nc[nH]1	
InChI=1S/C6H8N2O/c1-4-6(5(2)9)8-3-7-4/h3H,1-2H3,(H,7,8)	InChI=1S/C6H8N2O/c1-4-6(5(2)9)8-3-7-4/h3H,1-2H3,(H,7,8)
