14
gdb 132951	2.39113	1.76676	1.01603	6.5835	71.42	-0.1855	-0.0074	0.1782	1057.5862	0.101597	-477.989354	-477.981602	-477.980657	-478.021402	29.698	
O	-0.0956221503	 1.3186926609	 0.2031375677	-0.410523
C	-0.0067357068	-0.0262305225	 0.0450126342	 0.295924
C	 1.1737395362	-0.6942862364	-0.0143477401	-0.124839
N	 1.2221849685	-2.0640380595	-0.1760622348	-0.340786
C	 0.0682393493	-2.789562377	-0.2816836031	-0.099732
C	-1.1248229826	-2.1587301266	-0.2269509218	 0.164058
F	-2.2504693289	-2.8800516398	-0.3315479737	-0.087918
C	-1.293735926	-0.7233764533	-0.0594524087	 0.138263
N	-2.412498696	-0.087071977	-0.0028143267	-0.560014
H	 0.7891482414	 1.6947662034	 0.262696631	 0.293689
H	 2.1313644795	-0.1934873432	 0.0612566683	 0.112673
H	 2.1106479986	-2.5291418904	-0.2164335718	 0.268677
H	 0.1530851383	-3.8603624467	-0.4073385203	 0.139431
H	-3.1798170211	-0.7554099219	-0.0950839801	 0.211097
106.214	232.1214	268.8811	306.7808	320.2822	326.2366	364.0852	462.2813	507.5563	523.2788	528.2127	574.6104	704.0643	751.7236	798.8711	846.4417	871.9815	877.1142	972.2699	1084.7072	1192.218	1237.2449	1263.4187	1307.3417	1338.8352	1403.4227	1463.4131	1553.4431	1639.2429	1669.8703	1705.1997	3199.4994	3227.2113	3459.2981	3693.3603	3815.3729
OC1=CNC=C(F)C1=N	OC1=CNCC(=C1[NH])F	
InChI=1S/C5H5FN2O/c6-3-1-8-2-4(9)5(3)7/h1-2,9H,(H2,7,8)	InChI=1S/C5H6FN2O/c6-3-1-8-2-4(9)5(3)7/h2,7-9H,1H2
