21
gdb 120899	4.58542	0.74205	0.71283	2.1329	79.72	-0.2276	0.0772	0.3048	1650.4459	0.18126	-424.188741	-424.179286	-424.178342	-424.223906	35.119	
O	-0.0323767067	 1.3570940028	-0.3737606047	-0.420053
C	-0.0314617963	-0.0369788858	-0.105115965	-0.062964
C	-1.4408789274	-0.6037526272	 0.0846894432	-0.218598
C	-1.4355819066	-2.0896286613	 0.3936667332	 0.143117
C	-2.7823863607	-2.8481249903	 0.3423067522	-0.391729
C	-2.1128375744	-3.6530253717	-0.7647253961	 0.472569
C	-2.0888406764	-5.127274473	-0.9978450268	-0.332875
C	-2.6529017717	-4.1788761585	-2.0512548479	-0.332213
O	-0.9111910921	-2.8815708361	-0.7104917992	-0.323256
H	-0.4431624113	 1.4883445607	-1.2340971804	 0.280507
H	 0.4871417228	-0.602255074	-0.8924675462	 0.109838
H	 0.5468672813	-0.1593374662	 0.8177266199	 0.10858
H	-1.9401816209	-0.0658948888	 0.900654664	 0.105103
H	-2.0301460852	-0.4347112571	-0.8269730425	 0.088915
H	-0.8542633942	-2.2889317336	 1.3044910683	 0.078134
H	-3.0496379593	-3.4054385731	 1.2419661235	 0.111945
H	-3.6319554018	-2.2383223247	 0.024687625	 0.109295
H	-1.1237790831	-5.5783771972	-1.2025237762	 0.124462
H	-2.77645886	-5.7549422045	-0.4396915644	 0.112862
H	-3.7259696532	-4.1571861518	-2.2137981932	 0.113126
H	-2.0545638029	-4.0135600882	-2.9409977366	 0.123236
39.5861	90.2716	107.442	147.4279	270.748	288.5171	297.4943	314.5481	407.0664	427.1658	503.6077	565.3955	755.7709	781.5225	808.6133	842.1138	885.5998	908.98	919.2604	946.2813	978.2964	999.3327	1047.4848	1066.1393	1074.6689	1075.9416	1081.0686	1116.2138	1145.5243	1187.055	1208.3221	1228.249	1245.3701	1269.638	1318.9774	1334.6383	1366.7177	1392.6528	1418.1165	1422.8857	1448.0167	1473.3554	1488.1977	1506.1281	1514.6858	3004.3093	3007.0411	3017.0363	3054.7435	3065.5668	3077.7633	3120.9651	3124.908	3127.8935	3208.5239	3222.891	3817.3856
OCCC1CC2(CC2)O1	OCC[C@H]1CC2(CC2)O1	
InChI=1S/C7H12O2/c8-4-1-6-5-7(9-6)2-3-7/h6,8H,1-5H2	InChI=1S/C7H12O2/c8-4-1-6-5-7(9-6)2-3-7/h6,8H,1-5H2/t6-/m0/s1
