18
gdb 12783	3.72685	1.5119	1.30169	2.1697	67.8	-0.2288	0.0722	0.301	1006.5865	0.152267	-384.894129	-384.885956	-384.885011	-384.926518	30.841	
C	 0.1553042108	 1.5307025875	 0.1036903918	-0.378517
C	-0.1736012714	 0.0454250799	-0.084162866	-0.206198
C	 0.6028186884	-0.5778851484	-1.227700432	 0.096851
O	 2.0563329613	-0.5553649843	-1.0432789917	-0.308462
C	 2.1413149482	-1.9426945261	-1.3727346003	 0.05335
C	 1.4268170068	-2.7766299995	-0.3411373926	-0.366715
C	 0.6476316263	-2.0950254123	-1.4476821717	 0.287095
O	-0.1291244882	-2.7666585937	-2.3698339983	-0.45491
H	 1.2224922326	 1.6624484157	 0.3026157206	 0.13876
H	-0.0921272388	 2.1072825757	-0.7942719781	 0.114963
H	-0.40498352	 1.9569393256	 0.9410224865	 0.110752
H	 0.0356924076	-0.5023872661	 0.8414734688	 0.098248
H	-1.2439017769	-0.0816908547	-0.2960299328	 0.096409
H	 0.3626547074	-0.0786576913	-2.1769564165	 0.085397
H	 2.9572286166	-2.277191734	-2.0015003624	 0.112078
H	 1.5229681677	-3.8483678345	-0.4910247325	 0.116406
H	 1.3836935418	-2.4494618996	 0.6937767664	 0.114883
H	-0.8424228802	-3.2117131703	-1.8995529992	 0.28961
89.735	161.0452	172.9372	238.4215	265.2967	292.2039	371.0588	425.4299	493.2585	514.0628	648.9343	727.6013	776.2657	858.7757	897.2569	907.2491	934.0409	980.4307	996.9943	1014.0714	1049.9202	1078.3563	1096.6581	1125.9025	1159.0848	1210.791	1238.9262	1269.2908	1293.0137	1322.1615	1346.2977	1395.6634	1409.0912	1425.0712	1475.7945	1493.761	1498.5474	1509.0779	3012.0058	3021.4038	3037.7075	3067.362	3105.0374	3114.3306	3120.2707	3192.1928	3208.1344	3796.7576
CCC1OC2CC12O	CC[C@H]1O[C@H]2C[C@@]12O	
InChI=1S/C6H10O2/c1-2-4-6(7)3-5(6)8-4/h4-5,7H,2-3H2,1H3	InChI=1S/C6H10O2/c1-2-4-6(7)3-5(6)8-4/h4-5,7H,2-3H2,1H3/t4-,5+,6-/m1/s1
