20
gdb 63733	2.67513	1.31555	1.19706	2.361	81.24	-0.2289	-0.0196	0.2094	1171.5562	0.16889	-403.140305	-403.130858	-403.129914	-403.174361	35.511	
C	-0.5154124968	 1.5458774639	 0.0312366214	-0.411134
C	-0.0010182354	 0.1097926917	 0.0113693479	 0.199865
C	-1.1003612148	-0.9005473556	-0.3142646134	-0.43954
N	 1.2550788357	-0.0479606773	-0.8203059553	-0.42631
C	 2.0193452025	-0.5109753722	 0.3530656969	 0.247514
C	 3.0374813685	-1.6216465195	 0.4278244928	-0.327382
C	 3.4616282266	-0.1983925628	 0.6622934725	-0.299527
C	 0.8398460182	-0.290592055	 1.2488521275	 0.293878
O	 0.6295143951	-0.3766990614	 2.4254587731	-0.323906
H	 0.3002256935	 2.2472414768	 0.2240287518	 0.125731
H	-0.9628828964	 1.804195838	-0.93437175	 0.117995
H	-1.2739052317	 1.6685698192	 0.8109260785	 0.126451
H	-1.511869629	-0.7064097045	-1.3114653564	 0.122749
H	-0.7210967077	-1.9274735873	-0.291060848	 0.118762
H	-1.9173960288	-0.8262673059	 0.4095769055	 0.137644
H	 1.1439609652	-0.7843837851	-1.5120962003	 0.215103
H	 2.9753318544	-2.2980628909	 1.2739353627	 0.13539
H	 3.3206637089	-2.0870992428	-0.5110802428	 0.123251
H	 4.0186651499	 0.30270972	-0.1216702071	 0.129764
H	 3.692769262	 0.1143670507	 1.6751114728	 0.133701
55.4268	156.4102	185.9092	201.097	206.0407	222.2237	280.8084	317.2151	321.2476	427.7723	509.6442	562.0677	711.6747	719.9483	759.6641	774.733	795.1907	870.5929	913.5572	944.5453	949.2578	979.9235	997.7637	1017.2415	1026.256	1057.5279	1070.6496	1173.0436	1189.829	1194.9226	1257.9638	1279.6949	1337.9025	1374.038	1393.7211	1413.7502	1450.1411	1477.3074	1481.1213	1483.0915	1498.6606	1503.0915	1891.8253	3027.196	3036.003	3095.8848	3105.7017	3111.6275	3122.4699	3126.251	3133.3329	3212.2129	3230.8694	3498.0208
CC1(C)NC2(CC2)C1=O	CC1(C)NC2(CC2)C1=O	
InChI=1S/C7H11NO/c1-6(2)5(9)7(8-6)3-4-7/h8H,3-4H2,1-2H3	InChI=1S/C7H11NO/c1-6(2)5(9)7(8-6)3-4-7/h8H,3-4H2,1-2H3
