18
gdb 15889	2.69331	1.81578	1.2408	3.2724	68.61	-0.2375	-0.0177	0.2199	1015.617	0.151896	-384.948802	-384.940115	-384.939171	-384.982263	31.616	
C	 0.0038504809	 1.6716828202	 0.1861700953	-0.391028
C	-0.2566236957	 0.1612828588	 0.2091909177	-0.191213
C	 0.7114906935	-0.5770774331	 1.1293338186	-0.087636
C	 0.6826044765	-2.136041357	 1.2288244368	 0.074627
O	 0.0858562465	-2.6630790643	 0.0617393996	-0.425249
C	 2.2431257446	-2.1735270391	 1.1927732991	-0.366936
C	 2.1946082346	-0.7042733918	 0.7339246021	 0.393695
O	 2.9765842419	 0.0220983212	 0.1919898581	-0.296975
H	 1.0268174487	 1.8833269142	-0.1361589981	 0.145976
H	-0.6842440073	 2.1755457847	-0.4994260021	 0.110706
H	-0.1329475097	 2.1136738406	 1.1798619455	 0.107495
H	-1.2828586955	-0.0426301748	 0.5378999412	 0.100677
H	-0.1707943993	-0.2526673495	-0.7996328909	 0.118633
H	 0.671329417	-0.1556959364	 2.1436569373	 0.099273
H	 0.2178875915	-2.5412451407	 2.135391498	 0.069403
H	 0.2261228814	-3.6151034111	 0.0553355428	 0.288149
H	 2.7046917938	-2.27444282	 2.1807417034	 0.126815
H	 2.7037803768	-2.8864478619	 0.5041197458	 0.12359
64.0094	95.7508	151.9854	194.9363	260.4375	290.0049	316.2615	395.952	428.0302	510.8508	541.0038	712.631	732.7642	787.567	845.0593	888.6875	939.8948	967.8928	1014.8233	1046.5953	1054.2672	1114.6028	1137.8286	1170.8397	1195.8823	1212.3225	1249.155	1269.6489	1311.4305	1340.3315	1367.9126	1410.4585	1413.7987	1430.0446	1490.6756	1499.5912	1512.9132	1887.3089	3015.6161	3030.9306	3033.5061	3036.9968	3055.9553	3083.2898	3103.0316	3117.0142	3124.3914	3819.9044
CCC1C(O)CC1=O	CC[C@H]1[C@@H](O)CC1=O	
InChI=1S/C6H10O2/c1-2-4-5(7)3-6(4)8/h4-5,7H,2-3H2,1H3	InChI=1S/C6H10O2/c1-2-4-5(7)3-6(4)8/h4-5,7H,2-3H2,1H3/t4-,5-/m0/s1
