19
gdb 41349	2.97715	1.86937	1.53652	1.7124	73.47	-0.2364	0.0676	0.3039	918.4796	0.162559	-422.995969	-422.989467	-422.988522	-423.026463	27.674	
C	 0.0103937768	 1.4768098553	-0.0606461186	-0.198758
O	 1.4604267369	 1.4588008683	 0.1327083011	-0.310302
C	 1.3613677867	 0.119458567	 0.7084231555	 0.116595
C	 2.2053911422	-1.0913810483	 0.2565204169	-0.278907
C	 1.0887731643	-1.917135853	-0.455254573	-0.05582
C	-0.0921290444	-2.2007762702	 0.5300545988	-0.094116
O	-0.8431231532	-0.9525831336	 0.628895181	-0.338005
C	 0.030917479	-0.0502715635	-0.0165130589	 0.406929
C	 0.4332214603	-0.8064759907	-1.2930730777	-0.263781
H	-0.5002349544	 1.9423837167	 0.7918059734	 0.110992
H	-0.2758996534	 1.9713154622	-0.9929875735	 0.110575
H	 1.270882875	 0.1960700655	 1.7986232936	 0.078784
H	 2.9947355542	-0.8165777859	-0.4493423821	 0.116633
H	 2.665493445	-1.6119434677	 1.1011550185	 0.099896
H	 1.4363127522	-2.81412398	-0.9696774466	 0.071287
H	-0.7654516488	-2.97298133	 0.1447977879	 0.110834
H	 0.2537634068	-2.5015350707	 1.5268510678	 0.102454
H	 1.1360273432	-0.2669001775	-1.9297736459	 0.112881
H	-0.4425600584	-1.118797994	-1.8666571484	 0.101828
188.8957	280.799	315.4114	385.923	395.992	493.5016	526.0678	618.8228	710.3602	755.1216	817.3456	828.9734	846.9265	915.1365	930.0017	936.1265	941.7157	952.2987	975.3847	998.0203	1056.8925	1065.7496	1101.9314	1131.7935	1139.089	1165.5126	1180.0439	1195.8931	1228.4055	1240.0629	1266.2107	1295.8185	1317.1005	1321.3201	1347.0435	1374.4064	1379.2341	1476.5355	1495.6912	1513.8749	1518.7758	3022.3851	3023.5212	3031.8661	3057.2508	3073.5764	3075.4882	3094.242	3106.4339	3109.8635	3136.3587
C1OC2CC3COC12C3	C1O[C@@H]2C[C@H]3CO[C@@]12C3	
InChI=1S/C7H10O2/c1-5-2-7(9-3-5)4-8-6(1)7/h5-6H,1-4H2	InChI=1S/C7H10O2/c1-5-2-7(9-3-5)4-8-6(1)7/h5-6H,1-4H2/t5-,6-,7+/m1/s1
