15
gdb 5785	6.00272	1.48876	1.26008	1.4343	67.46	-0.2028	0.0236	0.2264	934.6942	0.120372	-362.648926	-362.64232	-362.641376	-362.68011	25.02	
C	-0.1810917168	 1.2952094165	-0.3338281611	-0.225499
C	 1.2390479839	 1.0201347816	 0.025298474	-0.228048
N	 0.2412441565	-0.0391747142	 0.0913447001	-0.149511
C	-0.1638966253	-0.5098615883	 1.3497678673	 0.241212
C	 0.6050471069	-0.7561323713	 2.4496042344	-0.089621
O	-0.1566532781	-1.2965349809	 3.44651601	-0.145925
C	-1.4231238114	-1.3842344112	 2.9722644217	 0.014526
C	-1.4965670201	-0.9240669119	 1.6976923246	-0.275427
H	-0.7639975409	 1.8869401765	 0.3680775197	 0.121946
H	-0.4797608269	 1.3796623085	-1.3743259857	 0.121285
H	 1.9920824484	 0.9084757165	-0.7489434136	 0.121807
H	 1.5978689282	 1.4340349623	 0.9652743224	 0.118667
H	 1.6536770835	-0.6394546458	 2.6620231192	 0.129434
H	-2.152069101	-1.7903439102	 3.654270919	 0.134226
H	-2.3717862971	-0.880572728	 1.069039148	 0.11093
68.3194	170.2097	201.6255	386.2804	481.9722	561.7164	612.7922	664.9133	715.0772	772.5842	819.3756	827.7248	882.2234	892.9512	914.9796	995.7135	1037.7993	1055.7142	1090.3104	1115.251	1130.366	1172.6249	1176.0882	1212.3477	1228.728	1260.8414	1369.098	1405.7057	1488.0169	1514.8816	1542.1139	1638.4407	3104.1358	3108.6549	3188.9988	3203.1464	3256.7926	3281.281	3287.5235
C1CN1C1=COC=C1	C1CN1c1cocc1	
InChI=1S/C6H7NO/c1-4-8-5-6(1)7-2-3-7/h1,4-5H,2-3H2	InChI=1S/C6H7NO/c1-4-8-5-6(1)7-2-3-7/h1,4-5H,2-3H2
