19
gdb 120470	3.08608	0.89441	0.78655	1.0661	74.08	-0.2561	-0.0341	0.222	1522.6393	0.155926	-460.14853	-460.138609	-460.137665	-460.184407	34.362	
C	-0.2341340392	 1.307261234	-0.147492798	-0.229059
O	 0.0125129885	-0.0771453892	-0.0599008925	-0.231389
C	 0.6266260604	-0.5966365422	-1.2141099468	-0.06535
C	 0.8008912594	-2.0920607416	-1.0435241613	-0.000782
O	-0.3815561472	-2.8861557822	-1.298889872	-0.30869
C	 0.2569043829	-3.7167212144	-2.3033344525	 0.036986
C	-0.4594109874	-3.7316602185	-3.6413589375	-0.402543
C	 1.5177931023	-2.8508184905	-2.1702727243	 0.308926
O	 2.5653503181	-2.7591312505	-2.7342926873	-0.279746
H	 0.6967061911	 1.8797849152	-0.2860586698	 0.106159
H	-0.9132452746	 1.5484831325	-0.980061082	 0.108288
H	-0.7021971059	 1.6137086427	 0.790669574	 0.132109
H	 0.0205834823	-0.3942393411	-2.1121927665	 0.095432
H	 1.6231907702	-0.1476769315	-1.3718840714	 0.104626
H	 1.2171910998	-2.2945338491	-0.0464898555	 0.117058
H	 0.4099914865	-4.7399859659	-1.9298709327	 0.107106
H	-0.5832568026	-2.7178621497	-4.0318614736	 0.126891
H	 0.1158938937	-4.3189254161	-4.3635696282	 0.136212
H	-1.4489481883	-4.1849096419	-3.5337095421	 0.137769
52.2118	88.9894	93.6322	122.9547	196.5558	201.9414	234.1476	269.1553	342.5436	387.6006	436.7005	538.3165	619.954	696.2966	844.1355	874.9427	886.8161	977.6445	1019.3699	1048.511	1063.7325	1095.6699	1119.601	1137.2793	1165.9409	1184.6406	1217.5652	1240.6237	1261.2361	1277.3261	1324.3382	1366.7629	1399.3363	1420.2002	1476.16	1481.7896	1486.4132	1494.3111	1496.004	1519.0354	1916.4134	2952.8351	2973.8837	2992.2028	3001.1889	3018.4336	3020.3336	3043.5307	3119.7379	3121.1917	3123.4945
COCC1OC(C)C1=O	COC[C@H]1O[C@@H](C)C1=O	
InChI=1S/C6H10O3/c1-4-6(7)5(9-4)3-8-2/h4-5H,3H2,1-2H3	InChI=1S/C6H10O3/c1-4-6(7)5(9-4)3-8-2/h4-5H,3H2,1-2H3/t4-,5+/m0/s1
