23
gdb 111050	2.14619	1.37581	1.00115	1.2807	86.56	-0.2618	0.0732	0.335	1305.9043	0.205734	-388.240249	-388.230766	-388.229822	-388.274808	36.111	
C	-0.2759007458	 1.6707305042	-0.0907968622	-0.383038
C	-0.2556043447	 0.1382960047	-0.1158433718	-0.306013
C	-1.6297434757	-0.4829803464	-0.0631063228	 0.367466
C	-2.6864742412	-0.3840967357	 1.0867984087	-0.26099
C	-3.3390111637	-1.2863614832	 0.0017408673	-0.080201
C	-2.8288170967	-0.2540667191	-1.0435775872	-0.272148
C	-1.9653659246	-2.0159219993	-0.0939747	 0.025652
C	-1.5926703136	-2.8814023494	-1.2808493585	-0.146105
O	-0.1778069466	-3.0553236544	-1.2411051751	-0.418387
H	 0.7389611651	 2.0788043501	-0.1233602122	 0.110016
H	-0.8247876683	 2.0751547496	-0.9481438653	 0.114909
H	-0.7575577242	 2.0479285558	 0.8177924814	 0.114878
H	 0.2563029696	-0.2194065523	-1.0169250863	 0.107861
H	 0.3317595528	-0.2392562729	 0.7313774106	 0.097773
H	-2.4237529202	-0.8641444597	 2.0344110965	 0.084891
H	-3.1493353324	 0.5937222073	 1.2458677612	 0.085014
H	-4.3269711791	-1.7479399545	 0.0433617019	 0.065131
H	-3.297106293	 0.7337333691	-1.0075558487	 0.086894
H	-2.7123981153	-0.5835149583	-2.077705275	 0.087302
H	-1.6717728327	-2.5398008836	 0.8236918791	 0.064188
H	-2.1101653174	-3.8512108401	-1.1963964804	 0.084064
H	-1.9036718407	-2.4320117672	-2.233839885	 0.085151
H	 0.0734707283	-3.636075365	-1.9652971461	 0.285692
70.1439	77.738	124.4591	191.9952	215.8106	260.1897	319.7538	331.8944	370.9512	461.4687	559.3845	583.5516	624.4849	751.0906	789.2727	817.0332	842.6146	921.7637	928.9011	946.6652	988.708	996.4316	1018.945	1046.8728	1059.5357	1068.2586	1092.5932	1114.3633	1135.8614	1145.3384	1169.1483	1186.4805	1211.775	1223.0084	1235.022	1254.4779	1267.2192	1302.4199	1311.082	1373.6825	1405.8645	1409.5931	1464.8492	1479.1816	1498.7262	1500.2505	1506.2739	1519.2543	1547.8458	2966.6431	3011.8388	3023.7578	3031.2751	3038.0433	3044.3158	3056.1829	3060.1267	3096.9109	3099.0934	3102.6541	3109.2083	3117.8616	3826.7262
CCC12CC(C1)C2CO	CC[C@@]12C[C@@H](C1)[C@H]2CO	
InChI=1S/C8H14O/c1-2-8-3-6(4-8)7(8)5-9/h6-7,9H,2-5H2,1H3	InChI=1S/C8H14O/c1-2-8-3-6(4-8)7(8)5-9/h6-7,9H,2-5H2,1H3/t6-,7-,8+/m1/s1
