17
gdb 94146	1.95159	1.52053	1.29221	1.4591	80.78	-0.25	0.0236	0.2736	1104.1497	0.133047	-384.605791	-384.596632	-384.595688	-384.639253	35.059	
O	 0.4713950952	 0.8380113053	-0.721563487	-0.419928
C	 0.122783152	-0.1983030192	 0.1313285011	 0.136415
C	-0.0772546765	 0.0470053863	 1.6478735326	-0.270033
C	-1.2334123164	-0.9811926173	 1.6308253532	-0.254192
C	-1.3618204001	-0.7972859897	 0.0694945998	-0.087693
C	-2.2965260452	 0.2660656575	-0.2778228134	 0.278812
C	-3.00026433	 1.201276388	-0.5574388136	-0.448534
C	-1.5610554537	-1.9920476283	-0.7320122669	 0.214967
C	-1.6824847765	-3.0014689623	-1.3732968673	-0.40651
H	-0.2501356202	 1.4813150627	-0.7129034044	 0.284372
H	 0.8253070121	-1.0147588799	-0.0517326641	 0.109931
H	 0.7739946691	-0.1466151948	 2.3023768935	 0.108877
H	-0.4440043493	 1.0611569092	 1.8293482243	 0.111759
H	-0.8984676381	-1.995150633	 1.8559154791	 0.122691
H	-2.1304038405	-0.7562085813	 2.2070390479	 0.121076
H	-3.6614768129	 1.9941349896	-0.8080219413	 0.203835
H	-1.8013351889	-3.8856615328	-1.9491858033	 0.194157
110.87	124.5602	144.3254	150.9529	235.4031	321.974	407.1377	417.0823	460.3184	492.0696	530.4948	568.5343	617.7643	626.7319	632.8051	643.2876	656.5454	685.3996	795.8151	894.7431	907.8896	956.3463	982.9306	1085.701	1115.13	1159.7782	1170.1104	1211.5985	1243.3362	1256.2969	1298.6011	1344.2085	1439.6976	1480.1715	1494.4741	2224.6555	2236.3364	3067.3033	3086.1266	3091.2342	3126.7058	3151.1452	3498.2501	3502.682	3753.3754
OC1CCC1(C#C)C#C	O[C@H]1CCC1(C#C)C#C	
InChI=1S/C8H8O/c1-3-8(4-2)6-5-7(8)9/h1-2,7,9H,5-6H2	InChI=1S/C8H8O/c1-3-8(4-2)6-5-7(8)9/h1-2,7,9H,5-6H2/t7-/m0/s1
