20
gdb 85434	2.46096	1.53269	1.16679	3.0861	80.52	-0.2437	0.0311	0.2748	1135.4491	0.171329	-403.164951	-403.156504	-403.15556	-403.197881	33.058	
C	 0.5407378385	 1.5349816206	-0.2182288642	-0.394474
C	-0.0525422949	 0.1518410419	 0.077401544	-0.088501
C	 0.3094691503	-0.8818601525	-1.0077509516	-0.309827
C	 1.6123984	-1.46952867	-0.5084140318	 0.403832
N	 2.4642590669	-2.0934522685	-1.1993444701	-0.546025
O	 1.7340795749	-1.2121646779	 0.8320478007	-0.272291
C	 0.5816882278	-0.5105309711	 1.2958038802	 0.456696
C	 0.6713577937	 0.0646116042	 2.6670523956	-0.338816
C	-0.1932549962	-1.1599248148	 2.4057422054	-0.335358
H	 1.6263522083	 1.4781168134	-0.349631214	 0.133378
H	 0.1121477805	 1.9502562058	-1.1356922171	 0.117676
H	 0.3387539183	 2.236365443	 0.5967512844	 0.117316
H	-1.1346650265	 0.2365398169	 0.2085630928	 0.081087
H	-0.4386868053	-1.6808127	-1.0579186876	 0.130168
H	 0.4225477792	-0.4666323699	-2.0099069495	 0.131212
H	 3.2446252662	-2.3987388537	-0.6148022821	 0.21973
H	 1.5998867487	-0.0858977383	 3.2057647931	 0.130921
H	 0.1831114622	 1.0138732795	 2.8600921997	 0.119706
H	-1.2721897588	-1.0460103344	 2.4218263887	 0.116411
H	 0.1736553463	-2.1124509341	 2.7708088835	 0.127158
97.6337	104.0713	206.1676	233.4611	265.2053	321.0792	360.5548	471.8832	501.5254	523.9305	553.4898	666.4456	758.1066	769.1805	851.4828	868.7358	894.6749	899.8206	930.5782	949.1634	966.1244	981.0716	1035.6055	1051.6474	1079.0909	1096.4493	1097.3193	1107.1026	1186.625	1197.9273	1239.5497	1245.1754	1304.5366	1338.0544	1354.4925	1391.2973	1412.3038	1451.8404	1468.8083	1494.5082	1497.6402	1504.521	1781.0065	3036.8206	3052.1348	3070.7903	3108.0394	3110.6742	3128.5058	3132.5091	3136.736	3218.0245	3231.614	3468.8875
CC1CC(=N)OC11CC1	C[C@H]1C[C]([NH])OC21CC2	
InChI=1S/C7H11NO/c1-5-4-6(8)9-7(5)2-3-7/h5,8H,2-4H2,1H3	InChI=1S/C7H11NO/c1-5-4-6(8)9-7(5)2-3-7/h5,8H,2-4H2,1H3/t5-/m0/s1
