19
gdb 113912	2.81308	0.96659	0.835	3.524	72.65	-0.2405	0.0521	0.2926	1420.1686	0.159159	-456.358775	-456.348896	-456.347952	-456.394313	35.854	
N	-0.1332449737	 1.2551365137	 0.0449094733	-0.564463
C	-0.4166618256	-0.0394197529	-0.3786911676	 0.443931
O	-0.1028083473	-0.4578720171	-1.4757134547	-0.384361
N	-1.0705021046	-0.8038485895	 0.5718202783	-0.345905
C	-1.1794325467	-2.2240642958	 0.3941417611	 0.023334
C	-2.3843854805	-2.913671933	 0.9815776749	-0.325677
C	-2.2369118302	-2.797124498	-0.5150159865	 0.041933
C	-3.1592713679	-1.9148496572	-1.3109488908	-0.105528
O	-4.3600692949	-2.6426723345	-1.5518930612	-0.426627
H	 0.1260727626	 1.8597404244	-0.7199509503	 0.260202
H	-0.7664164321	 1.6816646103	 0.7050547277	 0.246329
H	-1.0043080568	-0.4878292607	 1.5282784062	 0.239498
H	-0.2347658598	-2.7638138588	 0.4140414201	 0.099504
H	-2.2474035792	-3.8786250006	 1.4556027704	 0.115591
H	-3.1319197257	-2.281268956	 1.4494086603	 0.114457
H	-1.9412556864	-3.6998407692	-1.040711987	 0.095819
H	-3.3611618698	-0.988847359	-0.7529065435	 0.079583
H	-2.6652695528	-1.6327001561	-2.2512526584	 0.109579
H	-4.885000469	-2.1410276098	-2.1823987022	 0.282798
52.6993	75.6443	93.2449	153.7985	198.8157	248.9164	287.5509	346.6529	393.0905	436.0014	452.4627	509.1306	554.0511	589.8175	693.8262	782.8626	802.2616	848.3982	874.8983	922.4624	991.3919	1030.6097	1064.8294	1069.1286	1081.7972	1109.361	1135.6458	1175.1778	1190.9265	1250.1101	1264.2002	1287.9871	1321.2707	1381.7634	1417.6957	1470.8372	1487.7399	1518.7513	1527.362	1626.8466	1807.3568	2990.6148	3026.6984	3116.1464	3135.4552	3160.2884	3223.1479	3571.6082	3596.8784	3685.9902	3828.3275
NC(=O)NC1CC1CO	NC(=O)N[C@H]1C[C@H]1CO	
InChI=1S/C5H10N2O2/c6-5(9)7-4-1-3(4)2-8/h3-4,8H,1-2H2,(H3,6,7,9)	InChI=1S/C5H10N2O2/c6-5(9)7-4-1-3(4)2-8/h3-4,8H,1-2H2,(H3,6,7,9)/t3-,4-/m0/s1
