19
gdb 58016	4.05224	0.74229	0.65331	4.7822	76.3	-0.2392	-0.0242	0.215	1694.9118	0.156548	-456.381601	-456.370747	-456.369803	-456.419083	36.286	
C	 0.3467244628	 1.4104300672	-0.0561126632	-0.343175
N	 0.150477183	-0.0283587328	-0.0047398367	-0.130369
C	 0.0588252877	-0.6468807673	 1.3029690388	-0.353787
C	-0.0435910387	-0.7091968473	-1.1849053922	 0.520891
O	 0.0918961034	-0.1926758712	-2.2844301892	-0.42096
N	-0.3761380488	-2.0522904196	-1.0482019998	-0.394192
C	-0.699002019	-2.8310224035	-2.2245305013	-0.241704
C	 0.1701060318	-4.0714972637	-2.3380946755	 0.156552
O	-0.2004106163	-5.1213782111	-2.7928463481	-0.237915
H	 1.2734222202	 1.6923823824	 0.4582442263	 0.120512
H	 0.4116885511	 1.706395085	-1.1014902751	 0.174085
H	-0.4869231854	 1.9435941456	 0.4199977023	 0.118138
H	-0.976391157	-0.7453961491	 1.6649295855	 0.122964
H	 0.5302905377	-1.6341195552	 1.3044361754	 0.138685
H	 0.6003994794	-0.0294063712	 2.0240831771	 0.139444
H	-0.766946776	-2.3660001828	-0.1764645969	 0.247922
H	-1.7536700343	-3.1254578031	-2.2680779759	 0.12446
H	-0.4900140815	-2.1857153924	-3.0874981349	 0.179098
H	 1.20818976	-3.9216572398	-1.9610611865	 0.07935
44.5543	63.1505	79.6759	107.914	121.6768	147.6323	187.5419	252.8249	307.6661	345.3585	400.6824	423.3021	471.7639	588.1853	616.1093	758.1414	763.3545	864.862	998.9109	1058.9155	1087.8222	1104.8917	1129.7584	1132.8838	1170.8239	1215.051	1255.9008	1298.7129	1328.6735	1390.83	1410.8011	1433.7721	1450.0433	1472.0928	1496.4962	1501.2899	1506.5985	1522.1243	1546.0004	1761.3971	1839.1136	2873.1394	2983.809	3009.9152	3032.6742	3058.1543	3073.3611	3084.3005	3114.8401	3172.4792	3656.7855
CN(C)C(=O)NCC=O	CN(C)C(=O)NCC=O	
InChI=1S/C5H10N2O2/c1-7(2)5(9)6-3-4-8/h4H,3H2,1-2H3,(H,6,9)	InChI=1S/C5H10N2O2/c1-7(2)5(9)6-3-4-8/h4H,3H2,1-2H3,(H,6,9)
