16
gdb 50921	2.45852	1.1692	0.90872	2.2407	72.37	-0.2589	0.0157	0.2746	1279.5521	0.122103	-437.842561	-437.833335	-437.832391	-437.877936	32.408	
O	-0.2598387621	 0.3574632414	-0.6431917325	-0.321721
C	-0.0241332101	 1.3914727867	-0.0554218952	 0.16001
N	 1.2109418139	 1.794605262	 0.3493969754	-0.268321
C	 2.4138472288	 1.0060388056	 0.0936038184	-0.193038
C	 3.3822213281	 1.7648292515	-0.6990568476	 0.321205
C	 4.1698106257	 2.3942864046	-1.3520342194	-0.435387
C	 2.9763579037	 0.5015423444	 1.418973636	 0.083822
C	 4.4071529686	 0.4200196861	 1.7223965055	-0.187699
O	 3.5977310648	 1.4775864724	 2.2510714076	-0.239249
H	-0.8057092208	 2.1249563385	 0.2204208816	 0.086676
H	 1.3186701016	 2.6704804813	 0.8370171765	 0.265302
H	 2.0643304957	 0.1403195124	-0.4818091494	 0.156755
H	 4.8619831174	 2.9479911813	-1.9375682578	 0.205922
H	 2.2880010644	-0.164574442	 1.9400064049	 0.112775
H	 4.7531061597	-0.3102589854	 2.4518202781	 0.120885
H	 5.1307970807	 0.7255250492	 0.9710194382	 0.132065
34.9591	61.002	134.7588	157.3625	189.9937	242.4813	313.9853	351.4031	467.6138	541.3079	546.2233	634.9248	657.892	663.4139	723.2563	821.088	903.8999	941.1789	970.5083	1031.0724	1039.3844	1102.0034	1112.3135	1168.38	1171.7284	1196.5357	1290.063	1314.8265	1341.5823	1423.6737	1425.0299	1511.0115	1522.7219	1800.0112	2241.2373	2952.9181	3056.2614	3096.8785	3112.7246	3193.3218	3499.8932	3636.0086
O=CNC(C#C)C1CO1	O=CN[C@@H](C#C)[C@H]1CO1	
InChI=1S/C6H7NO2/c1-2-5(7-4-8)6-3-9-6/h1,4-6H,3H2,(H,7,8)	InChI=1S/C6H7NO2/c1-2-5(7-4-8)6-3-9-6/h1,4-6H,3H2,(H,7,8)/t5-,6+/m0/s1
