13
gdb 16781	3.70239	2.15356	1.47981	1.4615	61.06	-0.2555	-0.0251	0.2304	795.8323	0.098335	-394.79932	-394.793158	-394.792214	-394.829611	23.816	
N	-0.1259966641	 1.2991166508	-0.0516611469	-0.538962
C	-0.0302395532	 0.037276271	 0.0125776476	 0.441904
N	 1.1045979947	-0.7760548594	 0.1079040277	-0.380872
C	 0.8646501456	-2.1427527311	-0.0269994242	 0.465171
O	 1.7062618444	-3.0008177129	-0.1003549452	-0.35538
C	-0.639786853	-2.2816549091	-0.0855350577	-0.181939
N	-1.2569988264	-1.7642431594	 1.1615779208	-0.325704
C	-1.1953680037	-0.9053018926	-0.0448136446	-0.102211
H	 0.786341946	 1.756737472	-0.0070726021	 0.216484
H	 2.0408280347	-0.4221460901	 0.2354845379	 0.263255
H	-1.0779815679	-3.1134356302	-0.6209610551	 0.124744
H	-2.1988241011	-2.147135782	 1.2311264451	 0.248227
H	-2.1007441059	-0.594492577	-0.5482676832	 0.125283
139.9094	212.5397	332.5519	378.6424	490.9732	563.0448	607.3098	628.3553	724.4355	763.8504	855.3917	861.7995	873.0286	887.8868	900.0589	934.6344	1035.9972	1100.6326	1125.4107	1143.1866	1218.1266	1256.7486	1351.8087	1359.0183	1379.8887	1400.0269	1771.8958	1860.9328	3209.9853	3219.4596	3459.4537	3485.4287	3631.814
N=C1NC(=O)C2NC12	[NH][C]1NC(=O)[C@H]2N[C@@H]12	
InChI=1S/C4H5N3O/c5-3-1-2(6-1)4(8)7-3/h1-2,6H,(H2,5,7,8)	InChI=1S/C4H5N3O/c5-3-1-2(6-1)4(8)7-3/h1-2,6H,(H2,5,7,8)/t1-,2+/m1/s1
