14
gdb 11206	3.58282	1.8079	1.43294	4.5172	59.45	-0.2394	-0.0469	0.1926	860.991	0.108115	-415.881901	-415.8748	-415.873856	-415.913798	25.479	
N	-0.215465922	 1.1479293778	 0.3469631454	-0.580258
C	-0.0704063576	-0.0616689361	 0.0221277869	 0.465022
N	-1.0227005553	-0.8373704077	-0.6360692109	-0.323264
C	-0.6739828002	-2.2329480796	-0.5168722004	-0.097183
C	 0.8544053212	-2.1295190064	-0.311981057	-0.107239
O	 1.0475055527	-0.8293619017	 0.2409253933	-0.240146
C	-1.3889335482	-2.9493597421	 0.626120459	 0.154768
O	-2.2627304788	-2.4497360771	 1.2822001133	-0.230235
H	 0.6282440357	 1.5028901097	 0.7905287002	 0.227355
H	-1.9773094708	-0.5831172006	-0.4224784546	 0.269441
H	-0.8948371684	-2.8020817196	-1.4314754131	 0.116544
H	 1.2532801449	-2.8752410341	 0.3816345315	 0.127868
H	 1.3866871849	-2.2079090684	-1.2658570357	 0.13023
H	-1.0547664181	-3.9992879541	 0.7936751921	 0.087096
78.9301	119.6427	167.3207	262.8309	333.4059	464.7393	536.9221	672.626	718.1241	724.9909	745.0909	798.6687	857.6517	915.4248	937.5767	996.7226	1031.8581	1101.1787	1117.2846	1164.7549	1229.9568	1252.8795	1308.4395	1355.5944	1395.2829	1416.1358	1434.611	1520.719	1797.5122	1839.7111	2870.8433	3005.8815	3045.0026	3094.4409	3533.4097	3610.734
N=C1NC(CO1)C=O	[NH][C]1N[C@@H](CO1)C=O	
InChI=1S/C4H6N2O2/c5-4-6-3(1-7)2-8-4/h1,3H,2H2,(H2,5,6)	InChI=1S/C4H6N2O2/c5-4-6-3(1-7)2-8-4/h1,3H,2H2,(H2,5,6)/t3-/m1/s1
