16
gdb 55323	1.93311	1.75701	1.14394	3.8257	68.85	-0.2544	-0.0362	0.2182	1093.0587	0.122334	-437.888936	-437.879862	-437.878918	-437.924005	31.163	
C	-0.0668959329	 1.5056766218	-0.3733208075	-0.495686
C	 0.0431294703	 0.0491018549	 0.0225754249	 0.363366
O	 1.0811642042	-0.4909687327	 0.3101264644	-0.276197
C	-1.2781826752	-0.7373582841	 0.0616180992	 0.017207
O	-1.0844278616	-2.1484505173	 0.1580858456	-0.255063
C	-1.4560793326	-2.1698019166	 1.5468566521	-0.080547
C	-2.0075575757	-0.7209260511	 1.4514217251	-0.212394
C	-1.6200360013	 0.2526019778	 2.4549723145	 0.288345
N	-1.3134839189	 1.0361103848	 3.2479974584	-0.325377
H	 0.9165662155	 1.9737363613	-0.3260964755	 0.155932
H	-0.4717205845	 1.5948553434	-1.3879787585	 0.142578
H	-0.7540397564	 2.0328224814	 0.2984783857	 0.158347
H	-1.9147432127	-0.4624428449	-0.7876442831	 0.106305
H	-2.1920230286	-2.9465494864	 1.7714011153	 0.127035
H	-0.5854418948	-2.2677414877	 2.2031132052	 0.141653
H	-3.0921745347	-0.7015459147	 1.3284049141	 0.144496
50.2339	79.4486	94.5134	104.8668	209.9119	236.7842	299.5976	369.4142	506.2704	530.2191	586.8036	611.9053	700.4748	798.8331	889.6592	936.4532	975.9329	1001.0389	1003.1739	1069.3185	1076.3058	1110.5408	1161.7467	1188.1279	1196.9956	1253.2394	1337.8625	1340.5373	1373.7086	1384.3471	1459.3421	1473.0583	1518.7705	1828.8955	2356.1016	3034.1216	3041.6554	3049.0176	3093.3288	3097.9345	3110.2291	3157.5488
CC(=O)C1OCC1C#N	CC(=O)[C@H]1OC[C@H]1C#N	
InChI=1S/C6H7NO2/c1-4(8)6-5(2-7)3-9-6/h5-6H,3H2,1H3	InChI=1S/C6H7NO2/c1-4(8)6-5(2-7)3-9-6/h5-6H,3H2,1H3/t5-,6-/m1/s1
