18
gdb 117315	2.77033	0.99825	0.84763	2.2905	70.34	-0.2577	-0.0256	0.2321	1418.8729	0.144229	-476.247582	-476.237151	-476.236207	-476.285244	34.784	
C	-0.3135467334	 0.3962318358	 0.5841913851	-0.237616
O	 0.6886055628	 0.1000925423	 1.5369136795	-0.223864
C	 1.8492046685	-0.4630648936	 0.971428221	-0.128487
C	 1.6492201463	-1.8781205135	 0.463825277	 0.3635
N	 1.9192446138	-2.2254579808	-0.7137843761	-0.483152
O	 1.1497075547	-2.6586830768	 1.5164179915	-0.253562
C	 0.8175655352	-3.9775531592	 1.388014261	 0.434098
C	 0.3038325554	-4.4971524338	 2.7058070581	-0.476584
O	 0.9227604963	-4.6206982115	 0.3769505804	-0.329765
H	-0.6842703857	-0.5049312645	 0.0752411877	 0.115197
H	-1.1392483035	 0.8612047926	 1.1273190703	 0.130003
H	 0.0526252429	 1.0959127666	-0.1819737626	 0.113433
H	 2.2302865469	 0.1290647806	 0.1291838974	 0.119975
H	 2.5994568265	-0.4738660675	 1.7695956416	 0.123533
H	 1.741047454	-3.2178127237	-0.8644074145	 0.260773
H	-0.5576025501	-3.9062706805	 3.0291394871	 0.160644
H	 0.0253155065	-5.5445636675	 2.5983979725	 0.153204
H	 1.075791103	-4.389687605	 3.4732281029	 0.158671
30.3278	45.0349	83.4709	101.0481	113.0452	165.3941	198.2583	267.2528	380.0438	407.5328	438.0396	488.6476	590.3035	632.154	708.7979	817.0584	928.539	947.1928	989.0162	1020.8558	1047.0515	1057.6767	1063.0751	1148.2533	1182.1466	1219.0026	1229.7637	1302.3267	1338.5693	1391.906	1396.2135	1465.7669	1469.374	1472.6724	1484.4414	1488.2939	1507.6356	1742.827	1836.7108	2986.1008	3024.0121	3037.4834	3058.6281	3082.9331	3121.4251	3124.3734	3172.5652	3505.9846
COCC(=N)OC(C)=O	COC[C]([NH])OC(=O)C	
InChI=1S/C5H9NO3/c1-4(7)9-5(6)3-8-2/h6H,3H2,1-2H3	InChI=1S/C5H9NO3/c1-4(7)9-5(6)3-8-2/h6H,3H2,1-2H3
