15
gdb 20769	3.33737	1.75811	1.16824	4.218	62.86	-0.248	0.0011	0.2491	977.354	0.118323	-399.792645	-399.78472	-399.783775	-399.825494	27.859	
C	-0.0256505918	 1.5031712722	 0.0016821245	-0.500795
C	-0.010509914	 0.0086843444	 0.0316535041	 0.304763
N	-0.0316045115	-0.676815318	-1.0878342761	-0.200884
O	-0.0095224572	-2.0167476299	-0.7168593863	-0.172934
C	 0.0242975671	-2.0938449913	 0.6224282707	 0.009116
C	 0.0262317929	-0.8539337828	 1.1721077888	 0.092673
C	 0.058790021	-0.4867634883	 2.6188552693	-0.202508
O	 0.0862909628	-1.6840967789	 3.3772055493	-0.416866
H	 0.8657761521	 1.916489417	 0.4863349975	 0.135149
H	-0.0555790632	 1.8562073652	-1.0306417287	 0.153759
H	-0.8987574902	 1.8995149634	 0.5317307657	 0.135139
H	 0.0442491417	-3.083147853	 1.0489627991	 0.162308
H	 0.9430709158	 0.1394050946	 2.8270103567	 0.103535
H	-0.8235882809	 0.126165748	 2.8700457684	 0.10349
H	 0.1091001955	-1.4501017324	 4.309291557	 0.294055
54.431	148.4685	162.6665	221.849	250.6873	294.5007	303.6375	490.3977	613.3349	626.8349	678.1282	753.4699	849.7527	915.3474	952.2153	1026.6147	1044.0744	1071.4621	1079.0027	1149.0846	1191.6267	1226.3869	1248.3454	1295.988	1402.3793	1432.2455	1463.9032	1483.2337	1487.3314	1515.9891	1532.2199	1664.2187	2952.0841	2966.3999	3036.2959	3089.0666	3139.9689	3285.1411	3838.983
CC1=NOC=C1CO	Cc1nocc1CO	
InChI=1S/C5H7NO2/c1-4-5(2-7)3-8-6-4/h3,7H,2H2,1H3	InChI=1S/C5H7NO2/c1-4-5(2-7)3-8-6-4/h3,7H,2H2,1H3
