15
gdb 72374	2.61757	1.71346	1.43159	3.162	65.15	-0.2671	-0.0143	0.2528	938.2906	0.112741	-457.792681	-457.785122	-457.784177	-457.82492	28.307	
O	 0.0155073143	 1.3293808029	-0.206326727	-0.473147
C	 0.0585124303	-0.066291716	-0.075511181	 0.21007
C	 0.8211705801	-0.8046539534	-1.1992135298	-0.349359
C	-0.1016791149	-1.9387397228	-1.5745524017	-0.053319
C	-1.2512269377	-1.9346195799	-0.8951260637	-0.08772
C	-1.2922667094	-0.8088366608	 0.0839290987	 0.051014
O	-0.8884542929	-1.2221870961	 1.4629545067	-0.261355
C	 0.2937675234	-0.5540687601	 1.3649008375	 0.397367
O	 1.1334527184	-0.3985298051	 2.1958684085	-0.341028
H	 0.7170300211	 1.6984910813	 0.3430762912	 0.301116
H	 0.9768316251	-0.1074565513	-2.0314029809	 0.132274
H	 1.8115825092	-1.1539162786	-0.8851522105	 0.132262
H	 0.1685234023	-2.6703082246	-2.3284638727	 0.114323
H	-2.0564845715	-2.6500692579	-1.0057483325	 0.114055
H	-2.203930928	-0.2151104475	 0.1438484872	 0.113447
84.9244	137.0722	204.585	262.1635	284.17	361.3605	450.2335	533.4426	652.3631	679.9185	715.1391	764.2005	797.3159	827.6858	878.3218	923.3156	958.178	978.5316	1011.6552	1018.5026	1112.6704	1137.2839	1141.6532	1157.3112	1225.7238	1279.1938	1314.823	1325.3783	1373.2766	1384.9939	1472.8764	1672.436	1923.4887	3035.6223	3071.3631	3127.5903	3190.9989	3220.7249	3797.2471
OC12CC=CC1OC2=O	O[C@]12CC=C[C@H]1OC2=O	
InChI=1S/C6H6O3/c7-5-6(8)3-1-2-4(6)9-5/h1-2,4,8H,3H2	InChI=1S/C6H6O3/c7-5-6(8)3-1-2-4(6)9-5/h1-2,4,8H,3H2/t4-,6-/m1/s1
