19
gdb 47504	2.74019	1.43409	1.08706	4.5755	75.91	-0.2277	-0.0136	0.2141	1137.3435	0.161248	-419.195978	-419.188003	-419.187059	-419.228648	31.107	
O	 0.0076629575	-0.0736616812	-0.048978753	-0.300122
C	-0.0098723396	 1.124965876	 0.0870135073	 0.409636
C	-1.3211737908	 1.9067085302	 0.1873710972	-0.256698
N	-1.2354427707	 2.9601469178	 1.1989900324	-0.299145
C	-0.1430848583	 3.8956059177	 0.9374623331	-0.255117
C	 1.1694656865	 3.1458988087	 1.0493109546	 0.361852
C	 2.3858042543	 3.8660440227	 1.4941980919	-0.301543
N	 1.7304310696	 2.8872808986	 2.3821185077	-0.332599
C	 1.2572330039	 1.9742293178	 0.0834749885	-0.367208
H	-1.5269791452	 2.2990665411	-0.8313603606	 0.094855
H	-2.1175364287	 1.2037658722	 0.4403214873	 0.128288
H	-2.1186360256	 3.4552595634	 1.2493656668	 0.226182
H	-0.2084731649	 4.366489038	-0.0641613376	 0.082147
H	-0.182568537	 4.7006474509	 1.6791593684	 0.095435
H	 3.3633727453	 3.5659679527	 1.1256899112	 0.118532
H	 2.2973501146	 4.9260602594	 1.7220580604	 0.109193
H	 1.1792393846	 3.3603156883	 3.0942428625	 0.231673
H	 2.1149800106	 1.3361721627	 0.3022125545	 0.134424
H	 1.3706201141	 2.3595430428	-0.9415158826	 0.120214
81.8486	103.663	237.5187	281.3596	347.3252	377.0979	426.0918	437.4086	478.2739	533.8222	601.1177	726.4722	767.2748	808.6825	859.3509	906.767	924.4096	951.5539	960.2389	984.4678	1008.0737	1082.8314	1085.9647	1131.822	1142.7504	1159.3299	1222.293	1239.1325	1254.5822	1268.2015	1280.8837	1310.8872	1339.3035	1397.5282	1423.9779	1446.0104	1474.8589	1483.978	1496.9232	1516.0994	1828.8664	2880.4868	2898.7847	3004.9911	3061.8502	3100.3169	3108.0012	3123.5843	3183.6988	3498.527	3530.3018
O=C1CNCC2(CN2)C1	O=C1CNC[C@]2(CN2)C1	
InChI=1S/C6H10N2O/c9-5-1-6(4-8-6)3-7-2-5/h7-8H,1-4H2	InChI=1S/C6H10N2O/c9-5-1-6(4-8-6)3-7-2-5/h7-8H,1-4H2/t6-/m0/s1
