20
gdb 106842	2.49302	1.27552	1.00951	4.4267	85.27	-0.2607	0.0196	0.2803	1261.4286	0.171218	-366.015081	-366.006105	-366.00516	-366.048909	33.759	
C	-0.2670533307	 1.480187579	-0.0119054051	-0.377122
C	 0.1324413224	-0.0000541193	 0.0715480786	-0.289224
C	 0.8198781565	-0.48310709	-1.1755631559	 0.318603
C	 0.0782682101	-0.9747827876	-2.3799123162	-0.360394
C	 1.0210170731	-1.9380555866	-1.6842927051	 0.154776
C	 2.4725138206	-1.6172290053	-2.0765902017	-0.287255
C	 2.2697220572	-0.1535323836	-1.5708312245	-0.281165
C	 0.5673257895	-3.1584721243	-1.1066765064	 0.188478
N	 0.2103323072	-4.1487179397	-0.6226601593	-0.358621
H	 0.6078453801	 2.1191736239	-0.1715255282	 0.121078
H	-0.9624535657	 1.6545218886	-0.8392274579	 0.121684
H	-0.7526022852	 1.8051794486	 0.912786536	 0.120034
H	 0.7950788114	-0.1540291092	 0.9326311919	 0.106723
H	-0.7565775722	-0.6156277631	 0.2536996311	 0.114018
H	-0.9765046356	-1.1795925517	-2.2284355054	 0.13449
H	 0.3322595944	-0.6313413126	-3.3804252132	 0.116827
H	 3.2011380852	-2.1687896579	-1.481230967	 0.127095
H	 2.7067655813	-1.7505674681	-3.1366256249	 0.110541
H	 2.3901546336	 0.6438990736	-2.3100370415	 0.106158
H	 2.898576767	 0.0725791253	-0.7067408555	 0.113279
79.3265	96.8954	156.0753	194.463	214.4197	271.3626	343.5482	385.5026	416.181	522.9408	567.5439	622.3955	700.823	729.9348	784.3771	797.2176	839.9958	927.0063	944.1426	974.7594	986.7453	1022.6979	1036.9132	1083.2975	1097.3167	1121.6477	1156.9663	1214.6385	1235.8129	1244.8001	1251.3982	1311.1143	1329.8333	1357.1528	1403.2788	1414.3833	1481.1205	1483.0622	1487.2096	1499.011	1508.2419	1513.9798	2337.7474	3024.5036	3036.577	3054.2034	3060.4851	3063.2162	3105.3815	3105.9187	3108.2071	3112.0033	3131.2402	3207.0428
CCC12CC1(CC2)C#N	CC[C@]12C[C@]1(CC2)C#N	
InChI=1S/C8H11N/c1-2-7-3-4-8(7,5-7)6-9/h2-5H2,1H3	InChI=1S/C8H11N/c1-2-7-3-4-8(7,5-7)6-9/h2-5H2,1H3/t7-,8+/m0/s1
