16
gdb 5308	4.48905	1.4155	1.37294	1.4923	66.82	-0.2224	0.0129	0.2353	961.6343	0.130589	-383.768433	-383.760721	-383.759777	-383.800821	28.457	
C	-0.0483213655	 1.5739932487	 0.2334751208	-0.398961
C	-0.0278584303	 0.0569470517	 0.0085181825	 0.014272
O	 0.7318168923	-0.601966124	 1.0229064456	-0.428293
C	-1.4022130568	-0.5218224747	-0.107664038	 0.380759
C	-2.0685183821	-1.2060832917	-1.0748879066	-0.288995
C	-3.3704716017	-1.4985992793	-0.548261205	-0.169063
C	-3.3947329932	-0.9746824861	 0.702843231	-0.020368
O	-2.2078775016	-0.3719330015	 0.9884998333	-0.197184
H	 0.9749722277	 1.9443732338	 0.3354817001	 0.123177
H	-0.531902821	 2.0880677111	-0.6030504316	 0.119555
H	-0.6023013668	 1.8183763404	 1.1456184602	 0.121737
H	 0.4962992504	-0.1641857333	-0.926915125	 0.101373
H	 0.2265404881	-0.5384373198	 1.841172539	 0.284592
H	-1.6797637427	-1.474581272	-2.0447983353	 0.111321
H	-4.1717270708	-2.0298599738	-1.037370121	 0.113102
H	-4.135821136	-0.9418969394	 1.4842634899	 0.132976
54.4011	133.9311	191.9621	251.4741	299.1777	344.2486	412.1385	508.0613	613.3892	674.4198	722.5082	748.6066	812.7821	852.8248	891.7643	903.241	944.2747	1004.9451	1037.6256	1079.6233	1091.332	1109.4235	1185.6501	1229.6092	1247.0665	1293.5984	1342.9808	1398.1927	1414.5276	1419.6489	1488.7795	1493.3499	1540.9288	1639.677	3038.3751	3065.2567	3112.2713	3124.3954	3251.3597	3262.5361	3286.0497	3805.5831
CC(O)C1=CC=CO1	C[C@@H](O)c1ccco1	
InChI=1S/C6H8O2/c1-5(7)6-3-2-4-8-6/h2-5,7H,1H3	InChI=1S/C6H8O2/c1-5(7)6-3-2-4-8-6/h2-5,7H,1H3/t5-/m1/s1
