21
gdb 13616	3.1962	1.3247	1.0483	0.8309	75.34	-0.2218	0.0745	0.2962	1184.6142	0.187022	-366.224763	-366.215124	-366.21418	-366.259001	35.014	
C	 0.3606535637	 1.7446301921	-0.1149859077	-0.394711
C	 0.0235256581	 0.2512968895	 0.0067121503	 0.005663
C	 0.5190948797	-0.5282043047	-1.2152389199	-0.077144
O	-0.1313824967	-0.0135989564	-2.3681785318	-0.424367
C	 0.6277595417	-0.3268300611	 1.275169212	 0.019986
C	-0.0475512156	-0.1795994884	 2.5963299748	-0.262579
N	 0.1110155563	-1.4972577723	 1.992712639	-0.090964
C	-1.0942348445	-2.1733168222	 1.5368530124	-0.315187
H	 1.4459099149	 1.9016146056	-0.0891907409	 0.108018
H	-0.0156117464	 2.144336976	-1.0588711175	 0.133743
H	-0.0779258155	 2.3142890669	 0.7095119925	 0.111347
H	-1.0667982748	 0.1465808812	 0.0357600912	 0.08205
H	 1.6143727782	-0.4217227248	-1.2935263671	 0.083481
H	 0.3035418617	-1.5997949957	-1.0854993076	 0.090377
H	 0.2171995601	-0.4690511448	-3.1395741775	 0.287128
H	 1.7191078738	-0.3001740707	 1.2731097265	 0.083312
H	 0.5210107134	 0.0087161676	 3.5037578715	 0.110829
H	-1.0439925197	 0.2639517706	 2.5878730172	 0.102098
H	-1.8830465919	-1.5076186049	 1.1530567433	 0.103757
H	-0.8376588438	-2.8907043545	 0.7503135792	 0.120634
H	-1.5140933727	-2.7344743891	 2.3781423201	 0.122527
70.4079	102.9415	149.0338	212.1661	214.6334	241.7074	248.8898	271.7446	346.0174	381.445	411.7585	483.2703	555.3841	753.5998	816.76	879.2012	926.8139	931.5203	976.054	1035.0788	1063.3031	1093.548	1103.9755	1118.734	1133.9142	1162.1772	1170.8217	1199.9306	1204.8478	1239.6728	1266.7636	1302.1713	1340.2834	1353.4834	1398.3779	1428.3039	1450.1951	1458.2417	1488.8119	1493.1758	1501.6418	1505.3268	1514.0146	1521.1605	2959.3741	2977.95	2997.901	3031.5315	3049.8193	3063.9502	3078.098	3083.657	3096.6458	3099.6393	3131.9636	3165.5832	3835.5951
CC(CO)C1CN1C	C[C@@H](CO)[C@H]1CN1C	
InChI=1S/C6H13NO/c1-5(4-8)6-3-7(6)2/h5-6,8H,3-4H2,1-2H3	InChI=1S/C6H13NO/c1-5(4-8)6-3-7(6)2/h5-6,8H,3-4H2,1-2H3/t5-,6+,7?/m0/s1
