13
gdb 130181	3.55927	1.67032	1.13844	3.6384	66.15	-0.212	-0.0113	0.2007	964.3349	0.092941	-445.082371	-445.075345	-445.074401	-445.113525	26.882	
N	-0.0185065345	 1.360593442	 0.1641423375	-0.586698
C	 0.0426193424	-0.0135932364	 0.0491787923	 0.285319
N	-1.0478891683	-0.7627243472	 0.013277671	-0.310162
N	-0.6225681854	-2.0957784674	 0.0319431562	-0.373989
C	 0.7236273222	-2.1350571502	-0.0214759586	 0.484104
C	 1.2119672483	-0.8397041449	 0.0259344139	 0.206721
N	 2.5764234993	-0.8771761555	 0.0338404118	-0.29547
N	 2.952567477	-2.1117460003	-0.0078380825	-0.120385
N	 1.8168735318	-2.9209111604	-0.0325667295	-0.364201
H	 0.7501683286	 1.8493077411	-0.2707849781	 0.262955
H	-0.9185228172	 1.7453023231	-0.0872043267	 0.257547
H	-1.2930630707	-2.7990859607	-0.220029376	 0.274382
H	 1.9321508864	-3.9181731531	-0.0840025312	 0.279876
201.2762	203.8655	259.6864	264.232	338.1829	391.853	458.4823	548.7649	610.7388	654.3721	672.6981	695.0745	703.0436	788.8428	847.0312	907.7912	1013.7473	1022.0423	1154.1112	1188.1931	1264.1595	1324.2439	1374.7272	1387.2351	1485.6949	1521.5876	1588.1351	1645.1032	1666.5691	3563.4135	3669.2334	3686.7496	3695.4381
NC1=NNC2=C1N=NN2	Nc1n[nH]c2c1nn[nH]2	
InChI=1S/C3H4N6/c4-2-1-3(7-6-2)8-9-5-1/h(H4,4,5,6,7,8,9)	InChI=1S/C3H4N6/c4-2-1-3(7-6-2)8-9-5-1/h(H4,4,5,6,7,8,9)
