19
gdb 70083	2.55229	1.78662	1.34588	1.2557	79.89	-0.2182	0.0193	0.2375	1006.1147	0.160886	-385.872194	-385.864741	-385.863797	-385.903552	31.172	
O	-0.0752875506	 1.3493510855	 0.0663729803	-0.477267
C	-0.0140705069	-0.0549185344	 0.0694993822	 0.416104
C	-0.2126478355	-0.663738185	 1.417717959	-0.327963
C	 1.1734932866	-0.6971807999	 0.7644870704	-0.153568
C	 1.727577224	-1.9435361827	 0.1912832536	-0.062989
C	 1.2856784691	-2.4909723679	-0.947005666	-0.090641
C	 0.1859672856	-1.9175372013	-1.7559895692	-0.070016
C	-1.2503184858	-2.0063983268	-1.2630836106	-0.301716
C	-0.5211534767	-0.6916134009	-1.2049457513	-0.112545
H	 0.5739377734	 1.6686436266	-0.5704456893	 0.279447
H	-0.3464573836	 0.0331749295	 2.2369702586	 0.121736
H	-0.7568534114	-1.5962613926	 1.5073224929	 0.115145
H	 1.8905856029	-0.0140712037	 1.211117441	 0.088395
H	 2.54020601	-2.4191228954	 0.7350099022	 0.086641
H	 1.7441612347	-3.4044216662	-1.3169718605	 0.087144
H	 0.3178762986	-1.9814991163	-2.8325060206	 0.085795
H	-2.0338343495	-2.1117528488	-2.0055904409	 0.111889
H	-1.4298728362	-2.5492795144	-0.342351425	 0.117692
H	-0.8386276588	 0.0549736146	-1.9247649367	 0.086717
129.13	224.5807	297.5442	319.6272	369.6988	402.2773	450.8158	503.5742	525.7097	574.3945	655.3756	748.1816	779.7105	806.674	819.4405	872.4309	895.8645	910.7808	952.9893	972.3066	990.1644	1011.1108	1036.468	1059.3237	1061.744	1082.6747	1105.6304	1119.6431	1127.0048	1204.7348	1213.2835	1221.5405	1268.2851	1325.8312	1376.4628	1397.7482	1412.8289	1436.7534	1482.1306	1485.3052	1697.5941	3134.4591	3137.8176	3141.579	3143.8298	3149.6116	3165.0493	3168.8234	3223.6091	3237.0397	3791.6869
OC12CC1C=CC1CC21	O[C@]12C[C@H]1C=C[C@H]1C[C@@H]21	
InChI=1S/C8H10O/c9-8-4-6(8)2-1-5-3-7(5)8/h1-2,5-7,9H,3-4H2	InChI=1S/C8H10O/c9-8-4-6(8)2-1-5-3-7(5)8/h1-2,5-7,9H,3-4H2/t5-,6+,7+,8+/m0/s1
