17
gdb 97631	2.31575	0.81926	0.63323	1.3238	80.21	-0.2635	0.0083	0.2717	1728.8228	0.131674	-421.727256	-421.716582	-421.715638	-421.764619	36.386	
C	 0.4446553526	 1.4147907677	 0.2080617598	-0.234803
O	-0.034782266	 0.0834647646	 0.218272965	-0.226504
C	 0.6298793578	-0.7432047261	 1.1630896055	-0.230723
C	-0.1083262716	-2.005091805	 1.265660058	 0.312769
C	-0.7074762178	-3.0384375845	 1.3794808872	-0.406722
C	 2.0434651197	-0.9799445385	 0.8226258277	 0.107978
C	 3.1998176226	-1.1480374356	 0.5300411922	 0.029395
C	 4.6136841332	-1.3624995957	 0.2226496157	-0.19906
O	 5.487715928	-0.4831955753	 0.914729216	-0.399617
H	 1.5033880183	 1.4659915388	-0.0779795108	 0.124806
H	-0.1541875669	 1.9550262638	-0.5276017865	 0.134292
H	 0.3220958168	 1.8938589266	 1.1920253662	 0.105881
H	 0.6036872278	-0.2501213684	 2.152694048	 0.120565
H	-1.2389058478	-3.9536085254	 1.4698005576	 0.201724
H	 4.866239835	-2.4175858932	 0.4140294525	 0.124611
H	 4.7933733529	-1.184580408	-0.8432421472	 0.146747
H	 5.2972260953	-0.566284506	 1.8549450628	 0.28866
26.0365	72.3117	102.9253	111.6525	152.3651	189.8598	220.3075	265.0856	333.3036	335.0893	382.9382	484.149	528.6029	557.7181	597.9492	633.8962	673.0886	810.1638	947.9241	982.3302	1001.6846	1050.5053	1125.674	1144.0814	1181.4256	1210.7931	1214.7384	1323.6503	1340.1558	1361.3319	1416.6892	1474.0219	1483.3483	1487.528	1510.3222	2251.1013	2355.1097	2927.4776	2980.8038	2983.0105	3048.9793	3067.4366	3129.6122	3504.2906	3816.8118
COC(C#C)C#CCO	CO[C@@H](C#C)C#CCO	
InChI=1S/C7H8O2/c1-3-7(9-2)5-4-6-8/h1,7-8H,6H2,2H3	InChI=1S/C7H8O2/c1-3-7(9-2)5-4-6-8/h1,7-8H,6H2,2H3/t7-/m0/s1
