19
gdb 87367	2.1507	1.61058	1.09309	3.2361	78.08	-0.2341	-0.0176	0.2166	1155.4187	0.157146	-423.022821	-423.01358	-423.012636	-423.056995	34.43	
C	 0.0204684849	 1.5087218919	-0.204224078	-0.39378
C	 0.0955884113	 0.0074539923	-0.0415074484	-0.043822
C	 1.3906031471	-0.7230470901	-0.160363263	-0.343556
C	 0.7155470378	-0.6265820465	 1.1964216498	 0.233347
C	 1.2181296498	-0.0008289446	 2.5066484143	-0.01323
O	 0.6625130389	 1.2743334279	 2.7524794009	-0.425599
C	 0.5741142586	-1.1932262281	 3.2967765525	-0.386894
C	 0.1430463521	-1.7902201275	 1.9413016975	 0.348167
O	-0.4098813343	-2.8017698936	 1.6061750552	-0.32076
H	 0.9129430523	 1.9981236173	 0.191924122	 0.124649
H	-0.0745184645	 1.765404652	-1.2652162488	 0.114098
H	-0.840527192	 1.9219204931	 0.3278192903	 0.130044
H	-0.7780571636	-0.5380152188	-0.3914934268	 0.107997
H	 1.4074447009	-1.7065689426	-0.6186466713	 0.131946
H	 2.2943689983	-0.1346468999	-0.289593965	 0.119228
H	 2.3130908786	 0.0246326986	 2.5844108005	 0.074245
H	 0.9799635878	 1.5785708371	 3.6087934177	 0.287299
H	 1.2466254353	-1.8203281778	 3.8881755716	 0.124803
H	-0.2720449294	-0.8798767305	 3.9157329792	 0.131817
50.3245	118.2095	158.3826	191.1884	238.5371	281.6049	297.5308	334.2131	382.7714	466.6027	507.8702	576.3213	602.8982	716.2262	753.579	825.7639	864.953	897.7309	919.0138	1000.494	1012.7663	1031.8534	1064.3282	1085.3195	1104.4771	1129.7246	1157.0003	1170.2594	1194.2187	1210.1979	1250.6147	1283.6583	1333.3871	1407.4336	1411.9596	1424.5653	1439.7451	1474.9351	1485.6592	1499.7436	1875.0091	3009.916	3038.7687	3058.6391	3106.2642	3119.4437	3120.9832	3123.2675	3141.719	3213.0224	3816.1865
CC1CC11C(O)CC1=O	C[C@H]1C[C@]21[C@@H](O)CC2=O	
InChI=1S/C7H10O2/c1-4-3-7(4)5(8)2-6(7)9/h4-5,8H,2-3H2,1H3	InChI=1S/C7H10O2/c1-4-3-7(4)5(8)2-6(7)9/h4-5,8H,2-3H2,1H3/t4-,5-,7-/m0/s1
