23
gdb 83255	1.77155	1.69464	1.47634	1.5041	84.72	-0.2217	0.0787	0.3003	1134.4069	0.205364	-388.287332	-388.277669	-388.276725	-388.321215	36.708	
C	 0.1666438696	 1.5472608166	-0.1498194635	-0.424877
C	 0.1320685784	 0.0377150546	-0.0342630152	-0.092066
C	 1.3313556973	-0.8493708272	-0.27469439	 0.045245
O	 2.6106849762	-0.2686235471	-0.2327943009	-0.264958
C	 2.8697448611	 0.2422010672	 1.0763408406	-0.103104
C	 1.7734142303	-0.292465781	 2.029236641	-0.05199
C	 1.3124953532	 0.7281032204	 3.0745551787	-0.412713
C	 0.6971626134	-0.8408257467	 1.0879669531	 0.279926
C	-0.1498991141	-1.9804617842	 1.6086394321	-0.482319
H	 1.1449620767	 1.9689626583	 0.0821990469	 0.129638
H	-0.0721583262	 1.8443881657	-1.1771128797	 0.118457
H	-0.5721646069	 2.0181582437	 0.5079499795	 0.115445
H	-0.7906401281	-0.3856643443	-0.4293237966	 0.078974
H	 1.2887733192	-1.6892994026	-0.9613673647	 0.090583
H	 3.8751879907	-0.0771789705	 1.3743938237	 0.102696
H	 2.8683582481	 1.3403211412	 1.0557301438	 0.096319
H	 2.1751624772	-1.1631101716	 2.5645964383	 0.074211
H	 0.8987102063	 1.6242505505	 2.6035369167	 0.122576
H	 0.5415215204	 0.3039997119	 3.7258769075	 0.117027
H	 2.1462883355	 1.0387255505	 3.7138323814	 0.11393
H	-0.8043491989	-1.6534360817	 2.4257522337	 0.117339
H	-0.7918676932	-2.3918520921	 0.8236132993	 0.114985
H	 0.4747341439	-2.7968460616	 1.9910420842	 0.114675
110.8537	125.5305	177.2495	193.4356	212.3903	215.824	240.1125	289.7832	322.6295	379.0066	530.0042	563.1548	573.9655	664.7806	707.034	772.2178	862.2731	894.8287	930.6395	952.3705	969.0625	1001.1646	1026.7794	1052.3839	1077.297	1100.282	1116.6132	1142.8782	1147.8685	1163.409	1170.7657	1230.8416	1250.1706	1296.6371	1326.9915	1348.2061	1362.5004	1398.0851	1409.9896	1415.1677	1419.8976	1457.9169	1488.8259	1491.05	1494.8258	1498.9653	1501.8736	1504.8785	1535.8554	3003.3807	3008.6191	3018.137	3033.7664	3035.2074	3050.7519	3074.4402	3085.103	3095.5726	3096.6246	3108.8552	3114.932	3144.4173	3155.1245
CC1C2OCC(C)C12C	C[C@H]1[C@H]2OC[C@@H](C)[C@@]12C	
InChI=1S/C8H14O/c1-5-4-9-7-6(2)8(5,7)3/h5-7H,4H2,1-3H3	InChI=1S/C8H14O/c1-5-4-9-7-6(2)8(5,7)3/h5-7H,4H2,1-3H3/t5-,6+,7-,8+/m1/s1
