21
gdb 70142	2.58694	1.54815	1.13666	0.1251	91.35	-0.2294	0.0256	0.255	1159.7562	0.184055	-349.955095	-349.946769	-349.945825	-349.987842	33.175	
C	 0.0623995607	 1.4794029828	-0.1439243492	-0.455339
C	-0.1243093404	-0.019090653	 0.0581422239	 0.286567
C	-0.7829056293	-0.4460284031	 1.3615248105	-0.311227
C	 0.708999995	-0.6577975881	 1.1394220324	-0.099507
C	 1.3055853961	-2.0115786724	 1.1256070777	-0.062656
C	 1.4200368866	-2.8970612448	 0.1367708364	-0.068597
C	 0.9712746839	-2.8276800885	-1.2958942072	-0.319846
C	-0.076948772	-1.8478206329	-1.7440231495	-0.06419
C	-0.5210215717	-0.7203098444	-1.1899917132	-0.12368
H	 0.8921297372	 1.6854238204	-0.8288528817	 0.120854
H	-0.841442505	 1.9313549157	-0.5688605326	 0.115173
H	 0.2729321211	 1.9840390259	 0.8040188764	 0.111208
H	-1.1051273381	 0.3213171445	 2.0589704882	 0.105443
H	-1.4067288367	-1.3318445687	 1.3305948241	 0.117663
H	 1.3271274893	 0.0530471669	 1.6856987961	 0.084606
H	 1.7221620566	-2.3028289842	 2.089821111	 0.081558
H	 1.9251640479	-3.8315258899	 0.3771570121	 0.082427
H	 1.8641951717	-2.6925148213	-1.9316234236	 0.12597
H	 0.6164464727	-3.8308700626	-1.5744437635	 0.113526
H	-0.5349617075	-2.1288510928	-2.6916433043	 0.082999
H	-1.3007713081	-0.1892687193	-1.7375616438	 0.07705
61.8997	164.6383	228.8876	245.4956	311.9137	341.2051	390.6103	414.4256	468.7644	497.2881	625.5163	722.2793	739.7181	758.4044	811.1935	831.18	868.9142	895.6202	925.7359	955.6719	967.4774	1004.819	1012.6147	1027.5197	1044.0888	1057.8539	1113.5966	1120.4831	1133.3572	1225.628	1228.8989	1271.4802	1280.0938	1345.0312	1402.6702	1413.6133	1417.8615	1439.8281	1452.7894	1454.9004	1489.6898	1490.9868	1505.0414	1746.0354	1751.7602	2959.5728	3005.5588	3024.2914	3087.5787	3100.0841	3106.077	3107.9076	3117.3831	3125.0238	3135.5462	3141.9715	3222.2333
CC12CC1C=CCC=C2	C[C@]12C[C@H]1C=CCC=C2	
InChI=1S/C9H12/c1-9-6-4-2-3-5-8(9)7-9/h3-6,8H,2,7H2,1H3	InChI=1S/C9H12/c1-9-6-4-2-3-5-8(9)7-9/h3-6,8H,2,7H2,1H3/t8-,9+/m1/s1
