19
gdb 117808	2.16292	1.02378	0.92328	2.3624	73.54	-0.2606	0.0202	0.2808	1379.7307	0.155185	-460.108689	-460.097774	-460.096829	-460.144926	39.25	
O	 0.03308551	 1.5017288437	-0.2527231117	-0.419667
C	 0.082664559	 0.0924388622	-0.0872244101	-0.080753
C	-1.3186053543	-0.5065270012	 0.0743528637	-0.227905
C	-1.3635866346	-2.0515091752	 0.0436281714	 0.117786
O	-0.691742538	-2.5779082817	-1.1013174516	-0.449593
C	-0.6276557816	-2.6866890711	 1.2501277503	-0.083847
O	-1.1554361507	-2.2614269481	 2.4871361515	-0.41788
C	-2.7671983158	-2.4958463378	 0.0771920246	 0.295823
C	-3.9133183569	-2.8595954596	 0.1226306717	-0.464686
H	-0.3076027738	 1.8817789261	 0.5633871687	 0.282007
H	 0.5524108514	-0.3029625299	-0.991228984	 0.121392
H	 0.7246089765	-0.1815779361	 0.762390702	 0.097944
H	-1.760898201	-0.1770147115	 1.0212009157	 0.110702
H	-1.951408211	-0.116776615	-0.7313610544	 0.104287
H	-1.2038614178	-2.3424631494	-1.8826632485	 0.288468
H	-0.6643900639	-3.7772887445	 1.1282219566	 0.108203
H	 0.4209950569	-2.3813472125	 1.2279380673	 0.124467
H	-2.0690255195	-2.5681601206	 2.5285158011	 0.288981
H	-4.9259157951	-3.1809724877	 0.1446582257	 0.204268
57.6673	77.7138	109.8548	120.6413	200.0992	234.1952	252.5257	267.5568	310.3084	352.5988	369.3353	405.9581	444.0653	457.1348	581.8796	610.5127	629.5934	675.903	767.1332	783.8908	909.0851	971.1573	1016.613	1066.1283	1079.8119	1097.0318	1121.3365	1131.9902	1187.3355	1236.1662	1291.1323	1334.1976	1372.717	1376.5592	1402.0251	1414.969	1416.4418	1474.6709	1507.0039	1516.2022	2221.0505	3000.3283	3021.8096	3037.9477	3079.2772	3105.4637	3110.203	3496.8211	3788.8932	3811.1376	3814.282
OCCC(O)(CO)C#C	OCC[C@@](O)(CO)C#C	
InChI=1S/C6H10O3/c1-2-6(9,5-8)3-4-7/h1,7-9H,3-5H2	InChI=1S/C6H10O3/c1-2-6(9,5-8)3-4-7/h1,7-9H,3-5H2/t6-/m1/s1
