19
gdb 39954	4.12513	1.13812	1.03603	0.8449	84.17	-0.2206	0.008	0.2286	1201.3736	0.161171	-382.02701	-382.019301	-382.018357	-382.059395	30.845	
C	-0.125490703	 1.5116229172	 0.0240439312	-0.292932
N	 1.201230756	 0.8761577983	-0.0447475894	-0.353041
C	-0.014710544	 0.0313418656	 0.0097018503	 0.320825
C	-0.2225904863	-0.8635120811	 1.2378501211	-0.389669
C	-0.4723493116	-2.2610789184	 0.6510626842	 0.31017
C	 0.1490072844	-3.4939159086	 1.2131961975	-0.284062
N	-1.3001573442	-3.2670984386	 1.3425988256	-0.362506
C	-0.6746078394	-2.0529798842	-0.8093248843	-0.127069
C	-0.4214670928	-0.7909107364	-1.1615696312	-0.167066
H	-0.3354220729	 2.0250124221	 0.9594579758	 0.116456
H	-0.5218022307	 2.0072114446	-0.8594526673	 0.109847
H	 1.5555514152	 0.9106712227	-0.9986914287	 0.227941
H	 0.639995457	-0.8186551003	 1.9062012569	 0.12086
H	-1.1068219388	-0.5352771996	 1.7975203851	 0.108688
H	 0.4269536553	-4.3167041375	 0.5592404369	 0.11564
H	 0.7818956036	-3.3801969551	 2.0901260165	 0.112323
H	-1.5161377663	-2.9406136857	 2.2821336119	 0.229184
H	-0.9785423638	-2.8588375714	-1.4661463134	 0.10738
H	-0.4708488678	-0.3840764437	-2.1661386888	 0.09703
52.6921	187.4574	250.3914	315.9239	332.6284	391.9639	396.4603	439.953	584.5558	615.1269	764.7816	792.2408	818.8892	829.158	846.4452	899.8506	917.1936	946.629	955.7865	959.835	971.6196	981.3162	1002.5965	1072.1562	1075.9884	1107.7961	1133.2889	1134.5968	1193.8428	1248.0584	1262.688	1272.0515	1284.3005	1329.3928	1342.0258	1376.3403	1429.1561	1477.4577	1508.4198	1509.3759	1667.06	3032.9101	3096.312	3099.1591	3105.6229	3180.0128	3182.8507	3184.7959	3216.6305	3483.3903	3486.9165
C1NC11CC2(CN2)C=C1	C1N[C@]21C[C@]1(CN1)C=C2	
InChI=1S/C7H10N2/c1-2-7(5-9-7)3-6(1)4-8-6/h1-2,8-9H,3-5H2	InChI=1S/C7H10N2/c1-2-7(5-9-7)3-6(1)4-8-6/h1-2,8-9H,3-5H2/t6-,7-/m0/s1
