17
gdb 106256	2.73192	1.31237	1.08106	3.1757	70.08	-0.2419	-0.0111	0.2308	1149.2892	0.133346	-458.930799	-458.921889	-458.920945	-458.964648	32.657	
C	 0.0355740286	 1.3380771666	-0.1961741653	-0.263334
O	-0.0255145966	-0.031794527	 0.1827545608	-0.277079
C	-1.2896811869	-0.5575327295	 0.1099792318	 0.404612
C	-2.3854122607	-0.3404778922	 1.1733082112	-0.427597
C	-2.6655806588	-1.8596545008	 1.077532051	 0.447102
O	-3.3584736109	-2.6023740334	 1.7124259221	-0.317742
C	-1.6247101288	-2.0796939684	 0.0186656104	-0.344271
C	-1.8675134008	-1.0994203983	-1.138042055	 0.027952
O	-3.140050606	-0.7168825989	-1.5593003638	-0.416507
H	 1.0819006636	 1.6388479346	-0.1185374203	 0.135337
H	-0.3105995998	 1.4823515405	-1.2282689783	 0.122236
H	-0.5702512355	 1.9663377446	 0.4705054572	 0.121985
H	-1.9629415888	-0.1003222273	 2.1533751038	 0.134726
H	-3.204550153	 0.3382978877	 0.931204754	 0.133115
H	-0.9923564093	-2.9495180514	-0.1124550539	 0.116378
H	-1.1336617916	-1.2368923688	-1.9338994726	 0.107013
H	-3.572899915	-1.481031858	-1.9557712731	 0.296075
72.4384	99.5038	164.0637	171.7975	242.4576	288.0119	347.9306	369.4574	436.0594	471.339	506.1602	604.5194	641.0244	704.7402	782.8961	856.0975	913.9795	951.8005	988.2981	1037.3894	1045.8994	1091.6699	1121.4476	1137.2248	1179.4137	1192.9234	1210.9972	1224.447	1257.1384	1310.5779	1330.3885	1437.6632	1463.5675	1487.0518	1501.9562	1507.0505	1886.6466	3001.2975	3058.9831	3069.8061	3100.0583	3132.7184	3135.0448	3195.4459	3802.5717
COC12CC(=O)C1C2O	CO[C@]12CC(=O)[C@H]1[C@H]2O	
InChI=1S/C6H8O3/c1-9-6-2-3(7)4(6)5(6)8/h4-5,8H,2H2,1H3	InChI=1S/C6H8O3/c1-9-6-2-3(7)4(6)5(6)8/h4-5,8H,2H2,1H3/t4-,5+,6+/m0/s1
