19
gdb 41940	3.28863	1.50171	1.09076	1.5292	76.19	-0.2402	0.0125	0.2527	1100.8383	0.162063	-423.031239	-423.023846	-423.022902	-423.063324	28.906	
C	-0.0048782644	 1.4427040253	-0.0468405053	 0.009147
O	 1.3384434741	 1.9207140877	 0.0235614246	-0.295362
C	 2.085267873	 0.8321626164	 0.5478830901	 0.150059
C	 3.5614524181	 0.7600832552	 0.2279353852	-0.26822
C	 4.0952830218	-0.5464933062	 0.8841330876	-0.260804
C	 3.1021589212	-1.6929697206	 0.9457334524	-0.029121
C	 1.8267116109	-1.6251796707	 0.5554484296	-0.141918
C	 1.3559667648	-0.3482242436	-0.0630017984	 0.120148
O	-0.0001893816	 0.0309097629	 0.1452012148	-0.290603
H	-0.6289523992	 1.8832554629	 0.7427296826	 0.105477
H	-0.4023637343	 1.7123933098	-1.0359691869	 0.102006
H	 1.9506853912	 0.7844225824	 1.6414310631	 0.073437
H	 3.703096531	 0.7347488235	-0.8581912021	 0.10965
H	 4.109058367	 1.6270147153	 0.6082988636	 0.108014
H	 5.0011474514	-0.8783501109	 0.3619423088	 0.114859
H	 4.4227160321	-0.3323651303	 1.9115069699	 0.119079
H	 3.4882179721	-2.6222433881	 1.3586784863	 0.093861
H	 1.1548508666	-2.4745945917	 0.6224032548	 0.102004
H	 1.5561851044	-0.3644896993	-1.1499527407	 0.078286
82.3281	145.4805	211.8567	306.3256	350.9189	432.9319	452.6467	554.786	577.7977	691.502	725.7211	768.9364	841.8786	873.4662	914.0308	960.9775	991.8915	1003.427	1024.4393	1065.701	1068.4305	1111.7208	1127.3888	1142.957	1155.4589	1195.6342	1205.9866	1218.676	1245.1521	1297.4036	1326.3056	1358.4297	1371.3762	1392.5182	1412.0334	1417.0291	1435.6125	1474.689	1506.6664	1544.947	1699.5528	2927.0675	2965.2961	2991.2735	3010.2799	3031.2589	3039.6606	3052.5094	3094.8638	3151.2954	3188.7087
C1OC2CCC=CC2O1	C1O[C@@H]2CCC=C[C@H]2O1	
InChI=1S/C7H10O2/c1-2-4-7-6(3-1)8-5-9-7/h1,3,6-7H,2,4-5H2	InChI=1S/C7H10O2/c1-2-4-7-6(3-1)8-5-9-7/h1,3,6-7H,2,4-5H2/t6-,7-/m1/s1
