17
gdb 46540	4.00996	1.15781	1.07547	5.427	67.91	-0.2569	0.0115	0.2684	1141.4943	0.136513	-458.99113	-458.983411	-458.982467	-459.024108	28.741	
O	 0.1753264371	-0.0486144766	 0.2408450984	-0.331718
C	 0.0326681185	 1.1354871653	 0.1760716588	 0.434171
C	-1.2498639464	 1.9338937102	-0.0329851448	-0.423394
C	-0.8757567976	 3.3560780709	 0.3696672766	 0.403428
C	-1.6995029165	 4.5661798383	-0.1165331704	-0.360505
C	-2.0273886017	 4.7709433396	 1.3751575055	-0.06941
O	-1.2113952482	 3.64027449	 1.7514397261	-0.314622
C	 0.6408458258	 3.3603516138	 0.1304068878	-0.122328
O	 1.0808648502	 2.0040898545	 0.2694483375	-0.217542
H	-1.5169665986	 1.8758897629	-1.0946869646	 0.139649
H	-2.0713953043	 1.5227979653	 0.553917178	 0.151954
H	-1.1118063484	 5.3624683705	-0.5787267285	 0.117655
H	-2.5446368835	 4.3246920752	-0.7629702851	 0.12044
H	-1.6653506341	 5.7031774398	 1.8227261776	 0.111814
H	-3.0772294059	 4.6254624622	 1.6539108998	 0.11221
H	 0.8845628268	 3.7154451305	-0.8789858552	 0.113151
H	 1.1601944267	 3.9726807275	 0.8702987925	 0.135047
72.7	76.1349	170.3808	244.5415	357.7751	385.6136	438.5504	526.4535	552.6335	693.1173	776.3914	789.0895	842.0115	870.7259	882.6689	906.565	972.3015	980.0099	1021.8155	1070.4327	1090.8593	1134.1593	1160.537	1184.9169	1189.4666	1209.8003	1246.4674	1262.6274	1271.388	1302.6066	1354.1294	1392.0747	1438.1035	1488.1689	1500.4489	1532.2109	1891.8959	3027.3091	3028.7499	3054.705	3069.6246	3075.1689	3116.217	3130.8764	3139.9418
O=C1CC2(CCO2)CO1	O=C1C[C@]2(CCO2)CO1	
InChI=1S/C6H8O3/c7-5-3-6(4-8-5)1-2-9-6/h1-4H2	InChI=1S/C6H8O3/c7-5-3-6(4-8-5)1-2-9-6/h1-4H2/t6-/m1/s1
