20
gdb 60631	2.83638	1.12971	0.88802	3.0906	76.78	-0.2321	-0.0306	0.2015	1338.8273	0.16786	-440.267829	-440.257722	-440.256778	-440.303428	36.349	
C	 2.8878991826	-0.5246579361	 0.1321490627	-0.312339
N	 1.646056812	-1.2430258219	 0.3843138637	-0.077812
C	 1.6023365978	-2.1881655956	 1.4869079509	-0.262839
C	 0.8294811277	-0.9095486382	 1.5453288102	-0.003205
C	 1.2159241405	 0.2005144635	 2.5134650008	 0.018248
O	 1.0043903678	 1.456380231	 1.9262309922	-0.440366
C	 0.4078314693	 0.0962750295	 3.8149416234	 0.361187
C	 0.5069336027	-1.1666736887	 4.6352215217	-0.476891
O	-0.2878710078	 1.03473845	 4.1415770446	-0.31835
H	 3.5256615815	-0.3880057767	 1.0195568949	 0.098608
H	 3.4657130542	-1.0838144105	-0.6101385104	 0.12161
H	 2.6528060178	 0.4618672439	-0.2751614415	 0.145934
H	 1.1024783645	-3.1348896831	 1.2979469457	 0.117387
H	 2.4824641594	-2.262609186	 2.1273978317	 0.102045
H	-0.239229741	-0.9281255291	 1.3320856977	 0.098189
H	 2.276145575	 0.084332174	 2.7940054906	 0.085999
H	 0.3857067921	 1.9125858965	 2.5213572106	 0.292729
H	-0.0161513671	-1.9804791143	 4.1210690295	 0.159457
H	 1.5486621822	-1.4809073252	 4.7506336869	 0.141331
H	 0.0498805288	-1.0073929232	 5.6125884441	 0.149079
58.2917	66.9273	119.1073	129.735	190.5809	219.1944	274.1791	323.4304	363.4837	399.1219	433.4307	465.911	557.4906	564.8553	638.1706	752.48	837.0981	866.3699	917.0277	971.5121	1021.6475	1033.4102	1080.778	1110.8604	1126.3796	1131.3529	1157.9696	1177.5264	1202.7032	1206.6066	1264.6656	1308.5896	1343.0395	1386.3915	1408.3009	1435.2537	1450.2184	1461.3813	1473.9972	1487.3737	1501.9529	1511.6286	1795.3387	2964.2721	2982.6561	3045.1895	3073.9903	3076.2166	3104.27	3108.6187	3122.3307	3153.9735	3166.2133	3658.4141
CN1CC1C(O)C(C)=O	CN1C[C@H]1[C@@H](O)C(=O)C	
InChI=1S/C6H11NO2/c1-4(8)6(9)5-3-7(5)2/h5-6,9H,3H2,1-2H3	InChI=1S/C6H11NO2/c1-4(8)6(9)5-3-7(5)2/h5-6,9H,3H2,1-2H3/t5-,6-,7?/m0/s1
