21
gdb 87980	3.43619	1.012	0.92699	1.5007	78.76	-0.2525	0.0732	0.3257	1334.2246	0.182594	-424.218154	-424.20911	-424.208166	-424.252207	35.095	
O	-0.1008626173	 1.4322606813	-0.0043875983	-0.420402
C	-0.0628232554	 0.0344227472	 0.021717162	 0.061842
C	-0.5498891254	-0.7060299483	 1.2412766133	-0.39452
C	-1.3775415954	-0.6932362865	-0.0285172739	 0.346598
C	-2.6940641753	 0.0954041816	-0.0953300507	-0.293075
C	-3.3981140608	-0.4728728667	-1.3379064901	-0.245804
C	-3.0121933361	-1.9609174199	-1.3127823382	 0.14157
O	-3.1533665989	-2.643020129	-2.5473832294	-0.43827
C	-1.5301419691	-1.943518874	-0.9049120858	-0.299266
H	 0.5510829388	 1.7601017906	 0.6233907246	 0.287599
H	 0.7634108911	-0.40523324	-0.5396236747	 0.081367
H	-0.0469424996	-1.6241950544	 1.5302967948	 0.106882
H	-0.9076595946	-0.1005433863	 2.0692591521	 0.107455
H	-3.2972486786	-0.096891952	 0.8005923881	 0.094096
H	-2.5206956099	 1.1717585025	-0.1482169902	 0.121642
H	-4.4804835141	-0.3069492019	-1.3362312072	 0.082399
H	-2.9895649713	-0.0283502182	-2.2533109062	 0.108133
H	-3.5996316083	-2.4671510647	-0.5284698537	 0.061854
H	-4.0883823296	-2.65662342	-2.7741455841	 0.279715
H	-0.9331023793	-1.8622984274	-1.8210632436	 0.111896
H	-1.2286926409	-2.864491044	-0.3980801388	 0.098288
34.5926	145.8097	212.065	233.473	263.1655	283.816	317.7829	386.8989	436.4856	455.7999	472.9294	534.8043	578.2833	735.888	801.155	834.2211	878.0649	891.1783	923.2309	961.8289	977.0418	1006.0572	1032.9859	1048.1751	1080.4302	1096.5711	1108.3047	1162.202	1183.4005	1198.5955	1213.9214	1246.1257	1273.3337	1285.1136	1298.5954	1304.4261	1320.2674	1357.251	1379.621	1421.279	1430.815	1482.8146	1487.6995	1495.4051	1507.6496	2955.4147	3027.3908	3034.8098	3039.1031	3083.3256	3083.5237	3088.3349	3113.0785	3114.2767	3202.7433	3808.5613	3819.4327
OC1CC11CCC(O)C1	O[C@H]1C[C@]21CC[C@@H](O)C2	
InChI=1S/C7H12O2/c8-5-1-2-7(3-5)4-6(7)9/h5-6,8-9H,1-4H2	InChI=1S/C7H12O2/c8-5-1-2-7(3-5)4-6(7)9/h5-6,8-9H,1-4H2/t5-,6+,7+/m1/s1
