21
gdb 109891	2.70521	1.37022	1.15007	2.3744	77.31	-0.245	0.055	0.3	1167.2509	0.183185	-424.191922	-424.183278	-424.182334	-424.225482	33.215	
C	-0.0253990151	 1.7972728849	-0.2492276842	-0.386717
C	-0.2212267745	 0.279307992	-0.1621566907	-0.189132
C	 0.6192005843	-0.4728631763	-1.1877031132	-0.023558
C	 2.1777622151	-0.5762781975	-0.9369989429	 0.118363
O	 2.6859080806	-0.1206200401	 0.2860920456	-0.43192
C	 2.0698282656	-2.1205577751	-1.044257571	 0.070056
O	 1.8702917478	-2.6890938718	 0.273830782	-0.307786
C	 0.433202188	-2.7771286811	 0.0579330776	-0.087785
C	 0.535433973	-2.0284249359	-1.2794916787	-0.116522
H	 1.0195349185	 2.0580047963	-0.0600700258	 0.140286
H	-0.2986748075	 2.1764683721	-1.2404310141	 0.107645
H	-0.6428732704	 2.3186139077	 0.488812025	 0.108627
H	 0.0422924156	-0.0501439527	 0.8491209877	 0.096302
H	-1.2802198401	 0.0275405297	-0.3075259884	 0.08982
H	 0.438425001	-0.0437941813	-2.1798029415	 0.069044
H	 2.7648076592	-0.1161664532	-1.7373852059	 0.081572
H	 2.5246699622	-0.842375037	 0.9130220271	 0.29009
H	 2.7924027342	-2.6865089587	-1.6369204	 0.075743
H	 0.1255651773	-3.8252369248	-0.0389221297	 0.107694
H	-0.1373429261	-2.3097089188	 0.8667424534	 0.110818
H	 0.0156658415	-2.4578617586	-2.1345123921	 0.07736
63.685	97.6459	176.378	216.4881	268.6932	280.8878	313.8584	458.7092	527.4892	556.989	572.136	677.8225	746.5237	778.7579	827.7837	847.6291	904.7111	927.1942	953.816	989.4079	1011.0628	1020.0974	1047.5786	1052.242	1106.3577	1143.5043	1157.7708	1164.5193	1190.7633	1209.2302	1242.4307	1255.5141	1282.0365	1293.2465	1313.1208	1331.775	1340.4163	1360.8387	1391.6818	1407.4448	1446.3204	1481.8015	1498.3944	1510.7728	1521.3778	3018.2252	3026.1329	3031.9204	3033.845	3060.4651	3064.4718	3080.4181	3082.6159	3099.1031	3119.9137	3122.2239	3702.5382
CCC1C(O)C2OCC12	CC[C@H]1[C@@H](O)[C@H]2OC[C@@H]12	
InChI=1S/C7H12O2/c1-2-4-5-3-9-7(5)6(4)8/h4-8H,2-3H2,1H3	InChI=1S/C7H12O2/c1-2-4-5-3-9-7(5)6(4)8/h4-8H,2-3H2,1H3/t4-,5+,6-,7+/m1/s1
