19
gdb 117211	3.65022	0.90567	0.77955	3.1678	74.19	-0.239	-0.0131	0.2259	1496.8562	0.155601	-460.14494	-460.134953	-460.134008	-460.180466	35.73	
C	-0.0488277931	 1.3661582284	-0.1069355219	-0.223348
O	 0.05335377	-0.0340673402	 0.0017351897	-0.21262
C	 0.6222171721	-0.6214795511	-1.1275061563	-0.158612
C	 0.6845786247	-2.1342014494	-0.9489018205	 0.286691
O	 0.2966087921	-2.6929150078	 0.0503618206	-0.308045
C	 1.2482309702	-2.8990151517	-2.1137318278	 0.269793
O	 1.6893350346	-2.142324065	-3.2087821932	-0.457225
C	 1.9182372177	-4.2269360019	-1.8149941411	-0.305061
C	 0.5616741202	-4.2066607877	-2.4504732167	-0.268904
H	 0.938118071	 1.8413196181	-0.227059291	 0.102418
H	-0.6787443323	 1.6664737914	-0.9592774048	 0.105672
H	-0.5056647152	 1.7293012923	 0.8163893425	 0.133151
H	 0.0551151505	-0.4022673332	-2.0491290115	 0.122557
H	 1.6453442467	-0.2455001534	-1.3165977089	 0.092468
H	 2.6052442529	-1.8879026477	-3.0529866805	 0.28855
H	 2.766782794	-4.4815629733	-2.4403707675	 0.117703
H	 1.9877282186	-4.5049022241	-0.7699210638	 0.143225
H	-0.2914448226	-4.4767868335	-1.8399121519	 0.14185
H	 0.4911083678	-4.4295459803	-3.5083839253	 0.129735
47.5518	89.8347	107.6696	135.6792	237.3492	258.0454	266.1529	296.7228	323.8525	375.1956	407.3985	452.9828	570.0658	600.3554	778.1728	792.1027	859.4612	874.9846	944.6046	983.3581	1014.1093	1021.3491	1055.7544	1088.7458	1097.3854	1174.9371	1183.8438	1205.0105	1238.3613	1250.1265	1266.1998	1310.824	1347.4542	1408.9236	1436.9123	1459.5152	1471.8379	1486.5529	1488.5579	1512.6912	1807.5493	2933.7816	2966.2729	2972.1847	3012.0692	3118.8162	3138.2031	3147.0712	3233.9131	3249.8828	3800.4859
COCC(=O)C1(O)CC1	COCC(=O)C1(O)CC1	
InChI=1S/C6H10O3/c1-9-4-5(7)6(8)2-3-6/h8H,2-4H2,1H3	InChI=1S/C6H10O3/c1-9-4-5(7)6(8)2-3-6/h8H,2-4H2,1H3
