18
gdb 14212	2.69815	2.49354	1.82851	1.8249	71.72	-0.2209	0.0907	0.3116	831.5081	0.153177	-347.750848	-347.743379	-347.742435	-347.782055	29.033	
C	-0.0371985723	 1.4078138587	-0.0304874273	-0.509114
C	-0.0182968234	-0.0820499927	 0.00773651	 0.432458
O	 0.9572025463	-0.7870172307	-0.7698222709	-0.331349
C	 0.194804674	-1.993190545	-0.4895839533	 0.025956
C	 0.4546900475	-2.2498039432	 1.0157727278	-0.236574
C	-0.3460927205	-0.9676462386	 1.2332262821	-0.204837
C	-1.0755053408	-1.131897969	-0.1069780819	 0.23572
C	-2.5159652511	-1.1521083967	-0.4992909218	-0.532892
H	 0.8923941281	 1.8183732164	 0.3782992942	 0.133465
H	-0.1507983981	 1.7729290946	-1.0562269293	 0.129366
H	-0.8683623315	 1.7934813761	 0.5676585882	 0.123477
H	 0.293145403	-2.7588346769	-1.2572049073	 0.081358
H	-0.0867803375	-3.1281799434	 1.3779412377	 0.098794
H	 1.5036620518	-2.2887286029	 1.3265569707	 0.097332
H	-0.7355197187	-0.555472544	 2.1566207459	 0.083286
H	-3.0539182559	-0.3205265432	-0.0308851914	 0.12394
H	-2.6393165482	-1.0587154677	-1.5843171331	 0.126771
H	-3.0092017528	-2.0792474418	-0.1845627405	 0.122843
167.4086	185.3346	198.1226	230.7746	289.016	309.6987	473.0132	563.4384	605.5872	647.5256	734.2687	775.7709	832.1777	875.0874	908.7461	927.5072	935.3492	946.5708	995.7664	1059.021	1101.3559	1105.706	1126.6699	1131.0371	1153.5062	1182.9322	1222.2812	1269.0122	1287.5891	1327.1493	1410.503	1412.6674	1472.2589	1479.6182	1485.7566	1489.2699	1495.6334	1516.7841	3020.2243	3033.9334	3044.5924	3079.7941	3090.0614	3098.7593	3105.2746	3111.5482	3136.1181	3186.6277
CC12OC3CC1C23C	C[C@@]12O[C@H]3C[C@@H]1[C@@]23C	
InChI=1S/C7H10O/c1-6-4-3-5(6)8-7(4,6)2/h4-5H,3H2,1-2H3	InChI=1S/C7H10O/c1-6-4-3-5(6)8-7(4,6)2/h4-5H,3H2,1-2H3/t4-,5+,6-,7-/m1/s1
