13
gdb 43913	2.95514	1.49673	1.15436	4.1379	65.23	-0.2667	-0.0232	0.2435	1015.5975	0.087695	-456.51224	-456.504868	-456.503923	-456.544274	27.505	
O	-0.1310367624	 0.2122929395	-0.5636553635	-0.305821
C	 0.0111091925	 1.3031471167	-0.125331716	 0.451296
O	-0.9632432611	 2.1382979709	 0.3962459358	-0.279853
C	-0.0016478366	 3.2138224832	 0.6680781214	 0.205391
C	 0.6674835967	 3.0275613295	 2.0460692508	-0.123699
O	 1.6660602437	 2.1386232261	 1.4845630281	-0.277555
C	 1.1487606585	 2.3020116261	 0.1554851063	-0.134888
C	-0.4066510682	 4.4991966557	 0.185941627	 0.242202
C	-0.7259224546	 5.5914414966	-0.1992110196	-0.385746
H	 1.1296225484	 3.9365235159	 2.442356161	 0.131838
H	 0.0384226218	 2.5467840839	 2.8003510823	 0.136716
H	 1.8994344618	 2.5209582741	-0.6029970047	 0.128953
H	-1.0154917703	 6.5539578919	-0.544572129	 0.211166
102.8674	151.7661	192.7031	246.9408	373.0146	429.2721	491.3511	501.7235	579.4813	647.7143	686.7435	701.9342	763.2922	834.7658	854.9852	955.0948	995.6466	1010.8312	1038.25	1061.0277	1143.1142	1159.7992	1180.3109	1266.7036	1276.8505	1354.464	1498.0215	1951.9036	2246.8898	3051.1384	3115.5555	3132.8228	3496.5417
O=C1OC2(COC12)C#C	O=C1O[C@]2(CO[C@@H]12)C#C	
InChI=1S/C6H4O3/c1-2-6-3-8-4(6)5(7)9-6/h1,4H,3H2	InChI=1S/C6H4O3/c1-2-6-3-8-4(6)5(7)9-6/h1,4H,3H2/t4-,6-/m0/s1
