23
gdb 110220	2.06367	1.37651	1.25313	1.13	86.94	-0.2275	0.0845	0.312	1233.2031	0.203852	-388.263688	-388.253556	-388.252612	-388.298127	37.801	
C	 0.3290021056	 1.0373927431	 0.3459087313	-0.2331
O	-0.3410329635	-0.0138329505	-0.3184038368	-0.239393
C	 0.4463864967	-0.6255271507	-1.2957442213	 0.036772
C	 1.4712629012	-1.6886464719	-0.9925964745	 0.247331
C	 2.8936394557	-1.6314806672	-1.4757383107	-0.498488
C	 0.9880590544	-2.519052043	 0.2053046858	-0.274541
C	-0.3383318404	-2.8402473991	-0.5473016727	-0.268349
C	 0.1415471236	-2.0132342202	-1.7490993967	 0.234208
C	-0.1248601029	-2.371046916	-3.1847844233	-0.497919
H	 1.2367696099	 0.6851728898	 0.8568148565	 0.10827
H	 0.6162070291	 1.8393739868	-0.3519364389	 0.102952
H	-0.3622580247	 1.4466962932	 1.0867152266	 0.124645
H	 0.7445278989	 0.0557542255	-2.0980878272	 0.070177
H	 3.5383017013	-1.1134929786	-0.7542060099	 0.117739
H	 3.3096204245	-2.6354032435	-1.6231720103	 0.114638
H	 2.9740005647	-1.096811105	-2.4283219581	 0.114547
H	 1.6016830715	-3.409320147	 0.3658997936	 0.094625
H	 0.8933912063	-1.9836852074	 1.1548502025	 0.095846
H	-0.4322582667	-3.9021581992	-0.7890213093	 0.092802
H	-1.2631352767	-2.4985207771	-0.0760660956	 0.10602
H	-1.1840404447	-2.2317122575	-3.4350875863	 0.123198
H	 0.4589054953	-1.7485472971	-3.8710116034	 0.114068
H	 0.1263696409	-3.4185086373	-3.3882990613	 0.113953
102.0321	151.0598	169.1216	180.0734	190.1528	198.6377	208.6395	264.8682	290.7562	325.5567	398.9713	531.6034	557.02	573.7574	658.0088	790.9816	795.1991	829.0106	944.1738	952.8574	971.368	990.8909	1035.4751	1044.7957	1062.5958	1110.0375	1139.5206	1157.5828	1182.0795	1205.7771	1224.3922	1232.7725	1244.3496	1251.2012	1272.5507	1329.0533	1335.4347	1410.2902	1418.3807	1452.6686	1472.8249	1483.9756	1484.9052	1485.8899	1488.7665	1495.8432	1499.4322	1507.2908	1523.2221	2978.3068	3013.5266	3017.7881	3029.3027	3048.2139	3058.8693	3061.5124	3068.931	3075.0677	3088.5328	3093.0309	3093.7381	3113.7968	3114.1143
COC1C2(C)CCC12C	CO[C@H]1[C@@]2(C)CC[C@@]12C	
InChI=1S/C8H14O/c1-7-4-5-8(7,2)6(7)9-3/h6H,4-5H2,1-3H3	InChI=1S/C8H14O/c1-7-4-5-8(7,2)6(7)9-3/h6H,4-5H2,1-3H3/t6-,7+,8-
