20
gdb 80360	2.2326	1.77395	1.21915	1.4975	84.97	-0.228	0.0354	0.2634	1098.9415	0.169079	-365.935135	-365.926077	-365.925133	-365.968068	35.571	
C	-0.4068469606	 1.440669607	-0.0820846024	-0.422506
C	-0.0077598713	-0.0168530248	-0.0744262218	 0.030338
C	 0.6543971133	-0.74993372	-1.1704473453	-0.046039
C	 1.6969146024	 0.0937605133	-1.8961529815	-0.314232
C	 2.419640942	 0.2376527184	-0.5179184377	 0.131657
C	 3.7111984221	-0.584334148	-0.4501811478	-0.419727
C	 2.6659541276	 1.5751650913	 0.0026842297	 0.331379
C	 2.9344078993	 2.666020086	 0.4330490282	-0.467862
N	 1.3392687488	-0.5816041508	 0.1877709812	-0.183711
H	 0.2172070625	 2.0607151542	-0.725385533	 0.132775
H	-1.4422632897	 1.5199238188	-0.4319220857	 0.115024
H	-0.3594750475	 1.8606643983	 0.9271893419	 0.131345
H	-0.7226959403	-0.6332334948	 0.469829863	 0.097045
H	 0.314546206	-1.7241928252	-1.5082273836	 0.092345
H	 2.2977076914	-0.4615962197	-2.6183038146	 0.11278
H	 1.3352431025	 1.0096027343	-2.3694123629	 0.111548
H	 4.4935270202	-0.1187820968	-1.0567330786	 0.11975
H	 4.0577529836	-0.6511091329	 0.5839795023	 0.133857
H	 3.5253949379	-1.5972048089	-0.8181870761	 0.118633
H	 3.1501155597	 3.6328841401	 0.8160930448	 0.195601
131.4439	137.8506	195.8226	229.9587	248.3987	258.089	300.5418	363.6801	442.2675	486.9897	522.1876	589.0465	621.6323	634.0057	649.7696	710.4335	774.0832	821.9056	883.6978	920.8956	929.394	959.8286	991.9623	1002.1667	1076.2239	1102.7141	1121.7293	1134.0014	1161.252	1186.8509	1250.5847	1269.7541	1274.8355	1356.7079	1402.7296	1415.9588	1440.8003	1479.0916	1484.7556	1489.1721	1495.6183	1503.3199	2224.9257	3040.9923	3042.4773	3067.9951	3100.5703	3110.8139	3119.8287	3122.6308	3129.5637	3149.2432	3156.2717	3499.7826
CC1C2CC(C)(C#C)N12	C[C@H]1[C@H]2C[C@@](C)(C#C)N12	
InChI=1S/C8H11N/c1-4-8(3)5-7-6(2)9(7)8/h1,6-7H,5H2,2-3H3	InChI=1S/C8H11N/c1-4-8(3)5-7-6(2)9(7)8/h1,6-7H,5H2,2-3H3/t6-,7+,8+,9?/m0/s1
