21
gdb 77931	2.40264	1.61678	1.11451	1.5556	78.5	-0.252	0.0669	0.3189	1138.3657	0.180802	-424.151018	-424.141399	-424.140455	-424.185008	36.918	
C	-0.185126901	 1.5628295148	 0.0146633846	-0.509025
C	-0.0452402895	 0.0261475862	 0.0004008346	 0.375757
C	-1.484448134	-0.5198024031	-0.1080737806	-0.509018
C	 1.1372829977	-0.5569916516	-0.875420152	-0.214821
C	 2.1428814213	-0.1358666174	 0.2701388136	 0.179246
O	 2.5887341125	 1.1771714822	 0.4841460181	-0.449429
C	 0.9138629551	-0.7343589856	 1.0040081291	-0.214814
C	 1.0673743196	-1.8826954299	-0.0723868448	 0.179242
O	 0.0987840891	-2.867775075	-0.3175700036	-0.449428
H	 0.7084246354	 2.0950229833	-0.3047472783	 0.139896
H	-0.9916170108	 1.8522451826	-0.6682851697	 0.113895
H	-0.4811035565	 1.9236984246	 1.0086161747	 0.110321
H	-1.8514008525	-0.4646293757	-1.1415489499	 0.110317
H	-1.6041414579	-1.5375516133	 0.2573616347	 0.139897
H	-2.150616778	 0.1146663555	 0.4871387216	 0.113893
H	 1.2831941906	-0.4492061581	-1.9533537923	 0.068491
H	 3.0392895469	-0.7629377039	 0.2858105844	 0.081447
H	 2.0100420527	 1.6126458312	 1.113300331	 0.292096
H	 0.7879444678	-0.8546923952	 2.0831337928	 0.068493
H	 2.018636198	-2.414832965	 0.022185707	 0.081445
H	-0.4881118466	-2.5719672266	-1.0164331951	 0.292097
71.6441	121.5194	180.5377	184.2807	230.2338	239.9205	338.7134	357.3295	369.4688	411.0486	462.2728	474.0864	536.7759	640.3476	700.1756	714.842	769.8521	817.5946	898.5991	939.3221	970.6927	974.7607	1005.1998	1045.8973	1065.5026	1074.8914	1083.8543	1120.6786	1176.4199	1178.7342	1184.1472	1211.2731	1252.3971	1269.0998	1297.8292	1314.037	1328.066	1401.1245	1418.5434	1458.1074	1491.2967	1498.5035	1505.4348	1532.3653	1536.3892	3018.5821	3022.9884	3044.9183	3061.9626	3074.0298	3075.1654	3078.6802	3087.3549	3156.5224	3156.9527	3865.5736	3866.3687
CC1(C)C2C(O)C1C2O	CC1(C)[C@H]2[C@@H](O)[C@@H]1[C@H]2O	
InChI=1S/C7H12O2/c1-7(2)3-5(8)4(7)6(3)9/h3-6,8-9H,1-2H3	InChI=1S/C7H12O2/c1-7(2)3-5(8)4(7)6(3)9/h3-6,8-9H,1-2H3/t3-,4+,5+,6-
