18
gdb 46661	2.9459	1.76395	1.35625	3.127	77.8	-0.2565	0.0231	0.2796	971.6327	0.150952	-401.888457	-401.881825	-401.88088	-401.919314	27.565	
N	-0.0786594499	 1.2556162117	 0.1597882544	-0.553004
C	-0.0497355861	 0.0034524175	 0.0112705071	 0.289086
O	 1.1068834284	-0.7556938391	-0.0511256618	-0.267619
C	 0.8451155842	-2.1715495362	-0.3280720699	-0.139714
C	-0.5775996105	-2.1706276838	-0.8785976187	-0.01602
C	-1.9396292676	-2.6674287009	-0.2769236898	-0.091954
C	-1.574532304	-1.9489558691	 1.0435072967	-0.253037
C	-1.1652850606	-0.9695834073	-0.1128735438	 0.282415
C	-2.5376466446	-1.2890156299	-0.7640689654	-0.299842
H	 0.8707697371	 1.6305598988	 0.2160339925	 0.221999
H	 1.5942456304	-2.4891273611	-1.0561682044	 0.118881
H	 0.9922197021	-2.7394461231	 0.5943678665	 0.119577
H	-0.581327131	-2.0604850332	-1.9672235587	 0.083248
H	-2.4008568618	-3.6486791647	-0.3944624473	 0.081255
H	-2.4060072927	-1.6132302539	 1.6662752203	 0.105241
H	-0.7805015835	-2.3791250427	 1.6540137755	 0.105044
H	-2.6085818531	-1.1373051038	-1.8434907887	 0.106778
H	-3.4303850069	-0.938412989	-0.2425927645	 0.107665
143.1563	199.6336	307.7735	358.1669	485.1571	524.6546	595.0335	617.8086	669.3897	687.456	778.2916	824.3919	872.0501	880.4763	901.0235	933.4883	949.8387	974.9351	990.7304	1007.4552	1040.8809	1071.6022	1099.4774	1113.4502	1139.9466	1151.577	1164.8884	1201.0436	1204.9064	1213.9472	1234.817	1237.3343	1331.6635	1375.6341	1405.8702	1495.7219	1516.7051	1547.3478	1785.0158	3058.8596	3062.1983	3066.0642	3078.8221	3106.6103	3113.7448	3136.9283	3143.3826	3460.9905
N=C1OCC2C3CC12C3	[NH][C]1OC[C@H]2[C@H]3C[C@@]12C3	
InChI=1S/C7H9NO/c8-6-7-1-4(2-7)5(7)3-9-6/h4-5,8H,1-3H2	InChI=1S/C7H9NO/c8-6-7-1-4(2-7)5(7)3-9-6/h4-5,8H,1-3H2/t4-,5-,7-/m0/s1
