20
gdb 113467	3.86197	1.05936	1.03079	1.0606	80.32	-0.2308	0.0806	0.3115	1267.0828	0.170193	-403.068263	-403.059678	-403.058734	-403.101586	32.683	
C	 0.340469055	 1.230544298	 0.3246584718	-0.229708
O	-0.3653355313	 0.2241532828	-0.3750160383	-0.243075
C	 0.4054538133	-0.4091258847	-1.3450951754	 0.062272
C	 1.3480249947	-1.5336928072	-0.944578564	-0.407447
C	 0.0579422199	-1.8230308769	-1.6501074885	 0.341354
C	-1.1242457617	-2.6531114442	-1.1464547503	-0.32881
C	-1.2288520506	-3.1525502492	-2.5891697479	-0.0219
C	-1.3231306491	-2.0319471399	-3.5431188241	-0.237114
N	 0.0174500728	-2.3911573475	-3.0256601332	-0.174731
H	 1.2216305347	 0.8235221351	 0.8406640332	 0.110386
H	 0.6748253761	 2.0329175869	-0.3500669798	 0.107259
H	-0.3463113819	 1.6516644549	 1.0626575311	 0.126543
H	 0.718490068	 0.2287611591	-2.1743808048	 0.089689
H	 2.2675817947	-1.6508465293	-1.5084623347	 0.122832
H	 1.4062774258	-1.7906154168	 0.1085965653	 0.116861
H	-0.8235839765	-3.4312503892	-0.4413974708	 0.112691
H	-1.9861986969	-2.114234402	-0.7445539891	 0.117082
H	-1.3861849041	-4.1842885344	-2.8853835157	 0.096301
H	-1.4441685979	-2.272938687	-4.5947711508	 0.118208
H	-1.7679317848	-1.0888704984	-3.2327195738	 0.121306
86.7272	118.4979	152.5533	187.1117	224.3005	328.305	345.5052	449.6421	461.5529	503.1886	618.989	761.2507	773.6651	803.0916	850.4583	904.0307	914.6834	939.8648	989.6725	998.3718	1015.9141	1044.3738	1057.5895	1088.2986	1104.3125	1118.616	1131.4785	1171.6806	1179.1666	1182.9281	1193.6484	1225.8068	1247.3608	1267.679	1330.3188	1364.215	1407.4688	1468.737	1485.2069	1486.9655	1492.2258	1505.7274	1509.9182	2984.9547	3036.7772	3062.7164	3080.8828	3106.1943	3114.3112	3118.0087	3125.1487	3166.7686	3200.2073	3219.0238
COC1CC11CC2CN12	CO[C@H]1C[C@]21C[C@H]1CN21	
InChI=1S/C7H11NO/c1-9-6-3-7(6)2-5-4-8(5)7/h5-6H,2-4H2,1H3	InChI=1S/C7H11NO/c1-9-6-3-7(6)2-5-4-8(5)7/h5-6H,2-4H2,1H3/t5-,6-,7-,8?/m0/s1
