19
gdb 116247	2.14448	1.46594	0.99969	1.1917	77.17	-0.2539	0.0332	0.2871	1238.1589	0.157712	-422.991435	-422.982032	-422.981088	-423.026451	33.804	
C	 0.0876444765	 1.6617913759	-0.0274197942	-0.386244
C	-0.0702003589	 0.1384167881	-0.0146541731	-0.207364
C	 0.6805066242	-0.5340325628	-1.1498458957	 0.106255
O	 2.0824502643	-0.3348952732	-0.9987725856	-0.25175
C	 2.6970503538	-1.2826106865	-1.8277970305	 0.023271
O	 1.8166623143	-2.3958621999	-1.9483176167	-0.26283
C	 0.6050547553	-2.0779752066	-1.2602656351	-0.093454
C	 0.5199227056	-2.7774348906	 0.0232166427	 0.365409
C	 0.4360731726	-3.367816577	 1.0666429865	-0.482623
H	 1.1410813332	 1.941483475	 0.0559509964	 0.137563
H	-0.3026143057	 2.095187487	-0.9550356732	 0.112758
H	-0.4542941018	 2.116022436	 0.8070109717	 0.114312
H	 0.2899513164	-0.2770811059	 0.9311891765	 0.123247
H	-1.129437857	-0.1339124058	-0.0983648971	 0.102579
H	 0.3501907046	-0.1218178053	-2.119164356	 0.073206
H	 2.8800599216	-0.8795024857	-2.8380055672	 0.093109
H	 3.644088565	-1.5860636708	-1.3667610473	 0.116818
H	-0.2320800754	-2.3838715905	-1.8977975042	 0.113557
H	 0.3673583615	-3.8919119814	 1.987985572	 0.202183
42.4111	98.545	124.6458	147.469	197.7491	216.4708	259.7115	364.1658	422.1892	483.7458	563.9963	630.8795	665.2904	737.17	754.5559	793.3508	858.0015	926.8003	952.3936	964.6676	1027.334	1035.7638	1083.1208	1131.1635	1134.8606	1160.7335	1176.7927	1220.2898	1270.4964	1299.2469	1311.9521	1355.8535	1374.4049	1409.3081	1416.6723	1433.7514	1475.4903	1497.8889	1508.5239	1549.2489	2234.0031	2952.3783	2961.9436	3037.9334	3039.8575	3046.9992	3054.9565	3088.204	3108.0507	3124.5114	3501.6343
CCC1OCOC1C#C	CC[C@H]1OCO[C@H]1C#C	
InChI=1S/C7H10O2/c1-3-6-7(4-2)9-5-8-6/h1,6-7H,4-5H2,2H3	InChI=1S/C7H10O2/c1-3-6-7(4-2)9-5-8-6/h1,6-7H,4-5H2,2H3/t6-,7+/m0/s1
