18
gdb 9351	7.57886	0.77582	0.71629	3.1739	65.96	-0.2668	0.0201	0.2869	1571.1138	0.151002	-422.105532	-422.095625	-422.094681	-422.141718	32.977	
C	 0.0914102248	 1.4349564072	 0.0084633588	-0.38379
C	-0.0436486498	-0.0904542593	 0.00159411	-0.190028
C	-1.4985266082	-0.5292989716	 0.0131587256	-0.042102
O	-1.5268145583	-1.9695766721	 0.0058041133	-0.252053
C	-2.7520627249	-2.5330086059	 0.0140596244	 0.432759
O	-3.7856855785	-1.9236603177	 0.0270941879	-0.333639
C	-2.6023276576	-4.0465852003	 0.0050147371	-0.190186
O	-3.8799267588	-4.6280018012	 0.015598957	-0.392817
H	 1.1432954459	 1.733575416	 0.0000698513	 0.120346
H	-0.3887792599	 1.8822062598	-0.8685678314	 0.121423
H	-0.3719832411	 1.8727515444	 0.8991946449	 0.121429
H	 0.4469915518	-0.5099995537	-0.8842386053	 0.108455
H	 0.4638073944	-0.5194079576	 0.8733330279	 0.108476
H	-2.0258321789	-0.1665358089	 0.902265225	 0.120568
H	-2.0426907297	-0.1571792831	-0.8618061897	 0.120557
H	-2.0133870452	-4.3155115341	-0.886263469	 0.118204
H	-1.9948399283	-4.3243326967	 0.8810744992	 0.11819
H	-3.7692554676	-5.582957765	 0.0022877029	 0.294209
38.3176	65.6265	76.0061	109.9659	178.0152	215.053	232.7719	250.8363	322.5935	342.4874	513.4518	591.6702	690.2403	760.3284	891.5517	894.3328	936.9022	1010.6447	1039.4597	1055.026	1135.4588	1147.8486	1189.5141	1202.5832	1245.953	1263.2186	1270.6418	1313.498	1335.2561	1412.0275	1421.2395	1459.59	1491.8329	1497.446	1500.2086	1505.6264	1521.3441	1848.9369	2976.8203	3002.5554	3034.5911	3035.5092	3045.0596	3064.505	3088.0392	3105.7437	3112.4406	3839.2587
CCCOC(=O)CO	CCCOC(=O)CO	
InChI=1S/C5H10O3/c1-2-3-8-5(7)4-6/h6H,2-4H2,1H3	InChI=1S/C5H10O3/c1-2-3-8-5(7)4-6/h6H,2-4H2,1H3
