23
gdb 84365	2.21213	1.52689	1.2192	1.6623	86.25	-0.2498	0.011	0.2608	1172.6266	0.204704	-388.309222	-388.299353	-388.298408	-388.34295	38.603	
C	-0.8447267684	 1.0475512978	-0.1128269713	-0.40344
C	 0.0286262045	-0.2043687149	-0.1433750506	-0.041405
C	 1.1093247518	-0.2050910288	-1.2653050685	 0.081072
O	 1.6323708743	 1.0837627666	-1.6035397295	-0.434127
C	 2.1763559252	-1.1061497711	-0.6921824333	-0.144923
C	 2.0175035963	-1.2783061576	 0.61929231	-0.071893
C	 0.7888306753	-0.5811915753	 1.1758852928	 0.241102
C	 1.2179718755	 0.6392558651	 2.017966139	-0.418346
C	-0.0466867706	-1.5259325712	 2.0572525606	-0.4334
H	-0.2477381918	 1.9551230555	-0.0005879123	 0.120079
H	-1.4051569186	 1.1452741141	-1.0481500284	 0.114093
H	-1.5707179836	 1.0057564577	 0.7061139643	 0.105908
H	-0.6172511396	-1.0632904221	-0.3666907041	 0.0722
H	 0.6878590732	-0.574360962	-2.2065043826	 0.08137
H	 2.2652698898	 1.3255331456	-0.9191037472	 0.27695
H	 2.9995270502	-1.4833162421	-1.2891852927	 0.096065
H	 2.6902157317	-1.837004022	 1.2644775918	 0.091824
H	 1.7772514019	 1.3674434097	 1.4228728964	 0.101258
H	 0.3495388693	 1.1506911406	 2.4456833549	 0.11773
H	 1.8614771067	 0.3273114302	 2.8479186162	 0.110193
H	 0.5050955943	-1.8185940147	 2.9578841302	 0.108152
H	-0.9735670788	-1.0401806829	 2.3823395708	 0.114604
H	-0.3148505084	-2.4386883683	 1.5157474935	 0.114933
85.1623	173.1447	216.0666	231.1653	248.2028	261.4849	269.7019	306.3284	317.5481	338.0222	379.2703	446.7298	516.9277	577.5189	637.9538	713.7166	758.7006	804.4121	837.1268	911.6799	939.7464	956.5907	981.685	987.3756	992.9994	1019.7828	1053.5622	1095.8863	1122.7926	1150.2847	1185.0225	1230.6755	1238.7267	1245.3453	1310.579	1335.5004	1359.1719	1371.8315	1395.2085	1407.2604	1421.9993	1428.7343	1480.4015	1483.4072	1493.6614	1498.3747	1504.7176	1509.6318	1678.5438	3015.2081	3022.4708	3030.3689	3039.1019	3051.9781	3087.2464	3095.9241	3098.1274	3099.2494	3105.0895	3126.4586	3164.1436	3198.7213	3810.066
CC1C(O)C=CC1(C)C	C[C@H]1[C@@H](O)C=CC1(C)C	
InChI=1S/C8H14O/c1-6-7(9)4-5-8(6,2)3/h4-7,9H,1-3H3	InChI=1S/C8H14O/c1-6-7(9)4-5-8(6,2)3/h4-7,9H,1-3H3/t6-,7-/m0/s1
