20
gdb 95027	2.40459	1.91405	1.39949	2.9161	76.64	-0.2229	0.0563	0.2792	992.5141	0.173442	-403.098146	-403.090542	-403.089598	-403.130002	30.74	
O	 0.1272797251	 1.2318764218	-0.560597196	-0.424459
C	 0.0240748743	-0.0521901283	 0.0308854677	 0.115812
C	 0.5230184079	-0.1209735661	 1.5033922795	-0.266606
C	-0.4082170271	-1.1125255733	 2.2457118792	-0.235425
C	-1.7121483711	-1.1606319531	 1.4271652181	-0.030211
C	-2.7986813199	-0.0911249905	 1.5974245251	-0.044811
C	-2.3398210661	 1.2932891225	 1.3732184538	-0.234204
N	-2.5854073941	 0.4601124908	 0.1861761171	-0.135585
C	-1.4435790076	-0.5283351015	 0.0406012242	 0.010026
H	 1.0607094449	 1.4580884419	-0.6181788832	 0.284013
H	 0.5901059384	-0.78703373	-0.5638591335	 0.067541
H	 1.572214134	-0.4295681968	 1.5584018529	 0.08993
H	 0.4696493604	 0.8798612053	 1.9415672568	 0.113218
H	 0.0436962966	-2.1101504251	 2.2662270965	 0.100318
H	-0.5748355746	-0.8193316654	 3.286717613	 0.104417
H	-2.1477246545	-2.1604949576	 1.3925697628	 0.075324
H	-3.79928686	-0.3018758011	 1.9635331116	 0.089408
H	-3.095413807	 2.0674775718	 1.4777748698	 0.117395
H	-1.3390210231	 1.6278842208	 1.6097743644	 0.121383
H	-1.6651946965	-1.1528441662	-0.8255007898	 0.082517
114.1854	142.5924	235.7854	276.7366	317.2349	415.5492	453.0547	526.691	609.0186	661.1221	724.6787	734.3249	774.6126	809.3794	837.5761	906.4735	929.2374	942.9132	985.5374	1005.8527	1041.8265	1050.8394	1079.6778	1094.7666	1097.7171	1114.6854	1152.4808	1168.8224	1202.981	1221.5691	1240.8124	1249.8787	1279.7689	1291.4336	1320.5959	1341.3138	1349.1453	1371.2251	1380.1436	1429.2737	1482.0853	1496.674	1520.585	2961.0915	3038.7417	3049.5087	3076.838	3088.8805	3095.4073	3102.9614	3131.6765	3151.0909	3234.1639	3820.9721
OC1CCC2C3CN3C12	O[C@H]1CC[C@H]2[C@H]3CN3[C@@H]12	
InChI=1S/C7H11NO/c9-6-2-1-4-5-3-8(5)7(4)6/h4-7,9H,1-3H2	InChI=1S/C7H11NO/c9-6-2-1-4-5-3-8(5)7(4)6/h4-7,9H,1-3H2/t4-,5+,6-,7+,8?/m0/s1
