17
gdb 104083	2.60294	1.56412	1.23937	3.5537	70.24	-0.2373	-0.0625	0.1748	1038.2073	0.136114	-458.993508	-458.985322	-458.984377	-459.026288	31.37	
O	-0.0320071403	 1.4267073467	-0.3034326246	-0.435156
C	 0.0473561682	 0.0382812327	-0.0323686792	-0.119377
C	-1.3685664698	-0.5516853161	 0.0310084742	 0.268813
O	-2.0808453641	-0.1833775615	-1.1398920667	-0.469763
C	-1.4457038018	-2.0753183253	 0.2146906322	-0.330957
C	-2.2996903704	-2.2690700708	 1.4422620107	-0.050749
C	-2.6782454127	-1.1199924912	 2.0197727773	-0.170743
C	-2.105648538	 0.0136115875	 1.2790843303	 0.366081
O	-2.1500537051	 1.1959425526	 1.5650418967	-0.37214
H	-0.578316496	 1.8083917761	 0.4030752718	 0.300787
H	 0.5970980609	-0.416838829	-0.8633148578	 0.114539
H	 0.5945967358	-0.1728157912	 0.8997467477	 0.094092
H	-1.7980126485	 0.7237865568	-1.329237026	 0.289504
H	-1.8930169875	-2.5360453992	-0.6717395244	 0.145104
H	-0.4584603539	-2.536490961	 0.3491473062	 0.121965
H	-2.5563092865	-3.2588623395	 1.8054311674	 0.123771
H	-3.2837614804	-1.0024789775	 2.9090112243	 0.12423
62.4022	180.1716	196.0631	254.906	311.5439	322.7207	372.8612	425.2372	481.1771	527.8076	641.2211	685.2205	693.7158	720.1001	763.5849	842.5986	915.6195	929.2346	957.0705	1004.1803	1053.464	1065.9885	1102.4804	1119.0752	1120.5742	1195.3639	1231.2633	1264.2391	1323.216	1363.0785	1364.9997	1418.3163	1460.5752	1461.8266	1495.878	1642.3409	1781.26	2984.5542	3028.1988	3072.003	3083.0285	3191.1265	3228.0959	3679.6772	3729.09
OCC1(O)CC=CC1=O	OC[C@@]1(O)CC=CC1=O	
InChI=1S/C6H8O3/c7-4-6(9)3-1-2-5(6)8/h1-2,7,9H,3-4H2	InChI=1S/C6H8O3/c7-4-6(9)3-1-2-5(6)8/h1-2,7,9H,3-4H2/t6-/m0/s1
