16
gdb 19461	5.10089	1.59774	1.55789	4.6812	68.51	-0.2525	0.0158	0.2682	854.5103	0.133904	-342.759765	-342.753506	-342.752562	-342.790037	24.785	
N	-0.0917429623	-1.1410311352	-0.1259101725	-0.327926
C	-0.0336316044	 0.0113582167	-0.0592709052	 0.290293
C	-0.0120523403	 1.4653350036	 0.0267285547	-0.12324
C	-0.1156281742	 2.0740368884	 1.4624913013	-0.018524
C	 1.3985068666	 1.7549123492	 1.5099297653	-0.195982
N	 1.4004377629	 2.0465567242	 0.0166769149	-0.118176
C	 1.0509671134	 3.5002681342	 0.0406488011	-0.167617
C	-0.0910577943	 3.5713166561	 1.1159668694	-0.248708
H	-0.6686867563	 1.8770077586	-0.7459186104	 0.11778
H	-0.8357260046	 1.7183000811	 2.1994019295	 0.08798
H	 2.0535009152	 2.398747316	 2.1023039882	 0.108707
H	 1.6336580685	 0.7046843607	 1.6867761532	 0.140369
H	 1.9388624107	 4.0733729397	 0.3147796759	 0.118419
H	 0.7291335151	 3.8181095567	-0.9536154038	 0.115935
H	-1.0409715998	 3.930262511	 0.7112056007	 0.109308
H	 0.1681787437	 4.1889874491	 1.9795461377	 0.111382
161.8425	166.8159	331.3067	400.9758	470.6742	532.9872	544.8743	679.7166	824.7197	835.6159	859.4045	865.9503	897.4321	907.0562	949.8216	968.639	997.7138	1046.2397	1055.3088	1092.9695	1128.881	1182.3961	1193.578	1245.5262	1249.2815	1261.1105	1265.0838	1304.0461	1324.5484	1364.3964	1499.2468	1507.1796	1529.5265	2358.7638	3062.7388	3067.1399	3071.2655	3077.231	3105.3457	3120.8703	3127.8793	3141.0926
N#CC1C2CN1CC2	N#C[C@H]1[C@H]2CN1CC2	
InChI=1S/C6H8N2/c7-3-6-5-1-2-8(6)4-5/h5-6H,1-2,4H2	InChI=1S/C6H8N2/c7-3-6-5-1-2-8(6)4-5/h5-6H,1-2,4H2/t5-,6+/m1/s1
