14
gdb 43005	2.32672	1.7326	1.33024	5.6748	65.69	-0.2687	-0.0598	0.2089	967.3246	0.101457	-436.698953	-436.691616	-436.690672	-436.731244	27.034	
O	 0.0280537955	 0.0634743782	 0.1404697268	-0.290063
C	-0.0508323016	 1.2537164897	 0.0406409222	 0.417931
C	-1.28454528	 2.0704490481	-0.2160193179	-0.079734
O	-1.317607698	 3.230912478	 0.6346791007	-0.226861
C	-0.8491307838	 3.3969907613	-0.6956017306	 0.055902
C	 0.6659692013	 3.4790675228	-0.7748176696	-0.271396
C	 1.1651847931	 2.2455252658	 0.0334935953	-0.264252
C	 1.5876091076	 2.5658595853	 1.3916619294	 0.289835
N	 1.9383411945	 2.8205036459	 2.4630612906	-0.319801
H	-2.2319848275	 1.5971881913	-0.4492046666	 0.13078
H	-1.4759498296	 3.994103379	-1.3521836264	 0.121706
H	 0.9909690016	 3.3981325341	-1.8164796635	 0.129649
H	 1.0422259275	 4.4223054397	-0.3733480818	 0.14958
H	 1.9920291894	 1.7364843407	-0.4683308286	 0.156723
71.3007	140.4549	176.5369	277.186	371.1566	407.455	491.1347	532.0935	579.3967	686.0845	712.3769	815.0399	854.3817	868.8176	889.103	951.9066	989.3216	1042.226	1067.7738	1107.6921	1153.2446	1192.1033	1211.6893	1246.2738	1304.382	1315.9964	1333.1075	1411.8115	1482.023	1865.9603	2358.9613	3065.6613	3089.4453	3120.9843	3160.5117	3190.747
O=C1C2OC2CC1C#N	O=C1[C@H]2O[C@H]2C[C@H]1C#N	
InChI=1S/C6H5NO2/c7-2-3-1-4-6(9-4)5(3)8/h3-4,6H,1H2	InChI=1S/C6H5NO2/c7-2-3-1-4-6(9-4)5(3)8/h3-4,6H,1H2/t3-,4-,6-/m0/s1
