21
gdb 40777	3.69691	1.12168	0.96305	1.6976	81.83	-0.2509	0.0889	0.3398	1283.4483	0.18419	-387.074517	-387.066487	-387.065543	-387.107503	31.568	
C	-0.1831015194	 1.3643792515	-0.2272891184	-0.274382
C	 1.2538514679	 1.0680774802	 0.1267107654	-0.279141
C	 0.246357031	-0.0525581177	 0.0570912989	 0.033736
C	-0.2115997182	-0.7615224413	 1.3122728486	-0.016988
C	-1.6167100659	-1.4160865137	 1.1937995902	-0.233505
C	-1.6117069589	-2.6228340915	 2.1622606412	-0.246604
C	-0.1520666692	-3.0289705462	 2.2216612935	 0.050904
O	 0.4752687574	-3.1059028787	 0.9317029267	-0.266887
C	 0.6767099409	-1.9256778945	 1.7267898396	 0.039292
H	-0.7923592801	 1.8682224333	 0.5165739363	 0.107224
H	-0.4168839472	 1.6400588727	-1.2496063818	 0.110676
H	 2.0030287876	 1.1387420768	-0.6539824726	 0.11204
H	 1.6062471858	 1.3757495743	 1.1062582376	 0.106454
H	 0.3259423897	-0.7111142187	-0.804082553	 0.09347
H	-0.209249204	-0.0413599859	 2.1441358373	 0.064295
H	-2.4197986053	-0.7071105938	 1.4075317479	 0.09744
H	-1.7579501836	-1.7693745882	 0.1694717468	 0.115635
H	-1.9368246987	-2.3328036417	 3.1694492719	 0.100393
H	-2.2665721236	-3.4339794173	 1.8287572282	 0.107695
H	 0.2021633044	-3.7518700302	 2.9526602571	 0.089378
H	 1.6999167794	-1.7549670692	 2.0532834686	 0.088875
73.7551	99.99	161.0661	259.7208	289.3241	378.2348	418.6693	478.7893	652.9383	666.9858	776.075	822.3549	824.6418	831.9148	858.7846	872.7209	902.5062	923.4192	942.1318	970.1414	1002.4955	1019.859	1045.4731	1057.1423	1075.7523	1083.7032	1114.2064	1143.1934	1168.3354	1198.287	1201.9866	1224.7556	1227.0983	1259.9639	1290.9879	1304.4651	1319.7504	1328.7106	1360.2705	1424.1875	1436.5693	1470.7238	1481.1661	1493.745	1507.2575	2996.8058	3032.5741	3068.7841	3081.8468	3114.8076	3126.6823	3131.4542	3136.6185	3141.9807	3149.7616	3204.6345	3219.8578
C1CC1C1CCC2OC12	C1CC1[C@H]1CC[C@H]2O[C@@H]12	
InChI=1S/C8H12O/c1-2-5(1)6-3-4-7-8(6)9-7/h5-8H,1-4H2	InChI=1S/C8H12O/c1-2-5(1)6-3-4-7-8(6)9-7/h5-8H,1-4H2/t6-,7-,8+/m1/s1
