23
gdb 63396	3.53743	0.96465	0.91454	1.6399	85.78	-0.2625	0.0795	0.342	1416.0396	0.204583	-388.267818	-388.258302	-388.257358	-388.302132	36.526	
C	-0.221076287	 1.4673203102	-0.1054751131	-0.434302
C	 0.0352764076	-0.0311555237	 0.0747695604	 0.348303
C	-1.2719110376	-0.8161660796	 0.0344879753	-0.451008
C	 1.1741841682	-0.5466434402	-0.8625617348	-0.27683
C	 2.1798056981	-0.4173166585	 0.3191015909	-0.001875
C	 0.9731615623	-0.322872683	 1.2907119309	-0.284669
C	 3.1728251205	-1.532995384	 0.4996872329	 0.068034
C	 3.5180904586	-2.0987965837	 1.8095226805	-0.182791
O	 2.6573574972	-2.8042967928	 0.9111653573	-0.234574
H	 0.7096365079	 2.0445198756	-0.0797721402	 0.108765
H	-0.7100584747	 1.6680136162	-1.0657535009	 0.110402
H	-0.8719737486	 1.8519322708	 0.6882719286	 0.11027
H	-1.7898124128	-0.6725139512	-0.9214922744	 0.109053
H	-1.0937091873	-1.8889214894	 0.1615928223	 0.116049
H	-1.9528864772	-0.4921717408	 0.8307824842	 0.109003
H	 1.0266508507	-1.5941851741	-1.1410098656	 0.107354
H	 1.3784066667	 0.0352024116	-1.7658021565	 0.090042
H	 2.7311649061	 0.5277151116	 0.2652422397	 0.073282
H	 1.0168917202	 0.4347884	 2.0780729431	 0.087583
H	 0.7582078707	-1.2972720677	 1.7376556051	 0.112134
H	 3.9250212771	-1.6079112329	-0.2892533495	 0.087959
H	 4.4974652215	-2.548152189	 1.9681677768	 0.113471
H	 3.0351188617	-1.7103298753	 2.7050834471	 0.114345
64.6373	88.6966	168.5936	220.031	224.4863	265.3968	300.9602	336.8681	375.2935	402.6505	459.1234	562.9367	579.7646	718.1608	813.1395	832.5584	877.0957	880.391	908.7606	941.4792	952.5008	963.5784	988.7194	1001.9127	1035.3299	1087.7879	1092.9386	1118.9449	1159.1564	1162.9806	1177.4331	1212.0675	1225.1787	1242.4283	1265.8736	1293.0745	1302.0042	1315.1468	1372.862	1402.2761	1419.4725	1429.9556	1470.5435	1483.4445	1484.3421	1497.6918	1502.7458	1505.9381	1528.7721	3016.0428	3021.4134	3044.0335	3047.2434	3053.9786	3079.3374	3080.1481	3085.6034	3087.4577	3089.7192	3094.274	3104.5094	3112.1131	3169.461
CC1(C)CC(C1)C1CO1	CC1(C)CC(C1)[C@H]1CO1	
InChI=1S/C8H14O/c1-8(2)3-6(4-8)7-5-9-7/h6-7H,3-5H2,1-2H3	InChI=1S/C8H14O/c1-8(2)3-6(4-8)7-5-9-7/h6-7H,3-5H2,1-2H3/t7-/m1/s1
