21
gdb 118107	3.07808	0.83324	0.78655	1.0191	75.05	-0.2553	0.0622	0.3176	1547.5996	0.180184	-461.336099	-461.325742	-461.324798	-461.371643	38.343	
O	-0.0231461202	 1.3934833946	-0.2744380194	-0.425679
C	 0.0430995476	 0.0076365058	 0.0349047219	-0.081654
C	-1.347576201	-0.5793557668	-0.1633227349	-0.194056
C	-1.4098027641	-2.0793795708	 0.1597266858	 0.066625
O	-0.9761688918	-2.34068557	 1.4895394675	-0.441155
C	-2.8039091518	-2.6510128206	-0.0380517016	 0.397576
O	-3.7204073171	-2.1707965755	 0.9228868037	-0.478818
C	-3.3200490239	-3.0030371058	-1.405582322	-0.329543
C	-2.9873252081	-4.0898054031	-0.398478794	-0.306688
H	 0.8338673753	 1.7831487021	-0.0792421014	 0.284711
H	 0.7608742021	-0.5121201987	-0.6219692373	 0.080385
H	 0.3629065386	-0.1639418346	 1.0712006781	 0.105814
H	-2.0448293322	-0.0308833213	 0.4836712178	 0.088111
H	-1.6650781572	-0.4102442553	-1.1993891524	 0.103464
H	-0.714306021	-2.6151037835	-0.4993087426	 0.078466
H	-1.7529465314	-2.19734733	 2.0461772189	 0.284741
H	-3.981070242	-1.2786262603	 0.6672409285	 0.289136
H	-4.369634688	-2.813147333	-1.6013789946	 0.116334
H	-2.6655575349	-2.8663070322	-2.2602612029	 0.115899
H	-2.1028423564	-4.696079298	-0.5581645338	 0.121544
H	-3.8195214623	-4.603700853	 0.0679148845	 0.124787
67.0542	93.6423	109.9677	123.5571	232.3277	266.1309	280.5112	295.9451	318.7738	357.8281	389.6261	458.3456	483.8499	548.0888	569.6401	773.1318	791.9928	816.6357	896.1882	915.4006	942.4081	965.7119	985.7529	1031.8421	1053.3237	1073.2394	1078.7712	1100.1407	1114.8196	1187.377	1209.3818	1221.365	1252.8493	1285.6696	1304.3623	1315.5605	1327.0741	1355.7166	1388.3262	1442.4519	1455.7305	1459.8537	1485.5407	1502.605	1531.7892	2960.8362	3019.7113	3029.2611	3031.3482	3072.6111	3131.0042	3142.8694	3216.5124	3235.5676	3766.383	3794.8697	3830.3685
OCCC(O)C1(O)CC1	OCC[C@@H](O)C1(O)CC1	
InChI=1S/C6H12O3/c7-4-1-5(8)6(9)2-3-6/h5,7-9H,1-4H2	InChI=1S/C6H12O3/c7-4-1-5(8)6(9)2-3-6/h5,7-9H,1-4H2/t5-/m1/s1
