19
gdb 79237	2.35946	1.65215	1.39122	0.6969	74.54	-0.238	0.0651	0.3031	1026.3591	0.158164	-422.972914	-422.964319	-422.963375	-423.005417	33.799	
C	-0.0946176697	 1.5319886996	 0.0118845408	-0.512371
C	-0.0917123586	 0.0277565873	 0.0040636794	 0.196303
C	 0.4768781781	-0.7859194987	-1.1930516855	-0.285528
C	-0.4769144373	-1.9035434513	-0.7740488254	-0.125658
C	-0.5175289016	-1.919230709	 0.7829104369	-0.231453
C	 0.3798055291	-0.7860716342	 1.257330432	 0.142934
O	 1.7516569442	-0.9889053995	 1.4944940716	-0.447787
C	-1.3561811553	-0.9547526031	-0.0255489083	 0.340436
O	-2.7071648466	-0.7496971719	-0.1299257972	-0.451539
H	 0.9300220793	 1.9171876878	 0.0730314444	 0.128677
H	-0.5541227997	 1.939627319	-0.8947523882	 0.120606
H	-0.6463553117	 1.927126075	 0.8726884804	 0.110513
H	 0.179840455	-0.347132053	-2.1496597561	 0.105274
H	 1.5586436845	-0.9731745233	-1.2062276322	 0.075965
H	-0.7789818038	-2.7835786284	-1.326572469	 0.092404
H	-0.8412434058	-2.8040070509	 1.3166339816	 0.087553
H	-0.0158213367	-0.324863442	 2.1687012567	 0.078348
H	 2.0881155869	-1.5762111978	 0.8104418096	 0.283897
H	-3.0483627502	-0.4888861455	 0.7328473686	 0.291426
155.6282	170.101	184.2827	223.3061	279.1202	293.1228	321.2464	361.6005	405.1977	535.3276	565.4524	610.5557	669.9518	712.6794	768.9942	797.8331	889.2029	913.2705	922.0726	946.8665	988.5609	997.2884	1019.6215	1074.5188	1094.0198	1115.0378	1133.2214	1174.223	1209.6131	1226.8616	1247.2136	1270.5728	1279.1867	1320.3205	1351.9827	1410.9969	1434.0895	1477.9696	1489.0019	1495.2726	1509.7632	3016.2783	3022.5971	3057.3025	3084.987	3090.7191	3094.3099	3194.0174	3206.1402	3790.6632	3823.9478
CC12CC3C(C1O)C23O	C[C@@]12C[C@H]3[C@@H]([C@H]1O)[C@@]23O	
InChI=1S/C7H10O2/c1-6-2-3-4(5(6)8)7(3,6)9/h3-5,8-9H,2H2,1H3	InChI=1S/C7H10O2/c1-6-2-3-4(5(6)8)7(3,6)9/h3-5,8-9H,2H2,1H3/t3-,4-,5+,6+,7+/m0/s1
