14
gdb 36117	3.85275	1.18288	1.06199	5.7442	64.72	-0.2703	0.0096	0.2799	1099.8445	0.099132	-436.593242	-436.585834	-436.58489	-436.625846	27.635	
N	-0.0260423931	-1.1413259623	 0.2755507332	-0.294093
C	-0.0306998669	 0.0098302031	 0.1836743609	 0.265396
C	-0.0335288432	 1.4689530656	 0.0446037432	-0.466017
C	 1.3473661813	 2.0359417103	-0.1234841219	 0.418498
O	 2.1466770732	 2.3082100402	 1.0191704235	-0.243079
C	 1.8945691796	 3.3741186566	 0.0982416668	-0.116211
C	 2.8597399825	 3.1879189544	-1.1422443125	-0.009992
O	 3.6557568612	 2.030554241	-0.910326411	-0.199552
C	 2.3219468782	 1.846325916	-1.3664531274	-0.065001
H	-0.6537104171	 1.7311284008	-0.8210839454	 0.163194
H	-0.4988278085	 1.9149902949	 0.9295318238	 0.173495
H	 1.4450660528	 4.2863008194	 0.4707719349	 0.122263
H	 3.2205099801	 3.9469461971	-1.824159878	 0.123185
H	 2.14749671	 1.2706038428	-2.2667877899	 0.127913
55.6676	100.5602	250.7288	276.0286	382.6502	424.0306	451.3313	475.0854	658.4938	700.8222	772.8617	778.2356	825.9221	856.7138	868.687	922.9897	954.1044	978.2517	992.7195	1006.7749	1033.9829	1118.8475	1192.7729	1213.2581	1239.4932	1279.6603	1316.9633	1366.2878	1443.1214	1464.9817	2368.5547	3042.6075	3092.318	3195.11	3199.6528	3213.5588
N#CCC12OC1C1OC21	N#CC[C@]12O[C@H]1[C@H]1O[C@@H]21	
InChI=1S/C6H5NO2/c7-2-1-6-4-3(8-4)5(6)9-6/h3-5H,1H2	InChI=1S/C6H5NO2/c7-2-1-6-4-3(8-4)5(6)9-6/h3-5H,1H2/t3-,4+,5-,6+/m0/s1
