20
gdb 78778	2.65411	1.77018	1.35576	2.9832	77.95	-0.2336	0.0666	0.3002	1023.3236	0.170082	-403.084289	-403.075888	-403.074944	-403.11644	33.698	
C	-0.0615157574	 1.62054585	-0.0256289912	-0.427445
C	 0.0886854714	 0.1103525923	-0.0886718653	 0.09187
C	 0.7275956226	-0.6730409538	-1.2578215868	-0.188897
C	 1.2331274221	-1.6490620748	-0.1276922928	-0.047035
C	 2.353012824	-0.6995463372	 0.0780740601	-0.095794
N	 1.0689863895	-0.5502539405	 0.8524693319	-0.169788
C	 2.2114375946	-0.1751136335	-1.3441108685	 0.430274
C	 3.0358555057	-0.9889990017	-2.343094676	-0.450264
O	 2.4847932677	 1.2040640101	-1.5047523171	-0.478671
H	 0.886167477	 2.1351890987	-0.1713602079	 0.148386
H	-0.7626678894	 1.9606501763	-0.796871396	 0.104184
H	-0.4775878193	 1.9009885484	 0.9478657118	 0.116462
H	-0.8764730295	-0.3542598014	 0.1458403641	 0.07835
H	 0.1807686471	-0.9255312349	-2.1666436006	 0.060771
H	 1.1092682926	-2.7017340258	 0.0854474699	 0.096453
H	 3.2568708862	-0.8130563835	 0.6627002375	 0.095067
H	 2.8554941581	-2.0622663115	-2.2442307215	 0.127658
H	 2.7806081047	-0.7016135133	-3.3710977056	 0.106262
H	 4.1038225292	-0.7995457415	-2.1963856592	 0.126374
H	 2.479801003	 1.4091983776	-2.4454812167	 0.275784
165.1122	173.6624	238.3019	248.8806	260.187	285.3131	328.1315	383.9445	404.3498	565.7347	597.5743	638.7104	710.8386	762.7224	797.5288	836.0284	881.2441	897.6036	909.5918	939.2216	968.8351	995.8786	1033.4485	1043.1462	1096.1923	1110.9297	1128.8395	1142.6611	1151.4686	1180.7577	1204.545	1216.3911	1245.8327	1279.3358	1330.6971	1389.8733	1398.735	1409.7184	1417.9995	1487.7445	1490.3307	1497.8665	1506.0306	3022.9258	3029.1931	3038.8128	3089.6429	3092.8535	3111.9733	3122.7593	3172.3742	3199.0936	3215.1525	3810.7207
CC1C2C3C(N13)C2(C)O	C[C@H]1[C@@H]2[C@H]3[C@H](N13)[C@]2(C)O	
InChI=1S/C7H11NO/c1-3-4-5-6(8(3)5)7(4,2)9/h3-6,9H,1-2H3	InChI=1S/C7H11NO/c1-3-4-5-6(8(3)5)7(4,2)9/h3-6,9H,1-2H3/t3-,4+,5-,6-,7+,8?/m0/s1
