19
gdb 103319	3.25689	1.34535	1.14619	2.9671	75.96	-0.2392	0.009	0.2482	1116.5345	0.157477	-422.981498	-422.972734	-422.97179	-423.014787	33.228	
C	 0.1306959588	 1.3261511921	 0.1757476862	-0.256541
O	-0.1537873277	-0.0144124176	-0.1752728888	-0.294792
C	 0.5849552717	-0.534741858	-1.2543986593	 0.470388
C	 0.1560177927	 0.0859993562	-2.577928459	-0.483166
C	 2.1340621672	-0.7838528718	-0.9937290515	-0.252428
C	 1.6783632817	-1.8738515481	 0.0428777097	-0.245839
C	 0.6996585899	-2.0990826326	-1.1663232119	-0.23578
C	 1.974630964	-1.9273209373	-2.0012584239	 0.443284
O	 2.563759177	-2.4481537824	-2.8982255095	-0.334616
H	 1.1952385522	 1.469280348	 0.4086674114	 0.111708
H	-0.1540054541	 2.0359871482	-0.6121678028	 0.115388
H	-0.4578953526	 1.5462558312	 1.0693573872	 0.132499
H	 0.4104481422	 1.1491338241	-2.6238102586	 0.123718
H	 0.6411502837	-0.4044795239	-3.4254645591	 0.145641
H	-0.9278809942	-0.0075772379	-2.6948424385	 0.131271
H	 2.9358244084	-0.0544943962	-0.8997156472	 0.089064
H	 2.3871785611	-2.672916139	 0.2613939693	 0.114259
H	 1.197349676	-1.4806635434	 0.9344767622	 0.131809
H	-0.105992138	-2.8244217218	-1.2549117962	 0.094133
76.1623	152.3852	163.7833	186.719	216.1016	310.2767	350.441	417.7691	428.2021	499.5838	536.3976	631.9055	705.6798	734.3013	774.69	812.7459	880.7621	923.0701	965.9561	1025.3774	1027.9559	1039.9363	1090.8686	1099.8133	1131.9514	1143.1076	1167.3569	1180.8316	1190.061	1204.7879	1225.9541	1242.9621	1271.6579	1414.3765	1474.4147	1482.6384	1489.5507	1497.5711	1507.297	1510.2472	1914.6696	2996.9201	3043.594	3053.1931	3096.2507	3110.9574	3118.995	3125.621	3143.631	3150.7696	3184.0916
COC1(C)C2CC1C2=O	CO[C@@]1(C)[C@H]2C[C@@H]1C2=O	
InChI=1S/C7H10O2/c1-7(9-2)4-3-5(7)6(4)8/h4-5H,3H2,1-2H3	InChI=1S/C7H10O2/c1-7(9-2)4-3-5(7)6(4)8/h4-5H,3H2,1-2H3/t4-,5+,7-
