15
gdb 42695	2.92547	2.15346	1.9054	5.1553	66.07	-0.2462	-0.0099	0.2363	784.1595	0.116077	-416.801705	-416.796009	-416.795065	-416.831658	23.755	
O	 0.0048814307	 0.0058973464	 0.2039512334	-0.302683
C	-0.0135890976	 1.1842165813	 0.0228062507	 0.399578
N	-1.2192086724	 1.9727916622	-0.073580805	-0.163616
C	-1.2268354116	 3.0170523816	 1.0054563197	-0.053057
C	-0.0133946355	 3.0477565463	 1.9222052537	-0.262259
C	 1.1753365218	 3.0497393926	 0.9731402601	-0.053057
C	 0.7111607035	 3.3758381196	-0.3990905704	-0.061641
C	-0.8087777105	 3.3551561341	-0.3786429696	-0.061641
N	 1.167102768	 2.0052626123	-0.1056832319	-0.163616
H	-2.2130834066	 3.2307711753	 1.402629825	 0.115887
H	-0.0180659649	 3.9724726136	 2.5102937134	 0.124202
H	 0.0074941618	 2.2076591156	 2.6252083978	 0.140982
H	 2.1657306566	 3.2903549973	 1.3437225371	 0.115887
H	 1.2699828374	 3.9427380421	-1.1324096179	 0.112518
H	-1.4023362209	 3.9063754798	-1.0964591863	 0.112518
139.825	379.3654	379.7294	505.1618	626.0783	659.0367	691.4199	718.051	757.6417	825.1185	830.6069	847.082	852.646	905.1403	934.4774	953.1022	980.0007	997.571	1029.9587	1059.474	1074.6659	1093.6449	1114.9487	1195.2506	1250.9413	1251.7866	1268.7396	1304.8924	1307.4474	1377.2453	1394.9905	1477.9996	1887.4087	3045.3354	3084.9701	3172.2268	3173.8113	3196.9078	3207.1231
O=C1N2C3CC4C(C23)N14	O=C1N2[C@H]3C[C@@H]4[C@H]([C@@H]23)N14	
InChI=1S/C6H6N2O/c9-6-7-2-1-3-5(4(2)7)8(3)6/h2-5H,1H2	InChI=1S/C6H6N2O/c9-6-7-2-1-3-5(4(2)7)8(3)6/h2-5H,1H2/t2-,3+,4-,5+,7?,8?
