21
gdb 72922	2.49215	1.99578	1.52327	1.8267	80.58	-0.2426	0.0802	0.3228	969.279	0.185166	-387.062473	-387.055272	-387.054328	-387.093525	30.391	
C	-0.0741557233	 1.5138615727	-0.0282433811	-0.489593
C	 0.0281751038	-0.0019430048	-0.0344981315	 0.319354
C	-1.1936336217	-0.7631642467	 0.5331374283	-0.152955
O	-0.3764511337	-1.4787564611	 1.486591749	-0.305727
C	 0.8159061859	-0.7743945089	 1.0689449637	 0.106273
C	 1.8067570562	-1.5783715327	 0.210634172	-0.049979
C	 0.8978556929	-2.115932569	-0.9279484083	-0.240315
C	 0.7449907449	-0.6041185602	-1.2674518099	-0.085272
C	 2.2377721861	-0.4776726289	-0.8094787	-0.232608
H	 0.8738047124	 1.9924959522	-0.2925311701	 0.118887
H	-0.8251817927	 1.8516117729	-0.7527313059	 0.11706
H	-0.3747469607	 1.8882959657	 0.9560312473	 0.11909
H	-1.9238215995	-0.1186465909	 1.039582395	 0.093947
H	-1.7273501128	-1.436444048	-0.149060551	 0.096952
H	 1.2775735125	-0.2255636697	 1.8967188693	 0.067854
H	 2.5289142361	-2.2126535361	 0.7248861886	 0.062861
H	 1.4707436167	-2.6454186707	-1.6920573355	 0.093624
H	 0.0193923729	-2.6971482844	-0.6470177149	 0.110683
H	 0.4131584678	-0.2679950042	-2.2511950561	 0.058116
H	 2.5867116697	 0.484487117	-0.4226277944	 0.091711
H	 2.9420629665	-0.8547734943	-1.5538074345	 0.100036
199.75	205.8659	244.4421	294.734	361.7445	425.7495	480.5025	521.2951	606.9634	656.249	807.1375	844.6473	850.4323	852.0863	872.818	902.7677	934.1521	940.2495	972.4106	1003.1392	1010.8249	1024.2908	1033.0878	1051.3153	1067.8444	1083.1388	1101.1052	1157.9358	1180.2847	1200.7695	1219.7123	1236.0414	1240.7081	1246.4455	1254.8421	1301.6347	1309.2373	1344.4369	1372.968	1414.6847	1485.6165	1495.5726	1497.1454	1519.6115	1528.3169	3006.1088	3025.1509	3049.1689	3049.5973	3054.1972	3077.6368	3086.2137	3099.8101	3102.8792	3114.1007	3120.3554	3138.7565
CC12COC1C1CC2C1	C[C@]12CO[C@H]1[C@H]1C[C@@H]2C1	
InChI=1S/C8H12O/c1-8-4-9-7(8)5-2-6(8)3-5/h5-7H,2-4H2,1H3	InChI=1S/C8H12O/c1-8-4-9-7(8)5-2-6(8)3-5/h5-7H,2-4H2,1H3/t5-,6+,7-,8+/m0/s1
