18
gdb 88747	3.43462	0.91295	0.78801	3.5229	74.39	-0.2433	-0.022	0.2213	1429.1409	0.146172	-439.040697	-439.031677	-439.030733	-439.075523	32.991	
O	-0.2485015367	 1.4641322388	 0.4506184168	-0.416729
C	-0.0712262526	 0.1105963575	 0.1453532584	 0.08906
C	-0.6421322658	-0.9328169561	 1.068911967	-0.334397
C	-1.3016100541	-0.6510565271	-0.2700657049	-0.024829
C	-2.6194919031	 0.0540905593	-0.3178337533	-0.018695
N	-3.3477720103	 0.0238531387	-1.5780721592	-0.342127
C	-3.9481771728	-0.6540465072	-0.4078483398	-0.13665
C	-4.0372003253	-2.135761078	-0.4975416421	 0.182581
O	-4.8107434241	-2.8014026147	 0.1451325136	-0.263968
H	 0.3084646475	 1.6741206065	 1.2072222378	 0.292339
H	 0.8562028406	-0.1200652348	-0.377702372	 0.093815
H	-0.1147892282	-1.8703376784	 1.2056616934	 0.11937
H	-1.1576085186	-0.5664068517	 1.9511695846	 0.119415
H	-1.1619764462	-1.3882586897	-1.052928601	 0.104133
H	-2.6435329715	 0.9747470824	 0.2597453787	 0.110335
H	-3.8248203255	 0.9032563344	-1.75498062	 0.24482
H	-4.7841357894	-0.1903405587	 0.110531938	 0.101576
H	-3.3254936938	-2.5927452413	-1.219322776	 0.079951
34.2753	83.2302	144.1118	203.6967	218.9188	304.4145	310.609	400.4935	426.3697	468.621	502.1704	594.8314	770.0973	811.1854	846.9927	855.4281	908.1999	946.8326	983.296	999.2742	1022.8353	1042.8096	1059.0757	1081.1209	1131.6266	1151.3092	1170.4887	1203.8768	1227.1407	1231.3453	1256.2822	1297.6747	1327.8279	1366.7456	1415.5058	1429.0249	1470.1067	1495.6229	1821.8878	2897.6981	3105.53	3130.785	3141.1166	3150.1791	3173.7292	3220.9414	3516.339	3810.4356
OC1CC1C1NC1C=O	O[C@H]1C[C@H]1[C@H]1N[C@H]1C=O	
InChI=1S/C6H9NO2/c8-2-4-6(7-4)3-1-5(3)9/h2-7,9H,1H2	InChI=1S/C6H9NO2/c8-2-4-6(7-4)3-1-5(3)9/h2-7,9H,1H2/t3-,4+,5+,6-/m1/s1
