20
gdb 73529	2.49969	2.0767	1.35955	1.4116	85.18	-0.2235	-0.0091	0.2144	993.9043	0.172319	-365.933188	-365.925752	-365.924807	-365.964354	31.066	
C	 0.0466329232	 1.4524026542	 0.0539239934	-0.453077
C	-0.087346698	-0.0489196795	-0.0978263168	 0.362911
C	 0.9173492299	-0.6798139845	-1.0861577876	-0.284631
C	 0.1825102728	-1.6681423362	-2.0513272766	-0.250745
C	-0.4066082528	-2.6627738757	-1.0844932248	-0.126128
C	-1.1585976546	-2.1405778932	-0.1121640907	 0.114493
C	-0.768992344	-2.11578491	 1.3496480126	-0.193234
N	-0.6498276372	-0.5973864054	 1.2362020205	-0.195391
C	-1.4337769846	-0.6486753756	-0.0482668911	-0.155683
H	 1.0287785951	 1.7157403983	 0.4617672362	 0.121592
H	-0.0570903524	 1.9479357353	-0.9183205318	 0.112156
H	-0.7157934652	 1.8414346082	 0.732373559	 0.128969
H	 1.3930777341	 0.1321005162	-1.6491593179	 0.099261
H	 1.722601419	-1.2122269667	-0.5676139693	 0.109129
H	-0.5715378692	-1.1170124434	-2.6229697124	 0.113393
H	 0.8751719722	-2.124440135	-2.7625631046	 0.099955
H	 0.1268196927	-3.5965354879	-0.9178572004	 0.09118
H	-1.5606985972	-2.2916961481	 2.0847527498	 0.115487
H	 0.1376814538	-2.656459772	 1.6407338838	 0.103324
H	-2.3820275278	-0.1331240193	-0.1722169914	 0.087039
189.5574	216.5931	271.1398	283.5298	347.4416	408.4047	457.3546	473.5802	503.1302	597.9086	675.3594	723.4321	795.7347	823.9587	854.1472	882.9081	897.9586	922.16	938.2702	985.9426	1017.7866	1027.4085	1033.1085	1058.4685	1075.4347	1115.5814	1132.1328	1169.9409	1203.8453	1220.5622	1244.5753	1271.9953	1299.4814	1328.3452	1349.0806	1373.4128	1409.9823	1483.5643	1485.5873	1487.887	1495.7721	1502.1819	1689.3515	3027.5053	3032.7521	3036.0716	3048.8508	3071.4645	3089.3202	3090.0002	3104.02	3126.1473	3142.7497	3146.2789
CC12CCC=C3CN1C23	C[C@@]12CC[CH][C]3CN1[C@@H]23	
InChI=1S/C8H11N/c1-8-4-2-3-6-5-9(8)7(6)8/h3,7H,2,4-5H2,1H3	InChI=1S/C8H11N/c1-8-4-2-3-6-5-9(8)7(6)8/h3,7H,2,4-5H2,1H3/t7-,8+,9?/m1/s1
