15
gdb 78152	2.27023	1.78394	1.07656	2.9892	68.52	-0.2844	-0.0261	0.2584	1082.2623	0.113087	-453.977134	-453.969592	-453.968648	-454.009283	28.262	
C	-0.0355042586	 1.4930117044	 0.0117936024	-0.421988
C	 0.0363443284	-0.0067701631	-0.0802339186	-0.006872
C	 0.7303897398	-0.6908494886	-1.2069698496	-0.124329
N	 1.3827050774	-0.6173142512	 0.1171374473	-0.183804
C	 1.2764677178	-1.9278877529	 0.6656354993	 0.450796
O	 1.6287625231	-2.2885364157	 1.7394320298	-0.316172
O	 0.6907321071	-2.7937400622	-0.2555301276	-0.227973
C	 0.4094671649	-2.1235477961	-1.436362621	 0.427535
N	 0.0029424138	-2.6539264701	-2.4990334496	-0.533129
H	 0.8379019113	 1.9531451919	-0.4562643627	 0.140801
H	-0.9380399865	 1.8585277892	-0.4881378558	 0.137409
H	-0.0707517227	 1.8091165433	 1.0584479073	 0.146018
H	-0.7937193925	-0.5477637114	 0.3703474453	 0.128365
H	 1.1608948311	-0.1196906697	-2.0205523436	 0.139941
H	-0.1065685344	-3.6634706379	-2.3951622627	 0.243402
140.75	156.3963	197.1344	209.5953	271.3738	353.2933	428.6634	548.7262	638.7798	654.0861	713.9137	748.148	817.6393	845.8702	889.4473	903.3159	958.7707	992.5279	1011.4653	1062.596	1092.3168	1109.4662	1144.628	1175.31	1243.0091	1308.6317	1340.8025	1412.0492	1441.7958	1484.4933	1495.1159	1801.4361	1932.2314	3045.7141	3115.675	3124.289	3141.4918	3198.3118	3490.3566
CC1C2N1C(=O)OC2=N	C[C@H]1[C@H]2N1C(=O)O[C]2[NH]	
InChI=1S/C5H6N2O2/c1-2-3-4(6)9-5(8)7(2)3/h2-3,6H,1H3	InChI=1S/C5H6N2O2/c1-2-3-4(6)9-5(8)7(2)3/h2-3,6H,1H3/t2-,3+,7?/m0/s1
