16
gdb 93328	2.2596	1.72603	1.11018	3.0936	71.1	-0.2444	0.0252	0.2696	1072.3133	0.124179	-437.891175	-437.882718	-437.881774	-437.924318	31.77	
O	 0.0669616352	 1.4684372657	 0.2664954521	-0.433529
C	 0.0362231446	 0.0700958699	 0.0946711953	 0.122466
C	 0.613069244	-0.5625898382	 1.3751923054	-0.181271
N	-0.5612170346	-0.763588883	 2.2027833418	-0.315553
C	-1.7610237866	-0.6935283153	 1.5594426456	 0.433118
O	-2.8586095735	-0.8126375362	 2.0467353086	-0.371058
C	-1.4173091427	-0.4790595494	 0.0574726489	-0.350776
C	-2.3427115514	 0.3766231024	-0.657917891	 0.305025
C	-3.0549699886	 1.1328965365	-1.2634560328	-0.420262
H	-0.5962730111	 1.8518300758	-0.3227044974	 0.290001
H	 0.6032195597	-0.2344829442	-0.7948095082	 0.081733
H	 1.1273610498	-1.5077517315	 1.1544741112	 0.107684
H	 1.3260921685	 0.1257912017	 1.8364314519	 0.135005
H	-0.5257429278	-0.9397322188	 3.1937250845	 0.258218
H	-1.4094162801	-1.4789794078	-0.3983501191	 0.133399
H	-3.7191262855	 1.7751983723	-1.7876583969	 0.205802
74.9874	133.0867	161.0165	178.9168	355.2371	369.0652	394.9052	410.4973	463.1183	522.0344	544.5171	630.8817	651.4939	666.8486	716.3443	765.241	844.714	898.5623	960.2541	994.0133	1056.3476	1072.7195	1141.272	1196.421	1231.4639	1253.3604	1266.9841	1307.9422	1352.4504	1375.4671	1418.8609	1451.3436	1520.4544	1845.7832	2236.3642	3004.7636	3015.8182	3025.6798	3093.5098	3501.0462	3650.436	3753.9099
OC1CNC(=O)C1C#C	O[C@H]1CNC(=O)[C@H]1C#C	
InChI=1S/C6H7NO2/c1-2-4-5(8)3-7-6(4)9/h1,4-5,8H,3H2,(H,7,9)	InChI=1S/C6H7NO2/c1-2-4-5(8)3-7-6(4)9/h1,4-5,8H,3H2,(H,7,9)/t4-,5-/m0/s1
