17
gdb 41011	3.13877	1.97915	1.47338	1.8929	71.61	-0.218	0.0541	0.272	886.4316	0.138758	-417.871951	-417.865786	-417.864842	-417.902121	26.535	
C	-0.0375575808	 1.5020190764	 0.2500309211	-0.223688
N	 1.4489543079	 1.5093781498	-0.0309857101	-0.440877
C	 1.2280671268	 0.3379204852	-0.8649918471	 0.406669
C	 0.0115420745	-0.0324311412	-0.0654446106	 0.007541
N	-0.745834993	-0.8484524725	-1.0230432636	-0.352501
C	 0.2884337748	-1.0674730087	-2.0318655546	-0.020996
C	 0.8352527873	 0.3076769179	-2.4078177495	-0.00013
O	 2.1461586877	-0.2263488231	-2.7765696554	-0.315848
C	 1.8450073915	-0.912730559	-1.5260339829	-0.092342
H	-0.2990907363	 1.8099677276	 1.2651261211	 0.106982
H	-0.6301719884	 2.0618761856	-0.4834522025	 0.106907
H	 1.8053089938	 2.3281052682	-0.5140964109	 0.227862
H	 0.2552809482	-0.5761915504	 0.8532184022	 0.090662
H	-1.0883217912	-1.7078484441	-0.6094592222	 0.224218
H	 0.0798412332	-1.8004310101	-2.8090962182	 0.096246
H	 0.3899038072	 1.0748054421	-3.041523053	 0.091262
H	 2.5577583871	-1.6522667936	-1.1600564837	 0.088032
205.3484	324.1925	332.8555	411.9467	491.3977	572.8118	613.0677	664.2138	685.4462	745.0681	775.39	797.2235	855.001	878.5645	913.9724	937.6938	944.9419	978.781	999.3289	1034.0424	1074.041	1079.4799	1117.7733	1120.2479	1136.8601	1155.637	1162.0628	1186.9896	1220.385	1249.663	1290.5029	1311.5376	1319.9264	1364.7385	1391.3372	1427.7439	1506.0449	3030.1421	3047.9573	3105.4754	3114.9141	3120.2954	3151.6895	3519.4121	3541.6783
C1NC23C1NC1C2OC31	C1N[C@@]23[C@@H]1N[C@H]1[C@@H]2O[C@@H]31	
InChI=1S/C6H8N2O/c1-2-6(7-1)4-3(8-2)5(6)9-4/h2-5,7-8H,1H2	InChI=1S/C6H8N2O/c1-2-6(7-1)4-3(8-2)5(6)9-4/h2-5,7-8H,1H2/t2-,3-,4-,5+,6-/m1/s1
