16
gdb 62490	2.25774	1.76599	1.27656	3.4983	65.29	-0.252	-0.042	0.2099	1007.4625	0.123075	-475.078662	-475.069922	-475.068978	-475.112102	32.189	
C	 0.1027239832	 1.540142098	-0.034720666	-0.432831
C	-0.1102013002	 0.0150101306	-0.0028746929	 0.174616
O	-1.4756136411	-0.3162069137	 0.0176840155	-0.46113
C	 0.6188318318	-0.6239764717	-1.1932247503	 0.371816
O	 0.2482345151	-0.6770491572	-2.3308095541	-0.289629
C	 1.9510718214	-1.1955730862	-0.6687694817	-0.280507
N	 1.7904119856	-1.1319880169	 0.7740755611	-0.3326
C	 0.6112602136	-0.6005479336	 1.2036019881	 0.38116
O	 0.1669145137	-0.6079519273	 2.3328391472	-0.393444
H	 1.1616601282	 1.8107628515	-0.105703855	 0.120401
H	-0.4277730419	 1.948908011	-0.8980619924	 0.148766
H	-0.3041232837	 1.9747604877	 0.8827381907	 0.139907
H	-1.7106064718	-0.3819104258	 0.9550624556	 0.295991
H	 2.0859824479	-2.218191364	-1.037970568	 0.150355
H	 2.7909556039	-0.5898973535	-1.0328374538	 0.144864
H	 2.3898238544	-1.6251578689	 1.4183921061	 0.262263
55.3648	155.9699	192.8151	226.1798	235.3781	276.4831	312.8389	391.8188	419.744	523.4175	543.8715	592.6881	609.4731	675.4167	710.6821	762.0397	854.8707	942.3689	980.9337	1050.9364	1071.0234	1109.0048	1136.3116	1199.9149	1211.5391	1287.8973	1352.4866	1392.8919	1396.2739	1435.2271	1484.8887	1485.7826	1502.5986	1820.6779	1883.962	3025.2749	3037.0719	3071.4885	3112.4419	3134.4938	3625.0139	3734.0767
CC1(O)C(=O)CNC1=O	C[C@@]1(O)C(=O)CNC1=O	
InChI=1S/C5H7NO3/c1-5(9)3(7)2-6-4(5)8/h9H,2H2,1H3,(H,6,8)	InChI=1S/C5H7NO3/c1-5(9)3(7)2-6-4(5)8/h9H,2H2,1H3,(H,6,8)/t5-/m1/s1
