16
gdb 99554	2.14106	1.19684	0.9479	2.5112	70.15	-0.2749	-0.004	0.2709	1271.0318	0.123379	-434.064955	-434.055104	-434.05416	-434.100765	33.723	
C	-0.1488529606	 1.4626979439	-0.0585794793	-0.33285
N	-0.1144743624	-0.0003625971	 0.0042230515	-0.296503
C	 0.6497969209	-0.5428816261	 1.1192801295	-0.1312
C	-0.0960824367	-0.5329246407	 2.3942993716	 0.269366
N	-0.7165938556	-0.5065238948	 3.3690928544	-0.309646
C	 1.1003335477	-1.9948405268	 0.7627025622	-0.021458
O	 0.0430246201	-2.7472896121	 0.2243019541	-0.406753
C	 2.2525616784	-1.9306758824	-0.160004274	 0.262235
N	 3.1506252543	-1.8769795774	-0.8843132078	-0.306549
H	 0.8619970544	 1.8410439193	-0.2380114247	 0.143769
H	-0.7730965086	 1.7623381396	-0.9036276369	 0.139127
H	-0.5438422924	 1.9370249471	 0.8523560132	 0.129352
H	-1.0615355139	-0.3609831744	 0.0534144351	 0.242851
H	 1.5490249157	 0.0677722465	 1.2542538626	 0.152952
H	 1.4176125589	-2.5108835021	 1.6739311935	 0.161992
H	-0.1712272002	-2.3571632625	-0.6334966251	 0.303314
49.1189	54.159	120.0021	162.7271	186.469	209.3887	246.9542	302.9664	337.9923	402.9941	462.4789	502.9703	581.8036	598.7401	721.3194	793.1978	901.1784	928.1941	988.1294	1024.5052	1090.1945	1139.1846	1159.6875	1195.254	1261.9653	1300.7892	1329.9774	1348.9438	1427.0493	1461.9028	1487.3546	1493.2351	1516.4703	2349.9598	2361.4555	2994.2812	3065.7716	3082.1956	3084.2486	3125.7579	3531.0388	3775.1753
CNC(C#N)C(O)C#N	CN[C@@H](C#N)[C@@H](O)C#N	
InChI=1S/C5H7N3O/c1-8-4(2-6)5(9)3-7/h4-5,8-9H,1H3	InChI=1S/C5H7N3O/c1-8-4(2-6)5(9)3-7/h4-5,8-9H,1H3/t4-,5-/m0/s1
