19
gdb 6765	5.9442	0.71372	0.69021	2.9941	70.01	-0.2416	0.0375	0.2791	1648.5075	0.163644	-402.231056	-402.220805	-402.219861	-402.268708	34.246	
C	-0.168270746	 1.445713447	-0.1269042766	-0.481917
C	-0.2306405565	-0.0740907149	-0.0823583913	 0.406431
O	-0.9577917347	-0.6676792002	 0.6937606909	-0.372328
N	 0.580742342	-0.7127355303	-0.9788424378	-0.313574
C	 0.6011286901	-2.1569940988	-1.1295694444	-0.165262
C	 0.0382302897	-2.6205905821	-2.4770348698	-0.172407
C	 0.0623510587	-4.1363291977	-2.6258478683	-0.069405
O	-0.4275320601	-4.452357291	-3.9195959251	-0.420718
H	 0.6500624214	 1.8360733659	-0.7379762771	 0.109247
H	-1.1145567321	 1.8260985152	-0.5231924403	 0.151673
H	-0.0666977954	 1.8212547221	 0.893529813	 0.152423
H	 1.1289865961	-0.1584161891	-1.6154906707	 0.240884
H	 1.6286277246	-2.5240910276	-1.0035563088	 0.102039
H	 0.0038114789	-2.54981488	-0.3030161371	 0.150622
H	-0.9920007811	-2.265390845	-2.5863414687	 0.120074
H	 0.6162564083	-2.1833384291	-3.3012452847	 0.098353
H	 1.0913353161	-4.5090019709	-2.4875930051	 0.083352
H	-0.5571487196	-4.5958449086	-1.8388874077	 0.093874
H	-0.4521557005	-5.409668185	-4.0062589804	 0.286638
23.4102	36.6601	77.9716	84.8021	113.8339	214.6794	264.0447	285.5912	320.131	440.7809	462.7898	486.7682	621.1752	642.0756	763.0533	851.7928	935.6452	988.9016	1026.4234	1040.6851	1051.8928	1082.5348	1118.8474	1168.9391	1225.5533	1240.8864	1265.8946	1311.5536	1320.6306	1328.7756	1394.2405	1409.5485	1465.6445	1469.6476	1486.6969	1487.3196	1500.5122	1529.1161	1542.6618	1781.4868	2957.2076	2986.3997	3014.3166	3031.1906	3048.2468	3082.8339	3114.1063	3119.878	3137.3253	3645.8161	3830.6752
CC(=O)NCCCO	CC(=O)NCCCO	
InChI=1S/C5H11NO2/c1-5(8)6-3-2-4-7/h7H,2-4H2,1H3,(H,6,8)	InChI=1S/C5H11NO2/c1-5(8)6-3-2-4-7/h7H,2-4H2,1H3,(H,6,8)
