25
gdb 99779	1.83764	1.23688	0.8984	1.3541	88.71	-0.2532	0.0757	0.3289	1467.6346	0.227143	-389.482782	-389.471755	-389.470811	-389.518965	40.989	
C	-1.6882351961	-0.3323725565	-0.8419933118	-0.387111
C	-0.2338599191	-0.1991956224	-0.3776562519	-0.199128
C	 0.8226833413	-0.6239825565	-1.4190681443	-0.000036
C	 2.2631055135	-0.2719509459	-0.9624097562	 0.138916
C	 2.5610103359	 1.2278528533	-0.9087834894	-0.420454
O	 2.5917762917	-0.9065706811	 0.2746031079	-0.441759
C	 0.7442058445	-2.1073298894	-1.7447062602	 0.043294
C	-0.17188167	-2.6449197675	-2.8155166988	-0.278533
C	 1.320264466	-2.6367771893	-3.0349659219	-0.280605
H	-1.868518761	 0.2528381392	-1.7509664476	 0.109976
H	-1.949906998	-1.3710059719	-1.0581882803	 0.129352
H	-2.375716562	 0.0330448233	-0.0723040007	 0.10782
H	-0.058346582	 0.8444830172	-0.0889091799	 0.089188
H	-0.0936079028	-0.7987922158	 0.5315383904	 0.093685
H	 0.6366346101	-0.0615650249	-2.3467853226	 0.058727
H	 2.9482842805	-0.7292329125	-1.6853213995	 0.08762
H	 1.9359963728	 1.7432276765	-0.1704328203	 0.110294
H	 3.606358766	 1.3878542311	-0.6303376279	 0.122909
H	 2.3854179727	 1.7010851889	-1.8805385854	 0.114241
H	 2.1184895334	-0.4436170803	 0.9737075936	 0.278358
H	 0.8897150132	-2.7441511669	-0.8763346411	 0.091056
H	-0.6654981225	-3.5962781889	-2.6476156873	 0.10802
H	-0.7653892943	-1.9346138554	-3.3815966443	 0.108137
H	 1.718806296	-1.9196132392	-3.7463261458	 0.105325
H	 1.8532164102	-3.580844035	-3.0158929148	 0.110708
63.1014	77.6055	102.8899	158.6384	190.8042	211.5254	228.3945	273.9004	299.2425	311.6122	332.0444	380.6756	447.8228	497.5718	619.735	743.2247	788.7834	813.0926	839.6103	864.8609	897.2196	936.9985	956.7017	976.1271	1016.3089	1036.5162	1054.9261	1063.7333	1078.6422	1083.3966	1114.075	1142.7999	1162.741	1200.5124	1210.8538	1226.8368	1270.6326	1283.2777	1318.7677	1331.723	1357.755	1381.1988	1403.8185	1408.9646	1421.5973	1429.2828	1470.3663	1488.4639	1493.3489	1495.7198	1499.5346	1505.4996	1511.447	2990.7828	3015.3372	3030.5678	3033.485	3044.5066	3052.3134	3094.5472	3097.6265	3114.4317	3121.8363	3124.978	3130.2611	3146.1545	3202.3836	3217.9216	3812.0375
CCC(C(C)O)C1CC1	CC[C@@H]([C@@H](C)O)C1CC1	
InChI=1S/C8H16O/c1-3-8(6(2)9)7-4-5-7/h6-9H,3-5H2,1-2H3	InChI=1S/C8H16O/c1-3-8(6(2)9)7-4-5-7/h6-9H,3-5H2,1-2H3/t6-,8+/m1/s1
