17
gdb 17247	4.97662	1.67601	1.5288	2.1085	67.16	-0.2469	0.0818	0.3287	865.0891	0.143939	-363.800571	-363.793798	-363.792853	-363.831523	26.524	
O	 0.0069411623	 1.2943812519	 0.3530691335	-0.416628
C	-0.0015358118	-0.0193576284	-0.1800815757	-0.166527
C	-1.3941241094	-0.5681909195	-0.2623505027	 0.299686
C	-2.5999478149	 0.0809052195	-0.9252188016	-0.28157
C	-3.4085210845	-0.7488797863	 0.0874292974	-0.003769
C	-3.1991138516	-2.2262666603	-0.3006015576	-0.238954
C	-1.7635470693	-1.9670202778	 0.1199985629	-0.083892
N	-2.1542278968	-0.8248227597	 1.0215606067	-0.210005
H	-0.4804732035	 1.2448868566	 1.1844581223	 0.291273
H	 0.4449015851	 0.0489051748	-1.1785914799	 0.11353
H	 0.6253893373	-0.7007763982	 0.4170720349	 0.091231
H	-2.6248993715	 1.1478110843	-0.6923177373	 0.11862
H	-2.7809506876	-0.0748495709	-1.9940493605	 0.094599
H	-4.3540732278	-0.3952828358	 0.4936371653	 0.08474
H	-3.6940467764	-2.900825304	 0.4024155732	 0.114679
H	-3.4155890789	-2.5328854594	-1.3292951503	 0.098455
H	-1.0168993609	-2.6910660568	 0.4278296795	 0.094532
89.7947	167.54	283.0741	349.6218	411.4494	450.0962	514.4926	658.3638	738.9697	771.8176	797.3379	821.7467	891.4144	934.2798	945.851	971.9296	1000.6063	1012.2251	1030.6843	1063.2817	1079.1453	1126.0379	1146.5956	1187.459	1200.0487	1225.0654	1245.6389	1271.0714	1292.7191	1332.379	1380.9956	1408.7382	1438.9377	1489.0806	1492.7514	1505.7979	2978.3106	3041.7736	3046.7377	3065.7736	3107.6729	3114.0192	3138.3467	3175.4105	3786.9799
OCC12CC3CC1N23	OC[C@@]12C[C@H]3C[C@@H]1N23	
InChI=1S/C6H9NO/c8-3-6-2-4-1-5(6)7(4)6/h4-5,8H,1-3H2	InChI=1S/C6H9NO/c8-3-6-2-4-1-5(6)7(4)6/h4-5,8H,1-3H2/t4-,5+,6+,7?/m1/s1
