16
gdb 51980	2.90348	1.09231	0.84276	4.2227	68.52	-0.25	-0.0232	0.2267	1308.5259	0.125398	-471.263973	-471.255094	-471.25415	-471.298259	31.171	
N	 0.3163921474	 1.3848953796	-1.2820444059	-0.492668
C	-0.2010148587	 0.3941178828	-0.6823871037	 0.362242
C	-1.6017250921	-0.0655647354	-1.0586651638	-0.251648
N	-2.5900048625	 0.0928251226	 0.0072467005	-0.258565
C	-2.7344109493	-0.7968443723	 1.0120297697	 0.162873
O	-2.0196085138	-1.7732013582	 1.1808501612	-0.342072
N	 0.3769808783	-0.3948921763	 0.3297763149	-0.339829
C	 1.6225732257	-0.2188601291	 0.8741556572	 0.159126
O	 2.4245069986	 0.6316585731	 0.553016769	-0.304409
H	 1.2598882651	 1.5595247423	-0.931343188	 0.254082
H	-1.9146329882	 0.5266260104	-1.9172917678	 0.148761
H	-1.5827509346	-1.124244896	-1.3391119437	 0.146729
H	-3.1811341534	 0.9085594664	-0.0045728195	 0.267365
H	-3.5803791645	-0.557344783	 1.6803690885	 0.104793
H	-0.2118643952	-1.1347165504	 0.7094919996	 0.283849
H	 1.8266948172	-0.9649582666	 1.6648403817	 0.09937
76.0424	88.2386	128.361	198.5184	232.4366	263.499	273.3216	322.9039	429.554	488.3957	532.4526	663.6865	751.3501	788.6479	826.7591	910.7302	960.5897	995.5915	1026.5262	1032.1269	1033.7949	1103.1681	1213.643	1226.8838	1290.0421	1351.0495	1391.339	1421.1959	1437.9379	1461.7544	1528.1417	1555.814	1734.5094	1769.6069	1807.0122	2960.9844	2983.3843	3059.3412	3154.5944	3452.508	3474.3124	3642.4319
N=C(CNC=O)NC=O	N=C(CNC=O)NC=O	
InChI=1S/C4H7N3O2/c5-4(7-3-9)1-6-2-8/h2-3H,1H2,(H,6,8)(H2,5,7,9)	InChI=1S/C4H7N3O2/c5-4(7-3-9)1-6-2-8/h2-3H,1H2,(H,6,8)(H2,5,7,9)
