19
gdb 115435	3.55062	0.98205	0.87008	4.6212	75.37	-0.2367	0.0333	0.27	1343.6991	0.161092	-419.217205	-419.208324	-419.20738	-419.25145	32.84	
O	 0.3686504885	 0.9760815111	 0.6550561894	-0.414853
C	 0.0084087167	-0.2910052404	 0.1212582792	-0.077661
C	-1.5000018948	-0.3932527408	-0.152158234	 0.017301
C	-1.9615314931	-1.8436780224	-0.3813784654	-0.234502
C	-2.3000257653	-2.3380839762	 1.0339722492	-0.226595
C	-2.8857415603	-1.0697530102	 1.7065695657	-0.135504
N	-2.295294694	 0.06998164	 0.9949385078	-0.293128
C	-4.361757231	-1.0440288729	 1.6011066001	 0.298363
N	-5.5148438004	-1.042371781	 1.5217519694	-0.330968
H	 0.216596321	 1.6409766594	-0.0254654885	 0.289
H	 0.5710432126	-0.5169879637	-0.7974507518	 0.095472
H	 0.3082906396	-1.0206743855	 0.8817203664	 0.107969
H	-1.7276411455	 0.2289022886	-1.0299513231	 0.073507
H	-2.856064823	-1.8590824874	-1.0107785515	 0.127537
H	-1.1981299758	-2.452865782	-0.8730679708	 0.107918
H	-2.9903870824	-3.1830488645	 1.0470549528	 0.12778
H	-1.394013307	-2.633890356	 1.5707563231	 0.112682
H	-2.6463695685	-1.0438437169	 2.7751620565	 0.120733
H	-1.7463412074	 0.6736653408	 1.5937954454	 0.234951
47.9128	108.5185	124.7667	195.6614	239.2208	292.432	359.9059	361.5595	459.5428	515.7337	578.2214	628.6487	656.655	785.5236	814.0741	858.9583	905.7067	929.9428	953.4941	982.0442	1025.0523	1054.353	1088.1919	1096.5698	1132.9692	1181.7806	1214.8394	1229.4213	1250.6365	1301.7522	1325.6992	1346.3954	1354.7435	1379.6043	1394.3518	1416.3012	1453.5058	1486.7876	1496.1588	1502.6799	2352.4186	2985.2907	2993.8919	3046.8982	3061.2358	3065.5436	3073.035	3104.9068	3126.5684	3566.0236	3805.016
OCC1CCC(N1)C#N	OC[C@H]1CC[C@@H](N1)C#N	
InChI=1S/C6H10N2O/c7-3-5-1-2-6(4-9)8-5/h5-6,8-9H,1-2,4H2	InChI=1S/C6H10N2O/c7-3-5-1-2-6(4-9)8-5/h5-6,8-9H,1-2,4H2/t5-,6-/m1/s1
