17
gdb 50648	3.28797	1.11182	0.87194	2.5713	69.47	-0.26	-0.0391	0.2208	1264.3968	0.135915	-459.015318	-459.006997	-459.006052	-459.049095	29.962	
O	-0.7526301689	 0.9030295199	-0.594483025	-0.235718
C	 0.1241816786	 0.9795214461	 0.2267461364	 0.140447
C	 1.3536846802	 1.8549458428	 0.0898751151	-0.105481
C	 1.3705695018	 2.6872512825	-1.1873087358	-0.220782
C	 2.6683430684	 3.4762309661	-1.2503080058	-0.078523
O	 2.9487230512	 4.2502781295	-0.0682945117	-0.225897
C	 2.5609630715	 3.8684993924	 1.1697624855	 0.409754
O	 3.0184858335	 4.4268981287	 2.1283817967	-0.316553
C	 1.4781086733	 2.799675997	 1.2992591346	-0.354341
H	 0.0774467771	 0.3950560191	 1.1744381627	 0.0865
H	 2.218424507	 1.1716192425	 0.1008089822	 0.106076
H	 1.2888098872	 2.0539657143	-2.0752295959	 0.126721
H	 0.5072439751	 3.3615298452	-1.1982565058	 0.125239
H	 3.5188417543	 2.8006274608	-1.41064937	 0.11766
H	 2.6588136692	 4.2008681532	-2.0678880736	 0.130576
H	 0.5365546093	 3.3498621113	 1.4315686898	 0.15049
H	 1.6638849309	 2.2690614785	 2.2355471505	 0.143831
66.661	100.9806	119.2159	199.6323	230.3729	335.2101	390.2717	460.2464	486.7728	582.0071	636.2988	711.8328	781.2607	816.519	880.6995	927.488	960.6049	974.0058	1052.6452	1099.9999	1112.8124	1144.0677	1180.7988	1236.1807	1260.6028	1275.9321	1290.542	1328.9429	1342.652	1393.2968	1424.699	1434.9895	1461.1893	1483.6437	1516.3172	1830.6725	1844.4041	2870.7589	2984.199	3023.3774	3032.037	3055.3436	3100.4615	3105.8341	3113.1138
O=CC1CCOC(=O)C1	O=C[C@H]1CCOC(=O)C1	
InChI=1S/C6H8O3/c7-4-5-1-2-9-6(8)3-5/h4-5H,1-3H2	InChI=1S/C6H8O3/c7-4-5-1-2-9-6(8)3-5/h4-5H,1-3H2/t5-/m0/s1
