13
gdb 123290	1.97662	1.89405	0.96723	1.9178	83.9	-0.2276	-0.038	0.1896	1122.0987	0.089312	-378.431452	-378.423639	-378.422695	-378.463793	29.48	
C	 0.1775678	-1.1977264987	-0.0060133525	-0.419058
C	 0.0480455447	-0.0006939791	 0.0024819685	 0.256122
C	-0.0830732533	 1.3997382657	 0.0120996051	 0.208457
C	-1.210243402	 2.2303165527	 0.0324698144	-0.028317
C	-0.6724310274	 3.5427578314	 0.0322553607	-0.085343
N	 0.6540944413	 3.5397294801	 0.0136873979	-0.202354
N	 0.9886631085	 2.2410009523	 0.0017866359	-0.292235
C	-2.5656118939	 1.8431565056	 0.0492603909	 0.145099
C	-3.7291122075	 1.5334218645	 0.0638599801	-0.381844
H	 0.2786326318	-2.2550336256	-0.013333047	 0.201031
H	-1.2173615147	 4.4742063474	 0.0450558128	 0.129443
H	 1.959505649	 1.974664568	-0.013264732	 0.283424
H	-4.7531222467	 1.2536940556	 0.0768314652	 0.185576
102.2488	161.0813	181.7784	196.1559	427.3116	451.6611	499.2535	510.7786	533.9959	559.7198	580.3479	632.158	653.6867	660.5375	687.9667	689.6691	744.58	889.4487	954.4197	1140.5451	1167.7657	1232.1895	1283.2854	1369.3882	1425.7674	1486.5184	1580.6133	2230.9547	2239.9132	3260.1642	3499.6456	3503.7437	3666.1157
C#CC1=C(C=NN1)C#C	C#Cc1c(cn[nH]1)C#C	
InChI=1S/C7H4N2/c1-3-6-5-8-9-7(6)4-2/h1-2,5H,(H,8,9)	InChI=1S/C7H4N2/c1-3-6-5-8-9-7(6)4-2/h1-2,5H,(H,8,9)
