16
gdb 42563	3.33938	1.60763	1.34735	2.3795	72.78	-0.2331	-0.0077	0.2254	959.4427	0.124327	-400.675866	-400.669021	-400.668077	-400.707004	27.573	
O	 0.0453286592	 0.1094429638	-0.1858119759	-0.332463
C	 0.0292696202	 1.303276443	-0.1141571096	 0.458697
C	-1.0529908627	 2.3368932049	 0.046206581	-0.189785
C	-0.0841358048	 3.1547045312	 0.8622675915	-0.036815
C	 1.1035299191	 2.3881546212	 0.1522213025	-0.325801
C	 0.8353404852	 3.3401031359	-1.0035011946	 0.434098
C	 1.6764784871	 4.4261482781	-1.5722423537	-0.350835
C	 1.1744801945	 3.2865885297	-2.4522446068	-0.338631
N	-0.5170401889	 3.6570644169	-0.4495988699	-0.172568
H	-2.1251556702	 2.2335101321	 0.1381483401	 0.123162
H	-0.214123771	 3.6436542422	 1.8172014176	 0.124038
H	 2.0879914541	 2.1311922397	 0.5330341503	 0.100186
H	 1.2104466486	 5.3978576959	-1.698066423	 0.130138
H	 2.7303133589	 4.4542264867	-1.3163643981	 0.120284
H	 1.8865825049	 2.5410348326	-2.7904617052	 0.126023
H	 0.3841588357	 3.512566636	-3.1597654062	 0.130274
117.979	206.5467	244.9326	297.045	443.941	488.3851	577.0276	620.6461	744.5693	757.	782.6876	821.2176	831.6012	849.5843	880.6347	900.4975	917.9266	953.9823	977.3601	1013.1354	1041.9392	1049.6998	1077.1298	1078.7785	1111.4632	1136.4916	1169.8189	1184.0066	1222.5515	1247.7534	1271.4929	1391.6623	1451.1639	1505.0817	1890.2581	3130.451	3134.202	3165.5134	3213.4168	3217.959	3226.6519	3228.9179
O=C1C2C3C1C1(CC1)N23	O=C1[C@H]2[C@H]3[C@@H]1C1(CC1)N23	
InChI=1S/C7H7NO/c9-6-3-4-5(6)8(4)7(3)1-2-7/h3-5H,1-2H2	InChI=1S/C7H7NO/c9-6-3-4-5(6)8(4)7(3)1-2-7/h3-5H,1-2H2/t3-,4+,5+,8?/m0/s1
