25
gdb 95774	2.83949	1.12027	0.87104	0.2991	95.56	-0.2224	0.0298	0.2522	1454.7334	0.230104	-352.386184	-352.376553	-352.375609	-352.420101	37.759	
C	 0.0325946666	 1.6211493705	-0.028489054	-0.39715
C	-0.0158576903	 0.0868291381	-0.0276542146	 0.050368
C	 0.7188587231	-0.4589684816	-1.264997189	-0.169481
C	 0.6430449724	-1.9722413335	-1.5079251287	-0.196045
C	 1.3221201337	-2.8433493857	-0.433743982	-0.29487
C	 0.5459050121	-2.9650682595	 0.8647021128	 0.340674
C	 0.1554475553	-4.3622886904	 1.2702479658	-0.477168
C	 0.2187030848	-1.9041394319	 1.607213991	-0.161271
C	 0.5557166524	-0.4647565695	 1.2998533943	-0.246854
H	 1.0651789578	 1.9816598741	 0.056199316	 0.110404
H	-0.3856372421	 2.0323014948	-0.9533996182	 0.107363
H	-0.5334090695	 2.0383403657	 0.8109974994	 0.107522
H	-1.0685258927	-0.2225579691	-0.0897723363	 0.068595
H	 0.3241987106	 0.0509825248	-2.1533949982	 0.0861
H	 1.7772092979	-0.164528588	-1.1967168817	 0.085739
H	-0.4056215845	-2.2800627363	-1.6098813572	 0.092873
H	 1.1202876845	-2.1812229819	-2.4735565486	 0.087696
H	 1.4842146691	-3.8453018731	-0.8459301025	 0.090528
H	 2.3248696542	-2.4373893659	-0.2328838291	 0.1026
H	 1.0411796825	-5.0002926439	 1.3911736903	 0.119636
H	-0.4027899359	-4.3744158478	 2.2103408289	 0.115603
H	-0.4635512283	-4.8407274756	 0.4993092857	 0.118964
H	-0.3449029769	-2.0768429225	 2.5222321958	 0.071142
H	 1.6480094012	-0.3232615743	 1.2864799693	 0.097455
H	 0.1885020919	 0.1607798024	 2.1208384908	 0.089578
89.4341	115.6499	205.2672	220.1364	232.3727	271.3726	299.1457	316.7945	370.0706	386.1647	415.2863	472.2215	548.5631	633.3976	722.3157	812.7995	828.8157	857.7829	872.8614	916.3807	926.0792	967.5772	1005.4403	1009.8442	1050.9538	1070.8247	1086.4412	1101.3031	1119.8706	1149.1547	1152.481	1214.5565	1246.7127	1263.8048	1303.1504	1317.3883	1347.0678	1351.5511	1372.134	1374.5858	1398.6026	1400.3539	1411.0815	1413.7718	1474.4981	1477.9923	1481.6081	1485.343	1491.2955	1496.2197	1497.8475	1500.5918	1738.1205	2981.764	2992.6996	2998.3758	3008.0113	3009.3907	3013.9106	3022.7858	3040.2545	3051.5147	3055.1896	3056.3027	3059.7849	3087.7766	3096.762	3107.2102	3137.0915
CC1CCCC(C)=CC1	C[C@H]1CCCC(=CC1)C	
InChI=1S/C9H16/c1-8-4-3-5-9(2)7-6-8/h6,9H,3-5,7H2,1-2H3	InChI=1S/C9H16/c1-8-4-3-5-9(2)7-6-8/h6,9H,3-5,7H2,1-2H3/t9-/m0/s1
