22
gdb 58511	2.59111	1.32902	1.22374	0.7923	81.39	-0.2277	0.0666	0.2943	1175.3569	0.192828	-404.306102	-404.296572	-404.295628	-404.339772	37.131	
C	 0.0788464617	 1.5047793141	-0.1010591567	-0.421351
C	 0.0420977853	-0.0201830604	 0.0788768742	 0.001518
C	 0.7414353461	-0.4443597601	 1.3771523762	-0.397817
C	-1.3936686177	-0.5572964912	 0.0234353783	 0.439339
O	-2.2016958845	-0.0697989585	 1.0839457377	-0.499944
C	-2.1473473452	-0.4941474556	-1.3682200648	-0.296554
C	-2.3049286565	-2.0151654236	-1.3009675094	-0.043752
N	-0.9276144408	-2.5673675405	-1.2490399966	-0.341066
C	-1.580410644	-2.0853279601	-0.0077256286	-0.097933
H	 1.1115681681	 1.8634686644	-0.1519301356	 0.117294
H	-0.4271226073	 1.8211828685	-1.0196598063	 0.114685
H	-0.3931449487	 2.0225400331	 0.7435801855	 0.103683
H	 0.5664968776	-0.4793445968	-0.7662451542	 0.095623
H	 0.8004717989	-1.5344946105	 1.456859284	 0.114532
H	 1.7627309322	-0.0522681052	 1.4166988171	 0.103857
H	 0.1969984633	-0.0727893434	 2.2508190773	 0.118761
H	-2.2827039572	 0.8843406434	 0.9814097955	 0.277519
H	-3.0938647712	 0.0399492446	-1.2608911384	 0.100202
H	-1.5901287635	-0.1179298112	-2.2300300643	 0.097677
H	-3.1268812056	-2.6157878326	-1.6699396761	 0.091237
H	-1.0094445143	-3.5837401727	-1.2486124321	 0.22921
H	-1.7254844766	-2.7284635057	 0.8511510471	 0.09328
81.9989	147.5095	189.3531	213.0735	241.8529	279.4269	289.5017	316.3468	328.7641	436.0905	439.8029	482.3072	542.8811	657.4826	766.6061	815.1505	842.6288	874.5215	905.1631	926.6193	937.3823	956.483	971.883	987.2586	1012.2416	1044.7971	1078.0818	1093.5226	1122.8503	1140.0275	1163.323	1193.5419	1216.3168	1254.5114	1277.7116	1308.3208	1334.0834	1359.7569	1376.8223	1393.7222	1404.5739	1415.5058	1460.7705	1488.4812	1491.8744	1507.9799	1514.1852	3019.8565	3034.8895	3051.9656	3059.8905	3083.9398	3099.4508	3102.4066	3110.5212	3124.7543	3185.9225	3201.0208	3473.01	3810.9773
CC(C)C1(O)CC2NC12	CC(C)[C@@]1(O)C[C@H]2N[C@@H]12	
InChI=1S/C7H13NO/c1-4(2)7(9)3-5-6(7)8-5/h4-6,8-9H,3H2,1-2H3	InChI=1S/C7H13NO/c1-4(2)7(9)3-5-6(7)8-5/h4-6,8-9H,3H2,1-2H3/t5-,6-,7+/m1/s1
