20
gdb 74904	2.74393	1.47116	1.06213	2.3175	83.04	-0.2307	0.0139	0.2446	1177.9609	0.172495	-403.121114	-403.11287	-403.111926	-403.154031	31.971	
C	-0.0510886219	 1.5929477936	-0.4773723481	-0.472241
C	 0.0114708475	 0.1628661596	-0.0032392163	 0.276593
C	-1.0109696249	-0.6746206979	-0.1993594553	-0.115891
C	-1.1782214213	-2.0870273639	 0.223533664	-0.067794
N	-0.3914724652	-3.1654948918	-0.4418190276	-0.324743
C	-0.2108244727	-2.917711059	 0.9899497027	-0.039053
C	 1.1535470687	-2.441488091	 1.4445419912	-0.100798
O	 1.7636383073	-1.5087480656	 0.5904000284	-0.218401
C	 1.305308602	-0.1807660047	 0.7072869413	-0.171846
H	 0.7153674411	 1.790524123	-1.2379685723	 0.129694
H	-1.0272976848	 1.8370742047	-0.9028863761	 0.122708
H	 0.1429642198	 2.2925568015	 0.3467427458	 0.122443
H	-1.8759083407	-0.2792134929	-0.7304645026	 0.075999
H	-2.2240845265	-2.332319512	 0.4073704502	 0.080887
H	-0.9818718462	-3.9808138569	-0.5883302538	 0.227534
H	-0.650316465	-3.6322045308	 1.6888837051	 0.077604
H	 1.0701386396	-2.0388561437	 2.4695521823	 0.083523
H	 1.8311377623	-3.3030367544	 1.4817504199	 0.109892
H	 2.1049971051	 0.4407048074	 0.286451129	 0.109308
H	 1.2209641657	 0.1013582345	 1.7738319421	 0.094583
63.0754	143.4756	207.6272	263.9132	300.3875	334.6568	374.5268	408.0774	479.757	499.2631	630.0414	719.6351	749.7792	785.2646	849.0584	878.9308	908.0047	945.7245	973.4263	991.6021	1025.1836	1050.2374	1079.3822	1087.7352	1121.0068	1156.5887	1169.3899	1212.9659	1232.7134	1268.5147	1296.5758	1338.911	1381.7152	1406.7367	1409.6083	1418.7439	1427.377	1471.5547	1479.9375	1483.0162	1486.4537	1493.644	1743.8516	2926.5187	2951.8839	3012.4105	3046.1219	3052.5193	3057.4787	3083.2843	3100.0485	3116.6011	3131.2424	3490.4288
CC1=CC2NC2COC1	CC1=C[C@H]2N[C@H]2COC1	
InChI=1S/C7H11NO/c1-5-2-6-7(8-6)4-9-3-5/h2,6-8H,3-4H2,1H3	InChI=1S/C7H11NO/c1-5-2-6-7(8-6)4-9-3-5/h2,6-8H,3-4H2,1H3/t6-,7+/m1/s1
