14
gdb 20491	5.01238	2.02383	1.4683	3.0317	63.1	-0.2319	0.0117	0.2436	795.2331	0.110836	-378.728035	-378.72185	-378.720906	-378.759025	22.908	
C	-0.0457216632	 1.5397900793	 0.0973518199	-0.19047
O	 1.2803242853	 1.9254164711	-0.3172460629	-0.285438
C	 2.1190578197	 0.7999457751	-0.624603243	-0.174314
C	 1.2356706684	-0.3803895385	-0.3791298533	 0.29719
N	 1.3472773795	-1.6965099921	-0.458791658	-0.323927
N	 0.1180358647	-2.1197682138	-0.0767634548	-0.18207
C	-0.7452168354	-1.1086028215	 0.2348667512	-0.214761
C	-0.0299666894	 0.0493316305	 0.0428792688	 0.198836
H	-0.234075673	 1.9401400813	 1.1034836403	 0.112318
H	-0.777831184	 1.996076248	-0.5837258975	 0.112328
H	 2.4618391356	 0.8728309753	-1.6658220364	 0.118212
H	 3.0059525064	 0.8169288602	 0.0235358282	 0.118201
H	-0.0662957736	-3.1084073775	-0.050066957	 0.27524
H	-1.7548944109	-1.3134425874	 0.5533418545	 0.138654
45.8178	238.9076	242.8432	448.8045	486.7924	616.6258	642.7203	688.348	714.6942	775.8518	854.4107	891.1039	980.6415	1018.6727	1049.6002	1064.6527	1068.1112	1129.6685	1168.3151	1194.6708	1215.3602	1305.2675	1341.5992	1363.557	1455.2976	1473.8475	1516.031	1518.3056	1528.1586	1634.2875	2993.8882	3003.6948	3016.1292	3028.052	3262.8291	3673.9099
C1OCC2=NNC=C12	C1OCc2n[nH]cc12	
InChI=1S/C5H6N2O/c1-4-2-8-3-5(4)7-6-1/h1H,2-3H2,(H,6,7)	InChI=1S/C5H6N2O/c1-4-2-8-3-5(4)7-6-1/h1H,2-3H2,(H,6,7)
