19
gdb 79849	2.99648	1.73015	1.2864	2.3808	75.13	-0.2338	0.0758	0.3096	1003.0896	0.159814	-422.984105	-422.976485	-422.97554	-423.015581	31.006	
C	 0.0214023933	 1.5308387143	-0.2930999801	-0.499333
C	 0.0416728127	 0.0470002118	-0.0427528671	 0.502092
O	 0.4703187226	-0.6227644421	-1.2280283732	-0.318719
C	 0.4458400978	-2.0032807982	-0.8599964403	-0.110182
C	-0.0249484357	-1.9018014358	 0.5796284544	-0.066031
C	 0.6908271705	-0.6559191519	 1.2033572455	-0.189264
C	-0.6056014711	-0.4163587843	 2.0190491378	 0.126874
O	-0.9382501005	 0.8686319607	 2.4915227943	-0.438542
C	-1.120443206	-0.7807073043	 0.6191736983	-0.155593
H	-0.6520702236	 1.7560829691	-1.1260921624	 0.122555
H	-0.3102850739	 2.0677929771	 0.593572557	 0.144593
H	 1.0226360476	 1.8722162784	-0.5753518392	 0.119247
H	-0.2471689811	-2.5593400375	-1.5046691641	 0.099921
H	 1.4462239253	-2.4442497309	-0.9588886957	 0.099031
H	-0.1540638633	-2.8102956375	 1.1682302759	 0.072086
H	 1.7292552794	-0.5990523621	 1.5357373547	 0.066488
H	-0.8021341483	-1.1750183416	 2.7883437377	 0.067649
H	-0.4505665007	 1.0229136163	 3.306503952	 0.284074
H	-2.1553181948	-0.8641185016	 0.2845407845	 0.073054
197.242	217.2238	247.1002	262.5388	273.7922	346.6437	400.9152	454.1152	504.6056	650.8454	726.0433	732.1809	754.1568	801.5621	869.0143	916.9503	919.0444	941.085	976.4157	995.9919	1039.0941	1055.6505	1079.1298	1097.0471	1113.0046	1137.479	1155.5663	1162.2222	1199.6055	1203.5122	1224.7603	1261.4729	1302.4621	1320.0278	1336.1608	1372.7791	1412.8216	1449.8953	1492.8167	1494.3431	1525.8429	3008.97	3010.2798	3045.2623	3045.497	3093.3905	3103.0962	3105.9355	3120.4013	3173.2281	3821.158
CC12OCC3C1C(O)C23	C[C@@]12OC[C@H]3[C@@H]1[C@@H](O)[C@@H]23	
InChI=1S/C7H10O2/c1-7-4-3(2-9-7)5(7)6(4)8/h3-6,8H,2H2,1H3	InChI=1S/C7H10O2/c1-7-4-3(2-9-7)5(7)6(4)8/h3-6,8H,2H2,1H3/t3-,4+,5-,6+,7+
