18
gdb 85716	2.06235	1.55173	0.9947	1.1552	85.2	-0.2244	0.0259	0.2502	1221.8853	0.144665	-364.712575	-364.703137	-364.702193	-364.746742	35.034	
C	 0.0148773968	 1.5269313076	 0.0641910522	-0.329613
N	-0.0191236099	 0.0831142636	 0.1011752776	-0.045749
C	-1.2718201314	-0.6003379712	 0.4534883725	-0.178848
C	-0.4466435498	-1.6802745491	 1.2190223969	-0.242664
C	-0.2073276638	-2.9099574239	 0.4967122057	 0.379065
C	-0.0265085438	-3.9407698253	-0.0942282544	-0.475268
C	 0.7112485644	-0.6067551998	 1.1837544837	-0.18489
C	 2.0793107749	-0.9989427137	 0.9064678293	 0.361157
C	 3.2190819336	-1.3164439537	 0.6958706501	-0.428285
H	 1.0397603353	 1.8640077724	-0.1202389018	 0.13337
H	-0.612405594	 1.8900780244	-0.7563527259	 0.125662
H	-0.3410124464	 1.9939979092	 1.0028956508	 0.090075
H	-1.9116554399	-0.0246832238	 1.1432513529	 0.085856
H	-1.867516844	-0.9400904555	-0.397677832	 0.119652
H	-0.8012348665	-1.8943537782	 2.229216222	 0.111819
H	 0.1426988628	-4.8466382559	-0.6214222714	 0.197576
H	 0.6807813634	-0.0374886164	 2.1306425438	 0.084354
H	 4.2215610681	-1.6054569807	 0.4979083381	 0.196733
74.3372	101.1481	141.2257	189.7056	229.7528	239.0579	310.9049	330.9072	415.3336	468.974	534.0257	587.3309	621.434	623.5973	634.5191	661.2918	754.2858	782.5072	840.8426	929.3001	982.1467	1025.1403	1076.6574	1094.9564	1135.7497	1155.1441	1184.3634	1228.9341	1240.1429	1269.6848	1319.0672	1348.6067	1375.2437	1449.6503	1486.6667	1496.1217	1517.1939	2238.234	2240.3801	2920.8245	2928.9821	2962.5952	3062.8896	3085.0106	3089.7153	3106.5317	3503.9526	3505.664
CN1CC(C#C)C1C#C	CN1C[C@@H](C#C)[C@H]1C#C	
InChI=1S/C8H9N/c1-4-7-6-9(3)8(7)5-2/h1-2,7-8H,6H2,3H3	InChI=1S/C8H9N/c1-4-7-6-9(3)8(7)5-2/h1-2,7-8H,6H2,3H3/t7-,8-/m1/s1
