15
gdb 49141	4.13804	0.95516	0.8687	2.8574	76.7	-0.2619	-0.0722	0.1897	1302.5886	0.110709	-420.596995	-420.588572	-420.587627	-420.63082	30.097	
O	-0.1062097252	-0.0302845355	 0.1349250759	-0.258999
C	-0.0284850495	 1.1728569195	 0.0259902877	 0.075944
C	 1.2415524828	 1.9042293215	 0.0240976344	 0.20894
C	 1.3962716022	 3.2230718138	-0.1075542861	-0.195646
C	 2.8692492561	 3.5646518086	-0.094668904	-0.07906
O	 3.5254281103	 2.3266309567	 0.1874256152	-0.267005
C	 2.5896370492	 1.245990122	 0.151403917	-0.16337
C	 3.3049916889	 4.1487437683	-1.3692192485	 0.331242
C	 3.64812305	 4.6348838655	-2.4129184598	-0.461939
H	-0.9350785055	 1.806883379	-0.0808894114	 0.079551
H	 0.6198911482	 3.9658627378	-0.2392720259	 0.137301
H	 3.1092341655	 4.2723142875	 0.7139812905	 0.126283
H	 2.6844429583	 0.6560129619	 1.070910337	 0.131118
H	 2.7964431433	 0.5762880768	-0.6953050599	 0.128278
H	 3.9616023656	 5.0616644866	-3.3339038522	 0.20736
52.3204	111.0276	140.8544	185.344	217.4753	294.2207	410.0266	448.9016	516.4736	561.2177	631.3963	677.2651	709.1522	786.6572	844.826	902.3013	916.1098	975.4502	1008.5573	1019.2494	1059.0045	1084.2425	1191.5682	1208.2294	1275.035	1321.0533	1343.5098	1385.6731	1418.6066	1517.0457	1694.3998	1786.3957	2234.711	2898.1254	2982.8792	3009.104	3051.3963	3224.8375	3501.054
O=CC1=CC(OC1)C#C	O=CC1=C[C@@H](OC1)C#C	
InChI=1S/C7H6O2/c1-2-7-3-6(4-8)5-9-7/h1,3-4,7H,5H2	InChI=1S/C7H6O2/c1-2-7-3-6(4-8)5-9-7/h1,3-4,7H,5H2/t7-/m0/s1
