21
gdb 84786	2.65776	1.46305	1.18364	1.9503	82.34	-0.2416	0.0186	0.2602	1130.9047	0.183364	-387.079883	-387.071435	-387.070491	-387.113228	32.463	
C	 0.5051755433	 1.614520459	-0.4327615265	-0.397568
C	 0.0122696518	 0.226102492	 0.016641609	-0.115546
C	 0.2867899095	-0.8206834447	-1.0441837874	-0.064193
C	 1.3033742318	-1.6152680046	-0.7137715013	-0.071828
C	 1.8653377105	-1.2603744423	 0.6414608883	-0.327609
C	 0.7635946793	-0.3584176254	 1.2446664104	 0.30171
C	 1.16788276	 0.5425166968	 2.4339533443	-0.135429
O	 0.438090625	-0.2738746575	 3.3707389285	-0.275429
C	-0.1163430849	-1.0700633293	 2.3065644947	-0.117617
H	 1.5848469731	 1.6104905953	-0.6163201771	 0.118071
H	 0.0139093559	 1.9127532287	-1.3646746296	 0.115694
H	 0.286893694	 2.3826651829	 0.3156576984	 0.117031
H	-1.0603643283	 0.3065530783	 0.2362763389	 0.073094
H	-0.2564574887	-0.8491139534	-1.9828684252	 0.09131
H	 1.7177206035	-2.4010039751	-1.3356626575	 0.093662
H	 2.0759102725	-2.1309012119	 1.2735558156	 0.107954
H	 2.818670799	-0.7204959985	 0.5401713373	 0.106055
H	 2.2392619333	 0.5800172822	 2.6685122428	 0.096819
H	 0.7779786602	 1.5685351699	 2.4014313328	 0.093214
H	-1.197038148	-0.9039318286	 2.1938659066	 0.091964
H	 0.0654979172	-2.141810604	 2.455193787	 0.09864
67.3034	84.4528	196.3987	237.7712	259.59	307.2823	365.8524	422.1191	490.2993	518.6339	728.8462	736.0679	766.9544	849.5739	858.9353	913.7714	935.3482	966.2022	971.0636	977.7089	989.6704	1024.9688	1040.4026	1056.9346	1091.1272	1118.6254	1133.4944	1158.8454	1162.5956	1168.1634	1214.6255	1246.096	1291.2281	1311.9236	1330.4739	1353.7221	1367.5832	1384.5165	1407.5846	1483.5503	1494.6182	1499.4429	1511.2148	1535.55	1684.5641	2991.2993	2996.5536	3006.4179	3014.8454	3031.9523	3043.0064	3045.3656	3052.444	3100.4909	3104.8512	3179.2169	3205.3487
CC1C=CCC11COC1	C[C@H]1C=CCC21COC2	
InChI=1S/C8H12O/c1-7-3-2-4-8(7)5-9-6-8/h2-3,7H,4-6H2,1H3	InChI=1S/C8H12O/c1-7-3-2-4-8(7)5-9-6-8/h2-3,7H,4-6H2,1H3/t7-/m0/s1
