19
gdb 119518	3.99898	0.95461	0.88377	3.0666	74.64	-0.2284	0.0649	0.2933	1354.558	0.157885	-422.9401	-422.931538	-422.930594	-422.973867	32.553	
O	-0.2192593783	 1.5471425476	 0.0315038501	-0.416345
C	 0.0339173828	 0.1527591225	-0.0232209319	-0.071999
C	-1.3126902324	-0.5567663263	 0.1020194609	-0.312528
C	-1.2053513304	-2.0460864133	 0.0272689169	 0.419113
O	-2.2281722965	-2.8418408488	 0.6492235113	-0.291436
C	-0.8539372641	-3.0867620727	 0.9939231324	-0.064883
C	-0.1920295688	-3.9574162655	-0.1190581246	-0.085029
C	-1.1649971146	-4.2668211003	-1.2249788186	-0.287067
C	-0.5661926708	-2.8876165938	-1.1363051031	-0.132749
H	 0.620310053	 2.0093745222	-0.0453806	 0.287113
H	 0.5221961299	-0.1257745372	-0.9705569317	 0.08995
H	 0.6981897641	-0.1692881864	 0.7942539591	 0.090233
H	-1.7762613663	-0.2840134248	 1.0552174752	 0.123704
H	-1.974092429	-0.1910274981	-0.6939297451	 0.11802
H	-0.5899091562	-3.046838324	 2.0443555042	 0.103291
H	 0.7556724514	-4.4643663784	 0.0029932368	 0.091927
H	-0.7621561723	-4.8826182109	-2.0230285879	 0.109975
H	-2.2126268392	-4.4233555913	-1.0024541837	 0.137539
H	 0.0526262777	-2.4611248805	-1.9148656006	 0.09117
69.9749	83.0114	118.2871	256.9624	262.4649	330.5347	348.0005	420.4574	497.0324	595.2653	655.5291	731.4793	754.4977	787.787	815.1877	850.8405	899.3558	918.0369	936.4057	991.5763	1012.8042	1015.1682	1038.6524	1049.9062	1080.3629	1089.7237	1101.3834	1163.8476	1174.6907	1225.7632	1240.6844	1266.5835	1275.8158	1298.4034	1314.5428	1333.6185	1457.7202	1461.9762	1481.7491	1488.5902	1528.8511	2968.5104	2995.4391	3032.9072	3091.3951	3140.4556	3182.7446	3195.1279	3207.0775	3233.9169	3832.5855
OCCC12OC1C1CC21	OCC[C@]12O[C@H]1[C@H]1C[C@@H]21	
InChI=1S/C7H10O2/c8-2-1-7-5-3-4(5)6(7)9-7/h4-6,8H,1-3H2	InChI=1S/C7H10O2/c8-2-1-7-5-3-4(5)6(7)9-7/h4-6,8H,1-3H2/t4-,5+,6-,7+/m0/s1
