21
gdb 91700	2.55411	1.56985	1.41109	1.2586	83.24	-0.2291	0.0176	0.2467	1071.9049	0.183869	-387.104094	-387.096012	-387.095068	-387.136228	32.534	
C	-0.1909351324	 1.5347879573	-0.0326182563	-0.406342
C	 0.0306521791	 0.0317698465	 0.0239288715	 0.160701
O	 0.8398756831	-0.4003561718	-1.0881325259	-0.301212
C	 1.9157097627	-1.2018370226	-0.5176343453	 0.013043
C	 1.2128802929	-1.8997757786	 0.6536038553	-0.228212
C	 0.8058236017	-0.5314152417	 1.2638154615	-0.099833
C	 2.1574189318	 0.160205395	 1.2956526446	-0.193576
C	 2.846085138	-0.2364611184	 0.2158036178	 0.358005
C	 4.1615340055	 0.229080921	-0.3104915147	-0.517838
H	 0.7551961769	 2.0751465277	 0.0514148637	 0.119674
H	-0.6563533493	 1.8084853412	-0.9841004638	 0.12258
H	-0.8563216684	 1.8566333354	 0.7763028807	 0.105516
H	-0.9415074186	-0.4795626302	-0.039510881	 0.068319
H	 2.3440034922	-1.8056181802	-1.3176729362	 0.066776
H	 0.3692158388	-2.5194751365	 0.3353485366	 0.096447
H	 1.8863820926	-2.4690336593	 1.2959275016	 0.098835
H	 0.2254858687	-0.5360119133	 2.18644271	 0.062592
H	 2.4475559791	 0.9239451013	 2.0072513999	 0.090605
H	 4.6306474285	 0.9540375167	 0.3609353408	 0.122904
H	 4.8586368736	-0.6069279183	-0.450294819	 0.123936
H	 4.0412956336	 0.7035286589	-1.2927256218	 0.13708
125.5557	182.7209	200.6151	236.3023	281.7251	307.7102	446.38	480.2756	511.301	550.	596.8959	729.3639	767.5321	817.0621	849.5173	860.3273	882.9025	915.6473	932.4424	949.1363	982.1853	1004.8267	1021.9957	1059.3354	1063.54	1087.8249	1135.417	1139.4391	1168.9953	1231.3993	1258.3811	1266.6812	1279.4948	1297.9395	1337.1312	1351.9567	1386.0604	1407.1937	1411.3683	1479.1172	1484.479	1487.2146	1490.6926	1498.9847	1689.7546	2982.732	3016.2595	3037.3652	3060.0254	3063.6509	3105.4463	3105.6931	3116.1778	3122.6846	3125.2333	3129.6137	3199.3162
CC1OC2CC1C=C2C	C[C@H]1O[C@@H]2C[C@H]1C=C2C	
InChI=1S/C8H12O/c1-5-3-7-4-8(5)9-6(7)2/h3,6-8H,4H2,1-2H3	InChI=1S/C8H12O/c1-5-3-7-4-8(5)9-6(7)2/h3,6-8H,4H2,1-2H3/t6-,7-,8-/m1/s1
