18
gdb 98248	2.52784	1.22669	0.92778	4.4934	69.6	-0.2523	-0.004	0.2483	1284.6282	0.145366	-476.294746	-476.284332	-476.283388	-476.331145	35.991	
C	-0.9068569598	 0.8259730759	 0.6946786021	-0.247389
O	-0.4072523733	-0.5197487068	 0.7338737434	-0.246978
C	 0.9454512267	-0.6369840527	 0.65741931	 0.440664
O	 1.6786197575	 0.3087244125	 0.5457256538	-0.34352
C	 1.3752276437	-2.0951930198	 0.7343604128	-0.217709
C	 2.7638361886	-2.2947376317	 0.1330116787	-0.381443
C	 1.3284311847	-2.6102677302	 2.2006080194	 0.38918
N	 0.1151378634	-2.4953373401	 2.8064338518	-0.519808
O	 2.2946293851	-3.1133488903	 2.7330164553	-0.345822
H	-0.6021815616	 1.3175465581	-0.2318341598	 0.149323
H	-1.9924454351	 0.7415796863	 0.7441038322	 0.134591
H	-0.5263213391	 1.4035555184	 1.5407035368	 0.145698
H	 0.6227624047	-2.6744895376	 0.186346346	 0.121347
H	 2.7651838363	-2.0188451751	-0.9245878899	 0.112183
H	 3.4952344781	-1.6737904411	 0.6517758097	 0.149121
H	 3.0670339429	-3.3374872828	 0.2348406064	 0.131598
H	-0.6320550652	-1.9763658382	 2.3767938053	 0.267258
H	 0.0428715824	-2.7703948847	 3.7720784458	 0.261707
38.4153	62.7853	110.9644	128.8812	176.0131	207.1547	247.5261	285.9513	315.3928	328.6364	379.9859	478.7371	536.7878	601.2546	652.1756	691.1031	762.1948	849.1291	869.9366	997.6907	1040.1596	1083.087	1115.0848	1143.9626	1178.2704	1180.2021	1211.3782	1267.8189	1312.7488	1374.3922	1415.8766	1471.3131	1481.2659	1484.0939	1489.9056	1497.56	1615.2562	1803.8454	1836.1514	3048.3995	3055.6014	3064.3648	3133.4654	3139.3776	3157.0398	3161.2227	3594.2303	3731.4945
COC(=O)C(C)C(N)=O	COC(=O)[C@@H](C)C(=O)N	
InChI=1S/C5H9NO3/c1-3(4(6)7)5(8)9-2/h3H,1-2H3,(H2,6,7)	InChI=1S/C5H9NO3/c1-3(4(6)7)5(8)9-2/h3H,1-2H3,(H2,6,7)/t3-/m0/s1
