20
gdb 113257	1.98193	1.54462	1.13503	5.2044	75.83	-0.2455	0.0136	0.2591	1169.1087	0.1699	-440.297056	-440.287297	-440.286353	-440.331813	35.935	
C	 0.148806331	 1.5882449475	-0.185597105	-0.445299
C	 0.110637358	 0.076631406	-0.0457635955	 0.318813
C	 1.3268568926	-0.7335247552	-0.4290147132	-0.373879
C	 0.908158816	-0.6493547926	 1.0175587256	-0.042089
C	 1.6123214013	 0.1116069929	 2.1114061632	-0.058967
O	 0.6991014604	 0.4808309446	 3.1272588084	-0.442919
N	-1.1901500471	-0.4943138049	-0.2983490689	-0.319615
C	-2.1717530889	-0.4307688398	 0.6378750062	 0.15228
O	-2.035997365	 0.0092715398	 1.7654278336	-0.327084
H	 1.1494650049	 1.9851188629	-0.0033982692	 0.126532
H	-0.1445505069	 1.8804997669	-1.200086457	 0.111025
H	-0.5405129412	 2.0593687311	 0.520637292	 0.145576
H	 1.1916079449	-1.6835154956	-0.9349886095	 0.113226
H	 2.1938000246	-0.1699948758	-0.758873438	 0.120107
H	 0.4113829647	-1.5412179319	 1.3887735751	 0.106807
H	 2.3895063644	-0.5150712265	 2.5691286974	 0.09669
H	 2.125839946	 0.9943768663	 1.6977231419	 0.075488
H	-0.1915581219	 0.4771236526	 2.7454059504	 0.303457
H	-1.4441211098	-0.7643287802	-1.2370123239	 0.249948
H	-3.1322857581	-0.8420188181	 0.2743354664	 0.089903
58.2247	97.3168	123.5562	184.7926	222.1368	228.5847	275.8538	361.8414	404.4164	438.9232	446.506	471.6639	508.2094	543.8985	686.4242	771.8959	838.5687	906.8216	939.1676	963.9935	1002.0253	1031.8022	1061.6234	1065.0325	1080.3374	1111.5051	1136.9692	1187.5815	1191.3629	1248.4466	1280.2	1312.9877	1344.9943	1414.7633	1418.2841	1428.8325	1464.1655	1478.3898	1489.6413	1502.0624	1506.0704	1528.1259	1777.3005	2957.8852	2971.1203	3024.7189	3038.7065	3104.6232	3128.1937	3132.9559	3153.7527	3214.9392	3608.8707	3706.4591
CC1(CC1CO)NC=O	C[C@]1(C[C@H]1CO)NC=O	
InChI=1S/C6H11NO2/c1-6(7-4-9)2-5(6)3-8/h4-5,8H,2-3H2,1H3,(H,7,9)	InChI=1S/C6H11NO2/c1-6(7-4-9)2-5(6)3-8/h4-5,8H,2-3H2,1H3,(H,7,9)/t5-,6+/m0/s1
