20
gdb 118021	3.5671	0.81247	0.68999	6.165	77.01	-0.2774	0.0398	0.3172	1629.3511	0.168532	-440.287785	-440.277116	-440.276172	-440.324073	37.326	
C	 0.1425991383	 1.3487977221	-0.1752184831	-0.233012
O	 0.1345474655	-0.0581116699	-0.0708447163	-0.24952
C	 0.5634420431	-0.5345665795	 1.1886983571	-0.096469
C	 0.603368475	-2.0591648847	 1.0679532101	 0.126444
O	 1.3960314191	-2.4263593723	-0.0405746641	-0.436135
C	 1.2224980363	-2.739589303	 2.3053013584	-0.147795
C	 0.5078346828	-2.3957433675	 3.6272324983	-0.40874
C	 1.2358108569	-4.1947953903	 2.1124878958	 0.285422
N	 1.2269797762	-5.3454150743	 2.0084957933	-0.326626
H	 1.1514113537	 1.7603489753	-0.0207511026	 0.113762
H	-0.1955319377	 1.601905086	-1.1824163674	 0.136192
H	-0.5368882935	 1.8111652319	 0.5561752627	 0.113082
H	 1.5699084464	-0.14907603	 1.4248224269	 0.094419
H	-0.1274591998	-0.207937607	 1.9800315195	 0.097132
H	-0.4309505972	-2.4208447926	 0.9467194034	 0.089753
H	 1.1252543818	-1.846789523	-0.7636660173	 0.295758
H	 2.2689830166	-2.414149077	 2.3590745399	 0.132873
H	 0.6197183465	-1.3350685025	 3.8641882232	 0.128704
H	-0.5590080835	-2.6298087338	 3.5673012291	 0.140043
H	 0.9336765333	-2.9733633379	 4.4504701531	 0.144713
51.6902	94.4472	99.8658	122.7029	184.5081	211.1391	233.1412	256.0079	275.9817	361.0684	394.1817	414.2036	453.0409	488.2101	583.1142	618.5749	832.4065	895.0611	948.8814	977.7907	1055.6992	1070.6573	1112.0528	1124.7297	1159.6787	1166.2364	1187.359	1224.3727	1251.94	1277.5516	1310.6851	1331.6577	1368.4653	1400.91	1414.9747	1448.3539	1479.4679	1486.8777	1496.8894	1498.4475	1501.9813	1522.2392	2361.7853	2960.4434	2972.9485	2983.6734	3015.8199	3032.4668	3041.2587	3053.0726	3122.8034	3127.1766	3133.7552	3784.7178
COCC(O)C(C)C#N	COC[C@@H](O)[C@@H](C)C#N	
InChI=1S/C6H11NO2/c1-5(3-7)6(8)4-9-2/h5-6,8H,4H2,1-2H3	InChI=1S/C6H11NO2/c1-5(3-7)6(8)4-9-2/h5-6,8H,4H2,1-2H3/t5-,6+/m0/s1
