18
gdb 8364	5.36283	1.20049	1.17869	1.3186	69.14	-0.2344	0.0722	0.3066	1092.7227	0.152581	-384.855947	-384.847987	-384.847043	-384.889135	28.929	
C	-0.1477137367	 1.3799044949	-0.5556436525	-0.218501
O	-0.2445365277	 0.0079037608	-0.8588081677	-0.23835
C	 0.8913463975	-0.7228011366	-0.4562582255	-0.211937
C	 0.6658054798	-2.1582883806	-0.831675634	 0.418968
C	-0.3702140662	-3.1748202124	-0.2858238465	-0.244897
C	 0.6681897197	-3.915143374	-1.1592566219	 0.047107
C	 0.5528613153	-2.8102549072	-2.2340634931	-0.244857
O	 1.7424752149	-3.1254635647	-0.5025457933	-0.352861
H	-0.0440107867	 1.5520184348	 0.5272272255	 0.106825
H	 0.71073056	 1.8497186162	-1.0609558461	 0.106824
H	-1.0674059854	 1.8561562306	-0.9034878454	 0.128994
H	 1.8038383952	-0.3515081233	-0.9522200234	 0.099138
H	 1.0517723863	-0.6476863525	 0.6323549299	 0.099117
H	-0.300663746	-3.3730282634	 0.7846169211	 0.10334
H	-1.3981383634	-3.1046622935	-0.6478867734	 0.101136
H	 0.8382087449	-4.984632471	-1.2788553755	 0.09548
H	-0.3909142037	-2.7067986032	-2.7737205635	 0.101133
H	 1.4308675422	-2.6891853248	-2.8700010447	 0.103342
52.4066	80.4189	129.3429	218.2816	311.7902	343.4906	383.0249	524.6362	593.7313	692.166	758.9612	774.846	904.7938	917.6941	922.1246	982.5122	995.8611	1003.5503	1011.8515	1091.1921	1121.7389	1125.5141	1160.6901	1164.5835	1188.0337	1211.021	1223.5025	1224.3428	1237.939	1278.5917	1333.5176	1423.4282	1467.2278	1479.4666	1484.0368	1502.3264	1515.5605	1523.636	2956.3922	2974.0421	2990.4786	3017.2036	3065.6965	3072.8231	3116.4867	3125.2819	3146.9333	3152.3569
COCC12CC(C1)O2	COC[C@@]12C[C@@H](C1)O2	
InChI=1S/C6H10O2/c1-7-4-6-2-5(3-6)8-6/h5H,2-4H2,1H3	InChI=1S/C6H10O2/c1-7-4-6-2-5(3-6)8-6/h5H,2-4H2,1H3/t5-,6+
