19
gdb 14755	10.58583	0.59076	0.56946	4.7361	74.17	-0.265	0.0361	0.3011	1903.3276	0.163838	-365.077594	-365.06785	-365.066906	-365.113334	32.803	
C	-0.098294262	 1.5184804763	 0.0113783959	-0.385325
C	-0.0277519438	 0.0014317397	 0.0023579466	-0.032918
O	-1.3463102318	-0.5118561089	 0.0122626427	-0.242924
C	-1.3992219407	-1.9165248061	 0.0052265182	-0.051683
C	-2.8641051744	-2.3370150517	 0.0167543471	-0.196225
C	-3.0101202979	-3.8701404878	 0.0100618502	-0.342377
C	-4.4060894405	-4.3011565412	 0.0207947764	 0.259032
N	-5.5137017682	-4.6301026052	 0.0293960669	-0.302119
H	 0.9086850039	 1.9459732769	 0.0039513542	 0.117057
H	-0.6372017669	 1.8830107161	-0.8676251303	 0.129029
H	-0.6200025135	 1.8732779441	 0.9046240874	 0.129026
H	 0.5109555479	-0.3571380099	-0.8912424453	 0.087371
H	 0.528069557	-0.3668785118	 0.8813971815	 0.087368
H	-0.8912618184	-2.3217395451	-0.8885017332	 0.086452
H	-0.8745837416	-2.3312404229	 0.8848519022	 0.086451
H	-3.3517306924	-1.9206591917	 0.9032463963	 0.132406
H	-3.3682469058	-1.9114098899	-0.8559996163	 0.132403
H	-2.5247663066	-4.2969489472	-0.8758584421	 0.153487
H	-2.5083650341	-4.3061862639	 0.8822386415	 0.153489
56.1288	66.1724	82.2391	120.8234	149.1866	188.1372	248.2657	281.4856	386.4054	397.8341	482.0957	567.7271	757.4535	820.0158	870.6502	890.8399	944.7087	1030.4962	1053.7796	1071.497	1123.019	1151.4525	1170.0125	1185.0832	1226.1873	1277.8477	1294.6962	1301.7136	1313.8151	1368.1177	1393.3909	1410.6822	1455.8975	1471.0089	1483.7425	1497.5518	1500.3462	1517.9257	1539.5099	2364.3732	2935.4168	2956.5691	2960.7297	2979.042	3036.595	3046.2121	3063.595	3070.8089	3111.3252	3121.034	3123.0679
CCOCCCC#N	CCOCCCC#N	
InChI=1S/C6H11NO/c1-2-8-6-4-3-5-7/h2-4,6H2,1H3	InChI=1S/C6H11NO/c1-2-8-6-4-3-5-7/h2-4,6H2,1H3
