24
gdb 76415	2.51473	1.16721	1.15121	1.3229	89.89	-0.2123	0.0817	0.2939	1298.9833	0.215499	-368.375691	-368.365211	-368.364267	-368.410682	39.316	
C	 0.8029918979	 1.2138344551	-0.414768768	-0.422421
C	 0.633591351	-0.2275417796	 0.0160566509	-0.028184
N	 1.7469724288	-1.178774428	 0.1257931931	-0.132426
C	 3.1138634337	-0.7675528436	-0.1499794519	-0.317166
C	 1.0530936301	-0.7702073919	 1.3524384878	 0.28179
C	 1.7273356788	 0.1165569233	 2.3851109006	-0.46486
C	 0.226552681	-1.861685916	 1.9904489045	-0.034507
C	-0.1523664112	-3.1057571731	 1.2352346594	-0.272469
C	 0.8630485664	-3.1840547584	 2.3476155182	-0.267513
H	 1.6372422985	 1.723449928	 0.0699792636	 0.117917
H	 0.9579628401	 1.2767389825	-1.4979778846	 0.122067
H	-0.1072140729	 1.7771484097	-0.1823994449	 0.122571
H	-0.2505004816	-0.6910898978	-0.4238399061	 0.081681
H	 3.3726784419	 0.2652388965	 0.1220816371	 0.098034
H	 3.7986622054	-1.4342464829	 0.3841570053	 0.121849
H	 3.3052416321	-0.8861370363	-1.2217822341	 0.121343
H	 2.3164735722	 0.9260751783	 1.9526569157	 0.114183
H	 0.9727188717	 0.5697683689	 3.0374337468	 0.118625
H	 2.3898344349	-0.4810890128	 3.0209627651	 0.12339
H	-0.5105767538	-1.4846333481	 2.696065577	 0.07462
H	-1.1380962076	-3.526107846	 1.4019882113	 0.09973
H	 0.2282954877	-3.1955767225	 0.2245219215	 0.12736
H	 1.8973949718	-3.3303825045	 2.0545001885	 0.111079
H	 0.585353703	-3.6613920509	 3.2809426832	 0.103308
82.696	132.0939	138.8536	154.7377	156.3319	201.757	244.4238	256.2402	310.8472	329.8305	414.2082	481.8041	530.3474	551.8857	662.5256	757.0816	781.413	800.4164	830.7077	867.7551	935.9056	970.926	991.097	1045.2588	1051.449	1062.4092	1090.911	1099.0259	1121.8013	1138.4102	1147.6465	1171.8294	1187.7172	1196.1597	1205.5883	1224.373	1248.9912	1360.0141	1401.8641	1404.1543	1414.2311	1429.5395	1453.7464	1463.363	1481.3172	1488.1866	1488.829	1497.1672	1504.9066	1508.7266	1517.3479	2997.9844	3034.6457	3038.2395	3064.7076	3086.604	3088.9662	3090.4892	3095.0319	3125.8326	3128.3703	3130.6354	3137.9473	3140.6838	3212.9265	3231.3412
CC1N(C)C1(C)C1CC1	C[C@H]1N(C)[C@]1(C)C1CC1	
InChI=1S/C8H15N/c1-6-8(2,9(6)3)7-4-5-7/h6-7H,4-5H2,1-3H3	InChI=1S/C8H15N/c1-6-8(2,9(6)3)7-4-5-7/h6-7H,4-5H2,1-3H3/t6-,8+,9?/m1/s1
