13
gdb 129407	2.90986	1.6643	1.06491	3.1274	62.91	-0.2495	-0.0421	0.2075	1023.0544	0.090666	-482.243987	-482.236291	-482.235347	-482.276741	28.284	
N	-0.0861474246	 1.2839136682	 0.364126385	-0.566121
C	 0.1158354054	-0.015961804	-0.0439076872	 0.445857
N	 1.1847859826	-0.6040738497	-0.3893107148	-0.494577
N	-1.0851622175	-0.7792674372	-0.0048321226	-0.133024
N	-2.2919863767	-0.148070226	 0.1455758094	-0.121832
N	-3.2153530452	-1.014480717	 0.1440555017	-0.060997
N	-2.6449357088	-2.2291130116	-0.0039708163	-0.31324
C	-1.2567832136	-2.1766128579	-0.1049417005	 0.549512
O	-0.4768255367	-3.0792386998	-0.2292713542	-0.36256
H	 0.619989489	 1.941478196	 0.0768618882	 0.259711
H	-1.0347325569	 1.6278767123	 0.3537627891	 0.279643
H	 1.9799527689	 0.031232179	-0.3524308073	 0.21982
H	-3.2107172859	-3.0609525323	-0.0257643203	 0.297808
50.0467	139.6276	219.378	243.1041	383.7622	400.2026	454.1937	482.1616	495.041	564.3945	673.3723	691.2878	709.0737	748.5862	775.5151	818.5513	963.3931	1044.2958	1080.0988	1105.6379	1168.7921	1209.6164	1292.6619	1382.7679	1451.6638	1511.3984	1626.3926	1745.2295	1890.0207	3507.8818	3583.2986	3682.6706	3703.5963
NC(=N)N1N=NNC1=O	NC(=N)n1nn[nH]c1=O	
InChI=1S/C2H4N6O/c3-1(4)8-2(9)5-6-7-8/h(H3,3,4)(H,5,7,9)	InChI=1S/C2H4N6O/c3-1(4)8-2(9)5-6-7-8/h(H3,3,4)(H,5,7,9)
