18
gdb 23057	3.25591	1.06962	0.91156	1.9173	78.28	-0.2432	-0.0115	0.2317	1316.4717	0.145165	-439.015935	-439.006852	-439.005908	-439.049961	33.53	
C	-0.0532103693	 1.4288580616	-0.1994123655	-0.417315
C	 0.0297829742	-0.0592688038	 0.0122343289	-0.017209
O	 1.3373775942	-0.6493440265	-0.0051729445	-0.2869
C	 0.6245435175	-0.6579304386	 1.2192846395	 0.366124
C	 1.1030556654	-0.0060066687	 2.531735262	-0.329238
C	 0.5386364465	-1.2404056729	 3.3140114893	-0.330683
C	 0.2124388515	-1.8834455113	 1.9762151125	 0.34444
N	-0.2049751999	-3.0054588523	 1.5626863797	-0.243933
O	-0.4652934669	-3.8743050387	 2.6330317327	-0.386785
H	 0.7073717775	 1.9515232078	 0.3860108424	 0.128189
H	 0.0999379914	 1.6733876981	-1.2557307819	 0.134031
H	-1.0410600307	 1.8022169148	 0.0915148739	 0.12408
H	-0.7210695728	-0.6579826579	-0.5060012299	 0.104594
H	 2.1904467203	 0.0809719833	 2.5801811849	 0.125576
H	 0.6553851969	 0.959667782	 2.7756280044	 0.111981
H	 1.259195018	-1.7938524204	 3.9209810228	 0.133994
H	-0.3415977357	-1.0333320138	 3.9287642226	 0.129619
H	-0.7426739779	-4.6783118927	 2.1803170661	 0.309436
73.3935	108.1692	146.9561	182.8061	221.2193	271.362	321.227	369.0788	439.4623	462.1843	522.5325	549.0233	636.3163	756.2903	763.3476	794.2449	878.366	924.926	953.6668	983.4474	1029.0593	1057.7917	1077.5528	1102.0026	1137.2671	1168.7355	1185.2027	1211.9102	1238.4268	1251.8369	1343.8308	1405.5571	1410.3944	1455.7099	1466.9901	1483.749	1488.5256	1511.6179	1775.1834	3037.254	3065.7394	3074.8683	3098.7147	3101.2833	3109.9308	3127.7049	3131.5209	3813.6983
CC1OC11CCC1=NO	C[C@H]1O[C@]21CCC2=NO	
InChI=1S/C6H9NO2/c1-4-6(9-4)3-2-5(6)7-8/h4,8H,2-3H2,1H3	InChI=1S/C6H9NO2/c1-4-6(9-4)3-2-5(6)7-8/h4,8H,2-3H2,1H3/t4-,6+/m1/s1
