17
gdb 32969	4.70869	0.78092	0.70837	1.9885	71.79	-0.1969	0.0408	0.2378	1548.6972	0.136487	-455.173925	-455.164826	-455.163882	-455.208816	32.716	
O	-0.0098543479	 1.4170557895	 0.3324050273	-0.414594
C	-0.0291830016	 0.0006694605	 0.3291822824	-0.056599
C	-1.3424049587	-0.5687794056	-0.2406614143	-0.322993
C	-1.3947606456	-2.0601714846	-0.2058137385	 0.330437
N	-1.0501777581	-2.8727545029	-1.1746721331	-0.2901
C	-1.2067932279	-4.1573282605	-0.685518713	-0.232682
C	-1.6533751183	-4.1019035525	 0.6066564202	 0.353753
O	-1.9822269172	-5.0118185119	 1.5551446264	-0.435844
N	-1.7699272641	-2.771531833	 0.9157921198	-0.33635
H	 0.0007362433	 1.7130223559	-0.5834861496	 0.284287
H	 0.819847961	-0.4219799867	-0.2273675409	 0.108218
H	 0.0869320641	-0.3010423825	 1.3758979112	 0.106056
H	-2.181396621	-0.1297293907	 0.3122916941	 0.106554
H	-1.4428555313	-0.2616338612	-1.2868615379	 0.12204
H	-0.9979651657	-5.0290509664	-1.2862473177	 0.097222
H	-1.8517249701	-5.8922477933	 1.1896998993	 0.311489
H	-2.0969402709	-2.4090510842	 1.7960500442	 0.269105
36.738	93.6475	98.8667	227.5928	261.5622	284.1737	308.735	358.4178	399.1093	448.3943	494.4205	662.6918	669.9165	718.7225	771.7215	772.9702	793.3771	997.9532	1005.9537	1028.3678	1060.003	1075.6174	1134.28	1160.806	1180.9892	1244.3544	1284.3169	1304.2032	1317.5766	1393.6707	1416.2533	1443.1918	1471.9212	1507.6579	1511.0613	1563.1737	1640.5302	3002.9479	3036.6964	3065.359	3094.5444	3246.7225	3661.4674	3816.1704	3843.8186
OCCC1=NC=C(O)N1	OCCc1ncc(O)[nH]1	
InChI=1S/C5H8N2O2/c8-2-1-4-6-3-5(9)7-4/h3,8-9H,1-2H2,(H,6,7)	InChI=1S/C5H8N2O2/c8-2-1-4-6-3-5(9)7-4/h3,8-9H,1-2H2,(H,6,7)
