13
gdb 33492	2.30236	1.79357	1.2146	5.0826	66.68	-0.2934	-0.0487	0.2446	990.1819	0.088398	-415.565346	-415.557792	-415.556848	-415.597561	27.747	
N	 0.0262481872	-1.1706525648	-0.0562647456	-0.316434
C	 0.0171849015	-0.0163677655	-0.0301361872	 0.293331
C	 0.0566801789	 1.4527317171	 0.0189480705	 0.119346
O	-0.1706246087	 1.9730777019	 1.3518213338	-0.296763
C	 1.0754045445	 2.7000721798	 1.3006873087	 0.104943
C	 2.2193468479	 1.7514114272	 1.2032606574	-0.313153
C	 1.4448991974	 2.1220018901	-0.0439160398	-0.148006
C	-0.8997125872	 2.0305024615	-0.936741055	 0.290669
N	-1.624163198	 2.5098245905	-1.6970383551	-0.310548
H	 1.0795886237	 3.7065400176	 1.6962885742	 0.137382
H	 3.2059443568	 2.2019991477	 1.2440753686	 0.142283
H	 2.1409280252	 0.7589919519	 1.6364528367	 0.152861
H	 1.8670583608	 2.5598345951	-0.9357443374	 0.14409
126.7812	132.5515	166.7425	189.9204	335.8569	431.6201	488.3984	525.9851	555.691	583.2178	586.7119	770.8715	815.1905	882.4171	943.6757	972.6637	989.8249	1019.7179	1047.7305	1059.7402	1085.9554	1110.8292	1155.9888	1206.8727	1261.7112	1346.3092	1471.759	2365.2625	2368.4755	3128.8382	3215.9486	3222.0651	3237.1264
N#CC1(OC2CC12)C#N	N#CC1(O[C@H]2C[C@@H]12)C#N	
InChI=1S/C6H4N2O/c7-2-6(3-8)4-1-5(4)9-6/h4-5H,1H2	InChI=1S/C6H4N2O/c7-2-6(3-8)4-1-5(4)9-6/h4-5H,1H2/t4-,5+/m1/s1
