19
gdb 31338	3.75335	1.21161	0.9356	1.4502	86.13	-0.1636	0.0523	0.2159	1267.8845	0.161348	-382.057252	-382.048826	-382.047881	-382.090841	31.524	
C	 0.0559217999	 1.4240151842	 0.0923358631	-0.3184
N	-0.1721657518	-0.0012358324	-0.0692651568	-0.388309
C	 0.5472593601	-0.6633768087	-1.0774108982	 0.114189
C	 0.7176177322	-2.0237468327	-1.2507222145	 0.240959
C	 0.374796806	-3.4955864856	-1.0912754555	-0.379895
C	 1.147140231	-3.6782943843	-2.453620142	-0.164784
N	 1.4404127879	-2.2357837166	-2.3966834494	 0.017454
C	 1.7280171017	-1.0635596864	-3.0222644791	-0.155717
C	 1.2225802529	-0.065392959	-2.195778081	-0.215231
H	 1.1139584967	 1.6962402459	 0.2453655165	 0.103262
H	-0.3005062151	 1.960109093	-0.7938303928	 0.129407
H	-0.5219511904	 1.7825070968	 0.9483261815	 0.113876
H	-0.1202865232	-0.4913956374	 0.8124949985	 0.226787
H	 0.8198823253	-4.0212086536	-0.240478897	 0.11182
H	-0.6871584405	-3.7526733733	-1.1461032688	 0.119803
H	 2.0358701245	-4.3156300087	-2.431356918	 0.119024
H	 0.5110211499	-3.9626829625	-3.2968071185	 0.125573
H	 2.300784182	-0.9982248951	-3.9330558033	 0.112834
H	 1.3526731009	 0.9933400865	-2.3606397547	 0.087348
55.049	89.441	182.1398	199.6034	230.0959	330.479	343.2889	533.8789	564.5072	607.4573	651.477	686.7135	697.2823	758.2654	772.6566	808.7348	836.8007	909.0156	1034.6325	1049.0953	1052.9131	1096.8483	1107.7628	1138.2954	1154.259	1179.4836	1198.3331	1221.9155	1255.4658	1281.8973	1354.6049	1417.3166	1439.3361	1457.4301	1465.4986	1486.8237	1490.6006	1496.7397	1520.4513	1523.7387	1644.8628	2959.8079	3043.1847	3050.3302	3060.7958	3082.836	3103.9186	3109.4918	3242.8535	3267.2997	3578.0544
CNC1=C2CCN2C=C1	CNc1c2CCn2cc1	
InChI=1S/C7H10N2/c1-8-6-2-4-9-5-3-7(6)9/h2,4,8H,3,5H2,1H3	InChI=1S/C7H10N2/c1-8-6-2-4-9-5-3-7(6)9/h2,4,8H,3,5H2,1H3
