14
gdb 127738	2.11217	1.93055	1.01592	1.0138	73.65	-0.2327	-0.0459	0.1867	1087.8896	0.102388	-429.064249	-429.055926	-429.054982	-429.097411	29.626	
C	-0.0443383292	 1.4327092781	 0.0158956784	-0.340016
N	-0.0009065152	-0.0156737416	 0.0700533103	-0.034927
N	-0.0226105816	-0.7426202893	-1.0375016865	-0.125531
N	 0.0232896868	-2.0114518502	-0.7083076078	-0.246562
C	 0.0798270246	-2.1145453029	 0.6436031576	 0.246885
N	 0.1962584956	-3.3250801623	 1.2742694237	-0.598402
C	 0.0632536013	-0.8282949526	 1.1790042749	 0.202624
C	 0.0939291808	-0.3673283195	 2.5037654085	 0.208843
N	 0.1145215684	-0.0017294503	 3.6051339785	-0.354539
H	 0.8550687964	 1.8576667245	 0.4688697065	 0.163309
H	-0.0976634847	 1.7104095085	-1.0360671173	 0.176122
H	-0.92389933	 1.8070317168	 0.5459791826	 0.162305
H	-0.0775895765	-4.1106169101	 0.7024738141	 0.270398
H	-0.1429912468	-3.372978639	 2.2227208067	 0.269492
92.2419	122.8847	143.861	190.0984	274.0793	325.0725	349.1478	414.1315	521.5092	547.6732	572.5745	588.1768	669.9427	679.3719	760.4696	838.6325	1053.1678	1088.5929	1103.9975	1151.3551	1252.6464	1301.6151	1338.0809	1409.2319	1451.1916	1479.2955	1493.2532	1521.6159	1604.1063	1660.0903	2327.1161	3056.4519	3124.7449	3173.3843	3577.9657	3685.4026
CN1N=NC(N)=C1C#N	Cn1nnc(N)c1C#N	
InChI=1S/C4H5N5/c1-9-3(2-5)4(6)7-8-9/h6H2,1H3	InChI=1S/C4H5N5/c1-9-3(2-5)4(6)7-8-9/h6H2,1H3
