20
gdb 106693	2.58368	1.54029	1.26168	2.9009	78.36	-0.2503	0.087	0.3373	1084.0165	0.17157	-403.093666	-403.085277	-403.084333	-403.126211	33.154	
C	 0.4688659575	 1.2739513907	 0.1118389867	-0.484168
C	 0.0756129337	-0.1731806485	 0.1795670953	 0.289711
N	 1.0994030231	-1.2100392799	-0.039992605	-0.435883
C	 0.3468328787	-1.2337252926	 1.2237985401	 0.259511
C	 1.1657544355	-1.1762941796	 2.4889754589	-0.155829
O	 2.3667316632	-0.4577236166	 2.2979990175	-0.419343
C	-1.0445504871	-1.8031561259	 1.0424933839	-0.143638
C	-2.0848438664	-0.7345100623	 1.268034728	-0.28985
C	-1.3202506756	-0.7385096521	-0.0294762297	-0.11712
H	 1.4234920355	 1.4326221809	 0.6167765934	 0.143243
H	 0.5621762026	 1.6074775731	-0.9281831782	 0.118051
H	-0.2871642732	 1.8997020145	 0.5973302271	 0.118551
H	 0.7993378862	-1.9334872172	-0.6896926693	 0.224244
H	 0.6007039077	-0.6790609922	 3.2863352008	 0.107322
H	 1.3649738341	-2.2075154463	 2.8322874426	 0.085574
H	 2.6470130327	-0.6785459767	 1.3975114702	 0.290484
H	-1.2982484262	-2.8569992582	 1.0076680039	 0.089814
H	-3.1185050201	-1.0638293068	 1.2091169085	 0.114091
H	-1.9106059473	 0.0490605436	 2.0003343203	 0.116529
H	-1.8108100647	-0.879962788	-0.986495265	 0.088704
119.5742	158.6191	205.6002	220.0173	228.0083	297.7367	400.6367	473.57	503.7037	528.4423	571.765	647.519	696.1884	749.9591	794.0231	820.0645	864.2298	935.4244	953.74	993.9123	1030.4451	1053.7998	1063.8792	1067.6186	1086.7629	1097.1907	1105.1248	1147.237	1151.3031	1180.4453	1220.8308	1237.8348	1257.7177	1325.3233	1331.4871	1372.5075	1410.7751	1448.976	1463.8028	1488.0802	1491.2544	1495.2614	1515.5661	2940.7064	3033.2713	3050.44	3092.8918	3114.0584	3136.9276	3165.7818	3174.9184	3199.1107	3475.0507	3721.2134
CC12NC1(CO)C1CC21	C[C@@]12N[C@]1(CO)[C@H]1C[C@@H]21	
InChI=1S/C7H11NO/c1-6-4-2-5(4)7(6,3-9)8-6/h4-5,8-9H,2-3H2,1H3	InChI=1S/C7H11NO/c1-6-4-2-5(4)7(6,3-9)8-6/h4-5,8-9H,2-3H2,1H3/t4-,5+,6+,7-/m1/s1
