17
gdb 45800	2.85294	1.56909	1.09548	2.8103	75.66	-0.2261	-0.0088	0.2173	1071.8754	0.139344	-418.023485	-418.01617	-418.015226	-418.055268	28.898	
O	-0.1584965633	 0.073682039	-0.8090296552	-0.353891
C	-0.0263000542	 1.0959519813	-0.1673472036	 0.376295
C	-1.1460381052	 1.7425879005	 0.6293278083	-0.312599
C	-1.5009438306	 3.1426978677	 0.1675030802	-0.048194
N	-1.6252830494	 4.1491009415	 1.2364841029	-0.338958
C	-0.4990590699	 4.2315457118	 0.2720756744	-0.07597
C	 0.8800822107	 3.9912955667	 0.7607678324	-0.084508
C	 1.6089077644	 2.8905063532	 0.5476897435	 0.005398
N	 1.2164051714	 1.7039414845	-0.0789866259	-0.321743
H	-2.0059909745	 1.0732450801	 0.5683913845	 0.12758
H	-0.8338424638	 1.8100416153	 1.6770053797	 0.139244
H	-2.1991130364	 3.1942963037	-0.6645852363	 0.095338
H	-2.3305236442	 4.8376421879	 0.9852459796	 0.232025
H	-0.5713802415	 5.0313142751	-0.465535103	 0.096174
H	 1.3654032453	 4.8079254973	 1.2868957558	 0.098381
H	 2.645064954	 2.8668181938	 0.8739644808	 0.113029
H	 1.9415968271	 1.1530570307	-0.5171605081	 0.252398
110.4973	144.7019	267.4475	326.3292	363.6517	394.6369	494.3921	553.4714	562.2779	629.4568	701.1975	746.3978	804.7041	824.6478	864.977	871.0874	924.9233	964.5865	973.465	999.6545	1009.6603	1082.1178	1134.6274	1151.1565	1198.7544	1240.5498	1251.957	1284.4765	1314.4373	1341.2252	1397.1534	1444.0925	1467.839	1472.9218	1482.5506	1725.5999	1793.7889	3057.8659	3094.381	3121.6963	3139.9857	3158.8382	3180.3237	3497.8856	3598.4308
O=C1CC2NC2C=CN1	O=C1C[C@H]2N[C@H]2C=CN1	
InChI=1S/C6H8N2O/c9-6-3-5-4(8-5)1-2-7-6/h1-2,4-5,8H,3H2,(H,7,9)	InChI=1S/C6H8N2O/c9-6-3-5-4(8-5)1-2-7-6/h1-2,4-5,8H,3H2,(H,7,9)/t4-,5+/m0/s1
