16
gdb 74841	2.48495	1.80179	1.14892	2.4871	71.25	-0.2577	-0.0146	0.2432	1047.6635	0.124774	-437.931945	-437.924304	-437.92336	-437.964168	28.977	
C	-0.0067930939	 1.4940111311	-0.0893202745	-0.457581
C	-0.1045203782	 0.0089201445	 0.0479963004	 0.3931
N	-1.1650940623	-0.6439712295	-0.169242651	-0.275864
C	-1.1332576155	-2.0624903421	-0.0788368896	 0.005235
C	-0.2612856614	-2.8196705967	-1.03002888	-0.300587
C	 0.1431640607	-2.7378063079	 0.4334529958	-0.189354
C	 1.2379761884	-1.8413936312	 0.846400615	 0.430145
O	 2.196260716	-2.1538530737	 1.4915392832	-0.318695
O	 1.1134602882	-0.5162085288	 0.4529300157	-0.252477
H	 0.7564996201	 1.7541184217	-0.8298848225	 0.148139
H	-0.9707760362	 1.896899996	-0.3969546795	 0.15073
H	 0.3009219489	 1.9416874425	 0.8607795264	 0.150807
H	-2.0818123602	-2.5068284671	 0.2006037709	 0.114239
H	-0.5957626684	-3.7913758673	-1.3734669091	 0.136785
H	 0.3073483399	-2.2475877288	-1.754333564	 0.139921
H	 0.0845083339	-3.6440338227	 1.0228025029	 0.125458
116.158	143.6396	165.2345	235.9306	308.0516	415.369	467.6764	506.9218	550.1474	641.1762	664.4688	749.5075	780.2949	802.1549	869.6197	951.0507	956.3507	974.2288	1012.1199	1055.8848	1063.7692	1068.7464	1120.8342	1172.5669	1183.7223	1230.794	1261.8178	1369.9099	1386.8137	1409.8031	1473.0682	1473.8901	1478.947	1761.875	1865.7627	3049.8915	3107.7869	3143.9622	3168.7289	3175.1443	3198.5859	3236.9945
CC1=NC2CC2C(=O)O1	CC1=N[C@H]2C[C@H]2C(=O)O1	
InChI=1S/C6H7NO2/c1-3-7-5-2-4(5)6(8)9-3/h4-5H,2H2,1H3	InChI=1S/C6H7NO2/c1-3-7-5-2-4(5)6(8)9-3/h4-5H,2H2,1H3/t4-,5+/m1/s1
