15
gdb 123567	3.91618	1.59139	1.24243	4.5067	71.7	-0.2391	-0.035	0.2041	957.1197	0.114048	-416.776045	-416.769215	-416.768271	-416.807467	26.131	
C	-0.0167579787	 1.4677004	 0.0850426349	-0.277139
C	 1.3001079208	 0.7491960206	 0.0332873478	-0.029302
C	 2.0338138123	 0.4387929152	 1.3602808071	-0.36336
C	 1.0328785022	-0.4551128829	 2.0295305958	 0.203822
C	-0.0512526822	-0.7501904666	 1.2487743715	 0.413855
O	-0.8849103711	-1.5492349937	 1.8388444696	-0.277209
N	-0.1805477687	-1.7803118789	 3.2457852977	-0.0511
N	 0.8569995976	-1.1097409956	 3.2089560777	-0.167249
C	-0.0180480282	-0.046834858	-0.046582569	-0.188222
H	-0.3532833506	 1.8956809243	 1.0236093392	 0.13158
H	-0.3098733498	 2.0278802199	-0.7964548471	 0.127182
H	 1.9018967524	 0.8673305649	-0.8593766815	 0.103616
H	 2.9888225593	-0.0649531301	 1.1721342826	 0.126559
H	 2.2542187629	 1.3532828746	 1.9213969551	 0.130044
H	-0.3778675881	-0.5156822737	-0.9530829915	 0.11692
93.9511	155.5376	238.5747	335.1023	409.5861	444.8032	581.9553	657.3737	694.3641	748.2156	776.7616	783.8338	814.044	881.1783	948.7402	960.1	988.7732	1036.0032	1071.8731	1089.5037	1098.0556	1172.9929	1180.3318	1198.8244	1269.7663	1307.3214	1336.4657	1391.5567	1476.8286	1493.2663	1495.4912	1505.7125	1572.8036	3038.0473	3072.4329	3131.1607	3187.9826	3201.0999	3220.8455
C1C2CC3=C(ON=N3)C12	C1[C@H]2Cc3c(onn3)[C@@H]12	
InChI=1S/C6H6N2O/c1-3-2-5-6(4(1)3)9-8-7-5/h3-4H,1-2H2	InChI=1S/C6H6N2O/c1-3-2-5-6(4(1)3)9-8-7-5/h3-4H,1-2H2/t3-,4-/m0/s1
