16
gdb 15142	9.88792	0.71061	0.68867	3.5628	63.	-0.2592	-0.03	0.2292	1555.6512	0.12707	-420.839606	-420.830824	-420.829879	-420.874752	28.964	
O	-0.1047935298	 0.0648413341	 0.3859598712	-0.236447
C	 0.1602032133	 0.9835611578	-0.3419109814	 0.139991
C	 1.3748076732	 1.8777126258	-0.157646689	-0.140975
O	 1.3416958513	 2.8711272948	-1.1485442466	-0.249572
C	 2.4307467166	 3.7690247769	-1.0865798085	-0.075884
C	 2.2876933144	 4.7694930992	-2.1991580673	 0.081268
C	 3.4578140285	 5.4595363928	-2.7530511385	-0.181152
O	 2.8228493843	 4.4021914818	-3.4701046647	-0.223936
H	-0.4644481872	 1.2575439057	-1.2201164776	 0.10078
H	 1.3527540002	 2.3029042694	 0.8603627775	 0.121481
H	 2.2836979972	 1.2555655151	-0.2260105664	 0.125046
H	 2.4418345806	 4.2906474575	-0.1136874902	 0.095864
H	 3.3878234779	 3.2347894343	-1.194999332	 0.101912
H	 1.3171061941	 5.2639580935	-2.2447615954	 0.104695
H	 3.3426816656	 6.4558669944	-3.1765642254	 0.12111
H	 4.4516227798	 5.2325583569	-2.3681071955	 0.115818
45.6478	62.2386	98.0252	105.361	134.37	258.7627	319.3082	439.5213	455.188	577.7687	742.937	807.1683	871.1763	948.6354	995.3235	1017.0377	1064.7649	1108.5084	1115.974	1150.7868	1160.4293	1172.2843	1181.4611	1237.3518	1272.4761	1293.357	1339.5252	1381.6511	1410.3102	1461.1743	1478.9565	1508.2348	1532.8528	1845.9424	2904.3167	2953.7346	2963.0082	2988.5561	3003.4831	3083.389	3116.4935	3169.8763
O=CCOCC1CO1	O=CCOC[C@H]1CO1	
InChI=1S/C5H8O3/c6-1-2-7-3-5-4-8-5/h1,5H,2-4H2	InChI=1S/C5H8O3/c6-1-2-7-3-5-4-8-5/h1,5H,2-4H2/t5-/m0/s1
