23
gdb 106405	2.45086	1.30768	1.22269	1.2259	86.05	-0.2513	0.0751	0.3263	1216.1349	0.204714	-388.25048	-388.240913	-388.239969	-388.28435	37.437	
C	-0.6658931885	 1.8188061129	-0.2574311947	-0.381605
C	-0.5040009058	 0.2948376905	-0.294130249	-0.317446
C	-1.799888851	-0.4554289892	-0.1073758657	 0.320627
C	-2.7969042427	-0.3669173474	 1.1023106338	-0.268631
C	-3.410481011	-1.426645476	 0.1413225991	-0.126361
C	-3.0743534374	-0.4402651283	-1.0133662385	-0.283739
C	-1.963360526	-2.0087643953	-0.0171323719	 0.427879
C	-1.6126452126	-2.9118411473	-1.1947154221	-0.489455
O	-1.3486318284	-2.5336795322	 1.150703513	-0.491614
H	 0.2966521551	 2.3205368867	-0.396005519	 0.110174
H	-1.3404732243	 2.1661164019	-1.0471529219	 0.115528
H	-1.0797226829	 2.148619999	 0.7011197011	 0.119816
H	-0.0516133178	-0.0042512265	-1.249443326	 0.093447
H	 0.1952269361	-0.0235193696	 0.4893758376	 0.110339
H	-2.4356571171	-0.7198591566	 2.0655671529	 0.110602
H	-3.3547280279	 0.5690504815	 1.1880709639	 0.08134
H	-4.3389878323	-1.9844858286	 0.2789116342	 0.060087
H	-3.6426093915	 0.4927850085	-1.0045592562	 0.092482
H	-2.9934879367	-0.829411635	-2.0292014991	 0.086096
H	-2.0161221524	-2.5741374139	-2.1497096275	 0.123146
H	-0.5250993111	-2.9929639549	-1.2880227987	 0.127075
H	-2.0044704064	-3.9224702516	-1.018748932	 0.105303
H	-1.5495530573	-3.4737428486	 1.1958984668	 0.274912
71.3232	143.5822	171.1216	205.9906	238.3732	249.5253	279.6232	332.0045	366.2632	431.5944	523.6957	560.5704	576.1116	616.8209	698.5412	757.772	779.1008	828.8374	904.7045	926.6134	940.7729	957.0869	991.6959	1002.4163	1023.9845	1048.0653	1074.7606	1097.579	1113.4577	1152.4659	1171.0039	1173.3346	1194.7922	1209.2839	1223.8453	1238.6935	1300.2927	1303.7095	1357.3864	1391.4175	1409.8498	1411.6229	1481.9765	1486.5676	1495.1617	1500.1635	1506.4563	1507.471	1544.2164	3013.1063	3023.2607	3034.2738	3049.5459	3065.1646	3068.9585	3088.1912	3092.9392	3102.8127	3105.3028	3123.2316	3143.516	3162.4334	3814.4731
CCC12CC(C1)C2(C)O	CC[C@@]12C[C@@H](C1)[C@]2(C)O	
InChI=1S/C8H14O/c1-3-8-4-6(5-8)7(8,2)9/h6,9H,3-5H2,1-2H3	InChI=1S/C8H14O/c1-3-8-4-6(5-8)7(8,2)9/h6,9H,3-5H2,1-2H3/t6-,7-,8+/m0/s1
