16
gdb 45321	3.28226	1.51249	1.21583	2.3738	69.2	-0.242	-0.0418	0.2001	1004.4905	0.125588	-437.89396	-437.886668	-437.885724	-437.926323	27.437	
O	 0.084082132	 0.4974297213	-1.3509790977	-0.279501
C	 0.0555839286	 1.2905302744	-0.4595675428	 0.398731
C	-1.003277666	 1.7539705266	 0.5479317679	-0.367091
C	-0.140707099	 3.039224248	 0.7751644611	-0.054996
C	 0.1576432939	 3.4738178526	 2.206220963	-0.186304
N	 1.0574019324	 2.5800195766	 2.9257239959	-0.259083
C	 1.8611975893	 1.8733066091	 2.2568959642	 0.130605
O	 2.0232290005	 1.7635913919	 0.9109709722	-0.238963
C	 1.0593755932	 2.3711446384	 0.0428570518	-0.002812
H	-2.0214421841	 1.8680563468	 0.1702642187	 0.134675
H	-1.0234557324	 1.1058176239	 1.4321590643	 0.148669
H	-0.5250277887	 3.8738242645	 0.1834359004	 0.094467
H	 0.6107610208	 4.4745882055	 2.1984209622	 0.121504
H	-0.7700837671	 3.5644920662	 2.7820422992	 0.118255
H	 2.5791506486	 1.2223172626	 2.752027765	 0.132501
H	 1.607734008	 2.9437331115	-0.7083674352	 0.109343
59.2534	119.5831	194.8664	295.3549	392.875	483.4571	510.7812	527.436	594.293	675.9097	731.9112	809.77	857.0402	886.7205	933.5178	959.1235	967.5458	1036.0189	1052.3231	1073.7712	1086.8458	1124.7567	1172.0915	1198.6357	1236.0316	1245.8398	1298.2531	1325.2737	1342.5636	1382.7291	1413.8102	1440.5643	1487.5055	1734.0072	1902.6058	3015.6257	3048.5323	3056.3476	3075.7504	3092.2492	3121.5234	3163.4877
O=C1CC2CN=COC12	O=C1C[C@H]2CN=CO[C@@H]12	
InChI=1S/C6H7NO2/c8-5-1-4-2-7-3-9-6(4)5/h3-4,6H,1-2H2	InChI=1S/C6H7NO2/c8-5-1-4-2-7-3-9-6(4)5/h3-4,6H,1-2H2/t4-,6+/m0/s1
