17
gdb 96783	3.2502	1.31658	0.94805	3.1412	82.89	-0.243	-0.0753	0.1677	1210.5299	0.13613	-418.0633	-418.054445	-418.053501	-418.097084	31.56	
C	-0.0089933085	 1.4076408298	 0.1250589243	-0.329882
N	 0.0774998278	-0.0311130721	 0.0222026675	-0.308988
C	 0.576737341	-0.5824609923	-1.0084769973	 0.379761
C	 1.155973021	-0.0395371835	-2.2682239301	-0.164483
C	 1.5449757056	-1.0624121285	-3.0349975778	-0.198203
C	 1.2448436279	-2.3456044738	-2.3256085243	 0.398912
O	 1.4505763443	-3.480011315	-2.6975276915	-0.371111
N	 0.6654134498	-1.9721444714	-1.1187165155	-0.15347
C	 0.2169166153	-2.9067950218	-0.1097576689	-0.34144
H	 0.5306231905	 1.734266557	 1.021863529	 0.136404
H	 0.3809586811	 1.9710369297	-0.7332763922	 0.10643
H	-1.0574265245	 1.6922365036	 0.2729863184	 0.136421
H	 1.2324781159	 1.0139446754	-2.4899786028	 0.13554
H	 2.0055768357	-1.0430892607	-4.0121535517	 0.1371
H	 0.4225759635	-3.9098492582	-0.4861564186	 0.158442
H	 0.7487743302	-2.746106658	 0.8322514262	 0.139299
H	-0.8544147767	-2.7917284302	 0.0774393254	 0.139267
97.6088	109.3071	126.8785	162.8407	216.6712	278.8562	296.2448	314.1426	414.1708	563.5549	618.2854	625.2481	710.9128	751.9586	766.0246	836.3248	929.7993	959.5123	1045.0214	1095.1537	1125.5316	1125.6747	1143.5731	1161.2115	1171.1977	1313.3053	1340.1479	1416.5371	1444.1789	1465.5078	1478.6142	1485.7982	1500.171	1516.2053	1634.7091	1740.3566	1817.4269	3002.7544	3047.1967	3068.214	3073.2303	3107.5563	3153.1338	3240.2965	3263.0142
CN=C1C=CC(=O)N1C	CN=C1C=CC(=O)N1C	
InChI=1S/C6H8N2O/c1-7-5-3-4-6(9)8(5)2/h3-4H,1-2H3	InChI=1S/C6H8N2O/c1-7-5-3-4-6(9)8(5)2/h3-4H,1-2H3
