23
gdb 64284	2.49046	1.60735	1.30508	1.6611	84.02	-0.2413	0.0764	0.3177	1109.7151	0.206724	-388.299286	-388.290518	-388.289574	-388.332097	34.798	
C	-0.1733253861	 1.5765496464	 0.1515923043	-0.437903
C	 0.0576597189	 0.0665990415	 0.027980794	 0.278566
C	-1.2854609966	-0.6629799495	-0.1565562036	-0.430734
C	 1.0435475823	-0.2891215601	-1.1162200385	-0.240338
C	 1.6174824874	-1.6732237346	-0.7476332024	-0.239411
C	 1.7068775992	-1.6622725172	 0.7870090505	-0.067512
C	 2.8287182267	-0.7927311149	 1.3881900879	-0.080312
O	 1.9100479897	 0.2769278943	 1.6916236518	-0.302089
C	 0.772910179	-0.5125612006	 1.2633255909	 0.120946
H	 0.7628990881	 2.0888130754	 0.3853340141	 0.13207
H	-0.572278975	 1.9862578586	-0.7829037007	 0.105248
H	-0.8917099818	 1.8052439876	 0.9468891742	 0.106327
H	-1.7801034103	-0.3309857666	-1.075532185	 0.113771
H	-1.165919536	-1.7498264993	-0.2185654992	 0.111522
H	-1.9616376159	-0.4537785868	 0.6794899661	 0.11334
H	 0.5633676768	-0.2769032213	-2.0995096784	 0.089939
H	 1.8468483229	 0.455436438	-1.1410416557	 0.104634
H	 0.941865584	-2.4700968996	-1.0761215861	 0.100816
H	 2.5863005314	-1.8679921788	-1.2194447325	 0.095941
H	 1.5861066695	-2.6462829365	 1.2412975914	 0.071797
H	 3.292695071	-1.1966516419	 2.2974033829	 0.096443
H	 3.6206337282	-0.4744452307	 0.6974219689	 0.096556
H	 0.0931641167	-0.7058536134	 2.1022632953	 0.060382
106.4877	182.7358	187.0474	214.7899	239.4575	314.1629	329.2292	364.0503	375.6608	492.3136	555.7611	595.9755	751.4029	801.6595	844.6277	870.2944	894.1915	925.2677	941.4402	948.4522	951.5796	973.438	1006.1575	1027.2111	1039.18	1059.8695	1079.0453	1156.0488	1164.1177	1179.2986	1217.8353	1225.9651	1254.204	1262.3337	1284.9922	1311.1734	1328.3054	1351.7791	1364.166	1368.1529	1395.7685	1418.7416	1479.1592	1484.6771	1493.8773	1499.2249	1503.4414	1511.6117	1524.4662	3002.6859	3025.6383	3027.6582	3032.2408	3040.1753	3043.0198	3045.1841	3075.1584	3087.9997	3089.9973	3095.5669	3097.6763	3103.6243	3123.7919
CC1(C)CCC2COC12	CC1(C)CC[C@H]2CO[C@@H]12	
InChI=1S/C8H14O/c1-8(2)4-3-6-5-9-7(6)8/h6-7H,3-5H2,1-2H3	InChI=1S/C8H14O/c1-8(2)4-3-6-5-9-7(6)8/h6-7H,3-5H2,1-2H3/t6-,7+/m0/s1
