17
gdb 77384	2.52285	1.6796	1.37339	1.5125	67.58	-0.2431	0.0684	0.3115	980.4759	0.134624	-458.901698	-458.893582	-458.892638	-458.933558	32.524	
O	-0.0843249336	 1.5219552508	-0.0571031816	-0.446447
C	-0.021975948	 0.1143749454	-0.0625096153	 0.018707
C	-1.3467457745	-0.6209055204	-0.0902238557	 0.387927
O	-2.2302272489	-0.7815323246	 0.9545556568	-0.464546
C	-1.7725873404	-0.7472255765	-1.5634216641	-0.141014
C	-0.696367354	-0.0699816362	-2.4142554291	-0.296247
C	 0.30510554	-0.6395657714	-1.3788657745	 0.335429
O	 1.648118726	-0.8289523202	-1.6506970025	-0.480568
C	-0.7890143778	-1.72344631	-0.9485527275	-0.237571
H	 0.8149363704	 1.8624272602	-0.0115747566	 0.288194
H	 0.6111450762	-0.2750870411	 0.7465653183	 0.078908
H	-2.7438052244	 0.030148748	 1.0353971073	 0.292067
H	-2.8076230794	-0.9420152161	-1.8112312682	 0.091083
H	-0.5905967715	-0.5657100406	-3.3863155645	 0.084622
H	-0.7164805888	 1.0169808591	-2.5354466367	 0.105155
H	 1.7305236715	-1.2472976116	-2.5144309686	 0.282906
H	-0.7916804828	-2.7954843149	-0.8238420775	 0.101395
184.8769	215.8089	255.3421	273.5887	294.7925	312.9992	341.8551	373.5861	416.2857	533.723	581.9002	620.0722	644.9409	727.9847	815.1938	833.4676	863.7952	916.8756	941.9571	944.1042	1000.7352	1047.5751	1057.0111	1080.7825	1121.3229	1138.0845	1142.6272	1208.872	1230.4461	1244.8392	1291.7597	1301.1121	1349.8295	1387.721	1414.7444	1476.6315	1491.0899	3022.5119	3033.7718	3097.591	3205.7517	3238.583	3792.616	3805.4558	3818.5086
OC1C2(O)C3CC1(O)C23	O[C@H]1[C@@]2(O)[C@H]3C[C@]1(O)[C@@H]23	
InChI=1S/C6H8O3/c7-4-5(8)1-2-3(5)6(2,4)9/h2-4,7-9H,1H2	InChI=1S/C6H8O3/c7-4-5(8)1-2-3(5)6(2,4)9/h2-4,7-9H,1H2/t2-,3-,4+,5-,6+/m0/s1
