21
gdb 120459	2.88142	0.87794	0.77419	1.1635	80.54	-0.249	-0.0286	0.2205	1590.9359	0.179853	-424.239022	-424.228843	-424.227899	-424.275091	36.125	
C	-0.0714404807	 1.4851739652	 0.3491868203	-0.383539
C	-0.0848374576	-0.0341541118	 0.1646475152	-0.166914
C	-1.4894319717	-0.588668147	-0.103187167	-0.187677
C	-1.5017467828	-2.1023227464	-0.2549321522	 0.007577
O	-1.146725941	-2.8218024496	 0.9556514602	-0.315326
C	-2.3721246989	-3.5974914256	 0.9872534206	 0.037063
C	-3.1597999053	-3.4619790964	 2.2776740322	-0.402811
C	-2.8586399283	-2.8195376687	-0.2453512531	 0.317449
O	-3.8676609409	-2.7590872263	-0.8800723938	-0.285069
H	 0.9418002084	 1.8523020132	 0.5389839705	 0.115109
H	-0.4507895955	 1.9977786469	-0.5418499661	 0.11509
H	-0.6983694714	 1.7867152797	 1.1955588399	 0.116503
H	 0.5758524428	-0.3123883197	-0.666938342	 0.096175
H	 0.3207759294	-0.5234807279	 1.0573314878	 0.119446
H	-2.1644312838	-0.3047098125	 0.7137721242	 0.100794
H	-1.9040425143	-0.1557362971	-1.0229539175	 0.112539
H	-0.8644929073	-2.4119882212	-1.0975674034	 0.100838
H	-2.1740211899	-4.6555566407	 0.760484385	 0.10454
H	-3.3848849624	-2.4137601887	 2.4922350457	 0.127461
H	-4.1014960273	-4.0136467662	 2.1967332959	 0.135712
H	-2.5879489314	-3.8724169691	 3.1149815275	 0.13504
50.909	83.9554	99.8094	114.7311	193.9705	198.9984	246.0142	256.9775	319.4129	384.811	425.4282	535.5223	618.4984	694.5796	750.2878	835.7005	847.4499	880.5209	902.4237	935.367	1018.0625	1037.3186	1053.4639	1066.5564	1102.7905	1120.8746	1133.9043	1157.9016	1237.9413	1255.7459	1273.0978	1307.7847	1328.3197	1337.6472	1377.5963	1395.3822	1399.82	1414.2139	1470.491	1481.2599	1492.7848	1494.6394	1500.0379	1508.9956	1916.6536	2989.9342	3000.8131	3019.3272	3026.5523	3031.1906	3042.6424	3056.3521	3074.8288	3099.7814	3104.2384	3118.9505	3123.2458
CCCC1OC(C)C1=O	CCC[C@H]1O[C@@H](C)C1=O	
InChI=1S/C7H12O2/c1-3-4-6-7(8)5(2)9-6/h5-6H,3-4H2,1-2H3	InChI=1S/C7H12O2/c1-3-4-6-7(8)5(2)9-6/h5-6H,3-4H2,1-2H3/t5-,6+/m0/s1
