17
gdb 9881	5.21425	0.98415	0.92558	5.3065	69.09	-0.2559	0.0411	0.297	1246.4231	0.140594	-363.863048	-363.854271	-363.853327	-363.896863	31.407	
O	-0.0345442399	 1.4205362538	-0.2074620942	-0.473505
C	-0.0108828769	 0.0221628634	-0.0577152255	 0.437541
C	 1.0977229983	-0.5464125693	-0.9123496216	-0.228808
C	 2.4758203928	 0.001984476	-0.4845947494	-0.338163
C	 3.5644261683	-0.5129828339	-1.3096291523	 0.254332
N	 4.4141804867	-0.9335555769	-1.9705579848	-0.309002
C	-0.3327695995	-0.5983313801	 1.27644884	-0.333
C	-1.296911343	-0.7379525387	 0.1056053831	-0.33626
H	-0.6389830828	 1.7979364376	 0.4384601787	 0.285907
H	 1.0929729417	-1.6377173998	-0.8435261144	 0.119565
H	 0.9151679329	-0.284903335	-1.9599923728	 0.131135
H	 2.4637134353	 1.0942499194	-0.5443221305	 0.170453
H	 2.6761197426	-0.257043128	 0.5613326274	 0.147979
H	 0.2197122465	-1.4746322449	 1.5995821872	 0.12173
H	-0.6204900783	 0.0625213461	 2.0889062557	 0.112129
H	-2.2148372101	-0.159881087	 0.1409059295	 0.11519
H	-1.4020990947	-1.7084799528	-0.3675985063	 0.122777
62.7963	105.3311	126.8207	140.2192	221.9463	324.7149	334.5799	399.2635	423.6699	504.4768	536.27	734.122	769.4393	779.1539	867.8785	932.3872	935.5879	966.8527	984.8617	1032.6854	1043.5507	1054.4956	1069.1643	1165.7722	1183.9499	1192.6893	1277.8521	1289.5401	1351.2471	1370.3487	1436.8375	1460.7515	1470.4841	1485.2445	1503.0978	2361.4593	3048.2273	3058.5083	3092.423	3112.013	3121.0264	3129.2203	3201.1483	3218.1342	3833.4521
OC1(CCC#N)CC1	OC1(CCC#N)CC1	
InChI=1S/C6H9NO/c7-5-1-2-6(8)3-4-6/h8H,1-4H2	InChI=1S/C6H9NO/c7-5-1-2-6(8)3-4-6/h8H,1-4H2
