16
gdb 114306	2.37756	1.48783	1.10892	4.7461	68.78	-0.2651	0.019	0.2841	1098.1678	0.124155	-437.841685	-437.833507	-437.832563	-437.874897	30.112	
O	-0.0834628926	 1.4956165125	-0.1128688546	-0.415853
C	 0.0640526419	 0.125025743	 0.2119251188	-0.108653
C	-1.2739447011	-0.580323606	 0.0984121151	 0.117216
O	-1.8250867351	-0.561490201	-1.2638347726	-0.301259
C	-2.1416942391	-1.9386660879	-1.1615907954	 0.094
C	-0.9027997471	-2.798649829	-1.0827412702	-0.206523
C	 0.3204177826	-2.4817928353	-1.76804153	 0.308633
N	 1.3015545367	-2.2558831322	-2.3376365308	-0.343836
C	-1.4460247748	-2.0982369631	 0.1656079732	-0.191901
H	-0.3290527547	 1.5369276073	-1.0440990456	 0.298524
H	 0.8221261116	-0.3619939416	-0.411087973	 0.132129
H	 0.3996629077	 0.0798048428	 1.2543374142	 0.115127
H	-1.9992411071	-0.0886611961	 0.7576286587	 0.10825
H	-3.0897418577	-2.2849040251	-1.5559474114	 0.127943
H	-1.1237783398	-3.8629816069	-1.0669237101	 0.144436
H	-1.7102943714	-2.6697614013	 1.0443678335	 0.12177
76.914	120.5639	142.9857	185.2257	274.0013	378.553	386.4022	454.3385	480.3488	588.8664	641.0853	750.6726	778.0903	818.717	853.6611	917.458	972.0238	1011.3918	1016.2509	1038.8463	1056.4091	1067.5549	1089.0956	1135.1727	1174.3632	1219.4606	1257.4494	1290.1261	1319.679	1361.9563	1407.98	1409.8697	1437.42	1495.7421	2353.1396	3040.7134	3044.2124	3090.9736	3151.5959	3187.6464	3214.7857	3805.7856
OCC1OC2C(C#N)C12	OC[C@H]1O[C@H]2[C@@H](C#N)[C@@H]12	
InChI=1S/C6H7NO2/c7-1-3-5-4(2-8)9-6(3)5/h3-6,8H,2H2	InChI=1S/C6H7NO2/c7-1-3-5-4(2-8)9-6(3)5/h3-6,8H,2H2/t3-,4+,5-,6-/m0/s1
