21
gdb 116142	3.14487	1.10986	0.86483	1.5556	83.01	-0.2415	0.0193	0.2608	1396.6011	0.181953	-424.233538	-424.22418	-424.223235	-424.267755	34.622	
C	 0.0404777187	 1.3992525941	 0.0980520087	-0.235889
O	-0.0155973647	-0.0141602928	 0.0135057157	-0.242483
C	 0.6825134789	-0.5421932029	-1.0679818876	 0.189831
O	 2.0642046108	-0.2767722477	-0.894270221	-0.261294
C	 2.8677993904	-1.0109835364	-1.7995557135	-0.085249
C	 2.7732695395	-2.5121191582	-1.5200305766	-0.293617
C	 1.3330002855	-2.9356999212	-1.3404899082	 0.306724
C	 1.0447504447	-4.4096876789	-1.3808471943	-0.474223
C	 0.3881231768	-2.0164574651	-1.1429509374	-0.187991
H	 1.0576093267	 1.7526722948	 0.298379233	 0.129171
H	-0.319706622	 1.8671891623	-0.8310949599	 0.101976
H	-0.6151109981	 1.6921199514	 0.9210057173	 0.124373
H	 0.3511598354	-0.0337321273	-2.0008970406	 0.049364
H	 2.5589487249	-0.805532197	-2.8383519128	 0.089927
H	 3.8899050905	-0.6424635452	-1.6761486086	 0.107353
H	 3.2343316812	-3.0739055445	-2.3434837013	 0.099417
H	 3.3457065453	-2.7662160291	-0.6171026126	 0.11703
H	 1.6241584108	-4.9420168693	-0.6153614359	 0.126845
H	-0.0146713879	-4.6201420357	-1.2133658529	 0.123767
H	 1.3347080185	-4.8432713499	-2.3466508177	 0.122361
H	-0.6559884458	-2.2888214414	-1.0202496238	 0.092607
85.5347	107.6505	142.5844	177.9684	195.0109	280.7061	289.7842	317.7243	422.3784	428.2763	461.1223	507.5402	603.0017	720.6277	803.026	836.2206	901.7674	942.6204	988.0868	1016.0478	1032.562	1046.5278	1080.5865	1104.8185	1122.6236	1168.5778	1178.6406	1186.8759	1228.8421	1242.4152	1291.9635	1317.4063	1365.7536	1383.4026	1391.3905	1413.3376	1421.8157	1469.6085	1476.8696	1479.219	1483.3084	1489.5871	1500.9817	1512.0854	1747.0431	2845.9327	2965.9492	2989.4518	3009.2053	3016.7476	3042.988	3062.2359	3071.6743	3086.6007	3114.2359	3125.0574	3174.1328
COC1OCCC(C)=C1	CO[C@H]1OCCC(=C1)C	
InChI=1S/C7H12O2/c1-6-3-4-9-7(5-6)8-2/h5,7H,3-4H2,1-2H3	InChI=1S/C7H12O2/c1-6-3-4-9-7(5-6)8-2/h5,7H,3-4H2,1-2H3/t7-/m0/s1
