14
gdb 43910	2.81936	1.50472	1.15847	4.3251	66.69	-0.2959	-0.02	0.2759	1027.2514	0.101337	-436.704452	-436.697141	-436.696197	-436.736548	27.177	
O	-0.1479498719	 0.1484154858	 0.5685584341	-0.303366
C	-0.0241524812	 1.2380471777	 0.121481305	 0.457437
O	-1.0266051168	 2.0657685702	-0.3645929519	-0.275854
C	-0.0718953996	 3.1217575108	-0.692955493	 0.315988
C	 0.0910805653	 4.141902337	 0.4630275365	-0.281866
C	 1.227634195	 3.2633326678	 1.0691501476	-0.236587
C	 1.0875068123	 2.2529484575	-0.113985627	-0.284577
C	-0.1832929945	 3.5719604155	-2.0621543701	 0.237394
N	-0.2389141822	 3.9642288817	-3.1477090924	-0.323632
H	 0.4317539942	 5.1199989383	 0.1204869215	 0.141494
H	-0.817263898	 4.2610622186	 1.0546529619	 0.142768
H	 2.1968886941	 3.7623206918	 1.0718191041	 0.135485
H	 1.0478636686	 2.8412906413	 2.0585987025	 0.140079
H	 1.9703106247	 1.934966746	-0.6626165589	 0.135235
96.6917	149.3729	190.6269	225.4181	365.442	451.3106	504.7877	528.6486	578.2916	665.0123	734.9548	754.4688	819.8778	889.2484	908.6556	950.371	980.7063	1026.8076	1072.4864	1099.303	1133.7407	1162.3318	1211.0314	1229.6713	1256.9265	1285.1299	1299.5841	1465.901	1491.8578	1954.5563	2361.5261	3088.5772	3092.7298	3139.2781	3155.0225	3161.4842
O=C1OC2(CCC12)C#N	O=C1O[C@]2(CC[C@@H]12)C#N	
InChI=1S/C6H5NO2/c7-3-6-2-1-4(6)5(8)9-6/h4H,1-2H2	InChI=1S/C6H5NO2/c7-3-6-2-1-4(6)5(8)9-6/h4H,1-2H2/t4-,6+/m0/s1
