15
gdb 125325	4.56573	1.1032	0.89344	0.5445	69.81	-0.2592	-0.0384	0.2209	1242.8877	0.113112	-450.175196	-450.16668	-450.165736	-450.209141	30.107	
C	-0.0026623135	 1.4978850255	 0.1170944433	-0.481723
C	 0.0280821912	 0.0146674303	-0.0453119753	 0.288059
C	-0.0685637319	-0.7554744158	-1.1755360607	-0.151775
N	 0.0216285699	-2.0358876769	-0.7262698921	-0.021043
N	 0.1676012799	-2.0562200207	 0.6225859389	-0.153361
N	 0.1715798093	-0.8294067213	 1.0309702616	-0.237361
C	-0.0243669982	-3.2351542593	-1.5149910204	 0.523177
N	 0.0936424325	-4.3451408778	-0.7598517	-0.563843
O	-0.155919305	-3.1712509825	-2.7134521945	-0.36863
H	 0.9222694797	 1.8601676586	 0.5766224863	 0.145968
H	-0.1229970053	 1.9937973991	-0.8487859538	 0.12986
H	-0.8295886704	 1.8032733974	 0.7657924153	 0.145966
H	-0.188564874	-0.5358458024	-2.2216412162	 0.173092
H	 0.1984503428	-4.2713814754	 0.2394601717	 0.292566
H	 0.0721313329	-5.2367297386	-1.2216891042	 0.279047
59.026	78.3463	129.0219	186.4071	260.9112	299.7027	342.4092	407.0088	525.9634	591.1137	637.6248	645.5213	715.096	734.3365	771.1996	837.02	991.6503	1026.1181	1039.4052	1067.7042	1100.6507	1115.9093	1249.2773	1281.7364	1330.9389	1385.099	1421.9496	1457.9026	1477.9431	1496.9271	1596.0593	1605.3436	1853.2659	3045.0504	3102.919	3128.9066	3305.8283	3599.6434	3749.56
CC1=CN(N=N1)C(N)=O	Cc1cn(nn1)C(=O)N	
InChI=1S/C4H6N4O/c1-3-2-8(4(5)9)7-6-3/h2H,1H3,(H2,5,9)	InChI=1S/C4H6N4O/c1-3-2-8(4(5)9)7-6-3/h2H,1H3,(H2,5,9)
