26
gdb 5806	2.90752	1.20444	1.08293	0.0861	88.38	-0.2949	0.0729	0.3679	1311.6252	0.243923	-315.490854	-315.479996	-315.479051	-315.525805	41.242	
C	-0.6383213178	 0.9507486945	-1.7598535714	-0.386869
C	-0.9173279778	 0.5615562028	-0.2993993432	 0.045239
C	-1.3282758763	 1.8058093021	 0.50307501	-0.390649
C	-1.9950789703	-0.5473039873	-0.1824954123	-0.191877
C	-1.5207289356	-2.0202467583	-0.0562126888	 0.264808
C	-0.7867386775	-2.2337991697	 1.2817581924	-0.399607
C	-2.7718974131	-2.9194694523	-0.0788015331	-0.400379
C	-0.5958186158	-2.4326433854	-1.2153968984	-0.398611
H	 0.1548064099	 1.7038672717	-1.8223928426	 0.105842
H	-0.332731311	 0.0938418868	-2.3655455182	 0.113648
H	-1.5370034616	 1.3783094194	-2.2210695185	 0.109361
H	 0.0202484422	 0.1901521194	 0.1340482153	 0.070926
H	-1.4561595486	 1.5714367243	 1.5650815287	 0.108457
H	-0.5779652439	 2.5997355906	 0.4209058476	 0.10576
H	-2.2795370971	 2.2100735033	 0.1358807491	 0.110986
H	-2.6199711703	-0.3410222849	 0.696163481	 0.083331
H	-2.6694888907	-0.4722247745	-1.0466260344	 0.08274
H	-1.4310819889	-1.9778370625	 2.1303741893	 0.106311
H	-0.4858445966	-3.2810606377	 1.3965997381	 0.106749
H	 0.119528632	-1.6243015027	 1.3546465695	 0.111419
H	-3.313859859	-2.8189739434	-1.0257423092	 0.106644
H	-2.5010539901	-3.9745015921	 0.0404918972	 0.104752
H	-3.4625016235	-2.6586118701	 0.7308947265	 0.106375
H	 0.3362345596	-1.8593201626	-1.2175340002	 0.112418
H	-0.327166867	-3.4919048729	-1.1333875567	 0.104375
H	-1.0838715813	-2.2894812185	-2.1857154376	 0.10785
56.8471	97.9383	188.0615	217.2089	229.8793	257.7873	262.9865	286.2089	290.5447	307.3796	351.0608	382.3651	406.537	413.1643	452.4419	501.7242	741.7678	834.6507	874.3977	905.364	927.8803	932.9057	940.1138	958.0521	964.9094	989.1563	1033.4651	1041.8149	1118.4656	1136.251	1191.8496	1224.0076	1232.884	1270.373	1308.6369	1328.8775	1365.9788	1384.8227	1398.3146	1400.3554	1401.0444	1421.3642	1432.8314	1478.827	1480.9671	1484.858	1488.4621	1489.0216	1495.8892	1504.7509	1506.6678	1510.0236	1512.1953	1519.0427	3003.9434	3017.8686	3020.1189	3021.1627	3023.4819	3028.3956	3031.344	3040.9928	3083.7335	3086.1283	3087.3027	3090.9429	3092.1251	3094.5108	3096.616	3098.3456	3103.4831	3115.8734
CC(C)CC(C)(C)C	CC(C)CC(C)(C)C	
InChI=1S/C8H18/c1-7(2)6-8(3,4)5/h7H,6H2,1-5H3	InChI=1S/C8H18/c1-7(2)6-8(3,4)5/h7H,6H2,1-5H3
