16
gdb 31861	4.93166	1.03976	0.86336	1.8733	76.71	-0.2076	-0.02	0.1875	1284.6824	0.125231	-437.943348	-437.935312	-437.934368	-437.975941	30.075	
C	 0.018407358	 1.3934678512	 0.0519604994	-0.229027
O	-0.0078245906	-0.0297895031	 0.0164393268	-0.269093
C	-1.2260274537	-0.6169031401	 0.001228125	 0.443638
N	-2.3183691872	 0.1311461064	 0.0193931063	-0.352753
C	-3.5080988388	-0.4797797519	 0.0036059932	-0.066551
C	-3.6534943593	-1.8615888629	-0.0309418822	 0.32572
O	-4.9160180079	-2.3816743618	-0.0445086474	-0.444655
C	-2.4920201099	-2.6411824333	-0.0498637793	-0.205588
C	-1.2578539579	-2.0178109652	-0.033741294	-0.205589
H	 1.0749409998	 1.6663447606	 0.0592533684	 0.123466
H	-0.4771064547	 1.8219929392	-0.8246164002	 0.130722
H	-0.4779204099	 1.7777588932	 0.9483608963	 0.130722
H	-4.3929005557	 0.1508451284	 0.0189377401	 0.115107
H	-4.8626453211	-3.34229743	-0.0683583267	 0.297186
H	-2.5580426885	-3.726018713	-0.0769669933	 0.096092
H	-0.3321599028	-2.5796091277	-0.0473341924	 0.110603
94.212	150.8476	197.5006	223.7663	293.7023	380.721	383.0014	437.6896	445.8787	545.9819	574.7869	649.5169	770.16	772.3621	847.212	867.9344	938.7867	953.0719	1024.2027	1064.3597	1142.5394	1179.191	1186.6597	1209.6203	1292.2058	1306.2933	1320.5333	1347.0551	1461.3577	1468.2839	1478.3697	1500.7722	1533.8101	1620.8282	1661.4499	3036.4513	3103.9865	3141.0933	3159.2576	3167.0031	3210.9204	3826.8391
COC1=NC=C(O)C=C1	COc1ncc(O)cc1	
InChI=1S/C6H7NO2/c1-9-6-3-2-5(8)4-7-6/h2-4,8H,1H3	InChI=1S/C6H7NO2/c1-9-6-3-2-5(8)4-7-6/h2-4,8H,1H3
