19
gdb 31738	5.88158	0.8545	0.76475	2.8808	81.42	-0.159	0.0654	0.2244	1518.078	0.160575	-415.415136	-415.405457	-415.404513	-415.449823	34.944	
C	 0.1815536886	 1.364486935	 0.1904980099	-0.320567
N	-0.0872651411	-0.0384025441	-0.0469872509	-0.373236
C	 0.5448001013	-0.6435334286	-1.124044178	 0.332076
C	 1.1256221424	-0.0721391274	-2.2258934541	-0.217661
N	 1.565657392	-1.1642038244	-2.9946883281	-0.308654
C	 1.2175864745	-2.2894559501	-2.3209248227	 0.445248
N	 1.4286116517	-3.5649751324	-2.8115658681	-0.374645
C	 2.5739420827	-3.8230188268	-3.6672427599	-0.336385
N	 0.6152852842	-2.02169585	-1.1805505302	-0.417724
H	 1.2552755233	 1.5999640947	 0.2847314927	 0.102384
H	-0.2172089006	 1.9628241428	-0.6373206729	 0.12563
H	-0.3290573061	 1.6828976775	 1.1024831927	 0.118665
H	-0.0451247656	-0.6211422152	 0.7769272033	 0.234736
H	 1.297041603	 0.943468684	-2.5324739215	 0.107892
H	 1.9607522952	-1.1138414311	-3.9163361015	 0.255387
H	 1.2879468774	-4.2448982589	-2.0783284831	 0.250478
H	 3.5338148938	-3.4974281566	-3.2369817617	 0.118617
H	 2.6282240816	-4.8947580625	-3.8694649461	 0.134584
H	 2.4477589917	-3.324278936	-4.6357253401	 0.123175
58.9809	90.8584	145.0258	185.7911	195.1555	242.1508	264.2699	294.8744	364.9651	414.6176	513.9542	544.8706	565.2985	636.241	698.322	721.7485	747.4405	759.7899	995.4326	1000.2468	1081.6726	1099.0653	1103.5969	1152.4698	1158.6707	1171.4031	1190.1279	1288.032	1298.2683	1362.7361	1408.1432	1457.5107	1463.0316	1479.1035	1490.0314	1500.1745	1517.1242	1524.2738	1547.9624	1634.7696	1651.137	2959.6875	2981.6505	3050.0067	3051.4175	3114.099	3122.2835	3295.869	3594.5024	3608.0364	3687.3493
CNC1=CNC(NC)=N1	CNc1c[nH]c(NC)n1	
InChI=1S/C5H10N4/c1-6-4-3-8-5(7-2)9-4/h3,6H,1-2H3,(H2,7,8,9)	InChI=1S/C5H10N4/c1-6-4-3-8-5(7-2)9-4/h3,6H,1-2H3,(H2,7,8,9)
