22
gdb 122368	3.23562	1.04672	0.92852	1.7603	83.7	-0.2321	0.0858	0.3179	1366.2489	0.194686	-404.251193	-404.242298	-404.241354	-404.285927	33.523	
C	-1.1005596448	 0.5294883885	 1.6361689089	-0.398946
C	-0.0253541799	-0.20786852	 0.8421448221	-0.047982
O	-0.507452244	-0.8309384317	-0.3423662329	-0.24193
C	-0.9849833348	-2.1548090679	-0.2166833127	-0.136463
C	-2.4806112211	-2.2270505351	 0.0705552243	 0.075031
C	-3.27534019	-3.5576915692	 0.1117834105	-0.080542
C	-2.6306136578	-3.7707973941	 1.4978874822	-0.178584
N	-2.9913810558	-2.271793695	 1.539215389	-0.147311
C	-4.3139693653	-2.7309867359	 0.8997790596	-0.165078
H	-0.6409696776	 1.0576922841	 2.4794490796	 0.10296
H	-1.597651844	 1.2698268004	 1.001391493	 0.114068
H	-1.8519716002	-0.1630256666	 2.0254025266	 0.160978
H	 0.7416778073	 0.4991416662	 0.5048415066	 0.101271
H	 0.4764778234	-0.9539557959	 1.4779952673	 0.08549
H	-0.8161243596	-2.6293085845	-1.1929568596	 0.107735
H	-0.3871634586	-2.7069177477	 0.5207198081	 0.092724
H	-2.960644454	-1.4143235053	-0.4856493114	 0.082307
H	-3.4390578226	-4.2838527678	-0.6926253788	 0.064671
H	-3.1860324278	-4.3613854265	 2.231738409	 0.101886
H	-1.5636253717	-3.9838215299	 1.5661692627	 0.103507
H	-4.8467443683	-1.9324259633	 0.3766770219	 0.103708
H	-4.967827313	-3.2614839427	 1.5970920239	 0.1005
46.0366	54.3227	115.4883	186.309	267.9497	306.5598	364.0837	398.1623	476.8148	570.6948	604.2181	731.3257	779.0072	798.5189	810.0685	848.1678	903.7526	906.5987	929.0165	996.5448	1015.3423	1026.7403	1053.6428	1093.2469	1101.427	1123.9659	1141.929	1154.282	1164.9184	1186.0256	1199.7206	1205.9907	1229.6771	1250.5258	1283.9802	1302.1171	1341.5449	1378.9065	1400.4374	1418.4427	1436.4548	1475.5551	1491.1454	1495.4452	1516.9271	1521.6058	1554.4866	2982.8144	3001.7628	3030.5113	3033.7794	3039.5127	3050.9695	3052.8201	3058.304	3068.3112	3101.0246	3119.6398	3124.5027	3135.1807
CCOCC1C2CN1C2	CCOC[C@H]1[C@H]2CN1C2	
InChI=1S/C7H13NO/c1-2-9-5-7-6-3-8(7)4-6/h6-7H,2-5H2,1H3	InChI=1S/C7H13NO/c1-2-9-5-7-6-3-8(7)4-6/h6-7H,2-5H2,1H3/t7-/m0/s1
