21
gdb 110309	2.35622	1.46866	1.07975	3.4375	78.77	-0.2356	0.0617	0.2973	1192.1229	0.182232	-424.194531	-424.185313	-424.184369	-424.22793	35.7	
C	-0.1252912902	 1.5757471053	 0.1365684973	-0.494912
C	-0.0088873842	 0.0843200365	-0.0011437906	 0.326267
C	-1.2224427237	-0.8633702411	-0.0298410288	-0.346944
C	-0.4435576761	-1.8470681237	 0.9064166731	 0.115986
O	-0.1685045172	-3.1701614159	 0.460114267	-0.430916
C	 0.762020419	-0.9276660413	 0.8744327897	-0.132803
C	 1.2140159857	-0.611901869	-0.535721516	-0.074517
C	 1.2709473101	-1.6154502578	-1.6808754894	-0.09658
O	 2.0200400872	-2.7721843516	-1.3646594185	-0.428784
H	 0.8447503593	 2.0294382586	 0.3638808851	 0.120548
H	-0.4932185449	 2.0318318002	-0.7907821817	 0.121699
H	-0.8217597313	 1.8510261675	 0.9373648538	 0.11416
H	-2.0996935371	-0.4374259247	 0.4645608991	 0.100468
H	-1.5266678272	-1.2551559403	-1.0051165742	 0.100664
H	-0.8999216521	-1.8809243194	 1.9034175841	 0.079008
H	-0.9930860947	-3.6645076488	 0.4131640581	 0.288293
H	 1.4148162056	-0.744435555	 1.7199723189	 0.083786
H	 2.0888088931	 0.0355877332	-0.5008050815	 0.087266
H	 0.2588221485	-1.8814968802	-2.0154952297	 0.078814
H	 1.7718899134	-1.1473230802	-2.5356327193	 0.098357
H	 1.5044265468	-3.2263570423	-0.6836429765	 0.290141
108.3683	164.5433	176.4451	208.7311	234.0357	270.1415	283.3877	301.2345	417.5651	455.4295	467.8766	569.1274	580.8651	667.746	729.4114	789.9828	848.5923	885.4627	939.0072	956.8132	978.1819	990.1669	1022.5906	1048.6359	1070.4286	1083.0285	1128.4084	1144.8469	1174.3562	1193.7349	1227.2174	1245.3713	1257.2768	1286.9779	1332.0797	1344.1001	1394.6637	1410.9585	1416.8066	1454.4677	1466.4622	1485.5635	1487.9982	1498.6286	1507.7031	3003.9279	3018.7245	3020.7236	3049.103	3060.0488	3075.2805	3096.6354	3100.4521	3122.7764	3177.8835	3741.4869	3817.9407
CC12CC(O)C1C2CO	C[C@]12C[C@@H](O)[C@H]1[C@H]2CO	
InChI=1S/C7H12O2/c1-7-2-5(9)6(7)4(7)3-8/h4-6,8-9H,2-3H2,1H3	InChI=1S/C7H12O2/c1-7-2-5(9)6(7)4(7)3-8/h4-6,8-9H,2-3H2,1H3/t4-,5-,6-,7-/m1/s1
