20
gdb 83049	2.15432	1.82882	1.36272	2.147	79.7	-0.2204	0.0107	0.2311	1039.2037	0.171972	-403.121921	-403.113458	-403.112514	-403.154517	33.032	
C	 0.3913198378	 1.6662739022	 0.0063305486	-0.341907
N	 0.1446077615	 0.2325160497	 0.0100071221	-0.091062
C	 1.1396634709	-0.7335629655	-0.4347962947	-0.035621
C	 2.5575254567	-0.3354853566	-0.8118225213	-0.291705
C	 3.3876632829	 0.2220738852	 0.3095332777	-0.057158
C	 2.9993924047	 0.2528508103	 1.5823760138	-0.09608
C	 1.6836976645	-0.2719847574	 2.0875996075	 0.071285
O	 1.0930698551	 0.6215704155	 3.038320206	-0.440541
C	 0.7004106041	-0.6832110371	 1.000664339	-0.060835
H	 1.4146384351	 1.9806410787	 0.2514352198	 0.112122
H	 0.1487953697	 2.0569855777	-0.9876569591	 0.12448
H	-0.3005249749	 2.138532405	 0.7132595165	 0.124972
H	 0.7234080493	-1.5112560576	-1.0741362622	 0.086664
H	 3.0625843602	-1.2206399792	-1.2238310436	 0.119783
H	 2.5335020951	 0.3843673029	-1.643482984	 0.114858
H	 4.366377372	 0.610035361	 0.0353315841	 0.092265
H	 3.6500888603	 0.6619702711	 2.3514777027	 0.096168
H	 1.8846149909	-1.1742818347	 2.6822683411	 0.099262
H	 0.9548374264	 1.4647956703	 2.594886757	 0.281823
H	-0.0288631024	-1.4117026917	 1.351910369	 0.09123
105.2289	176.4364	191.181	226.1916	272.7297	301.5983	334.455	416.1836	476.0388	481.7113	543.5721	666.1681	718.562	745.1531	776.8415	821.0963	916.7116	933.524	944.3808	979.3908	1010.7204	1055.8137	1065.0823	1117.0008	1124.6698	1156.0797	1158.5877	1186.561	1191.8961	1244.6652	1254.0223	1341.8264	1355.9956	1360.6934	1373.9812	1408.0265	1422.5406	1429.5748	1457.8891	1472.1061	1496.6507	1515.7314	1728.4926	2999.6278	3003.6173	3007.2971	3021.4112	3066.4126	3086.1754	3101.4514	3113.7809	3142.8106	3167.8999	3820.9448
CN1C2CC=CC(O)C12	CN1[C@H]2CC=C[C@@H](O)[C@@H]12	
InChI=1S/C7H11NO/c1-8-5-3-2-4-6(9)7(5)8/h2,4-7,9H,3H2,1H3	InChI=1S/C7H11NO/c1-8-5-3-2-4-6(9)7(5)8/h2,4-7,9H,3H2,1H3/t5-,6+,7-,8?/m0/s1
