17
gdb 92142	2.96266	1.76136	1.56664	1.6198	65.67	-0.2272	0.0722	0.2994	899.2108	0.138275	-458.946253	-458.939485	-458.93854	-458.977555	27.437	
O	-0.2861309149	 1.4157057534	 0.3833826435	-0.434794
C	 0.0061013296	 0.0685955325	 0.0273993523	 0.11637
C	 0.8802387436	-0.656550667	 1.0935968996	-0.265291
C	 0.1303690294	-1.8731429359	 1.6350502477	 0.165201
O	-0.2008798508	-2.7397870144	 0.5554991504	-0.262649
C	-1.3562166481	-2.1536643133	-0.0009723307	 0.033901
C	-1.9506714544	-1.3011356825	 1.0796947162	 0.050404
O	-1.1054674339	-1.4510204978	 2.1981496619	-0.258186
C	-1.3225497831	-0.6394152497	-0.1322003326	-0.134444
H	 0.5445305857	 1.9021571514	 0.4062509161	 0.280703
H	 0.5273063229	 0.048782474	-0.9412441326	 0.073131
H	 1.8373038654	-0.9806510944	 0.6739393387	 0.105192
H	 1.0767840756	 0.0324227487	 1.9204509163	 0.11163
H	 0.6885777576	-2.4380560122	 2.384267456	 0.096303
H	-1.8824630442	-2.8074059828	-0.6829309652	 0.112593
H	-2.9966953852	-1.2161049657	 1.3395348659	 0.111969
H	-2.0059021254	-0.1964534842	-0.8493905634	 0.097967
69.8145	275.0518	298.7272	358.7063	393.2096	456.5266	577.6372	594.2701	707.0333	734.3703	774.9835	785.3991	831.013	859.8389	892.6875	943.176	974.9539	979.0643	1047.3118	1053.4193	1067.8007	1079.8149	1111.6836	1114.5665	1120.7041	1169.6827	1214.9591	1245.981	1275.1491	1292.3897	1319.0507	1359.1692	1375.1681	1387.1169	1420.9874	1434.0213	1463.8998	2978.1767	3051.0753	3101.5139	3103.5241	3166.4915	3207.9782	3217.5604	3809.9383
OC1CC2OC3C(O2)C13	O[C@H]1C[C@@H]2O[C@H]3[C@@H](O2)[C@@H]13	
InChI=1S/C6H8O3/c7-2-1-3-8-5-4(2)6(5)9-3/h2-7H,1H2	InChI=1S/C6H8O3/c7-2-1-3-8-5-4(2)6(5)9-3/h2-7H,1H2/t2-,3-,4+,5-,6+/m0/s1
