22
gdb 10230	2.094	1.49798	1.00297	2.1241	75.21	-0.2482	0.0743	0.3225	1277.7389	0.198085	-387.339668	-387.329343	-387.328399	-387.375499	36.466	
C	 1.2152041943	 1.5552994029	-0.2435117782	-0.385186
C	 1.4017541599	 0.0501500964	-0.1514637244	-0.042187
O	 0.7985945686	-0.5455144322	-1.2893203704	-0.269104
C	 0.8686545757	-1.9748129474	-1.3417239405	 0.101263
C	-0.3398834695	-2.467824132	-2.1392637624	-0.169945
C	-1.6812520953	-2.0715387388	-1.5200631755	-0.387218
C	 2.2024462038	-2.3731965262	-1.9893453679	-0.067027
O	 2.3649551283	-1.7420249277	-3.2446390786	-0.422482
H	 1.697912927	 1.9511764482	-1.141942201	 0.124246
H	 0.1520763393	 1.8079884699	-0.2874217064	 0.128927
H	 1.6548669622	 2.0470596281	 0.629299328	 0.117671
H	 2.4728438057	-0.1985202717	-0.0967835731	 0.09351
H	 0.9316468171	-0.3427270659	 0.7641748984	 0.093263
H	 0.8249791221	-2.3816766968	-0.3182020366	 0.061921
H	-0.2568864215	-2.0778401429	-3.1590722973	 0.113083
H	-0.2669714588	-3.5595365153	-2.2177392071	 0.094094
H	-1.7972504905	-2.4951413272	-0.5155476261	 0.106089
H	-1.7608057269	-0.9848396839	-1.4366684024	 0.128148
H	-2.5162664132	-2.4303255747	-2.1293092414	 0.11106
H	 3.034322368	-2.1250069563	-1.3096548428	 0.081224
H	 2.2328269324	-3.4552412157	-2.1579730331	 0.104054
H	 2.0827722912	-0.8285765807	-3.105530771	 0.284596
54.9348	74.4872	98.9337	121.5917	181.4188	220.7477	241.5652	257.2382	301.2083	354.5062	438.8506	468.2146	486.8698	675.2737	767.4373	819.9654	852.6898	868.4922	936.891	978.0033	1000.6922	1055.0425	1089.5913	1100.0845	1130.7682	1147.1883	1182.7445	1189.5907	1228.5623	1285.5378	1296.7989	1310.0893	1361.4401	1365.5213	1400.6001	1403.7265	1407.576	1429.1554	1443.3081	1482.0377	1483.7803	1496.6304	1499.0281	1508.7062	1510.6567	1529.7195	2961.8682	2969.4596	2982.4697	3004.0983	3033.571	3036.1422	3044.4084	3068.0434	3079.9335	3100.9026	3117.9152	3121.7454	3124.0874	3766.785
CCOC(CC)CO	CCO[C@@H](CC)CO	
InChI=1S/C6H14O2/c1-3-6(5-7)8-4-2/h6-7H,3-5H2,1-2H3	InChI=1S/C6H14O2/c1-3-6(5-7)8-4-2/h6-7H,3-5H2,1-2H3/t6-/m0/s1
