15
gdb 132974	3.23074	1.35589	0.96083	6.391	72.74	-0.22	-0.0149	0.2051	1138.2832	0.112941	-461.964885	-461.957031	-461.956087	-461.997744	28.878	
C	-0.0262895081	 1.4962300624	 0.0452347777	-0.353028
N	-0.0055201512	 0.0367883162	 0.004822503	-0.155908
C	-0.0366182044	-0.6643610537	-1.1826151319	 0.035317
C	-0.0174766813	-2.0128655574	-1.2300264478	-0.276707
C	 0.0381279263	-2.8344643835	-0.0145882109	 0.399049
O	 0.0566816315	-4.0598782626	-0.0261132874	-0.399074
C	 0.0692602849	-2.0373087957	 1.2134783044	-0.453923
C	 0.0466641761	-0.6910141082	 1.1618091009	 0.432596
F	 0.0734897181	 0.0708069134	 2.2521119002	-0.067471
H	 0.8738581232	 1.8878773793	 0.526163531	 0.157082
H	-0.0693343715	 1.8647740791	-0.979414973	 0.147058
H	-0.9005072452	 1.8607377163	 0.5909269503	 0.157115
H	-0.0775310889	-0.0436769056	-2.069332055	 0.135594
H	-0.0434147655	-2.5209492354	-2.1858317133	 0.116246
H	 0.1108660259	-2.5347060946	 2.1732285319	 0.126053
72.785	109.2008	203.274	232.9668	321.8572	367.4826	434.2166	459.2377	514.4697	586.9007	654.9711	709.6913	761.7286	778.4262	826.6815	868.8501	928.6141	953.2958	1048.4958	1151.8165	1162.9692	1206.708	1233.781	1249.2971	1322.546	1421.0192	1466.3024	1481.3842	1488.6308	1525.966	1611.3683	1702.4279	1737.76	3052.9662	3116.9152	3156.78	3203.2037	3222.9668	3227.5805
CN1C=CC(=O)C=C1F	Cn1ccc(=O)cc1F	
InChI=1S/C6H6FNO/c1-8-3-2-5(9)4-6(8)7/h2-4H,1H3	InChI=1S/C6H6FNO/c1-8-3-2-5(9)4-6(8)7/h2-4H,1H3
