19
gdb 74932	2.96568	1.74999	1.48652	1.5136	79.77	-0.2287	0.0119	0.2406	968.9859	0.161201	-385.856907	-385.849959	-385.849015	-385.887876	28.984	
C	 0.0088980476	 1.4792257237	 0.0589747254	-0.508081
C	 0.0295576805	-0.0155588486	-0.0125998991	 0.351507
C	-0.0753200187	-0.7707128503	-1.1131719436	-0.156704
C	 0.0551657865	-2.2515728891	-0.8922728639	-0.138117
C	 1.4687823857	-2.4818510996	-0.2558534704	-0.237758
C	 0.8162005625	-2.2241683821	 1.1047871134	-0.076654
C	-0.558911871	-2.6384621953	 0.5542115406	 0.132117
O	-1.2510214064	-1.5915403696	 1.2147389057	-0.291056
C	 0.0282650042	-0.853064095	 1.2448830527	-0.022438
H	 0.9168879641	 1.8712949408	 0.5354574867	 0.122943
H	-0.0671981945	 1.9247813651	-0.936914337	 0.122883
H	-0.8382508083	 1.8371881975	 0.6579801294	 0.132126
H	-0.2021292395	-0.3605628074	-2.1104234395	 0.087933
H	-0.2283609317	-2.8629283115	-1.7488160444	 0.063818
H	 1.7802161633	-3.5296334984	-0.3220977863	 0.099227
H	 2.2770107888	-1.833224665	-0.6025747355	 0.096301
H	 1.2442559163	-2.6006166387	 2.0344533245	 0.072029
H	-1.0428734255	-3.613203947	 0.6376881627	 0.079167
H	 0.1430869761	-0.2951482795	 2.1762084384	 0.070756
152.5073	186.6871	297.1708	341.3997	423.3395	443.2769	521.833	580.9649	652.3382	729.4308	734.3341	787.0106	829.0152	832.7478	860.3961	879.7019	930.4557	960.765	995.4821	1007.0843	1034.8632	1048.4161	1066.6255	1077.422	1088.3282	1117.9734	1185.2924	1195.5553	1218.4141	1237.3603	1247.5434	1293.3781	1305.8424	1319.7567	1338.7092	1363.5241	1412.7716	1478.5886	1481.2025	1489.8878	1704.8295	3013.5642	3045.3752	3059.9247	3090.7306	3095.0469	3104.1732	3106.8115	3107.3613	3113.1192	3170.5174
CC1=CC2CC3C2OC13	CC1=C[C@H]2C[C@@H]3[C@H]2O[C@H]13	
InChI=1S/C8H10O/c1-4-2-5-3-6-7(4)9-8(5)6/h2,5-8H,3H2,1H3	InChI=1S/C8H10O/c1-4-2-5-3-6-7(4)9-8(5)6/h2,5-8H,3H2,1H3/t5-,6-,7+,8-/m0/s1
