17
gdb 50595	2.9098	1.49278	1.2098	2.8506	67.39	-0.2557	-0.0274	0.2283	1036.3103	0.136422	-458.950873	-458.94321	-458.942266	-458.983734	28.176	
O	-0.669809633	 0.9149348893	-0.5371917306	-0.238939
C	 0.1931621219	 1.0115332015	 0.2964050467	 0.157539
C	 1.3868137256	 1.933857222	 0.1831364206	-0.131703
C	 1.3775219254	 2.8543158927	-1.0492059149	-0.109979
O	 2.1881894883	 3.9767762979	-0.6938995738	-0.261432
C	 2.0220600472	 4.2266889133	 0.6798852495	 0.065502
C	 0.6709980815	 4.8321250896	 1.1297183876	-0.10612
O	 0.2374561383	 3.5610570763	 1.6718868715	-0.289548
C	 1.4940974898	 2.9315992138	 1.3484044966	 0.065471
H	 0.1672425252	 0.3974703918	 1.2237543197	 0.085971
H	 2.2918464255	 1.309811062	 0.1980056916	 0.105101
H	 1.8125666116	 2.4000391235	-1.9409864034	 0.122921
H	 0.3490059257	 3.1557388189	-1.2822775821	 0.126405
H	 2.9254843282	 4.7073286471	 1.0566864138	 0.097183
H	 0.7399915845	 5.5994321668	 1.9095650662	 0.108266
H	 0.0257890641	 5.1864775004	 0.3186080983	 0.11866
H	 1.9947091402	 2.535326173	 2.2365454727	 0.084702
71.3826	103.0413	184.5058	199.0916	251.2625	412.3087	439.6946	593.59	653.393	688.4003	804.2351	834.5767	870.1163	909.052	918.6961	958.9203	1000.7854	1018.5422	1031.8345	1054.3366	1091.0624	1121.4949	1146.4941	1176.2043	1225.6064	1230.8978	1245.5473	1269.1317	1308.7368	1315.6073	1349.3751	1368.1561	1395.2248	1428.9987	1511.966	1522.4163	1828.2748	2885.4011	3016.6908	3027.6576	3039.745	3068.3938	3081.735	3111.4582	3118.1507
O=CC1COC2COC12	O=C[C@H]1CO[C@H]2CO[C@@H]12	
InChI=1S/C6H8O3/c7-1-4-2-8-5-3-9-6(4)5/h1,4-6H,2-3H2	InChI=1S/C6H8O3/c7-1-4-2-8-5-3-9-6(4)5/h1,4-6H,2-3H2/t4-,5-,6-/m0/s1
