20
gdb 56282	6.30061	0.5249	0.49043	1.6722	83.71	-0.2653	0.0326	0.2979	2184.3806	0.167988	-403.127905	-403.117233	-403.116289	-403.164896	37.305	
C	-0.0084921884	 1.4413904673	-0.1897461108	-0.442153
C	-0.0088038594	-0.0336757438	 0.0937137756	 0.41024
N	-0.0201265537	-0.490383385	 1.2768000631	-0.519307
O	 0.0052856134	-0.7290849854	-1.0792571062	-0.241902
C	 0.0083061499	-2.1507734658	-1.0205596993	-0.091129
C	 0.025648646	-2.6717565835	-2.4507569035	-0.197545
C	 0.029893359	-4.2122559406	-2.4958275523	-0.358537
C	 0.0465061763	-4.7341402812	-3.8564494246	 0.290042
C	 0.0602653609	-5.1417134333	-4.9867620246	-0.427442
H	 0.8782824031	 1.7145516017	-0.7700687937	 0.138362
H	-0.8832783398	 1.7110740141	-0.7895441339	 0.138336
H	-0.0199298105	 1.9937622335	 0.7485524135	 0.147328
H	-0.0182470383	-1.5086241224	 1.3090852753	 0.214902
H	 0.8911193162	-2.5014979769	-0.4665314154	 0.110456
H	-0.8848866113	-2.5060759916	-0.4864300134	 0.110454
H	-0.8487361976	-2.2888535005	-2.9857740988	 0.12645
H	 0.9099554437	-2.2845855797	-2.966026704	 0.126443
H	 0.9016768915	-4.5950868919	-1.9485194606	 0.133868
H	-0.8521547648	-4.5993321206	-1.968314863	 0.133867
H	 0.0725858638	-5.5128206043	-5.9815078233	 0.197268
44.7542	74.4296	78.2185	117.0778	140.4933	174.9204	177.5888	285.8172	341.3389	346.2303	461.5923	526.9221	559.1602	615.7563	621.6719	642.9107	758.3534	854.751	879.3543	890.7375	956.0674	995.1436	1040.4672	1074.4309	1076.0014	1095.9889	1119.3825	1137.7467	1216.815	1275.316	1302.6644	1314.7533	1325.4374	1374.1322	1402.5538	1431.2224	1474.678	1476.2135	1478.1273	1498.5907	1524.0572	1735.6807	2242.4406	2989.3724	3014.4177	3027.4409	3042.7106	3051.3647	3060.2199	3107.6589	3109.3441	3170.3929	3498.4443	3506.7649
CC(=N)OCCCC#C	C[C]([NH])OCCCC#C	
InChI=1S/C7H11NO/c1-3-4-5-6-9-7(2)8/h1,8H,4-6H2,2H3	InChI=1S/C7H11NO/c1-3-4-5-6-9-7(2)8/h1,8H,4-6H2,2H3
