14
gdb 47479	3.38518	1.11972	0.873	2.7994	62.1	-0.2942	-0.022	0.2722	1225.4977	0.101211	-473.868646	-473.860711	-473.859766	-473.902218	27.597	
O	-0.0374793169	 0.0466277403	 0.2565327765	-0.328967
C	-0.0402141348	 1.228017172	 0.0848736539	 0.437162
O	-1.1487964076	 1.9728639883	-0.1420140518	-0.21645
C	-0.750806369	 3.3330549622	-0.3422311917	 0.023244
O	 0.5429414139	 3.466594414	 0.1903283122	-0.244962
C	 1.1501070001	 2.191793461	 0.088323758	-0.047404
C	 2.0903257845	 1.9271255776	 1.2657095184	-0.355669
C	 3.3039021954	 2.7374483836	 1.2119291194	 0.268154
N	 4.2653811153	 3.3751535163	 1.1607095475	-0.294294
H	-0.77521809	 3.5452547037	-1.4208784633	 0.124514
H	-1.4355949164	 3.9890023732	 0.1988760596	 0.148097
H	 1.6969133601	 2.0832350463	-0.8614981392	 0.134545
H	 1.5603478908	 2.1277159057	 2.2023488791	 0.16881
H	 2.3538057745	 0.8641625859	 1.2543396915	 0.183219
60.3786	101.3763	137.3777	197.8116	235.3741	379.6141	392.6367	463.4996	553.1888	627.8558	712.6652	751.4436	855.1962	906.0729	972.2936	1009.1468	1045.4036	1070.5341	1127.9999	1145.9621	1211.1177	1225.6609	1249.1396	1280.9648	1341.0138	1385.1399	1441.3351	1452.0546	1543.5054	1899.7333	2370.7259	2992.2592	3006.1165	3058.9823	3105.598	3117.2789
O=C1OCOC1CC#N	O=C1OCO[C@H]1CC#N	
InChI=1S/C5H5NO3/c6-2-1-4-5(7)9-3-8-4/h4H,1,3H2	InChI=1S/C5H5NO3/c6-2-1-4-5(7)9-3-8-4/h4H,1,3H2/t4-/m0/s1
