18
gdb 38999	3.2284	1.78373	1.30093	1.8628	85.87	-0.2056	-0.0156	0.19	981.5704	0.150819	-364.805433	-364.798779	-364.797835	-364.836081	27.973	
C	-0.0276071283	 1.5383686711	-0.0730693027	-0.247801
C	 1.4236310142	 1.9633305627	 0.1160395357	-0.266778
C	 2.2186371406	 0.8954347795	 0.2545382769	 0.381757
C	 3.6215129485	 0.5213985551	 0.2220072613	-0.194526
C	 3.7308003718	-0.8046313888	 0.0140100096	-0.078023
C	 2.3828477239	-1.5033201184	-0.1083380628	-0.417759
C	 1.429964753	-0.3766653127	 0.2664297069	 0.281709
N	 0.4590277613	-0.433692538	 1.3908798028	-0.368593
C	 0.0149166651	 0.0095257103	 0.0420214998	-0.141104
H	-0.7008667568	 1.9684393784	 0.6787079239	 0.118897
H	-0.4026114408	 1.857361722	-1.0555716767	 0.102922
H	 1.7326330667	 3.0014955629	 0.0866308178	 0.090585
H	 4.4525966068	 1.2118945975	 0.2977880939	 0.10175
H	 4.6660557786	-1.3399758261	-0.103958891	 0.099957
H	 2.2294660385	-1.87999161	-1.1291638336	 0.119182
H	 2.2991124493	-2.3674273101	 0.561990459	 0.11317
H	 0.1737085119	-1.4081154084	 1.4997231624	 0.21805
H	-0.7002530944	-0.6016220968	-0.4980253832	 0.086605
171.1929	235.0187	295.8935	401.694	417.3788	442.3132	587.7308	637.274	673.7159	749.449	759.3688	801.3918	823.8965	845.9238	867.9559	890.599	936.3398	957.348	970.2788	983.1154	999.843	1031.4171	1037.8868	1107.5101	1131.1563	1170.925	1177.7644	1193.8266	1235.4146	1272.5153	1305.6338	1323.3339	1354.048	1377.1317	1424.8341	1464.629	1473.5267	1616.0257	1711.0643	3010.94	3011.9514	3048.4096	3051.2742	3168.0359	3193.3062	3200.3815	3217.1448	3443.996
C1C=C2C=CCC22NC12	C1C=C2C=CC[C@]32N[C@@H]13	
InChI=1S/C8H9N/c1-2-6-3-4-7-8(6,5-1)9-7/h1-3,7,9H,4-5H2	InChI=1S/C8H9N/c1-2-6-3-4-7-8(6,5-1)9-7/h1-3,7,9H,4-5H2/t7-,8+/m0/s1
