18
gdb 38391	4.38945	1.2409	1.20132	3.1955	76.02	-0.2192	0.0725	0.2917	1075.5377	0.148673	-401.84109	-401.833986	-401.833042	-401.872609	28.529	
C	 0.0604184482	 1.4481847904	-0.0958348618	-0.08875
O	 1.5106238416	 1.3961667159	-0.1691085417	-0.287034
C	 1.4842927655	-0.020654602	 0.0419378877	 0.023378
C	-0.0363663155	-0.0675698012	 0.0307482244	-0.242361
C	 0.7765509821	-0.7033550213	-1.0712180773	 0.412856
C	 0.7590842918	-0.4197275963	-2.5931306303	-0.313873
C	 0.7571443303	-1.9434830339	-2.8043127592	-0.036123
N	 1.9853133715	-2.4680820853	-2.1578615398	-0.33141
C	 0.7730517586	-2.1970997587	-1.3368076218	-0.186222
H	-0.2576096011	 1.9840501862	 0.8056339309	 0.109033
H	-0.3860693214	 1.9164671887	-0.9815798054	 0.104201
H	 2.2431500797	-0.4571055363	 0.6813367357	 0.104449
H	-0.7393019048	-0.6162475013	 0.6445040503	 0.096274
H	-0.1688356491	 0.0574313114	-2.9201365434	 0.103127
H	 1.6199217128	 0.1138515599	-3.0010720074	 0.11941
H	 0.2672604439	-2.497338078	-3.5951745827	 0.094599
H	 2.0007046128	-3.4738478778	-2.3317199987	 0.226092
H	 0.3048800631	-2.9794036704	-0.7514747296	 0.092354
119.4488	167.096	181.7587	333.5052	387.7334	446.8337	545.0342	582.9552	749.6176	767.4538	811.5872	823.4166	838.9318	888.0684	919.004	945.8011	946.9644	969.1232	987.4245	1007.5123	1009.6823	1050.8774	1061.4767	1074.9333	1114.081	1128.1861	1135.6829	1158.7034	1171.7907	1220.0666	1238.9289	1248.0047	1290.3924	1319.687	1336.2727	1371.7068	1444.4508	1471.3824	1514.1959	3020.2478	3061.505	3068.4688	3122.2658	3177.2958	3181.3613	3193.4824	3196.3745	3459.27
C1OC2C1C21CC2NC12	C1O[C@H]2[C@@H]1[C@]12C[C@H]2N[C@@H]12	
InChI=1S/C7H9NO/c1-4-5(8-4)7(1)3-2-9-6(3)7/h3-6,8H,1-2H2	InChI=1S/C7H9NO/c1-4-5(8-4)7(1)3-2-9-6(3)7/h3-6,8H,1-2H2/t3-,4-,5-,6+,7-/m1/s1
