19
gdb 39952	4.15664	1.12601	1.02418	1.9643	83.87	-0.226	0.0099	0.2359	1214.44	0.159413	-385.86911	-385.861246	-385.860302	-385.902392	31.126	
C	-0.2577818065	 1.4798622638	 0.0615336069	-0.307868
C	 1.1784623892	 1.0716310105	-0.1216810549	-0.309445
C	 0.1028454952	 0.0105172094	-0.0040603785	 0.3309
C	 0.0034829752	-0.916961894	 1.2178347487	-0.405845
C	-0.4180892077	-2.2758041344	 0.6381872358	 0.41795
C	-0.1177408897	-3.5692892347	 1.2701584012	-0.246439
O	-1.4356513217	-3.0232921195	 1.3312267461	-0.280347
C	-0.5670976815	-2.0803912152	-0.827588035	-0.171433
C	-0.2807863611	-0.8232041644	-1.1721785113	-0.137589
H	-0.5594626859	 1.8746353012	 1.0263040877	 0.115991
H	-0.7823661929	 1.9165283232	-0.7820780253	 0.113956
H	 1.6392537691	 1.2273912878	-1.0917170595	 0.113316
H	 1.8566264545	 1.1893781657	 0.7174709597	 0.11416
H	 0.9539443747	-0.9861534456	 1.7551824933	 0.108296
H	-0.7568735654	-0.5815994296	 1.9292575328	 0.124362
H	-0.0067223041	-4.4647136428	 0.6579507939	 0.108269
H	 0.4285358582	-3.5880809919	 2.213790605	 0.107947
H	-0.8793379156	-2.878488504	-1.489503056	 0.102896
H	-0.310596274	-0.4214155655	-2.1795233206	 0.100925
20.5728	182.2521	245.4546	302.7287	325.6392	389.1013	391.5139	430.3141	585.0954	614.7771	772.4224	776.1971	801.5539	810.4939	832.8834	848.4041	908.2288	931.8396	934.6887	959.3226	971.3119	993.448	1038.3144	1058.1777	1077.1673	1105.4492	1128.4519	1159.2871	1191.1992	1202.2778	1222.0487	1260.8325	1305.2276	1316.5306	1370.6412	1433.1909	1466.141	1480.9709	1498.2337	1527.5107	1667.9489	3052.0173	3066.3329	3094.7848	3123.2877	3127.3277	3150.6329	3183.9242	3202.4784	3217.1612	3218.4335
C1CC11CC2(CO2)C=C1	C1CC21C[C@]1(CO1)C=C2	
InChI=1S/C8H10O/c1-2-7(1)3-4-8(5-7)6-9-8/h3-4H,1-2,5-6H2	InChI=1S/C8H10O/c1-2-7(1)3-4-8(5-7)6-9-8/h3-4H,1-2,5-6H2/t8-/m0/s1
