17
gdb 71750	2.8963	2.25342	1.70665	1.8493	68.95	-0.2255	0.073	0.2986	821.9781	0.14003	-417.953155	-417.947235	-417.946291	-417.982972	26.064	
O	 0.1083693845	 1.3485630596	 0.1131846906	-0.507812
C	 0.0745983502	-0.0331023829	 0.089420348	 0.466178
C	 0.8868275188	-0.7724564896	 1.1248113257	-0.214625
N	 0.5860469396	-2.1690713011	 0.7641950548	-0.13431
C	 0.3727883878	-2.198185613	-0.7054356238	-0.054106
C	-0.7960945433	-2.1855410132	 0.2205462081	-0.054106
C	-1.3177345753	-0.7565615623	-0.0407942737	-0.115563
N	-1.200628626	-0.5061671369	-1.5138710185	-0.343162
C	 0.2567176899	-0.7735929215	-1.2880599469	-0.115563
H	-0.4617237056	 1.6434128209	-0.6104705369	 0.288315
H	 1.9612028769	-0.581819221	 1.0421842507	 0.115191
H	 0.5631759435	-0.5666988797	 2.149684966	 0.115191
H	 0.7430130564	-3.0551911784	-1.25492669	 0.095516
H	-1.4270440386	-3.031715228	 0.4641799055	 0.095516
H	-2.2211049379	-0.4159127333	 0.4650997828	 0.074981
H	-1.664154956	-1.2104111917	-2.0893748349	 0.213379
H	 0.9603191052	-0.4503268278	-2.0551924076	 0.074981
294.1005	299.686	415.6758	491.4837	497.8308	513.6403	623.5058	696.6007	704.0842	742.3739	786.4898	817.2016	835.5856	870.1378	915.913	920.2546	951.6648	979.9048	1030.1536	1034.0963	1054.8108	1067.8305	1109.0934	1111.806	1127.834	1175.6344	1206.2293	1221.1994	1229.406	1273.3808	1274.5183	1283.0814	1321.6212	1326.9665	1371.1979	1430.0855	1495.2822	3054.9136	3105.0376	3119.6589	3121.6193	3179.9679	3190.0862	3441.7882	3752.7777
OC12CN3C4C3C1NC24	O[C@@]12CN3[C@H]4[C@@H]3[C@@H]1N[C@@H]24	
InChI=1S/C6H8N2O/c9-6-1-8-2-3(8)5(6)7-4(2)6/h2-5,7,9H,1H2	InChI=1S/C6H8N2O/c9-6-1-8-2-3(8)5(6)7-4(2)6/h2-5,7,9H,1H2/t2-,3+,4+,5-,6+,8?
