18
gdb 111913	3.2315	1.19018	0.91019	3.1005	76.15	-0.2187	-0.0121	0.2066	1291.9884	0.146437	-439.121554	-439.112324	-439.11138	-439.155657	33.462	
C	-0.0500059668	 1.4433288584	 0.1254515755	-0.24248
O	 0.0050729531	 0.05353196	-0.1589695609	-0.2485
C	-1.2391181765	-0.6017620043	-0.0562184933	-0.010647
C	-1.1968147223	-1.9865383291	-0.6382764032	-0.268209
C	-1.5955429376	-2.8733812417	 0.2810219848	 0.370804
C	-1.7568799561	-4.3514494541	 0.1888058231	-0.497273
N	-1.9156009018	-2.2219420949	 1.4943966345	-0.379633
C	-1.6594478673	-0.8678145894	 1.4221804944	 0.394695
O	-1.7362860162	-0.074062988	 2.3311786747	-0.364434
H	 0.9574239295	 1.8336271196	-0.0371009644	 0.122581
H	-0.7462789502	 1.9583626805	-0.5554411457	 0.099573
H	-0.3591417504	 1.6356859422	 1.1575581045	 0.145089
H	-2.0299980001	 0.0133403781	-0.5234302991	 0.092743
H	-0.9150649149	-2.2105900438	-1.6556877505	 0.107648
H	-1.1392936076	-4.8621535028	 0.9379845776	 0.137658
H	-2.7968012156	-4.6496729722	 0.3677115507	 0.139807
H	-1.4605486851	-4.7070712394	-0.7996178004	 0.1449
H	-2.0797926342	-2.6908908989	 2.3713037877	 0.255678
75.6276	123.4018	146.8698	181.4762	187.3384	254.2513	289.8435	335.1181	396.575	454.8874	520.585	588.343	601.378	693.6355	722.9253	752.1092	883.5546	977.2917	1002.1319	1007.7687	1043.6018	1068.0181	1134.739	1183.0972	1198.6304	1210.0583	1217.225	1280.9889	1311.4514	1361.2138	1406.9509	1422.4074	1473.6469	1476.3875	1482.6864	1490.0282	1517.6676	1721.6417	1834.7145	2935.7178	2981.4679	3026.1717	3075.9582	3078.4622	3125.6859	3135.8863	3249.855	3638.9648
COC1C=C(C)NC1=O	CO[C@H]1C=C(C)NC1=O	
InChI=1S/C6H9NO2/c1-4-3-5(9-2)6(8)7-4/h3,5H,1-2H3,(H,7,8)	InChI=1S/C6H9NO2/c1-4-3-5(9-2)6(8)7-4/h3,5H,1-2H3,(H,7,8)/t5-/m0/s1
