17
gdb 33223	5.36815	0.82926	0.74137	1.2648	71.88	-0.2052	0.0259	0.2311	1489.6583	0.135729	-458.972786	-458.96417	-458.963226	-459.008383	30.928	
O	 0.0414113927	 1.3542296062	-0.3394047191	-0.41846
C	-0.0458933304	 0.0020905336	 0.058781252	-0.063591
C	-1.4825811133	-0.484539483	 0.1134077743	-0.093159
O	-1.9898185226	-0.3748774473	-1.230708344	-0.294036
C	-3.2989526748	-0.5866234077	-1.4081528787	 0.443387
C	-4.1762992008	-0.0415394529	-2.2912640684	-0.310276
C	-5.417114547	-0.7317332957	-2.0686595273	-0.162203
C	-5.1963606759	-1.6223152381	-1.0723037238	-0.022575
O	-3.8889320602	-1.5494169006	-0.6566759127	-0.184166
H	-0.4354275811	 1.4231603813	-1.1741758353	 0.292218
H	 0.5304006821	-0.6572504057	-0.6093059408	 0.10035
H	 0.3934188697	-0.0681117273	 1.0591560956	 0.115777
H	-1.5391129875	-1.5242465772	 0.4533793779	 0.120471
H	-2.082337443	 0.1467701994	 0.7796778795	 0.119769
H	-3.9657939793	 0.7429925828	-2.9984306277	 0.110237
H	-6.350476884	-0.5695002572	-2.5847250214	 0.112528
H	-5.8084788545	-2.3362904007	-0.5489708001	 0.133727
16.153	46.3811	127.4939	165.4099	283.988	326.3633	400.2486	462.6917	488.0312	610.3017	657.8432	703.1261	736.4971	777.6209	841.403	875.5667	895.6719	907.7327	970.9674	1028.2245	1044.9273	1091.3582	1103.1934	1128.4853	1179.352	1227.6153	1251.0031	1260.579	1289.5774	1386.627	1394.8668	1421.945	1435.8876	1494.9857	1499.7687	1561.4058	1661.3324	2986.9034	3031.6115	3083.2458	3088.2087	3255.1081	3276.2617	3295.871	3806.1942
OCCOC1=CC=CO1	OCCOc1ccco1	
InChI=1S/C6H8O3/c7-3-5-9-6-2-1-4-8-6/h1-2,4,7H,3,5H2	InChI=1S/C6H8O3/c7-3-5-9-6-2-1-4-8-6/h1-2,4,7H,3,5H2
