21
gdb 119565	2.95897	0.98064	0.84823	2.1213	78.52	-0.2296	0.0748	0.3043	1424.731	0.180898	-424.181049	-424.171453	-424.170509	-424.215826	35.567	
C	-0.055687631	 1.532396881	-0.2267995598	-0.410653
C	 0.1312743567	 0.0346123112	-0.0996257625	 0.110117
O	 1.2999489712	-0.4682296939	-0.8160890979	-0.310087
C	 1.7228279927	-1.174872387	 0.3509468639	 0.042591
C	 2.0635638188	-0.2212343582	 1.4515629184	-0.354214
C	 0.6124685983	-0.6154406784	 1.2088357393	 0.260048
C	-0.267363582	-1.2454890928	 2.2503895276	-0.306521
C	-0.878589871	-0.2283241167	 3.2124492961	-0.065395
O	-1.6711839939	-0.9427329371	 4.1474945414	-0.418936
H	 0.7891228732	 2.0816364307	 0.1970310293	 0.120999
H	-0.149526318	 1.8108723234	-1.2813707911	 0.129646
H	-0.9706512513	 1.8454151337	 0.2880264791	 0.117161
H	-0.7592227807	-0.492057656	-0.4712323084	 0.078309
H	 2.1194934319	-2.1763547831	 0.2268333617	 0.103384
H	 2.4962257442	-0.6679132447	 2.3424224533	 0.112775
H	 2.4424287076	 0.7660561909	 1.203965678	 0.112886
H	-1.0803943196	-1.8074610921	 1.7738616234	 0.107562
H	 0.3081116748	-1.9689841523	 2.8396790754	 0.108065
H	-0.0738615895	 0.334304151	 3.7115756648	 0.090197
H	-1.4850177407	 0.5009394755	 2.6505336845	 0.086018
H	-2.0568153317	-0.3114233449	 4.7616496435	 0.286048
69.2337	93.9127	106.9573	208.5596	216.8682	261.5064	264.751	323.5467	340.9761	389.6427	478.793	534.1662	708.7931	717.7506	789.1368	845.2355	873.5442	901.9569	919.8659	991.8209	1001.2531	1021.3491	1039.061	1065.7256	1077.3803	1085.0279	1088.5227	1136.3871	1140.8782	1204.652	1237.7986	1256.4162	1265.2949	1290.1969	1326.9266	1344.555	1382.2844	1399.6273	1419.3704	1460.118	1482.4835	1483.5214	1489.7363	1495.6865	1527.0288	2963.6963	2992.0025	3001.8496	3028.6036	3037.5425	3071.3469	3104.2313	3114.6824	3122.4302	3175.2032	3203.7199	3831.3341
CC1OC2CC12CCO	C[C@H]1O[C@H]2C[C@@]12CCO	
InChI=1S/C7H12O2/c1-5-7(2-3-8)4-6(7)9-5/h5-6,8H,2-4H2,1H3	InChI=1S/C7H12O2/c1-5-7(2-3-8)4-6(7)9-5/h5-6,8H,2-4H2,1H3/t5-,6+,7+/m1/s1
