17
gdb 100606	3.59151	0.84325	0.73629	3.5756	67.94	-0.2531	-0.0415	0.2116	1496.5899	0.135345	-492.315976	-492.306215	-492.305271	-492.35163	33.996	
N	-0.21363761	 1.4387727107	 0.2176580334	-0.518355
C	-0.0592310428	 0.0037591122	 0.0012210074	-0.13948
C	-1.466433067	-0.6375121722	 0.1086586397	-0.035366
O	-2.0611789194	-0.2840967355	 1.3288542271	-0.416281
C	 0.5716728706	-0.3173276249	-1.3619954091	 0.41561
O	 0.597189114	 0.4822472859	-2.2638093396	-0.310682
N	 1.0653188146	-1.623417817	-1.4608189095	-0.348517
C	 1.6341000848	-2.2468710473	-2.5733574689	 0.166399
O	 1.7964916271	-1.7607667942	-3.6558489047	-0.244705
H	 0.6556179845	 1.8417705739	 0.551395169	 0.24257
H	-0.3925061908	 1.8721007252	-0.6871903949	 0.251921
H	 0.5547241369	-0.4105472558	 0.8097833986	 0.094858
H	-2.0649506881	-0.3069231355	-0.757455873	 0.100681
H	-1.4047950558	-1.7305588161	 0.0693669947	 0.099295
H	-1.8730232881	 0.6629692819	 1.4217390098	 0.289464
H	 1.0060440189	-2.1929249396	-0.62840262	 0.261605
H	 1.9261918605	-3.2856438618	-2.31659452	 0.090983
54.0086	61.8689	112.7529	168.3015	191.0024	233.1452	267.7825	288.86	346.1232	360.3201	507.7515	583.0254	587.2761	621.4791	717.7861	824.5317	886.0354	933.6625	958.1317	1014.259	1028.4143	1076.0609	1102.0004	1155.9158	1164.7047	1191.0901	1260.8667	1292.9053	1378.2891	1426.2178	1444.9001	1450.142	1506.1067	1510.591	1669.0571	1805.5	1872.6099	2926.0644	2963.2478	3044.2454	3068.4677	3480.325	3568.1053	3603.2257	3702.5297
NC(CO)C(=O)NC=O	N[C@@H](CO)C(=O)NC=O	
InChI=1S/C4H8N2O3/c5-3(1-7)4(9)6-2-8/h2-3,7H,1,5H2,(H,6,8,9)	InChI=1S/C4H8N2O3/c5-3(1-7)4(9)6-2-8/h2-3,7H,1,5H2,(H,6,8,9)/t3-/m0/s1
