19
gdb 73159	2.63114	1.62656	1.36856	0.571	75.22	-0.2296	0.0687	0.2983	1026.8985	0.158438	-422.976575	-422.968505	-422.96756	-423.008965	32.166	
O	 0.0840626577	 1.5340076043	-0.01353968	-0.467076
C	 0.0502676629	 0.1485763288	 0.0704538232	 0.274803
C	-1.3619738753	-0.4656538418	-0.0298532951	-0.274651
C	-1.0487357397	-1.3935667207	 1.1888412251	-0.23044
C	 0.3588325618	-0.7666576915	 1.3111007912	 0.031857
O	 1.3585009741	-1.4908750269	 0.5539343543	-0.323899
C	 1.1602025149	-0.6627831821	-0.5936965452	 0.396015
C	 1.3262792284	-1.1600039878	-1.9864159529	-0.33572
C	 2.3072446119	-0.1463391043	-1.4062839464	-0.358557
H	 1.0038165719	 1.815390601	 0.0566067199	 0.283532
H	-2.1274870607	 0.281514328	 0.1893253264	 0.115226
H	-1.6015946383	-0.9526351675	-0.9778971361	 0.103666
H	-1.690962912	-1.2076741293	 2.0529642093	 0.105146
H	-1.0249301607	-2.4654215248	 0.9846738217	 0.113383
H	 0.7279804062	-0.4405313815	 2.285788184	 0.078576
H	 1.6787486349	-2.1786286985	-2.1073759614	 0.126805
H	 0.6263538637	-0.8250232475	-2.7454919292	 0.120488
H	 2.264483487	 0.873316535	-1.7782608657	 0.113915
H	 3.2985991714	-0.4993013527	-1.143513363	 0.126933
75.9485	179.1598	220.6016	230.1086	348.4455	365.6757	384.4702	449.4491	480.8083	568.6441	645.2641	725.5587	761.8095	772.267	855.3157	867.615	888.668	909.6592	943.1554	967.1008	980.3753	1013.8674	1042.6576	1059.8895	1067.8645	1089.0595	1116.6684	1164.0541	1190.3733	1214.9849	1218.9193	1243.0428	1266.7269	1296.1908	1333.7074	1366.6966	1403.1156	1444.289	1463.2914	1482.5958	1494.7207	3066.4497	3070.9875	3089.8656	3118.2285	3121.0966	3127.5994	3135.5529	3208.8768	3222.977	3791.9494
OC12CCC1OC21CC1	O[C@]12CC[C@H]1OC12CC1	
InChI=1S/C7H10O2/c8-7-2-1-5(7)9-6(7)3-4-6/h5,8H,1-4H2	InChI=1S/C7H10O2/c8-7-2-1-5(7)9-6(7)3-4-6/h5,8H,1-4H2/t5-,7-/m1/s1
