18
gdb 10538	2.95428	1.39097	1.06592	4.8491	72.67	-0.2719	0.0234	0.2953	1153.1329	0.153624	-343.977421	-343.968737	-343.967793	-344.010951	31.266	
C	 0.0617867937	 1.5744797986	 0.0298723592	-0.384013
C	 0.2040520712	 0.0510274363	 0.0637081962	-0.173519
C	 0.5197807799	-0.5406729886	-1.3168142187	-0.267392
C	 0.676441191	-2.0548890113	-1.3103014128	 0.153733
C	 1.633164104	-2.7105491819	-2.2530001205	-0.269854
N	 1.9306093258	-2.6686057527	-0.8189495481	-0.323589
C	-0.5219919385	-2.7845278099	-0.9381920661	 0.290545
N	-1.5015983582	-3.3341379724	-0.6647378586	-0.344938
H	 0.9839037416	 2.0541798062	-0.3172437725	 0.114048
H	-0.7451881622	 1.8821314875	-0.644087876	 0.121127
H	-0.1655150963	 1.9708979917	 1.0236025036	 0.121741
H	 0.9944112492	-0.2330141271	 0.7699569943	 0.10306
H	-0.7200515318	-0.4003728875	 0.4430620256	 0.129153
H	-0.272130964	-0.2675560987	-2.0254509804	 0.121482
H	 1.4499655937	-0.1080437988	-1.7077070574	 0.097763
H	 1.4117632282	-3.6982479185	-2.6444654358	 0.144127
H	 2.1734871856	-2.0544533201	-2.9304144008	 0.125435
H	 2.5977560271	-1.9276353529	-0.6139808313	 0.241091
80.851	92.9963	141.6444	198.7894	234.8295	247.5272	328.247	366.7805	416.913	574.0741	594.1763	705.4116	747.2668	837.4286	881.8917	887.7092	915.6082	963.9412	985.372	1045.0373	1072.0516	1117.2795	1127.8747	1148.6269	1245.4033	1252.7179	1299.4046	1321.3674	1331.8831	1379.1303	1397.7459	1416.2219	1475.312	1492.069	1500.8214	1508.2319	1510.1371	2356.9199	3017.8488	3028.9119	3032.7705	3053.3339	3072.8024	3099.5552	3109.7334	3115.1005	3208.4978	3495.0315
CCCC1(CN1)C#N	CCC[C@]1(CN1)C#N	
InChI=1S/C6H10N2/c1-2-3-6(4-7)5-8-6/h8H,2-3,5H2,1H3	InChI=1S/C6H10N2/c1-2-3-6(4-7)5-8-6/h8H,2-3,5H2,1H3/t6-/m1/s1
