20
gdb 68162	3.3591	1.40256	1.1911	2.9038	78.59	-0.2159	-0.0083	0.2075	1093.0348	0.172231	-403.158883	-403.150747	-403.149803	-403.191504	32.281	
C	-0.0407359206	 1.5651416654	-0.0032519867	-0.464962
C	 0.0426662729	 0.0513096751	-0.0142756487	 0.316301
C	 1.1471889574	-0.6491884316	-0.8534517133	-0.257709
C	 1.1457858902	-1.7713835237	 0.2293779923	-0.126281
C	 0.6421319274	-0.6841731967	 1.2315128071	-0.268683
C	-0.0060497209	-2.7039532974	-0.0588296795	 0.408844
O	 0.046389944	-3.9066995486	 0.030490379	-0.332528
C	-1.2800618703	-1.9820630999	-0.5295913426	-0.282806
N	-1.2563369908	-0.5136128025	-0.4011528218	-0.326896
H	 0.922330523	 2.0075383866	 0.2681409966	 0.112741
H	-0.3378876186	 1.9405970543	-0.9869389576	 0.128743
H	-0.7833289433	 1.9117663729	 0.726064255	 0.111292
H	 0.9091685611	-0.9149455697	-1.8866660092	 0.10883
H	 2.08236732	-0.0852463085	-0.8279600276	 0.107738
H	 2.0577617569	-2.3269331737	 0.4470046597	 0.081852
H	 1.4849906358	-0.1438162111	 1.6716740908	 0.104354
H	-0.0474662518	-0.9888739509	 2.0247353449	 0.095754
H	-1.4160158645	-2.2706033278	-1.5822042258	 0.136851
H	-2.1299145516	-2.4136638611	 0.0072078453	 0.130466
H	-1.9475347563	-0.2236138411	 0.2819254221	 0.216098
59.5827	155.5038	224.5006	275.0182	313.7045	409.0965	420.4341	426.0073	456.743	546.7089	595.2253	664.5966	725.6522	754.1776	826.0072	871.7189	885.56	920.3097	925.7415	965.5101	999.7386	1021.6525	1042.7118	1068.1862	1107.3925	1132.5915	1183.8838	1200.4439	1236.4076	1246.8981	1253.7759	1278.755	1293.0755	1331.5992	1354.7368	1413.1307	1461.3156	1468.2648	1474.33	1492.5455	1495.5223	1506.7054	1824.5275	3001.8576	3027.572	3044.8333	3061.9691	3082.7379	3092.6969	3102.2216	3115.8459	3117.0898	3121.6301	3522.4281
CC12CC(C1)C(=O)CN2	C[C@@]12C[C@@H](C1)C(=O)CN2	
InChI=1S/C7H11NO/c1-7-2-5(3-7)6(9)4-8-7/h5,8H,2-4H2,1H3	InChI=1S/C7H11NO/c1-7-2-5(3-7)6(9)4-8-7/h5,8H,2-4H2,1H3/t5-,7+
