13
gdb 23712	5.77148	1.50387	1.1942	2.5861	64.34	-0.2114	-0.0232	0.1882	909.9919	0.097355	-402.809032	-402.802666	-402.801722	-402.839351	24.895	
N	-0.0254640111	 1.3816046691	 0.1569661855	-0.566616
C	 0.0230941092	-0.0000591427	 0.0544972341	 0.380246
N	-1.1534421642	-0.6351242736	 0.0393013816	-0.31927
C	-1.1551996069	-1.9695675321	 0.0034038274	-0.111403
C	 0.009019725	-2.717391924	-0.0295553203	 0.22996
F	-0.0516980617	-4.0548323707	-0.0721635009	-0.085061
C	 1.2387981959	-2.0708765904	-0.0227769562	-0.194624
C	 1.2502271901	-0.6875824192	 0.0230328452	-0.170292
H	 0.7481502884	 1.8886844643	-0.2440525381	 0.249071
H	-0.928731448	 1.765196575	-0.080186541	 0.254899
H	-2.1205059928	-2.4689721859	-0.005545956	 0.118242
H	 2.1561687249	-2.6478978685	-0.050604124	 0.118205
H	 2.1869949211	-0.1412261514	 0.0405906226	 0.096644
146.8871	330.5212	360.0419	373.0103	437.8822	440.4058	487.47	519.0991	590.3868	650.7804	770.3639	784.5669	846.0297	878.9791	946.2413	962.5315	1027.9424	1080.0403	1145.8544	1278.2451	1301.6493	1332.715	1347.0138	1438.3458	1530.0627	1619.995	1632.5059	1661.8079	3165.9414	3182.7391	3204.8096	3573.7055	3685.4039
NC1=NC=C(F)C=C1	Nc1ncc(F)cc1	
InChI=1S/C5H5FN2/c6-4-1-2-5(7)8-3-4/h1-3H,(H2,7,8)	InChI=1S/C5H5FN2/c6-4-1-2-5(7)8-3-4/h1-3H,(H2,7,8)
