17
gdb 64623	2.93862	1.41367	1.32483	0.9934	79.61	-0.2363	-0.001	0.2353	1038.5316	0.134884	-384.640468	-384.632299	-384.631355	-384.672763	32.319	
O	-0.0704572934	 1.4389742818	-0.033758188	-0.456069
C	 0.001178049	 0.0068689721	-0.0136163757	 0.17635
C	 0.6368731889	-0.5186035322	 1.2763901994	-0.142036
C	-0.1963281896	-1.2944785404	 1.9684918545	-0.078962
C	-1.5282217809	-1.4084121559	 1.3042744815	-0.078309
C	-2.2913112831	-0.1004246499	 1.1985579638	-0.290143
C	-1.4245623258	-0.5620822308	 0.0563828595	-0.052099
C	 0.7274577744	-0.4741301786	-1.1953323214	 0.281053
C	 1.3526699514	-0.8494841282	-2.1517708206	-0.467835
H	 0.8100971171	 1.7694860603	-0.2432161117	 0.281374
H	 1.6385782296	-0.2222831048	 1.5646202963	 0.09731
H	 0.0256845733	-1.7541225273	 2.9252832595	 0.102726
H	-2.0729980551	-2.345108369	 1.3208065811	 0.091326
H	-3.3636507728	-0.1524437182	 1.0412432679	 0.109383
H	-1.9534498097	 0.736710096	 1.797529574	 0.130299
H	-1.8943214752	-0.8571280243	-0.8722259666	 0.097916
H	 1.8968992619	-1.1861553204	-2.9995343636	 0.197715
110.35	139.1094	200.5348	263.5888	270.8847	381.7137	437.1186	482.228	507.7914	566.1541	628.3729	642.1993	653.512	717.5428	767.8816	792.9478	819.8136	854.2646	934.8943	957.8654	985.9106	1006.1631	1046.0306	1058.9422	1072.3229	1084.4996	1101.0133	1134.1754	1164.2553	1199.1555	1297.1937	1337.3006	1365.5481	1395.5624	1479.3323	1670.8765	2227.044	3135.1854	3176.7054	3187.7305	3201.3814	3213.3994	3230.4326	3499.7687	3808.327
OC1(C=CC2CC12)C#C	O[C@]1(C=C[C@H]2C[C@@H]12)C#C	
InChI=1S/C8H8O/c1-2-8(9)4-3-6-5-7(6)8/h1,3-4,6-7,9H,5H2	InChI=1S/C8H8O/c1-2-8(9)4-3-6-5-7(6)8/h1,3-4,6-7,9H,5H2/t6-,7+,8-/m0/s1
