18
gdb 23419	3.36055	1.26246	1.04318	1.1357	74.92	-0.244	0.0018	0.2457	1151.7936	0.148758	-439.040514	-439.032702	-439.031758	-439.073054	30.096	
O	-0.1812930096	 1.3438249839	-0.0355054014	-0.391595
N	-0.0332867839	-0.0522243116	 0.0406756539	-0.240498
C	-1.159749583	-0.6447958259	 0.0458744724	 0.414922
C	-2.552266232	-0.0483283146	 0.04716538	-0.310617
C	-3.3975323694	-1.1051771927	 0.7907236826	-0.235426
C	-2.7201945858	-2.4400816262	 0.4843218203	 0.12582
O	-2.991177262	-2.910645461	-0.8586325001	-0.296359
C	-1.596129004	-2.8422794438	-1.2157635496	-0.080888
C	-1.237046294	-2.1471530256	 0.1209136472	-0.160794
H	 0.7311490535	 1.6466339363	 0.0221431329	 0.306354
H	-2.5649015582	 0.9403192093	 0.5078980505	 0.131869
H	-2.9007007766	 0.0713528874	-0.9859102399	 0.133291
H	-3.358459248	-0.9283404707	 1.8721750585	 0.10608
H	-4.4483296809	-1.1120883462	 0.4895736129	 0.115606
H	-2.9206263666	-3.2200879226	 1.2267510256	 0.07452
H	-1.1540760777	-3.8405312652	-1.3288514077	 0.103397
H	-1.4258582631	-2.2662719178	-2.1323387662	 0.110064
H	-0.4306057988	-2.5942629028	 0.6997984382	 0.094254
80.0344	148.5309	193.4272	238.6139	347.9889	363.5273	397.2681	452.3771	570.1436	650.8011	663.1541	773.2031	818.7707	839.5612	884.8939	896.9409	945.1556	966.8633	1001.228	1004.7934	1035.7439	1050.7171	1082.7701	1159.5758	1161.2167	1192.433	1211.3067	1227.4968	1277.5469	1292.4924	1300.3605	1333.6789	1351.9109	1361.7783	1410.4281	1466.7504	1478.6304	1526.0174	1752.7091	3012.5349	3036.4759	3043.672	3053.3599	3065.0668	3103.4482	3124.6952	3129.3383	3817.8581
ON=C1CCC2OCC12	ON=C1CC[C@H]2OC[C@@H]12	
InChI=1S/C6H9NO2/c8-7-5-1-2-6-4(5)3-9-6/h4,6,8H,1-3H2	InChI=1S/C6H9NO2/c8-7-5-1-2-6-4(5)3-9-6/h4,6,8H,1-3H2/t4-,6+/m0/s1
