17
gdb 39167	3.20934	1.78881	1.29679	2.9057	74.02	-0.2196	0.0226	0.2422	967.2338	0.139011	-418.006427	-417.999444	-417.9985	-418.037688	27.759	
C	-0.028316413	 1.4254378248	-0.0728767196	-0.160046
C	 1.4617392756	 1.9244633568	 0.019169103	-0.384105
C	 2.2045945186	 0.6966532881	-0.4458157862	 0.405074
O	 3.0844005245	 0.644664616	-1.5837260206	-0.292781
C	 3.5120677302	 0.0387262974	-0.3574841937	-0.096755
C	 3.2622301049	-1.4716515599	-0.3350336407	-0.19337
N	 1.8166416156	-1.5906015732	-0.579609832	-0.393355
C	 1.1862970454	-0.3895849695	-0.419073575	 0.400672
N	-0.0215678689	-0.0505573848	-0.1886014945	-0.345289
H	-0.6007520662	 1.7147919521	 0.8141087247	 0.106243
H	-0.5424144935	 1.8643833611	-0.9372718352	 0.110308
H	 1.6709689161	 2.7879732593	-0.6153024871	 0.125934
H	 1.718859912	 2.1888729235	 1.0488691287	 0.117754
H	 4.3997060697	 0.4562046108	 0.1074179519	 0.109458
H	 3.8419721051	-1.9886583445	-1.1083724188	 0.125916
H	 3.5499503394	-1.8812822163	 0.6437526656	 0.111432
H	 1.3346202646	-2.4597428518	-0.4200970606	 0.252911
111.1604	223.2833	239.3792	314.7021	410.4274	440.3424	453.9198	609.5405	648.371	721.0517	728.7836	780.273	821.9107	855.3313	888.263	928.0409	934.0755	995.1234	1020.8944	1053.6807	1072.6999	1086.6195	1136.1887	1190.0647	1216.8833	1235.1424	1260.2863	1283.2575	1304.0443	1335.5638	1390.746	1438.3554	1467.102	1478.8502	1507.1444	1510.409	1764.1972	3004.6296	3026.653	3056.9561	3061.1051	3073.3527	3120.4487	3168.5193	3651.1221
C1CC23OC2CNC3=N1	C1C[C@@]23O[C@@H]2CN[C]3[N]1	
InChI=1S/C6H8N2O/c1-2-7-5-6(1)4(9-6)3-8-5/h4H,1-3H2,(H,7,8)	InChI=1S/C6H8N2O/c1-2-7-5-6(1)4(9-6)3-8-5/h4H,1-3H2,(H,7,8)/t4-,6-/m1/s1
