20
gdb 26220	3.14509	1.06488	0.9633	1.4063	83.95	-0.177	0.0421	0.2191	1339.2719	0.17064	-403.189087	-403.179529	-403.178585	-403.223612	35.619	
C	-0.0365973582	 1.5534047089	-0.0976945402	-0.382118
C	-0.0263178485	 0.012312232	-0.0647045722	-0.086827
C	-1.4620689884	-0.5483228099	-0.053943857	-0.382031
C	 0.7840209814	-0.5605086931	-1.1804927708	 0.370547
C	 1.9077696743	-1.3152684231	-1.2505941541	-0.271865
C	 2.1996655645	-1.5279669606	-2.6439991792	-0.260315
C	 1.212181845	-0.8822666019	-3.3236586499	 0.356955
N	 0.8757030032	-0.7788598972	-4.6688669117	-0.59573
O	 0.344973949	-0.2914789686	-2.4667205489	-0.219393
H	 0.9800571346	 1.9546240999	-0.051190732	 0.114736
H	-0.5001970654	 1.9157320608	-1.0206326075	 0.121625
H	-0.6050375264	 1.9560091671	 0.7471408619	 0.10697
H	 0.4732330943	-0.3068063036	 0.8583514117	 0.084287
H	-1.9875955598	-0.2796357306	-0.975585088	 0.124716
H	-1.457123562	-1.6393537357	 0.0239077528	 0.116666
H	-2.0299323204	-0.1445609817	 0.7907951077	 0.105831
H	 2.4765211323	-1.6786087189	-0.4080738017	 0.098548
H	 3.0227244896	-2.0789983288	-3.0696435567	 0.09189
H	 1.6644201785	-0.9553763791	-5.2759872812	 0.253083
H	 0.4520313125	 0.1133235841	-4.8931365831	 0.252426
50.2987	117.3518	155.3074	170.1659	223.5445	259.3792	267.8243	319.5611	396.6381	404.0478	495.2215	615.7989	651.9235	681.4339	701.1754	734.4106	767.4907	818.136	876.2421	926.122	958.1337	967.2207	998.0914	1021.5717	1070.3693	1110.2517	1118.9548	1175.8461	1233.2808	1253.7655	1297.0879	1329.2716	1349.8616	1391.3273	1413.7162	1442.2092	1485.6284	1491.4102	1500.0691	1511.646	1610.1745	1643.6028	1673.3424	3032.3847	3033.0272	3036.3429	3102.4307	3107.5051	3111.1322	3115.0261	3244.9678	3262.4997	3538.2311	3639.8535
CC(C)C1=CC=C(N)O1	CC(C)c1ccc(N)o1	
InChI=1S/C7H11NO/c1-5(2)6-3-4-7(8)9-6/h3-5H,8H2,1-2H3	InChI=1S/C7H11NO/c1-5(2)6-3-4-7(8)9-6/h3-5H,8H2,1-2H3
