22
gdb 111287	3.15522	1.169	1.02057	2.7226	82.33	-0.2314	0.0725	0.3039	1290.0131	0.193823	-404.316069	-404.306559	-404.305614	-404.349997	36.45	
C	-0.0417203177	 1.5760675644	-0.0159217442	-0.384251
C	-0.157302992	 0.0501487109	 0.0697754532	-0.188303
C	 0.6682026167	-0.54118183	 1.2063318407	-0.009371
C	 0.7739960472	-2.062696335	 1.3399839029	-0.137294
N	 1.5284651735	-2.5408674454	 0.1447935169	-0.39563
C	 2.2623358474	-2.0356533908	 1.3361184036	 0.320539
C	 3.2946438605	-2.8533260511	 2.0464608589	-0.519537
C	 2.2567938603	-0.5108519552	 1.1068000725	 0.077048
O	 2.8438986902	-0.0755289113	-0.0898087876	-0.434992
H	 0.9953236701	 1.8705389136	-0.1982434726	 0.138065
H	-0.6572259372	 1.9745617249	-0.828674098	 0.105719
H	-0.3723601164	 2.0528269752	 0.9142809359	 0.103832
H	-1.2076069823	-0.2381897637	 0.2109710559	 0.087231
H	 0.1579737107	-0.4016631086	-0.8764201984	 0.102582
H	 0.3647383299	-0.100939252	 2.1634396437	 0.06583
H	 0.1035986967	-2.7367263709	 1.861468956	 0.089447
H	 1.5519970942	-3.558988393	 0.1807709572	 0.227041
H	 2.9533133412	-3.8838966391	 2.1958976549	 0.115985
H	 4.2302805243	-2.8869654012	 1.4763394019	 0.134606
H	 3.5207202327	-2.4294918289	 3.0307605897	 0.127701
H	 2.7156603494	 0.0579651174	 1.9188827938	 0.082749
H	 2.5757641905	-0.7290747901	-0.7514480369	 0.291001
91.4562	116.3729	168.8765	197.0597	220.4719	248.6661	266.096	314.4519	334.0425	495.994	518.3757	551.1656	610.0725	674.8145	697.7646	778.5368	818.501	851.6062	903.7987	917.5359	956.3399	976.0287	1019.503	1026.8572	1066.1183	1083.4829	1107.3535	1127.7665	1145.1454	1158.2108	1203.3525	1232.4826	1264.7554	1289.6398	1307.4173	1327.6895	1358.5259	1389.6088	1406.0176	1407.1501	1433.8967	1467.5589	1482.2741	1490.3374	1497.9849	1499.7818	1514.3863	3019.2994	3023.4434	3030.5234	3037.2435	3071.8527	3086.9327	3088.0502	3094.1836	3096.3001	3120.1387	3176.3937	3480.2581	3738.4632
CCC1C2NC2(C)C1O	CC[C@H]1[C@H]2N[C@@]2(C)[C@H]1O	
InChI=1S/C7H13NO/c1-3-4-5-7(2,8-5)6(4)9/h4-6,8-9H,3H2,1-2H3	InChI=1S/C7H13NO/c1-3-4-5-7(2,8-5)6(4)9/h4-6,8-9H,3H2,1-2H3/t4-,5+,6-,7+/m0/s1
