16
gdb 124901	3.70886	1.27308	1.03109	1.8733	70.48	-0.2671	-0.0155	0.2516	1130.9711	0.123823	-437.86172	-437.853908	-437.852963	-437.894532	29.115	
C	-0.3099780592	 1.3586719092	-0.8744988377	-0.470066
C	-0.0804204969	 0.1094508447	-0.0581208221	 0.304271
C	 1.0865531783	-0.7558941575	-0.3257405904	-0.215963
O	 1.0709691041	 0.1148584875	 0.8031033118	-0.268736
C	-1.2779088616	-0.5128895847	 0.5679860377	 0.356873
N	-2.480785003	-0.2954311646	 0.0875083837	-0.216154
O	-3.3467508691	-1.0230895629	 0.8954387766	-0.164534
C	-2.6318331417	-1.6492460571	 1.8424051001	 0.079637
C	-1.3123164797	-1.3758675018	 1.7031174322	-0.34432
H	 0.6376018135	 1.7218768917	-1.2784179289	 0.12315
H	-1.0003212403	 1.1538397386	-1.6969428092	 0.147255
H	-0.7532070259	 2.1438223731	-0.2555562702	 0.138392
H	 1.0344154504	-1.8199249282	-0.1004508449	 0.11714
H	 1.7740457892	-0.4796140319	-1.1242776682	 0.121559
H	-3.1994966481	-2.2433241162	 2.5417953686	 0.154666
H	-0.48523082	-1.7004721899	 2.3101272009	 0.136829
56.3394	164.4025	181.8935	197.2787	319.5101	357.9492	431.9852	472.8656	557.5603	614.0016	735.321	804.0141	810.0638	867.377	876.1147	916.5782	927.0244	951.8525	990.2132	1022.2588	1064.5697	1102.8265	1138.2769	1154.7782	1166.5888	1184.5598	1328.1753	1369.406	1415.3169	1449.9993	1477.5533	1483.2721	1504.3693	1523.5019	1605.2805	3051.9198	3082.233	3123.5068	3136.5987	3172.1962	3264.7015	3297.9976
CC1(CO1)C1=NOC=C1	C[C@]1(CO1)c1nocc1	
InChI=1S/C6H7NO2/c1-6(4-8-6)5-2-3-9-7-5/h2-3H,4H2,1H3	InChI=1S/C6H7NO2/c1-6(4-8-6)5-2-3-9-7-5/h2-3H,4H2,1H3/t6-/m0/s1
