19
gdb 31724	6.00334	0.83637	0.74976	1.9657	81.84	-0.1646	0.0549	0.2194	1540.4866	0.159576	-419.215824	-419.206289	-419.205345	-419.250485	34.696	
C	-0.1459778815	 1.4264329114	 0.2229366157	-0.327777
N	-0.0491997524	 0.0516965432	-0.255705359	-0.387252
C	-1.1541297436	-0.7719511308	-0.1487281716	 0.467435
C	-1.2859128731	-2.1244542895	-0.0138074433	-0.440295
C	-2.7025907111	-2.3852603662	-0.066454021	 0.308958
N	-3.2852394762	-3.6495705339	-0.0256861418	-0.384285
C	-4.7226716271	-3.7107796579	 0.1638646769	-0.323147
C	-3.3167202499	-1.1772883491	-0.2089695755	-0.136328
O	-2.3554300384	-0.1749618864	-0.2699839108	-0.195398
H	 0.7954562054	 1.9370568525	 0.0073934933	 0.122113
H	-0.9445611138	 1.941403688	-0.314079451	 0.152009
H	-0.3536020032	 1.5052170636	 1.3009384738	 0.113419
H	 0.7943330343	-0.4192425245	 0.0366667082	 0.241109
H	-0.4931194256	-2.8482425485	 0.0911736663	 0.085456
H	-2.7795323274	-4.2887904668	 0.5710602138	 0.230609
H	-5.0371305847	-4.7552255185	 0.2275239844	 0.11865
H	-5.0709746154	-3.1788207726	 1.0648170538	 0.107042
H	-5.2229245593	-3.2622615127	-0.7018679025	 0.131891
H	-4.336193587	-0.8477041812	-0.2823004	 0.11579
54.3309	90.6812	143.0094	166.204	207.6139	234.0266	272.2193	359.6843	372.8342	497.0582	533.8837	556.6386	612.2651	661.4335	677.9843	706.3034	725.7585	762.0854	951.4787	992.9434	1059.1464	1081.3019	1121.2037	1141.057	1151.3095	1159.0594	1178.1563	1219.5168	1273.0424	1341.9477	1405.1549	1449.605	1456.7611	1477.3919	1485.5883	1489.3451	1513.8011	1516.7718	1528.5579	1634.5433	1674.4408	2966.4072	2988.1927	3058.9331	3094.574	3116.2069	3138.3335	3250.235	3308.1561	3581.9414	3606.5426
CNC1=CC(NC)=CO1	CNc1cc(NC)co1	
InChI=1S/C6H10N2O/c1-7-5-3-6(8-2)9-4-5/h3-4,7-8H,1-2H3	InChI=1S/C6H10N2O/c1-7-5-3-6(8-2)9-4-5/h3-4,7-8H,1-2H3
