23
gdb 94545	2.33707	1.43821	1.14635	2.1229	81.15	-0.2491	0.072	0.3211	1205.1899	0.203641	-425.413925	-425.403813	-425.402869	-425.448028	38.981	
C	 0.4448872918	 0.7444589854	-0.7339750739	-0.427767
C	 1.5842990835	-0.0666909992	-0.1525257203	 0.13851
O	 2.8301026915	 0.6856214424	-0.0712236543	-0.300772
C	 3.2086778013	-0.0632043467	 1.1071327459	-0.12141
C	 1.7390481271	-0.4773730374	 1.3466246059	-0.084872
C	 1.0164755309	 0.366596441	 2.4149383604	 0.356013
C	-0.4858692934	 0.0521587644	 2.4520640409	-0.410812
C	 1.6216398836	 0.0825660466	 3.8017152777	-0.400381
O	 1.1516764433	 1.77171633	 2.1486158937	-0.482853
H	 0.1877571014	 1.5998924701	-0.1086792555	 0.14373
H	 0.743281981	 1.1056308606	-1.7241254594	 0.125413
H	-0.4430491066	 0.1174027874	-0.8637898288	 0.119835
H	 1.7499580302	-0.9541699417	-0.7841839177	 0.075112
H	 3.8710443513	-0.9024254803	 0.8550773222	 0.102429
H	 3.6989963799	 0.5706721689	 1.8518870323	 0.113764
H	 1.571538534	-1.5372188338	 1.5544531707	 0.073685
H	-0.661247081	-0.9850037253	 2.7553357134	 0.106192
H	-0.9761197705	 0.7083991431	 3.1769875125	 0.123312
H	-0.957026797	 0.2138005875	 1.4812854192	 0.118715
H	 2.6888852731	 0.3192686134	 3.8283505167	 0.111013
H	 1.1248514469	 0.7080237856	 4.5485661174	 0.12316
H	 1.4932266638	-0.9665206925	 4.0887848679	 0.105659
H	 1.8300206838	 1.8982421304	 1.474021803	 0.292325
94.8049	139.9116	188.1085	199.4601	235.1566	253.7809	270.9123	292.3187	334.1137	349.4912	398.6757	418.4042	456.2746	515.0737	580.869	694.1749	767.0262	859.3318	872.7019	892.2531	925.0147	953.8515	987.3231	995.6129	1012.7236	1056.1434	1074.4573	1102.3814	1157.6719	1175.9295	1190.3944	1200.3837	1238.1266	1242.9573	1290.5363	1334.5359	1350.6976	1391.8031	1396.6948	1407.2305	1417.7466	1424.2216	1475.0565	1483.4527	1489.2113	1498.6376	1507.3033	1511.9299	1524.6726	2967.921	3010.066	3036.2223	3040.5815	3046.1887	3076.056	3081.9874	3102.3905	3107.039	3113.7072	3118.2957	3140.6715	3148.8294	3768.7128
CC1OCC1C(C)(C)O	C[C@H]1OC[C@H]1C(C)(C)O	
InChI=1S/C7H14O2/c1-5-6(4-9-5)7(2,3)8/h5-6,8H,4H2,1-3H3	InChI=1S/C7H14O2/c1-5-6(4-9-5)7(2,3)8/h5-6,8H,4H2,1-3H3/t5-,6-/m1/s1
