19
gdb 52922	4.2926	0.91814	0.88923	0.1762	92.88	-0.2107	0.045	0.2557	1418.1778	0.159731	-348.68771	-348.67933	-348.678386	-348.722519	31.372	
C	 0.0478495535	 1.492162581	 0.0107621319	-0.516282
C	 0.0324725004	 0.0374805454	 0.0061171918	 0.367504
C	 0.022395264	-1.1697285183	 0.0023759508	-0.486125
C	-0.0171764348	-2.5786477529	-0.0041107661	 0.382893
C	 0.7038737525	-3.644272896	 0.8160990313	-0.124937
C	-0.612150202	-4.3293487533	 1.1729850668	-0.230186
C	-1.1942518181	-3.6564747113	-0.0980509946	-0.127463
C	-0.4228072693	-4.3234392455	-1.2673096455	-0.230184
C	 0.822160464	-3.6405826963	-0.7084020783	-0.124939
H	 0.6595372033	 1.8914605251	-0.8066118391	 0.145237
H	-0.9637559594	 1.8966996167	-0.10938914	 0.147282
H	 0.450229396	 1.888953698	 0.9501114222	 0.145042
H	 1.5721041466	-3.4883047962	 1.4431746494	 0.094575
H	-0.6418930617	-5.4245097365	 1.2178905944	 0.088107
H	-1.0401802445	-3.9101956109	 2.087303236	 0.104481
H	-2.2544504825	-3.4289584937	-0.1797589544	 0.077842
H	-0.4448590502	-5.418360068	-1.3215393769	 0.088107
H	-0.7048341935	-3.8997274034	-2.2346804851	 0.104479
H	 1.7766693656	-3.4819300537	-1.1932897546	 0.094568
15.1262	91.6748	100.6199	248.7547	295.074	383.0651	425.5003	484.9081	500.8521	531.861	717.4764	723.4391	813.9924	838.0044	880.5038	915.3012	950.8134	967.1754	984.1699	999.5164	1016.1051	1016.1953	1052.1715	1054.9463	1068.4781	1095.0496	1129.2193	1134.9963	1182.8346	1223.9572	1246.4838	1252.0461	1301.826	1321.3875	1410.2722	1448.5732	1475.8271	1479.6665	1490.9048	1508.5156	2353.8083	3019.6207	3026.7775	3033.4923	3076.8825	3080.2891	3097.8102	3099.8163	3144.8777	3196.5114	3206.7369
CC#CC12C3CC1CC23	CC#C[C@@]12[C@H]3C[C@@H]1C[C@@H]23	
InChI=1S/C9H10/c1-2-3-9-6-4-7(9)8(9)5-6/h6-8H,4-5H2,1H3	InChI=1S/C9H10/c1-2-3-9-6-4-7(9)8(9)5-6/h6-8H,4-5H2,1H3/t6-,7+,8-,9+
