22
gdb 89004	3.92639	0.79927	0.7591	1.8921	82.64	-0.227	0.075	0.3021	1581.7512	0.193841	-404.287608	-404.278119	-404.277175	-404.323394	34.327	
C	-0.4781371642	 1.1721322379	 0.0741613296	-0.314492
N	 0.1151952443	-0.154456222	 0.1345892272	-0.077159
C	 1.5132328739	-0.2854003318	-0.2583016009	-0.264788
C	 1.1084605843	-0.4809760288	 1.1633849172	 0.027846
C	 1.552100925	 0.4743973721	 2.2547065085	-0.25633
C	 0.6146905223	 0.4819477414	 3.4604804807	-0.015572
C	 0.6135353466	-0.7662636374	 4.3760415697	-0.076267
O	 1.0247535541	 0.0114774819	 5.5181657302	-0.271639
C	 1.1014328029	 1.2160958594	 4.7304578493	-0.090918
H	 0.2101418366	 2.0004596325	 0.3055454567	 0.098906
H	-0.8606972034	 1.3340952287	-0.9388076394	 0.125873
H	-1.3261829355	 1.2260060824	 0.7649030133	 0.122597
H	 1.7591692627	-1.1312691301	-0.8956140949	 0.113542
H	 2.0629598405	 0.6280069919	-0.4888147006	 0.102229
H	 1.0075519524	-1.5097229444	 1.5115449836	 0.090398
H	 2.5560001293	 0.1737493462	 2.5852851265	 0.106116
H	 1.6556807888	 1.4921921455	 1.8625263028	 0.100483
H	-0.3910520182	 0.781128603	 3.1548002894	 0.084721
H	-0.3559529642	-1.2524012085	 4.5375402207	 0.103853
H	 1.354811634	-1.5351237791	 4.1162396734	 0.09587
H	 2.127636437	 1.6058085205	 4.674385387	 0.095129
H	 0.4450874408	 2.0042816486	 5.1193203801	 0.0996
39.8509	63.9033	81.4399	127.3633	207.6367	262.9622	307.7849	347.6046	390.3024	446.5268	521.7378	744.3109	758.0935	781.9382	868.2738	893.8087	904.1543	928.6962	982.2134	1005.3294	1037.2315	1044.8565	1085.1049	1095.754	1118.2648	1128.6985	1134.0343	1155.4129	1164.9475	1169.3087	1192.9052	1205.0741	1245.1794	1275.9053	1308.1074	1313.4099	1340.6553	1368.5191	1398.0361	1427.8494	1446.6884	1474.4918	1490.39	1504.786	1512.2401	1516.1814	1537.5927	2975.6357	2993.9064	3004.0791	3016.6964	3043.3402	3047.7229	3059.5976	3065.8255	3080.2931	3082.9618	3095.3706	3098.2095	3167.0926
CN1CC1CC1COC1	CN1C[C@H]1CC1COC1	
InChI=1S/C7H13NO/c1-8-3-7(8)2-6-4-9-5-6/h6-7H,2-5H2,1H3	InChI=1S/C7H13NO/c1-8-3-7(8)2-6-4-9-5-6/h6-7H,2-5H2,1H3/t7-,8?/m1/s1
