17
gdb 42986	2.77887	1.70865	1.27704	3.1418	72.35	-0.2414	-0.029	0.2124	998.6508	0.136489	-421.824159	-421.816766	-421.815822	-421.85616	28.859	
O	 0.0737061972	 0.0921166829	 0.379527983	-0.344432
C	 0.0277734178	 1.2697764949	 0.1155403225	 0.374979
C	-1.2130439629	 2.066135665	-0.2113480122	-0.089996
O	-1.315181101	 3.2117647025	 0.6602477229	-0.243903
C	-0.7796058138	 3.407662092	-0.6441965843	 0.044873
C	 0.7389217392	 3.505899969	-0.6503284919	-0.350124
C	 1.1973690454	 2.2118204109	 0.0236987793	 0.223359
C	 2.2189072973	 2.1553187766	 1.1486992334	-0.285846
C	 2.5653248259	 1.5977456025	-0.1914086922	-0.299962
H	-2.1426941077	 1.5812292736	-0.4902607169	 0.115561
H	-1.3827940769	 4.0142060862	-1.3146076404	 0.10708
H	 1.0989310397	 3.5685225733	-1.684006852	 0.113726
H	 1.0734802484	 4.4070109739	-0.1262977002	 0.120805
H	 2.6592101687	 3.0989520287	 1.4526511798	 0.120753
H	 2.0152913346	 1.4585025069	 1.9541979538	 0.137312
H	 2.585146509	 0.5186058434	-0.3001889731	 0.138944
H	 3.2564458393	 2.1471397476	-0.8216537616	 0.116868
69.4382	195.9766	243.3339	254.7624	361.9895	365.2498	444.0266	577.2393	618.1784	717.8809	774.5016	785.3	819.5714	853.595	864.9251	890.8327	927.3356	973.0472	997.3953	1004.5536	1051.8425	1065.3251	1092.8342	1101.0553	1143.8265	1201.6047	1207.317	1242.0385	1270.6788	1285.1541	1319.969	1363.8782	1411.9718	1454.383	1481.409	1485.7901	1826.6601	3037.2634	3080.7602	3131.2504	3134.0473	3152.4899	3180.6961	3217.8266	3232.3642
O=C1C2OC2CC11CC1	O=C1[C@H]2O[C@H]2CC21CC2	
InChI=1S/C7H8O2/c8-6-5-4(9-5)3-7(6)1-2-7/h4-5H,1-3H2	InChI=1S/C7H8O2/c8-6-5-4(9-5)3-7(6)1-2-7/h4-5H,1-3H2/t4-,5-/m0/s1
