16
gdb 51497	3.24131	1.10602	0.88365	1.844	72.81	-0.2335	-0.0395	0.194	1267.3174	0.124347	-434.092843	-434.084412	-434.083468	-434.127676	29.555	
N	 0.0831213535	 1.2848273489	-0.1441607209	-0.550372
C	 0.1159951437	 0.0167423844	-0.0683726216	 0.344252
C	 1.2336749654	-1.0271703273	-0.0803356002	-0.272057
N	 0.5818601885	-2.3392836367	 0.0347607078	-0.256461
C	-0.6682435688	-2.0920140561	 0.1049740596	 0.066651
N	-1.0422037496	-0.7534705099	 0.0547852673	-0.079579
C	-2.3788937155	-0.2099326058	 0.0899642472	-0.261365
C	-2.9474630597	-0.1213230906	 1.502928614	 0.150652
O	-4.1197052617	-0.1977469086	 1.7527537664	-0.224867
H	 1.019105343	 1.6724743615	-0.2444709251	 0.227455
H	 1.8196708022	-0.9715214864	-1.004781439	 0.146269
H	 1.9304069701	-0.8723427648	 0.7514418556	 0.146201
H	-1.4385538315	-2.8517985698	 0.1946280539	 0.144355
H	-2.3133850453	 0.8115174728	-0.3062778545	 0.180507
H	-3.0646238348	-0.7844303187	-0.5395244128	 0.142829
H	-2.1785018695	 0.0308507872	 2.2933353823	 0.095529
31.2623	66.2692	101.2041	162.3873	274.6738	334.893	406.9629	457.8909	496.031	593.1429	662.6133	723.0538	780.5386	825.5286	893.5536	933.5709	973.9053	1005.7274	1012.4551	1042.811	1053.1289	1182.5086	1194.0383	1234.6622	1285.7121	1314.3913	1331.3635	1370.4903	1409.3486	1416.9704	1440.6176	1456.0652	1681.512	1738.9399	1842.2643	2889.0612	3038.9208	3043.6508	3076.2778	3102.7083	3192.9766	3507.9768
N=C1CN=CN1CC=O	[NH][C]1CN=CN1CC=O	
InChI=1S/C5H7N3O/c6-5-3-7-4-8(5)1-2-9/h2,4,6H,1,3H2	InChI=1S/C5H7N3O/c6-5-3-7-4-8(5)1-2-9/h2,4,6H,1,3H2
