15
gdb 33266	13.22889	0.45488	0.45424	2.0624	120.36	-0.2228	-0.0462	0.1766	2326.1665	0.111163	-346.27252	-346.263566	-346.262622	-346.306937	32.359	
C	 0.0721844421	-6.3246819995	-0.0440653318	-0.709817
C	 0.0614576877	-5.11467844	-0.0335676817	 0.177404
C	 0.0496663129	-3.7622373836	-0.0216973885	-0.053152
C	 0.039627174	-2.542932921	-0.0107555757	 0.617348
C	 0.028241905	-1.1935810714	 0.0012652885	-0.412829
C	 0.028104733	 0.0216428017	 0.0186109388	 0.251137
C	 0.0128233781	 1.4470895755	 0.0289467891	-0.208384
C	 0.4911819487	 2.210349144	 1.2599846485	-0.250353
C	 1.3229450845	 2.2282932609	 0.0165859983	-0.250361
H	 0.0814933901	-7.3862453913	-0.0534374002	 0.190353
H	-0.8113948156	 1.8988351008	-0.5158737896	 0.123106
H	-0.0667779406	 3.1001509398	 1.5279991394	 0.126938
H	 0.8375288086	 1.6189380821	 2.0987395699	 0.135836
H	 2.2382005715	 1.6491529869	 0.0048734429	 0.135837
H	 1.34575004	 3.1306244152	-0.5835613577	 0.126936
56.6555	61.2727	146.2558	156.3942	267.5895	272.9761	414.8656	454.6064	481.8324	498.8784	545.998	568.8316	581.6583	679.1742	689.404	781.6333	819.2626	831.162	880.9396	964.9992	1062.1121	1082.5308	1110.864	1111.0654	1201.3341	1208.2598	1303.1726	1410.2081	1467.0332	1495.3531	2151.5943	2292.7799	2326.6261	3144.1396	3144.4849	3149.5839	3230.3291	3245.2456	3503.814
C#CC#CC#CC1CC1	C#CC#CC#CC1CC1	
InChI=1S/C9H6/c1-2-3-4-5-6-9-7-8-9/h1,9H,7-8H2	InChI=1S/C9H6/c1-2-3-4-5-6-9-7-8-9/h1,9H,7-8H2
