19
gdb 89334	1.92318	1.73561	1.11456	3.6458	82.08	-0.2319	0.0174	0.2493	1161.1183	0.15898	-382.055705	-382.046695	-382.045751	-382.089083	34.073	
C	-0.1434348728	 1.5313416708	 0.0116409182	-0.396559
C	 0.1027358438	 0.0340573785	 0.0258518419	-0.004848
N	 1.2346438948	-0.4535827766	-0.8417233184	-0.371661
C	 1.7835685164	-1.2386509169	 0.2787806669	 0.314351
C	 2.2625137374	-2.644859265	 0.107624373	-0.499663
C	 2.2402937677	-0.2841441586	 1.3252510379	-0.347926
C	 0.7535534866	-0.6207386341	 1.262119553	 0.113422
C	 0.0471195834	-1.1925782873	 2.3533850823	 0.186606
N	-0.5392513158	-1.6731721086	 3.2301856889	-0.361653
H	 0.7631724726	 2.0862127417	 0.2669113353	 0.124197
H	-0.4653546479	 1.8537304973	-0.9837331621	 0.124063
H	-0.9291387479	 1.7960678	 0.7268528008	 0.128446
H	-0.8228882808	-0.5041356986	-0.204983093	 0.093715
H	 0.8826513371	-1.0611514559	-1.5751147201	 0.224105
H	 3.1547652691	-2.6663080321	-0.5289546891	 0.139961
H	 2.5248968664	-3.0872752405	 1.0721361025	 0.142865
H	 1.4962747985	-3.2736710799	-0.3588599588	 0.128117
H	 2.748199892	-0.7217301369	 2.1780557847	 0.135945
H	 2.5756017592	 0.7092922227	 1.043460456	 0.126519
106.3531	143.6199	160.2916	200.2327	224.086	230.7973	336.1382	371.4365	452.5053	485.8212	522.9454	562.2212	588.8367	678.1201	740.4616	805.9258	811.7341	878.9319	953.7601	965.3466	991.6156	1038.8196	1070.9112	1093.0616	1096.4737	1131.7117	1182.409	1216.7375	1267.1809	1268.2114	1359.5127	1379.5405	1402.6805	1414.1715	1439.5739	1480.6289	1485.6705	1490.2893	1493.2334	1508.7786	2332.9978	3029.8743	3038.9956	3045.8127	3090.4436	3108.1511	3120.0093	3121.5254	3126.495	3221.057	3518.2199
CC1NC2(C)CC12C#N	C[C@H]1N[C@@]2(C)C[C@@]12C#N	
InChI=1S/C7H10N2/c1-5-7(4-8)3-6(7,2)9-5/h5,9H,3H2,1-2H3	InChI=1S/C7H10N2/c1-5-7(4-8)3-6(7,2)9-5/h5,9H,3H2,1-2H3/t5-,6+,7-/m1/s1
