22
gdb 30907	1.87207	1.75242	0.98475	1.8294	90.99	-0.1871	0.049	0.2361	1285.3937	0.193779	-367.261739	-367.251502	-367.250558	-367.297347	36.919	
C	 0.1149364078	 1.6982817574	-0.0065494157	-0.366921
C	 0.0491025753	 0.1585825653	-0.0234258989	-0.300737
C	 0.6562953547	-0.4689418496	-1.2409197722	 0.19235
C	 0.0719212279	-0.8470679206	-2.4380318787	 0.205637
C	-1.3759201215	-0.726325087	-2.8127007673	-0.50448
C	 1.1099050846	-1.3621049147	-3.267716388	-0.258723
C	 2.2839639573	-1.2816551575	-2.5619414222	-0.10692
N	 2.0120148261	-0.7351660772	-1.3315931828	-0.032161
C	 2.9880849525	-0.5576559102	-0.2784587447	-0.342075
H	 1.1489200443	 2.0561547511	-0.0453855498	 0.115032
H	-0.4081174528	 2.1154722894	-0.8720937105	 0.12433
H	-0.3469796208	 2.1015501572	 0.9009364693	 0.107995
H	 0.525804887	-0.233416836	 0.8840334833	 0.097237
H	-0.9999570034	-0.1499695966	 0.0382759272	 0.11106
H	-2.009116075	-0.5437004904	-1.9389877439	 0.114206
H	-1.5535797198	 0.0968886855	-3.5165144732	 0.120925
H	-1.7398024424	-1.6403713295	-3.2952893957	 0.120217
H	 0.9979325732	-1.745668785	-4.2710871398	 0.085243
H	 3.2906096083	-1.5720868462	-2.8194388379	 0.108025
H	 3.0147654118	 0.478318893	 0.0742361943	 0.13667
H	 2.7824581261	-1.2085913378	 0.5792382308	 0.135455
H	 3.9755697887	-0.8101652608	-0.6689261034	 0.137634
69.5539	78.4225	86.6887	128.9462	173.8906	201.3723	268.0378	279.647	307.9714	388.4185	467.2822	569.9834	619.2277	671.8235	691.9347	722.7136	727.8746	789.367	793.8862	963.4165	975.5903	1001.5251	1052.4182	1058.4202	1079.695	1100.6223	1141.6873	1149.1256	1206.4509	1250.9245	1292.7754	1353.5205	1369.741	1403.6438	1405.1115	1419.7922	1453.0132	1469.1263	1478.7694	1483.3551	1485.7042	1494.7432	1500.2623	1507.3651	1518.4936	1535.4735	1612.8326	3018.0112	3023.8618	3029.2807	3033.2132	3066.6195	3067.2608	3082.9545	3097.547	3101.9758	3112.2616	3132.717	3234.4585	3258.3221
CCC1=C(C)C=CN1C	CCc1c(C)ccn1C	
InChI=1S/C8H13N/c1-4-8-7(2)5-6-9(8)3/h5-6H,4H2,1-3H3	InChI=1S/C8H13N/c1-4-8-7(2)5-6-9(8)3/h5-6H,4H2,1-3H3
