16
gdb 103271	3.12507	1.2318	1.0991	2.5113	66.65	-0.2489	0.0129	0.2618	1120.0917	0.12317	-474.975376	-474.967153	-474.966208	-475.008203	31.427	
O	 0.0241740848	 1.3570061388	-0.0761776923	-0.421709
C	 0.0556586171	-0.0504444974	 0.167669745	-0.160624
C	-1.3489466279	-0.5999242657	 0.0530806714	 0.372479
O	-2.2763260938	 0.1248716271	 0.7977180221	-0.468752
C	-1.9082106323	-1.205784212	-1.201583191	-0.022914
O	-0.8765818919	-1.9293828143	-1.9171956706	-0.271944
C	-0.7411905339	-2.8141970758	-0.8367067754	 0.443206
N	-0.0586971975	-3.8574616551	-0.7305071559	-0.552953
C	-1.7133750982	-2.0846861183	 0.0262415355	-0.265885
H	-0.0630297901	 1.4882093443	-1.0266918457	 0.295441
H	 0.7451655139	-0.5683401212	-0.5051917932	 0.125483
H	 0.4115489312	-0.168088948	 1.1953725611	 0.132908
H	-1.9816230337	 1.044892509	 0.7311537245	 0.295563
H	-2.7992951339	-0.9084651518	-1.7366465844	 0.131716
H	 0.4683696265	-4.0470374164	-1.5841515232	 0.232764
H	-2.4162098903	-2.4989046231	 0.7334237321	 0.135219
96.2006	110.7603	198.0204	269.4231	286.4502	344.9585	406.3352	417.6015	507.67	514.637	529.0935	671.1456	749.8056	765.3207	838.1425	864.2548	902.1612	933.2155	956.8697	973.9709	981.8604	1026.3476	1043.4906	1068.6245	1125.7664	1170.1476	1204.9678	1273.4722	1290.0125	1312.4049	1376.256	1404.8868	1469.6679	1486.4201	1833.0122	3058.5217	3110.5144	3220.1019	3240.865	3484.9935	3737.9922	3809.1372
OCC1(O)C2OC(=N)C12	OC[C@@]1(O)[C@H]2O[C]([NH])[C@@H]12	
InChI=1S/C5H7NO3/c6-4-2-3(9-4)5(2,8)1-7/h2-3,6-8H,1H2	InChI=1S/C5H7NO3/c6-4-2-3(9-4)5(2,8)1-7/h2-3,6-8H,1H2/t2-,3-,5-/m0/s1
