19
gdb 57713	3.13237	0.81993	0.7605	2.9653	78.79	-0.2566	-0.0274	0.2292	1547.6903	0.152927	-422.987247	-422.976323	-422.975379	-423.024567	38.218	
C	-0.003371134	 1.5783888552	 0.0367582082	-0.41849
C	 0.0410604056	 0.0379286559	 0.0647034355	 0.178628
C	 0.9098028404	-0.4733392923	 1.2307426231	-0.418541
O	-1.2847115765	-0.5213810585	 0.1173073059	-0.291789
C	-2.0837062279	-0.2268004769	 1.2365493042	-0.15801
C	-3.4152357769	-0.9350292109	 1.0349406733	 0.143676
O	-4.3198255812	-0.8816123769	 1.8243196637	-0.240368
C	 0.5972845274	-0.4525446166	-1.203515865	 0.340193
C	 1.086919842	-0.8330110864	-2.2318217126	-0.46388
H	 0.9970942062	 1.9756683138	-0.1506056729	 0.133616
H	-0.667757695	 1.920070545	-0.7603377715	 0.136223
H	-0.3522283635	 1.9812611574	 0.9919335896	 0.119008
H	 0.5624980627	-0.0731659964	 2.187612204	 0.119026
H	 0.8830809181	-1.5648664394	 1.2679175078	 0.136233
H	 1.9456697562	-0.1557654145	 1.0893623691	 0.133625
H	-1.6498092168	-0.5819550456	 2.1834684438	 0.125157
H	-2.2853586018	 0.8488079276	 1.3530240162	 0.125103
H	-3.4749226236	-1.5094974372	 0.085095839	 0.100952
H	 1.5096590685	-1.1756841633	-3.1440197914	 0.199636
32.6466	51.3023	88.2881	105.2188	176.5509	204.9205	243.9462	258.104	302.2343	367.9903	385.2619	425.3419	506.3581	557.5458	601.2412	629.5064	670.5352	731.4003	746.8319	876.863	919.9624	960.8368	1010.8543	1053.9641	1114.7469	1121.2258	1178.2837	1184.852	1238.2357	1264.334	1354.1807	1387.8956	1399.8644	1412.5373	1477.5285	1480.3156	1483.1419	1496.6417	1504.0073	1844.2069	2243.6866	2907.8941	2988.7305	3022.2543	3046.4699	3050.5145	3119.3554	3124.5605	3134.8865	3137.2025	3502.0865
CC(C)(OCC=O)C#C	CC(C)(OCC=O)C#C	
InChI=1S/C7H10O2/c1-4-7(2,3)9-6-5-8/h1,5H,6H2,2-3H3	InChI=1S/C7H10O2/c1-4-7(2,3)9-6-5-8/h1,5H,6H2,2-3H3
