21
gdb 39190	2.46107	2.19615	1.51458	0.2069	85.34	-0.2326	0.0255	0.2581	952.9566	0.187363	-349.974393	-349.967774	-349.96683	-350.005049	28.579	
C	 0.0839534782	 1.4210060856	-0.5590069565	-0.250232
C	 1.4654027042	 1.5695553997	 0.1496074716	 0.013125
C	 1.4938388989	 2.2997708868	 1.5144954402	-0.227746
C	 2.007516507	 1.2518570324	 2.5235278038	-0.205997
C	 1.4378184203	-0.0982779613	 2.0176576877	-0.06502
C	-0.0355248108	-0.2787160491	 2.3195374247	-0.068861
C	-0.8082295043	-0.2393076632	 1.2328892967	-0.084633
C	-0.0197763729	-0.0504848878	-0.0348106954	-0.054964
C	 1.4545350678	 0.0404321504	 0.4724919592	-0.037236
H	-0.7037782769	 2.1077925241	-0.2349377217	 0.091677
H	 0.1600063174	 1.4716471018	-1.648706762	 0.093301
H	 2.2703160219	 1.9105368085	-0.5054923362	 0.061671
H	 2.1220446527	 3.1950624601	 1.4976545037	 0.091541
H	 0.4858760993	 2.6243203907	 1.792178918	 0.100521
H	 3.1031800264	 1.2096811713	 2.4966504753	 0.092853
H	 1.7197363249	 1.4761805877	 3.5559920559	 0.090982
H	 2.0312101171	-0.937333157	 2.399722314	 0.064078
H	-0.4010390719	-0.3903081949	 3.3361252039	 0.085592
H	-1.8916410416	-0.3116195192	 1.2385817209	 0.08702
H	-0.2593244679	-0.7935179971	-0.801500209	 0.0652
H	 2.1958826802	-0.5743456695	-0.0384688945	 0.057127
145.8071	213.3735	326.5339	370.2199	473.1362	576.2025	589.5438	660.8328	757.7207	762.7347	798.7999	811.19	843.5515	849.7483	874.5643	900.864	928.1392	955.751	969.3966	981.7193	997.5719	1006.4027	1037.361	1066.8077	1091.2342	1116.4957	1135.6789	1161.4263	1178.8278	1203.6326	1221.5089	1241.3875	1263.3298	1278.9035	1289.4138	1300.7322	1317.9235	1328.5909	1342.9784	1346.4723	1382.5445	1478.3472	1488.7646	1498.8045	1674.7092	3023.0782	3036.6618	3044.4759	3048.4491	3054.5581	3065.9172	3076.6175	3092.8509	3099.7864	3106.6169	3164.2162	3190.1501
C1C2CCC3C=CC1C23	C1[C@H]2CC[C@H]3C=C[C@@H]1[C@@H]23	
InChI=1S/C9H12/c1-3-7-5-8-4-2-6(1)9(7)8/h1,3,6-9H,2,4-5H2	InChI=1S/C9H12/c1-3-7-5-8-4-2-6(1)9(7)8/h1,3,6-9H,2,4-5H2/t6-,7+,8-,9+/m1/s1
