24
gdb 76919	2.27079	1.23848	1.04166	0.9575	91.38	-0.2284	0.087	0.3154	1339.7445	0.215421	-368.376558	-368.366142	-368.365198	-368.411572	39.09	
C	-0.0860544908	 1.5473146722	-0.0122934038	-0.414995
C	 0.0256504239	 0.039253565	 0.0629066804	-0.077962
C	 1.3371140822	-0.6758699603	-0.1996336828	-0.008237
N	 2.5093101201	 0.1190700092	-0.4432053858	-0.05738
C	 3.7521738083	-0.6046861958	-0.6887767871	-0.223073
C	 3.0466738171	 0.0927034101	-1.7997910985	-0.222037
C	 0.7352776299	-0.6923740541	 1.1924484805	 0.291929
C	 1.4069397336	 0.0934408414	 2.3030268767	-0.452186
C	 0.1187682076	-2.0003949342	 1.6548963318	-0.448945
H	 0.8629575351	 2.0334224256	 0.2179688909	 0.134662
H	-0.3784234323	 1.8601228655	-1.0209980143	 0.110354
H	-0.8458847848	 1.9233208375	 0.6820040498	 0.110241
H	-0.8506680955	-0.4792875062	-0.3212844893	 0.073283
H	 1.2835282256	-1.6138361966	-0.7632888057	 0.057905
H	 4.6468278829	-0.1762240946	-0.2456735904	 0.114895
H	 3.7161307414	-1.6929274874	-0.6818986154	 0.109378
H	 2.5386622203	-0.5295465135	-2.5348406936	 0.109399
H	 3.4167284891	 1.0396470746	-2.1827330597	 0.114862
H	 1.9473460546	 0.9603203099	 1.9223502747	 0.133871
H	 0.6690086732	 0.4365264481	 3.0379612848	 0.107257
H	 2.1284998137	-0.5379801469	 2.8352576292	 0.107139
H	 0.8730344375	-2.6560360163	 2.1070333464	 0.109553
H	-0.659356784	-1.8240220176	 2.4075535366	 0.112284
H	-0.3423753287	-2.5452290057	 0.8246032746	 0.107804
68.0031	143.9566	149.5567	166.8193	169.386	204.4621	244.2582	251.3533	315.536	358.0226	369.5624	453.433	497.5334	570.9666	708.5438	765.0854	780.6383	851.0148	894.7731	909.6047	969.9262	977.5182	985.4433	1009.3941	1037.7329	1050.1252	1078.4318	1112.5081	1117.5669	1122.3006	1136.4954	1158.1102	1172.326	1179.7273	1203.5627	1263.1804	1322.6515	1333.5777	1373.0929	1404.9074	1414.1286	1422.7557	1453.6532	1481.9038	1488.3629	1491.936	1494.6755	1500.6655	1508.6339	1517.6852	1521.7771	3015.0489	3023.2711	3025.9564	3032.5234	3073.5667	3076.7683	3083.5942	3092.2361	3093.8643	3098.2554	3116.1826	3137.9564	3146.9949	3175.2962	3189.9532
CC1C(N2CC2)C1(C)C	C[C@H]1[C@@H](N2CC2)C1(C)C	
InChI=1S/C8H15N/c1-6-7(8(6,2)3)9-4-5-9/h6-7H,4-5H2,1-3H3	InChI=1S/C8H15N/c1-6-7(8(6,2)3)9-4-5-9/h6-7H,4-5H2,1-3H3/t6-,7+/m0/s1
