23
gdb 81017	2.37809	1.75035	1.30741	0.2359	89.67	-0.2278	0.0256	0.2535	1099.6204	0.207057	-351.1643	-351.155887	-351.154943	-351.196292	34.849	
C	-0.1027244751	 1.5268947131	-0.0798891772	-0.430817
C	 0.0220994986	 0.0085130171	-0.0136635063	 0.017134
C	 1.2036820077	-0.6013088436	-0.843792616	-0.067245
C	 2.0832671063	-0.446343502	 0.4340734206	-0.260434
C	 0.7581169233	-0.5833377163	 1.2447982499	 0.321709
C	 0.6439189057	 0.1180020098	 2.5873622235	-0.48252
C	 0.3960908402	-2.0838687394	 1.3501058986	-0.287832
C	 0.5376139094	-2.7801152839	 0.0153746217	-0.069331
C	 0.9277116157	-2.0743627403	-1.04610225	-0.068218
H	 0.849232389	 2.0377047662	 0.0969810511	 0.114207
H	-0.4596416785	 1.8350587329	-1.0688916991	 0.112274
H	-0.8199959251	 1.8997296322	 0.6595530096	 0.114116
H	-0.9529292165	-0.4444402947	-0.223735634	 0.060076
H	 1.5102855688	-0.0855645172	-1.7560373494	 0.051675
H	 2.8637671988	-1.1945743466	 0.5954456784	 0.089757
H	 2.5142536087	 0.553272426	 0.5317476407	 0.090905
H	 0.8931551524	 1.1808342343	 2.5126189989	 0.110852
H	-0.3716345763	 0.0389542491	 2.9945198213	 0.109494
H	 1.325712634	-0.331394087	 3.3195439781	 0.111063
H	 1.0371480262	-2.5692619121	 2.1014999393	 0.098188
H	-0.6323009732	-2.1898362392	 1.7276838551	 0.098649
H	 0.3187109085	-3.8425155088	-0.0427070381	 0.083706
H	 1.0484614715	-2.5211989094	-2.0281680067	 0.082591
199.2582	207.6726	227.2242	243.8211	249.5329	320.5285	370.2786	382.0143	473.9952	486.4101	490.5009	627.9945	703.5636	720.7385	796.2182	854.6804	862.2136	893.747	898.1903	948.4539	961.9616	975.5696	1002.3976	1013.0489	1046.3344	1075.251	1081.0823	1109.7208	1121.031	1169.9171	1192.6794	1204.6451	1231.8032	1247.628	1267.2341	1280.8975	1314.5355	1363.1519	1375.0853	1390.2244	1408.1506	1413.0418	1470.7988	1486.8024	1490.5416	1493.931	1500.4539	1505.6279	1700.589	2987.9151	3010.8183	3018.1651	3028.1247	3037.9969	3055.0023	3077.0624	3083.7457	3089.2861	3097.7171	3099.4411	3110.6578	3157.7631	3182.6767
CC1C2CC1(C)CC=C2	C[C@H]1[C@H]2C[C@]1(C)CC=C2	
InChI=1S/C9H14/c1-7-8-4-3-5-9(7,2)6-8/h3-4,7-8H,5-6H2,1-2H3	InChI=1S/C9H14/c1-7-8-4-3-5-9(7,2)6-8/h3-4,7-8H,5-6H2,1-2H3/t7-,8+,9-/m0/s1
