17
gdb 53278	2.49312	1.03263	0.84645	3.3328	79.25	-0.2447	-0.0277	0.217	1433.7339	0.131531	-421.794921	-421.784684	-421.783739	-421.832555	34.392	
C	 0.3349864192	 1.6719317066	 0.3605836452	-0.502532
C	 0.2217344698	 0.2326169517	 0.1895566949	 0.114289
C	 0.107575135	-0.9593588765	 0.0642308546	 0.111911
C	 0.0279114902	-2.3810151197	-0.108668489	-0.17621
O	-0.4902289895	-3.1736507016	 0.961514176	-0.215383
C	-1.2658779797	-3.1222589262	-0.2213985598	-0.038898
C	-2.581250998	-2.3799698167	-0.167288133	 0.369044
C	-3.4941048728	-2.6140591722	-1.3558466449	-0.492013
O	-2.8625457891	-1.6494963826	 0.7501859469	-0.289805
H	 1.2959729804	 1.944545269	 0.8100592625	 0.153551
H	 0.2565668391	 2.191818261	-0.6004985346	 0.151692
H	-0.4605541496	 2.0498605118	 1.0113839125	 0.163276
H	 0.8777714649	-2.8367904376	-0.6182368989	 0.116972
H	-1.2582053082	-4.0333842045	-0.8226692924	 0.100458
H	-3.8224267444	-3.6599717278	-1.3794955575	 0.144344
H	-4.3645504233	-1.9614426379	-1.2851962767	 0.147908
H	-2.9613119242	-2.4259389367	-2.2952205758	 0.141395
20.2702	44.8944	68.661	121.6492	136.3332	189.8316	236.4314	328.3192	338.0405	378.3677	479.0595	515.8928	606.9066	625.7005	724.1291	832.9736	871.5508	908.9515	969.3555	1020.2067	1050.4043	1052.4804	1078.242	1109.2587	1176.7368	1191.5367	1278.0408	1376.1749	1386.7979	1412.0882	1426.7888	1463.337	1474.1422	1474.4164	1475.588	1823.0993	2373.2741	3030.5468	3032.6143	3090.0826	3091.8828	3093.0302	3097.1574	3104.2565	3155.9147
CC#CC1OC1C(C)=O	CC#C[C@H]1O[C@H]1C(=O)C	
InChI=1S/C7H8O2/c1-3-4-6-7(9-6)5(2)8/h6-7H,1-2H3	InChI=1S/C7H8O2/c1-3-4-6-7(9-6)5(2)8/h6-7H,1-2H3/t6-,7+/m1/s1
