19
gdb 81927	2.41121	1.67003	1.23997	2.9763	74.48	-0.2389	-0.0295	0.2093	1068.3027	0.158856	-423.040401	-423.031906	-423.030962	-423.073341	32.427	
C	 0.1129019624	 1.608970793	-0.1412111237	-0.407106
C	 0.0494034429	 0.0848000279	-0.0163268317	-0.029214
C	 0.6724868134	-0.6341197442	-1.2062906116	 0.046903
O	 2.0979032851	-0.6285670868	-1.1819749704	-0.248221
C	 1.4120144399	-1.8316782032	-0.7712004	-0.090378
C	 1.2956161837	-1.9011346805	 0.7297205419	 0.41626
O	 1.5374963321	-2.8644026865	 1.4113936639	-0.32631
C	 0.7540837397	-0.5478132783	 1.228244036	-0.126628
C	 1.8907112013	 0.2685030706	 1.8696303169	-0.406426
H	 1.1445201726	 1.9570008918	-0.2378216762	 0.136259
H	-0.4381287789	 1.9430084832	-1.0267586612	 0.115221
H	-0.3329580748	 2.0989187872	 0.7296930157	 0.120511
H	-1.0069112814	-0.2145719788	 0.0114281798	 0.086047
H	 0.222148813	-0.5714595816	-2.1946989345	 0.103658
H	 1.5814373453	-2.719451322	-1.3716822345	 0.11449
H	 0.0156358478	-0.7683094331	 2.0050922836	 0.101975
H	 2.6723444944	 0.4991009313	 1.1425830485	 0.142226
H	 1.5140193147	 1.2069556975	 2.2859925659	 0.117506
H	 2.3374789869	-0.3076985677	 2.6848300715	 0.133227
73.8649	165.8098	226.49	244.665	258.8584	264.4455	278.403	414.5506	472.8101	487.8916	581.0123	683.7354	724.5811	783.0339	807.8478	856.3203	870.8377	922.4321	983.5652	998.7061	1034.6256	1060.9042	1068.306	1099.491	1149.8054	1161.6113	1203.0509	1241.8678	1247.5199	1311.8544	1318.0535	1341.5118	1361.1516	1394.2211	1405.0315	1421.426	1489.6022	1497.3568	1505.9923	1514.4938	1840.9724	3015.6468	3038.9899	3047.2616	3063.4572	3101.5737	3115.869	3122.7459	3135.322	3140.4022	3179.8999
CC1C2OC2C(=O)C1C	C[C@H]1[C@H]2O[C@H]2C(=O)[C@H]1C	
InChI=1S/C7H10O2/c1-3-4(2)6-7(9-6)5(3)8/h3-4,6-7H,1-2H3	InChI=1S/C7H10O2/c1-3-4(2)6-7(9-6)5(3)8/h3-4,6-7H,1-2H3/t3-,4+,6+,7-/m0/s1
