16
gdb 20433	4.7126	2.10771	1.50709	2.9722	70.43	-0.2287	0.0323	0.2611	818.9618	0.135427	-342.821092	-342.815027	-342.814083	-342.851268	23.614	
C	 0.1367025668	 1.4518877342	-0.3267791167	-0.215717
C	 1.4757587412	 1.9354360747	 0.2866232457	-0.166957
N	 2.0985498308	 0.671658151	 0.634512381	 0.060976
N	 3.3522279202	 0.4049970365	 1.0265796721	-0.300725
C	 3.3149139703	-0.9049343484	 1.2936772255	 0.009888
C	 2.0337422648	-1.4670059981	 1.0823609391	-0.388726
C	 1.2697210136	-0.3979982572	 0.6547472498	 0.411501
C	-0.112328692	 0.0281094167	 0.2630007936	-0.354145
H	-0.6827463067	 2.1423119606	-0.1187161798	 0.113149
H	 0.2427540936	 1.3808945977	-1.4126809919	 0.123029
H	 2.0962322182	 2.4978135103	-0.4149576514	 0.131779
H	 1.3297590042	 2.5499086905	 1.1833392669	 0.122918
H	 4.2144388697	-1.4051578553	 1.6230625713	 0.106684
H	 1.7284658887	-2.4917788706	 1.2162631932	 0.099789
H	-0.7738503922	 0.0691457976	 1.137241347	 0.123168
H	-0.5851600812	-0.6383346403	-0.4631928853	 0.123388
139.3605	198.2036	245.658	438.8482	582.7063	650.2115	663.3721	720.2601	744.4123	784.888	860.3011	883.2638	900.2044	919.7092	958.1633	1006.7449	1055.1541	1092.7709	1109.3685	1185.9931	1205.1892	1224.4206	1233.595	1295.4456	1323.6843	1332.7217	1345.7413	1362.2034	1439.0514	1481.2618	1500.6614	1501.8221	1532.6941	1580.8512	3030.2469	3032.0377	3066.5585	3087.7765	3099.5432	3122.4096	3238.1179	3270.0128	139.3604	198.2034	245.6578	438.8482	582.7063	650.2114	663.372	720.2601	744.4123	784.8879	860.3011	883.2634	900.2044	919.7092	958.1632	1006.7449	1055.154	1092.771	1109.3685	1185.9933	1205.1891	1224.4207	1233.595	1295.4456	1323.6842	1332.7217	1345.7412	1362.2033	1439.0512	1481.2618	1500.6615	1501.8221	1532.6942	1580.8512	3030.2469	3032.0377	3066.5585	3087.7765	3099.5432	3122.4096	3238.1178	3270.0127
C1CN2N=CC=C2C1	C1Cn2nccc2C1	
InChI=1S/C6H8N2/c1-2-6-3-4-7-8(6)5-1/h3-4H,1-2,5H2	InChI=1S/C6H8N2/c1-2-6-3-4-7-8(6)5-1/h3-4H,1-2,5H2
