23
gdb 65559	3.1855	0.95739	0.89689	1.9944	85.07	-0.2415	0.076	0.3175	1432.4213	0.205219	-388.257386	-388.24779	-388.246846	-388.292855	35.792	
C	 0.1072196352	 1.6147147442	-0.0037023302	-0.457825
C	-0.0215308865	 0.0915216966	 0.0205701731	 0.310328
C	-1.4775185328	-0.3864161766	 0.0874086396	-0.294396
C	-2.3652835246	 0.066060341	-1.0553813129	 0.029043
C	-2.434220716	-0.7145821138	-2.3473412519	-0.257217
C	-3.6102579725	-0.7099436662	-1.4022554453	-0.277042
C	 0.901360873	-0.6111063685	-1.0121131344	-0.106338
O	 1.8206235342	-1.0243313287	 0.018313772	-0.274801
C	 0.9289348385	-0.5696523005	 1.0542416477	-0.116995
H	 1.1602753101	 1.9130697424	 0.0187131049	 0.122918
H	-0.3385618814	 2.0429489515	-0.9070772079	 0.119368
H	-0.3889544593	 2.0659133489	 0.8635693097	 0.112601
H	-1.487676064	-1.4836427193	 0.1312181344	 0.091349
H	-1.910664646	-0.0413342982	 1.0377660941	 0.096617
H	-2.4552859757	 1.1436760774	-1.1591307956	 0.085365
H	-2.5182655689	-0.1682553074	-3.280361974	 0.111084
H	-1.8551757052	-1.628962766	-2.4223688229	 0.112988
H	-3.8122745381	-1.6182590532	-0.8435542738	 0.110686
H	-4.4998046223	-0.1590553741	-1.6870302311	 0.110889
H	 0.4519400621	-1.4717649278	-1.5246663705	 0.09143
H	 1.3811158051	 0.0347640212	-1.7577054968	 0.09625
H	 1.4270892921	 0.1048379307	 1.7619642103	 0.095024
H	 0.4869540432	-1.4079065836	 1.6116719317	 0.088673
43.9084	56.6343	92.0466	163.019	241.5987	283.4889	313.3724	348.9252	364.7208	409.3096	451.6619	684.3995	774.9376	804.5922	833.1312	848.2838	890.5687	907.7104	925.4988	939.0116	951.6781	992.5654	1012.7204	1027.2901	1037.0855	1053.9423	1077.9449	1099.5639	1141.7456	1160.1265	1162.4811	1173.727	1198.8732	1225.4205	1237.7864	1279.0447	1308.7367	1318.2412	1341.8991	1380.5618	1413.1392	1421.2058	1468.4682	1479.594	1494.6311	1500.6818	1506.4611	1513.7469	1536.0431	2990.2417	2998.3758	3008.9169	3026.9385	3037.2918	3043.5831	3051.5762	3093.7501	3102.2098	3128.6547	3133.4211	3146.1223	3206.1668	3221.465
CC1(CC2CC2)COC1	CC1(CC2CC2)COC1	
InChI=1S/C8H14O/c1-8(5-9-6-8)4-7-2-3-7/h7H,2-6H2,1H3	InChI=1S/C8H14O/c1-8(5-9-6-8)4-7-2-3-7/h7H,2-6H2,1H3
