13
gdb 133293	2.5583	1.67789	1.01972	0.6735	66.74	-0.2612	-0.0893	0.1719	1068.7978	0.087744	-493.998103	-493.990271	-493.989327	-494.031507	27.298	
C	 0.1063637782	 1.4225856674	 0.0991570903	-0.32968
N	 0.1517153239	-0.03142089	 0.0985158415	-0.293492
C	 0.4307211171	-0.6282896348	-0.9764051397	 0.311762
O	 0.6963698127	 0.0378553448	-2.1582333213	-0.289499
N	 1.0042667915	-0.6462741106	-3.3410447484	-0.06767
C	 1.0238243622	-1.9269733143	-3.2573531895	 0.103946
N	 0.7800747723	-2.7261082375	-2.1488265879	-0.310215
C	 0.5024343554	-2.088605293	-1.0849144579	 0.310342
F	 0.2566807626	-2.7509836477	 0.0144104937	-0.008039
H	 1.0716140125	 1.854614785	-0.1943350653	 0.139696
H	-0.6419542096	 1.8012855514	-0.6087339705	 0.139701
H	-0.1470081836	 1.7694103376	 1.1020952115	 0.132806
H	 1.2638511049	-2.4402485184	-4.1819822666	 0.160342
47.6375	106.6513	187.6408	200.8295	231.1156	337.2067	524.5382	527.9147	551.9914	586.7515	596.3561	737.859	776.462	913.431	944.9206	952.3584	1039.7668	1101.0929	1115.8584	1165.5064	1212.6978	1350.5564	1410.0215	1433.6067	1484.4239	1495.8316	1617.8629	1702.8112	1745.8476	3013.1443	3066.5509	3127.515	3208.5514
CN=C1ON=CN=C1F	CN=c1oncnc1F	
InChI=1S/C4H4FN3O/c1-6-4-3(5)7-2-8-9-4/h2H,1H3	InChI=1S/C4H4FN3O/c1-6-4-3(5)7-2-8-9-4/h2H,1H3
