15
gdb 73665	2.52334	1.7104	1.42541	3.3106	60.47	-0.2713	-0.0131	0.2581	940.7577	0.112907	-494.919259	-494.91176	-494.910816	-494.951295	28.037	
O	 0.2484920871	 1.3088334259	-0.3226276199	-0.464879
C	 0.1178895879	-0.0491172687	-0.0610126081	 0.181596
C	 0.8190737987	-0.8754820144	-1.1538099506	-0.124496
O	 0.1509140284	-2.1223426268	-1.2077398365	-0.247381
C	-1.229693774	-1.8764104871	-0.961132564	-0.110784
C	-1.2512631011	-0.7888730277	 0.0933100894	 0.049933
O	-0.816786254	-1.2840261499	 1.4069574752	-0.255093
C	 0.3476399252	-0.562143157	 1.3727112196	 0.393575
O	 1.149935922	-0.4144890361	 2.2368838161	-0.326088
H	 0.1402334874	 1.8047644968	 0.4959847141	 0.302688
H	 0.7242412203	-0.309728409	-2.0946095748	 0.113469
H	 1.8759483298	-1.0599925272	-0.9518057375	 0.138862
H	-1.7419683656	-1.5149987984	-1.867896504	 0.105432
H	-1.6905619987	-2.8122777921	-0.6375334668	 0.135446
H	-2.1632305135	-0.1991545384	 0.1788798678	 0.107719
108.4861	167.9788	216.0796	253.0184	301.748	329.059	378.077	526.4247	600.2555	669.1709	733.6594	765.1917	805.9593	860.7396	922.0163	943.2545	992.4886	1044.4634	1063.6788	1104.2007	1123.2577	1142.7077	1200.3785	1214.0977	1270.4964	1286.3674	1330.9093	1355.4698	1378.7389	1403.3694	1488.1526	1506.2028	1934.8447	2978.971	2986.3731	3111.2415	3116.1291	3130.9889	3815.5793
OC12COCC1OC2=O	O[C@]12COC[C@H]1OC2=O	
InChI=1S/C5H6O4/c6-4-5(7)2-8-1-3(5)9-4/h3,7H,1-2H2	InChI=1S/C5H6O4/c6-4-5(7)2-8-1-3(5)9-4/h3,7H,1-2H2/t3-,5-/m1/s1
