21
gdb 38838	2.55192	1.91805	1.64498	1.6168	79.74	-0.242	0.0762	0.3182	945.5473	0.187148	-387.096412	-387.089583	-387.088638	-387.127249	29.188	
C	-0.0168592379	 1.5003651409	-0.265075856	-0.295164
C	 1.3022124869	 0.793099186	-0.0632889535	-0.01764
C	 2.1323377372	 0.885732934	 1.2189264245	-0.237272
C	 1.494766119	 0.1946958622	 2.4494966513	-0.030813
C	 0.2716762084	 0.940805834	 3.0018704337	-0.078552
O	-0.8467155136	 0.4961883036	 2.2255396645	-0.271497
C	-0.4103752359	-0.5382260281	 1.3314561417	 0.094086
C	 0.8238562883	-1.1275073509	 2.027786408	-0.233613
C	 0.0027609111	 0.0133864497	-0.0374435977	-0.032284
H	-0.4201951534	 2.1044477659	 0.5387892547	 0.127722
H	-0.2407168613	 1.8648944299	-1.2617683389	 0.102325
H	 1.9028039168	 0.6897843686	-0.962069458	 0.079158
H	 3.0941985675	 0.3948148259	 1.0283477985	 0.096725
H	 2.3670233593	 1.9304922412	 1.4603077065	 0.097036
H	 2.2546791695	 0.0628762792	 3.2242879236	 0.067035
H	 0.0969760328	 0.6918393168	 4.0578803347	 0.093454
H	 0.3638230772	 2.0308333858	 2.9198333867	 0.095176
H	-1.2420769519	-1.2400057653	 1.2264905177	 0.072638
H	 1.4386229258	-1.7374205671	 1.3611004451	 0.09832
H	 0.5404148785	-1.7251176748	 2.8998055577	 0.097136
H	-0.2188639943	-0.6399036175	-0.8761436646	 0.076024
136.4823	241.3171	318.2593	374.5102	398.6231	446.9661	532.8118	589.279	716.9112	742.0762	779.7903	817.0896	837.3884	859.6706	891.9496	908.2857	920.7224	973.9271	981.4978	993.2523	1015.3495	1043.7044	1049.9862	1064.1655	1104.0328	1123.3594	1132.5509	1140.1188	1170.6224	1191.8171	1218.1009	1238.9742	1262.2148	1307.4392	1325.5645	1330.1718	1350.6114	1362.8803	1383.5635	1395.3846	1408.3839	1479.9009	1490.8016	1492.6139	1527.5489	3000.8403	3017.0333	3042.8039	3051.2838	3051.96	3070.0154	3077.0543	3108.8164	3137.3896	3139.8921	3152.061	3228.5857
C1C2CC3COC(C3)C12	C1[C@H]2C[C@H]3CO[C@H](C3)[C@@H]12	
InChI=1S/C8H12O/c1-5-2-8(9-4-5)7-3-6(1)7/h5-8H,1-4H2	InChI=1S/C8H12O/c1-5-2-8(9-4-5)7-3-6(1)7/h5-8H,1-4H2/t5-,6-,7+,8-/m1/s1
