21
gdb 109215	3.24098	1.09176	0.98127	1.7728	84.66	-0.2317	0.0111	0.2428	1336.8288	0.1815	-387.096903	-387.087756	-387.086812	-387.130766	34.751	
C	 0.1276212743	 1.5235112355	-0.183592326	-0.374713
C	-0.0534924941	 0.0140005002	 0.0574675391	-0.297455
C	 0.6577808208	-0.4809062316	 1.2814678405	 0.353989
C	 0.1195966538	-1.0039044239	 2.3898895798	-0.196458
C	 1.1534969913	-1.3836492478	 3.4274519793	-0.325541
C	 2.4823307041	-1.0541817102	 2.7408037503	 0.41979
C	 3.7068909834	-0.7254953134	 3.5496106088	-0.483796
O	 2.6967159979	-1.8297773447	 1.5529142921	-0.300317
C	 2.1524223187	-0.4926773245	 1.4178336633	-0.141331
H	 1.1829867979	 1.7871637354	-0.3088699623	 0.118805
H	-0.4011732228	 1.838288718	-1.0884094147	 0.115202
H	-0.2626201918	 2.1026980845	 0.659027666	 0.120188
H	-1.1214139114	-0.2151999593	 0.1445335436	 0.102638
H	 0.3129283134	-0.532234758	-0.8225098776	 0.111035
H	-0.9410024024	-1.1825454754	 2.5350651949	 0.090934
H	 1.0334885591	-0.8099085514	 4.3563282792	 0.105656
H	 1.1013901048	-2.4447036695	 3.7013497502	 0.12023
H	 4.01159576	-1.5848263852	 4.1577448855	 0.126467
H	 4.5408363365	-0.4633879631	 2.8937603925	 0.128563
H	 3.5145090797	 0.11270654	 4.2276829632	 0.119893
H	 2.7922538669	 0.2055914345	 0.8843587425	 0.08622
69.6656	110.5544	181.568	193.4692	226.82	276.3183	291.2379	368.3777	403.766	431.9057	550.2872	633.0638	646.5775	758.4495	792.8043	820.2885	846.364	883.5051	910.7941	952.6536	966.7117	981.6102	1007.3741	1051.2039	1073.8521	1089.8552	1102.0785	1190.9227	1193.5204	1223.7966	1256.7824	1280.8242	1319.9919	1355.2299	1360.0056	1407.3953	1408.5027	1441.2948	1464.3792	1481.2695	1484.7748	1496.1023	1498.5307	1506.6754	1699.5209	3013.8411	3017.9989	3033.0908	3036.1808	3055.2376	3061.9224	3093.9582	3105.49	3110.4179	3121.92	3146.4081	3182.316
CCC1=CCC2(C)OC12	CCC1=CC[C@@]2(C)O[C@@H]12	
InChI=1S/C8H12O/c1-3-6-4-5-8(2)7(6)9-8/h4,7H,3,5H2,1-2H3	InChI=1S/C8H12O/c1-3-6-4-5-8(2)7(6)9-8/h4,7H,3,5H2,1-2H3/t7-,8+/m0/s1
