15
gdb 7264	4.50617	1.21932	1.02761	4.8792	60.28	-0.2663	-0.0438	0.2226	1105.603	0.116853	-436.984796	-436.976096	-436.975152	-437.018762	30.069	
C	-0.0661872443	 1.596705048	 0.042939188	-0.396107
C	 0.0442531692	 0.063473853	 0.0659141069	 0.037733
O	 0.8384754247	-0.3554052381	 1.1392733771	-0.432104
C	-1.3367572549	-0.6019156895	 0.1907587988	 0.40834
O	-1.6320495938	-1.2302348583	 1.1795280543	-0.325208
N	-2.1779245511	-0.4173125913	-0.902714459	-0.347978
C	-3.4875160654	-0.877090472	-1.0660492062	 0.166914
O	-4.123905896	-1.5042923854	-0.2691815677	-0.241849
H	 0.9405030826	 2.0208366002	 0.0303363386	 0.144167
H	-0.6033454047	 1.9646390452	-0.8379407009	 0.102166
H	-0.5788479275	 1.9524735937	 0.9411424872	 0.138689
H	 0.4967234762	-0.2767142077	-0.8811312075	 0.090898
H	 0.2484674961	-0.8742894691	 1.7109592139	 0.298356
H	-1.798250167	 0.1030994489	-1.6807420908	 0.262781
H	-3.8729304341	-0.5746082077	-2.0606443529	 0.093201
55.8306	67.1267	163.5045	199.5344	226.3909	255.6722	337.1001	380.4641	422.7384	467.1936	589.6688	619.8532	698.8964	770.3165	910.0048	948.4669	1026.775	1039.281	1084.2459	1100.1675	1173.6395	1197.7281	1282.7227	1362.2567	1404.7254	1434.6814	1446.4012	1483.8883	1495.1752	1521.5512	1799.1932	1871.844	2931.7615	2961.6294	3038.5377	3111.751	3132.5909	3607.7355	3671.3532
CC(O)C(=O)NC=O	C[C@@H](O)C(=O)NC=O	
InChI=1S/C4H7NO3/c1-3(7)4(8)5-2-6/h2-3,7H,1H3,(H,5,6,8)	InChI=1S/C4H7NO3/c1-3(7)4(8)5-2-6/h2-3,7H,1H3,(H,5,6,8)/t3-/m1/s1
