14
gdb 19389	3.18697	2.30913	1.60688	2.975	62.56	-0.2428	-0.0291	0.2136	792.9135	0.10632	-382.492216	-382.485556	-382.484612	-382.523055	25.17	
O	 0.0386157731	 0.0231265023	-0.0911653891	-0.311113
C	-0.0017177973	 1.2139874246	 0.0018191839	 0.367703
C	-1.112739525	 2.277709023	-0.0515852249	-0.112197
O	-0.8918499423	 3.1133052318	 1.1062400288	-0.232452
C	-0.0693109608	 3.3335852719	-0.0380395279	-0.09369
C	 1.0549685585	 2.3142849888	 0.0410367096	 0.236076
C	 2.3683276813	 2.3462256353	 0.7659955652	-0.311015
C	 2.3479625064	 2.2471589661	-0.7337750164	-0.323808
H	-2.1077988518	 2.2549791898	-0.478705196	 0.124847
H	-0.0906556379	 4.3064898011	-0.5131045818	 0.124237
H	 2.6688146106	 3.2852545662	 1.2181164979	 0.128348
H	 2.6339385024	 1.4606586076	 1.3335491947	 0.137846
H	 2.5897297455	 1.2941348079	-1.1923598697	 0.139459
H	 2.6308754974	 3.1195810737	-1.3132984142	 0.125761
131.347	185.2773	208.879	248.2726	421.1287	512.1169	632.6199	676.733	756.2134	785.7304	824.0887	846.7874	870.3575	929.9327	943.8561	966.7597	993.5021	1003.5377	1055.1481	1067.5167	1084.0884	1192.467	1199.3218	1215.5583	1229.0951	1332.2576	1393.8007	1459.4509	1495.0087	1895.5941	3131.9016	3134.5449	3195.1328	3208.0059	3214.5646	3228.6541
O=C1C2OC2C11CC1	O=C1[C@H]2O[C@H]2C21CC2	
InChI=1S/C6H6O2/c7-4-3-5(8-3)6(4)1-2-6/h3,5H,1-2H2	InChI=1S/C6H6O2/c7-4-3-5(8-3)6(4)1-2-6/h3,5H,1-2H2/t3-,5-/m1/s1
