18
gdb 17919	3.22495	2.17991	2.07798	1.4095	66.1	-0.2414	0.0868	0.3283	780.4041	0.1562	-384.941512	-384.934859	-384.933915	-384.971961	26.56	
C	-0.0953368037	 1.5377884712	 0.0323879631	-0.432632
C	 0.0505911171	 0.0206509649	 0.0086184403	 0.012491
C	 1.0816019578	-0.5983390427	-0.9592472084	 0.069032
C	 2.4019941653	-0.0799013026	-0.3748995094	-0.090263
O	 2.1439213543	-0.0822031892	 1.0466106385	-0.284182
C	 0.8133303774	-0.6045480891	 1.1946077713	 0.067695
C	 0.841898177	-2.0782739854	 0.7748300987	-0.088152
O	 1.002410856	-1.9991406215	-0.6598137526	-0.28519
H	 0.8354472003	 2.0271633994	 0.3287517879	 0.137805
H	-0.3913907024	 1.9231476749	-0.9491125672	 0.116091
H	-0.8681115227	 1.8366230638	 0.7480201744	 0.119146
H	-0.9192826216	-0.461878325	-0.1442601157	 0.082298
H	 0.9403123244	-0.4557456325	-2.0304432018	 0.08111
H	 3.2284875039	-0.7581879077	-0.6111476817	 0.110197
H	 2.6614579929	 0.9340465325	-0.7040856409	 0.098147
H	 0.4663277017	-0.3995396235	 2.207287438	 0.080684
H	 1.6912264989	-2.6063793557	 1.2214391528	 0.107928
H	-0.0850215967	-2.6146617118	 1.0160943026	 0.097794
175.5961	228.7629	252.5647	273.4127	398.3867	428.9607	543.6485	643.2884	745.6065	773.431	856.5235	859.2088	905.5595	932.2327	943.7941	965.9363	1007.0524	1027.8344	1056.0624	1071.1886	1081.7384	1111.8134	1139.5687	1187.6952	1199.474	1233.5033	1260.5789	1285.2312	1307.2002	1318.0673	1363.1069	1376.0882	1397.1638	1413.3748	1494.6945	1502.7866	1513.3074	1520.3554	3015.4325	3022.9901	3038.7283	3067.5476	3071.7281	3074.6771	3097.2618	3125.0137	3126.0212	3129.8516
CC1C2COC1CO2	C[C@H]1[C@H]2CO[C@@H]1CO2	
InChI=1S/C6H10O2/c1-4-5-2-7-6(4)3-8-5/h4-6H,2-3H2,1H3	InChI=1S/C6H10O2/c1-4-5-2-7-6(4)3-8-5/h4-6H,2-3H2,1H3/t5-,6-/m1/s1
