20
gdb 60614	2.74025	1.12498	0.90781	3.3645	75.78	-0.2406	0.0301	0.2707	1336.1153	0.169107	-440.311232	-440.301135	-440.300191	-440.346778	36.744	
C	 0.3585192811	 1.2461734444	 0.1243038826	-0.391886
C	-0.3705736243	-0.0995841161	 0.0992259583	-0.136482
C	 0.1023028118	-0.9886916287	 1.2364361583	 0.055793
O	-0.3075745819	-2.3677025433	 1.2326855849	-0.27751
C	 1.0935057332	-2.0730819072	 1.1059868929	 0.07438
C	 1.7807749716	-2.4790244703	-0.1710455674	-0.423492
C	-1.9005535114	 0.1023019236	 0.1599823976	 0.388091
N	-2.6150030758	-1.0590659563	 0.1199762607	-0.521465
O	-2.4169767142	 1.2021850703	 0.1945570675	-0.362482
H	 1.4357111773	 1.1046870015	-0.0053781315	 0.105764
H	-0.0137871806	 1.8947178704	-0.6702035559	 0.138771
H	 0.1868877759	 1.7659625562	 1.0710727038	 0.130463
H	-0.1677423873	-0.6109820867	-0.8483539127	 0.097428
H	 0.0138016027	-0.5202064869	 2.2193046236	 0.100718
H	 1.6553782869	-2.3175692508	 2.0097036099	 0.095759
H	 1.1985735909	-2.2156820428	-1.0560147616	 0.132453
H	 2.7620835604	-1.9976921502	-0.2413018436	 0.129775
H	 1.939144385	-3.5623102214	-0.1817439024	 0.134503
H	-2.1535300129	-1.939468926	 0.292477223	 0.27418
H	-3.6102771685	-0.9929113094	 0.2613177018	 0.25524
50.0665	58.3991	148.418	176.5324	188.9477	213.1498	277.5158	306.0148	370.128	405.3165	437.9638	472.4693	540.5399	586.9352	619.9266	719.877	776.306	810.8367	844.7382	922.5807	975.0771	993.5144	1063.4698	1089.9187	1102.2703	1140.9524	1145.339	1178.9632	1199.5196	1267.238	1295.81	1306.5464	1364.6547	1398.3986	1410.0064	1420.2376	1463.5048	1485.8706	1489.2039	1493.7135	1508.2461	1622.041	1799.4601	3041.791	3048.2938	3049.054	3081.7379	3094.2446	3103.394	3117.3305	3138.0896	3140.9144	3567.6761	3706.0402
CC(C1OC1C)C(N)=O	C[C@@H]([C@H]1O[C@H]1C)C(=O)N	
InChI=1S/C6H11NO2/c1-3(6(7)8)5-4(2)9-5/h3-5H,1-2H3,(H2,7,8)	InChI=1S/C6H11NO2/c1-3(6(7)8)5-4(2)9-5/h3-5H,1-2H3,(H2,7,8)/t3-,4-,5+/m0/s1
