19
gdb 13631	3.97732	1.20949	1.04248	1.2952	68.34	-0.2326	0.0581	0.2907	1160.6992	0.164181	-402.153125	-402.144056	-402.143111	-402.186853	33.128	
C	-0.7849422971	 1.2415295186	 0.3950951652	-0.311588
N	-0.2089040623	-0.094194311	 0.2976948017	-0.084622
C	 1.0308738833	-0.2507963151	-0.4461556448	-0.255262
C	 1.0106228476	-0.4114229125	 1.0387414561	-0.017174
C	 1.7124346983	 0.5727733319	 1.9438763373	 0.080748
O	 0.9839928552	 0.7864167569	 3.1640615723	-0.446619
C	 3.136856379	 0.1257313605	 2.2922276346	-0.063206
O	 3.7230597722	 1.0067223419	 3.2236671434	-0.424335
H	-0.0543841977	 2.0610886243	 0.3164994108	 0.103589
H	-1.5121764542	 1.3629632923	-0.4135254387	 0.122639
H	-1.305287788	 1.3410613421	 1.351319578	 0.133972
H	 1.1015943272	-1.1184015446	-1.0968909899	 0.118138
H	 1.5080288565	 0.64882289	-0.8361743132	 0.109363
H	 1.007276968	-1.4289966371	 1.4369645101	 0.084341
H	 1.76915492	 1.5630114136	 1.4829595492	 0.096845
H	 0.7206977623	-0.0775370765	 3.5034018424	 0.284177
H	 3.1042894284	-0.9097806232	 2.6792790025	 0.072363
H	 3.7645917457	 0.119895906	 1.3948295579	 0.111304
H	 3.0197014957	 1.2111334018	 3.854477205	 0.285327
68.0162	121.6852	128.4511	200.8886	242.5946	262.389	319.8903	359.204	399.5895	419.8616	520.105	528.089	584.819	757.4053	856.887	884.1206	920.4856	1031.104	1057.472	1067.833	1079.4831	1103.1149	1121.0309	1127.5632	1156.3834	1176.8632	1204.1221	1212.4683	1256.0416	1299.1244	1338.7443	1383.8734	1405.4784	1434.2661	1445.4096	1452.0567	1485.9284	1503.6921	1505.8175	1512.8811	2932.0619	2983.4455	3065.8118	3070.377	3074.1011	3081.8238	3087.8175	3118.1948	3172.4175	3758.5291	3787.5274
CN1CC1C(O)CO	CN1C[C@H]1[C@@H](O)CO	
InChI=1S/C5H11NO2/c1-6-2-4(6)5(8)3-7/h4-5,7-8H,2-3H2,1H3	InChI=1S/C5H11NO2/c1-6-2-4(6)5(8)3-7/h4-5,7-8H,2-3H2,1H3/t4-,5-,6?/m0/s1
