19
gdb 96761	2.81764	1.42725	1.08643	3.8028	79.62	-0.217	0.0172	0.2342	1162.4834	0.158856	-419.157492	-419.14856	-419.147616	-419.191379	32.189	
C	-0.3436823098	 1.3429307519	-0.168147572	-0.334214
N	-0.0956540352	-0.0895067774	-0.1376040216	-0.336135
C	 0.7032140837	-0.6219812221	-0.9532109891	 0.412392
C	 1.1060532416	-2.0781222795	-1.1629373097	-0.014738
O	 0.2379070723	-2.7543524034	-2.10293018	-0.283138
C	 1.0671636601	-2.3779449927	-3.2247742542	-0.095429
C	 2.0122741747	-1.5649652925	-2.3142608346	-0.051239
N	 1.5708325029	-0.2095477514	-1.9867468531	-0.099263
C	 1.5311815412	 0.9070177581	-2.9054519377	-0.347167
H	 0.5820011475	 1.9333357808	-0.1019890889	 0.111558
H	-0.8785507077	 1.6570960255	-1.0756373987	 0.114897
H	-0.9688915071	 1.6143091501	 0.6869286311	 0.12184
H	 1.3939031962	-2.69642376	-0.3132400826	 0.09813
H	 1.5359184772	-3.2579479739	-3.6828539339	 0.107882
H	 0.5171433157	-1.8183347557	-3.9905343637	 0.106173
H	 3.0907150664	-1.7023390324	-2.4034525852	 0.091192
H	 0.8711047484	 0.7241388133	-3.7664534731	 0.121929
H	 1.179511326	 1.8009988874	-2.3904201948	 0.145791
H	 2.5391029859	 1.1074617342	-3.2859123782	 0.129536
83.8838	116.1575	140.1711	172.7122	199.8563	224.4338	275.8572	326.5808	445.7773	469.5036	672.1777	699.939	752.06	832.0833	854.2701	898.2497	963.7584	1003.0976	1029.9717	1036.9403	1068.4822	1096.8031	1106.2317	1143.6597	1153.7439	1172.2516	1186.7376	1203.6048	1279.9155	1285.4406	1289.6708	1347.5459	1362.6412	1433.7249	1455.7704	1484.4862	1494.5336	1507.35	1510.9566	1513.8517	1808.3838	2983.097	2993.9043	3016.1507	3035.3766	3063.3686	3065.004	3091.3663	3100.4743	3126.9626	3150.6264
CN=C1C2OCC2N1C	CN=C1[C@H]2OC[C@H]2N1C	
InChI=1S/C6H10N2O/c1-7-6-5-4(3-9-5)8(6)2/h4-5H,3H2,1-2H3	InChI=1S/C6H10N2O/c1-7-6-5-4(3-9-5)8(6)2/h4-5H,3H2,1-2H3/t4-,5+/m1/s1
