16
gdb 27710	2.93446	1.27233	0.8903	2.7935	87.44	-0.1615	0.0213	0.1828	1249.2468	0.124517	-396.931435	-396.922155	-396.921211	-396.964784	35.07	
N	 0.1342812297	 1.390703225	 0.112166277	-0.613526
C	-0.0061007198	 0.0010154459	 0.0300790737	 0.324542
C	-1.1351172493	-0.7977861304	 0.0481462682	-0.274684
C	-0.6934778062	-2.149678215	 0.0546217309	 0.18356
N	-1.5042684238	-3.2823742386	 0.1219833164	-0.622926
C	 0.696826749	-2.1462999393	 0.0238696184	 0.120209
N	 1.0935897573	-0.7977743101	 0.0000590398	-0.379678
C	 1.5955196069	-3.2164463802	-0.0149199779	 0.21339
C	 2.3566003368	-4.1561227065	-0.0506854988	-0.455997
H	 0.7080990285	 1.7769674663	-0.6298420218	 0.247293
H	-0.7650365758	 1.8534376291	 0.1048681859	 0.251507
H	-2.1574758561	-0.4516466196	 0.0420628719	 0.08094
H	-2.3572944796	-3.2031700551	-0.4150230712	 0.241345
H	-1.0086407751	-4.1290057863	-0.1272974678	 0.247556
H	 2.0310244941	-0.4861223753	 0.1853750905	 0.260051
H	 3.0253188635	-4.9796178198	-0.0667167451	 0.176418
124.0258	130.6149	190.1945	218.4994	263.6325	290.5304	299.3431	317.6187	390.5138	409.8515	483.9801	537.495	584.7359	630.6928	655.1111	667.1569	693.1971	715.5782	753.1909	785.2216	824.0358	1034.5737	1069.6536	1123.7635	1204.3363	1222.1345	1245.9223	1357.2231	1481.6514	1519.3947	1564.4643	1623.3242	1652.8671	1660.9923	2198.0279	3243.2646	3505.3732	3515.6668	3536.404	3620.8787	3631.225	3680.3462
NC1=CC(N)=C(N1)C#C	Nc1cc(N)c([nH]1)C#C	
InChI=1S/C6H7N3/c1-2-5-4(7)3-6(8)9-5/h1,3,9H,7-8H2	InChI=1S/C6H7N3/c1-2-5-4(7)3-6(8)9-5/h1,3,9H,7-8H2
