20
gdb 50076	3.19127	1.01283	0.82904	2.8548	82.51	-0.2387	-0.0286	0.21	1405.467	0.170275	-403.111997	-403.103224	-403.102279	-403.146241	32.58	
O	-0.0672646142	 0.0390841644	-0.7895397496	-0.267643
C	-0.0302874126	 1.1127043603	-0.2393024297	 0.159536
C	 1.2291999499	 1.859286579	 0.0087834143	-0.089179
C	 1.2031330324	 3.3597520205	-0.1216783645	-0.257533
N	 1.4080082864	 2.7539542198	 1.1690206534	-0.081015
C	 0.3620725661	 2.881729562	 2.1737829506	 0.076355
C	 0.2749028995	 1.7595558973	 3.2370356583	-0.234987
C	 0.0644751587	 2.8594334248	 4.3145873255	-0.214534
C	 0.6542354956	 3.8918662183	 3.3149547052	-0.235149
H	-0.9613871302	 1.6143134949	 0.10467242	 0.074201
H	 2.123063977	 1.3164852324	-0.2868180393	 0.113983
H	 2.0558617039	 3.8574582366	-0.5752371871	 0.131979
H	 0.2369072127	 3.8225745657	-0.3262446801	 0.119195
H	-0.6278919675	 3.0858382633	 1.7397726088	 0.065288
H	-0.4973276344	 0.9967633868	 3.1127161757	 0.10215
H	 1.2464977172	 1.2701424186	 3.3462566713	 0.1163
H	-0.9955040517	 3.0391186723	 4.5134203164	 0.105366
H	 0.579182393	 2.7324606247	 5.2685682498	 0.104929
H	 1.7338620387	 4.00723615	 3.4417422868	 0.114048
H	 0.1915703395	 4.8794330883	 3.2533567144	 0.09671
53.6312	105.6498	125.016	162.8898	227.3623	302.1125	361.181	405.4669	441.0504	565.1322	603.974	732.3556	788.4471	837.6664	867.2433	904.6362	925.4699	932.9879	957.0101	974.0185	1022.2854	1055.8046	1080.7568	1090.8467	1113.483	1126.0005	1172.9538	1184.0971	1201.9981	1245.0367	1252.5533	1261.9091	1277.9152	1300.3363	1309.9612	1338.718	1376.4614	1442.8253	1474.193	1486.2724	1502.6216	1508.6847	1811.5925	2885.0034	2983.2925	3060.7227	3062.9729	3067.9839	3083.0594	3108.7643	3117.5942	3129.886	3152.4099	3179.7885
O=CC1CN1C1CCC1	O=C[C@H]1CN1C1CCC1	
InChI=1S/C7H11NO/c9-5-7-4-8(7)6-2-1-3-6/h5-7H,1-4H2	InChI=1S/C7H11NO/c9-5-7-4-8(7)6-2-1-3-6/h5-7H,1-4H2/t7-,8?/m1/s1
