21
gdb 96379	2.35618	1.67338	1.13797	1.8763	78.54	-0.2466	0.0731	0.3197	1123.4252	0.183961	-424.21877	-424.210403	-424.209458	-424.251237	33.4	
O	-0.0111132601	 1.422695749	-0.0761540639	-0.442036
C	-0.0081917349	 0.0048108964	 0.0017720586	 0.03932
C	 0.705246459	-0.5147987639	 1.2582789073	-0.236503
C	 0.5392344258	-2.0344879807	 1.3752081112	-0.076821
O	-0.824555788	-2.4133446778	 1.3786377747	-0.239056
C	-1.4871574173	-2.0025530994	 0.1926377725	-0.165924
C	-1.4419956542	-0.4983329035	 0.0062966997	 0.369365
C	-2.5211931198	 0.3404967045	 0.6403497824	-0.296076
C	-2.4837787212	 0.1546510833	-0.8594894513	-0.334256
H	 0.9018836358	 1.7238486009	-0.0422583579	 0.283007
H	 0.4968970056	-0.4166180437	-0.8867572278	 0.061928
H	 1.7735037963	-0.2617790723	 1.2279124443	 0.080592
H	 0.266829911	-0.0271369878	 2.1356558472	 0.115435
H	 1.0687348808	-2.5337325596	 0.5437745444	 0.082999
H	 0.9662515514	-2.4051422891	 2.3112606001	 0.10847
H	-1.030979441	-2.5040994824	-0.6802757457	 0.082483
H	-2.5202563378	-2.3517806491	 0.2779184682	 0.103767
H	-3.2928084257	-0.1695905815	 1.2073828284	 0.107124
H	-2.2373620891	 1.3127546237	 1.0240276086	 0.127723
H	-2.1750198484	 1.0028411593	-1.4590608906	 0.124742
H	-3.2344495282	-0.4797420562	-1.3209458405	 0.103717
112.8534	181.1927	242.3325	258.6041	270.1741	304.0027	367.8015	390.479	433.7664	489.2857	535.5004	632.5914	709.2749	793.3088	855.2234	877.4077	896.9628	942.7115	952.285	976.1438	1003.3836	1036.1019	1050.2586	1061.2176	1086.6704	1111.2769	1127.9425	1144.1539	1193.4153	1214.0338	1227.1299	1248.1905	1305.9737	1310.4536	1340.788	1367.7856	1371.2856	1396.2464	1418.7237	1445.8894	1460.2353	1479.9156	1488.6056	1499.8113	1506.0337	2925.9992	2940.3247	2949.4599	3020.6776	3079.6043	3082.1178	3088.6607	3129.2318	3138.4201	3217.7948	3233.1917	3826.6301
OC1CCOCC11CC1	O[C@H]1CCOCC21CC2	
InChI=1S/C7H12O2/c8-6-1-4-9-5-7(6)2-3-7/h6,8H,1-5H2	InChI=1S/C7H12O2/c8-6-1-4-9-5-7(6)2-3-7/h6,8H,1-5H2/t6-/m0/s1
