17
gdb 77186	3.07985	1.19717	0.98593	1.0659	69.88	-0.2549	0.0061	0.2611	1206.3959	0.135988	-455.102696	-455.094092	-455.093148	-455.136614	31.161	
O	 0.3335310855	 1.0992775964	 0.3712579579	-0.426197
C	 0.1357630294	-0.2303652473	-0.0265038805	-0.02353
C	-1.3497248757	-0.646376149	-0.1549439227	 0.080395
O	-1.121680049	-0.9825906781	-1.5735211042	-0.274148
C	 0.174524853	-0.5102044347	-1.51803471	 0.405655
N	 1.0337581792	-0.3309073518	-2.4108217238	-0.549954
C	-1.8557001322	-1.815171041	 0.6400782935	-0.017428
C	-2.7827527304	-2.7983830012	 0.032477254	-0.240518
N	-1.3930338039	-3.1787615354	 0.3536335578	-0.320943
H	 1.1574290535	 1.4018938701	-0.0278782892	 0.304029
H	 0.7320498283	-0.940304911	 0.5629891936	 0.112328
H	-2.0150820411	 0.2190145557	-0.0808221391	 0.115266
H	 0.6867731174	-0.5822917821	-3.3379525032	 0.234654
H	-1.9502167804	-1.5911125953	 1.701525482	 0.108455
H	-3.5444709685	-3.2735748252	 0.6431824542	 0.124097
H	-3.0450599695	-2.6609681033	-1.0124480289	 0.129111
H	-0.8539374156	-3.1723081869	-0.5103289614	 0.238728
78.3871	83.7668	134.8657	170.4179	235.392	274.9151	334.3492	384.4018	480.1942	609.6012	684.9079	721.9798	805.6583	851.6957	872.4719	900.3706	923.2555	942.6384	992.4355	1021.2736	1044.3395	1063.5721	1126.969	1138.2376	1153.4363	1188.8008	1196.1393	1219.2764	1266.0938	1288.6518	1307.4605	1340.8483	1364.5708	1406.027	1429.7129	1507.8524	1831.4043	3015.6165	3075.0571	3117.3503	3125.1141	3206.9242	3478.3502	3491.6504	3805.4952
OC1C(OC1=N)C1CN1	O[C@H]1[C@@H](O[C]1[NH])[C@H]1CN1	
InChI=1S/C5H8N2O2/c6-5-3(8)4(9-5)2-1-7-2/h2-4,6-8H,1H2	InChI=1S/C5H8N2O2/c6-5-3(8)4(9-5)2-1-7-2/h2-4,6-8H,1H2/t2-,3+,4+/m1/s1
