18
gdb 50868	3.67334	0.87204	0.72766	6.1526	74.96	-0.2445	-0.028	0.2165	1517.657	0.146741	-439.121369	-439.112112	-439.111168	-439.156787	32.683	
O	-0.4015290615	 0.6455641729	-0.2344638438	-0.251752
C	 0.5409347561	 0.9033765999	-0.9296126363	 0.16576
N	 1.8488908099	 1.1330300275	-0.5136870414	-0.342862
C	 2.3597845013	 1.1054687527	 0.7935022541	 0.398952
O	 1.6962141681	 0.8486684032	 1.76377115	-0.30234
C	 3.8456965498	 1.4698504247	 0.8812150804	-0.322625
C	 4.7201922251	 1.0375730787	-0.2780678068	-0.007355
C	 4.9310463102	 1.9404600539	-1.4814931294	-0.269942
C	 6.0517149607	 1.7014195106	-0.5020436465	-0.278922
H	 0.4757230417	 0.994569749	-2.0341720117	 0.081055
H	 2.5172940981	 1.3329988958	-1.2446508169	 0.264826
H	 3.901271597	 2.5611070041	 0.9970619337	 0.129153
H	 4.1973594719	 1.041883936	 1.8241202657	 0.142384
H	 4.6875581542	-0.0278082405	-0.4912346148	 0.102627
H	 5.0038785453	 1.48864224	-2.4648775244	 0.123111
H	 4.4623210273	 2.9200387815	-1.4748798107	 0.121008
H	 6.3266763743	 2.5176024336	 0.157566211	 0.122928
H	 6.8852609703	 1.0846070665	-0.8174237623	 0.123994
47.2656	62.8125	99.3172	149.4571	206.2371	226.2386	301.5065	321.6287	446.1679	516.2209	619.9303	675.2605	751.1126	790.3982	818.3389	838.9346	905.6155	922.1943	950.2981	1014.4546	1030.0482	1058.1105	1086.9843	1124.5159	1138.6845	1152.036	1193.2956	1201.982	1226.7552	1266.1584	1311.5311	1410.8048	1447.3901	1459.022	1471.5999	1503.569	1510.4603	1810.4966	1873.5358	2912.3606	3025.5419	3096.2832	3125.797	3137.855	3143.0383	3207.8897	3226.2259	3596.4301
O=CNC(=O)CC1CC1	O=CNC(=O)CC1CC1	
InChI=1S/C6H9NO2/c8-4-7-6(9)3-5-1-2-5/h4-5H,1-3H2,(H,7,8,9)	InChI=1S/C6H9NO2/c8-4-7-6(9)3-5-1-2-5/h4-5H,1-3H2,(H,7,8,9)
