15
gdb 70231	4.20071	1.17664	1.02476	5.021	73.12	-0.2691	-0.0596	0.2094	1144.0874	0.11265	-416.814728	-416.807059	-416.806115	-416.846849	28.893	
C	-0.0412275252	 1.5378113551	 0.0148483542	-0.472793
C	 0.065227547	 0.0375364344	 0.0204292516	 0.309321
C	-0.8011385307	-0.8427628295	 0.9058450137	-0.350113
C	 0.683965572	-0.8498165429	 1.1021058802	 0.020905
O	 1.4002109895	-1.8615116779	 0.4053868586	-0.237467
C	 1.1518002702	-1.6103353856	-0.907906026	 0.295795
N	 0.4564467185	-0.5898069013	-1.2252972671	-0.32445
C	 1.7222402156	-2.5382253053	-1.8386180662	 0.276558
N	 2.1844944028	-3.2878143599	-2.5863062189	-0.314455
H	 0.8935376662	 1.9952125794	-0.3222573326	 0.135446
H	-0.8401103654	 1.8586906131	-0.6605215747	 0.142882
H	-0.2692051335	 1.9136941472	 1.0161869191	 0.121621
H	-1.3730092645	-0.3313061489	 1.6724124799	 0.13215
H	-1.2812670004	-1.7123885132	 0.4699415134	 0.137335
H	 1.1765349678	-0.5412058446	 2.0145831949	 0.127264
118.6259	158.1571	181.7628	242.942	315.4113	362.5697	429.2934	526.0305	548.5545	559.9933	645.7397	717.4539	764.9716	799.4193	874.0024	940.5972	958.0553	966.3682	1004.1738	1043.0023	1104.0587	1111.6192	1129.2861	1231.2137	1262.1563	1323.7878	1383.7562	1422.3525	1467.9522	1480.2093	1497.1947	1662.7405	2371.0764	3042.6881	3113.6919	3119.3158	3133.844	3205.3912	3228.3914
CC12CC1OC(=N2)C#N	C[C@]12C[C@H]1OC(=N2)C#N	
InChI=1S/C6H6N2O/c1-6-2-4(6)9-5(3-7)8-6/h4H,2H2,1H3	InChI=1S/C6H6N2O/c1-6-2-4(6)9-5(3-7)8-6/h4H,2H2,1H3/t4-,6+/m1/s1
