21
gdb 57263	2.16873	1.41285	1.28415	1.112	83.82	-0.2632	0.035	0.2982	1157.5002	0.178696	-387.045577	-387.035239	-387.034295	-387.079967	39.772	
C	 0.2189792334	 1.4299072138	 0.2497434804	-0.403812
C	-0.0022999439	-0.0709112488	 0.0038689199	 0.098413
O	 0.5350124515	-0.7204962689	 1.1645421796	-0.451936
C	-1.440326887	-0.3722308112	-0.0942403275	 0.318659
C	-2.6079884951	-0.6539641786	-0.1543689937	-0.490183
C	 0.7214726188	-0.5427924706	-1.2810785041	 0.370524
C	 0.2180487529	 0.0695631997	-2.5761818322	-0.479491
C	 2.1956892026	-0.83731437	-1.1684413733	-0.309531
C	 1.2089609016	-1.9692271136	-1.3395537837	-0.313409
H	 1.2913898619	 1.6232380562	 0.3371287556	 0.126903
H	-0.1870519955	 2.031690389	-0.5650369453	 0.124828
H	-0.2701971272	 1.7226165998	 1.1808690849	 0.129142
H	 0.0920461029	-1.5699059398	 1.2566836057	 0.28755
H	-3.6416217225	-0.8930090256	-0.2075532675	 0.199251
H	 0.3784935391	 1.152370111	-2.6067263212	 0.117352
H	 0.7471445429	-0.3620146441	-3.4310422804	 0.113271
H	-0.8515875009	-0.1181225202	-2.7134602926	 0.128778
H	 2.8306199306	-0.5691761126	-2.0061805942	 0.104122
H	 2.6556161427	-0.7385935766	-0.1926067144	 0.12574
H	 1.0512098866	-2.6165927209	-0.4846766424	 0.096476
H	 1.1560993944	-2.4785291478	-2.2957352039	 0.107352
64.6832	140.4552	176.754	207.4785	221.484	258.115	277.3356	288.7119	339.7309	358.8264	405.6015	428.4519	473.6287	522.9849	584.8014	624.7396	652.4875	662.6352	789.3701	819.0097	883.5457	919.9528	926.4475	950.9683	957.9452	1037.8811	1066.2	1071.4571	1087.6505	1130.0478	1151.8705	1171.7747	1190.6438	1299.4397	1338.5033	1355.0285	1401.7507	1420.1542	1456.9274	1481.9158	1487.4532	1495.7034	1500.1878	1509.9988	2226.2539	3035.0104	3056.4462	3098.7545	3107.473	3134.2299	3134.9508	3137.5654	3146.1638	3214.3318	3230.8542	3499.3569	3826.4823
CC(O)(C#C)C1(C)CC1	C[C@@](O)(C#C)C1(C)CC1	
InChI=1S/C8H12O/c1-4-8(3,9)7(2)5-6-7/h1,9H,5-6H2,2-3H3	InChI=1S/C8H12O/c1-4-8(3,9)7(2)5-6-7/h1,9H,5-6H2,2-3H3/t8-/m1/s1
