18
gdb 113036	4.27585	0.86869	0.8177	5.1695	78.06	-0.2638	-0.0011	0.2627	1410.9967	0.148417	-401.968489	-401.95972	-401.958776	-402.002657	32.011	
O	 0.0986718099	 1.4394802183	 0.1366802112	-0.421239
C	 0.0904189547	 0.0263288798	 0.0179878784	-0.087592
C	-1.3677964138	-0.4282978761	 0.0090772935	-0.014703
C	-1.5216113654	-1.9616297685	-0.1489389476	-0.263891
C	-2.7009431867	-2.3711382982	 0.7901470542	-0.190167
C	-2.8186972014	-1.1758331474	 1.7260329223	-0.089004
C	-2.1040128281	-0.1405811681	 1.2963534303	-0.047041
C	-3.9543363229	-2.6124601806	 0.0641026962	 0.266525
N	-4.9418828938	-2.8004133455	-0.5070844011	-0.327335
H	 1.012062226	 1.7381962629	 0.1675889083	 0.290915
H	 0.5836735543	-0.3022120865	-0.9110320004	 0.091448
H	 0.6167277778	-0.4515813454	 0.8606515951	 0.08679
H	-1.8597310178	 0.1044562624	-0.8165486712	 0.105462
H	-1.6860145578	-2.273494419	-1.1813163012	 0.127617
H	-0.614708824	-2.4611475558	 0.2074454054	 0.110852
H	-2.4691968701	-3.2951184047	 1.3329751922	 0.126427
H	-3.4560084645	-1.2007779561	 2.6013415814	 0.114817
H	-2.0455898163	 0.8276795887	 1.778226133	 0.120118
44.4084	118.5676	142.2792	189.8498	230.0965	265.3374	322.3841	387.36	471.6336	532.5894	580.9126	683.6086	753.3081	795.6287	831.2199	859.3501	919.3632	972.6487	985.8541	1004.6116	1064.3526	1074.8617	1087.1097	1114.3741	1137.3814	1202.3348	1225.654	1242.6189	1269.4715	1298.761	1313.7874	1338.0475	1346.908	1384.813	1456.535	1488.1903	1522.2035	1687.5952	2351.2764	2960.5164	2989.7887	3017.1787	3036.8137	3058.2094	3123.3235	3203.1522	3227.3139	3833.8198
OCC1CC(C=C1)C#N	OC[C@H]1C[C@@H](C=C1)C#N	
InChI=1S/C7H9NO/c8-4-6-1-2-7(3-6)5-9/h1-2,6-7,9H,3,5H2	InChI=1S/C7H9NO/c8-4-6-1-2-7(3-6)5-9/h1-2,6-7,9H,3,5H2/t6-,7-/m1/s1
