15
gdb 50144	2.77246	1.3551	1.10484	2.0686	69.59	-0.2545	-0.0537	0.2008	1105.744	0.109541	-457.744629	-457.73639	-457.735446	-457.778188	29.589	
O	-0.3923108632	 0.2280897895	 0.1067773551	-0.225258
C	 0.0262598593	 1.3193671395	 0.3803621087	 0.138284
C	 1.3673521921	 1.8587324744	-0.0680116353	-0.087472
O	 2.1831966759	 0.9271564762	-0.7895990847	-0.302731
C	 2.1247584381	 1.6916093422	-1.9981751348	 0.341384
C	 3.2531986654	 1.7997486494	-2.9806868446	-0.328439
C	 1.9805393158	 1.087409076	-3.3662931302	-0.316092
C	 1.3102376527	 2.7598235027	-1.345745295	 0.255418
O	 0.8348271066	 3.8103204227	-1.6444071271	-0.281076
H	-0.5582096274	 2.0530242502	 0.9792109192	 0.093295
H	 1.889091555	 2.3295507249	 0.7762279277	 0.132362
H	 3.458022536	 2.7788007073	-3.4002429646	 0.142171
H	 4.1250921614	 1.1930985489	-2.7620695813	 0.144941
H	 1.9961356352	 0.0038414745	-3.3998005161	 0.150124
H	 1.2941250672	 1.5682188816	-4.0546715171	 0.143089
57.9946	103.5348	176.1748	195.401	215.6201	263.3929	398.8489	448.9541	573.2391	659.3283	697.8775	763.581	778.7141	826.7278	871.3451	884.2841	931.91	982.347	1000.8478	1022.2895	1060.6622	1071.4402	1092.6495	1160.3761	1194.2778	1226.2689	1305.208	1371.526	1412.0801	1444.5385	1479.4073	1833.5506	1919.1323	2887.2426	3030.3799	3136.8581	3139.649	3225.5544	3239.7328
O=CC1OC2(CC2)C1=O	O=C[C@H]1OC2(CC2)C1=O	
InChI=1S/C6H6O3/c7-3-4-5(8)6(9-4)1-2-6/h3-4H,1-2H2	InChI=1S/C6H6O3/c7-3-4-5(8)6(9-4)1-2-6/h3-4H,1-2H2/t4-/m1/s1
