14
gdb 132101	3.01522	1.47215	0.99529	1.6764	71.86	-0.2279	-0.069	0.159	1104.4304	0.099997	-477.995142	-477.987381	-477.986437	-478.027714	28.515	
C	 0.038989278	 1.5497217741	 0.2125260364	-0.476737
C	-0.0167106134	 0.0728719375	-0.0367198207	 0.06419
C	-1.1410037517	-0.6602133015	 0.0408506478	 0.328822
F	-2.3300627749	-0.1854441552	 0.3425350467	-0.032263
O	-1.2099350871	-1.9780887165	-0.178038372	-0.231021
C	-0.046785053	-2.6827396273	-0.5153331804	 0.362231
N	-0.0624798329	-3.9282264714	-0.7312601514	-0.516416
C	 1.150000799	-1.8467226318	-0.5881450154	-0.03849
N	 1.1668118614	-0.5806995388	-0.3688181637	-0.261207
H	 0.7250109635	 1.77374887	 1.0360588348	 0.14253
H	 0.4128270047	 2.073985342	-0.673150237	 0.14254
H	-0.9465315693	 1.9467010187	 0.4622833049	 0.134473
H	-0.998686074	-4.3197146241	-0.6281839142	 0.235227
H	 2.0707112297	-2.3612777557	-0.8475482457	 0.146121
90.6716	124.1899	197.768	277.9399	288.6372	341.5665	441.5807	476.4303	514.0716	571.7383	657.6557	709.4935	734.1149	786.6569	853.2403	919.3113	936.9563	979.4332	1067.6904	1076.8282	1182.4351	1224.4062	1285.4407	1361.5907	1384.645	1421.3701	1479.3367	1491.824	1606.9764	1707.5862	1748.323	3040.1019	3094.9115	3139.57	3179.7125	3499.3121
CC1=C(F)OC(=N)C=N1	CC1=C(F)OC(=C[N]1)[NH]	
InChI=1S/C5H5FN2O/c1-3-5(6)9-4(7)2-8-3/h2,7H,1H3	InChI=1S/C5H5FN2O/c1-3-5(6)9-4(7)2-8-3/h2,7H,1H3
