23
gdb 109017	3.33734	1.05982	0.91225	0.2753	92.41	-0.214	0.0279	0.2419	1409.5427	0.205859	-351.170384	-351.161124	-351.16018	-351.204222	36.086	
C	 0.134801355	 1.4913114289	-0.204312827	-0.373084
C	-0.111042444	 0.0093703092	 0.1298827431	-0.285321
C	 0.6387371497	-0.4684041462	 1.3388232024	 0.326164
C	 0.1167117498	-0.9742250494	 2.4628966139	-0.193502
C	 1.1621785634	-1.4349388965	 3.4183961334	-0.10545
C	 2.0474385332	-2.5594256892	 2.9058279284	-0.320668
C	 2.4944039412	-1.126923142	 2.7475237322	 0.357578
C	 3.6986868228	-0.6368305772	 3.5156274491	-0.481074
C	 2.1591474576	-0.4503307638	 1.413272525	-0.382516
H	 1.1911151691	 1.6845918116	-0.4163870247	 0.119051
H	-0.4408751454	 1.7922516811	-1.0850572809	 0.111196
H	-0.1608644802	 2.1340704595	 0.6309847858	 0.119053
H	-1.1834973193	-0.1582761755	 0.2816394925	 0.099554
H	 0.1748473353	-0.596928041	-0.741945952	 0.099678
H	-0.9457271059	-1.0902484619	 2.6517816318	 0.083031
H	 1.0180467033	-1.3293121534	 4.4889503232	 0.078461
H	 2.579011275	-3.1553071741	 3.6419688506	 0.102033
H	 1.7042374244	-3.1129547793	 2.037049472	 0.103791
H	 3.7756017816	-1.1274549898	 4.4913209516	 0.112105
H	 4.6293237021	-0.8398168867	 2.971441335	 0.114528
H	 3.6467486812	 0.4445939618	 3.6887969135	 0.1135
H	 2.6162733775	-0.9648077483	 0.5566702834	 0.101844
H	 2.547138433	 0.5782629222	 1.3899786076	 0.100049
69.4763	109.4568	196.9704	204.4949	224.738	274.9643	306.9165	378.3329	386.4856	477.2834	496.4945	557.5459	642.4517	742.67	783.9114	820.4518	854.7559	874.3432	880.5159	928.6253	951.9152	968.2914	990.1103	1023.6704	1041.8901	1063.7186	1072.0602	1081.2767	1097.2642	1114.6105	1188.4508	1196.2393	1247.8797	1262.6978	1288.5855	1318.6835	1348.2931	1358.3933	1395.1891	1406.5599	1420.4168	1472.0023	1478.3942	1486.1214	1492.2746	1498.2091	1501.7513	1507.5635	1700.8608	2998.5045	3002.3561	3018.2729	3027.8364	3036.4523	3056.1474	3074.8599	3094.8989	3106.6552	3108.3129	3114.1872	3155.2369	3181.1247	3202.641
CCC1=CC2CC2(C)C1	CCC1=C[C@H]2C[C@@]2(C)C1	
InChI=1S/C9H14/c1-3-7-4-8-6-9(8,2)5-7/h4,8H,3,5-6H2,1-2H3	InChI=1S/C9H14/c1-3-7-4-8-6-9(8,2)5-7/h4,8H,3,5-6H2,1-2H3/t8-,9+/m0/s1
