18
gdb 94494	4.20034	0.72535	0.64519	1.3891	97.43	-0.225	-0.0193	0.2056	1722.8906	0.145849	-364.732011	-364.722682	-364.721738	-364.766505	34.228	
C	 0.0221241391	 1.4561546264	-0.0451919322	-0.327873
N	-0.0632023386	 0.019259431	 0.085707005	-0.045782
C	-1.3250816512	-0.592162105	 0.543845249	-0.168098
C	-0.4992405714	-1.6437855313	 1.3191119791	-0.245164
C	 0.6790178733	-0.6297395061	 1.1929510539	-0.232014
C	 2.0147976632	-1.1050354601	 0.8890341808	 0.436844
C	 3.1341114033	-1.502015681	 0.6520390676	-0.197847
C	 4.3885699026	-1.9518217541	 0.379880573	 0.292227
C	 5.5036664006	-2.3494881933	 0.1408863337	-0.570048
H	 1.0496897311	 1.7420966906	-0.2917090415	 0.13185
H	-0.6254589043	 1.7907699265	-0.8622131282	 0.124381
H	-0.2769228946	 1.9954755004	 0.8740794059	 0.090108
H	-1.900453978	 0.0600308431	 1.2225599795	 0.085477
H	-1.9845995951	-0.9382531171	-0.2578054235	 0.108125
H	-0.8155425339	-1.8981410019	 2.32993902	 0.113678
H	-0.3161049579	-2.5503238972	 0.7421201552	 0.127404
H	 0.7200813084	 0.0111212927	 2.0929004761	 0.086327
H	 6.4829731234	-2.6999978036	-0.0714382133	 0.190405
67.093	81.4684	157.8797	198.4042	226.2059	243.5538	311.9059	339.9347	439.1968	483.038	519.0676	550.5512	584.315	606.4543	621.6545	749.3127	803.482	900.7418	944.0771	970.9884	989.3192	1072.6187	1131.1861	1160.0501	1187.9643	1199.8939	1227.8931	1234.8165	1249.5456	1278.3879	1326.8207	1373.5681	1449.0469	1485.3135	1486.2851	1497.1719	1525.0138	2180.0795	2357.52	2922.749	2926.7683	2961.7653	3061.4622	3069.0379	3097.4006	3104.5798	3159.284	3505.47
CN1CCC1C#CC#C	CN1CC[C@H]1C#CC#C	
InChI=1S/C8H9N/c1-3-4-5-8-6-7-9(8)2/h1,8H,6-7H2,2H3	InChI=1S/C8H9N/c1-3-4-5-8-6-7-9(8)2/h1,8H,6-7H2,2H3/t8-/m1/s1
