16
gdb 28469	3.15534	1.42226	0.98694	1.1709	78.2	-0.2044	-0.0234	0.181	1154.3079	0.125702	-434.143541	-434.135355	-434.134411	-434.176055	31.412	
C	-0.0510897468	 1.4861559364	 0.0208996777	-0.470554
C	 0.003184841	-0.0161252632	-0.0113598296	 0.305399
C	-0.0273021353	-0.7337858868	-1.1936953292	-0.107481
N	 0.013169421	-2.0835113242	-1.2063076423	-0.33537
C	 0.0945180304	-2.6862693578	-0.0516677425	 0.373156
O	 0.1306065963	-4.0419615565	 0.0083831588	-0.434164
C	 0.1355491133	-1.9724586906	 1.1776414544	 0.295697
N	 0.2745401092	-2.6506769149	 2.3648542939	-0.566888
N	 0.0791242622	-0.6523153279	 1.178163433	-0.373189
H	 0.8429187918	 1.8953370677	 0.5032108881	 0.135514
H	-0.1229051588	 1.9033834067	-0.9866651654	 0.119779
H	-0.9133667592	 1.8299447009	 0.6018564748	 0.133834
H	-0.0912360874	-0.2389939474	-2.1571485332	 0.102157
H	 0.0789125707	-4.3554698678	-0.9051066175	 0.299055
H	-0.0076324062	-3.6176996519	 2.3659272608	 0.266226
H	 0.0391718077	-2.1188239227	 3.1886940583	 0.256829
100.1266	133.6138	222.619	284.685	311.1962	381.8925	426.6273	441.9865	487.9394	504.4825	515.2141	549.8694	600.8216	641.9833	723.7606	800.4601	811.1576	885.1643	997.6683	1008.6071	1059.8313	1121.4792	1157.5306	1249.8316	1291.0315	1339.3209	1387.8774	1411.4805	1466.9346	1475.0343	1495.0386	1516.5698	1597.9618	1629.2468	1655.4275	3036.7394	3093.9403	3121.8856	3180.1518	3584.2247	3706.5432	3768.9989
CC1=CN=C(O)C(N)=N1	Cc1cnc(O)c(N)n1	
InChI=1S/C5H7N3O/c1-3-2-7-5(9)4(6)8-3/h2H,1H3,(H2,6,8)(H,7,9)	InChI=1S/C5H7N3O/c1-3-2-7-5(9)4(6)8-3/h2H,1H3,(H2,6,8)(H,7,9)
