17
gdb 56307	7.04074	0.52385	0.4921	3.4964	70.39	-0.2774	0.0319	0.3093	2075.2701	0.135094	-455.207911	-455.197878	-455.196933	-455.244842	34.028	
N	-0.1762699937	 1.2978608172	-0.0905406365	-0.563597
C	 0.0586505018	-0.0437796278	-0.0284596912	 0.495946
O	 1.1459292245	-0.5700879278	-0.0116163573	-0.393858
O	-1.1225754762	-0.7186789059	-0.0209914192	-0.262584
C	-0.9977406743	-2.1439327651	-0.0104443481	-0.057251
C	-2.4078410521	-2.715272871	-0.0013924195	-0.204612
C	-2.3788338545	-4.2557131615	 0.0092543824	-0.343283
C	-3.71930757	-4.8362226746	 0.0219703127	 0.259592
N	-4.7857121231	-5.280691315	 0.0323712	-0.299762
H	 0.6079353008	 1.8994018397	 0.0903215883	 0.27189
H	-1.1000573128	 1.6447713606	 0.100756899	 0.267069
H	-0.4351959925	-2.4695557412	-0.8926781612	 0.124667
H	-0.428713902	-2.4567495286	 0.8722664069	 0.123696
H	-2.9470414752	-2.3502391839	 0.8781914143	 0.13226
H	-2.9533525842	-2.3622526166	-0.8818974601	 0.133895
H	-1.845363756	-4.6348305572	-0.8706384122	 0.158183
H	-1.8343057405	-4.6225715713	 0.8876042616	 0.15775
26.2465	75.5877	81.4493	94.9868	173.7464	177.8544	296.5678	305.7429	340.6898	397.4181	491.3238	532.1848	554.0272	676.4831	753.7329	783.4696	859.414	907.9191	958.4056	1040.3394	1076.7476	1110.9385	1120.3964	1122.7532	1223.1041	1276.5948	1297.1521	1313.2402	1345.4113	1377.6527	1434.3515	1470.8186	1498.7753	1523.2317	1611.7488	1838.2791	2365.7641	3035.7196	3037.3464	3060.4959	3069.8975	3075.4903	3111.0853	3621.8387	3752.7904
NC(=O)OCCCC#N	NC(=O)OCCCC#N	
InChI=1S/C5H8N2O2/c6-3-1-2-4-9-5(7)8/h1-2,4H2,(H2,7,8)	InChI=1S/C5H8N2O2/c6-3-1-2-4-9-5(7)8/h1-2,4H2,(H2,7,8)
