17
gdb 15074	2.48501	1.78747	1.17425	2.6509	65.92	-0.2444	-0.0366	0.2078	1033.9033	0.14044	-400.960132	-400.951404	-400.95046	-400.994111	30.128	
C	-0.0475352585	 1.517733865	 0.2241675766	-0.244821
O	-0.3223523579	 0.1956067125	 0.6496764357	-0.248641
C	-1.4053198753	-0.4081875887	-0.0230052744	-0.002051
C	-0.9954307294	-0.87169717	-1.4197323646	 0.139282
O	-1.7635187346	-1.0336564333	-2.330617569	-0.239678
C	-1.8461039514	-1.6375186883	 0.7646920874	-0.009505
C	-0.8440205824	-2.4886507004	 1.4540803082	-0.235405
N	-1.7677635588	-1.6333482471	 2.2250729392	-0.326857
H	 0.7930645704	 1.8773539282	 0.8209806681	 0.138651
H	 0.2284823022	 1.5599367529	-0.8390941002	 0.120828
H	-0.9128738347	 2.1766677289	 0.3845059456	 0.121446
H	-2.2533862839	 0.2879103134	-0.117804738	 0.096463
H	 0.0933772573	-1.0932257383	-1.5062812562	 0.087867
H	-2.741324242	-2.0958470889	 0.3528391717	 0.11386
H	-1.0179457447	-3.5562591377	 1.5486584535	 0.121766
H	 0.1978510858	-2.1894210305	 1.3988321207	 0.126028
H	-1.2612426919	-0.7974642975	 2.5117131556	 0.24077
69.4972	89.6843	112.2456	180.2935	197.334	234.2204	314.5171	337.074	451.9922	519.9488	608.9947	782.096	860.6633	929.1022	943.5152	979.3191	1036.3679	1043.3632	1081.1222	1116.3529	1145.8206	1162.0285	1183.1968	1198.0649	1231.1522	1272.7448	1291.6476	1308.7687	1346.4514	1397.1501	1404.8354	1482.0098	1490.8236	1502.9653	1508.5399	1834.1179	2872.4844	2987.4249	2993.7929	3044.125	3120.4996	3128.0312	3148.4133	3210.6381	3492.6927
COC(C=O)C1CN1	CO[C@@H](C=O)[C@H]1CN1	
InChI=1S/C5H9NO2/c1-8-5(3-7)4-2-6-4/h3-6H,2H2,1H3	InChI=1S/C5H9NO2/c1-8-5(3-7)4-2-6-4/h3-6H,2H2,1H3/t4-,5+/m1/s1
