19
gdb 111765	2.48023	1.24032	0.97261	1.8762	71.54	-0.2387	0.0605	0.2992	1261.3993	0.157397	-460.088606	-460.079245	-460.078301	-460.123443	33.766	
C	-0.4632806189	 1.202970133	 0.0522403799	-0.255039
O	 0.393128215	 0.0750612598	 0.170300562	-0.272709
C	 0.8221872986	-0.423251086	-1.0340154447	 0.327104
C	 0.1338510016	-1.558362791	-1.7994371357	-0.156086
O	 1.4243451322	-2.116235591	-2.1730660033	-0.286604
C	 2.0999342484	-1.1446447637	-1.3639336581	-0.022269
C	 1.8769758962	 0.2536247957	-1.897063794	-0.13115
C	 1.769018266	 0.5678325667	-3.371801579	-0.095445
O	 3.043387804	 0.6306548038	-3.9964113563	-0.417243
H	 0.0311820975	 2.0249367302	-0.48236628	 0.117367
H	-1.3956999863	 0.9522709095	-0.4721080522	 0.1139
H	-0.7029425414	 1.5253912442	 1.0674234379	 0.133294
H	-0.3972677193	-2.237408875	-1.1231066616	 0.118709
H	-0.4908381614	-1.3238113043	-2.668007131	 0.107515
H	 2.9416307351	-1.4708449382	-0.7647924762	 0.116419
H	 2.4344406042	 0.9873971336	-1.3169282848	 0.104563
H	 1.1218511069	-0.1651166694	-3.8712178362	 0.101765
H	 1.3197887218	 1.5561494592	-3.5153989922	 0.108422
H	 3.4350616596	-0.2463833572	-3.9254747146	 0.287486
51.8312	84.0095	138.6481	172.3615	205.3551	236.7568	308.1621	344.9829	371.1337	408.1831	477.3945	616.6133	663.2103	772.2434	833.5307	909.0635	938.5002	972.5205	987.9627	1019.0231	1051.0911	1057.754	1076.2057	1102.9202	1114.5885	1155.8286	1179.2245	1197.7355	1209.4155	1234.9513	1278.8661	1288.1768	1337.544	1395.9958	1417.7461	1449.1794	1488.3273	1494.2254	1498.4241	1505.7856	1517.1949	2997.72	3016.4434	3032.1473	3054.7413	3073.0804	3085.9687	3128.6615	3136.8184	3189.3767	3811.7465
COC12COC1C2CO	CO[C@]12CO[C@H]1[C@H]2CO	
InChI=1S/C6H10O3/c1-8-6-3-9-5(6)4(6)2-7/h4-5,7H,2-3H2,1H3	InChI=1S/C6H10O3/c1-8-6-3-9-5(6)4(6)2-7/h4-5,7H,2-3H2,1H3/t4-,5+,6+/m1/s1
