20
gdb 22082	3.74414	0.96918	0.92739	1.3423	87.72	-0.2183	-0.0258	0.1925	1359.8664	0.169721	-403.135131	-403.125806	-403.124862	-403.170473	35.565	
C	-0.0262009955	 1.5375225198	 0.0073495839	-0.424454
C	 0.0011870601	-0.0032281163	-0.0132432498	 0.257639
C	-1.4408768236	-0.5465749404	 0.0006976396	-0.424527
C	 0.8152188702	-0.5517994439	-1.2305933668	-0.353383
C	 1.9682188921	-1.3335839071	-0.6227779637	 0.371005
C	 1.8542140381	-1.261774911	 0.8327403558	-0.165579
C	 0.7818789483	-0.5367058295	 1.1726315818	-0.086609
N	 2.8395002927	-1.9200633397	-1.3518527853	-0.237228
O	 3.8081333605	-2.5780361978	-0.5675372404	-0.398644
H	 0.9873980199	 1.9499342098	-0.0083118804	 0.119929
H	-0.5663011286	 1.9263799811	-0.8629249532	 0.115899
H	-0.5285525498	 1.9112904489	 0.9064111912	 0.111722
H	-1.9989269321	-0.184766303	-0.869917246	 0.11591
H	-1.4499772694	-1.6407570492	-0.0192774631	 0.119898
H	-1.9765038822	-0.2211760526	 0.8993589717	 0.111723
H	 0.202756742	-1.1967012542	-1.8675515485	 0.120335
H	 1.187314596	 0.2579016497	-1.8651077359	 0.120331
H	 2.5550927959	-1.7388231312	 1.502574172	 0.120855
H	 0.4673312088	-0.3273076064	 2.1908213696	 0.100951
H	 4.3802661466	-2.962430397	-1.2392767823	 0.304224
8.2671	199.2718	213.8251	238.8003	251.8	277.1075	309.3683	329.4918	370.6617	378.2939	445.4862	494.1646	634.9136	643.4631	711.3664	811.3302	831.921	866.9839	903.5592	914.2184	951.8232	966.2781	982.361	988.4312	1033.0438	1107.2817	1120.4558	1201.7683	1239.9389	1253.5189	1262.9706	1296.5433	1368.5919	1395.8649	1400.5708	1420.6518	1475.7125	1484.7682	1487.8828	1501.9217	1509.1248	1648.6521	1725.4655	3023.3229	3027.5641	3055.541	3088.7085	3094.1647	3096.0076	3103.0866	3104.835	3176.8922	3244.9829	3825.9837
CC1(C)CC(C=C1)=NO	CC1(C)CC(=NO)C=C1	
InChI=1S/C7H11NO/c1-7(2)4-3-6(5-7)8-9/h3-4,9H,5H2,1-2H3	InChI=1S/C7H11NO/c1-7(2)4-3-6(5-7)8-9/h3-4,9H,5H2,1-2H3
