21
gdb 10170	2.63415	1.3217	0.94849	0.733	78.73	-0.2384	0.0363	0.2747	1318.3892	0.186289	-366.278184	-366.267795	-366.26685	-366.314557	35.652	
C	 0.2216658487	 1.407019246	 0.0963803196	-0.390125
C	 0.0292924496	-0.0978389887	 0.0444712408	-0.02494
O	 0.7736325606	-0.6637019862	 1.1295352435	-0.260079
C	 0.7400344007	-2.0132115514	 1.2672120268	 0.40242
C	 1.6259155076	-2.4101434246	 2.4288467444	-0.266809
C	 3.1194786367	-2.3164941716	 2.0736652432	-0.373446
N	 0.0520001924	-2.7170087879	 0.4705979317	-0.299418
C	-0.0029932611	-4.1577944763	 0.5580576691	-0.325647
H	 1.2784033628	 1.670553204	-0.0069769105	 0.123434
H	-0.3332162941	 1.8828219585	-0.7178880362	 0.11702
H	-0.141041726	 1.8145972741	 1.044529545	 0.124468
H	-1.0246433992	-0.3792884613	 0.1433335719	 0.112194
H	 0.3846334375	-0.5246696294	-0.8998831487	 0.110202
H	 1.4054766784	-1.7296992328	 3.2575434088	 0.120508
H	 1.3798688356	-3.4194477671	 2.764348335	 0.111359
H	 3.377030351	-3.0089259669	 1.266128303	 0.1225
H	 3.3724696287	-1.3049567566	 1.7460015357	 0.133885
H	 3.7392411591	-2.5625781222	 2.9408379474	 0.115466
H	 0.3296721225	-4.5902796518	-0.3934056117	 0.123533
H	 0.59716778	-4.6134890466	 1.358014771	 0.1001
H	-1.0439350914	-4.4746135213	 0.69631868	 0.123375
37.9441	68.2194	90.8496	115.1623	162.4401	214.9574	239.5325	256.6999	292.2671	320.881	383.0698	460.5574	614.3186	696.6359	786.0881	797.3711	809.8834	903.1604	986.3872	1037.2835	1079.6484	1102.2962	1107.7128	1137.0282	1144.7518	1165.9639	1184.3304	1258.1553	1284.4801	1313.9765	1347.6752	1392.2879	1405.9637	1420.5103	1446.1667	1478.5754	1485.3654	1488.4993	1496.0307	1496.5808	1506.089	1514.2408	1521.6259	1757.873	2995.703	3041.3618	3042.1873	3043.1007	3054.9725	3060.6386	3064.8199	3075.4485	3103.8895	3112.678	3117.0416	3120.1607	3129.8179
CCOC(CC)=NC	CCOC(=NC)CC	
InChI=1S/C6H13NO/c1-4-6(7-3)8-5-2/h4-5H2,1-3H3	InChI=1S/C6H13NO/c1-4-6(7-3)8-5-2/h4-5H2,1-3H3
