25
gdb 101446	2.13351	1.28051	1.06541	1.1394	89.1	-0.2479	0.0771	0.3251	1340.332	0.22752	-389.478334	-389.467682	-389.466738	-389.513919	39.458	
C	 0.3355131149	 1.2440432586	-0.2635529225	-0.235264
O	 0.1374394547	-0.1131084156	 0.0551764044	-0.244769
C	-1.221968104	-0.5462139051	 0.0449069706	 0.128195
C	-1.7753513707	-0.6457715942	-1.3818197105	-0.407182
C	-1.2998002291	-1.8917656791	 0.7671105198	-0.022938
C	-0.1902745581	-2.9206435727	 0.3837748212	-0.220114
C	 0.5096281182	-2.6443436637	 1.7410093901	-0.217385
C	-0.7882021602	-1.9569870258	 2.2484265254	 0.045247
C	-0.6804636444	-0.6970330931	 3.0957204527	-0.421212
H	 1.394027027	 1.4615895319	-0.0985281073	 0.125166
H	 0.0950270801	 1.474732481	-1.3111834627	 0.107488
H	-0.2652852134	 1.9050653198	 0.3810098731	 0.102625
H	-1.8264573971	 0.1886084862	 0.6054466277	 0.061917
H	-1.2156857838	-1.386528134	-1.9612646648	 0.125583
H	-2.8270990004	-0.9474424371	-1.3601879457	 0.114878
H	-1.7190686529	 0.3119977986	-1.9064269745	 0.112698
H	-2.3249017491	-2.2559554548	 0.6426055491	 0.059237
H	-0.5819813491	-3.9384099152	 0.3065253352	 0.090128
H	 0.3898265767	-2.6993341492	-0.5140867449	 0.10209
H	 0.8708227368	-3.5071110587	 2.3074160242	 0.082153
H	 1.324381748	-1.925387709	 1.6287318619	 0.108679
H	-1.4011166269	-2.6927299837	 2.7827766937	 0.064103
H	-0.0618483823	 0.0576794826	 2.6033447039	 0.127509
H	-1.665227672	-0.2574762565	 3.2942919082	 0.104322
H	-0.225019143	-0.9253782213	 4.066260832	 0.106845
69.0304	89.1777	118.1915	158.8787	202.2878	206.8575	227.4685	241.9179	289.7203	342.9203	367.2368	415.2577	529.1291	561.8526	676.1168	752.2297	773.8932	867.8787	891.5453	907.5684	934.476	955.1333	974.1057	1020.4441	1040.041	1092.5398	1117.7991	1128.3475	1139.5874	1163.579	1181.6449	1183.7107	1216.0002	1232.7274	1259.9757	1268.3232	1279.3411	1293.7093	1342.7748	1369.37	1380.6771	1388.1336	1403.0592	1405.356	1472.2909	1477.7384	1483.6886	1491.154	1492.8455	1494.3084	1505.7339	1506.8553	1513.3134	2944.3746	2976.7896	3021.2978	3026.6999	3027.2581	3041.5716	3047.5168	3055.5722	3065.1286	3080.7783	3106.6182	3107.2311	3112.0738	3116.9685	3118.0116	3124.1033
COC(C)C1CCC1C	CO[C@@H](C)[C@H]1CC[C@H]1C	
InChI=1S/C8H16O/c1-6-4-5-8(6)7(2)9-3/h6-8H,4-5H2,1-3H3	InChI=1S/C8H16O/c1-6-4-5-8(6)7(2)9-3/h6-8H,4-5H2,1-3H3/t6-,7+,8+/m1/s1
