21
gdb 33125	2.9863	0.99071	0.79359	1.0295	85.11	-0.213	0.0283	0.2413	1500.8571	0.182181	-387.133831	-387.12421	-387.123266	-387.168983	35.066	
C	-0.0212989592	 1.5859434833	-0.0263580878	-0.378621
C	 0.0415620857	 0.0568655065	-0.0348311948	-0.155589
C	 0.6743782306	-0.5213566133	 1.245849785	-0.313833
C	 0.7571653447	-2.0194962688	 1.2586335387	 0.163938
C	-0.0618780542	-2.8798691526	 1.9205965473	-0.103911
O	 0.294433996	-4.1723221824	 1.6953966194	-0.148434
C	 1.372997918	-4.133876563	 0.8680013411	-0.095788
C	 1.711008821	-2.8540887398	 0.5596113293	 0.161632
C	 2.8470522201	-2.4062025285	-0.3071827889	-0.510339
H	 0.9798629472	 2.0241996625	 0.0548641467	 0.113214
H	-0.4797297111	 1.9713961867	-0.9423347558	 0.112085
H	-0.610814946	 1.9536885101	 0.821142832	 0.113724
H	-0.9664661471	-0.3598114817	-0.1484905466	 0.100646
H	 0.6100838654	-0.2845406076	-0.9084469309	 0.101016
H	 1.6787698822	-0.0937081232	 1.3689594746	 0.099743
H	 0.0932951086	-0.1822708356	 2.1122883934	 0.099937
H	-0.9065022009	-2.7330011517	 2.5745619877	 0.128778
H	 1.7894025381	-5.0898970096	 0.5939135567	 0.128973
H	 2.4969130799	-1.8968223073	-1.2125108069	 0.130571
H	 3.5032543031	-1.7039596254	 0.2202861539	 0.127943
H	 3.4584946078	-3.2561365084	-0.6232138643	 0.124314
58.6626	79.0373	115.1153	136.3229	228.9328	249.3228	255.8584	310.4345	380.2152	397.3434	621.2074	631.6375	672.1955	729.075	741.8989	758.4812	779.5331	867.869	894.5804	903.0828	1012.2021	1041.9542	1064.2454	1081.3163	1090.1504	1111.3337	1182.2688	1186.0111	1245.655	1269.1042	1298.9174	1319.6854	1324.2979	1381.8993	1398.9774	1412.9462	1421.0577	1478.89	1481.9096	1492.2062	1496.5385	1500.6536	1509.6631	1581.9906	1652.8461	3010.6529	3025.3409	3028.0201	3030.7088	3044.3159	3066.7781	3073.6903	3096.3605	3102.2948	3107.528	3264.8999	3270.2038
CCCC1=COC=C1C	CCCc1cocc1C	
InChI=1S/C8H12O/c1-3-4-8-6-9-5-7(8)2/h5-6H,3-4H2,1-2H3	InChI=1S/C8H12O/c1-3-4-8-6-9-5-7(8)2/h5-6H,3-4H2,1-2H3
