19
gdb 40101	3.15115	1.48974	1.25892	2.451	73.96	-0.24	0.0596	0.2995	1044.6131	0.160798	-422.998276	-422.990887	-422.989943	-423.030247	29.339	
C	-0.5741403756	 1.2988594592	 0.0525932691	-0.261638
O	 0.8236254368	 1.0027526672	-0.0734589075	-0.279406
C	-0.0826914546	-0.0793758386	 0.0298935463	 0.438967
C	-0.0441339746	-1.146591113	 1.1288479397	-0.343767
C	-0.3857689575	-2.2236844279	 0.0515784954	-0.044439
C	-1.8481212023	-2.6844745622	-0.0515082732	-0.231722
C	-2.5190317777	-1.5650769294	-0.869699189	-0.089102
O	-1.5154279586	-1.091741208	-1.765784712	-0.25056
C	-0.2860762614	-1.1346061506	-1.0728753451	 0.008685
H	-0.870963034	 1.74943625	 0.9992185602	 0.113226
H	-1.0469528015	 1.7124238374	-0.8366864002	 0.126426
H	 0.9531585889	-1.2661822693	 1.5597528856	 0.119804
H	-0.7661216382	-1.0298206583	 1.942515278	 0.102747
H	 0.3198574351	-3.0522152461	-0.0023499252	 0.080028
H	-1.9000283009	-3.6285139146	-0.6019769484	 0.110652
H	-2.3249062996	-2.8342106758	 0.9212928491	 0.103256
H	-3.3685507947	-1.9022210102	-1.4684961245	 0.111003
H	-2.8640785618	-0.7527383393	-0.2117616331	 0.094454
H	 0.5250646223	-1.1945321605	-1.801703755	 0.091388
75.1535	176.9121	257.2692	278.6944	334.7971	373.0247	484.0865	538.8485	644.822	709.0521	779.8344	827.3433	853.0609	864.06	890.6317	909.2063	929.0438	954.1059	976.5885	988.5724	1065.9588	1092.9764	1117.5738	1130.3044	1149.1726	1159.4273	1166.1105	1195.6333	1215.7372	1237.5127	1250.5064	1269.9719	1307.6965	1329.8173	1346.8789	1391.7954	1427.5914	1473.795	1486.8714	1523.8289	1530.3493	2987.8439	3054.0665	3055.0214	3081.3845	3092.6701	3096.6452	3103.6217	3106.3256	3118.0046	3171.8989
C1OC11CC2CCOC12	C1O[C@]21C[C@H]1CCO[C@@H]21	
InChI=1S/C7H10O2/c1-2-8-6-5(1)3-7(6)4-9-7/h5-6H,1-4H2	InChI=1S/C7H10O2/c1-2-8-6-5(1)3-7(6)4-9-7/h5-6H,1-4H2/t5-,6-,7+/m1/s1
