20
gdb 17817	4.33418	1.22809	1.06426	2.0429	74.99	-0.2409	0.0831	0.324	1159.8223	0.177228	-348.968893	-348.960533	-348.959589	-349.002451	30.566	
C	-0.021490629	 1.5405020972	-0.2801912211	-0.408462
C	-0.0000463327	 0.048155209	-0.0271998496	 0.004272
C	 1.2775199191	-0.7458627871	-0.1443157378	-0.309279
C	 0.6188025654	-0.5755212291	 1.2080928269	-0.010424
C	 1.2744964134	 0.2281350018	 2.2963992445	-0.029207
C	 0.4297716219	 0.6149241437	 3.5355664026	-0.086217
O	 1.3832208932	 0.0118391881	 4.432672128	-0.272686
C	 2.1428287013	-0.528332017	 3.3327405903	-0.086924
H	 0.906835196	 2.024817605	 0.036112022	 0.117133
H	-0.1462281355	 1.7477098744	-1.3487353196	 0.118919
H	-0.848288696	 2.0266891961	 0.2500138932	 0.117556
H	-0.8929112304	-0.4616373547	-0.3808316736	 0.084392
H	 1.2552732488	-1.7208614431	-0.618641162	 0.110361
H	 2.1923222598	-0.188174988	-0.3237496699	 0.108012
H	 0.0964530356	-1.4532491235	 1.584586079	 0.081017
H	 1.8048997795	 1.0879776098	 1.8815856783	 0.074766
H	 0.2970818435	 1.6852932363	 3.7328967146	 0.099263
H	-0.550883665	 0.120527267	 3.5853794924	 0.093678
H	 2.0631290465	-1.6232012903	 3.2761704516	 0.094527
H	 3.2025583647	-0.2528813257	 3.3890458302	 0.099303
62.4513	70.6728	138.7154	208.6792	215.9169	333.6541	351.8502	397.1702	521.2478	717.4709	773.3111	846.0326	858.6246	891.9947	902.8149	922.2585	973.7511	1013.5952	1032.2981	1038.814	1052.7586	1067.0806	1099.0719	1115.8808	1150.6067	1159.0567	1160.444	1198.4575	1212.5565	1258.7954	1261.9522	1303.8477	1306.6317	1377.7727	1398.0853	1422.031	1442.8839	1492.5214	1494.5718	1508.2878	1511.0272	1537.1604	2993.2856	3004.7924	3030.1245	3047.7013	3050.0708	3083.3063	3087.3897	3105.6663	3118.2037	3124.0988	3137.7564	3208.719
CC1CC1C1COC1	C[C@H]1C[C@H]1C1COC1	
InChI=1S/C7H12O/c1-5-2-7(5)6-3-8-4-6/h5-7H,2-4H2,1H3	InChI=1S/C7H12O/c1-5-2-7(5)6-3-8-4-6/h5-7H,2-4H2,1H3/t5-,7+/m0/s1
