18
gdb 16703	3.64586	1.83823	1.62357	0.7394	67.14	-0.2291	0.0702	0.2994	867.7888	0.154646	-384.913589	-384.906417	-384.905473	-384.944461	28.657	
C	-0.0933412645	 1.5118124047	-0.0206305099	-0.413344
C	 0.0840654592	 0.0054002095	 0.0777921382	 0.150436
O	 0.9473595242	-0.4953031363	-0.987336116	-0.300578
C	 1.9134003282	-1.263173763	-0.2568511054	 0.063619
C	 1.0788370298	-2.0235522733	 0.7998181177	-0.247587
C	 0.83407929	-0.5600819702	 1.2945617371	-0.093295
C	 2.3127730112	-0.2781846742	 0.8841702866	 0.129241
O	 3.21028073	-0.7559673057	 1.8599589958	-0.441106
H	 0.8431789135	 2.0515230695	 0.1414706309	 0.119951
H	-0.4687240074	 1.7769215978	-1.0134903771	 0.128399
H	-0.8237287754	 1.8541451515	 0.7204698295	 0.113669
H	-0.9003828622	-0.4731220132	-0.0215191529	 0.07457
H	 2.6195882436	-1.7283215517	-0.9448486447	 0.072222
H	 0.2200305007	-2.5940632063	 0.4387966528	 0.095023
H	 1.6870563501	-2.6017465081	 1.4921624748	 0.118432
H	 0.4565741181	-0.3216408055	 2.2881011867	 0.076415
H	 2.5674010106	 0.7373591007	 0.5587232298	 0.067364
H	 4.0933609004	-0.7512462963	 1.4771878961	 0.28657
191.781	199.0569	263.584	292.7469	317.6877	348.5477	473.8514	495.0052	550.4058	641.431	810.0127	840.4039	852.8231	885.4415	916.7556	928.2793	973.7621	1004.2446	1029.9348	1051.7006	1083.522	1111.7486	1119.5323	1138.8537	1160.301	1198.8942	1232.5061	1255.7265	1265.2798	1278.0779	1318.0555	1335.79	1397.8148	1411.9715	1421.815	1483.5649	1489.9419	1495.8336	2997.9148	3032.8803	3040.9954	3078.6183	3108.1219	3121.2222	3122.1119	3130.3161	3167.4861	3815.2924
CC1OC2CC1C2O	C[C@H]1O[C@@H]2C[C@H]1[C@H]2O	
InChI=1S/C6H10O2/c1-3-4-2-5(8-3)6(4)7/h3-7H,2H2,1H3	InChI=1S/C6H10O2/c1-3-4-2-5(8-3)6(4)7/h3-7H,2H2,1H3/t3-,4-,5-,6-/m1/s1
