16
gdb 125677	3.10538	1.26948	0.90621	1.7745	74.28	-0.2144	0.0073	0.2217	1220.9469	0.125857	-434.119352	-434.110942	-434.109998	-434.152844	30.465	
C	-0.020119993	 1.4768384282	-0.0073036536	-0.518268
C	-0.0081277807	-0.0182565154	 0.0115468294	 0.276456
N	-0.0256399836	-0.7255464207	-1.1167869062	-0.278518
N	-0.0073931309	-2.0093775323	-0.7199829319	-0.188716
C	 0.0212013469	-2.1640408716	 0.6276804698	-0.099908
C	 0.0215746058	-0.880309803	 1.1382004604	 0.213726
N	 0.0456941239	-0.4723417937	 2.477797383	-0.411597
C	 0.0739970682	-1.305275221	 3.5566856945	 0.137775
O	 0.0821020986	-2.5171729286	 3.5027827776	-0.315705
H	 0.8723704564	 1.8992397194	 0.4707419681	 0.125534
H	-0.046576619	 1.8281184452	-1.0405722559	 0.151975
H	-0.8961687528	 1.8854775721	 0.5113740832	 0.125403
H	-0.0159610192	-2.7344763137	-1.4160341849	 0.276631
H	 0.0386630327	-3.1190767053	 1.1198216822	 0.168946
H	 0.0417953126	 0.5197206702	 2.6560250425	 0.255298
H	 0.0889246241	-0.7383067296	 4.5069569317	 0.080966
63.8311	123.789	165.1324	204.5816	237.4813	271.0119	398.4015	432.5294	490.8842	542.9291	597.841	663.5793	700.6929	708.7566	804.0677	886.1169	951.1798	1000.8695	1009.632	1065.6877	1070.8641	1133.2927	1188.3724	1224.2718	1322.8933	1398.1358	1414.1126	1431.9632	1474.2686	1479.9432	1484.2055	1496.2723	1583.5216	1624.3406	1794.9816	2952.9327	3020.4165	3066.7825	3133.8343	3313.9413	3632.6839	3683.6915
CC1=NNC=C1NC=O	Cc1n[nH]cc1NC=O	
InChI=1S/C5H7N3O/c1-4-5(6-3-9)2-7-8-4/h2-3H,1H3,(H,6,9)(H,7,8)	InChI=1S/C5H7N3O/c1-4-5(6-3-9)2-7-8-4/h2-3H,1H3,(H,6,9)(H,7,8)
