18
gdb 128652	3.49519	1.18126	0.89782	3.4287	75.85	-0.2207	0.0186	0.2393	1304.0516	0.147558	-435.298754	-435.289217	-435.288273	-435.333863	32.721	
C	-0.0136483283	 1.3724659783	 0.1145684237	-0.231079
O	 0.0635384446	-0.0482067935	 0.0455671	-0.2489
C	 0.671463799	-0.6413256441	 1.0749305918	 0.438948
N	 1.1825301211	 0.0073019025	 2.1098222177	-0.370347
N	 1.6750542795	-1.026419255	 2.8618061734	-0.01181
C	 2.3348109157	-0.7463054866	 4.1151824601	-0.324877
C	 1.4328014255	-2.2026491347	 2.2427569903	 0.358612
C	 1.8273924336	-3.5421610181	 2.7695980286	-0.504268
N	 0.7940309303	-1.9922288516	 1.100268642	-0.382788
H	 0.985887036	 1.8181598179	 0.1527239477	 0.13183
H	-0.5326343393	 1.6884001829	-0.7911188728	 0.12964
H	-0.5711728469	 1.6923544367	 1.0011283486	 0.131855
H	 1.6508236105	-0.2340877423	 4.7979899215	 0.149719
H	 2.6568226717	-1.6847858267	 4.5680932337	 0.141386
H	 3.2082490751	-0.1088602855	 3.9502203444	 0.149717
H	 1.3616388868	-3.7537847579	 3.7380520343	 0.13931
H	 1.5005970058	-4.2996179414	 2.0568538136	 0.163747
H	 2.9120639994	-3.6288612108	 2.8944284114	 0.139305
59.5569	93.5424	98.7293	156.9035	187.6617	202.7175	234.9915	276.3024	384.2973	389.8951	551.0417	652.595	659.9058	675.6239	774.283	816.8102	1005.8788	1021.0653	1062.7768	1065.9628	1119.1332	1152.7757	1182.2159	1210.9069	1224.6057	1320.6467	1400.1954	1408.5865	1446.0881	1457.5193	1469.3206	1471.8756	1479.5141	1487.5787	1500.2374	1502.4672	1534.5605	1566.5049	1598.3175	3031.4089	3038.8597	3047.332	3092.1585	3096.9193	3108.8641	3146.1004	3150.6957	3154.3732
COC1=NN(C)C(C)=N1	COc1nn(C)c(C)n1	
InChI=1S/C5H9N3O/c1-4-6-5(9-3)7-8(4)2/h1-3H3	InChI=1S/C5H9N3O/c1-4-6-5(9-3)7-8(4)2/h1-3H3
