18
gdb 46118	3.14204	1.07837	0.89078	2.3486	77.53	-0.2177	-0.0206	0.1971	1303.6519	0.146399	-401.9211	-401.912356	-401.911412	-401.955191	32.629	
O	 0.2482735434	 0.1359296288	 0.034920579	-0.303295
C	 0.1003345015	 1.3288162193	 0.0245116312	 0.398627
C	-0.9851840288	 2.1318328194	 0.7517248721	-0.332822
C	-0.8541334847	 3.5321239266	 0.1245948857	-0.179356
N	 0.5571235672	 3.6803936896	-0.2939727823	-0.074834
C	 1.4028463409	 4.2056991602	 0.7880115208	-0.323024
C	 2.7780188756	 4.4358255701	 0.3550846961	 0.305104
C	 3.9172518335	 4.6103518275	 0.0157997805	-0.420246
C	 0.9603626306	 2.3464099007	-0.7474161787	-0.29531
H	-1.9638513805	 1.6610021457	 0.6358318576	 0.133772
H	-0.7506054183	 2.1367564126	 1.8229385508	 0.135649
H	-1.4878416621	 3.6060048852	-0.7673377526	 0.113442
H	-1.1379818914	 4.3449176733	 0.7964420278	 0.11039
H	 0.9663209373	 5.1583248774	 1.1110778018	 0.137704
H	 1.4247486841	 3.5559497202	 1.6848595054	 0.112496
H	 4.921780478	 4.7743707939	-0.2873376627	 0.201172
H	 2.0284762361	 2.1656319021	-0.6118916607	 0.147505
H	 0.7438679776	 2.2238158873	-1.8183550618	 0.133027
55.4352	84.1126	122.4138	179.079	336.5203	345.3926	364.6542	452.3405	466.0459	498.4457	584.9301	616.1241	656.0282	667.9933	743.8636	826.2021	847.5431	902.3583	948.4087	970.0177	1003.0447	1044.2474	1066.0838	1124.1637	1139.2042	1195.795	1210.474	1267.0742	1280.5611	1290.6924	1336.8814	1356.513	1395.8456	1450.5288	1461.3127	1485.0383	1501.9601	1854.1348	2242.38	2907.4072	3011.7971	3032.503	3044.8215	3048.4352	3105.2929	3115.0405	3117.293	3505.3928
O=C1CCN(CC#C)C1	O=C1CCN(CC#C)C1	
InChI=1S/C7H9NO/c1-2-4-8-5-3-7(9)6-8/h1H,3-6H2	InChI=1S/C7H9NO/c1-2-4-8-5-3-7(9)6-8/h1H,3-6H2
