15
gdb 80845	2.6756	1.74644	1.34941	2.2554	60.6	-0.2693	-0.0002	0.2691	937.5812	0.112619	-494.906684	-494.899213	-494.898269	-494.938289	29.153	
O	 0.1182342586	 1.4028093429	 0.0859936011	-0.43978
C	 0.0120913573	 0.0100592837	 0.0325037134	 0.080336
C	 0.003606261	-0.6499946802	 1.4334738664	 0.060211
C	-1.4649993575	-0.2043006803	 1.5992208137	-0.301485
C	-1.4697412109	-0.5557769382	 0.0699146371	 0.217752
O	-2.4504347133	-0.1979499607	-0.8224769032	-0.482098
C	-1.1187960343	-2.0261924788	 0.1527529023	 0.402025
O	-1.5752455543	-2.9505424229	-0.4559857867	-0.373981
O	-0.1176357495	-2.069137898	 1.0759049687	-0.235351
H	-0.3032650445	 1.7619713965	-0.7032554516	 0.30229
H	 0.6943132377	-0.4385023094	-0.7017470216	 0.092417
H	 0.7834325511	-0.5198297357	 2.1765006706	 0.115298
H	-2.0995117823	-0.7899848628	 2.2662557877	 0.121313
H	-1.5582402473	 0.8655632195	 1.7752780067	 0.139618
H	-2.7320367718	-1.0087486257	-1.2725099347	 0.301435
154.9351	178.6949	265.4872	302.8041	319.3156	360.0662	424.0012	459.196	499.7352	599.6707	626.4717	702.7797	738.355	837.0587	889.3437	930.453	940.5747	965.2713	986.15	1062.3935	1100.0201	1112.4784	1152.4254	1165.649	1219.0438	1237.6323	1305.4244	1318.1111	1372.459	1389.2137	1426.0428	1487.7448	1899.5164	3024.8375	3093.7285	3175.2757	3187.4185	3722.8512	3801.34
OC1C2CC1(O)C(=O)O2	O[C@H]1[C@H]2C[C@]1(O)C(=O)O2	
InChI=1S/C5H6O4/c6-3-2-1-5(3,8)4(7)9-2/h2-3,6,8H,1H2	InChI=1S/C5H6O4/c6-3-2-1-5(3,8)4(7)9-2/h2-3,6,8H,1H2/t2-,3+,5-/m1/s1
