17
gdb 14015	5.23688	1.29308	1.21092	3.7417	70.67	-0.2488	0.0026	0.2515	1027.3696	0.142064	-363.845469	-363.837863	-363.836919	-363.877736	27.946	
O	 0.4930298924	-0.0167281087	-0.62627277	-0.286947
C	 0.2561782889	 1.0501681315	-0.1141598486	 0.133027
N	 1.1763519182	 1.8288939882	 0.5635917824	-0.120039
C	 2.5528863886	 2.008827453	 0.1453721655	-0.303801
C	 1.5997800365	 3.1638470133	 0.2142040906	 0.358966
C	 1.1581693862	 4.0413845156	-0.9659479477	-0.295221
C	 1.639604063	 5.2714437566	-0.138311658	-0.208072
C	 1.6679358877	 4.3810465132	 1.1407403449	-0.295256
H	-0.758883144	 1.4907115128	-0.0755142636	 0.080706
H	 3.3033789479	 1.881267133	 0.9214299431	 0.12563
H	 2.8224561829	 1.6162127251	-0.8324528434	 0.135659
H	 1.6305849104	 3.8557543555	-1.9332107609	 0.114422
H	 0.0721976063	 4.0403826573	-1.0982989211	 0.1143
H	 2.6386590446	 5.5987141097	-0.4344661578	 0.113317
H	 0.9771834462	 6.1379006467	-0.1195698706	 0.108441
H	 0.7579908201	 4.483467626	 1.7391640781	 0.114949
H	 2.534987664	 4.4604786211	 1.8001419971	 0.109919
86.8787	96.8275	178.8069	221.3994	329.7425	373.	397.2519	496.9448	685.3364	711.8327	787.4792	831.5818	892.8553	900.9435	927.3769	952.2558	968.1613	1033.2704	1046.4604	1120.0572	1120.6045	1134.678	1167.9858	1196.1747	1212.6685	1249.7135	1265.3663	1275.8612	1281.2705	1415.6898	1433.1634	1470.4103	1482.3005	1503.4513	1516.3135	1798.2557	2946.9884	3056.9804	3061.8396	3076.3961	3103.4872	3108.7505	3113.9894	3135.2563	3192.8046
O=CN1CC11CCC1	O=CN1CC21CCC2	
InChI=1S/C6H9NO/c8-5-7-4-6(7)2-1-3-6/h5H,1-4H2	InChI=1S/C6H9NO/c8-5-7-4-6(7)2-1-3-6/h5H,1-4H2
