16
gdb 18152	3.66839	1.62024	1.3871	4.3555	65.01	-0.2312	-0.0163	0.2149	914.7092	0.13001	-383.708161	-383.700665	-383.69972	-383.740272	27.828	
O	 0.0014778353	 1.4184129962	 0.0689270336	-0.415254
C	-0.039488141	 0.0179775256	 0.0525450128	 0.109008
C	-0.4387447756	-0.8040101872	 1.2376052233	-0.114421
C	-1.5014120887	-0.0653080236	 2.0604622675	-0.263717
C	-2.4579690085	-0.0539807759	 0.8159679861	-0.065119
C	-3.044654578	 1.2616684507	 0.3571302494	 0.136639
O	-4.2288107893	 1.4416078983	 0.2059511223	-0.259094
C	-1.340628661	-0.7064427604	-0.0236970734	-0.118973
H	 0.7646169202	 1.6897224611	 0.5911110366	 0.288651
H	 0.7354497675	-0.4423569719	-0.5618799002	 0.095755
H	 0.1599652302	-1.6347370852	 1.5923902555	 0.091943
H	-1.9141501839	-0.6537608348	 2.880326099	 0.117117
H	-1.1989213534	 0.9138059566	 2.4433817075	 0.103045
H	-3.2860290932	-0.7505700972	 0.9630299533	 0.095447
H	-2.3059141562	 2.065920582	 0.1699827151	 0.100612
H	-1.5290265344	-1.4392091741	-0.7995564885	 0.098361
60.3185	150.3394	210.2377	283.6787	302.4266	332.4893	438.9907	488.1858	618.6912	735.4445	749.1507	806.03	850.8955	907.2921	963.9496	985.6766	1007.0166	1017.9872	1056.7677	1080.0197	1089.8385	1128.0052	1175.9167	1212.272	1244.0599	1265.2445	1286.1852	1298.5799	1305.884	1349.163	1423.0843	1457.5886	1487.5271	1816.1724	2948.615	3060.9593	3089.8651	3097.8328	3128.3135	3174.5871	3185.272	3797.3447
OC1C2CC(C=O)C12	O[C@H]1[C@H]2C[C@@H](C=O)[C@@H]12	
InChI=1S/C6H8O2/c7-2-3-1-4-5(3)6(4)8/h2-6,8H,1H2	InChI=1S/C6H8O2/c7-2-3-1-4-5(3)6(4)8/h2-6,8H,1H2/t3-,4-,5+,6-/m0/s1
