19
gdb 74004	2.71767	1.66493	1.10666	1.8465	83.58	-0.2251	0.0173	0.2424	1112.6695	0.160355	-385.901294	-385.893422	-385.892478	-385.933584	30.463	
C	-0.0539924816	 1.450581025	-0.0550505447	-0.496828
C	-0.0262098917	-0.0406102678	 0.0251611189	 0.151052
C	-1.0231306436	-0.9071614736	 0.1755912431	 0.179089
C	-2.5131454282	-0.913709907	-0.0264158886	-0.373206
C	-2.6586792416	-2.2107773832	-0.8207346776	-0.058186
C	-1.549197071	-2.9563683321	-0.8107767241	-0.11339
C	-0.4958914082	-2.3179290026	 0.0686933676	 0.061349
O	 0.8343497475	-2.1852248331	-0.4264040137	-0.283447
C	 1.2504841372	-0.8420547836	-0.17236522	-0.154286
H	 0.5204101983	 1.9054244081	 0.7622509505	 0.130806
H	 0.3971578454	 1.8068890191	-0.9898173626	 0.127661
H	-1.0750351741	 1.8369867682	 0.0033179832	 0.126537
H	-3.0814486537	-0.9681164935	 0.9140726074	 0.117058
H	-2.8835134097	-0.0336897294	-0.5646734707	 0.113898
H	-3.5898386151	-2.4813750122	-1.3072535775	 0.096815
H	-1.4313982315	-3.9263082307	-1.278983953	 0.101925
H	-0.4569793689	-2.8488272736	 1.0394054595	 0.073607
H	 1.8282609536	-0.4800467248	-1.0343672566	 0.105847
H	 1.9178731266	-0.8018246233	 0.7068977287	 0.093698
114.4081	160.2584	179.6366	221.1611	268.3844	340.6361	453.857	465.6308	574.5042	642.4298	670.253	695.0978	805.5426	847.8886	918.1874	924.9534	954.0771	973.5893	979.4824	992.3917	1021.6173	1077.2187	1086.0799	1096.6996	1129.5719	1158.6327	1185.3662	1203.0407	1256.6969	1281.8794	1307.3876	1338.9668	1367.726	1375.1198	1414.2656	1475.4611	1480.0018	1489.0044	1515.6377	1657.6297	1780.5403	2905.3832	2944.2572	2997.2964	3015.449	3018.9289	3054.3813	3062.3771	3110.6577	3183.9701	3213.8783
CC1=C2CC=CC2OC1	C[C]1[C]2CC=C[C@H]2OC1	
InChI=1S/C8H10O/c1-6-5-9-8-4-2-3-7(6)8/h2,4,8H,3,5H2,1H3	InChI=1S/C8H10O/c1-6-5-9-8-4-2-3-7(6)8/h2,4,8H,3,5H2,1H3/t8-/m1/s1
