17
gdb 97238	2.9856	1.44579	1.01231	4.2526	74.3	-0.2303	-0.0448	0.1855	1154.6981	0.136948	-455.17611	-455.167654	-455.16671	-455.209625	30.911	
C	 0.0830733556	 1.4058873894	 0.3594939431	-0.301608
N	-0.0312251829	-0.0193107163	 0.1203995905	-0.301974
C	-1.1305364849	-0.6169065257	-0.1023163065	 0.237218
N	-1.128701526	-1.9972486386	-0.2435811885	-0.333586
C	-2.2412422254	-2.6620788964	-0.887234986	-0.186469
C	-3.5045534106	-2.1515377812	-0.225712875	-0.060544
O	-3.598847472	-0.7235295131	-0.3344611663	-0.230755
C	-2.4957978888	 0.0561159519	-0.2172537947	 0.370251
O	-2.6244196909	 1.2498650881	-0.2375318232	-0.310775
H	 1.1066193592	 1.6135027201	 0.6848037141	 0.108934
H	-0.1137530661	 1.9845593778	-0.5504777791	 0.132306
H	-0.613948265	 1.7749205587	 1.1194807554	 0.130386
H	-0.200340929	-2.3751363331	-0.3716439135	 0.247401
H	-2.2887372416	-2.4820589224	-1.9737611281	 0.115766
H	-2.1571309543	-3.7415335462	-0.7302462152	 0.125567
H	-4.4030498462	-2.5413562724	-0.7084947375	 0.129944
H	-3.5165912811	-2.4303128404	 0.8342200206	 0.127937
52.8618	122.7233	157.9892	239.5785	257.6704	308.9353	398.8548	421.6637	445.2225	491.3282	562.7684	600.5623	676.358	719.299	813.535	919.5676	967.6202	1040.5201	1051.7207	1104.4912	1118.6712	1140.7253	1149.0597	1180.5814	1255.2529	1282.2967	1356.9017	1391.4471	1417.4311	1437.5709	1469.7278	1480.5965	1499.091	1505.6284	1506.4342	1725.2857	1831.4535	2971.0695	3020.4639	3045.5555	3079.2495	3085.8264	3095.7898	3117.6797	3596.1314
CN=C1NCCOC1=O	CN=C1NCCOC1=O	
InChI=1S/C5H8N2O2/c1-6-4-5(8)9-3-2-7-4/h2-3H2,1H3,(H,6,7)	InChI=1S/C5H8N2O2/c1-6-4-5(8)9-3-2-7-4/h2-3H2,1H3,(H,6,7)
