14
gdb 133096	3.69977	1.13182	0.87139	2.2634	67.05	-0.2599	-0.0534	0.2065	1212.2068	0.101148	-478.012929	-478.005261	-478.004317	-478.045834	27.687	
O	 0.0116522495	 1.412513655	 0.0066521861	-0.414685
C	-0.0060421967	 0.000193505	 0.0022192424	-0.15067
C	-1.4337894163	-0.4823273565	 0.0131012118	 0.279105
C	-2.5278650322	 0.3802991981	 0.0241274004	-0.051532
N	-3.7855493272	-0.078939444	 0.0334808607	-0.225469
C	-3.9507886429	-1.395893459	 0.0318133638	-0.131699
C	-2.8384047821	-2.2397081177	 0.0206266021	 0.295171
F	-3.0249457902	-3.5543102937	 0.0193061135	-0.065069
N	-1.6012408051	-1.8133240999	 0.0114137961	-0.344758
H	 0.9269837227	 1.7044727548	-0.0000536353	 0.298412
H	 0.4914943889	-0.4180351132	-0.8871063261	 0.119464
H	 0.5069442848	-0.4238752283	 0.8798976931	 0.119478
H	-2.3837388953	 1.4530750722	 0.0254228882	 0.14112
H	-4.9587469077	-1.7987407229	 0.0392802832	 0.131131
55.1232	180.7848	205.9136	208.7949	246.3518	366.1618	475.8341	482.7408	575.8849	609.7659	609.9438	733.3471	772.9775	900.7994	957.3076	989.1653	1027.4779	1039.7665	1117.182	1178.1682	1204.2678	1243.2953	1256.324	1281.7787	1339.4128	1440.3678	1453.6489	1493.5968	1504.74	1598.1738	1621.1608	2975.8713	3000.836	3181.442	3221.184	3849.0568
OCC1=CN=CC(F)=N1	OCc1cncc(F)n1	
InChI=1S/C5H5FN2O/c6-5-2-7-1-4(3-9)8-5/h1-2,9H,3H2	InChI=1S/C5H5FN2O/c6-5-2-7-1-4(3-9)8-5/h1-2,9H,3H2
