17
gdb 91446	2.5215	1.73141	1.3397	1.3736	68.05	-0.2511	-0.0221	0.229	987.5754	0.135133	-458.957627	-458.949543	-458.948598	-458.99004	31.043	
C	 0.0582770552	 1.4981983468	 0.0035378191	-0.507037
C	-0.0284869407	 0.0053897576	 0.0781665243	 0.229797
O	 0.5285219858	-0.749230253	-1.0759390044	-0.34392
C	-0.2616610469	-1.8940846632	-0.6047362519	-0.046818
C	 0.3976952835	-2.228289029	 0.7438846657	-0.284305
C	 0.6683815766	-0.762872974	 1.2334232781	 0.127341
O	 2.0370427954	-0.4393804453	 1.310494537	-0.436632
C	-1.2999281321	-0.8327266711	-0.1896816795	 0.41675
O	-2.4768489614	-0.6588844623	-0.2321616737	-0.312509
H	 1.0894806891	 1.8310120897	 0.1484881964	 0.140284
H	-0.3095845987	 1.8626088024	-0.958334263	 0.140652
H	-0.5559689281	 1.9366398306	 0.7963551366	 0.140807
H	-0.4263373583	-2.6664736333	-1.3528351209	 0.107927
H	-0.2563143434	-2.797980329	 1.4097908447	 0.121545
H	 1.3384242099	-2.7713142246	 0.6242038281	 0.120133
H	 0.2394563214	-0.5435787256	 2.2138174478	 0.100831
H	 2.3913350827	-0.5631589268	 0.4198661756	 0.285153
118.0664	152.5453	173.891	216.9727	279.6115	328.961	442.6311	477.2588	490.0783	535.7816	632.9589	707.4	740.2581	768.5713	816.7409	858.1216	890.052	920.4331	938.8007	975.446	1029.5624	1068.243	1100.571	1135.7804	1160.0233	1192.9467	1237.7218	1269.681	1287.7358	1308.9538	1345.4699	1412.57	1437.2419	1476.0178	1478.8997	1488.5155	1920.7846	3048.725	3064.6776	3094.1125	3118.8139	3119.9502	3133.4122	3155.3214	3766.3293
CC12OC(CC1O)C2=O	C[C@@]12O[C@@H](C[C@H]1O)C2=O	
InChI=1S/C6H8O3/c1-6-4(7)2-3(9-6)5(6)8/h3-4,7H,2H2,1H3	InChI=1S/C6H8O3/c1-6-4(7)2-3(9-6)5(6)8/h3-4,7H,2H2,1H3/t3-,4+,6+/m0/s1
