20
gdb 107440	2.94131	1.38455	1.17157	1.1967	77.82	-0.2356	0.0749	0.3105	1119.1638	0.172989	-403.112589	-403.104659	-403.103715	-403.144916	31.824	
O	 0.1559453189	 1.3574923535	 0.147913294	-0.419025
C	 0.0623198185	-0.0328399766	-0.1378576885	-0.164054
C	-1.3561774732	-0.5356214352	-0.0999369726	 0.344495
C	-1.9820482298	-0.9959647998	 1.2007399344	-0.339892
C	-1.716572454	-1.9977642685	 0.103753605	-0.104602
C	-2.830210248	-2.3794599516	-0.8797911933	-0.236639
C	-3.19142478	-1.0972114233	-1.6259549776	-0.031332
N	-3.7437409532	-0.0284002575	-0.7669555372	-0.342341
C	-2.3141460375	 0.0039189191	-1.1478356539	-0.113068
H	-0.3113127066	 1.5062423888	 0.9772140715	 0.282255
H	 0.4891358205	-0.149139982	-1.1413727027	 0.105029
H	 0.6828980833	-0.6287232167	 0.5507863601	 0.082449
H	-1.3352272517	-1.0510617332	 2.0719900656	 0.097488
H	-3.0033750676	-0.6948176666	 1.396898336	 0.140125
H	-0.9361448873	-2.730619847	 0.2835572437	 0.081782
H	-2.4488287392	-3.116397745	-1.5954506932	 0.100798
H	-3.7006884801	-2.8234129309	-0.3851321774	 0.111124
H	-3.5360421423	-1.1615554505	-2.6537286695	 0.084252
H	-4.2602979521	 0.6322262033	-1.3425928091	 0.229275
H	-1.9626162686	 0.8020622896	-1.7922311752	 0.091879
92.9717	134.2226	258.7538	267.0997	325.1652	359.6116	398.4384	435.209	511.1655	649.0175	699.5805	718.3449	804.8484	835.2486	853.9155	866.6659	906.4635	927.3999	950.0809	967.8589	976.1171	1025.667	1050.0283	1077.5576	1081.6191	1092.3836	1104.4359	1134.35	1169.4163	1194.7929	1216.5243	1243.6257	1261.3155	1289.9548	1327.2196	1345.9288	1383.5349	1406.5569	1419.0057	1428.8906	1473.3555	1483.1304	1506.801	2972.906	3040.8894	3052.0001	3079.6992	3123.	3150.9929	3154.6922	3176.6352	3227.6326	3496.7465	3804.0407
OCC12CC1CC1NC21	OC[C@]12C[C@H]1C[C@H]1N[C@@H]21	
InChI=1S/C7H11NO/c9-3-7-2-4(7)1-5-6(7)8-5/h4-6,8-9H,1-3H2	InChI=1S/C7H11NO/c9-3-7-2-4(7)1-5-6(7)8-5/h4-6,8-9H,1-3H2/t4-,5-,6-,7-/m1/s1
