19
gdb 51066	3.58778	1.08831	1.04583	2.5183	79.96	-0.2394	-0.0219	0.2176	1217.9086	0.159358	-385.849161	-385.841232	-385.840288	-385.882607	30.152	
O	-0.5708039405	 0.510349935	 0.6259695549	-0.238195
C	 0.2138303183	 0.8429096858	-0.2232766351	 0.165124
C	 1.2684469298	 1.9224289509	-0.056180525	-0.431823
C	 1.215446112	 2.9386044113	-1.1540934483	 0.356209
C	 1.5977686116	 2.9039737802	-2.6196869735	-0.111629
C	 0.2373695831	 3.4469605163	-3.0487689087	-0.226013
C	 0.1228407632	 4.0087696982	-1.6053466747	-0.10952
C	 1.2317104903	 5.0939812447	-1.5352949278	-0.224282
C	 2.2233712123	 3.941158904	-1.6702133534	-0.129642
H	 0.2132360239	 0.363179643	-1.2298822022	 0.075435
H	 1.1482187691	 2.3713676506	 0.9356989765	 0.123228
H	 2.2497810514	 1.4249546391	-0.0828562841	 0.12311
H	 2.2198954623	 2.1738240856	-3.1228456888	 0.084484
H	 0.1903506652	 4.1691005489	-3.8722078493	 0.090004
H	-0.4756470628	 2.6377228375	-3.2302405636	 0.100171
H	-0.8488644316	 4.1704322574	-1.1431777029	 0.078033
H	 1.2179492063	 5.8766251236	-2.3027818572	 0.089702
H	 1.2906126058	 5.5526332462	-0.5443700615	 0.100821
H	 3.2909557303	 3.9469387217	-1.4870253852	 0.084783
51.964	70.1279	146.9044	260.4872	316.6553	408.0563	461.5295	488.0412	627.2645	715.702	727.9665	797.7779	819.0726	872.4794	904.9753	923.492	927.4809	966.7423	987.978	1008.1237	1023.9105	1025.5919	1071.4459	1078.7168	1124.9974	1128.6666	1129.8068	1182.605	1217.1145	1221.5413	1238.5874	1252.1048	1291.7582	1300.6881	1321.435	1421.4466	1440.62	1447.5927	1491.6362	1509.6347	1836.4424	2861.9867	3004.0464	3029.1788	3035.6908	3075.7465	3092.5979	3095.9757	3137.0196	3184.225	3194.4573
O=CCC12C3CC1CC23	O=CC[C@@]12[C@H]3C[C@@H]1C[C@@H]23	
InChI=1S/C8H10O/c9-2-1-8-5-3-6(8)7(8)4-5/h2,5-7H,1,3-4H2	InChI=1S/C8H10O/c9-2-1-8-5-3-6(8)7(8)4-5/h2,5-7H,1,3-4H2/t5-,6+,7-,8+
