20
gdb 126759	2.48432	1.34571	0.93932	2.8852	82.57	-0.2373	0.0202	0.2575	1316.6627	0.170938	-399.384118	-399.374296	-399.373352	-399.4198	34.524	
C	-0.0625320563	 1.5515138602	 0.2878809025	-0.37479
C	-0.0657193027	 0.0636680683	-0.0654128917	-0.147317
N	-1.4058359901	-0.4963138355	-0.1028893444	 0.003445
N	-2.0948511604	-0.6840431544	 1.0560015687	-0.308266
C	-3.2548268841	-1.1626145418	 0.6329573149	 0.337379
C	-4.3582219394	-1.5337335635	 1.5660918753	-0.48311
N	-3.3492450569	-1.2899034061	-0.7233502144	-0.351945
C	-2.1739625922	-0.8614612658	-1.1561973072	 0.338653
C	-1.7486280219	-0.7932875012	-2.5852821061	-0.508023
H	 0.9648232811	 1.9241417311	 0.3403768435	 0.120502
H	-0.603851913	 2.135467613	-0.4625843634	 0.124214
H	-0.5416555968	 1.7074080634	 1.2571738825	 0.151223
H	 0.3896585129	-0.1075195408	-1.0443989827	 0.120985
H	 0.5088275676	-0.5042887838	 0.6722481204	 0.134676
H	-5.2612092194	-0.9545231779	 1.3482824663	 0.135552
H	-4.6189245502	-2.5913517736	 1.4575256301	 0.135847
H	-4.0577162587	-1.3470599168	 2.5985304776	 0.135017
H	-1.5112830421	 0.2302419519	-2.8947519655	 0.137531
H	-0.8653151356	-1.41185891	-2.7786237921	 0.138549
H	-2.5678462019	-1.1597287669	-3.2046012643	 0.159877
33.3305	103.2943	113.8429	116.7456	200.5179	204.4844	265.7058	292.8175	311.5792	416.9945	492.8349	618.5341	645.0999	687.0188	722.6301	781.0014	812.1741	974.672	996.1399	1023.8851	1051.7814	1064.5338	1069.3231	1088.5077	1104.7744	1203.9662	1278.646	1337.614	1373.6199	1392.1395	1406.3008	1407.4393	1410.8724	1454.505	1478.139	1480.4467	1481.3045	1485.7728	1488.7774	1504.8626	1509.6674	1544.7435	1569.6743	3037.5717	3044.7152	3045.1388	3061.8921	3089.7779	3099.846	3103.9553	3118.8061	3137.3327	3142.0917	3151.2666
CCN1N=C(C)N=C1C	CCn1nc(C)nc1C	
InChI=1S/C6H11N3/c1-4-9-6(3)7-5(2)8-9/h4H2,1-3H3	InChI=1S/C6H11N3/c1-4-9-6(3)7-5(2)8-9/h4H2,1-3H3
