23
gdb 121923	4.17181	0.62023	0.60013	1.9267	79.86	-0.2439	0.0604	0.3044	1969.0334	0.202444	-462.551963	-462.540443	-462.539499	-462.58933	40.697	
C	 0.0220438997	 1.3906578931	-0.0008487099	-0.225286
O	 0.0112944137	-0.0085318259	 0.1303909595	-0.232242
C	-1.2758591306	-0.5641556898	-0.0463669974	-0.055639
C	-1.1689366197	-2.0769873487	 0.0830022323	-0.221388
C	-2.5242638421	-2.776905437	-0.0742436081	 0.135727
O	-3.1515131513	-2.4468074252	-1.3076378259	-0.443905
C	-2.397567628	-4.306246901	 0.0459655314	 0.117912
C	-3.7557010098	-4.9976057603	 0.1219791839	-0.418664
O	-1.6732470366	-4.7059451616	-1.1234579526	-0.451679
H	 1.0521425351	 1.7273903114	 0.1421385513	 0.122253
H	-0.3216902413	 1.7124481554	-0.9972666932	 0.101323
H	-0.6178610702	 1.879360502	 0.7521311537	 0.099159
H	-1.9729549879	-0.1609165779	 0.7107276196	 0.075581
H	-1.6849934772	-0.2973618455	-1.0324636539	 0.100008
H	-0.4718696466	-2.458016812	-0.6709677423	 0.117014
H	-0.7442899152	-2.3213633339	 1.0645008449	 0.097357
H	-3.2062960314	-2.4256505809	 0.7107198801	 0.078324
H	-2.6965907096	-2.9820279658	-1.9718275077	 0.285839
H	-1.8101397608	-4.5433943111	 0.9467725739	 0.06927
H	-4.2729164136	-4.7340773721	 1.0501289075	 0.120813
H	-4.380361494	-4.694049537	-0.7219403793	 0.137559
H	-3.641714601	-6.0880747424	 0.1074958558	 0.102553
H	-1.7628664018	-5.6575782537	-1.2273161337	 0.288111
56.4716	66.9682	94.9501	115.8446	135.1044	224.9999	232.7494	238.6534	260.9262	286.1522	299.1238	329.4293	434.4187	461.159	493.1302	563.6582	677.9785	805.6666	827.8534	911.166	974.5679	994.7722	1014.0928	1043.4822	1082.1397	1110.7419	1126.7049	1148.8009	1168.0406	1181.8556	1211.5136	1226.5996	1229.0017	1284.0437	1295.1185	1341.1004	1360.4354	1378.4963	1401.1675	1416.0929	1422.6289	1440.4882	1481.7079	1484.7171	1487.7337	1490.3847	1501.1376	1506.1009	1533.8863	2939.263	2964.4796	2979.7519	3003.9397	3006.6429	3028.2547	3032.7116	3037.5953	3089.5861	3095.0939	3108.0722	3126.7641	3762.0676	3834.6006
COCCC(O)C(C)O	COCC[C@@H](O)[C@@H](C)O	
InChI=1S/C6H14O3/c1-5(7)6(8)3-4-9-2/h5-8H,3-4H2,1-2H3	InChI=1S/C6H14O3/c1-5(7)6(8)3-4-9-2/h5-8H,3-4H2,1-2H3/t5-,6-/m1/s1
