15
gdb 20223	4.45665	2.78075	2.37178	1.8039	65.91	-0.24	0.0036	0.2436	632.0367	0.122544	-325.46328	-325.458403	-325.457459	-325.491843	21.317	
C	-0.0545600936	 1.5664051397	-0.0396481905	-0.091676
C	 1.1882013773	 2.0676956773	-0.0496843924	-0.091675
C	 2.1690597879	 0.9220951009	 0.0003289416	-0.083349
C	 2.0866577625	 0.0625052753	 1.2945920493	-0.049079
C	 0.7084406392	-0.4934096443	 1.3057438729	-0.04908
C	 0.0347147247	 0.061168291	 0.0175896216	-0.083347
C	 1.414187033	-0.2947630303	-0.5977379553	 0.001289
N	 1.7978229102	-1.2222520357	 0.5799407879	-0.180082
H	-0.9783087443	 2.1311326404	-0.0060640067	 0.100925
H	 1.4619819309	 3.1154692461	-0.0257732879	 0.100925
H	 3.1855069076	 1.0999543222	-0.3482605577	 0.075963
H	 2.7268579076	 0.1010924079	 2.1679533642	 0.095663
H	 0.2328578019	-0.9048817322	 2.1881365758	 0.095663
H	-0.8254041899	-0.517923263	-0.3158200517	 0.075964
H	 1.539042795	-0.6249627952	-1.6283229212	 0.081895
374.5133	410.8928	556.7025	661.3128	735.5984	744.3051	789.424	800.6263	822.2989	853.6578	864.3996	884.9331	921.8595	950.2041	953.2598	982.3141	991.3223	997.6812	1036.945	1041.6091	1125.0339	1138.9017	1140.1393	1186.6806	1220.6137	1227.2108	1267.8158	1294.8436	1294.9998	1362.1145	1363.0613	1634.6133	3119.3673	3124.1989	3132.2061	3179.4175	3191.9013	3194.513	3219.0686
C1=CC2C3C4C1C2N34	C1=C[C@H]2[C@H]3[C@H]4[C@@H]1[C@@H]2N34	
InChI=1S/C7H7N/c1-2-4-5-3(1)6-7(4)8(5)6/h1-7H	InChI=1S/C7H7N/c1-2-4-5-3(1)6-7(4)8(5)6/h1-7H/t3-,4+,5-,6+,7-,8?
