21
gdb 91353	1.87658	1.63052	1.53509	0.6715	77.65	-0.241	0.0626	0.3036	1080.9127	0.181097	-424.196429	-424.18717	-424.186226	-424.230075	35.515	
C	 0.2634721888	 1.4163505582	-0.413932109	-0.423023
C	 0.0482659201	-0.0097159832	 0.0675297354	 0.104873
O	 0.5413389892	-0.9985922821	-0.8740857061	-0.312026
C	 1.3121700843	-1.6576505392	 0.1468794726	 0.076929
C	 2.7628042681	-1.1203655198	 0.2283810939	-0.295027
C	 2.3358694206	-0.2332337806	 1.4403903717	 0.082439
O	 2.7267178421	 1.1125674437	 1.5375616829	-0.430529
C	 0.8432456449	-0.649786635	 1.244185716	 0.238021
C	 0.0474638502	-0.987457016	 2.4864031213	-0.507098
H	 1.2806143328	 1.5681150702	-0.788817	 0.110049
H	-0.4112356298	 1.6315945902	-1.2486598243	 0.129782
H	 0.0591928809	 2.1368989664	 0.3843433004	 0.129627
H	-1.0290496318	-0.1624989383	 0.2299892101	 0.076636
H	 1.1447633464	-2.7370205938	 0.1766307985	 0.074073
H	 3.5478418519	-1.8485314372	 0.4456985615	 0.10345
H	 3.0320689719	-0.5652792982	-0.6741739156	 0.105821
H	 2.6873687719	-0.6900370722	 2.3716954342	 0.091973
H	 2.5363204019	 1.5489643251	 0.702797685	 0.280621
H	-0.1870683897	-0.0787323864	 3.0545259813	 0.126603
H	-0.8990320751	-1.4803324453	 2.2392587825	 0.119338
H	 0.6086644605	-1.6531135765	 3.1510070977	 0.117468
64.455	153.1674	187.6581	201.5951	250.0788	284.506	299.7013	329.4902	386.2524	415.4672	448.1944	577.2017	602.8173	659.895	720.6802	827.4171	868.6839	877.8166	893.4995	962.4594	1006.39	1015.2685	1041.8357	1088.537	1106.0431	1124.6243	1143.0218	1144.326	1175.7511	1196.4497	1245.0525	1264.7355	1279.8752	1303.3734	1314.7802	1357.1755	1395.2612	1405.2349	1412.2468	1441.6382	1465.7711	1476.7312	1491.9011	1495.8748	1510.1167	2983.1338	3020.9638	3031.9563	3049.5186	3059.8865	3079.6164	3084.6646	3094.7001	3098.3307	3112.6116	3119.9817	3844.1369
CC1OC2CC(O)C12C	C[C@H]1O[C@H]2C[C@@H](O)[C@@]12C	
InChI=1S/C7H12O2/c1-4-7(2)5(8)3-6(7)9-4/h4-6,8H,3H2,1-2H3	InChI=1S/C7H12O2/c1-4-7(2)5(8)3-6(7)9-4/h4-6,8H,3H2,1-2H3/t4-,5-,6+,7-/m1/s1
