13
gdb 124335	2.93262	1.58436	1.03531	5.8493	60.88	-0.2787	-0.0565	0.2222	1053.5583	0.088199	-489.919645	-489.911877	-489.910932	-489.952682	27.459	
C	-0.0289047107	 1.533026826	-0.0172425208	-0.511971
C	-0.0222683076	 0.0228939454	 0.0902768807	 0.422887
O	-0.0354335297	-0.5836930264	 1.1226300159	-0.265441
N	 0.0020565179	-0.6620607009	-1.1614945764	-0.238335
C	 0.0208635208	-0.1242989303	-2.4317845899	 0.087475
N	 0.0411926754	-1.0082291855	-3.3618361057	-0.119151
O	 0.0361931305	-2.2516860431	-2.6950094128	-0.241465
C	 0.0121771068	-2.0737284084	-1.3329767128	 0.539028
O	 0.0030045832	-2.948650523	-0.5298016103	-0.336322
H	 0.8646989967	 1.8969740113	-0.5344904254	 0.157557
H	-0.9072888121	 1.8872583899	-0.5662625847	 0.157466
H	-0.0491281133	 1.9375183747	 0.9936564704	 0.170977
H	 0.0190369921	 0.9340257904	-2.6389839184	 0.177295
59.6005	122.907	177.2322	203.0827	255.2966	348.349	462.3868	538.2229	577.1758	613.2212	649.941	763.1012	765.96	877.8252	894.092	933.2775	955.7717	1050.5023	1055.6718	1135.9836	1252.4346	1278.6892	1368.4409	1391.8061	1471.0416	1482.4332	1653.2893	1837.0077	1934.8654	3046.2969	3112.0265	3170.8474	3275.9202
CC(=O)N1C=NOC1=O	CC(=O)n1cnoc1=O	
InChI=1S/C4H4N2O3/c1-3(7)6-2-5-9-4(6)8/h2H,1H3	InChI=1S/C4H4N2O3/c1-3(7)6-2-5-9-4(6)8/h2H,1H3
