18
gdb 124752	2.55979	1.38691	0.96554	3.6081	74.16	-0.2016	0.036	0.2376	1209.0988	0.148481	-435.278467	-435.269102	-435.268158	-435.313052	34.367	
C	 0.1370086855	 1.4611828463	-0.2231441206	-0.39722
C	 0.0392547981	-0.0303601929	 0.126439243	-0.012043
O	 0.6086813758	-0.2832822268	 1.4067474911	-0.420848
C	-1.3705297613	-0.5604958009	 0.0444762748	 0.144523
C	-2.221917479	-0.5953740167	-1.050958468	 0.28154
N	-2.0707461322	-0.1251590545	-2.3590632269	-0.606631
N	-3.3800207563	-1.1563472454	-0.6215159075	-0.247916
N	-3.3516544607	-1.5061125109	 0.6917870596	-0.247609
C	-2.1360211814	-1.1481570671	 1.0811326618	-0.087236
H	 1.1769154392	 1.7949665619	-0.1641522502	 0.120459
H	-0.2438849572	 1.6693028289	-1.2282533479	 0.115037
H	-0.4645921408	 2.052381104	 0.4770731213	 0.113984
H	 0.6869604107	-0.5902511666	-0.5638883538	 0.086974
H	 0.1272246006	 0.2557175797	 2.0446736927	 0.279013
H	-1.0979256612	-0.0466315314	-2.6244360223	 0.258328
H	-2.5521296892	-0.6927720377	-3.0463847339	 0.248868
H	-4.22632498	-1.2947439048	-1.1470338217	 0.264572
H	-1.8211096305	-1.3371269148	 2.0966591286	 0.106206
35.468	117.3464	170.3203	177.5873	248.9356	282.1326	305.5935	331.0258	365.7512	430.8661	480.5477	524.6464	631.6582	671.0669	692.7356	744.9685	774.0235	891.524	904.288	952.6572	1029.3848	1066.8433	1082.8877	1106.55	1122.2721	1195.6087	1242.1705	1301.1136	1341.298	1352.7354	1377.9602	1404.5672	1419.7551	1454.5109	1486.3165	1493.1372	1563.2378	1628.7365	1660.5144	2995.071	3029.402	3097.8108	3116.5731	3248.1713	3533.5282	3625.4868	3670.5573	3796.4902
CC(O)C1=C(N)NN=C1	C[C@@H](O)c1c(N)[nH]nc1	
InChI=1S/C5H9N3O/c1-3(9)4-2-7-8-5(4)6/h2-3,9H,1H3,(H3,6,7,8)	InChI=1S/C5H9N3O/c1-3(9)4-2-7-8-5(4)6/h2-3,9H,1H3,(H3,6,7,8)/t3-/m1/s1
