15
gdb 28118	5.2738	1.3146	1.05922	1.0001	75.84	-0.193	0.0068	0.1998	1083.1674	0.115157	-416.858403	-416.851195	-416.850251	-416.89006	27.47	
C	-0.0149854942	 1.4444750989	 0.0645315957	-0.493055
C	-0.0043698017	-0.0344831859	-0.0612426314	 0.352255
N	-0.0985694174	-0.7452154082	-1.1522927973	-0.398721
C	-0.0329473854	-2.0327199911	-0.67535302	 0.310507
C	 0.0986054197	-2.0575912816	 0.6879749561	 0.306599
O	 0.1192955821	-0.7549604803	 1.1091561443	-0.238766
C	 0.1632680204	-3.393842599	 1.141025724	-0.336173
C	 0.0635987903	-4.1482535027	-0.0185006983	-0.059601
N	-0.0564507503	-3.3228415622	-1.126493674	-0.389391
H	 0.9109941932	 1.8091934618	 0.5221348853	 0.144696
H	-0.1183335217	 1.8830662389	-0.928202083	 0.154414
H	-0.8460982854	 1.7820253874	 0.6931402839	 0.144702
H	 0.265162488	-3.7811396019	 2.1411327907	 0.109641
H	 0.0684169149	-5.2194239781	-0.138580115	 0.123473
H	-0.1404832525	-3.6306361762	-2.0787908211	 0.269419
99.3861	141.9663	273.3159	282.0782	346.1251	410.9822	517.4655	579.4814	612.4355	657.3743	683.9535	763.5579	764.8653	799.5222	810.1243	923.4456	951.0919	1025.4248	1060.8382	1063.9199	1104.1211	1179.1566	1264.4242	1280.1989	1365.1742	1407.7681	1467.7933	1472.593	1476.6448	1491.9521	1561.0048	1584.1807	1608.4034	3039.2505	3090.9131	3156.0044	3261.5102	3278.1657	3691.263
CC1=NC2=C(O1)C=CN2	Cc1nc2c(o1)cc[nH]2	
InChI=1S/C6H6N2O/c1-4-8-6-5(9-4)2-3-7-6/h2-3,7H,1H3	InChI=1S/C6H6N2O/c1-4-8-6-5(9-4)2-3-7-6/h2-3,7H,1H3
