17
gdb 115132	3.11815	1.29505	0.94818	4.7385	72.32	-0.2331	-0.0594	0.1737	1209.7814	0.135999	-455.152283	-455.143486	-455.142542	-455.186199	31.736	
C	-0.1201983028	 1.4791856015	 0.0367540088	-0.250486
O	 0.001639	 0.0849771942	-0.2101258939	-0.239615
C	-1.1624183571	-0.6483536359	 0.0362111461	 0.02739
C	-1.049317318	-2.050310328	-0.5832242181	-0.215504
N	-1.85527281	-2.8722929038	 0.315229765	-0.345675
C	-1.977080655	-2.3730527633	 1.5947551079	 0.287407
N	-2.4300417491	-2.8882563526	 2.6673278955	-0.516418
C	-1.4523373725	-0.9450235313	 1.5214154557	 0.345868
O	-1.2682237473	-0.204704099	 2.4481520359	-0.286049
H	 0.831751337	 1.9293947134	-0.2524187257	 0.130037
H	-0.9230371036	 1.9175505343	-0.5759945775	 0.10489
H	-0.3203351306	 1.6856756593	 1.0919685683	 0.150146
H	-2.0539460629	-0.1361133035	-0.3686910075	 0.100359
H	-1.4338078599	-2.092534151	-1.6053546219	 0.12179
H	 0.0094336398	-2.3416386452	-0.5965764643	 0.130755
H	-1.9775294354	-3.8563901907	 0.1358580545	 0.248165
H	-2.7202466525	-3.8593731384	 2.5277212113	 0.20694
58.2548	114.3668	155.1664	177.7649	244.6763	276.289	330.4275	391.2494	438.9359	457.365	568.2859	581.248	677.671	719.806	825.4955	864.3368	945.2946	1015.0004	1039.0236	1076.1983	1094.699	1139.9979	1176.7364	1182.0271	1201.9276	1236.2464	1282.2245	1292.7155	1370.3632	1379.5216	1440.772	1478.0248	1482.9596	1517.3133	1530.0665	1740.1779	1862.0588	2944.3219	2989.055	3019.5315	3087.8844	3089.6263	3133.772	3437.3538	3630.4506
COC1CNC(=N)C1=O	CO[C@H]1CN[C]([NH])C1=O	
InChI=1S/C5H8N2O2/c1-9-3-2-7-5(6)4(3)8/h3H,2H2,1H3,(H2,6,7)	InChI=1S/C5H8N2O2/c1-9-3-2-7-5(6)4(3)8/h3H,2H2,1H3,(H2,6,7)/t3-/m0/s1
