25
gdb 122011	5.48303	0.47805	0.45555	0.224	86.82	-0.2578	0.0707	0.3286	2470.1761	0.22629	-426.630338	-426.618345	-426.617401	-426.668734	42.187	
C	 0.0076851225	 1.5750197676	 0.1174963317	-0.378898
C	 0.0113953582	 0.0463551889	 0.0307096126	-0.165479
C	 0.6974349918	-0.4817822067	-1.233363325	-0.158345
C	 0.7037713963	-2.0103730602	-1.3299634748	-0.202804
C	 1.4455286835	-2.5444704406	-2.5614709789	 0.111368
O	 2.8006691542	-2.0871738405	-2.5964928647	-0.430005
C	 1.369996183	-4.0707732017	-2.6672902991	-0.187148
C	 2.0396511027	-4.6189798888	-3.9208419159	-0.076694
O	 1.9248341423	-6.035276467	-3.8899989687	-0.424272
H	 1.0284732699	 1.9731614322	 0.1177558909	 0.113878
H	-0.5175469482	 2.0184408543	-0.7358414707	 0.113195
H	-0.4862828118	 1.9237896167	 1.029909995	 0.109398
H	 0.512329602	-0.3692210105	 0.9155183132	 0.091108
H	-1.0214628671	-0.3254591533	 0.0678422199	 0.092024
H	 0.195891002	-0.066857676	-2.1190456578	 0.0896
H	 1.7311378671	-0.1195149256	-1.2760834496	 0.104569
H	 1.168484344	-2.4380810181	-0.4280197317	 0.082041
H	-0.326717657	-2.389060582	-1.3463304018	 0.095004
H	 0.996015093	-2.1021301715	-3.4612099226	 0.084631
H	 3.2445342301	-2.4437951376	-1.8181089329	 0.275802
H	 1.8442688279	-4.5252405654	-1.7861432175	 0.093092
H	 0.3213195923	-4.3905241844	-2.6550431425	 0.104741
H	 1.5489202856	-4.1988575795	-4.8146489164	 0.081977
H	 3.0899004074	-4.2972036156	-3.9454210575	 0.096711
H	 2.3881001382	-6.3885301045	-4.6548620252	 0.284506
46.7845	67.747	77.8901	94.203	117.7796	159.0085	191.0243	245.8912	268.3448	274.9234	300.39	317.4627	372.4947	434.4408	505.3516	577.4241	735.7247	786.2159	801.8996	880.5301	905.1664	940.6488	981.7686	1022.3367	1036.2134	1063.0314	1071.504	1079.6238	1106.3105	1124.4644	1146.9549	1211.0509	1229.4099	1238.8675	1271.4027	1294.9174	1307.6021	1314.5574	1329.2047	1357.3121	1365.3693	1390.7555	1399.7117	1412.5483	1419.4507	1459.62	1474.4906	1485.6778	1487.6863	1499.1942	1500.146	1513.3308	1531.1562	2963.6387	2991.197	3007.4152	3011.9422	3015.7508	3020.5771	3026.0575	3028.9547	3036.8684	3041.0488	3069.4584	3074.9472	3095.909	3100.4141	3788.4456	3830.25
CCCCC(O)CCO	CCCC[C@@H](O)CCO	
InChI=1S/C7H16O2/c1-2-3-4-7(9)5-6-8/h7-9H,2-6H2,1H3	InChI=1S/C7H16O2/c1-2-3-4-7(9)5-6-8/h7-9H,2-6H2,1H3/t7-/m1/s1
