13
gdb 129342	5.76417	1.01008	0.85947	2.8745	70.85	-0.2513	-0.0782	0.1731	1234.7259	0.090559	-448.932348	-448.925077	-448.924133	-448.965077	25.556	
N	-0.1791533653	 1.3216451009	 0.0106019562	-0.407493
C	-0.0037774013	 0.0783599749	 0.0027153616	 0.105145
O	-1.1312780375	-0.7142903506	 0.0064986831	-0.224459
C	-1.017988932	-2.0579751317	-0.0009990686	 0.46701
C	-2.2150351562	-2.7986207019	 0.0027816219	-0.058828
N	-2.1942266869	-4.1173544094	-0.0040294736	-0.15927
N	-1.0118294268	-4.7504144761	-0.0147418592	-0.195937
C	 0.0817438535	-4.0028023448	-0.0179197723	 0.114344
N	 0.1497090732	-2.6620263334	-0.0114881266	-0.33789
H	 0.7204729729	 1.7996159506	 0.0069226517	 0.24652
H	 0.923243861	-0.4924690894	-0.0066570798	 0.154864
H	-3.1815818487	-2.3066456623	 0.0113583443	 0.15021
H	 1.0256905541	-4.5399123469	-0.0265889485	 0.145785
69.9773	84.1028	183.1147	214.7424	385.2366	409.0423	488.1353	564.7487	658.7639	729.4068	814.8874	846.1152	909.1732	940.1368	996.8235	1011.4777	1034.3875	1065.3258	1066.7411	1200.0231	1246.026	1284.9764	1336.8234	1373.9241	1391.1934	1471.8735	1572.2819	1598.1886	1748.7074	3155.0229	3185.9063	3197.9734	3515.4555
N=COC1=CN=NC=N1	[NH][CH]Oc1cnncn1	
InChI=1S/C4H4N4O/c5-2-9-4-1-7-8-3-6-4/h1-3,5H	InChI=1S/C4H4N4O/c5-2-9-4-1-7-8-3-6-4/h1-3,5H
