18
gdb 54948	3.02498	1.06492	0.95094	3.5036	81.51	-0.2401	-0.0286	0.2115	1303.4241	0.14393	-401.911255	-401.90134	-401.900396	-401.946191	36.026	
C	 0.5159342866	 1.4893563993	 0.162819547	-0.487845
C	-0.3515975667	 0.2524217109	 0.0190897393	 0.406389
O	-1.084041083	-0.1308811931	 0.9017758797	-0.301139
C	-0.2490331917	-0.4418612376	-1.3138608715	-0.180787
N	-0.6932920881	-1.8366591354	-1.4073583108	-0.339241
C	-1.4878793339	-0.8251236377	-2.1172612484	 0.131975
C	-2.8888128627	-0.5931912424	-1.5854970944	-0.469071
C	-1.3416729163	-0.7367327468	-3.5503170983	 0.285784
C	-1.2378845831	-0.6824883404	-4.747735607	-0.442139
H	 1.5760508368	 1.2180562768	 0.0928563902	 0.142531
H	 0.3155506847	 2.1956334234	-0.6512413655	 0.1428
H	 0.3233387267	 1.9661481301	 1.1241390435	 0.145328
H	 0.6007302687	-0.1380494289	-1.9205310585	 0.097215
H	-0.0980174091	-2.3396285154	-2.0612442724	 0.244099
H	-2.893023387	-0.6850997644	-0.4997694112	 0.170258
H	-3.250841435	 0.3985926665	-1.8720732064	 0.122007
H	-3.5667222419	-1.3391584007	-2.0105354277	 0.130214
H	-1.146457795	-0.6320462244	-5.8046701775	 0.201621
58.1948	105.3795	133.4102	148.946	190.14	221.1942	264.0022	333.3753	352.139	404.2131	516.9691	554.6388	595.5939	613.4352	615.0105	655.5249	689.8951	785.2398	852.7335	913.643	956.9666	989.8051	1048.8857	1061.7724	1083.4166	1101.9405	1189.7694	1196.0076	1277.2693	1327.4329	1378.3454	1410.3026	1439.5136	1464.3272	1474.1321	1490.8426	1494.4049	1808.7955	2230.2981	3032.2012	3049.2864	3091.3511	3114.1502	3137.7122	3155.5484	3163.1847	3501.2494	3505.1795
CC(=O)C1NC1(C)C#C	CC(=O)[C@H]1N[C@]1(C)C#C	
InChI=1S/C7H9NO/c1-4-7(3)6(8-7)5(2)9/h1,6,8H,2-3H3	InChI=1S/C7H9NO/c1-4-7(3)6(8-7)5(2)9/h1,6,8H,2-3H3/t6-,7-/m1/s1
