17
gdb 23034	4.19337	0.96132	0.94619	1.3971	72.42	-0.2502	-0.0059	0.2443	1272.2884	0.135443	-455.118511	-455.109614	-455.10867	-455.153406	31.515	
C	-1.2251935464	 0.657494103	 0.2138185106	-0.481371
C	 0.0022747167	-0.2069398128	 0.1434079621	 0.363667
N	 0.9539179143	-0.1970250846	 0.997607745	-0.173251
O	 0.7106586785	 0.7085817629	 2.0344533973	-0.392399
C	 0.1757793176	-1.1842423075	-0.9843107508	 0.011932
C	-0.9311917441	-2.2780302874	-1.0983077911	-0.210518
N	-1.5095448777	-2.1084273001	-2.4415742474	-0.261236
C	-0.9021108629	-1.1233953062	-2.9542050562	 0.123555
O	 0.0658262265	-0.4792937417	-2.2583925589	-0.23053
H	-0.9573561159	 1.7042646325	 0.0358133326	 0.153455
H	-1.9683620721	 0.3624830895	-0.5288499438	 0.133843
H	-1.6678764182	 0.6103117305	 1.2125372427	 0.150041
H	 1.4899530724	 0.598804197	 2.5899458223	 0.310229
H	 1.178442037	-1.6114946004	-0.9261272595	 0.109649
H	-0.5184435825	-3.2847400912	-0.9884716127	 0.127302
H	-1.7129073853	-2.1616321423	-0.3400085907	 0.122041
H	-1.084106208	-0.7171559511	-3.9432537214	 0.143591
43.7033	64.7952	86.9449	172.1494	245.9353	287.6291	372.7488	387.374	446.6554	493.6992	574.8723	661.5208	736.9457	802.3194	878.5949	922.1201	959.4974	969.2415	980.3902	1013.8208	1025.6238	1047.4232	1074.8608	1123.9167	1205.3053	1289.8855	1304.0051	1315.1934	1339.6421	1347.3052	1403.2773	1414.6978	1471.5077	1487.8712	1501.7385	1709.7763	1728.2084	3047.074	3048.7866	3082.6248	3102.013	3107.5144	3141.5477	3214.9147	3816.79
CC(=NO)C1CN=CO1	CC(=NO)[C@H]1CN=CO1	
InChI=1S/C5H8N2O2/c1-4(7-8)5-2-6-3-9-5/h3,5,8H,2H2,1H3	InChI=1S/C5H8N2O2/c1-4(7-8)5-2-6-3-9-5/h3,5,8H,2H2,1H3/t5-/m1/s1
