12
gdb 131044	4.69141	1.16014	0.93013	6.9342	66.8	-0.2565	-0.0933	0.1632	1130.1542	0.077094	-464.944882	-464.937496	-464.936552	-464.977922	25.603	
O	 1.9117856991	 4.1773559288	 0.0566541373	-0.23222
C	 1.0630665263	 3.3343015381	 0.0528435854	 0.163552
N	 1.2599219826	 1.9520890847	-0.0364946981	-0.393235
C	 2.4346804345	 1.2334814492	-0.1402480535	 0.479317
C	 2.389448885	-0.1686925228	-0.2267415943	-0.02705
N	 3.4974147591	-0.864437951	-0.326237273	-0.158625
N	 4.6676880812	-0.2070657488	-0.3432862273	-0.062183
N	 4.7072861317	 1.0959398228	-0.2623309952	-0.04389
N	 3.6119497817	 1.8473962178	-0.1596485587	-0.228433
H	-0.0219243309	 3.546098338	 0.1215846773	 0.100663
H	 0.4141779371	 1.3988092016	-0.0266369641	 0.265764
H	 1.4538540126	-0.7255382183	-0.2153524058	 0.136341
40.3581	122.4419	165.2674	240.0276	334.209	334.594	542.805	560.1654	599.7677	669.9735	816.2809	828.7154	865.9172	925.4867	943.2251	1020.8872	1059.5877	1078.3756	1122.3753	1228.0685	1308.7721	1402.4877	1436.2025	1485.242	1572.0161	1595.4684	1856.5311	2945.7986	3141.9199	3597.4992
O=CNC1=CN=NN=N1	O=CNc1cnnnn1	
InChI=1S/C3H3N5O/c9-2-4-3-1-5-7-8-6-3/h1-2H,(H,4,6,7,9)	InChI=1S/C3H3N5O/c9-2-4-3-1-5-7-8-6-3/h1-2H,(H,4,6,7,9)
