19
gdb 114108	3.22189	1.19922	1.01898	3.2179	72.06	-0.2416	0.0547	0.2963	1218.6008	0.157299	-460.103932	-460.094871	-460.093927	-460.138131	33.151	
C	 0.1713082516	 1.6382121166	 0.4675754869	-0.236694
O	 0.5691430621	 0.3842713116	-0.0407383523	-0.234797
C	 0.7024953328	-0.5928371983	 0.9422124392	 0.168338
C	-0.5798948475	-1.242214287	 1.5724640213	-0.360134
C	 0.016622465	-2.6496717159	 1.2600530898	 0.335237
O	 0.2846041758	-3.5108628874	 2.3209029546	-0.475835
C	-0.4387967703	-3.2157417213	-0.0962165682	-0.120898
O	 0.5150198417	-2.3763881571	-0.7896216569	-0.282657
C	 1.1545935748	-1.9736114833	 0.4360638131	 0.023013
H	 0.8952415947	 2.0277746828	 1.2008140109	 0.104404
H	 0.1171953053	 2.3279642324	-0.3777132567	 0.13104
H	-0.8166228122	 1.59283532	 0.9504844171	 0.10689
H	 1.3804783944	-0.2587793066	 1.745737986	 0.069206
H	-0.7169531451	-1.0417331887	 2.637609176	 0.100546
H	-1.503929125	-1.0205974258	 1.0327071953	 0.109002
H	-0.5175087693	-3.6091656095	 2.8451720738	 0.283782
H	-0.2001996911	-4.2812608436	-0.2138511787	 0.101684
H	-1.4714325282	-3.0258872645	-0.4140452456	 0.097254
H	 2.2147813806	-2.2359412542	 0.4679230048	 0.08062
58.0548	99.3843	163.0323	182.4836	196.3804	275.0535	308.8939	367.3012	394.0102	442.0554	525.1677	636.8915	700.5315	792.8725	873.0492	897.9612	923.5182	954.0392	995.3269	1008.1857	1061.6501	1077.4598	1100.4288	1142.9478	1170.7813	1181.1788	1185.2666	1187.6599	1227.2728	1248.9045	1268.2985	1298.4984	1312.6605	1342.5387	1382.8132	1399.7189	1462.466	1483.0007	1488.3885	1508.3173	1516.1601	2957.3498	2974.0255	3005.1747	3020.359	3059.0029	3060.4602	3084.1896	3118.4131	3122.052	3804.8073
COC1CC2(O)COC12	CO[C@H]1C[C@@]2(O)CO[C@@H]12	
InChI=1S/C6H10O3/c1-8-4-2-6(7)3-9-5(4)6/h4-5,7H,2-3H2,1H3	InChI=1S/C6H10O3/c1-8-4-2-6(7)3-9-5(4)6/h4-5,7H,2-3H2,1H3/t4-,5-,6+/m0/s1
