15
gdb 50929	1.92678	1.38884	0.89132	2.3938	67.53	-0.2733	-0.0312	0.2421	1257.2331	0.111547	-453.93368	-453.924829	-453.923885	-453.968655	30.171	
O	-0.3204243917	 0.2634751044	-0.3670160137	-0.244258
C	-0.2199143131	 1.3962620531	-0.0221705151	 0.182401
O	 0.8707122478	 2.1486798686	-0.3402959902	-0.191442
C	 0.900923181	 3.5021795729	 0.1209240432	-0.088277
C	 1.433622526	 3.567055883	 1.4935180786	 0.292115
N	 1.8456264964	 3.6360654262	 2.5702597712	-0.298432
C	 1.7571626251	 4.3291290238	-0.8304226452	 0.002436
C	 2.9491736457	 3.7391010912	-1.4798883404	-0.226353
N	 1.7366873802	 4.05223872	-2.2634501574	-0.32591
H	-0.9709233194	 1.9548901464	 0.5658238413	 0.10461
H	-0.1204770089	 3.9078184863	 0.1342202221	 0.14376
H	 1.754995873	 5.3837375281	-0.5662157869	 0.123844
H	 3.8083946502	 4.3680011253	-1.6893270873	 0.134265
H	 3.1716897687	 2.6965290005	-1.2766750326	 0.143041
H	 1.2287356092	 3.1879298503	-2.4404871175	 0.248201
46.6842	82.8929	123.1125	146.0726	160.2425	264.3571	321.8087	357.6975	481.6407	515.3531	579.0338	714.9481	809.8697	888.0046	925.1235	965.8767	1001.795	1006.3789	1036.5597	1066.7585	1127.0208	1143.6814	1155.532	1210.9749	1268.0236	1304.3802	1313.6926	1358.7821	1414.3871	1432.7211	1508.1349	1884.6057	2362.2659	2976.2947	3016.2878	3127.8595	3144.0503	3219.4392	3501.28
O=COC(C#N)C1CN1	O=CO[C@@H](C#N)[C@H]1CN1	
InChI=1S/C5H6N2O2/c6-1-5(9-3-8)4-2-7-4/h3-5,7H,2H2	InChI=1S/C5H6N2O2/c6-1-5(9-3-8)4-2-7-4/h3-5,7H,2H2/t4-,5+/m1/s1
