17
gdb 72632	2.59237	1.5202	1.21203	1.4899	76.32	-0.216	0.026	0.2421	1065.2826	0.133111	-421.756186	-421.74729	-421.746346	-421.789149	34.29	
O	 0.0695404533	 1.4278148464	 0.0409331335	-0.460156
C	-0.0508557743	 0.0605868369	 0.0809294821	 0.351908
C	 0.7067744967	-0.7740878628	 1.1015774354	-0.289532
C	-0.4750718536	-1.806341746	 1.1082684449	-0.289526
C	-1.2067966186	-0.949105346	 0.0874086423	 0.351903
O	-2.5780228086	-0.8847834416	 0.0557482558	-0.460155
C	-0.3241999367	-0.8010288569	-1.16632943	-0.373528
C	-0.9568431674	-0.0836360794	-2.230106525	 0.239504
C	-1.5330388081	 0.5707444548	-3.064421445	-0.405066
H	-0.2912525893	 1.7430530804	-0.7983874503	 0.289922
H	 1.6879129277	-1.1473263686	 0.7918087788	 0.101902
H	 0.8056018884	-0.2522228871	 2.0555300901	 0.121248
H	-0.2391513714	-2.8304941183	 0.8027459171	 0.101897
H	-0.9993739521	-1.8287061254	 2.0657364709	 0.12125
H	-2.8472133942	-0.4896948728	-0.784161451	 0.289923
H	 0.3641366358	-1.591025489	-1.4704521905	 0.103166
H	-2.0168824378	 1.1198054254	-3.8345008392	 0.20534
110.421	131.0089	199.4561	229.2283	264.6488	313.0138	330.927	385.3142	386.7966	486.6221	557.4243	568.4691	590.643	664.9812	673.1017	698.368	725.6618	793.4805	875.2009	931.7597	978.2251	1024.5637	1064.4046	1087.354	1115.1846	1129.1356	1195.3392	1221.1362	1236.6431	1288.6939	1296.7229	1405.2497	1406.822	1425.5024	1478.4566	1513.7396	2209.8611	3050.1369	3057.1036	3083.1126	3108.7295	3124.916	3498.3011	3753.9689	3759.1975
OC12CCC1(O)C2C#C	O[C@@]12CC[C@]1(O)[C@H]2C#C	
InChI=1S/C7H8O2/c1-2-5-6(8)3-4-7(5,6)9/h1,5,8-9H,3-4H2	InChI=1S/C7H8O2/c1-2-5-6(8)3-4-7(5,6)9/h1,5,8-9H,3-4H2/t5-,6+,7-
