20
gdb 65806	3.4801	0.8476	0.79001	4.7834	79.63	-0.2591	0.0397	0.2988	1499.1993	0.169961	-403.15698	-403.147389	-403.146445	-403.192298	34.551	
C	-0.037768184	 1.7654105414	-0.2493541748	-0.443757
C	-0.0149826701	 0.2472101533	-0.1358508696	 0.433014
C	-1.4004950942	-0.3726532072	 0.0785424889	-0.232701
C	-1.9986422759	-0.0055233105	 1.4522152825	-0.347799
C	-3.2448416961	-0.7171350655	 1.720585872	 0.257692
N	-4.2311503914	-1.2873078186	 1.9151400639	-0.308595
C	 0.8473354192	-0.4912832555	-1.1944523091	-0.343158
C	 1.6984424304	-0.9406393414	 0.0079185547	-0.065608
O	 0.8880158616	-0.1788628247	 0.9284330339	-0.323727
H	 0.9742724371	 2.1474619092	-0.4073519796	 0.124421
H	-0.6636213674	 2.0821858204	-1.0907934522	 0.120895
H	-0.426677446	 2.228691946	 0.6624225251	 0.127377
H	-2.0768404262	-0.0612775626	-0.7254882719	 0.117585
H	-1.3123660851	-1.462157722	 0.0204962478	 0.119202
H	-1.2688227811	-0.2520731626	 2.230671104	 0.173181
H	-2.1959464618	 1.0691868289	 1.5237432392	 0.149713
H	 0.3381980785	-1.2841248256	-1.7448885167	 0.113055
H	 1.3562407123	 0.1662421713	-1.9010879926	 0.112783
H	 1.6726322779	-2.0138553372	 0.231591707	 0.107809
H	 2.7417517622	-0.6055334272	 0.0123242973	 0.108618
52.9279	81.5355	102.2026	125.9158	216.6516	227.9437	322.1547	343.6942	398.506	404.9985	472.0945	535.9135	700.1524	766.7581	785.0886	863.4151	887.951	927.5664	952.141	966.9365	991.918	1004.9228	1029.414	1041.1848	1132.718	1162.4748	1184.2767	1208.5745	1225.229	1264.5981	1276.2489	1298.3807	1333.1611	1352.3388	1385.0446	1411.2236	1468.2396	1482.8447	1488.0101	1489.2021	1499.8193	1531.8369	2361.6406	3022.6502	3036.5934	3043.9417	3055.3602	3063.082	3078.8234	3082.2664	3103.0255	3109.325	3117.4214	3134.0618
CC1(CCC#N)CCO1	C[C@@]1(CCC#N)CCO1	
InChI=1S/C7H11NO/c1-7(3-2-5-8)4-6-9-7/h2-4,6H2,1H3	InChI=1S/C7H11NO/c1-7(3-2-5-8)4-6-9-7/h2-4,6H2,1H3/t7-/m1/s1
