23
gdb 111849	2.16971	1.37079	1.0924	1.3071	84.95	-0.2425	0.0777	0.3202	1265.9328	0.2064	-388.293764	-388.284308	-388.283364	-388.327986	36.318	
C	 0.1203029503	 1.4277521375	 0.2063408417	-0.367586
C	-0.2119266859	-0.0511506985	-0.0334219247	-0.219708
C	 0.5551791766	-0.6301418202	-1.2065475158	-0.061756
C	 1.9891640591	-1.155615311	-1.1871686804	-0.09976
C	 2.6412457686	-1.5870544978	 0.1193796466	-0.22172
C	 1.6849140685	-2.6320926389	 0.7597372333	-0.222532
C	 0.7551919285	-3.1252897105	-0.3769977365	-0.280029
C	 0.8429214641	-2.0855333687	-1.4906939581	 0.361665
O	 0.677010667	-2.5533588419	-2.8017892124	-0.469983
H	 1.1826534912	 1.5602876653	 0.4356148176	 0.120311
H	-0.1016937136	 2.030402303	-0.6813099808	 0.113191
H	-0.4594691766	 1.8358323292	 1.0404027851	 0.107589
H	-0.0219047591	-0.6160971884	 0.8826460911	 0.100115
H	-1.2882795312	-0.1512599378	-0.2290154402	 0.092665
H	 0.35722463	-0.093483183	-2.1340668505	 0.081199
H	 2.6332672233	-0.8240991463	-1.9944318052	 0.086284
H	 3.61015906	-2.0445998029	-0.1102414977	 0.102614
H	 2.8440172114	-0.7530423647	 0.8003177507	 0.097057
H	 2.2389055378	-3.459720324	 1.2113839935	 0.098559
H	 1.104303708	-2.179875873	 1.5674843297	 0.107757
H	 1.1178664981	-4.0678049201	-0.8010295711	 0.108206
H	-0.2679405413	-3.3034270973	-0.0253357875	 0.088378
H	-0.2678290847	-2.6393254	-2.9679627584	 0.277484
60.4691	119.7234	152.3218	207.6076	222.5898	256.9209	270.9896	317.0577	386.7387	468.2101	528.0146	567.2039	675.9415	691.3035	755.4553	797.825	835.0928	866.7876	903.9374	909.4307	960.5704	969.4839	1008.2015	1037.7255	1050.1437	1085.6135	1105.2224	1115.4996	1134.4383	1182.1926	1209.6712	1234.6883	1248.2177	1269.3402	1293.7465	1313.8355	1319.8382	1332.7727	1340.2632	1350.3385	1382.4485	1409.2937	1465.5324	1483.9586	1492.5626	1496.5079	1497.2798	1508.7073	1521.5117	3016.7708	3030.9867	3031.539	3033.7133	3060.9261	3065.6356	3070.5775	3083.5557	3100.4162	3103.965	3105.2752	3116.5745	3167.9991	3798.0286
CCC1C2CCCC12O	CC[C@H]1[C@H]2CCC[C@@]12O	
InChI=1S/C8H14O/c1-2-6-7-4-3-5-8(6,7)9/h6-7,9H,2-5H2,1H3	InChI=1S/C8H14O/c1-2-6-7-4-3-5-8(6,7)9/h6-7,9H,2-5H2,1H3/t6-,7+,8+/m0/s1
