17
gdb 84050	3.5842	1.20016	0.99645	3.7611	81.18	-0.2434	-0.0518	0.1915	1186.7295	0.137103	-380.870023	-380.862172	-380.861228	-380.902361	30.025	
C	-0.2352283175	 1.5879134609	 0.0534136194	-0.396432
C	 0.0333443006	 0.0821658832	-0.0097915991	 0.00339
C	 0.703667713	-0.408122033	-1.2754898679	-0.19463
C	 1.7623638937	-1.1763396119	-0.9819906537	 0.22025
C	 2.6102815597	-1.8426795461	-1.9056482397	 0.198002
N	 3.3161050636	-2.4026383433	-2.6337269297	-0.334502
C	 1.9620733307	-1.2260003074	 0.5045094933	-0.141761
C	 2.2719967851	 0.0939251076	 1.1223307537	-0.241401
N	 0.8907599873	-0.4073659314	 1.101900793	-0.103851
H	 0.681108604	 2.1700342849	-0.076623698	 0.124371
H	-0.9374344876	 1.8814356838	-0.7323988731	 0.125608
H	-0.6751998773	 1.8456646697	 1.0202502814	 0.13909
H	-0.9353680145	-0.4291098612	 0.0951042159	 0.108756
H	 0.3654597819	-0.1591605095	-2.2740740535	 0.128147
H	 2.2322097555	-2.1635202585	 0.9804880702	 0.115467
H	 2.70732465	 0.1423584093	 2.1160808628	 0.12772
H	 2.5668237218	 0.8936910927	 0.4481314349	 0.121775
111.2088	144.2423	198.758	230.2151	271.1081	389.196	421.1933	492.6681	541.6347	572.4488	649.1525	709.4255	735.7889	825.0817	869.9798	878.5501	901.1422	955.7499	1035.8779	1042.2238	1081.3504	1108.5881	1110.9521	1133.2104	1155.4517	1189.9397	1255.0875	1277.6245	1326.3487	1344.4791	1361.2088	1406.6743	1488.8848	1497.329	1498.1416	1663.4338	2340.5721	2987.2315	3046.9877	3110.1168	3118.8314	3127.5392	3161.0367	3200.7823	3213.8989
CC1C=C(C#N)C2CN12	C[C@H]1C=C(C#N)[C@H]2CN12	
InChI=1S/C7H8N2/c1-5-2-6(3-8)7-4-9(5)7/h2,5,7H,4H2,1H3	InChI=1S/C7H8N2/c1-5-2-6(3-8)7-4-9(5)7/h2,5,7H,4H2,1H3/t5-,7+,9?/m0/s1
