19
gdb 88790	2.80071	1.35718	1.09706	2.2906	76.95	-0.2187	0.0265	0.2452	1158.215	0.15959	-419.195259	-419.186529	-419.185585	-419.228833	32.602	
C	 0.0746996423	 1.5333864732	-0.3268529393	-0.438517
C	-0.0751925183	 0.0632854838	-0.0058144692	 0.031897
C	 1.0728727267	-0.8795144739	-0.1457922815	-0.267647
N	 0.5331257892	-0.5522414964	 1.1768549871	-0.10564
C	 1.3025232677	 0.2315491255	 2.1102088865	-0.098936
C	 2.0628558675	-0.5833783799	 3.2065743636	-0.176858
N	 3.2752464855	 0.1369728307	 2.8088753767	-0.317252
C	 2.7181651227	 0.8190429935	 1.7621162541	 0.41239
O	 3.1797141594	 1.5546718356	 0.9253396953	-0.37105
H	 1.0981811883	 1.881932501	-0.166226481	 0.167866
H	-0.1908661526	 1.7117953204	-1.374524639	 0.118139
H	-0.6023837	 2.1391875409	 0.2868179831	 0.113711
H	-1.069989003	-0.3363436152	-0.2013960953	 0.088299
H	 0.9181409525	-1.9045035666	-0.4729800441	 0.109949
H	 2.0272513825	-0.4435861632	-0.4323199433	 0.135616
H	 0.6612977629	 1.0021852859	 2.5488262752	 0.109687
H	 1.7503948644	-0.4096334249	 4.2403900359	 0.113511
H	 2.0883709134	-1.6560885244	 2.9956934135	 0.122022
H	 4.230964159	 0.0761826739	 3.1261649917	 0.252813
71.0489	120.846	159.378	174.8333	253.7683	271.0652	347.1578	411.8635	456.2359	511.1594	531.1941	669.0828	739.0407	772.6495	814.642	884.3052	915.0552	926.5827	972.4841	993.135	1047.4377	1080.0065	1114.7191	1124.3814	1155.6708	1166.3786	1173.2449	1181.1688	1197.5308	1206.2425	1293.7781	1336.6279	1358.5067	1392.3531	1403.2714	1431.4264	1503.4199	1508.1874	1512.9503	1526.9527	1866.9414	3027.7431	3049.4437	3069.2437	3086.4991	3100.2528	3103.0423	3104.1913	3129.0223	3189.4115	3616.4884
CC1CN1C1CNC1=O	C[C@H]1CN1[C@H]1CNC1=O	
InChI=1S/C6H10N2O/c1-4-3-8(4)5-2-7-6(5)9/h4-5H,2-3H2,1H3,(H,7,9)	InChI=1S/C6H10N2O/c1-4-3-8(4)5-2-7-6(5)9/h4-5H,2-3H2,1H3,(H,7,9)/t4-,5-,8?/m0/s1
