13
gdb 128894	4.393	1.24826	1.05989	3.6829	68.41	-0.2796	-0.0111	0.2685	1059.9278	0.092238	-411.775593	-411.768754	-411.76781	-411.807624	24.435	
N	-0.320289578	-1.1951391282	-0.2236843242	-0.304357
C	-0.1562600686	-0.0556703039	-0.1292383072	 0.304085
C	 0.0331582865	 1.3811492925	 0.002273125	-0.32757
C	-0.2543196944	 1.9932749544	 1.454349278	-0.176155
N	 1.1648086984	 2.3850390031	 1.4322234784	 0.08543
N	 2.1963496131	 3.0771521054	 1.9583587614	-0.274905
C	 3.0878912786	 2.9166414759	 0.9707853887	 0.02912
N	 2.6827471454	 2.2052822309	-0.1370837186	-0.368153
C	 1.4556018153	 1.9049153993	 0.2307052118	 0.399277
H	-0.510293649	 1.9031263793	-0.7895259321	 0.165
H	-0.9512098386	 2.8331507615	 1.458127889	 0.159812
H	-0.5088850793	 1.264829511	 2.2252005466	 0.168165
H	 4.0817732708	 3.3307027588	 1.0530046633	 0.140252
76.6523	118.4747	169.4549	299.0923	419.5699	496.0207	556.7816	666.5524	692.0627	755.9569	802.828	865.362	891.132	956.9851	1002.9518	1051.5461	1127.0667	1136.8658	1156.9683	1169.9086	1245.503	1260.6126	1301.7241	1333.0879	1399.6471	1482.891	1511.7008	1579.7362	2367.9684	3084.3932	3090.5741	3153.1665	3264.426
N#CC1CN2N=CN=C12	N#C[C@H]1Cn2ncnc12	
InChI=1S/C5H4N4/c6-1-4-2-9-5(4)7-3-8-9/h3-4H,2H2	InChI=1S/C5H4N4/c6-1-4-2-9-5(4)7-3-8-9/h3-4H,2H2/t4-/m0/s1
