18
gdb 26479	3.6413	1.25652	1.03662	3.9271	78.31	-0.2103	0.0341	0.2444	1165.2658	0.150211	-398.147146	-398.139199	-398.138255	-398.179848	30.512	
C	-0.2289145757	 1.382642815	-0.707061784	-0.473887
C	-0.0457174851	 0.0210302314	-0.0693443835	 0.174594
C	 1.0524118532	-0.8590848627	-0.5756526684	-0.262666
N	 1.1551306433	-0.2388431826	 0.7560083278	-0.366207
C	-1.2741016495	-0.5915778923	 0.4907432223	 0.323822
C	-2.6052351786	-0.5546342989	 0.1511139473	-0.196554
N	-3.3508721623	-1.3313837552	 1.0093437611	-0.259481
C	-2.4842017176	-1.8307857861	 1.8615851366	 0.008071
N	-1.2152637849	-1.4194218409	 1.5890209252	-0.301782
H	 0.7170515359	 1.7534114144	-1.1146994539	 0.110827
H	-0.9498485662	 1.3338497107	-1.5294837966	 0.137155
H	-0.6046407465	 2.1075606089	 0.021934525	 0.1342
H	 0.9256301627	-1.9376926565	-0.5692091877	 0.122758
H	 1.6795903821	-0.4783850938	-1.377820315	 0.115903
H	 1.7819830126	 0.5612178758	 0.7296198874	 0.234155
H	-3.0694129528	-0.0183798496	-0.662649607	 0.100148
H	-2.7136525009	-2.4870612456	 2.6877612378	 0.125857
H	-0.3642061698	-1.5860663524	 2.1033596555	 0.273087
65.6146	146.3741	192.9636	228.1973	314.8566	352.1838	415.6576	482.9328	551.8843	621.1444	697.4234	703.1404	808.0251	816.3545	832.7669	850.5911	929.7697	936.9171	976.6607	990.455	1017.5803	1054.3099	1096.1512	1116.4908	1135.6117	1149.7427	1202.1425	1259.3606	1273.907	1322.1006	1351.4071	1402.0547	1419.5197	1427.138	1482.4561	1493.5255	1502.8875	1512.7378	1609.9498	3033.5303	3103.8779	3106.1817	3108.4087	3197.0069	3245.9124	3251.502	3502.8947	3642.8058
CC1(CN1)C1=CN=CN1	C[C@]1(CN1)c1cnc[nH]1	
InChI=1S/C6H9N3/c1-6(3-9-6)5-2-7-4-8-5/h2,4,9H,3H2,1H3,(H,7,8)	InChI=1S/C6H9N3/c1-6(3-9-6)5-2-7-4-8-5/h2,4,9H,3H2,1H3,(H,7,8)/t6-/m0/s1
