12
gdb 20767	3.55749	1.92493	1.25882	1.3157	62.26	-0.284	-0.0498	0.2341	877.9955	0.084386	-377.539077	-377.532196	-377.531252	-377.57048	24.313	
C	-0.0356428118	 1.4831219239	 0.052559447	-0.501429
C	-0.0127609751	-0.008526952	 0.0428535881	 0.319889
N	-0.0358417136	-0.6811252208	-1.0787917409	-0.180491
O	-0.0043676029	-2.0358840323	-0.723412061	-0.155237
C	 0.0367427857	-2.1397163477	 0.5993123263	 0.011358
C	 0.0349939835	-0.900532804	 1.1708570162	-0.022018
C	 0.0709089229	-0.5629278564	 2.5429699816	 0.203936
N	 0.1004407979	-0.2597806255	 3.6600713665	-0.334073
H	 0.85549419	 1.8792583983	 0.5491323181	 0.157111
H	-0.0721185892	 1.8619429163	-0.9697603329	 0.160592
H	-0.9073559246	 1.8518881141	 0.6018891678	 0.157104
H	 0.0643561272	-3.1363835139	 1.0117161632	 0.183257
115.8881	135.1167	183.275	274.7983	330.6065	526.6488	542.8537	581.0338	613.0529	701.1516	701.9495	872.2415	891.0084	931.5068	1032.0155	1068.4179	1172.3431	1194.5887	1306.1027	1391.8586	1426.7472	1473.0574	1478.379	1531.7939	1629.4135	2353.6183	3049.8991	3109.3979	3150.9621	3271.3877
CC1=NOC=C1C#N	Cc1nocc1C#N	
InChI=1S/C5H4N2O/c1-4-5(2-6)3-8-7-4/h3H,1H3	InChI=1S/C5H4N2O/c1-4-5(2-6)3-8-7-4/h3H,1H3
