20
gdb 90926	2.48542	1.68217	1.45678	0.6992	77.18	-0.227	0.0644	0.2914	1013.4673	0.172301	-403.116731	-403.108771	-403.107827	-403.148741	31.936	
C	-0.1446409505	 1.512058624	-0.0695254053	-0.513332
C	 0.1018977047	 0.0390343073	 0.0311730603	 0.323256
C	 0.8095934085	-0.850803773	-0.9187004788	-0.068633
C	 1.7365970691	-1.824567317	-0.202609912	-0.286539
C	 1.4830769759	-1.5412751374	 1.3061262978	 0.149359
O	 2.4830622424	-0.7165448643	 1.8852324863	-0.442295
C	 0.1047472192	-0.8706982276	 1.2981888894	-0.138062
C	-0.9069467833	-1.7457881932	 0.5253804899	-0.171174
N	-0.6733424944	-0.9920502073	-0.7538436846	-0.188443
H	 0.6832357475	 2.0879585925	 0.3616043682	 0.11411
H	-0.2549564325	 1.8084234191	-1.1168818475	 0.133552
H	-1.059469775	 1.8002876822	 0.4598991456	 0.126545
H	 1.0647951657	-0.4951641763	-1.9115675847	 0.093107
H	 1.5293922596	-2.8654238141	-0.4723179312	 0.111267
H	 2.7861193422	-1.6321609497	-0.4440973924	 0.108483
H	 1.4866993877	-2.4575873627	 1.9047050685	 0.085817
H	 2.5141220624	 0.1051303284	 1.3822590295	 0.280204
H	-0.1948866104	-0.4566875249	 2.2606523817	 0.074537
H	-0.7166572045	-2.8247192609	 0.4755492141	 0.096778
H	-1.9430750242	-1.5858053752	 0.8312120452	 0.111465
119.8703	180.5675	211.1652	287.4153	295.5831	336.3531	404.0783	424.6343	478.7251	587.2397	679.9733	715.0369	762.6586	803.6112	828.8391	882.543	903.2093	931.6811	934.1124	993.6912	1004.5375	1038.6211	1068.5984	1091.5047	1107.571	1117.7266	1159.0775	1182.1553	1197.1434	1230.3204	1251.8519	1284.7138	1298.6292	1302.4054	1306.4352	1334.1049	1410.679	1426.42	1446.3781	1477.778	1482.2476	1493.4037	1515.0857	3024.0753	3030.9295	3048.5223	3068.6796	3082.9719	3093.0102	3101.6793	3109.1368	3119.8474	3166.5931	3797.7216
CC12C3CC(O)C1CN23	C[C@@]12[C@H]3C[C@@H](O)[C@@H]1CN23	
InChI=1S/C7H11NO/c1-7-4-3-8(7)6(7)2-5(4)9/h4-6,9H,2-3H2,1H3	InChI=1S/C7H11NO/c1-7-4-3-8(7)6(7)2-5(4)9/h4-6,9H,2-3H2,1H3/t4-,5+,6+,7-,8?/m0/s1
