12
gdb 45001	3.69704	1.33878	1.11853	4.0812	59.87	-0.3068	-0.0221	0.2848	1013.4574	0.077641	-472.652467	-472.645631	-472.644686	-472.684046	25.39	
O	 0.0226255355	 0.0261354762	 0.0309653624	-0.338447
C	-0.0135062772	 1.2080114817	 0.0115467206	 0.492482
O	-1.1529495382	 1.9643868829	 0.039834682	-0.234119
C	-0.8267009024	 3.3289303791	 0.0495341645	 0.034951
C	-0.0517360308	 3.8404197067	 1.2278086915	-0.362937
C	 0.6833060755	 3.3742562448	-0.0166123699	 0.256016
O	 1.0899163353	 2.0242321196	-0.0135719747	-0.267415
C	 1.4627333666	 4.2473739214	-0.8427571938	 0.25253
N	 2.0714503926	 4.984424895	-1.4922326815	-0.322266
H	-1.4912345365	 3.9449341441	-0.540449717	 0.160895
H	-0.0782502554	 4.9110383869	 1.394911473	 0.164694
H	 0.0377040251	 3.2194936317	 2.1125489529	 0.163617
115.5324	158.569	190.0564	340.2981	450.6802	477.1649	497.2599	568.0249	613.2036	718.1939	762.6631	787.2476	862.1568	884.0297	930.4908	981.3521	1023.649	1041.7601	1084.1488	1125.7645	1160.9723	1246.0655	1285.1982	1392.7415	1455.783	1952.2299	2365.4392	3143.3259	3221.8221	3244.8131
O=C1OC2CC2(O1)C#N	O=C1O[C@H]2C[C@]2(O1)C#N	
InChI=1S/C5H3NO3/c6-2-5-1-3(5)8-4(7)9-5/h3H,1H2	InChI=1S/C5H3NO3/c6-2-5-1-3(5)8-4(7)9-5/h3H,1H2/t3-,5-/m0/s1
