20
gdb 26089	3.11282	1.23379	1.09829	2.1021	80.3	-0.2351	0.0079	0.2431	1199.2004	0.170563	-403.194899	-403.185844	-403.1849	-403.228524	34.278	
C	 0.2056736685	 1.5102047519	 0.2439185778	-0.411641
C	 0.0186442746	 0.0012785065	 0.0083919826	 0.123009
C	 0.5769255822	-0.7879036273	 1.2141949543	-0.404447
C	-1.483694607	-0.3173478958	-0.1644804555	-0.404462
C	 0.760040407	-0.3947664054	-1.2348267897	 0.375717
C	 1.5234712148	 0.2426174852	-2.1581015793	-0.223528
N	 1.9603617749	-0.6643810621	-3.120457413	-0.261377
C	 1.4500075244	-1.7867550031	-2.7408404851	 0.063759
O	 0.7090043301	-1.7182025611	-1.6101917009	-0.195161
H	 1.2617493041	 1.7653416666	 0.3759864728	 0.120496
H	-0.1865127538	 2.0961313031	-0.593163441	 0.120493
H	-0.3298184831	 1.8149941433	 1.1481494469	 0.115196
H	 0.0327076354	-0.5206262831	 2.1259726584	 0.111777
H	 0.4751291164	-1.8653305182	 1.0588840501	 0.126419
H	 1.6369794989	-0.5659346077	 1.3713021827	 0.118502
H	-1.9098689987	 0.2441959944	-1.0015702664	 0.1185
H	-1.6392606162	-1.382443263	-0.3560682224	 0.126423
H	-2.0343090541	-0.048893476	 0.7431059628	 0.111779
H	 1.7935094864	 1.2847512298	-2.2062203994	 0.122018
H	 1.5382275752	-2.7570892778	-3.2039207958	 0.146529
58.6377	143.9711	190.5342	222.0532	275.6587	277.7722	324.4469	332.4609	332.8863	431.0232	473.5855	589.2034	667.2882	721.715	827.1946	833.0577	861.2266	931.0022	936.6549	946.6306	962.3135	972.9159	1043.6222	1048.7227	1125.6104	1130.0017	1150.2263	1226.0658	1227.9587	1263.4656	1302.5357	1346.4898	1394.2606	1396.8649	1428.852	1476.2917	1488.0983	1490.0353	1501.2648	1501.3038	1519.4858	1551.4965	1626.7781	3033.2752	3033.3043	3039.8809	3103.1454	3105.2913	3107.8738	3111.2602	3116.2166	3119.9387	3270.7814	3275.8437
CC(C)(C)C1=CN=CO1	CC(C)(C)c1cnco1	
InChI=1S/C7H11NO/c1-7(2,3)6-4-8-5-9-6/h4-5H,1-3H3	InChI=1S/C7H11NO/c1-7(2,3)6-4-8-5-9-6/h4-5H,1-3H3
