18
gdb 115551	2.02766	1.54838	1.14087	2.411	73.31	-0.2619	0.0121	0.2741	1144.7881	0.145741	-439.070911	-439.061474	-439.06053	-439.105223	34.162	
C	 0.1543731937	 1.0108365281	 0.4876656087	-0.248923
O	-0.2819172696	 0.1915238035	-0.5838027721	-0.225155
C	-1.4023445294	-0.5637145306	-0.2930393034	 0.138456
C	-1.8793907635	-1.4921690421	-1.4242844703	-0.275187
C	-2.1822125454	-2.5827226455	-0.3619060641	-0.276689
C	-1.2346686969	-1.8401948304	 0.6323845902	 0.212004
O	 0.1070247965	-2.265773104	 0.5588563091	-0.452294
C	-1.6882813509	-1.7318474525	 2.0217618833	 0.221593
N	-2.0566659415	-1.6513050601	 3.1153937635	-0.339848
H	 0.989305485	 1.6062445096	 0.113017397	 0.133102
H	-0.6454782941	 1.685603695	 0.8270208778	 0.111856
H	 0.4969546288	 0.4083932258	 1.3381250465	 0.132584
H	-2.2218479855	 0.0538482932	 0.1059662477	 0.084373
H	-2.7045768285	-1.1402845133	-2.0439180971	 0.112122
H	-1.0340625019	-1.7666642067	-2.0574216877	 0.134822
H	-3.2199144021	-2.574272502	-0.0219781123	 0.127277
H	-1.8851627193	-3.6081107853	-0.5898163607	 0.116057
H	 0.1713669045	-3.134385303	 0.972637634	 0.293851
80.6942	98.2245	146.5521	172.0278	202.3664	256.0607	271.9513	317.8826	381.1899	428.9799	489.6781	548.1349	591.0416	629.079	724.217	786.2028	922.2642	939.6932	954.5721	988.5121	1033.4619	1124.548	1128.2962	1166.6581	1174.7707	1188.8468	1216.6635	1239.9169	1264.0426	1268.2043	1310.9405	1344.4324	1395.5822	1467.5313	1480.3499	1486.9978	1494.3142	1506.0534	2340.9361	2986.0098	2994.7585	3060.5674	3074.343	3088.3075	3128.3767	3130.0082	3150.1945	3798.2969
COC1CCC1(O)C#N	CO[C@H]1CC[C@]1(O)C#N	
InChI=1S/C6H9NO2/c1-9-5-2-3-6(5,8)4-7/h5,8H,2-3H2,1H3	InChI=1S/C6H9NO2/c1-9-5-2-3-6(5,8)4-7/h5,8H,2-3H2,1H3/t5-,6-/m0/s1
