21
gdb 115543	2.17466	1.28968	1.14204	3.2897	83.65	-0.2333	0.0272	0.2605	1248.034	0.181421	-383.27156	-383.261653	-383.260709	-383.306258	36.26	
C	-0.097364057	 1.606769416	-0.1588399686	-0.38671
C	 0.0344338358	 0.1007174674	 0.0584682807	-0.13658
N	-1.272355147	-0.524375141	 0.1868622122	-0.081631
C	-2.0835600808	-0.3038176615	 1.4008125338	-0.170449
C	-2.6200475304	-1.7459166862	 1.2610383149	-0.271469
C	-1.4094985548	-1.9969439748	 0.3036514477	 0.157402
C	-1.6587489972	-2.7276365829	-1.0136171427	-0.440637
C	-0.2889184877	-2.6288420931	 1.0341573695	 0.250157
N	 0.6072639069	-3.0911362516	 1.6009814442	-0.350376
H	 0.889606663	 2.0627329342	-0.2794238558	 0.119801
H	-0.693440755	 1.8191162955	-1.0509813451	 0.12433
H	-0.5825283582	 2.0894916931	 0.6960291045	 0.121201
H	 0.5387692146	-0.3552082333	-0.8018737635	 0.108274
H	 0.6687492669	-0.0976702874	 0.9407012314	 0.101278
H	-1.4789254169	-0.1719681675	 2.312108491	 0.103274
H	-2.8021754256	 0.517510224	 1.3289041312	 0.109628
H	-2.6687053347	-2.3563475476	 2.1613677948	 0.126648
H	-3.5646339358	-1.8029606404	 0.7179644396	 0.119212
H	-2.4905095292	-2.2478680646	-1.5344349686	 0.127899
H	-0.7743986768	-2.6880711889	-1.6565612631	 0.135249
H	-1.9002919501	-3.7797314195	-0.8343786779	 0.133499
81.0952	104.4909	126.848	190.583	194.7349	223.4976	235.3431	268.4942	331.4961	400.5716	426.9866	524.07	623.5463	630.8756	698.8934	762.6564	808.6844	878.6456	908.3839	957.8564	980.634	999.1915	1023.6467	1100.5292	1125.7173	1142.8913	1178.5194	1203.0329	1209.214	1237.9023	1254.8261	1269.1701	1308.2739	1340.6381	1393.37	1403.364	1412.6804	1480.1704	1481.9773	1488.7407	1491.0392	1493.2608	1509.8727	1527.1677	2337.2171	2949.0015	2980.607	3039.34	3042.8994	3050.4169	3074.356	3092.7064	3107.6097	3115.9397	3119.7526	3132.5253	3158.5051
CCN1CCC1(C)C#N	CCN1CC[C@]1(C)C#N	
InChI=1S/C7H12N2/c1-3-9-5-4-7(9,2)6-8/h3-5H2,1-2H3	InChI=1S/C7H12N2/c1-3-9-5-4-7(9,2)6-8/h3-5H2,1-2H3/t7-/m1/s1
