17
gdb 13685	5.17215	1.02852	0.97389	4.2645	67.32	-0.2579	0.0249	0.2827	1227.2244	0.140557	-400.972445	-400.963738	-400.962794	-401.006685	30.228	
C	 0.3831970124	 1.2840742554	-0.3358240056	-0.42285
C	 0.305516183	-0.1290293965	 0.1854551443	 0.079765
O	 1.5026083168	-0.7157980243	 0.7093696652	-0.25786
C	 0.394857578	-0.5271334553	 1.6010813094	 0.048354
C	 0.5988748129	 0.4356276549	 2.7433798372	-0.123737
O	 1.259404287	-0.1917675256	 3.842354146	-0.186695
C	 2.5970493224	-0.3578912567	 3.7212694131	 0.127371
N	 3.2346796428	-0.9459778461	 4.6370230272	-0.438889
H	 0.8617088688	 1.2906083055	-1.3204696873	 0.137093
H	-0.6224457465	 1.7022330702	-0.4512725224	 0.129059
H	 0.9599610134	 1.9368330617	 0.3217976045	 0.128088
H	-0.255815552	-0.8084326278	-0.4594082337	 0.097172
H	-0.0940059336	-1.4557284625	 1.9003875868	 0.108863
H	 1.1569155423	 1.3193387783	 2.4167894637	 0.113253
H	-0.3677183659	 0.7617811882	 3.1385343172	 0.127655
H	 3.0086148838	 0.0579263651	 2.7938180003	 0.104256
H	 4.2245762743	-0.9764312846	 4.4016137541	 0.229103
49.8153	76.1459	119.6713	163.0892	204.1902	274.2824	325.5819	394.9848	464.5118	499.312	653.761	766.3274	821.9814	840.2334	904.6868	969.9357	986.9587	1023.4877	1046.4271	1093.7736	1114.8098	1135.8821	1172.2629	1187.3422	1252.609	1302.9102	1323.3068	1374.5243	1409.0579	1417.7419	1429.4154	1467.0763	1486.0969	1490.3268	1512.2759	1746.2119	3041.0565	3046.4876	3056.5955	3084.5929	3097.1588	3104.1103	3110.326	3138.7633	3517.4309
CC1OC1COC=N	C[C@H]1O[C@H]1CO[CH][NH]	
InChI=1S/C5H9NO2/c1-4-5(8-4)2-7-3-6/h3-6H,2H2,1H3	InChI=1S/C5H9NO2/c1-4-5(8-4)2-7-3-6/h3-6H,2H2,1H3/t4-,5+/m1/s1
