20
gdb 60242	3.03992	0.93397	0.85299	1.5546	76.62	-0.2598	0.0308	0.2906	1440.4533	0.169971	-440.286561	-440.276914	-440.275969	-440.321689	35.11	
C	 0.0817022942	 1.5629411931	 0.0273203541	-0.400332
C	 0.0223604487	 0.0362029635	-0.0113369654	 0.120175
O	 0.7023421215	-0.5319544263	 1.1115566808	-0.437728
C	-1.4134863456	-0.489079028	 0.0568737738	-0.207941
C	-1.4791270713	-2.0077132713	-0.0920438236	-0.130287
C	-2.8634050758	-2.6880268165	-0.1734330757	-0.114053
O	-2.5465800307	-3.1916103768	-1.5105222497	-0.255212
C	-1.3159080316	-2.5690143998	-1.4928415855	 0.440874
N	-0.4247185867	-2.502846717	-2.3744012486	-0.5479
H	 1.1206450831	 1.9096731961	 0.0038075584	 0.106216
H	-0.4342872457	 2.0002113827	-0.8339179739	 0.115779
H	-0.3812886911	 1.942208358	 0.9441909073	 0.120225
H	 0.4743692016	-0.3259299968	-0.9457214971	 0.107704
H	 1.6454604769	-0.3862996609	 0.9923306368	 0.284753
H	-1.8430802224	-0.2006587517	 1.0247044709	 0.106231
H	-2.0120487437	-0.0082125066	-0.7251698652	 0.100964
H	-0.8007613481	-2.4729552646	 0.6258339562	 0.126526
H	-3.0513934534	-3.5108113584	 0.5201588147	 0.120831
H	-3.7247795634	-2.0149440331	-0.208419592	 0.117245
H	-0.6989168865	-3.0071311157	-3.2196426962	 0.225931
58.3452	84.1568	102.8433	172.4245	231.2529	243.3352	266.692	310.8506	362.3633	444.5461	465.0789	489.341	666.8827	750.1056	805.5699	840.7299	863.2786	891.5632	950.1476	953.0287	968.2729	1015.6953	1044.3755	1080.6742	1110.6313	1120.4118	1151.153	1167.1684	1194.7969	1237.5344	1258.1535	1294.2959	1321.2749	1351.5393	1379.8136	1399.3774	1407.0693	1429.5945	1472.3992	1492.5714	1498.4439	1516.012	1815.7999	3009.928	3026.5781	3030.901	3057.1031	3073.4822	3097.4923	3102.8034	3109.9321	3119.3727	3470.959	3830.3372
CC(O)CC1COC1=N	C[C@@H](O)C[C@H]1CO[C]1[NH]	
InChI=1S/C6H11NO2/c1-4(8)2-5-3-9-6(5)7/h4-5,7-8H,2-3H2,1H3	InChI=1S/C6H11NO2/c1-4(8)2-5-3-9-6(5)7/h4-5,7-8H,2-3H2,1H3/t4-,5+/m1/s1
