14
gdb 99441	3.38501	0.75428	0.63175	3.1001	85.52	-0.267	-0.0483	0.2187	1680.6168	0.097561	-399.47772	-399.468113	-399.467169	-399.512972	33.033	
C	 0.1539052065	 1.4031105781	 0.0910085863	-0.246206
O	-0.1632048861	 0.0303975965	-0.0965347746	-0.226051
C	 0.5427726436	-0.5688555091	-1.1586232048	-0.241085
C	 1.9972607887	-0.6735215992	-0.8578903049	 0.28684
N	 3.1260107354	-0.7123423176	-0.6165021788	-0.320377
C	-0.0185897898	-1.8876325925	-1.4331258072	 0.351696
C	-0.4823627137	-2.9705384688	-1.6996170919	-0.100111
C	-1.0043143504	-4.1928122087	-1.9885346956	 0.287866
C	-1.4681709485	-5.2764796667	-2.2469652326	-0.548621
H	 1.2070278825	 1.5422250319	 0.3673015497	 0.140415
H	-0.0594526731	 1.988514578	-0.8151621591	 0.118124
H	-0.481807639	 1.7544875639	 0.9046612759	 0.147319
H	 0.457254847	 0.0498437256	-2.0705035225	 0.14701
H	-1.874554673	-6.2319405914	-2.47115991	 0.203179
64.3195	79.5523	108.9839	165.8554	198.8818	229.0935	262.2028	351.3764	354.4844	441.7725	505.7322	550.9466	565.9085	599.6359	607.8947	626.6264	822.0435	906.4679	979.99	1118.1679	1179.9556	1186.2981	1210.9267	1326.7306	1343.5245	1476.4426	1487.6059	1506.6032	2189.2289	2357.8837	2375.3983	2942.4213	2996.197	3060.3422	3142.9916	3501.6296
COC(C#N)C#CC#C	CO[C@@H](C#N)C#CC#C	
InChI=1S/C7H5NO/c1-3-4-5-7(6-8)9-2/h1,7H,2H3	InChI=1S/C7H5NO/c1-3-4-5-7(6-8)9-2/h1,7H,2H3/t7-/m1/s1
