19
gdb 53500	3.44413	0.75827	0.69057	3.6568	82.2	-0.2333	0.0466	0.28	1692.5604	0.157497	-419.218501	-419.207538	-419.206593	-419.256682	37.327	
C	 0.1938249656	 1.5315916908	-0.3921981931	-0.496848
C	 0.079930626	 0.093426768	-0.1958806354	 0.045594
C	-0.0074850716	-1.0936019933	-0.0129973907	 0.078769
C	-0.1082959822	-2.5389266676	 0.1883169723	-0.316738
N	-1.4835421483	-3.0328209834	 0.1717990671	-0.093261
C	-2.27322121	-2.8256350114	-1.0264566518	-0.35454
C	-1.9313583017	-3.726280274	 1.2747788334	 0.457207
N	-3.2165645737	-4.2508213672	 1.1647752037	-0.570682
O	-1.2814573678	-3.8450416076	 2.3013316669	-0.409989
H	 0.9191405779	 1.9686237042	 0.3028511434	 0.152133
H	 0.5195051434	 1.7750898221	-1.409500943	 0.146002
H	-0.7666280635	 2.0304364017	-0.2221964446	 0.150427
H	 0.4830548246	-3.0560027953	-0.5825392567	 0.120882
H	 0.2998911848	-2.82317975	 1.1611947	 0.177889
H	-2.190935947	-3.6579759471	-1.7424945523	 0.113736
H	-3.3255574005	-2.678815631	-0.771790413	 0.142846
H	-1.9257291938	-1.9155711596	-1.5220471273	 0.146843
H	-3.5226918066	-4.5882505292	 0.2654873623	 0.250117
H	-3.4139012455	-4.8837375702	 1.9253063289	 0.259615
23.7182	36.0428	72.3122	117.4041	159.0579	173.1972	207.7574	297.0109	304.7934	371.0636	380.8269	437.9913	441.8541	567.2491	583.2136	600.4972	765.448	787.4462	795.4223	968.5521	1041.9006	1051.9913	1055.4461	1104.0918	1148.6201	1164.5458	1193.0882	1274.747	1310.8729	1381.4843	1414.4896	1424.5629	1472.7373	1477.3882	1479.2255	1487.8858	1505.1491	1519.6443	1624.7367	1777.116	2371.5013	2983.2246	2987.2244	3027.8365	3084.304	3088.2941	3090.0144	3104.6597	3123.691	3580.5844	3691.2526
CC#CCN(C)C(N)=O	CC#CCN(C)C(=O)N	
InChI=1S/C6H10N2O/c1-3-4-5-8(2)6(7)9/h5H2,1-2H3,(H2,7,9)	InChI=1S/C6H10N2O/c1-3-4-5-8(2)6(7)9/h5H2,1-2H3,(H2,7,9)
