19
gdb 111261	3.11088	1.23689	0.98515	2.6518	76.36	-0.2358	-0.0247	0.2111	1256.2132	0.156681	-423.015061	-423.005696	-423.004751	-423.049387	34.027	
C	 0.0295862763	 1.5060428088	-0.1612428675	-0.383306
C	-0.1318055548	-0.0075029468	 0.0198538941	-0.198992
C	 0.6501623949	-0.5400217062	 1.2184537083	-0.137977
C	 0.8008170558	-2.0618299372	 1.3927878211	-0.067619
O	 1.5183173403	-2.5290432269	 0.2512670126	-0.276054
C	 2.2875096292	-2.0286617715	 1.3778915328	 0.286586
C	 3.3527079953	-2.8875465493	 1.9694278986	-0.514367
C	 2.2148049704	-0.5090121151	 1.1995428339	 0.37868
O	 3.0285658398	 0.3674669953	 1.1870586961	-0.307898
H	 1.082412469	 1.7783684802	-0.2771958718	 0.142861
H	-0.5135725073	 1.8527145008	-1.045420645	 0.113166
H	-0.3592089368	 2.0530357685	 0.7049158799	 0.112577
H	-1.1932540454	-0.2564591109	 0.1477977236	 0.097488
H	 0.2081228826	-0.5344335727	-0.8775197004	 0.118126
H	 0.3245236248	-0.0546970042	 2.1491290919	 0.099142
H	 0.153498526	-2.7624724917	 1.9073786355	 0.113618
H	 2.9976519143	-3.9150464063	 2.0834232661	 0.138698
H	 4.2380077139	-2.8974061546	 1.3256968215	 0.147682
H	 3.6541851016	-2.5041211001	 2.9489182487	 0.137589
72.6261	108.6052	144.4078	163.6452	191.4856	241.4342	262.8152	310.5668	351.0637	500.3966	528.5589	627.0546	697.5018	739.619	766.0387	824.2086	847.728	902.3385	925.3955	976.6416	999.0989	1031.9012	1069.7156	1083.2069	1104.0429	1157.4606	1193.3582	1238.1224	1253.5728	1278.8607	1334.7826	1370.4146	1400.6306	1415.372	1451.7532	1478.9478	1488.9823	1492.7529	1498.5349	1509.6901	1887.7105	3022.3596	3025.2603	3036.2574	3042.9291	3076.6128	3103.8396	3109.6955	3119.9689	3125.6021	3191.3143
CCC1C2OC2(C)C1=O	CC[C@H]1[C@H]2O[C@@]2(C)C1=O	
InChI=1S/C7H10O2/c1-3-4-5(8)7(2)6(4)9-7/h4,6H,3H2,1-2H3	InChI=1S/C7H10O2/c1-3-4-5(8)7(2)6(4)9-7/h4,6H,3H2,1-2H3/t4-,6-,7+/m1/s1
