18
gdb 9357	7.71213	0.80881	0.7457	2.4503	66.62	-0.2608	0.0171	0.2779	1534.9037	0.150662	-422.09839	-422.088514	-422.08757	-422.134558	32.438	
C	-0.0337891523	 1.4606926257	 0.0423503361	-0.3855
C	 0.0172957965	-0.0555633216	-0.0200354947	-0.024961
O	 0.692733532	-0.4316053894	-1.2056212331	-0.223423
C	 0.7939508707	-1.8137175773	-1.3593431501	-0.17241
C	 1.5282204284	-2.1269142712	-2.6531181877	 0.411371
O	 1.9634145327	-1.3313774799	-3.43840812	-0.33455
O	 1.6201814475	-3.4669885286	-2.7906531924	-0.234483
C	 2.2934177028	-3.9139651778	-3.9739991757	-0.238395
H	 0.9769602764	 1.8777536278	 0.047865374	 0.131812
H	-0.5644883273	 1.8617381125	-0.8254665773	 0.131824
H	-0.5511803489	 1.78643111	 0.9495983879	 0.114571
H	 0.5414183437	-0.4644752381	 0.8607179512	 0.087377
H	-1.0010356444	-0.4805202829	-0.0129971255	 0.087382
H	 1.3433536225	-2.2876264847	-0.5277928434	 0.116348
H	-0.1942546262	-2.3035794312	-1.3965962436	 0.116338
H	 3.3219788882	-3.5448762891	-3.9953800488	 0.141843
H	 2.2796432257	-5.0030193365	-3.9306681054	 0.132983
H	 1.7758997319	-3.5600439478	-4.8692750316	 0.141873
35.121	66.7854	110.8286	117.5876	123.863	165.8949	246.0304	260.8106	330.782	352.2159	504.8636	599.4445	709.3085	822.0126	886.6881	931.233	1016.5073	1039.257	1065.8777	1152.6115	1179.9401	1188.4833	1190.7283	1208.4078	1225.3504	1249.8973	1296.4111	1388.1088	1407.4319	1443.4146	1474.8391	1482.2649	1483.2676	1491.0104	1498.8998	1499.8423	1532.112	1851.9285	2949.7963	2962.8994	2976.4732	2982.6523	3047.226	3051.7644	3121.7223	3125.541	3125.983	3158.9836
CCOCC(=O)OC	CCOCC(=O)OC	
InChI=1S/C5H10O3/c1-3-8-4-5(6)7-2/h3-4H2,1-2H3	InChI=1S/C5H10O3/c1-3-8-4-5(6)7-2/h3-4H2,1-2H3
