20
gdb 87178	2.76921	1.08959	0.98373	5.7001	75.19	-0.2416	0.0194	0.261	1288.9204	0.169872	-440.301913	-440.292095	-440.29115	-440.336714	36.526	
C	-0.0938206623	 1.6095628848	-0.7519520338	-0.462418
C	 0.0174770067	 0.1862718409	-0.2253831	 0.299447
C	-1.2540854171	-0.6294677997	-0.3778202822	-0.399565
C	-2.4484613496	-0.1455774706	 0.4540407635	 0.409751
O	-2.1651178872	 0.5165836827	 1.6004664035	-0.374486
O	-3.5873054864	-0.3580970234	 0.1427164628	-0.317466
C	 1.3628202518	-0.5082895425	-0.3728865647	-0.376626
C	 0.8628403114	-0.1046574103	 0.9980343432	-0.023299
N	 1.3703088364	 0.9639544685	 1.825755551	-0.530823
H	 1.6764765797	 1.7523542726	 1.2662706798	 0.234709
H	-1.2103012448	 0.6345530337	 1.7115690884	 0.325512
H	 2.1801881679	 0.6496455825	 2.3524340367	 0.239002
H	 0.8499817198	 2.157033613	-0.6776000064	 0.111293
H	-0.3709023331	 1.594060183	-1.8116261531	 0.132202
H	-0.8587305096	 2.1835393729	-0.2181194702	 0.137824
H	-1.594705096	-0.6615887503	-1.4171575351	 0.133821
H	-1.072570765	-1.670252254	-0.0812991241	 0.130262
H	 1.3898468835	-1.5627236591	-0.6294343183	 0.113885
H	 2.1636495105	 0.0784586807	-0.8125906701	 0.110515
H	 0.5119790632	-0.9315954254	 1.6123800193	 0.106459
61.5198	94.5762	130.9987	185.261	217.6728	243.9263	267.0185	322.9297	354.1334	435.8798	472.2882	510.359	570.0309	636.136	668.3669	741.5614	786.1597	858.1027	861.4664	898.2787	935.1401	959.5221	985.3558	1044.9775	1053.8685	1087.0782	1103.4143	1161.8531	1185.6456	1221.4174	1241.6035	1292.9528	1309.916	1336.3614	1353.2412	1422.2954	1439.3201	1462.6536	1492.0018	1496.2583	1509.5096	1654.8301	1865.4834	3032.6484	3037.2518	3091.1385	3096.2743	3104.9048	3121.2683	3123.082	3208.2032	3498.9787	3582.5198	3737.6248
CC1(CC([O-])=O)CC1[NH3+]	C[C@@]1(CC(=O)O)C[C@H]1N	
InChI=1S/C6H11NO2/c1-6(2-4(6)7)3-5(8)9/h4H,2-3,7H2,1H3,(H,8,9)	InChI=1S/C6H11NO2/c1-6(2-4(6)7)3-5(8)9/h4H,2-3,7H2,1H3,(H,8,9)/t4-,6+/m1/s1
