17
gdb 56487	2.10338	1.40647	0.87569	0.5013	85.82	-0.2575	0.0242	0.2817	1294.464	0.130874	-347.446788	-347.436556	-347.435612	-347.481796	37.628	
C	-0.0383723601	 1.5579483732	 0.0429178462	-0.403049
C	-0.032286156	 0.0187695938	 0.0103508204	-0.160011
C	-1.3950728557	-0.5046454197	 0.0218870479	 0.333932
C	-2.5310629484	-0.8966008869	 0.0148733039	-0.462691
C	 0.7513020486	-0.5293783888	-1.2413658778	-0.353189
C	 2.1190381843	-0.0026024507	-1.2892448934	 0.330488
C	 3.2383519766	 0.432215799	-1.3183443819	-0.444521
C	 0.7648616079	-1.994333452	-1.2702122609	 0.335013
C	 0.7822696677	-3.1945951453	-1.2820943205	-0.435093
H	 0.9828005495	 1.9440609642	 0.066466123	 0.136088
H	-0.5463810911	 1.9602279009	-0.8389741302	 0.126595
H	-0.5713393974	 1.9104383942	 0.9289800463	 0.129325
H	 0.4974833958	-0.3526773393	 0.8956628012	 0.125907
H	-3.5283192326	-1.2613899917	 0.0191304048	 0.197112
H	 0.2102492567	-0.1707189454	-2.128595825	 0.143924
H	 4.2305515007	 0.8095173012	-1.3537183332	 0.200908
H	 0.7924426035	-4.2563405669	-1.2975254808	 0.199261
54.5704	113.3296	136.7321	164.0431	193.6641	215.0941	259.7978	326.4622	341.7407	450.3051	485.0114	517.281	566.3001	568.4195	631.0159	635.2705	637.4686	646.3531	650.6688	651.6951	837.8478	878.8156	972.0673	1022.684	1057.5809	1093.6828	1133.8739	1242.121	1305.1318	1323.895	1341.6447	1407.8308	1494.7269	1495.7737	2236.62	2239.9041	2246.2984	3006.1119	3041.0413	3049.7072	3122.6229	3138.851	3502.8784	3504.8044	3505.3281
CC(C#C)C(C#C)C#C	C[C@@H](C#C)C(C#C)C#C	
InChI=1S/C9H8/c1-5-8(4)9(6-2)7-3/h1-3,8-9H,4H3	InChI=1S/C9H8/c1-5-8(4)9(6-2)7-3/h1-3,8-9H,4H3/t8-/m0/s1
