15
gdb 7619	4.75885	1.36306	1.21189	0.7817	62.97	-0.2553	-0.0326	0.2228	987.909	0.117201	-399.816678	-399.808734	-399.80779	-399.850027	28.055	
C	 0.3106565043	 0.2647642888	 0.9693788811	-0.482359
C	-0.3771906447	 0.7044134799	-0.3019394547	 0.35542
O	-0.1962759729	 1.7775181831	-0.8274670863	-0.29328
C	-1.3314709477	-0.2810199468	-0.9661973777	 0.028777
C	-0.6912472696	-1.2813507602	-1.9647789515	-0.367834
C	-1.1995702839	-2.3254094237	-0.9931625576	 0.435036
N	-1.173302448	-3.574848741	-0.9435284801	-0.529501
O	-1.7426452304	-1.3980308118	-0.1173212841	-0.2578
H	 0.9979995256	 1.0436816217	 1.2999179521	 0.145104
H	-0.435175316	 0.0603591962	 1.7445515004	 0.158877
H	 0.852993378	-0.674395282	 0.8125023221	 0.147771
H	-2.1987410987	 0.2598624023	-1.35076905	 0.123989
H	-1.1414226564	-1.3104601164	-2.9572133071	 0.153357
H	 0.3949348164	-1.2311144047	-2.0600556109	 0.148715
H	-1.6411685462	-3.9295683255	-0.1079735956	 0.233727
39.9285	80.2186	150.2339	201.4383	263.3137	411.6123	464.934	490.9341	511.0932	587.3705	718.7505	766.9774	867.7409	904.226	934.9013	960.7469	1000.8933	1012.3966	1030.6856	1053.7951	1123.2103	1205.2155	1227.5542	1248.1726	1299.2097	1337.2397	1386.0389	1453.8417	1464.2445	1470.2837	1815.518	1834.3847	3042.5623	3092.542	3097.812	3103.0253	3149.8993	3160.0095	3482.1446
CC(=O)C1CC(=N)O1	CC(=O)[C@H]1C[C]([NH])O1	
InChI=1S/C5H7NO2/c1-3(7)4-2-5(6)8-4/h4,6H,2H2,1H3	InChI=1S/C5H7NO2/c1-3(7)4-2-5(6)8-4/h4,6H,2H2,1H3/t4-/m1/s1
