15
gdb 73947	3.08755	1.2723	0.91117	2.4971	72.02	-0.2736	-0.0978	0.1758	1194.1402	0.111582	-457.831077	-457.82267	-457.821726	-457.864629	29.476	
C	 0.0636178835	 1.5418676874	 0.0233380071	-0.498186
C	-0.0459094018	 0.057965544	 0.0342767059	 0.026743
C	-1.0963956185	-0.7767167516	-0.0437437585	 0.103315
C	-0.6060963357	-2.1976928578	 0.0175802422	-0.174444
O	 0.8139069353	-2.0945189905	 0.1371650435	-0.231743
C	 1.1873792147	-0.7821561517	 0.1509631586	 0.437155
O	 2.3254652503	-0.4179412592	 0.2430065402	-0.341762
C	-2.523290789	-0.4638575188	-0.1696438593	 0.083267
O	-3.3775836315	-1.3207680068	-0.23070522	-0.256705
H	 0.7062327572	 1.8614125222	-0.8042613456	 0.163218
H	-0.9038191464	 2.0380360648	-0.0666569038	 0.135723
H	 0.5563082446	 1.8851523297	 0.9395247069	 0.163211
H	-1.0033967843	-2.7429248357	 0.8804122874	 0.151201
H	-0.852980877	-2.7671958814	-0.8848166838	 0.151203
H	-2.7830910713	 0.6135642855	-0.2065644708	 0.087803
93.6683	96.9858	167.7624	174.9179	229.9801	261.4211	298.9211	415.0964	473.5259	564.0383	628.9995	717.1102	765.9859	779.4339	885.6517	982.0897	1047.2773	1059.0286	1068.8995	1087.9477	1100.7095	1189.8173	1193.0264	1352.0845	1382.3308	1414.2934	1423.3427	1467.0103	1474.0024	1493.1377	1712.3727	1776.9386	1862.554	2924.285	3042.7171	3049.1277	3086.3699	3095.1851	3140.5737
CC1=C(COC1=O)C=O	CC1=C(COC1=O)C=O	
InChI=1S/C6H6O3/c1-4-5(2-7)3-9-6(4)8/h2H,3H2,1H3	InChI=1S/C6H6O3/c1-4-5(2-7)3-9-6(4)8/h2H,3H2,1H3
