15
gdb 20220	3.62286	3.06409	2.18834	0.9005	62.31	-0.2162	0.0602	0.2763	655.5751	0.121557	-362.572877	-362.567458	-362.566513	-362.602189	22.321	
C	 0.0110675978	 1.5420047346	 0.1509821121	-0.084037
O	 1.1905860895	 2.2100035864	-0.2674729507	-0.270121
C	 2.2491870802	 1.3498059752	-0.5515316715	 0.127709
C	 2.1528007263	 0.1903879206	-1.4986284027	-0.153111
C	 2.4128579083	-0.0381283435	-0.0087410567	-0.078938
N	 1.1210093309	-0.8157723865	 0.1679437996	-0.164402
C	-0.0037558867	 0.0756411648	-0.2037585553	-0.052557
C	 0.8136339849	-0.530878629	-1.2790360098	-0.054124
H	-0.1049146628	 1.6441683718	 1.2423221967	 0.103907
H	-0.8395970974	 2.0487706929	-0.3210148711	 0.113916
H	 3.173009008	 1.9155784863	-0.6214059535	 0.111991
H	 2.7924611352	 0.0415718171	-2.3583736859	 0.095312
H	 3.2844918147	-0.3949084296	 0.5266176937	 0.101968
H	-0.9587649487	-0.4062267953	-0.0042868096	 0.102485
H	 0.4463787097	-1.3161819058	-1.9316946253	 0.100003
145.9072	370.7077	481.7606	559.6068	606.8879	674.0615	719.1107	736.0566	762.8653	852.9753	867.619	917.8441	934.8	957.208	996.5879	1013.4653	1043.8368	1058.8333	1069.3102	1086.2938	1110.1557	1126.5955	1197.4711	1235.5406	1256.4619	1276.8987	1322.0421	1329.1116	1386.5827	1442.9506	1454.0205	1513.9334	2970.2468	3041.3271	3132.5664	3159.9247	3165.666	3179.2168	3200.7052
C1OC2C3C2N2C1C32	C1O[C@@H]2[C@H]3[C@@H]2N2[C@@H]1[C@@H]32	
InChI=1S/C6H7NO/c1-2-4-3-5(7(2)4)6(3)8-1/h2-6H,1H2	InChI=1S/C6H7NO/c1-2-4-3-5(7(2)4)6(3)8-1/h2-6H,1H2/t2-,3+,4-,5-,6+,7?/m0/s1
