18
gdb 103061	2.4804	1.45037	1.09871	3.6175	76.62	-0.2712	0.0225	0.2937	1135.8726	0.148116	-401.925006	-401.916472	-401.915528	-401.958487	31.971	
O	 0.1246428307	 1.2902314439	-0.4931746432	-0.414927
C	 0.0197925703	 0.0222830902	 0.1216872403	-0.146562
C	-1.3872594035	-0.5642286397	 0.0123196616	 0.135254
C	-2.34702975	 0.2293714959	 0.7452617223	 0.224971
N	-3.0680545215	 0.9129666495	 1.3393982445	-0.348227
C	-1.9664690807	-1.1820445503	-1.2528835764	-0.06443
C	-0.8873786055	-1.9392776457	-2.0342514966	-0.258505
C	-0.6428880676	-2.8413545868	-0.7788904567	-0.252725
C	-1.7202301827	-2.050432945	-0.0243635255	-0.092619
H	-0.4478648716	 1.9022137372	-0.0167847395	 0.29798
H	 0.7377907062	-0.6201768557	-0.3904478858	 0.12004
H	 0.3084966731	 0.0577138158	 1.1825189161	 0.107355
H	-2.9022000772	-0.8130170808	-1.6531808563	 0.112966
H	-1.306968462	-2.5048421285	-2.8680320615	 0.117742
H	-0.0494110594	-1.3442890431	-2.4061422118	 0.121757
H	-0.9542048145	-3.8727920681	-0.9544398878	 0.118065
H	 0.3607547999	-2.8560186255	-0.3454479079	 0.110795
H	-2.4318854241	-2.4615866129	 0.6807757141	 0.111069
56.0159	140.6263	150.4337	200.4758	263.1956	313.5694	353.1904	427.0662	448.1514	545.138	568.2174	681.7256	764.92	792.6495	844.2215	877.6543	930.0492	942.23	979.6626	1003.4246	1029.4177	1036.002	1073.1439	1093.0342	1101.0776	1158.7114	1218.7918	1226.9472	1256.4426	1261.0328	1285.8135	1289.3338	1380.8558	1387.7996	1424.6034	1481.4096	1499.8904	1510.6312	2341.6208	2998.8367	3064.1499	3071.4698	3110.2287	3114.696	3128.6991	3188.3887	3199.905	3799.7341
OCC1(C#N)C2CCC12	OC[C@@]1(C#N)[C@H]2CC[C@@H]12	
InChI=1S/C7H9NO/c8-3-7(4-9)5-1-2-6(5)7/h5-6,9H,1-2,4H2	InChI=1S/C7H9NO/c8-3-7(4-9)5-1-2-6(5)7/h5-6,9H,1-2,4H2/t5-,6+,7-
