14
gdb 132553	3.17239	1.4116	0.98284	1.8424	67.15	-0.2519	-0.0366	0.2153	1109.5121	0.101635	-478.051809	-478.044284	-478.04334	-478.084107	27.805	
C	-0.0731944328	 1.526258212	 0.0422397707	-0.503112
C	-0.0148729061	 0.0265518362	-0.0123925186	 0.082584
C	-0.0535605959	-0.7189730677	-1.187311561	-0.040821
N	-0.002089578	-2.0521944546	-1.2403077883	-0.299493
C	 0.0920279691	-2.6592274905	-0.0652187203	 0.460216
O	 0.1451244288	-3.9965718465	-0.0927726376	-0.387741
N	 0.1392873463	-2.0770284644	 1.1404817014	-0.406196
C	 0.0850615011	-0.7668195648	 1.1310984566	 0.297873
F	 0.1304359779	-0.1708176271	 2.3154923574	-0.055633
H	 0.8185730912	 1.9455985575	 0.5196120811	 0.143881
H	-0.1468501847	 1.9442128182	-0.9650352812	 0.131227
H	-0.9372865832	 1.873806171	 0.6180862499	 0.143883
H	-0.1309033318	-0.206137288	-2.1444028773	 0.123376
H	 0.2113168283	-4.2908577312	 0.8256123072	 0.309956
98.7728	128.5136	236.8207	261.9273	324.4462	365.8655	475.9182	497.6614	556.2233	573.4671	582.7895	740.0724	784.1416	788.6631	819.9412	981.2987	999.1484	1031.4697	1071.5931	1200.2658	1226.0346	1305.0452	1329.1375	1394.0245	1418.065	1470.0008	1480.2435	1489.4783	1510.4853	1615.7415	1667.008	3037.886	3093.7061	3119.2814	3149.6319	3788.0472
CC1=CN=C(O)N=C1F	Cc1cnc(O)nc1F	
InChI=1S/C5H5FN2O/c1-3-2-7-5(9)8-4(3)6/h2H,1H3,(H,7,8,9)	InChI=1S/C5H5FN2O/c1-3-2-7-5(9)8-4(3)6/h2H,1H3,(H,7,8,9)
