16
gdb 31457	5.35728	0.86845	0.78499	6.5855	80.78	-0.2112	-0.002	0.2091	1418.3872	0.126428	-396.976444	-396.96793	-396.966986	-397.010364	30.844	
C	 0.4247495861	 0.9750569762	 0.488650448	-0.331049
N	-0.1660892393	 0.1780614573	-0.5958074225	-0.390593
C	-1.365982522	-0.4800155458	-0.2957350917	 0.345163
C	-2.6765853567	-0.2269272327	-0.6212107869	-0.349908
C	-3.4621492072	-1.293638358	-0.0722424148	 0.17979
C	-2.5983113016	-2.1519445436	 0.5824364637	-0.169497
N	-1.3381504211	-1.6514399405	 0.43489314	-0.270391
C	-4.866737455	-1.4453306515	-0.1616856421	 0.194164
N	-6.0174124558	-1.5593668719	-0.2406231745	-0.354993
H	 1.3614897289	 1.4138783176	 0.1354357765	 0.129099
H	-0.2332765326	 1.7788371898	 0.8505441584	 0.119834
H	 0.6599880993	 0.3250289563	 1.3360896178	 0.127113
H	-0.2834073606	 0.7430466484	-1.42704395	 0.242001
H	-3.0497669802	 0.6194404061	-1.1750180937	 0.112361
H	-2.7947397639	-3.0598753254	 1.1271719546	 0.145584
H	-0.4900479884	-2.1023242123	 0.734113237	 0.271324
42.6834	117.8836	143.6576	181.0226	199.5948	378.1566	383.7501	500.9661	521.2996	558.2149	578.8472	660.4612	688.1287	690.1702	737.8305	772.0843	813.621	979.9133	988.9601	1051.1843	1134.7902	1141.3553	1157.1281	1185.348	1262.6045	1342.8417	1394.3832	1422.45	1457.1854	1488.5165	1489.5602	1512.6362	1559.326	1629.1027	2341.8072	2994.8037	3083.9409	3121.2246	3264.4835	3281.2956	3568.9359	3673.3191
CNC1=CC(=CN1)C#N	CNc1cc(c[nH]1)C#N	
InChI=1S/C6H7N3/c1-8-6-2-5(3-7)4-9-6/h2,4,8-9H,1H3	InChI=1S/C6H7N3/c1-8-6-2-5(3-7)4-9-6/h2,4,8-9H,1H3
