18
gdb 12485	3.23707	1.88352	1.33062	2.1733	67.79	-0.2365	-0.0122	0.2243	933.4459	0.155299	-384.962148	-384.954639	-384.953695	-384.994214	28.202	
O	-0.0592007306	 0.0783913687	 0.7197878682	-0.30502
C	-0.0533780993	 1.1915932198	 0.2445965377	 0.378034
C	-1.3567203936	 1.93402964	-0.0352093643	-0.275687
C	-1.5922284109	 2.092549241	-1.5541492843	-0.239956
C	-0.8749648113	 3.3076533867	-2.1687226658	-0.066232
O	 0.3705358663	 3.6290381879	-1.5734337027	-0.241266
C	 1.3019073304	 2.5670331522	-1.4808785028	-0.095565
C	 1.2549517304	 1.8924333451	-0.1009047512	-0.284593
H	-2.1577093742	 1.344383584	 0.4156577977	 0.117972
H	-1.3349357665	 2.9213539904	 0.4406198599	 0.117686
H	-1.2938690509	 1.1675022051	-2.0610373532	 0.114724
H	-2.6644898508	 2.2037502694	-1.7474269489	 0.112377
H	-0.7547441354	 3.1555554101	-3.2534860085	 0.093553
H	-1.4827272361	 4.2073782957	-2.0284998962	 0.112809
H	 1.1529763166	 1.8330989676	-2.2860682268	 0.100687
H	 2.2961641918	 3.0046443401	-1.6224581621	 0.114534
H	 1.4163679881	 2.6787261028	 0.6492808629	 0.128276
H	 2.0629310862	 1.1622298432	 0.0003907605	 0.117665
67.2321	142.1802	213.4546	260.1712	334.5555	365.903	455.5127	497.9477	561.6421	671.3076	734.0097	815.0667	845.3474	880.8503	893.9571	959.667	1005.3275	1036.3458	1054.8274	1104.108	1151.6762	1152.9938	1224.2319	1239.2404	1266.2307	1288.4291	1310.7976	1343.2558	1351.2488	1373.1572	1399.5379	1420.662	1448.8512	1471.0885	1492.0973	1500.5774	1512.8537	1805.6615	2976.2477	3001.4593	3024.4694	3037.7678	3045.4918	3064.0484	3065.9897	3085.2626	3100.3556	3115.3193
O=C1CCCOCC1	O=C1CCCOCC1	
InChI=1S/C6H10O2/c7-6-2-1-4-8-5-3-6/h1-5H2	InChI=1S/C6H10O2/c7-6-2-1-4-8-5-3-6/h1-5H2
