15
gdb 128223	5.21162	1.04892	0.88027	4.5675	73.89	-0.2162	-0.064	0.1521	1257.4329	0.113744	-450.142497	-450.134494	-450.13355	-450.175349	29.406	
C	 0.0349673104	 1.4352206	 0.1463777661	-0.329154
N	-0.0547856157	 0.0168610815	-0.1263081081	-0.349546
C	-1.2381420629	-0.6743405876	-0.0671659336	 0.40226
C	-2.5084565006	-0.0660612251	-0.1018572974	-0.073511
N	-3.6041279825	-0.8042350833	-0.0897306666	-0.317976
C	-3.4100608888	-2.1262521713	-0.0395740202	 0.475524
O	-4.4945417211	-2.9200351539	-0.0364541517	-0.395634
N	-2.237371039	-2.7511141838	 0.0185768144	-0.232345
N	-1.1423895028	-2.0099290262	 0.0090531628	-0.260221
H	 1.0844565609	 1.7323009881	 0.1094133909	 0.139307
H	-0.4962110625	 2.0160303752	-0.616589101	 0.137093
H	-0.3687396118	 1.7152846752	 1.1313659417	 0.123849
H	 0.7450463075	-0.5547541222	 0.1003481117	 0.253034
H	-2.6326468946	 1.0124398126	-0.1365478699	 0.121896
H	-5.2618459564	-2.3346323492	-0.0754475892	 0.305426
74.5227	120.1668	180.9615	203.2675	371.9138	396.4244	428.2032	463.5066	490.1512	492.7936	588.4596	595.0087	673.8685	794.4116	824.9289	889.0001	940.0524	1048.9074	1087.3926	1130.7404	1155.527	1188.7934	1226.373	1326.4673	1356.2874	1430.2746	1465.8902	1480.1881	1486.3129	1518.0363	1532.6256	1571.832	1639.1446	2987.3583	3056.3673	3130.7822	3168.0774	3617.4339	3795.4786
CNC1=CN=C(O)N=N1	CNc1cnc(O)nn1	
InChI=1S/C4H6N4O/c1-5-3-2-6-4(9)8-7-3/h2H,1H3,(H,5,7)(H,6,8,9)	InChI=1S/C4H6N4O/c1-5-3-2-6-4(9)8-7-3/h2H,1H3,(H,5,7)(H,6,8,9)
