21
gdb 70017	3.11585	1.49099	1.29588	1.4445	81.2	-0.2316	0.0817	0.3133	1078.9113	0.184351	-387.069013	-387.061025	-387.060081	-387.101419	31.578	
C	-0.0704215106	 1.5253790171	 0.0169230003	-0.507434
C	 0.0296174604	 0.0273262491	-0.0269189668	 0.356275
C	-0.921644434	-0.8803555776	 0.7005225577	-0.344832
C	 0.5438361556	-0.9766915872	 1.0234794662	-0.118255
C	 1.3138441457	-1.7613751682	-0.0543260105	-0.035418
C	 0.8253424143	-3.1346101136	-0.5440576406	-0.263354
C	-0.1063251646	-2.8106704606	-1.7434686	-0.078493
O	 0.1046677635	-1.4491308306	-2.1241320199	-0.267376
C	 0.804444984	-0.751744344	-1.1152236266	 0.044782
H	 0.9008341736	 1.9982096487	-0.1706340499	 0.114018
H	-0.7707959071	 1.8971667488	-0.7409133539	 0.125243
H	-0.4264540975	 1.8720888526	 0.9929330828	 0.114871
H	-1.5181329548	-0.3792919267	 1.4577584001	 0.108113
H	-1.4537941761	-1.6824536398	 0.2002933828	 0.111463
H	 0.9192925169	-0.7761444886	 2.0203732107	 0.081909
H	 2.3929168026	-1.7336851507	 0.1030828055	 0.074178
H	 1.6719601705	-3.7433121573	-0.8729376756	 0.105462
H	 0.2972498237	-3.6962877216	 0.2310685423	 0.107503
H	 0.1088904641	-3.4373675347	-2.6165717761	 0.098994
H	-1.1619102536	-2.9665474227	-1.4830744318	 0.099935
H	 1.5697543537	-0.1299952024	-1.5913295367	 0.072418
94.2699	141.5647	194.7618	227.2897	254.8712	330.9718	454.9618	505.3079	587.2508	694.1152	706.9759	768.2713	781.0464	801.6565	871.0405	907.1876	924.1	936.693	963.4965	978.111	993.8344	1021.1007	1050.7553	1074.8579	1090.4539	1108.2891	1113.971	1132.9774	1180.8911	1221.7376	1230.9153	1247.5344	1266.2438	1289.4109	1297.3613	1331.486	1350.0953	1394.7803	1405.1654	1422.809	1486.0598	1490.608	1498.8714	1506.7726	1539.1936	3004.9501	3017.9752	3045.1381	3051.1272	3060.4003	3076.4537	3091.2125	3094.0595	3107.2744	3125.6636	3174.5199	3201.8709
CC12CC1C1CCOC21	C[C@]12C[C@H]1[C@H]1CCO[C@@H]21	
InChI=1S/C8H12O/c1-8-4-6(8)5-2-3-9-7(5)8/h5-7H,2-4H2,1H3	InChI=1S/C8H12O/c1-8-4-6(8)5-2-3-9-7(5)8/h5-7H,2-4H2,1H3/t5-,6+,7-,8+/m1/s1
