18
gdb 51313	4.16079	0.93938	0.79965	4.6268	74.49	-0.2434	-0.0131	0.2303	1406.553	0.147812	-439.114457	-439.105885	-439.10494	-439.148865	30.797	
O	-0.1404589823	-0.0299529025	 0.1982326105	-0.247155
C	-0.0096283575	 1.1538086399	 0.0301541526	 0.185824
C	 1.3262725139	 1.8244983039	-0.2363747379	-0.37907
C	 1.2516420372	 2.830469203	-1.3539281857	 0.40342
N	 0.2562075133	 2.8597639556	-2.1387302386	-0.310825
C	 0.2027135645	 3.8769051954	-3.1839003754	-0.153634
C	 1.149055032	 5.0528294805	-2.9244333784	-0.233618
C	 2.4995922906	 4.4954347018	-2.4970843272	-0.072563
O	 2.3575318506	 3.6223528502	-1.365273992	-0.260595
H	-0.8695941854	 1.8514145579	 0.0900826867	 0.089792
H	 1.6496735618	 2.3388166728	 0.6795326935	 0.141189
H	 2.0786302574	 1.0594617505	-0.4525954956	 0.145988
H	 0.4387945796	 3.3986123728	-4.1442348615	 0.115164
H	-0.8334549629	 4.2224681157	-3.2650431405	 0.115324
H	 1.2642754632	 5.6793668875	-3.8146102805	 0.108374
H	 0.7510332648	 5.6858581899	-2.1233269812	 0.116428
H	 2.9633130373	 3.9283097352	-3.3149386603	 0.114996
H	 3.1966385517	 5.27472922	-2.1810911785	 0.120959
47.2066	67.5055	137.0438	185.3964	226.5086	312.6441	366.57	448.9102	508.0532	521.8141	612.6752	686.4718	794.2401	838.7187	881.9083	900.1432	933.1275	962.1917	1031.5779	1056.5878	1086.7864	1125.0917	1152.8705	1185.9235	1200.9679	1232.2257	1254.0215	1303.1823	1326.6951	1369.0963	1380.4067	1415.517	1428.8695	1441.9471	1479.6099	1490.2302	1513.8921	1746.5214	1838.6315	2928.1748	3016.5321	3023.9773	3028.2273	3042.0556	3063.1688	3091.003	3091.7447	3105.436
O=CCC1=NCCCO1	O=CCC1=NCCCO1	
InChI=1S/C6H9NO2/c8-4-2-6-7-3-1-5-9-6/h4H,1-3,5H2	InChI=1S/C6H9NO2/c8-4-2-6-7-3-1-5-9-6/h4H,1-3,5H2
