20
gdb 118446	2.6731	1.00779	0.77031	6.2961	72.52	-0.2562	0.0134	0.2696	1484.396	0.171101	-477.452168	-477.442491	-477.441547	-477.487178	35.	
C	-0.2089032849	 1.3824110133	 0.1696115816	-0.326751
N	-0.1476376714	-0.0661971735	-0.0355148849	-0.305235
H	 0.7899746221	-1.1624043446	 0.9218359158	 0.309141
H	-1.0915005977	-0.4407026337	-0.081167081	 0.237581
C	 0.5827370569	-0.4662071606	-1.2485110836	-0.171426
C	 0.7793249387	-1.9903332659	-1.3025534336	-0.199942
C	 1.4079879659	-2.4335785995	-2.6385039807	-0.059354
O	 1.4235656349	-3.8296714168	-2.7917798227	-0.426228
C	 1.6019477993	-2.5312414377	-0.1169249044	 0.435148
O	 1.4228366287	-1.9253143761	 1.052988236	-0.372005
O	 2.3610973114	-3.4692671486	-0.230473951	-0.354449
H	 0.8009090406	 1.7653452531	 0.3447455085	 0.143048
H	-0.6357421237	 1.9224400067	-0.6890363825	 0.117588
H	-0.8127970305	 1.5995617688	 1.0541018164	 0.136435
H	 0.0771557807	-0.1260360471	-2.1658678785	 0.108003
H	 1.5583821776	 0.034473484	-1.2211932263	 0.128066
H	-0.207180615	-2.4741024643	-1.2367316052	 0.112536
H	 0.8138972751	-2.0263943566	-3.464946137	 0.098772
H	 2.4189229107	-1.9993181645	-2.717087163	 0.090816
H	 1.9281114507	-4.1548571364	-2.0298370838	 0.298258
68.304	93.429	133.4711	169.2041	191.8828	249.8065	285.2424	315.9169	343.9662	371.0938	425.7543	561.5965	620.475	640.7789	738.9145	807.283	825.7923	923.0097	958.4684	1044.5128	1057.8211	1064.1294	1087.6755	1100.5703	1130.1341	1160.0995	1185.2801	1215.5644	1275.8262	1279.0314	1288.146	1365.0603	1393.2333	1399.1712	1460.2132	1467.816	1475.3589	1493.2092	1503.2857	1509.5062	1512.6087	1528.4745	1815.1861	2962.916	2981.4826	2991.9981	3004.0947	3053.3801	3058.4953	3083.3341	3107.0725	3124.4147	3502.3303	3698.7715
C[NH2+]CC(CO)C([O-])=O	CNC[C@@H](CO)C(=O)O	
InChI=1S/C5H11NO3/c1-6-2-4(3-7)5(8)9/h4,6-7H,2-3H2,1H3,(H,8,9)	InChI=1S/C5H11NO3/c1-6-2-4(3-7)5(8)9/h4,6-7H,2-3H2,1H3,(H,8,9)/t4-/m0/s1
