14
gdb 5212	8.93818	1.00298	0.90689	3.4247	76.88	-0.2059	0.0135	0.2195	1235.8657	0.10841	-341.604162	-341.596527	-341.595582	-341.638008	26.587	
C	-0.0420351964	 1.4644477209	 0.0251788863	-0.509447
C	 0.0031714409	 0.010901882	 0.0203479968	 0.22108
C	 0.0327932784	-1.1947498253	 0.0181843171	-0.107332
C	 0.0692223733	-2.6101611506	 0.0152549573	 0.155461
C	 1.1579743228	-3.4181759219	-0.2349548508	-0.203555
N	 0.6945347474	-4.7052131251	-0.1220374963	-0.224138
C	-0.6336283161	-4.6320605928	 0.1867758977	-0.006888
N	-1.0468472555	-3.3937353733	 0.2780774852	-0.304142
H	 0.6649309212	 1.8857209588	 0.7492123392	 0.146124
H	 0.2067172646	 1.8775118188	-0.9592313266	 0.146195
H	-1.0418830972	 1.8244202703	 0.2916164876	 0.152428
H	 2.1826926989	-3.1911197103	-0.4743382825	 0.134183
H	 1.2371359278	-5.5435247479	-0.24502848	 0.269956
H	-1.2397540901	-5.5140304737	 0.331300139	 0.130074
14.498	98.865	110.6938	282.4025	313.4698	475.1818	476.3691	524.3228	537.5773	657.6407	707.2344	759.0249	821.9123	925.3279	947.6638	1038.4016	1052.1761	1052.3282	1104.0335	1126.6345	1236.1264	1296.5697	1355.5577	1412.6444	1448.0153	1475.7324	1477.8799	1530.7945	1574.5069	2364.2929	3022.2081	3078.7013	3086.8915	3250.7472	3283.6743	3666.2295
CC#CC1=CNC=N1	CC#Cc1c[nH]cn1	
InChI=1S/C6H6N2/c1-2-3-6-4-7-5-8-6/h4-5H,1H3,(H,7,8)	InChI=1S/C6H6N2/c1-2-3-6-4-7-5-8-6/h4-5H,1H3,(H,7,8)
