18
gdb 12382	2.96492	2.05402	1.32153	1.5274	67.85	-0.2417	-0.0171	0.2245	939.2642	0.154568	-384.971617	-384.963886	-384.962942	-385.003657	28.985	
C	-0.0740970305	 1.540500234	-0.0078518837	-0.40171
C	 0.0647378839	 0.0209352705	 0.0267715872	-0.095915
C	 0.7855503861	-0.5366501567	-1.2247789532	-0.08899
O	 0.9270203774	-1.9418872839	-1.1834125654	-0.236943
C	 1.7314461746	-2.3616262017	-0.0997473266	-0.088561
C	 1.1000337556	-1.9688191567	 1.2500947095	-0.300832
C	 0.7983506787	-0.4780067904	 1.2692325226	 0.374216
O	 1.1374947241	 0.2505729976	 2.1731588925	-0.309216
H	 0.9075819852	 2.0226801095	-0.0414604487	 0.127103
H	-0.6460909442	 1.8599885303	-0.8845082069	 0.110166
H	-0.580019997	 1.9027226654	 0.8894538873	 0.135496
H	-0.9286597626	-0.4507946051	 0.0419863143	 0.101938
H	 0.2089820061	-0.3068300092	-2.1251957732	 0.115966
H	 1.772671366	-0.0526216414	-1.3224558781	 0.095512
H	 1.8287508626	-3.4472243079	-0.1827947371	 0.116822
H	 2.7400820345	-1.9229902333	-0.1793383299	 0.100023
H	 0.1571780275	-2.5183848224	 1.3629807529	 0.125096
H	 1.7539247721	-2.2177684786	 2.0896200266	 0.119831
90.2488	157.9914	170.2485	267.6432	319.356	342.4438	407.8537	447.1632	515.163	582.5271	702.5205	737.2202	850.0146	891.5353	901.2819	965.0052	989.7985	1011.2542	1089.3444	1120.8955	1136.3187	1150.4698	1182.7944	1233.8921	1244.4599	1296.4133	1311.2812	1336.6644	1347.1314	1395.3645	1410.2416	1418.7069	1459.7929	1488.7867	1494.0754	1498.8448	1510.9788	1812.8935	2960.1728	2971.669	3009.5964	3038.1319	3044.8301	3086.7415	3093.3874	3111.5283	3112.4282	3130.4787
CC1COCCC1=O	C[C@H]1COCCC1=O	
InChI=1S/C6H10O2/c1-5-4-8-3-2-6(5)7/h5H,2-4H2,1H3	InChI=1S/C6H10O2/c1-5-4-8-3-2-6(5)7/h5H,2-4H2,1H3/t5-/m0/s1
