12
gdb 129801	3.65807	1.68226	1.15354	5.1001	63.21	-0.2203	-0.0369	0.1835	944.3115	0.080097	-468.783734	-468.77729	-468.776346	-468.814498	24.752	
N	 0.045227678	 1.4142545353	 0.1743024769	-0.603828
C	-0.0920979444	 0.0552456862	 0.0552962709	 0.33282
C	-1.1222827897	-0.8315591822	 0.0357319393	 0.149144
O	-2.4869905789	-0.9860361	 0.0515093302	-0.22538
C	-2.6103274997	-2.3556758359	-0.0022605892	 0.06429
N	-1.5351689048	-3.0674707718	-0.0480055347	-0.32828
C	-0.5283387232	-2.0999116287	-0.0256388079	 0.389309
N	 0.7850878335	-2.0807526161	-0.0443466863	-0.270683
O	 1.0475658762	-0.673358464	 0.0056470089	-0.217027
H	 0.9466212021	 1.7600136042	-0.1250087868	 0.274754
H	-0.723510574	 1.9526047201	-0.1972898661	 0.272614
H	-3.6282837451	-2.717893217	-0.0006687054	 0.162268
182.5572	227.3996	281.0508	303.9672	412.9679	570.4691	578.6637	605.0067	625.0533	655.1564	701.3528	777.5738	811.6312	890.8686	901.2127	920.4509	1035.3777	1075.0568	1136.9744	1267.0288	1314.9745	1378.8235	1452.1923	1561.0498	1597.9684	1637.3821	1754.8479	3265.0092	3565.9774	3670.5943
NC1=C2OC=NC2=NO1	Nc1c2ocnc2no1	
InChI=1S/C4H3N3O2/c5-3-2-4(7-9-3)6-1-8-2/h1H,5H2	InChI=1S/C4H3N3O2/c5-3-2-4(7-9-3)6-1-8-2/h1H,5H2
