19
gdb 89601	4.22617	0.92006	0.87443	1.3579	81.28	-0.2493	0.0516	0.3009	1365.8646	0.157712	-385.823684	-385.814687	-385.813743	-385.857585	34.368	
O	-0.1848398003	 1.4680563027	-0.1789211396	-0.43209
C	-0.0760229342	 0.065968152	-0.0595446618	 0.125663
C	 0.3633437563	-0.5394896733	 1.3221391536	-0.333044
C	-0.9846928993	-1.2684382506	 1.3916234299	 0.379978
C	-1.1697883507	-2.6867112988	 1.8802651296	-0.474131
C	-1.013246761	-2.8112512493	 3.3283701433	 0.318308
C	-0.8731374719	-2.8902078959	 4.5194467178	-0.459387
C	-2.0905184628	-0.2569505041	 1.3558145342	-0.310075
C	-1.4197588271	-0.6394869231	 0.0607344271	-0.128271
H	 0.7035095697	 1.8388059004	-0.1829994367	 0.282499
H	 0.5262873357	-0.352594422	-0.8771169338	 0.068395
H	 1.2226145171	-1.2097860721	 1.23296791	 0.098531
H	 0.5541417061	 0.1855701229	 2.1192923039	 0.099746
H	-2.1648376044	-3.046813699	 1.5880062658	 0.129177
H	-0.4477242213	-3.3487117955	 1.3823174424	 0.126832
H	-0.7557993151	-2.9674468137	 5.5717865788	 0.194766
H	-3.0918835798	-0.6569332608	 1.482391364	 0.10962
H	-1.948895805	 0.7380963733	 1.7669303052	 0.120434
H	-1.9727282022	-1.0778722532	-0.7616846637	 0.08305
59.6425	86.6858	151.538	243.6313	285.0639	315.4304	348.1364	383.3518	413.0665	433.7485	569.8319	618.0911	636.7205	665.0745	729.5018	827.4478	866.525	899.4606	922.2155	945.8526	971.8846	983.1505	992.0975	1036.106	1066.8911	1087.4913	1115.4535	1166.5767	1172.5833	1213.8666	1237.5664	1277.1388	1291.163	1332.5681	1340.0595	1404.7938	1422.2015	1461.6768	1476.7845	1506.3297	2237.8402	3004.0353	3007.4333	3042.2377	3047.6215	3103.2136	3121.7051	3179.3415	3206.8928	3506.1021	3813.853
OC1CC2(CC#C)CC12	O[C@H]1C[C@@]2(CC#C)C[C@@H]12	
InChI=1S/C8H10O/c1-2-3-8-4-6(8)7(9)5-8/h1,6-7,9H,3-5H2	InChI=1S/C8H10O/c1-2-3-8-4-6(8)7(9)5-8/h1,6-7,9H,3-5H2/t6-,7-,8+/m0/s1
