16
gdb 23499	3.37234	1.52222	1.3045	1.5198	72.09	-0.2244	0.0025	0.2269	975.004	0.126963	-433.942439	-433.93576	-433.934816	-433.97346	27.232	
O	-0.1627187798	 1.2976429839	 0.0714864096	-0.393674
N	-0.0431780653	-0.1016639894	-0.0488011676	-0.305244
C	-1.1721706795	-0.6704656852	-0.0259429578	 0.549382
C	-2.6127070326	-0.2145756845	 0.0489442924	-0.168917
N	-3.0631542252	-0.7846390236	-1.2815678402	-0.330838
C	-2.9246546686	-2.0922210286	-0.5871878954	-0.001451
C	-3.1670601779	-1.522423372	 0.8234685307	-0.027636
N	-2.0610014334	-2.333133599	 1.3586151994	-0.31202
C	-1.4434023381	-2.1569821607	-0.0008019189	-0.119645
H	 0.7557211542	 1.5822890105	 0.0126796041	 0.306459
H	-2.8494666271	 0.8171127861	 0.288814577	 0.097016
H	-4.0623154014	-0.6004821671	-1.3815021847	 0.220459
H	-3.3659968651	-2.9938870747	-1.0054583922	 0.091603
H	-4.1164062951	-1.4708999054	 1.3570136586	 0.083853
H	-1.5177711611	-1.8961038747	 2.1042197482	 0.219223
H	-0.6775634742	-2.8592503757	-0.3190358432	 0.091432
121.2053	206.8732	305.2009	403.0931	423.1246	461.6904	542.1989	659.698	705.1111	736.6386	776.5979	800.0611	824.8774	853.8438	892.3491	925.3528	948.9392	963.9129	976.5784	1017.7858	1035.9018	1066.3025	1107.0541	1145.2349	1150.6952	1181.5267	1200.0309	1214.8914	1252.264	1293.4549	1324.682	1335.0393	1348.6467	1410.2264	1803.2809	3114.8927	3149.5776	3162.7262	3179.8831	3445.1342	3448.1085	3815.7646
ON=C1C2NC3C2NC13	ON=C1[C@H]2N[C@@H]3[C@H]2N[C@H]13	
InChI=1S/C5H7N3O/c9-8-5-3-1-2(7-3)4(5)6-1/h1-4,6-7,9H	InChI=1S/C5H7N3O/c9-8-5-3-1-2(7-3)4(5)6-1/h1-4,6-7,9H/t1-,2-,3+,4+/m1/s1
