19
gdb 99686	1.85844	0.86947	0.61534	2.0142	89.73	-0.241	0.0399	0.2809	1845.0929	0.1556	-385.838744	-385.82719	-385.826245	-385.878725	38.251	
C	-0.0259064984	 1.5194829281	 0.1097835484	-0.498777
C	 0.0141665512	 0.0652838072	 0.0543616977	 0.080322
C	 0.0623044894	-1.1362413655	 0.0065276089	 0.074887
C	 0.0629784942	-2.599801093	-0.038393407	-0.360741
C	-1.3907237408	-3.1557318229	 0.0457158011	-0.053294
O	-1.4130797892	-4.5626244159	 0.0543108791	-0.415979
C	 0.7214945502	-3.1295518193	-1.2393040486	 0.080738
C	 1.2147126672	-3.6085857635	-2.2286075748	 0.051918
C	 1.8430231749	-4.1562318309	-3.4231062662	-0.498843
H	 0.5480505915	 1.9015574634	 0.9611249907	 0.149104
H	 0.3948685209	 1.9620454115	-0.7997624549	 0.150311
H	-1.053446047	 1.8855818948	 0.2115414299	 0.148909
H	 0.5933448691	-2.9872794714	 0.8432882471	 0.134042
H	-1.8400891716	-2.822046518	 0.9847037841	 0.118178
H	-1.9731858219	-2.7321164297	-0.7851106113	 0.100726
H	-0.953513792	-4.8541545508	-0.7431007202	 0.283984
H	 2.3236346796	-5.118563618	-3.2160375149	 0.150448
H	 1.1115346495	-4.3143300764	-4.2230209589	 0.149743
H	 2.6119191931	-3.4771485896	-3.8072766201	 0.154323
15.3336	30.9163	60.0543	90.5486	102.9017	142.9624	202.5604	252.9281	292.004	320.0272	371.4561	398.1859	423.4418	469.5618	503.5034	552.2507	730.8633	832.3217	954.9314	1033.9287	1051.929	1053.5872	1054.4057	1057.2186	1088.1726	1138.0405	1176.723	1208.1232	1272.8624	1334.4685	1378.609	1413.4852	1414.5828	1424.4846	1477.8841	1478.1319	1478.4318	1478.7405	1505.392	2365.3955	2376.1369	2996.2074	3009.8698	3027.4248	3028.7863	3088.4504	3089.0598	3090.0662	3091.3901	3099.0643	3772.5383
CC#CC(CO)C#CC	CC#CC(CO)C#CC	
InChI=1S/C8H10O/c1-3-5-8(7-9)6-4-2/h8-9H,7H2,1-2H3	InChI=1S/C8H10O/c1-3-5-8(7-9)6-4-2/h8-9H,7H2,1-2H3
