19
gdb 65290	2.65918	1.34685	1.09067	1.7895	82.5	-0.2543	0.0256	0.2799	1186.582	0.156332	-385.834198	-385.825013	-385.824069	-385.867909	34.873	
C	-0.1091280891	 1.5322736663	 0.1117858228	-0.473922
C	-0.0600460238	 0.019426558	 0.1075610276	 0.065835
O	 1.2116543696	-0.5557285622	-0.286321481	-0.314782
C	 0.8023320321	-0.7265560092	 1.0538483779	 0.425992
C	 1.5420599522	-0.2038694477	 2.2901343106	-0.315473
C	 0.9452403483	-1.4106238565	 3.0765344864	-0.214108
C	 0.5294611269	-2.0716275214	 1.7273237777	-0.319933
C	-1.2259347385	-0.6411565711	-0.431570759	 0.314657
C	-2.2184313603	-1.1652488978	-0.8632224282	-0.439082
H	 0.8085058066	 1.9398488537	 0.5406583681	 0.13129
H	-0.2135343025	 1.9093363485	-0.909808882	 0.138453
H	-0.9656387445	 1.8873637641	 0.6932201179	 0.130219
H	 2.6258496461	-0.2798616679	 2.1611940735	 0.117694
H	 1.3001145943	 0.8016946349	 2.6421509217	 0.105999
H	 1.6405994314	-1.9731921957	 3.7010460573	 0.106259
H	 0.0827973927	-1.1247105233	 3.6825517368	 0.109684
H	-0.483322896	-2.4704541255	 1.6396350003	 0.116821
H	 1.2410431412	-2.8322812597	 1.3933320884	 0.116228
H	-3.0868842769	-1.6350419574	-1.2542739769	 0.19817
87.4304	123.8008	139.8414	179.0468	224.9981	237.6309	343.4638	403.8123	451.0715	509.1289	560.3419	591.6509	620.1362	658.8366	659.498	721.8014	779.2699	831.7309	899.233	909.9693	926.2991	972.1505	1023.8154	1063.8533	1106.5468	1129.0594	1148.443	1202.3515	1222.5489	1235.4794	1243.3305	1267.9041	1277.6488	1407.6579	1446.6317	1465.6147	1478.3334	1482.4702	1494.5129	1508.1028	2234.3602	3045.2118	3058.0012	3063.8519	3075.7217	3107.504	3113.4016	3116.6322	3134.2677	3136.2244	3501.3426
CC1(OC11CCC1)C#C	C[C@]1(OC21CCC2)C#C	
InChI=1S/C8H10O/c1-3-7(2)8(9-7)5-4-6-8/h1H,4-6H2,2H3	InChI=1S/C8H10O/c1-3-7(2)8(9-7)5-4-6-8/h1H,4-6H2,2H3/t7-/m0/s1
