17
gdb 8273	5.11976	1.10033	1.01811	5.4335	69.23	-0.2621	0.0307	0.2929	1170.3659	0.141635	-363.868323	-363.860106	-363.859162	-363.901778	29.356	
C	 0.3548618522	 1.4919650538	 0.1863389984	-0.398955
C	 0.002132963	 0.0418201682	-0.0638918415	 0.176284
C	 0.5792757601	-0.6706787178	-1.3092736618	-0.331973
C	 1.1207137954	-1.6929645898	-0.2907755885	 0.166227
C	 2.6285558737	-1.962489277	-0.3004083162	-0.355622
C	 3.056112808	-2.8188180594	 0.8039375175	 0.266769
N	 3.3862321391	-3.5068821761	 1.6712221128	-0.30149
O	 0.7176391717	-0.8683280747	 0.8156182336	-0.302425
H	 1.4290710123	 1.660392759	 0.0623139265	 0.117726
H	-0.1846717732	 2.1412679919	-0.5118343368	 0.120511
H	 0.0778116706	 1.7807689086	 1.2048954526	 0.135863
H	-1.0807898297	-0.109867725	 0.0431836742	 0.082286
H	-0.1339249748	-1.0429136529	-2.0452839612	 0.116716
H	 1.359674629	-0.0973324985	-1.8172630287	 0.109312
H	 0.5792950915	-2.6484815771	-0.2905424632	 0.094845
H	 2.903237943	-2.4446236485	-1.2465572607	 0.151789
H	 3.166807878	-1.0103906047	-0.2442577769	 0.152138
50.1386	77.2681	143.119	221.6867	318.9993	337.3559	387.5586	393.4409	429.0351	532.2315	693.0655	822.8458	858.7817	906.3136	913.9246	941.6355	951.9479	1041.4716	1063.3869	1103.9716	1124.092	1146.1622	1198.6147	1232.1543	1254.3041	1285.9559	1301.0475	1349.6892	1377.5456	1401.1901	1417.619	1450.247	1481.4338	1490.8667	1495.2198	2365.4168	3006.1183	3015.3357	3034.6208	3041.3457	3067.7632	3089.5771	3108.036	3114.4213	3133.6261
CC1CC(CC#N)O1	C[C@H]1C[C@@H](CC#N)O1	
InChI=1S/C6H9NO/c1-5-4-6(8-5)2-3-7/h5-6H,2,4H2,1H3	InChI=1S/C6H9NO/c1-5-4-6(8-5)2-3-7/h5-6H,2,4H2,1H3/t5-,6+/m0/s1
