19
gdb 114225	3.35819	1.20833	1.01437	0.7523	79.73	-0.2265	0.0084	0.235	1231.5426	0.158231	-423.009101	-423.000555	-422.999611	-423.042573	32.348	
C	-0.0353440464	 1.3012768432	-0.3804638657	-0.239068
O	-0.0804763376	-0.111515532	-0.2998443353	-0.237235
C	-1.3005059107	-0.6058725856	 0.1844154387	 0.158068
O	-2.3779275806	-0.3865588489	-0.7228533028	-0.305679
C	-2.7669685459	-1.6187139681	-1.2954483301	 0.43548
C	-4.1920789637	-1.7359552673	-1.7637491848	-0.33191
C	-3.0656282521	-1.6677733761	-2.7736677848	-0.322092
C	-2.0299347986	-2.6688444976	-0.5651595909	-0.158571
C	-1.2055871035	-2.1035058382	 0.311256239	-0.135354
H	 0.9715886764	 1.5715112819	-0.7060441098	 0.124934
H	-0.7657026138	 1.6859410967	-1.1024330019	 0.123513
H	-0.2307429701	 1.7659275159	 0.5984840782	 0.10268
H	-1.5554024201	-0.0756579641	 1.1174278289	 0.068651
H	-4.7102350881	-2.6775766853	-1.6169523848	 0.115919
H	-4.8069738365	-0.8516733411	-1.6398455313	 0.128201
H	-2.9349504266	-0.7372223349	-3.3139903078	 0.128415
H	-2.8011771357	-2.5614439348	-3.328716344	 0.115998
H	-2.1659919774	-3.7254167687	-0.7558170114	 0.11451
H	-0.5121477492	-2.5883647249	 0.9835111507	 0.113541
67.1866	113.0602	159.546	183.5887	276.9084	304.9316	334.8366	448.9249	491.7915	567.2201	592.5695	746.3421	760.5295	817.2514	853.8177	882.7049	894.3042	927.2114	946.4494	978.075	986.1463	1003.4549	1036.5112	1063.1422	1066.2994	1113.1474	1127.656	1178.7977	1191.5239	1214.0641	1247.0819	1302.6537	1376.6847	1392.2316	1407.9912	1450.5215	1475.8642	1484.0459	1490.1188	1512.4337	1678.0701	2960.8454	2986.612	3058.8446	3122.1199	3132.7	3135.2616	3216.3714	3218.3144	3233.1287	3245.4677
COC1OC2(CC2)C=C1	CO[C@H]1OC2(CC2)C=C1	
InChI=1S/C7H10O2/c1-8-6-2-3-7(9-6)4-5-7/h2-3,6H,4-5H2,1H3	InChI=1S/C7H10O2/c1-8-6-2-3-7(9-6)4-5-7/h2-3,6H,4-5H2,1H3/t6-/m0/s1
