17
gdb 117927	2.33818	0.96889	0.75075	1.6832	67.58	-0.2623	-0.112	0.1503	1475.9376	0.132135	-496.103691	-496.093477	-496.092533	-496.139941	34.941	
O	 0.2718657372	 1.2184860209	-0.420909859	-0.416569
C	 0.1018820866	-0.1658924444	-0.1680976753	-0.067537
C	-1.377416335	-0.5648972128	-0.1155464043	-0.231981
C	-1.5410463254	-2.0786780668	 0.1495049439	 0.031392
O	-0.9416286703	-2.4528917597	 1.364946866	-0.435882
C	-3.0098090269	-2.4534510542	 0.1671002111	 0.267202
O	-3.5616483817	-2.8145743983	 1.184755455	-0.300971
C	-3.8260601251	-2.3999401068	-1.1267223805	 0.097922
O	-3.3539442881	-2.1389213645	-2.2010979289	-0.213178
H	 0.0092949906	 1.6987658469	 0.3705628882	 0.283244
H	 0.5912722874	-0.6846169829	-1.0001730741	 0.115122
H	 0.6018968795	-0.4793662936	 0.7570287142	 0.116058
H	-1.8785111354	-0.0141991366	 0.6917134768	 0.095237
H	-1.8553249073	-0.2948796915	-1.0614758903	 0.131988
H	-1.0650910136	-2.6256987655	-0.6789445277	 0.113389
H	-1.6663759029	-2.6960199604	 1.9607093953	 0.294775
H	-4.8944586097	-2.6552366098	-0.9691795707	 0.11979
54.8486	88.6933	99.8713	116.7813	142.1018	193.2913	268.5091	291.9092	341.6288	354.1301	406.6511	451.5115	525.1779	612.6834	669.3161	789.089	841.5926	940.7838	983.7821	1046.5585	1069.6553	1088.2368	1121.8074	1163.5994	1196.4186	1264.9219	1304.3131	1315.2288	1352.6031	1369.0478	1397.2143	1414.7078	1435.5708	1475.0721	1513.9592	1785.014	1822.633	2934.1515	2996.9367	3022.7296	3027.9651	3072.902	3106.7277	3710.8709	3819.3113
OCCC(O)C(=O)C=O	OCC[C@@H](O)C(=O)C=O	
InChI=1S/C5H8O4/c6-2-1-4(8)5(9)3-7/h3-4,6,8H,1-2H2	InChI=1S/C5H8O4/c6-2-1-4(8)5(9)3-7/h3-4,6,8H,1-2H2/t4-/m1/s1
