17
gdb 62152	5.12623	0.69452	0.63773	4.7844	72.32	-0.2718	0.013	0.2848	1669.946	0.132472	-458.945999	-458.93605	-458.935106	-458.981781	34.816	
O	-0.1905679147	 1.0212962954	-0.3990229517	-0.432476
C	 0.1262595962	-0.3300777814	-0.1329070066	 0.116642
C	 1.0389489723	-0.7879486804	-1.2633933625	-0.09495
O	 0.3287951562	-0.8548934672	-2.4979943796	-0.185658
C	 0.29265238	 0.2634008487	-3.2586289548	 0.177953
O	-0.3420700532	 0.3240154874	-4.2670551119	-0.276649
C	 0.816886029	-0.4872482941	 1.2418008806	-0.364229
C	-0.0242732448	 0.0450435927	 2.3059558677	 0.256511
C	-0.7623779243	 0.513323356	 3.1318350482	-0.41186
H	-0.7854643808	 1.3282989154	 0.2954891832	 0.295934
H	-0.7789559558	-0.9552960965	-0.1457728982	 0.099106
H	 1.8922856388	-0.1020354732	-1.3440590942	 0.120686
H	 1.4139113382	-1.7964000465	-1.0727344485	 0.125103
H	 0.9167250145	 1.079048269	-2.8534876944	 0.091192
H	 1.0371215203	-1.545883415	 1.4270693038	 0.13638
H	 1.7751160814	 0.0473732155	 1.2249098145	 0.140132
H	-1.3936755433	 0.9101839241	 3.8883930647	 0.206183
59.7015	63.7391	92.1304	134.5765	170.8292	252.2488	319.8492	346.3655	358.2312	364.608	411.3583	462.6717	584.4978	632.8224	663.1529	674.9682	870.407	912.4196	955.5852	1030.2956	1035.2076	1047.8476	1073.0573	1131.1007	1156.9061	1234.369	1267.2646	1290.6193	1327.7447	1371.2135	1402.403	1430.2489	1447.85	1462.0145	1491.0506	1868.7848	2235.367	2989.2157	2999.5768	3023.906	3032.1447	3065.4917	3110.34	3503.2513	3791.2291
OC(COC=O)CC#C	O[C@@H](COC=O)CC#C	
InChI=1S/C6H8O3/c1-2-3-6(8)4-9-5-7/h1,5-6,8H,3-4H2	InChI=1S/C6H8O3/c1-2-3-6(8)4-9-5-7/h1,5-6,8H,3-4H2/t6-/m1/s1
