20
gdb 52315	4.58805	0.75774	0.71027	3.3582	78.03	-0.2573	0.0214	0.2787	1616.0834	0.171803	-440.283205	-440.273979	-440.273035	-440.319413	32.258	
N	 0.039441752	 1.1689617879	 0.1654577721	-0.437655
C	-0.0427302161	-0.0863747507	 0.2674146283	 0.128058
O	-1.167342425	-0.7219917127	-0.1118207166	-0.187502
C	-1.142084119	-2.1505749984	-0.0710370076	-0.086143
C	-2.5704433722	-2.6573431276	-0.2280170754	-0.003527
C	-2.610010463	-4.2107235443	-0.2274686245	-0.265495
C	-3.3156202718	-4.557340849	 1.1064861337	-0.068143
O	-3.2474043433	-3.3831841053	 1.9010721203	-0.242396
C	-3.4315054793	-2.3019714731	 1.0003552539	-0.095954
H	 0.9429833534	 1.4856465767	 0.5110102287	 0.22887
H	 0.7325783074	-0.7609376134	 0.65785777	 0.084058
H	-0.5061884831	-2.5313757437	-0.8814743586	 0.107521
H	-0.7284945698	-2.496839728	 0.8864646883	 0.115769
H	-2.9889054308	-2.2332758037	-1.1442447031	 0.091227
H	-3.1527922202	-4.6077047558	-1.0879805857	 0.110092
H	-1.5989079897	-4.6288535632	-0.2612766784	 0.105935
H	-4.3661216195	-4.835164053	 0.9240633587	 0.09185
H	-2.838660614	-5.368751397	 1.6616330492	 0.109685
H	-3.120846303	-1.3800408884	 1.4958918715	 0.125702
H	-4.4916691131	-2.2079963373	 0.7144822551	 0.088049
27.8994	56.5297	75.251	137.8669	161.7729	239.3714	324.0436	335.6015	452.8392	630.8311	676.4461	712.7363	824.9304	836.5087	861.6455	927.2561	945.1645	964.473	980.0392	1007.0179	1035.0501	1046.8031	1099.7412	1126.2826	1140.2328	1164.5603	1219.8754	1231.251	1249.3993	1273.9372	1296.1251	1306.9112	1307.9179	1349.5611	1373.0746	1396.6635	1408.6377	1429.2619	1498.3367	1508.984	1512.0074	1526.3376	1748.476	2971.8318	2978.0961	2996.5813	3019.1942	3044.791	3054.9988	3081.6589	3094.6169	3110.0386	3115.3771	3517.8084
N=COCC1CCOC1	[NH][CH]OC[C@H]1CCOC1	
InChI=1S/C6H11NO2/c7-5-9-4-6-1-2-8-3-6/h5-7H,1-4H2	InChI=1S/C6H11NO2/c7-5-9-4-6-1-2-8-3-6/h5-7H,1-4H2/t6-/m0/s1
