18
gdb 28416	3.03006	1.31341	0.92251	1.8846	84.6	-0.1816	0.0089	0.1906	1238.5692	0.148693	-402.02252	-402.013951	-402.013007	-402.055048	33.68	
C	-0.0303361859	 1.5323937386	 0.012061432	-0.514496
C	 0.0109615808	 0.0260462587	-0.0024832189	 0.298786
C	-0.0011760363	-0.6747394744	-1.2051464459	-0.284708
C	 0.0550253572	-2.0674170865	-1.2376308778	 0.374677
O	 0.0413132775	-2.675688831	-2.4653587914	-0.452688
C	 0.1222569428	-2.7727850593	-0.0401039684	-0.267971
C	 0.1257177145	-2.0838441127	 1.1697401385	-0.15512
C	 0.0724178511	-0.6897585424	 1.2104743831	 0.191191
N	 0.1509048431	-0.000518662	 2.4362584526	-0.592127
H	 0.8110214124	 1.9482286692	 0.5791910414	 0.136919
H	 0.0074180456	 1.9379754728	-1.0015665225	 0.126004
H	-0.948777585	 1.914183702	 0.4805252274	 0.118732
H	-0.049658781	-0.1375904602	-2.1467027833	 0.092264
H	 0.0908296272	-3.6282356559	-2.3385110398	 0.29146
H	 0.1655780974	-3.8588619039	-0.0448303286	 0.078818
H	 0.1743318737	-2.6420550468	 2.1006615403	 0.078679
H	-0.079001643	-0.5803340643	 3.231996496	 0.238412
H	-0.3940435624	 0.850701348	 2.4642635252	 0.241168
143.074	172.5591	204.5081	274.8683	298.1408	324.1551	333.3747	370.2792	449.2681	455.5368	499.4948	568.6618	588.8766	682.567	733.0758	744.8561	791.022	815.1973	885.6289	893.3843	966.9034	1015.5101	1057.9879	1085.7509	1165.4267	1177.6197	1208.6666	1268.6287	1324.9128	1326.2482	1364.0469	1410.5482	1482.085	1482.7377	1512.5652	1539.833	1633.8624	1651.7914	1674.0868	3004.3986	3059.1193	3117.4893	3150.1324	3168.277	3182.9246	3543.6721	3636.6673	3828.3748
CC1=CC(O)=CC=C1N	Cc1cc(O)ccc1N	
InChI=1S/C7H9NO/c1-5-4-6(9)2-3-7(5)8/h2-4,9H,8H2,1H3	InChI=1S/C7H9NO/c1-5-4-6(9)2-3-7(5)8/h2-4,9H,8H2,1H3
