18
gdb 83040	2.27317	1.78603	1.36195	4.0108	79.07	-0.2316	-0.0542	0.1774	1013.6689	0.148684	-401.949356	-401.941446	-401.940501	-401.981677	30.406	
C	-0.201978718	 1.3988786341	 0.1391080216	-0.329282
N	 0.0403583533	-0.0314506529	 0.0079641229	-0.090099
C	 0.4287515495	-0.6516196613	-1.2391581992	-0.039683
C	 0.752967539	 0.1506893007	-2.4892594468	-0.301869
C	 1.9404655653	 1.0617905781	-2.3877098992	-0.044567
C	 2.7813202863	 1.0913157447	-1.3474690083	-0.162966
C	 2.6291452946	 0.2118698584	-0.1715203699	 0.39717
O	 3.4967666686	 0.1294175814	 0.6794768484	-0.345179
C	 1.3824680635	-0.6203101716	-0.0704941482	-0.151757
H	 0.3819269486	 2.0474300553	-0.5256005605	 0.115164
H	-1.2649428222	 1.5784351234	-0.0519878589	 0.126668
H	 0.0067193228	 1.6912024629	 1.1723159537	 0.138324
H	-0.0933353335	-1.5861828125	-1.4389169492	 0.099072
H	 0.9259967899	-0.5496409527	-3.3183298549	 0.133111
H	-0.1259338554	 0.7357221058	-2.7980779581	 0.127992
H	 2.1129356764	 1.7174067639	-3.2389858546	 0.110945
H	 3.6507266791	 1.7410418518	-1.3327948751	 0.110869
H	 1.5199716622	-1.4940405494	 0.5620645365	 0.106086
96.9814	153.8342	192.8882	226.1973	309.2981	395.052	414.6768	453.7796	509.4527	552.558	652.3407	711.1029	733.7443	802.8535	861.2856	912.3755	930.042	962.2122	972.6621	1026.8276	1059.4586	1105.9924	1128.9038	1158.5768	1174.7267	1180.5576	1238.8136	1274.2736	1322.234	1360.071	1373.0149	1401.7766	1419.208	1452.4561	1462.7423	1494.6867	1507.3632	1690.6137	1756.6065	3005.5284	3017.877	3028.9719	3081.3142	3109.0613	3111.7772	3139.8025	3148.1222	3189.8469
CN1C2CC=CC(=O)C12	CN1[C@H]2CC=CC(=O)[C@@H]12	
InChI=1S/C7H9NO/c1-8-5-3-2-4-6(9)7(5)8/h2,4-5,7H,3H2,1H3	InChI=1S/C7H9NO/c1-8-5-3-2-4-6(9)7(5)8/h2,4-5,7H,3H2,1H3/t5-,7-,8?/m0/s1
