17
gdb 128096	3.14972	1.24558	0.90608	3.0031	73.58	-0.1994	0.0298	0.2292	1259.2064	0.135229	-455.145874	-455.136445	-455.1355	-455.180618	33.317	
C	 0.1516918031	 1.4709555703	 0.0399797223	-0.330444
N	-0.1278518138	 0.0436547655	 0.1262572707	-0.391112
C	 0.5295339155	-0.7406353714	 1.0316176015	 0.482902
C	 0.6897837211	-2.1016398047	 1.1127704304	-0.0657
C	 0.2246897648	-3.1777080424	 0.1848046786	-0.528632
C	 1.4132304949	-2.2278382984	 2.3260162075	 0.420901
O	 1.8152099584	-3.4021166735	 2.8447038205	-0.425509
N	 1.679856143	-1.0917827989	 2.9264314986	-0.295603
O	 1.1019007923	-0.1161260443	 2.0715535502	-0.234849
H	 1.1764245555	 1.6929262998	-0.2887239811	 0.127971
H	-0.5517653496	 1.9202883913	-0.6638445017	 0.129281
H	 0.0017696893	 1.930737697	 1.0186063447	 0.160613
H	-0.313014455	-0.4194588267	-0.7501810492	 0.251358
H	 0.3901868522	-2.9109852022	-0.8666973233	 0.113276
H	 0.7768315952	-4.1018742572	 0.3742316052	 0.14674
H	-0.8424752704	-3.4058237492	 0.2992552561	 0.130665
H	 2.2991308235	-3.2075254951	 3.658279529	 0.308142
56.8032	91.7286	125.144	176.4243	188.3413	235.509	277.8167	349.1642	392.6411	449.0726	477.783	559.5024	628.5679	669.3948	735.7136	751.103	782.1507	949.134	956.217	1057.8261	1066.5658	1127.4749	1153.1017	1191.4571	1228.1334	1259.9636	1389.3476	1424.6074	1449.0338	1470.7095	1487.492	1489.2814	1497.5885	1517.2648	1557.3244	1592.9446	1706.5396	3008.8836	3014.0069	3057.2578	3101.1388	3113.5626	3142.1232	3620.0377	3782.8536
CNC1=C(C)C(O)=NO1	CNc1c(C)c(O)no1	
InChI=1S/C5H8N2O2/c1-3-4(8)7-9-5(3)6-2/h6H,1-2H3,(H,7,8)	InChI=1S/C5H8N2O2/c1-3-4(8)7-9-5(3)6-2/h6H,1-2H3,(H,7,8)
