24
gdb 122174	3.06931	0.71627	0.69521	1.3231	86.87	-0.2198	0.0817	0.3015	1785.4234	0.215033	-405.517243	-405.506114	-405.505169	-405.553981	40.278	
C	-0.3608109959	 1.3808280385	 0.1237707282	-0.314453
N	-0.0601366965	-0.0356604475	 0.2577337754	-0.10319
C	 1.2378500199	-0.5077653553	-0.2152782481	-0.303666
C	 0.9158102206	-0.5147231932	 1.2449202016	 0.339656
C	 1.6526023876	 0.4513127693	 2.1573733577	-0.467367
C	 0.5043382376	-1.8310730918	 1.8921456133	-0.246305
C	-0.5410688401	-1.6673472845	 3.0018712788	-0.16691
C	-1.0289000652	-3.0016875276	 3.5493632586	-0.074798
O	-1.9654636606	-2.7365123921	 4.5840142417	-0.422896
H	 0.5123884092	 2.0485689139	 0.1861283423	 0.097104
H	-0.8342783452	 1.5453024281	-0.8499122142	 0.122408
H	-1.0751755264	 1.6781031762	 0.8984828484	 0.122587
H	 1.2330424938	-1.4287875079	-0.7947276035	 0.104619
H	 1.9528300609	 0.2385903441	-0.5626789912	 0.097764
H	 2.0256268002	 1.3274379377	 1.6236283564	 0.118039
H	 1.0130773857	 0.8017076443	 2.9744842666	 0.125901
H	 2.5163008393	-0.0493063247	 2.6082536513	 0.120011
H	 0.0956782293	-2.4795465717	 1.1090037329	 0.098272
H	 1.3986610842	-2.3327008469	 2.2879040067	 0.087192
H	-0.1372831487	-1.0857167921	 3.8385081137	 0.102399
H	-1.4011104294	-1.1122043306	 2.6104639959	 0.115375
H	-1.4875236973	-3.5903909515	 2.7379204525	 0.084769
H	-0.1728895468	-3.5849499042	 3.9287354863	 0.079831
H	-2.290526036	-3.5777517605	 4.9173204487	 0.283656
50.6028	79.0158	105.4951	131.6461	177.2166	198.3002	230.7284	259.3777	277.5401	288.7858	353.4846	411.056	448.1704	484.5494	515.7228	716.0446	753.7727	774.7102	870.566	896.9543	924.855	986.4798	1021.5524	1036.8554	1059.5925	1064.6826	1081.5545	1115.8236	1133.4938	1157.2432	1179.4203	1206.663	1219.6171	1234.7631	1277.7724	1304.6477	1315.0862	1328.2864	1371.8217	1403.9336	1419.4491	1453.8887	1461.2813	1473.5355	1487.6316	1489.2356	1499.5274	1503.2743	1510.8509	1516.4315	1528.0685	2954.5796	2981.1027	2981.2432	3010.2138	3036.9462	3040.2771	3059.7078	3063.3126	3074.8409	3088.3134	3094.2849	3097.5832	3127.2259	3158.6826	3829.3244
CN1CC1(C)CCCO	CN1C[C@]1(C)CCCO	
InChI=1S/C7H15NO/c1-7(4-3-5-9)6-8(7)2/h9H,3-6H2,1-2H3	InChI=1S/C7H15NO/c1-7(4-3-5-9)6-8(7)2/h9H,3-6H2,1-2H3/t7-,8?/m0/s1
