17
gdb 54598	2.78774	1.563	1.17859	3.8391	68.34	-0.2323	0.0136	0.2458	1045.7461	0.137201	-455.128723	-455.120664	-455.119719	-455.161635	30.494	
N	 0.4140969585	 0.6744289819	-0.8754269417	-0.53538
C	-0.0451275698	 0.1617948765	 0.2919389696	 0.328952
O	 0.4444851659	 0.3773392519	 1.3869622638	-0.374734
C	-1.2443507506	-0.7526404082	 0.1246090964	 0.188887
C	-2.2025155534	-0.8779528497	 1.3251042352	-0.120093
O	-2.143693794	-2.3265767815	 1.293595904	-0.286646
C	-1.202782238	-2.3123104396	 0.2152837609	 0.066365
C	-1.8783680719	-2.3454979876	-1.1708636874	-0.185567
N	-1.8298033729	-0.8518559992	-1.233222616	-0.392776
H	 1.2294089767	 1.2631777861	-0.8703969859	 0.260346
H	-0.0500387106	 0.4186119189	-1.7327282639	 0.266823
H	-1.7766035846	-0.4798222887	 2.2503970365	 0.13838
H	-3.2188138096	-0.4934656012	 1.1719616129	 0.094225
H	-0.3164102689	-2.9193935989	 0.4067053602	 0.098361
H	-1.3001447268	-2.8088737252	-1.9774409405	 0.111068
H	-2.8779050009	-2.7892225138	-1.1368329169	 0.117112
H	-2.7305622792	-0.3951057717	-1.339709487	 0.224677
64.3842	122.5847	174.7842	259.6507	311.0775	358.9394	404.0571	433.4291	490.1097	637.3994	657.3171	667.6808	743.2115	814.3584	837.8562	915.0565	936.418	979.2565	988.1469	1019.6447	1055.3991	1090.1781	1103.8508	1117.7312	1148.9853	1184.4326	1205.8496	1229.755	1304.4592	1313.8099	1354.7624	1359.7526	1392.9855	1496.0534	1507.3232	1581.1746	1791.6557	3019.8111	3035.5922	3090.5507	3097.2281	3104.5336	3511.9034	3580.6827	3730.6202
NC(=O)C12COC1CN2	NC(=O)[C@]12CO[C@H]1CN2	
InChI=1S/C5H8N2O2/c6-4(8)5-2-9-3(5)1-7-5/h3,7H,1-2H2,(H2,6,8)	InChI=1S/C5H8N2O2/c6-4(8)5-2-9-3(5)1-7-5/h3,7H,1-2H2,(H2,6,8)/t3-,5-/m0/s1
