23
gdb 100351	2.49117	1.12476	0.95982	3.0521	82.07	-0.2529	-0.0426	0.2103	1356.6101	0.203355	-425.439777	-425.42905	-425.428106	-425.475104	39.703	
C	-0.216409738	 1.5606796645	 0.127146342	-0.407405
C	 0.0384204168	 0.0542987196	 0.0037345549	-0.191019
C	 0.7326203829	-0.4252849426	-1.2972511008	 0.246765
C	 0.0434093534	 0.1312110857	-2.5538758684	-0.434538
C	 2.218908085	 0.0135409037	-1.3034738249	-0.086266
O	 3.0057010269	-0.6474732037	-0.3326563201	-0.437855
C	 0.6424878196	-1.9877925171	-1.2817200847	-0.309067
C	 1.4855047522	-2.6779152747	-2.3264946522	 0.134033
O	 2.6867525602	-2.8110125611	-2.2373629704	-0.250264
H	 0.7054718175	 2.1450172026	 0.046951582	 0.123618
H	-0.9116558292	 1.925265944	-0.6351172267	 0.116067
H	-0.6564558138	 1.785390602	 1.10368032	 0.117131
H	 0.6626461567	-0.2762259143	 0.8418897118	 0.118262
H	-0.9204996262	-0.471362211	 0.1028728928	 0.086195
H	 0.1616180228	 1.2166972491	-2.6234354796	 0.124865
H	 0.4675995136	-0.2989070475	-3.4679489993	 0.112159
H	-1.0303971129	-0.0860936751	-2.5487821367	 0.114052
H	 2.6372564195	-0.1268251428	-2.3099524954	 0.091386
H	 2.275286292	 1.0853970495	-1.0855642367	 0.104296
H	 3.2303583176	-1.5077475533	-0.7148896167	 0.292691
H	 0.9931229167	-2.3360661638	-0.3048698356	 0.136797
H	-0.4046076628	-2.2853118381	-1.4013155284	 0.104121
H	 0.9553572196	-3.0775289657	-3.2175382469	 0.093977
79.288	105.4076	146.8019	167.395	176.0952	225.8	250.1821	271.0509	294.5002	322.3242	356.6003	364.358	480.1611	530.8183	563.0849	609.2661	710.696	789.3926	840.7817	897.967	911.7605	981.3586	985.2364	1008.6296	1028.9211	1051.764	1080.6036	1094.8391	1160.4979	1187.6491	1221.7563	1257.0466	1265.8314	1324.4487	1344.0935	1373.4912	1405.8796	1414.0222	1421.6288	1427.3855	1447.0868	1474.0396	1485.5021	1491.4791	1499.2251	1506.2697	1509.8141	1515.3588	1796.5866	2900.4075	3004.5595	3016.7912	3028.4457	3040.2731	3044.441	3065.0514	3070.2932	3090.7307	3099.188	3102.8662	3106.7483	3111.4997	3726.9712
CCC(C)(CO)CC=O	CC[C@@](C)(CO)CC=O	
InChI=1S/C7H14O2/c1-3-7(2,6-9)4-5-8/h5,9H,3-4,6H2,1-2H3	InChI=1S/C7H14O2/c1-3-7(2,6-9)4-5-8/h5,9H,3-4,6H2,1-2H3/t7-/m1/s1
