20
gdb 109949	2.33372	1.40149	0.98526	2.7902	76.16	-0.225	0.0683	0.2933	1239.4155	0.169685	-440.226331	-440.217084	-440.216139	-440.260655	34.228	
C	 0.0401176183	 1.5482472153	 0.2574234966	-0.331615
N	 0.1585133949	 0.1039574357	 0.1796237825	-0.103915
C	-1.096399644	-0.6824370939	 0.304069435	-0.251976
C	-0.4097327619	-1.5570688987	 1.3508438429	 0.411359
C	-0.9413944028	-2.4369856596	 2.3859318776	-0.263168
O	-0.2713427067	-2.9616789392	 1.2281189172	-0.261927
C	 0.7831719362	-0.5951253351	 1.3396196397	-0.076105
C	 2.1585948083	-1.166568652	 0.9949631208	-0.065086
O	 2.9713855653	-0.1688689006	 0.4015640487	-0.42347
H	 1.0381313376	 1.9917524103	 0.3146437855	 0.131407
H	-0.4547195073	 1.9309440523	-0.6414138711	 0.122365
H	-0.5372365579	 1.8894311833	 1.137321522	 0.094457
H	-1.9412820687	-0.1027952244	 0.7054363245	 0.096911
H	-1.4112411525	-1.1873145194	-0.6152591976	 0.119835
H	-0.4066611454	-2.5535459168	 3.3279739992	 0.118812
H	-2.0118627392	-2.6340005133	 2.4330329734	 0.118103
H	 0.838353535	 0.0417568591	 2.2351796147	 0.068402
H	 2.6757983963	-1.5067584316	 1.8976716063	 0.107146
H	 2.0353024264	-2.033635208	 0.3316177228	 0.101462
H	 2.4944214581	 0.1024287967	-0.3928253107	 0.287004
65.2913	84.17	150.1927	214.464	237.0168	256.1658	303.8409	336.6154	378.2582	489.0053	516.2078	527.6484	535.3041	782.1666	814.1619	865.6147	884.9908	951.5004	984.0035	1008.6529	1039.5469	1081.9404	1094.4766	1122.8162	1138.9868	1162.325	1169.8866	1182.0436	1187.6449	1218.3646	1225.7112	1286.6402	1304.4665	1348.9129	1393.8115	1426.1332	1449.3372	1452.7359	1488.3591	1500.0145	1504.0686	1506.8824	1542.1142	2931.0949	2986.8045	2993.2681	3014.4169	3062.7173	3067.2066	3079.2873	3083.6139	3111.3794	3165.2339	3775.8102
CN1CC2(CO2)C1CO	CN1C[C@]2(CO2)[C@H]1CO	
InChI=1S/C6H11NO2/c1-7-3-6(4-9-6)5(7)2-8/h5,8H,2-4H2,1H3	InChI=1S/C6H11NO2/c1-7-3-6(4-9-6)5(7)2-8/h5,8H,2-4H2,1H3/t5-,6+/m1/s1
