18
gdb 90993	2.73245	1.91242	1.38398	2.3899	71.24	-0.2256	0.0589	0.2845	948.2888	0.148774	-439.018857	-439.011469	-439.010524	-439.050234	30.211	
O	-0.0875008809	 1.3738803204	-0.1234501989	-0.451914
C	 0.0198724126	-0.0417194904	 0.00843017	 0.006499
C	 0.4529805946	-0.5714116864	 1.3910913709	-0.204164
N	-0.7505725146	-1.2974942379	 1.8846596911	-0.132044
C	-1.3696275399	-1.997832363	 0.6703336144	-0.081798
C	-2.758980961	-1.749354586	 1.2892097237	-0.243904
C	-1.9499566599	-0.453782082	 1.4840675068	-0.087254
C	-1.3969245253	-0.5933576138	 0.0104778199	 0.461538
O	-2.1670151985	-0.3501127846	-1.1163186075	-0.503458
H	 0.7872241921	 1.7366323423	-0.2898546199	 0.290302
H	 0.61136082	-0.4561947463	-0.8194323444	 0.071241
H	 1.3021879685	-1.2598419769	 1.3482842378	 0.102218
H	 0.6954631311	 0.2468946251	 2.0758376402	 0.107456
H	-0.9456777111	-2.9217785402	 0.2706432343	 0.076328
H	-3.5960400904	-1.6998310286	 0.5933580037	 0.114418
H	-2.9835208004	-2.3128279623	 2.1956619839	 0.102747
H	-2.2124230753	 0.4540249788	 2.0294594031	 0.081847
H	-1.9920305016	 0.5653495319	-1.3701027592	 0.289942
125.3968	236.3482	280.0528	319.3183	337.2913	385.4125	425.6399	493.9013	519.2377	635.6725	703.6926	718.1416	769.5542	836.8715	866.2237	903.6896	924.4459	941.4192	994.3756	1031.4648	1039.3091	1057.5493	1100.6306	1114.9858	1133.4898	1140.3019	1159.0331	1205.7167	1216.9173	1228.0469	1242.284	1265.8199	1282.5495	1309.5931	1338.6581	1400.2143	1431.2888	1482.2801	1491.9506	3007.6933	3051.9302	3082.614	3092.9646	3102.8652	3107.7964	3161.896	3773.6505	3834.1136
OC1CN2C3CC2C13O	O[C@H]1CN2[C@H]3C[C@@H]2[C@@]13O	
InChI=1S/C6H9NO2/c8-5-2-7-3-1-4(7)6(3,5)9/h3-5,8-9H,1-2H2	InChI=1S/C6H9NO2/c8-5-2-7-3-1-4(7)6(3,5)9/h3-5,8-9H,1-2H2/t3-,4+,5-,6+/m0/s1
