15
gdb 49081	2.92373	1.75175	1.25195	1.4449	64.73	-0.2459	-0.0413	0.2045	951.2654	0.112346	-457.693006	-457.686181	-457.685237	-457.72443	26.383	
O	-0.0575546206	-0.025092885	 0.1295760625	-0.253356
C	 0.0281865954	 1.1667491108	-0.0498566926	 0.049446
C	 1.3183337314	 1.9073910253	-0.0373096376	 0.196633
C	 2.6361241083	 1.1947981894	 0.2070563675	-0.152043
O	 3.5756082614	 2.2944604518	 0.1279376687	-0.27462
C	 2.7559363262	 3.3952468914	-0.1276631818	 0.107621
C	 1.5919821954	 3.0373390282	-1.1023950549	-0.029291
O	 0.6910188043	 3.9681560659	-0.424884227	-0.310804
C	 1.4148610999	 3.3158204155	 0.6649224023	-0.029281
H	-0.8635353242	 1.7981643758	-0.2387536747	 0.102444
H	 2.6950727763	 0.7225117652	 1.192515278	 0.128424
H	 2.8703995885	 0.4468749779	-0.5567407757	 0.128419
H	 3.310256996	 4.3265549163	-0.2188566711	 0.11458
H	 1.5514276288	 2.9705582655	-2.189090865	 0.110912
H	 1.162570663	 3.5819123661	 1.6908640513	 0.110916
105.1411	172.6223	248.2367	347.667	374.6261	421.3613	575.8606	650.623	700.7067	714.422	771.4082	798.3536	881.2478	889.8804	944.3627	957.4748	1015.7021	1048.918	1064.691	1087.1006	1114.188	1150.5892	1161.2748	1180.6737	1198.6604	1220.3405	1259.5	1277.3997	1344.8457	1389.2804	1417.8919	1517.5579	1807.6397	2932.7949	3051.5539	3095.3889	3127.9911	3131.2833	3164.7285
O=CC12COC3C1OC23	O=C[C@@]12CO[C@H]3[C@@H]1O[C@@H]23	
InChI=1S/C6H6O3/c7-1-6-2-8-3-4(6)9-5(3)6/h1,3-5H,2H2	InChI=1S/C6H6O3/c7-1-6-2-8-3-4(6)9-5(3)6/h1,3-5H,2H2/t3-,4-,5+,6+
