12
gdb 131019	6.87592	0.94125	0.82791	3.2509	75.91	-0.2689	-0.0794	0.1895	1264.1096	0.077618	-431.649257	-431.641898	-431.640953	-431.681438	26.435	
O	-0.0879776005	 0.0319513657	-0.0005290969	-0.237299
C	 0.0159777035	 1.2197269923	 0.0084188416	 0.210264
N	 1.2582644103	 1.9052542083	-0.0002214052	 0.048091
N	 2.4570495274	 1.3007318868	-0.0193539265	-0.17077
C	 3.3046780136	 2.3081416023	-0.0206677549	-0.130669
C	 2.5778795055	 3.5366021155	-0.0016669434	 0.2011
N	 1.2796062639	 3.2460855956	 0.01095633	-0.281169
C	 3.0845725682	 4.8557654437	 0.0036896915	 0.277061
C	 3.5569398837	 5.9616107949	 0.0076217976	-0.412829
H	-0.8027510341	 1.9553385782	 0.0242019273	 0.13599
H	 4.3716696703	 2.1511241535	-0.034459248	 0.150949
H	 3.9635094781	 6.9431357332	 0.0112613769	 0.209281
91.1858	132.3965	202.136	255.4228	273.1595	454.9915	476.1202	543.3842	627.3751	660.6619	673.1495	679.3603	736.6421	824.8602	909.4712	980.0118	1032.1808	1043.5181	1200.5381	1253.9205	1322.6339	1371.4695	1413.472	1440.9591	1551.3916	1859.7654	2247.1099	3038.6219	3273.9167	3500.4179
O=CN1N=CC(=N1)C#C	O=Cn1ncc(n1)C#C	
InChI=1S/C5H3N3O/c1-2-5-3-6-8(4-9)7-5/h1,3-4H	InChI=1S/C5H3N3O/c1-2-5-3-6-8(4-9)7-5/h1,3-4H
