16
gdb 76397	2.80017	1.24504	1.16645	11.1229	61.96	-0.2019	-0.0059	0.196	1098.5894	0.122607	-512.122082	-512.113479	-512.112534	-512.15557	31.499	
N	-0.0643662628	 0.9227875916	 0.1345924752	-0.401275
H	-0.4409695767	-0.0043149001	-0.115248845	 0.316353
H	 0.8676223346	 0.7469855108	 0.5834400926	 0.321328
H	 0.0029538104	 1.5346940572	-0.6747862657	 0.317832
C	-0.8928730017	 1.4712561035	 1.235479533	-0.18595
C	-1.4793954333	 0.3523638823	 2.0852981005	 0.034785
O	-1.3204825727	-0.9287532344	 1.5373975976	-0.443022
C	-0.2531368941	 1.0659175793	 2.5539855088	 0.216412
O	 0.9584497118	 0.4037592938	 2.4143235122	-0.514124
C	-0.1921566053	 2.0546987384	 3.742734911	 0.359915
O	 0.9648896611	 1.9950178491	 4.2497693003	-0.503804
O	-1.1924973154	 2.7230244644	 3.9840518945	-0.458699
H	-1.3649631535	 2.4262106317	 1.0522119605	 0.153274
H	-2.4240935596	 0.5449017018	 2.5827624859	 0.149135
H	-0.5827810935	-1.3380648411	 2.0132402449	 0.31238
H	 1.4096182508	 0.9128170517	 3.2062364438	 0.325461
91.2509	116.1273	140.5012	198.7617	235.1097	294.7111	355.8185	372.4546	482.5514	530.2796	585.0042	658.6259	697.8581	716.3266	786.2731	845.5456	892.2722	953.0223	1018.0937	1035.2949	1046.4051	1068.6717	1122.4988	1164.7018	1176.4094	1260.8595	1294.5056	1309.165	1351.3125	1358.9604	1444.217	1462.5397	1555.1447	1685.1767	1820.6419	2615.0887	3062.3149	3177.63	3222.0328	3326.7318	3553.9927	3733.5628
[NH3+]C1C(O)C1(O)C([O-])=O	[NH3][C@H]1[C@@H](O)[C@]1(O)C(=O)[O]	
InChI=1S/C4H7NO4/c5-1-2(6)4(1,9)3(7)8/h1-2,6,9H,5H2,(H,7,8)	InChI=1S/C4H7NO4/c5-1-2(6)4(1,9)3(7)8/h1-2,6,9H,5H3/t1-,2+,4-/m0/s1
