15
gdb 25595	6.51377	0.76885	0.69065	1.8061	69.27	-0.2496	-0.0016	0.2479	1526.1934	0.113196	-453.963252	-453.955015	-453.954071	-453.998433	27.955	
N	-0.0513097191	 1.2845530709	 0.0065964711	-0.437246
C	-0.0302791716	 0.0237856205	 0.002024019	 0.140441
O	-1.1883013297	-0.6662394093	 0.007555345	-0.186818
C	-1.0740236402	-2.086850146	 0.0012754511	-0.190545
C	-2.4528077503	-2.651069567	 0.0107027579	 0.227605
C	-3.6464629366	-2.0130656718	 0.0233825427	-0.087169
O	-4.6280901581	-2.9675975966	 0.0278775997	-0.138402
C	-3.9576926164	-4.1382730362	 0.0174994546	 0.075635
N	-2.6699350303	-4.0249242955	 0.0070314087	-0.313445
H	 0.8988219864	 1.6493163012	 0.0014405114	 0.231997
H	 0.862578097	-0.6168939624	-0.0063130287	 0.089735
H	-0.5300972041	-2.428176531	-0.8907589468	 0.131195
H	-0.5152436802	-2.4348229939	 0.8814861854	 0.131168
H	-3.9573388019	-0.9844476668	 0.0301083066	 0.170992
H	-4.5499791948	-5.039671166	 0.0189055223	 0.154857
24.7077	59.241	106.0274	121.2905	260.6588	303.2506	370.3525	635.0348	640.0749	674.3337	749.0871	785.9702	822.1698	850.8258	938.1726	1003.8156	1018.5487	1040.0171	1049.5977	1093.0399	1137.59	1150.9529	1240.9752	1242.4381	1258.3543	1294.0465	1343.4271	1413.2716	1432.4282	1507.103	1555.412	1643.3536	1752.7125	2995.8225	3023.974	3032.0585	3278.4295	3316.6974	3521.9839
N=COCC1=COC=N1	[NH][CH]OCc1cocn1	
InChI=1S/C5H6N2O2/c6-3-8-1-5-2-9-4-7-5/h2-4,6H,1H2	InChI=1S/C5H6N2O2/c6-3-8-1-5-2-9-4-7-5/h2-4,6H,1H2
