14
gdb 52756	1.91736	0.99094	0.67728	5.1156	74.08	-0.2898	-0.0265	0.2633	1588.3154	0.097237	-436.676651	-436.666704	-436.66576	-436.71466	32.032	
C	-0.0935377113	 1.3404030343	 0.1124418649	-0.501064
C	-0.0314363774	-0.10320048	-0.043159582	 0.0954
C	 0.0125405875	-1.2971527364	-0.1789958415	 0.115386
C	 0.07464724	-2.7440812619	-0.3297850777	-0.229468
O	-1.2352266762	-3.3310513051	-0.2387422571	-0.165939
C	-1.4807853923	-4.143678684	 0.8217706769	 0.183055
O	-2.5408501327	-4.6522336043	 0.9969296205	-0.250235
C	 0.6626013444	-3.1347154365	-1.6260867342	 0.31538
N	 1.1499513623	-3.4426545109	-2.6259386311	-0.308126
H	 0.4228587998	 1.663352758	 1.0220977211	 0.161624
H	 0.372220698	 1.8444078841	-0.7405445742	 0.167593
H	-1.1333002121	 1.677662109	 0.1756371404	 0.168194
H	 0.7139741746	-3.1724939677	 0.4578231169	 0.155791
H	-0.5990986646	-4.2690243286	 1.4799359971	 0.092409
23.4483	24.1805	83.568	107.7357	145.3745	216.0757	247.701	326.4696	353.8226	381.2805	463.8489	511.0139	545.7641	704.391	834.7614	966.3318	1010.6579	1034.3751	1049.4002	1052.8517	1150.077	1180.9325	1320.943	1333.407	1412.1427	1433.4259	1471.5767	1473.2298	1884.9007	2372.0009	2381.2339	2951.0022	2988.1327	3037.2783	3103.9719	3104.7765
CC#CC(OC=O)C#N	CC#C[C@@H](OC=O)C#N	
InChI=1S/C6H5NO2/c1-2-3-6(4-7)9-5-8/h5-6H,1H3	InChI=1S/C6H5NO2/c1-2-3-6(4-7)9-5-8/h5-6H,1H3/t6-/m1/s1
