15
gdb 84331	3.12283	1.42693	0.98483	5.4995	75.79	-0.197	-0.0341	0.1629	1124.0273	0.113737	-454.007539	-453.999477	-453.998532	-454.039857	30.998	
N	-0.1056380361	 1.7439594794	-0.053351111	-0.620091
H	-0.1598944893	 1.2555357344	-0.9411572569	 0.241586
H	 1.6493597972	 1.7476940502	 1.5820027984	 0.273495
H	-0.5446309144	 2.6507645574	-0.1854010284	 0.243483
C	-0.730128963	 0.9935797096	 0.9978074102	 0.040101
C	-1.9980930692	 0.3757452632	 0.9364613031	-0.071915
C	-2.5180633444	-0.3467072779	 1.9745731465	-0.306176
C	-1.7924089677	-0.5099657239	 3.1976849953	 0.415888
O	-2.0790686584	-1.1026448985	 4.200926688	-0.347356
O	-0.5090200703	 0.1495059002	 3.2065657885	-0.265676
C	-0.0289003148	 0.8413737141	 2.1762849227	 0.462748
N	 1.1805387376	 1.4112665921	 2.4101303619	-0.552243
H	-2.5728358357	 0.4791251731	 0.018820314	 0.102383
H	-3.4861983264	-0.8257548913	 1.9229743867	 0.113984
H	 1.7385390548	 1.019627248	 3.1515384808	 0.26979
112.6556	162.8945	215.0235	298.2082	301.365	351.2697	408.1397	442.3353	469.8597	508.0484	552.3454	600.1112	704.5568	728.5455	759.0426	779.1626	810.771	840.9445	860.0051	987.5767	1043.9368	1093.2136	1171.4837	1205.738	1269.4243	1294.9039	1437.6276	1459.7996	1537.1365	1616.8102	1642.2207	1687.6503	1855.8943	3158.9379	3227.4814	3486.6007	3557.8423	3576.5543	3708.7755
[NH3+][C-]1C=CC(=O)OC1=N	Nc1ccc(=O)oc1N	
InChI=1S/C5H6N2O2/c6-3-1-2-4(8)9-5(3)7/h1-2,7H,6H3	InChI=1S/C5H6N2O2/c6-3-1-2-4(8)9-5(3)7/h1-2H,6-7H2
