17
gdb 98104	3.72046	1.02443	0.82914	4.1756	72.54	-0.2566	-0.07	0.1866	1350.1179	0.134479	-455.124412	-455.115228	-455.114284	-455.159223	32.617	
O	 0.0764870908	 1.3251631361	-0.0295720636	-0.426134
C	-0.0008640757	-0.0710486893	-0.0013848593	-0.123103
C	-1.4321834588	-0.5308295765	 0.2055291768	 0.341198
O	-2.3206362905	 0.2844803761	 0.3386220806	-0.327984
C	-1.7044227335	-2.0222821558	 0.2291405262	 0.225951
N	-0.7285323486	-2.7996661734	-0.0430698899	-0.493828
N	-2.9779609008	-2.3781696439	 0.6407428005	-0.071257
C	-4.2049765312	-2.0021213884	-0.0331019018	-0.206795
C	-3.7598821906	-3.4323197354	 0.0245679415	-0.24475
H	-0.8264406905	 1.6404990688	 0.1286761616	 0.291852
H	 0.3780099071	-0.5177218758	-0.9313051194	 0.13699
H	 0.6135402758	-0.4991595383	 0.8057082604	 0.13224
H	-1.0121353057	-3.7814449309	-0.0008577564	 0.224988
H	-5.0047419742	-1.6504585567	 0.6108847595	 0.137684
H	-4.1232963054	-1.4890842062	-0.9865946416	 0.139185
H	-3.3713848247	-3.8763787265	-0.8902026796	 0.128477
H	-4.2397337037	-4.1271075839	 0.7072288645	 0.135286
46.9191	91.7664	114.3064	155.3298	215.0692	264.8721	340.3712	359.4884	383.8551	437.2473	491.1156	658.5377	680.7321	785.2988	813.4286	848.41	902.7663	964.8668	1017.0057	1027.3345	1050.0806	1110.1466	1131.6974	1137.1441	1148.8185	1170.6282	1173.8972	1230.028	1294.5408	1324.1901	1423.7635	1449.4809	1475.3339	1495.5047	1523.7927	1686.8947	1785.7827	3000.4314	3029.4457	3103.5114	3124.0185	3193.218	3215.2276	3449.3702	3703.6962
OCC(=O)C(=N)N1CC1	OCC(=O)[C]([NH])N1CC1	
InChI=1S/C5H8N2O2/c6-5(4(9)3-8)7-1-2-7/h6,8H,1-3H2	InChI=1S/C5H8N2O2/c6-5(4(9)3-8)7-1-2-7/h6,8H,1-3H2
