20
gdb 7438	3.14668	1.6375	1.21335	3.1528	73.76	-0.226	0.0507	0.2767	1070.5864	0.175597	-382.344178	-382.334012	-382.333068	-382.37911	34.932	
C	-1.8575395499	 1.1337111174	-0.3548311359	-0.321555
N	-1.1569814886	-0.1251108047	-0.1592728634	-0.120449
C	-0.5976593865	-0.3028688	 1.1728907725	-0.339617
C	-0.5655623811	-0.6798257039	-1.289952014	 0.450305
O	-0.4965953423	-0.0769851576	-2.3498586348	-0.413394
N	-0.0577177627	-1.9659284412	-1.1347291618	-0.1205
C	 0.7277604401	-2.4826168554	-2.2436715011	-0.321517
C	-0.7546337904	-2.985164235	-0.3636117492	-0.339613
H	-1.1846234015	 1.999811444	-0.2707454346	 0.115395
H	-2.3051396211	 1.1488786458	-1.3472677055	 0.152923
H	-2.6414121738	 1.2316134695	 0.4041266185	 0.111365
H	-0.1220641729	 0.6282205491	 1.5144739835	 0.119565
H	-1.3722347932	-0.5699233448	 1.9030654221	 0.118586
H	 0.1626935964	-1.0823509081	 1.1656621956	 0.145364
H	 1.2712771479	-1.6651215592	-2.7146303054	 0.152887
H	 1.4371420157	-3.2273760152	-1.8666287436	 0.111358
H	 0.0991600193	-2.9603646019	-3.0095923835	 0.115395
H	-1.5525374642	-2.5369510516	 0.226496244	 0.145344
H	-1.2093293155	-3.7278142356	-1.035577758	 0.119558
H	-0.0717279657	-3.5180047316	 0.3102907947	 0.1186
76.2839	102.4416	126.684	133.8729	168.4511	182.001	225.442	283.5721	293.4746	363.1756	370.0385	404.4717	549.1123	576.6719	741.7431	785.6003	932.7368	1040.4115	1084.4801	1084.5553	1134.3643	1136.036	1156.367	1174.0619	1174.8449	1264.8797	1277.6126	1353.6753	1401.3603	1441.2417	1442.6766	1461.6157	1478.5276	1483.8525	1487.7206	1497.6783	1503.1222	1506.0986	1510.0716	1526.4503	1543.5918	1747.6452	2994.1358	2994.4358	2999.0964	3001.6724	3043.244	3043.3446	3067.1257	3067.2313	3154.94	3159.6402	3162.2114	3162.5427
CN(C)C(=O)N(C)C	CN(C)C(=O)N(C)C	
InChI=1S/C5H12N2O/c1-6(2)5(8)7(3)4/h1-4H3	InChI=1S/C5H12N2O/c1-6(2)5(8)7(3)4/h1-4H3
