19
gdb 49065	2.41361	1.61563	1.26559	2.701	75.15	-0.2473	-0.0299	0.2173	1057.627	0.160099	-423.030025	-423.021994	-423.021049	-423.063318	30.231	
O	-0.2709316627	 0.0998896693	-0.1372980767	-0.258052
C	-0.0297068222	 1.2613769997	 0.0795832231	 0.087404
C	 1.3259237254	 1.905592033	-0.0108581917	 0.226742
C	 1.5548472835	 3.1335812754	 0.9192188357	-0.288462
C	 1.9182070206	 4.0215427612	-0.2987470203	-0.218932
C	 1.5425657068	 2.8633401168	-1.2625154444	-0.074855
C	 2.7052715675	 2.2026911545	-2.0009734807	-0.094432
O	 3.4521154785	 1.533407175	-0.9957770904	-0.254137
C	 2.4943583907	 0.9171961026	-0.1385492952	-0.154217
H	-0.8478048265	 1.9678488791	 0.3560811684	 0.073429
H	 0.6390442202	 3.4492011769	 1.4288397901	 0.105119
H	 2.3358866333	 2.9968722575	 1.6707115868	 0.112076
H	 1.3245318779	 4.9312389529	-0.4097646286	 0.103911
H	 2.9767626628	 4.2874893178	-0.349648406	 0.115302
H	 0.6728003932	 3.0429681368	-1.8971769243	 0.081121
H	 2.3293718997	 1.489614954	-2.7531196485	 0.096688
H	 3.3698359211	 2.9176288781	-2.4954155863	 0.112154
H	 2.9887783716	 0.7034447921	 0.8126114657	 0.111305
H	 2.1242909884	-0.0240299126	-0.5677182967	 0.117835
59.9647	70.2944	215.4027	234.6189	263.9289	365.295	388.1873	473.7397	574.6392	684.9724	716.0242	760.6547	805.5682	860.6466	867.9101	931.405	948.604	968.5585	1001.6505	1017.6992	1034.6727	1080.1023	1110.4341	1142.9417	1168.7164	1183.0881	1230.5476	1233.6688	1266.0469	1278.3343	1287.194	1293.2131	1326.0569	1361.1118	1392.9736	1430.4849	1470.1789	1487.8946	1500.5424	1515.3723	1814.9318	2850.8393	2971.6845	3017.615	3048.775	3066.4805	3084.65	3092.4031	3096.6996	3103.5355	3124.1894
O=CC12CCC1COC2	O=C[C@]12CC[C@H]1COC2	
InChI=1S/C7H10O2/c8-4-7-2-1-6(7)3-9-5-7/h4,6H,1-3,5H2	InChI=1S/C7H10O2/c8-4-7-2-1-6(7)3-9-5-7/h4,6H,1-3,5H2/t6-,7-/m0/s1
