18
gdb 126174	4.01212	0.95593	0.79874	2.6814	73.25	-0.2581	-0.0134	0.2447	1409.1926	0.147255	-439.078175	-439.069328	-439.068384	-439.112584	32.15	
C	 0.179889799	 1.6495685082	 0.059501693	-0.385034
C	 0.3472246875	 0.1322958306	-0.0410493644	-0.190323
C	 0.5494053379	-0.5372748963	 1.3274943093	-0.012352
O	-0.5324363244	-0.2695461937	 2.2163314616	-0.423076
C	 0.7873567545	-2.0207689642	 1.220148671	 0.13336
C	 0.3002278368	-2.9952842929	 2.0354002537	-0.009223
O	 0.722631821	-4.2058905027	 1.6423367404	-0.164717
N	 1.5332206533	-4.0580334781	 0.5237207909	-0.133982
C	 1.5627563429	-2.7702404468	 0.2860439981	-0.056825
H	 1.0832602664	 2.1184378601	 0.4646865081	 0.11841
H	-0.0138514143	 2.0895616698	-0.9228091975	 0.114288
H	-0.6504523813	 1.9042231437	 0.7229076435	 0.130389
H	-0.5310413283	-0.3198763214	-0.5228845742	 0.095985
H	 1.2031490292	-0.1097375739	-0.6828584763	 0.103293
H	 1.4141281334	-0.0669295384	 1.8151254112	 0.109058
H	-1.3317013254	-0.6262970875	 1.8104259479	 0.279286
H	-0.3329714326	-2.9692948178	 2.9073726329	 0.159463
H	 2.1431913043	-2.4121235189	-0.552675409	 0.132
44.7216	91.561	135.9474	191.197	231.6023	286.1074	340.1108	361.6475	449.5937	489.3767	619.1044	656.5888	753.4735	799.2209	861.536	894.0719	904.5746	910.0278	939.7468	986.864	1027.4494	1066.7716	1101.7206	1124.142	1148.6553	1205.4824	1255.7891	1271.0847	1304.8579	1326.3158	1377.8691	1383.3181	1407.8005	1424.5774	1471.7752	1480.0365	1494.9771	1508.0269	1642.5229	3009.1326	3022.2501	3040.2716	3057.9327	3106.3753	3125.6262	3241.781	3278.8293	3785.2292
CCC(O)C1=CON=C1	CC[C@@H](O)c1conc1	
InChI=1S/C6H9NO2/c1-2-6(8)5-3-7-9-4-5/h3-4,6,8H,2H2,1H3	InChI=1S/C6H9NO2/c1-2-6(8)5-3-7-9-4-5/h3-4,6,8H,2H2,1H3/t6-/m1/s1
