19
gdb 96011	2.59764	1.55397	1.22073	1.9718	70.29	-0.2503	0.0803	0.3306	1075.5013	0.159422	-460.135697	-460.127244	-460.1263	-460.169681	31.152	
C	-0.1511486588	 1.5586115339	-0.1119522797	-0.414362
C	-0.0206762437	 0.0402394789	-0.0465151405	 0.102571
O	 0.9598744167	-0.431343651	-0.9752368348	-0.261511
C	 2.0316450694	-0.9630347133	-0.2377427366	 0.018505
O	 1.4859740347	-1.4551575615	 0.970275591	-0.254809
C	 0.4383312401	-0.5630936397	 1.3239584727	 0.028942
C	 0.8851551261	 0.4479491412	 2.3641501849	 0.06549
C	 2.0390864019	 0.1970964042	 3.2338705778	-0.180543
O	 2.1277662462	 1.1115809545	 2.1324889527	-0.234505
H	 0.7771424019	 2.0522775596	 0.1840443247	 0.150137
H	-0.3946373246	 1.8559415669	-1.1352155044	 0.126355
H	-0.9580372944	 1.9095025646	 0.5408599729	 0.111049
H	-0.9741466661	-0.4163209858	-0.3380244176	 0.087566
H	 2.470057124	-1.8003305208	-0.7897847955	 0.113222
H	 2.789343443	-0.1935695768	-0.0278706205	 0.104469
H	-0.3671868906	-1.1606277684	 1.767619706	 0.093219
H	 0.0905500885	 1.0956237952	 2.7395634	 0.095165
H	 2.0787044246	 0.6568496355	 4.219907742	 0.115601
H	 2.597517521	-0.7261814972	 3.1080167349	 0.133441
31.8248	106.9543	191.8607	198.4448	264.434	271.5169	324.5689	418.2825	475.9778	595.0971	730.4961	743.9415	786.7976	848.7986	889.5579	905.3594	950.0283	976.4693	1003.991	1064.0087	1083.4866	1108.9534	1122.9806	1132.1353	1144.9071	1168.1422	1172.5729	1192.3274	1232.4841	1287.6834	1300.9921	1340.6342	1370.008	1389.2792	1411.7478	1424.3841	1438.8181	1492.0645	1500.4779	1518.1941	1544.8832	2994.3402	3022.5815	3040.6112	3043.6852	3080.7134	3091.8813	3100.6676	3111.5468	3137.6076	3199.0624
CC1OCOC1C1CO1	C[C@H]1OCO[C@H]1[C@H]1CO1	
InChI=1S/C6H10O3/c1-4-6(5-2-7-5)9-3-8-4/h4-6H,2-3H2,1H3	InChI=1S/C6H10O3/c1-4-6(5-2-7-5)9-3-8-4/h4-6H,2-3H2,1H3/t4-,5-,6-/m1/s1
