20
gdb 109823	2.42706	1.07006	0.85964	5.0949	80.27	-0.253	0.0442	0.2973	1409.5822	0.169245	-403.139659	-403.129515	-403.128571	-403.175682	35.712	
C	 0.2254017095	 1.1796613113	 0.175865339	-0.236955
O	-0.3347180639	-0.0030926762	-0.3650831409	-0.236599
C	 0.4854607635	-0.6141452989	-1.3088027703	 0.110899
C	 1.4548225891	-1.6925922305	-0.8605576503	-0.081049
C	 1.6475658762	-2.0245039293	 0.6041887978	-0.413534
C	 0.1798121602	-2.0525272318	-1.6118373376	-0.07836
C	-0.9821347198	-2.7450510316	-0.9115307413	-0.353674
C	-2.1977439151	-2.7243784734	-1.7266348052	 0.261323
N	-3.1485707769	-2.7146756743	-2.3831212782	-0.310231
H	 1.1666455537	 0.9804390097	 0.706129446	 0.113299
H	 0.4181452881	 1.9242585753	-0.6101609463	 0.11437
H	-0.5049041542	 1.5871029349	 0.8782318745	 0.133332
H	 0.7754634979	 0.0388670699	-2.1329689303	 0.090559
H	 2.3590466316	-1.779433863	-1.4577919904	 0.091145
H	 0.780141652	-1.7366213492	 1.2024705579	 0.131401
H	 1.8226756893	-3.0958494117	 0.7512505847	 0.120626
H	 2.5161313291	-1.4933559763	 1.0069920368	 0.12067
H	 0.306593066	-2.359188073	-2.6452469105	 0.107777
H	-0.7354403667	-3.7907418006	-0.6933874168	 0.14811
H	-1.2028098694	-2.253766781	 0.0390057114	 0.16689
33.7215	103.1303	116.1135	154.6803	178.3096	183.0437	208.7252	269.8522	321.8132	382.9391	461.7259	505.6554	579.2091	605.0347	766.8908	798.948	895.1226	920.7838	931.5703	983.8123	999.9777	1072.1701	1100.6849	1126.5775	1144.8749	1151.0727	1171.6736	1183.858	1226.688	1253.7868	1265.9973	1311.2761	1370.6989	1383.1668	1416.31	1444.6528	1458.5008	1486.183	1487.2644	1500.3741	1503.4032	1509.7346	2362.739	2991.8766	3035.5995	3045.8276	3046.376	3090.6973	3090.8429	3109.8955	3122.0103	3124.8058	3138.9451	3160.196
COC1C(C)C1CC#N	CO[C@H]1[C@@H](C)[C@H]1CC#N	
InChI=1S/C7H11NO/c1-5-6(3-4-8)7(5)9-2/h5-7H,3H2,1-2H3	InChI=1S/C7H11NO/c1-5-6(3-4-8)7(5)9-2/h5-7H,3H2,1-2H3/t5-,6+,7-/m0/s1
