23
gdb 70565	2.33435	1.76663	1.26428	0.2626	88.26	-0.2347	0.0827	0.3174	1112.3143	0.208505	-351.149724	-351.141709	-351.140765	-351.18147	33.754	
C	-0.0791050569	 1.4858651489	-0.0064712889	-0.474214
C	-0.0368166433	-0.0298287135	 0.0507597684	 0.361447
C	-0.2273777704	-0.6664034766	 1.4111815514	-0.349298
C	 1.1347700537	-0.6887215926	 0.7555580082	-0.042649
C	 1.7036950342	-1.9820934185	 0.196907898	-0.212005
C	 0.638029674	-2.8835575282	-0.4575897948	-0.245975
C	-0.1853600928	-2.1360946954	-1.5013767246	-0.017247
C	-1.6236188715	-1.7519377942	-1.2444798583	-0.313547
C	-0.547687407	-0.6948909272	-1.2089428448	-0.069189
H	 0.4979347248	 1.8673582841	-0.857544714	 0.112214
H	-1.1082366792	 1.8488753721	-0.1144093863	 0.115663
H	 0.3379081396	 1.9294168514	 0.9032738668	 0.108499
H	-0.3802425981	 0.0019418556	 2.2524595547	 0.101691
H	-0.7802868096	-1.5947176837	 1.4946520997	 0.105244
H	 1.8798498008	-0.017627139	 1.1763224527	 0.071807
H	 2.4702861239	-1.7339634979	-0.5501202851	 0.093535
H	 2.2144795222	-2.5396741208	 0.991983063	 0.092657
H	 1.1321097296	-3.7417098842	-0.9237185003	 0.096467
H	-0.0116508444	-3.3034998417	 0.3188078159	 0.100644
H	 0.0726704298	-2.3589420514	-2.5322084672	 0.078309
H	-2.3157061301	-1.747878554	-2.0798982092	 0.104536
H	-2.0690499955	-2.0628575211	-0.3048595513	 0.108249
H	-0.5302763537	-0.026046012	-2.0652562538	 0.073162
162.715	217.0686	243.4516	254.1513	312.0051	368.5527	390.8612	431.1032	495.2948	528.8872	626.0459	661.5595	759.1111	778.9826	824.9617	860.3674	882.5321	908.2619	932.1705	941.9098	962.8636	986.0463	1011.8388	1044.9947	1059.371	1067.5398	1086.3365	1111.1219	1123.2583	1134.1026	1149.2988	1151.3163	1224.5058	1232.5499	1239.5451	1251.9969	1321.6152	1353.1523	1370.3324	1392.8622	1407.844	1415.7202	1426.1241	1483.3343	1486.4765	1490.7725	1494.6558	1503.1643	1511.5248	3008.9085	3017.7172	3033.9849	3049.9622	3074.9426	3076.7685	3095.7995	3125.1994	3128.0913	3131.7166	3134.8691	3147.8519	3208.6304	3214.5961
CC12CC1CCC1CC21	C[C@]12C[C@H]1CC[C@H]1C[C@@H]21	
InChI=1S/C9H14/c1-9-5-7(9)3-2-6-4-8(6)9/h6-8H,2-5H2,1H3	InChI=1S/C9H14/c1-9-5-7(9)3-2-6-4-8(6)9/h6-8H,2-5H2,1H3/t6-,7+,8+,9-/m0/s1
