18
gdb 24626	4.20071	1.31858	1.09891	2.0371	85.39	-0.1908	0.0529	0.2438	1118.0521	0.149812	-364.796611	-364.789239	-364.788295	-364.828816	29.049	
C	 0.127716891	 1.554332637	-0.0180304557	-0.318215
C	 1.3727751231	 0.6975113931	-0.0811679039	-0.318216
C	 0.01755267	 0.0569851742	 0.0080795455	 0.15836
C	-0.5420855267	-0.840970987	 1.157850962	-0.246967
N	-1.1499908114	-1.6452874008	 0.0845682541	 0.002747
C	-1.8938883446	-2.6912331224	-0.3839877705	-0.162776
C	-1.875221854	-2.5620883005	-1.7653669547	-0.121418
C	-1.1023739705	-1.4122622804	-2.1326624893	-0.360524
C	-0.6746031645	-0.8791162659	-0.9374283862	 0.340285
H	-0.0713462366	 2.0964734573	 0.900848021	 0.11585
H	-0.1932000667	 2.0666260852	-0.9184637982	 0.124333
H	 1.9024571519	 0.6244485163	-1.0247306292	 0.124332
H	 2.0120249836	 0.6627316173	 0.7952058387	 0.115849
H	 0.2064175761	-1.3799171653	 1.7471208479	 0.124299
H	-1.2697660767	-0.364053399	 1.8219203629	 0.124302
H	-2.3627792926	-3.4197526726	 0.2565461371	 0.115624
H	-2.3708964592	-3.2313979003	-2.4533072197	 0.090262
H	-0.9105493623	-1.0596592761	-3.1334260116	 0.091872
57.112	134.3531	215.8147	269.6241	430.5595	503.3528	508.0037	598.8342	688.6116	694.5916	723.015	753.9111	777.3344	816.7057	849.5548	851.4731	912.995	932.424	984.4235	1015.3076	1051.1039	1058.7501	1065.2653	1078.7593	1094.0848	1144.0376	1189.438	1197.477	1240.9588	1257.7814	1285.5937	1363.0188	1419.1835	1454.4172	1462.2501	1469.7628	1503.8476	1518.5069	1591.9224	3041.5724	3093.9693	3128.0816	3131.4692	3208.6664	3223.4391	3236.6962	3259.165	3272.7575
C1CC11CN2C=CC=C12	C1CC21Cn1cccc21	
InChI=1S/C8H9N/c1-2-7-8(3-4-8)6-9(7)5-1/h1-2,5H,3-4,6H2	InChI=1S/C8H9N/c1-2-7-8(3-4-8)6-9(7)5-1/h1-2,5H,3-4,6H2
