19
gdb 63175	2.36568	1.66215	1.31806	2.5885	70.98	-0.2316	0.0595	0.2911	1038.8552	0.158218	-460.145545	-460.136805	-460.135861	-460.178058	34.238	
C	-0.0546899297	 1.5920441628	 0.0298783535	-0.471936
C	 0.0603097688	 0.0879361251	 0.0930509307	 0.313447
O	-1.1555175768	-0.5855670442	-0.1755419302	-0.482373
C	 1.3004973092	-0.6987236872	-0.3280212137	-0.232041
C	 2.6425489291	 0.0010555509	-0.3201437003	-0.100653
O	 2.7410723829	 0.6718334694	 0.94142219	-0.259837
C	 1.9349003162	-0.0017275399	 1.9001123053	-0.143438
C	 0.8316931207	-0.6941024696	 1.1243544994	 0.373369
O	 0.2412009277	-1.759859669	 1.7799465356	-0.478592
H	 0.8803586581	 2.072225576	 0.3233159661	 0.151297
H	-0.3007705658	 1.9163654169	-0.9889880994	 0.106133
H	-0.8549879968	 1.9356692927	 0.6927301848	 0.126323
H	-1.3013218837	-0.5905565096	-1.1275485671	 0.288637
H	 1.1549123105	-1.5733615669	-0.9526415369	 0.089369
H	 3.4469702905	-0.7420420866	-0.4358990237	 0.10072
H	 2.7721786009	 0.7666956216	-1.0933981491	 0.10554
H	 2.4996633585	-0.7707109975	 2.4499364934	 0.107621
H	 1.581178664	 0.7464070752	 2.61688732	 0.111174
H	-0.6165611743	-1.8907689099	 1.3527388915	 0.295241
176.5008	206.4269	222.438	229.0515	244.183	268.0613	295.3633	389.9608	399.6176	433.184	456.2298	526.0269	630.4197	677.7124	715.6407	759.1281	897.0834	923.7948	934.9599	967.3001	1008.3006	1072.5091	1075.6102	1094.8644	1100.344	1138.2286	1192.7356	1211.482	1230.7228	1240.912	1275.4705	1296.5455	1348.9379	1378.921	1410.6057	1433.7005	1460.2731	1496.5319	1500.8568	1514.7	1524.8323	2982.3013	2990.4844	3026.7007	3054.0667	3071.573	3090.8187	3140.6551	3174.5524	3753.5875	3804.8944
CC1(O)C2COCC12O	C[C@@]1(O)[C@H]2COC[C@@]12O	
InChI=1S/C6H10O3/c1-5(7)4-2-9-3-6(4,5)8/h4,7-8H,2-3H2,1H3	InChI=1S/C6H10O3/c1-5(7)4-2-9-3-6(4,5)8/h4,7-8H,2-3H2,1H3/t4-,5-,6+/m1/s1
