19
gdb 82787	2.95555	1.86993	1.731	1.2278	76.71	-0.2369	0.0736	0.3106	885.8332	0.162652	-385.850462	-385.843991	-385.843047	-385.880886	27.955	
O	 0.0930445434	 1.4531370761	-0.1289147678	-0.430005
C	 0.0215648446	 0.0547407532	 0.0291531379	 0.141281
C	 0.2532307353	-0.5856016237	 1.4389106159	-0.126268
C	-0.2556962048	 0.3600511382	 2.534733248	-0.216909
C	-1.7646235307	 0.2306578141	 2.4282129314	-0.043853
C	-2.3920064347	 0.0204229214	 1.0588807774	-0.067059
C	-2.1597402139	-1.1541356678	 2.0095121907	-0.087906
C	-0.9523076861	-1.5704423853	 1.133111563	-0.047338
C	-1.3847526447	-0.5489469657	 0.0329489966	-0.067251
H	 1.0200641892	 1.7104567023	-0.1562618772	 0.281338
H	 0.6358841426	-0.460717324	-0.7241563591	 0.059967
H	 1.241140472	-1.006505778	 1.6350081848	 0.055576
H	 0.080576289	 0.0393307876	 3.5277705183	 0.085933
H	 0.0956962592	 1.3825457245	 2.3659367399	 0.099437
H	-2.3968033778	 0.748666352	 3.142313116	 0.078659
H	-3.3204598143	 0.5148062703	 0.7999979448	 0.081209
H	-2.8594850541	-1.798160784	 2.5264014108	 0.07974
H	-0.7433341084	-2.6147606031	 0.9158959173	 0.062903
H	-1.8426034057	-0.862874618	-0.9062752587	 0.060548
163.0181	270.1898	290.7056	388.3619	536.605	554.1073	610.12	649.2936	708.6654	755.5048	774.5754	815.5407	826.4168	853.5326	887.4951	911.0041	928.2332	959.4399	994.4874	1015.1364	1030.8292	1037.7779	1058.6556	1066.6772	1078.0806	1110.7433	1140.6689	1175.3911	1187.8067	1195.864	1226.1322	1235.1782	1263.5072	1274.3857	1295.3906	1328.5243	1338.7951	1349.6675	1406.8101	1434.2683	1486.5897	2985.2566	3031.9927	3084.2501	3086.7568	3094.3492	3145.4326	3164.0224	3178.6432	3194.7581	3816.2874
OC1C2CC3C4C3C2C14	O[C@H]1[C@H]2C[C@H]3[C@@H]4[C@H]3[C@H]2[C@H]14	
InChI=1S/C8H10O/c9-8-3-1-2-4-5(2)7(8)6(3)4/h2-9H,1H2	InChI=1S/C8H10O/c9-8-3-1-2-4-5(2)7(8)6(3)4/h2-9H,1H2/t2-,3+,4+,5-,6+,7-,8+/m1/s1
