19
gdb 69925	2.96785	1.75904	1.63457	1.1611	77.8	-0.2317	0.0158	0.2475	916.9397	0.161705	-385.865135	-385.858305	-385.857361	-385.895685	29.67	
O	-0.089180569	 1.3660714387	 0.1446391711	-0.476312
C	-0.0012558418	-0.0184165386	-0.0213676615	 0.412167
C	-0.4507066675	-0.6644738573	-1.3038546167	-0.367674
C	-1.2471866643	-0.8566943846	-0.0236804757	-0.08338
C	-0.9280705624	-2.0135400522	 0.9833171877	-0.072846
C	-0.1121396078	-1.1989290124	 2.0309700412	-0.200845
C	 0.9496275981	-0.7774430822	 0.9745469637	-0.123473
C	 1.3048928902	-2.1472975603	 0.4141791315	-0.090389
C	 0.1898789564	-2.8847936823	 0.4236162029	-0.077647
H	 0.638094613	 1.7686721401	-0.3422353035	 0.279706
H	-0.9032607273	 0.011163953	-2.0233724492	 0.106056
H	 0.1050430534	-1.4898781338	-1.7328018184	 0.109681
H	-2.2218112208	-0.3878190643	 0.0425149732	 0.094784
H	-1.8139954719	-2.5410099674	 1.336874863	 0.058215
H	-0.6650632319	-0.3468589395	 2.4380445499	 0.101306
H	 0.2951418376	-1.8116069785	 2.8404034864	 0.087548
H	 1.7805908908	-0.1566680674	 1.3107943681	 0.053819
H	 2.2715882386	-2.4195063471	 0.0092265946	 0.093946
H	 0.0560723968	-3.8825108438	 0.0247491617	 0.095337
196.4865	292.0617	311.865	362.9766	394.8329	480.3956	516.5685	539.5003	601.0288	709.2073	740.7033	763.528	804.8802	849.8751	877.4459	897.9381	900.9722	939.8147	950.24	960.009	971.267	980.411	1032.4681	1046.4442	1063.4432	1080.0477	1124.849	1134.6497	1158.459	1212.4211	1215.8182	1233.4736	1270.5345	1276.9747	1290.716	1313.0757	1357.9791	1393.6587	1476.3186	1493.055	1639.738	3049.9145	3109.0452	3110.2122	3113.5017	3129.1319	3182.411	3195.8321	3219.1453	3221.5875	3793.5907
OC12CC1C1CC2C=C1	O[C@]12C[C@H]1[C@@H]1C[C@H]2C=C1	
InChI=1S/C8H10O/c9-8-4-7(8)5-1-2-6(8)3-5/h1-2,5-7,9H,3-4H2	InChI=1S/C8H10O/c9-8-4-7(8)5-1-2-6(8)3-5/h1-2,5-7,9H,3-4H2/t5-,6+,7-,8-/m0/s1
