18
gdb 14489	3.57193	1.99457	1.51929	0.5707	78.35	-0.2515	0.0486	0.3001	881.0532	0.153475	-310.582508	-310.575052	-310.574108	-310.61366	29.862	
C	-0.1570276173	 1.5371851711	-0.0128371478	-0.481938
C	 0.0008026193	 0.0107361694	 0.0047394867	 0.199152
C	-1.3144666671	-0.5836328138	-0.2122881722	 0.25199
C	-2.4279124471	-1.0020399791	-0.3955173342	-0.451807
C	 1.2120452606	-0.666854243	-0.7545363379	-0.067918
C	 2.1579195986	-0.1232309849	 0.3550803686	-0.248706
C	 0.9099316983	-0.6766315309	 1.1018556171	-0.067853
C	 1.0081837369	-1.9109992773	 0.1585358414	-0.232984
H	 0.7821422347	 2.0698959764	 0.1406679834	 0.117915
H	-0.5765906943	 1.8577765088	-0.971309849	 0.128256
H	-0.8561540918	 1.8489746006	 0.7691644114	 0.128233
H	-3.4037433554	-1.3885792352	-0.5561950447	 0.186332
H	 1.3739461318	-0.6554203623	-1.8337473554	 0.07443
H	 3.0792559847	-0.6915626502	 0.5020087841	 0.093376
H	 2.3590100305	 0.946248025	 0.3934952169	 0.094321
H	 0.7212350307	-0.6765197899	 2.1767678696	 0.074424
H	 0.1014915384	-2.496194307	 0.0078904964	 0.114683
H	 1.8853970584	-2.5467132679	 0.2979501656	 0.088094
148.3198	172.9863	176.8189	277.4452	359.7852	487.3721	509.0634	526.8069	591.7337	618.323	633.6892	649.7324	760.2621	807.3785	863.1735	899.0058	902.129	925.4422	1006.645	1010.9404	1024.7737	1066.0018	1090.5672	1110.1876	1125.9955	1178.0156	1184.245	1194.9711	1217.217	1234.2395	1252.8403	1264.3224	1412.55	1487.8958	1489.3779	1509.2109	1546.873	2221.8288	3047.2841	3069.4893	3074.381	3096.6012	3104.0327	3106.712	3132.2188	3146.5742	3149.6932	3502.509
CC1(C#C)C2CC1C2	C[C@@]1(C#C)[C@H]2C[C@@H]1C2	
InChI=1S/C8H10/c1-3-8(2)6-4-7(8)5-6/h1,6-7H,4-5H2,2H3	InChI=1S/C8H10/c1-3-8(2)6-4-7(8)5-6/h1,6-7H,4-5H2,2H3/t6-,7+,8-
