16
gdb 12057	4.41481	1.60647	1.49331	2.5079	65.31	-0.2662	-0.0359	0.2303	878.148	0.129782	-383.719582	-383.712352	-383.711408	-383.750969	27.789	
O	-0.054344326	 1.4624914862	-0.0519411652	-0.482843
C	-0.0583921531	 0.072912737	 0.0160507199	 0.335657
C	 0.2242070577	-0.5959332726	 1.4268759052	-0.311281
C	-1.1225481411	-1.3122442392	 1.3365218439	-0.033291
C	-2.2173417514	-0.2962740446	 1.216924465	-0.286635
C	-1.4220865422	-0.6415013644	-0.010725446	-0.095391
C	 0.8785943505	-0.5021141276	-1.0173754906	 0.110682
O	 1.5165699701	 0.1989462684	-1.7662048853	-0.28214
H	 0.5696009118	 1.6932356519	-0.759254315	 0.290138
H	 1.0947270819	-1.2573035084	 1.4253472595	 0.107865
H	 0.332105928	 0.1356614381	 2.2318940355	 0.119449
H	-1.3060882952	-2.3378256011	 1.6283277791	 0.091845
H	-3.228229371	-0.6906035479	 1.2189291786	 0.116486
H	-2.1142157137	 0.6826893761	 1.6761887065	 0.128909
H	-1.8934524421	-1.0461399393	-0.8988605624	 0.090478
H	 0.9503417557	-1.6082574027	-1.0472883588	 0.100072
101.8025	127.5141	285.9663	308.7574	379.9281	409.7111	416.9458	496.7505	555.2564	732.4541	787.9183	825.2206	846.0239	885.6051	903.858	958.1643	979.4357	1000.128	1029.2509	1058.6931	1084.8763	1094.6704	1110.5927	1140.1958	1190.9158	1241.0855	1282.2225	1295.4079	1347.7001	1384.6326	1435.6555	1476.3784	1496.9125	1807.9147	2933.0602	3056.3541	3111.0165	3122.2257	3174.7976	3199.7354	3212.3749	3679.6202
OC1(CC2CC12)C=O	O[C@]1(C[C@H]2C[C@@H]12)C=O	
InChI=1S/C6H8O2/c7-3-6(8)2-4-1-5(4)6/h3-5,8H,1-2H2	InChI=1S/C6H8O2/c7-3-6(8)2-4-1-5(4)6/h3-5,8H,1-2H2/t4-,5-,6-/m1/s1
