18
gdb 19711	3.44071	2.49886	2.44778	0.2039	73.89	-0.2357	0.0198	0.2556	709.5524	0.157852	-310.649682	-310.644146	-310.643202	-310.678748	24.727	
C	-0.0190319907	 1.5299353463	 0.1185054486	-0.29827
C	 1.2989935926	 0.8119779328	-0.017659082	-0.029006
C	 0.0034889377	 0.0284355814	-0.0087214303	-0.029005
C	-0.0141158363	-0.6693945725	-1.4132850948	-0.070653
C	 1.5008913225	-1.0020370636	-1.5416510408	-0.190381
C	 1.9109943984	 0.4949419676	-1.4265671775	-0.070653
C	 1.0166075786	 1.0800489168	-2.5090690927	-0.079475
C	-0.127983717	 0.3877855489	-2.501169906	-0.079475
H	-0.2508206745	 1.9244058997	 1.103386317	 0.100829
H	-0.3889835113	 2.1322418318	-0.7029415332	 0.110897
H	 1.9807870179	 0.7970385234	 0.824960272	 0.081988
H	-0.2913169547	-0.5771658767	 0.840636688	 0.081987
H	-0.7168067146	-1.5003465848	-1.4772711046	 0.055898
H	 1.8766568691	-1.6138962956	-0.7149766216	 0.08519
H	 1.7691449265	-1.4565015493	-2.5002557142	 0.088252
H	 2.9725128929	 0.731010797	-1.5027242969	 0.055898
H	 1.2487642495	 1.9607004842	-3.0949150972	 0.092989
H	-1.0216186566	 0.5875453127	-3.0792462739	 0.092989
304.1288	346.0502	475.8013	513.8265	537.2964	663.5476	737.9172	740.4564	762.6675	801.584	810.3249	868.1166	889.4589	906.8326	921.518	941.648	961.0351	967.2797	992.9111	1038.4528	1065.9538	1068.6556	1089.457	1098.9605	1126.4233	1138.1834	1171.1517	1188.3591	1237.4339	1271.585	1275.5631	1283.8305	1290.1455	1362.0255	1365.0253	1476.1638	1493.0705	1638.3358	3043.2502	3101.0838	3109.4434	3112.214	3129.3239	3165.5545	3175.0722	3195.2256	3215.6672	3220.9812
C1C2C1C1CC2C=C1	C1[C@H]2[C@@H]1[C@@H]1C[C@H]2C=C1	
InChI=1S/C8H10/c1-2-6-3-5(1)7-4-8(6)7/h1-2,5-8H,3-4H2	InChI=1S/C8H10/c1-2-6-3-5(1)7-4-8(6)7/h1-2,5-8H,3-4H2/t5-,6+,7-,8+
