22
gdb 122237	2.68578	0.83067	0.70215	1.8939	89.14	-0.2428	0.044	0.2869	1706.8974	0.192149	-367.158781	-367.148363	-367.147419	-367.194811	38.276	
C	 0.1181275081	 1.5138161296	 0.2777891466	-0.381601
C	 0.0199678637	 0.0267682043	-0.073036629	-0.164631
C	-1.3914119835	-0.5399714057	 0.1119516136	-0.158596
C	-1.492256653	-2.0296728752	-0.239545838	-0.28386
C	-2.8951836266	-2.6019625101	-0.0712128905	 0.098841
C	-3.04522005	-4.0206002582	 0.3752389133	-0.273975
N	-3.3735478733	-2.9282528152	 1.2984703857	-0.333492
C	-3.896728445	-2.0398482451	-0.9475746165	 0.354673
C	-4.6987433672	-1.5721715755	-1.7115568976	-0.462221
H	 1.1350173722	 1.8921877133	 0.1343235635	 0.111394
H	-0.5522701547	 2.112468271	-0.3486214483	 0.116901
H	-0.1599285353	 1.6932886534	 1.3223102016	 0.1145
H	 0.3376226177	-0.1268264072	-1.112938099	 0.096378
H	 0.7264536116	-0.5431457176	 0.545624014	 0.091484
H	-1.7139952249	-0.3875216283	 1.1509330669	 0.094538
H	-2.0991201312	 0.0213519863	-0.5101993807	 0.114161
H	-1.1690360571	-2.1849286501	-1.2766596305	 0.109798
H	-0.8055287067	-2.6096372936	 0.391594126	 0.088394
H	-3.897720711	-4.5994282491	 0.0337746105	 0.128533
H	-2.1332849685	-4.5922739062	 0.5303620516	 0.113294
H	-2.6055728884	-2.7856096564	 1.9516965399	 0.231227
H	-5.4208227368	-1.1607898745	-2.3725257732	 0.19426
56.346	72.0048	107.8611	135.5962	175.3373	221.4016	250.288	285.5366	315.5628	387.9646	441.8863	549.2776	573.9416	610.4329	650.1805	702.4466	735.8875	788.8923	844.8395	897.5181	909.6773	929.9487	951.0512	984.5843	1027.2106	1067.9077	1069.3905	1120.7295	1128.0651	1145.4379	1236.69	1246.6569	1284.8622	1303.2286	1308.8025	1330.1262	1365.9945	1380.2078	1399.2221	1414.0164	1473.4785	1485.4683	1498.5374	1500.3456	1504.73	1512.272	2237.3793	3008.9324	3010.7508	3019.6525	3030.3175	3037.5801	3049.5337	3072.6825	3097.4023	3102.4992	3107.397	3199.8686	3484.9409	3502.7874
CCCCC1(CN1)C#C	CCCC[C@]1(CN1)C#C	
InChI=1S/C8H13N/c1-3-5-6-8(4-2)7-9-8/h2,9H,3,5-7H2,1H3	InChI=1S/C8H13N/c1-3-5-6-8(4-2)7-9-8/h2,9H,3,5-7H2,1H3/t8-/m0/s1
