16
gdb 29715	2.52011	1.54841	0.96715	1.6204	68.03	-0.1564	0.0627	0.2191	1149.7273	0.122234	-475.035535	-475.025657	-475.024713	-475.070321	34.941	
C	-0.0666581938	 1.4518143203	 0.005403665	-0.339829
N	 0.0251974964	 0.0065134457	-0.0106491731	-0.102724
C	 0.1067532849	-0.7934014801	-1.1268102517	 0.367727
O	 0.0420941634	-0.1683536632	-2.3358584336	-0.444434
C	 0.2436651508	-2.1052324068	-0.7544706289	-0.436075
C	 0.2438032746	-2.1052806496	 0.6850347527	 0.151113
O	 0.4143201984	-3.1646037889	 1.5555256959	-0.461898
C	 0.1130898756	-0.8114601914	 1.0991663409	 0.291571
O	 0.0724148797	-0.2534301371	 2.3393304904	-0.454292
H	 0.9227510914	 1.9232621814	-0.0214095725	 0.134659
H	-0.6363474674	 1.7857791101	-0.8630063771	 0.149132
H	-0.5775333923	 1.7645207666	 0.9172311898	 0.151142
H	 0.0480196331	-0.8442166124	-3.0195951938	 0.305196
H	 0.3431674333	-2.9588497706	-1.4064061378	 0.088368
H	-0.3084816267	-3.7881070101	 1.4263970559	 0.292734
H	 0.1628366687	-0.983222844	 2.9633576078	 0.307611
52.4337	106.2122	172.7487	202.5652	214.0008	254.2236	270.5001	274.0683	294.3213	323.5092	351.9932	566.235	600.4768	618.0609	629.2324	654.4911	665.1271	763.2251	888.8067	1061.0309	1131.2596	1153.8443	1174.0174	1179.1609	1263.0504	1280.3709	1291.0689	1396.5649	1447.116	1486.9362	1492.1676	1530.0715	1559.6134	1613.0098	1692.9745	3033.9592	3112.7457	3154.6668	3247.8797	3784.718	3812.1407	3853.927
CN1C(O)=CC(O)=C1O	Cn1c(O)cc(O)c1O	
InChI=1S/C5H7NO3/c1-6-4(8)2-3(7)5(6)9/h2,7-9H,1H3	InChI=1S/C5H7NO3/c1-6-4(8)2-3(7)5(6)9/h2,7-9H,1H3
