25
gdb 86183	2.24977	1.34987	1.19246	1.33	87.81	-0.259	0.0686	0.3276	1252.7381	0.228352	-389.517168	-389.506925	-389.505981	-389.551766	40.025	
C	 0.0808708403	 1.4336713614	-0.2716065454	-0.401116
C	 0.0137722602	-0.0323565417	 0.1654532834	 0.055176
C	 0.2028885164	-1.0317835938	-1.0169920921	-0.262408
C	 1.5445871892	-1.7366860082	-0.7593275698	 0.120357
O	 2.6350754655	-0.9400571735	-1.2264648616	-0.449127
C	 1.6482878082	-1.8043244727	 0.7832274333	 0.290485
C	 0.7145640799	-2.9051138765	 1.3206992326	-0.433699
C	 3.0756802046	-2.0696885027	 1.2755667249	-0.439214
C	 1.1285529644	-0.4018376849	 1.1838094976	-0.238982
H	 1.0374812172	 1.6379618092	-0.7649530239	 0.11905
H	-0.7227377467	 1.6806215473	-0.9743751493	 0.104753
H	-0.00650825	 2.1101308702	 0.5857677711	 0.109446
H	-0.967552445	-0.2061463062	 0.6202101025	 0.066325
H	-0.6095537795	-1.7644651477	-1.0520725209	 0.096893
H	 0.2058038762	-0.5278161122	-1.9907224767	 0.079376
H	 1.5892858518	-2.7379398142	-1.2145946012	 0.048721
H	 2.5085444769	-0.7948408773	-2.1687642698	 0.27942
H	 1.0054342503	-3.8904192023	 0.9395591641	 0.109243
H	 0.7689530135	-2.9434029925	 2.4137688941	 0.112896
H	-0.3328068854	-2.738547957	 1.0516812464	 0.111401
H	 3.7750300683	-1.3363846769	 0.8709234567	 0.131996
H	 3.1165791415	-2.0235460141	 2.3695865644	 0.10208
H	 3.4187767166	-3.0664068347	 0.9747493725	 0.102422
H	 1.9489461872	 0.3188115262	 1.1056848738	 0.101145
H	 0.7731827484	-0.3762592251	 2.2191671434	 0.08336
43.6555	134.6526	211.4777	234.0399	253.1361	270.0252	285.6984	287.3418	317.9925	353.5309	394.2744	413.4267	433.5594	491.2021	563.8007	685.5021	792.2438	814.8727	863.9687	881.8158	916.5047	934.5216	952.9076	961.0253	1004.6801	1011.7163	1033.2469	1057.506	1097.0795	1136.8393	1165.3965	1181.1785	1206.4681	1244.1172	1271.8139	1276.8672	1298.7827	1321.3548	1342.0574	1352.3243	1373.6426	1396.5463	1405.241	1406.0648	1430.2486	1477.3553	1486.8567	1490.1818	1493.6428	1499.0776	1503.3977	1505.56	1513.2523	2979.412	3023.1621	3026.2374	3028.3	3031.0248	3036.8025	3044.2467	3074.1432	3083.6412	3085.5193	3090.8507	3094.7176	3099.9779	3103.8345	3134.4562	3825.1512
CC1CC(O)C(C)(C)C1	C[C@H]1C[C@@H](O)C(C)(C)C1	
InChI=1S/C8H16O/c1-6-4-7(9)8(2,3)5-6/h6-7,9H,4-5H2,1-3H3	InChI=1S/C8H16O/c1-6-4-7(9)8(2,3)5-6/h6-7,9H,4-5H2,1-3H3/t6-,7+/m0/s1
