18
gdb 97852	5.32435	0.66612	0.63783	1.6746	82.24	-0.2495	0.018	0.2674	1791.2222	0.147822	-401.935534	-401.926274	-401.92533	-401.972685	31.864	
C	 0.3685266923	 1.2935104658	-0.47087036	-0.364677
C	-0.3709982838	 0.2351120354	 0.3677515817	-0.314433
C	 0.4049089926	-0.2352020092	 1.5106069325	 0.061565
C	 1.0737482102	-0.6141957327	 2.4377602266	 0.097724
C	 1.8527478439	-1.0737490904	 3.5819515275	-0.171928
C	 0.9791137313	-1.4058309965	 4.8365655924	-0.115147
O	 1.3057014436	-2.781278388	 5.1390403521	-0.217718
C	 2.1939929124	-3.1600406029	 4.1913452762	 0.128524
N	 2.5744840213	-2.3454107752	 3.3001048239	-0.255223
H	 1.3067049627	 0.8913742692	-0.8621913977	 0.132644
H	-0.2505446165	 1.6113973587	-1.3150613179	 0.114527
H	 0.6050008864	 2.1731235584	 0.133953981	 0.127023
H	-1.3253976453	 0.6467340448	 0.7207617523	 0.127945
H	-0.6304123918	-0.6213361983	-0.2676618887	 0.133054
H	 2.604078188	-0.3136232375	 3.8284768836	 0.116603
H	 1.2285581861	-0.7943441577	 5.7066940076	 0.123494
H	-0.0913283234	-1.3388859136	 4.6332071752	 0.131098
H	 2.5283177601	-4.1878796806	 4.2815612519	 0.144926
10.5204	43.2361	91.2677	119.1517	192.065	221.5963	328.1252	431.0826	476.5641	486.2348	560.6034	719.7889	763.7677	784.8172	872.5864	900.3613	960.2016	966.11	983.6631	994.3433	1051.6366	1080.7969	1104.2118	1129.7402	1184.6748	1219.5465	1272.4556	1286.3284	1314.3797	1346.0344	1354.0509	1372.6422	1408.9481	1473.611	1494.8398	1505.5196	1516.1745	1706.3983	2367.491	3020.4373	3024.2564	3045.0038	3047.9852	3069.3943	3118.2609	3125.1424	3125.3473	3215.1348
CCC#CC1COC=N1	CCC#C[C@H]1COC=N1	
InChI=1S/C7H9NO/c1-2-3-4-7-5-9-6-8-7/h6-7H,2,5H2,1H3	InChI=1S/C7H9NO/c1-2-3-4-7-5-9-6-8-7/h6-7H,2,5H2,1H3/t7-/m0/s1
