23
gdb 122156	3.13268	0.87623	0.77151	2.1782	83.23	-0.2515	0.0794	0.3309	1590.3331	0.203126	-425.407071	-425.39635	-425.395405	-425.443387	39.348	
C	-0.1266567789	 1.2038541396	-0.3126980053	-0.417298
C	 0.0686895637	-0.2284812899	 0.1314391176	-0.043035
C	 1.4271899758	-0.9061181031	 0.0776704456	-0.351109
C	 0.7611340596	-0.6231087242	 1.4059942387	 0.434851
C	 1.3327073085	 0.3958718858	 2.3663749965	-0.458694
O	 0.1465843297	-1.7231323105	 2.0366995996	-0.307654
C	 1.0262006272	-2.6246246995	 2.6986870764	-0.087061
C	 0.2390081016	-3.9083089404	 2.9167129326	-0.059425
O	-0.2057247375	-4.4527819326	 1.6902372703	-0.422395
H	 0.7486522713	 1.8242324416	-0.0991211898	 0.115529
H	-0.2988678647	 1.2487532314	-1.3935464102	 0.121263
H	-0.9899646883	 1.6633056483	 0.1812324522	 0.120985
H	-0.7636472718	-0.8852447373	-0.1077839485	 0.088739
H	 1.4690121411	-1.937387099	-0.2551622967	 0.117883
H	 2.2855895736	-0.3032172793	-0.2030781562	 0.108007
H	 1.731337883	 1.2639802098	 1.8368949211	 0.120299
H	 0.5601786634	 0.7415730099	 3.0614569634	 0.124471
H	 2.152087154	-0.0306783628	 2.9546725503	 0.120207
H	 1.9056526126	-2.8256188596	 2.0707475315	 0.099284
H	 1.3691897034	-2.2158039351	 3.6607699053	 0.090059
H	 0.879082464	-4.6579008373	 3.3936113678	 0.106644
H	-0.6041546958	-3.7028661057	 3.5956184492	 0.092349
H	-0.6377174255	-3.7228462302	 1.2308772587	 0.2861
34.8658	75.4521	135.651	172.0049	175.5888	194.2293	254.4932	270.0353	307.3588	371.1502	408.3816	430.8332	449.164	497.6652	555.7893	712.9031	797.4767	850.8182	882.5974	910.9719	920.2793	940.0535	992.0414	1016.6594	1050.1204	1072.1202	1099.5584	1121.1671	1124.466	1135.9342	1146.984	1189.3754	1237.5928	1246.2466	1261.8232	1324.7179	1386.8192	1395.2209	1410.9267	1412.5805	1425.6507	1437.1492	1480.8367	1482.4122	1494.4217	1497.8874	1500.0141	1507.3063	1516.5821	2979.2885	2989.3803	3030.9736	3034.9069	3039.0289	3078.9669	3091.0886	3096.6583	3102.1867	3124.8941	3127.7955	3144.0199	3215.8469	3792.6137
CC1CC1(C)OCCO	C[C@H]1C[C@]1(C)OCCO	
InChI=1S/C7H14O2/c1-6-5-7(6,2)9-4-3-8/h6,8H,3-5H2,1-2H3	InChI=1S/C7H14O2/c1-6-5-7(6,2)9-4-3-8/h6,8H,3-5H2,1-2H3/t6-,7-/m0/s1
