17
gdb 11297	4.44184	1.33753	1.18293	5.1408	68.27	-0.2807	0.0402	0.3209	1021.5262	0.14378	-363.893845	-363.886048	-363.885104	-363.926735	28.675	
O	-0.7060768859	 1.141715658	 0.8550231482	-0.436912
C	 0.0281239013	 0.2019150122	 0.0745176556	 0.106307
C	 0.9149374124	-0.7071815847	 0.9495858416	-0.235973
C	-0.0044892949	-1.8592597592	 1.4407903984	-0.217304
C	-1.3647246013	-1.6425549901	 0.7053274615	-0.124433
C	-1.0037859174	-0.7596332836	-0.514369556	-0.212461
C	-2.0424099089	-2.8851760998	 0.3568821437	 0.256458
N	-2.5694618221	-3.8751304977	 0.0755868828	-0.330086
H	-0.077794407	 1.6950033596	 1.3294235339	 0.285196
H	 0.6054118392	 0.7172811737	-0.7052115643	 0.070233
H	 1.741061364	-1.103371622	 0.3507035327	 0.110387
H	 1.362526608	-0.1444334094	 1.7746349246	 0.096951
H	 0.4160680668	-2.832602881	 1.1785740667	 0.125989
H	-0.1479128285	-1.8533426735	 2.5227928807	 0.120447
H	-2.0301407724	-1.0623009374	 1.3509412423	 0.139919
H	-1.8666346676	-0.2377522429	-0.9318483929	 0.127297
H	-0.5460843458	-1.3663265122	-1.3017864197	 0.117986
37.1129	129.7933	161.7594	254.9682	317.6787	383.3457	400.2161	525.1087	546.9942	565.8354	755.1696	777.327	835.6033	866.0545	925.2147	943.7469	982.7032	1034.6916	1039.7713	1062.4133	1067.7902	1191.1042	1192.7086	1204.5486	1264.8994	1287.3186	1299.4738	1320.4821	1328.1601	1360.3327	1369.4908	1418.572	1475.9632	1484.3981	1506.7871	2355.6181	3007.9043	3049.4445	3065.513	3074.8812	3078.4547	3086.9008	3123.7963	3129.646	3822.3333
OC1CCC(C1)C#N	O[C@H]1CC[C@@H](C1)C#N	
InChI=1S/C6H9NO/c7-4-5-1-2-6(8)3-5/h5-6,8H,1-3H2	InChI=1S/C6H9NO/c7-4-5-1-2-6(8)3-5/h5-6,8H,1-3H2/t5-,6-/m0/s1
