20
gdb 126340	1.75559	1.67383	0.96224	3.1678	80.88	-0.2482	-0.0034	0.2448	1287.1374	0.170639	-403.160522	-403.151107	-403.150162	-403.19579	33.891	
C	-0.2649975278	 1.6001024901	-0.0755352604	-0.37109
C	 0.0761507879	 0.1028072793	 0.0251900925	-0.312148
C	 0.7367882076	-0.4503003013	-1.2051225277	 0.0747
C	 0.1622276384	-0.8351293059	-2.3753903629	-0.000938
O	 1.0815937514	-1.2721832734	-3.2471534987	-0.168702
N	 2.3339487468	-1.1906406296	-2.6476303614	-0.208002
C	 2.129589494	-0.7035735666	-1.4452287776	 0.315994
C	 3.298585284	-0.4896073118	-0.5288904084	-0.294987
C	 3.7319422096	 0.9820330097	-0.4219949111	-0.383163
H	 0.6303004233	 2.2008915599	-0.2615243833	 0.128136
H	-0.9617880458	 1.7865333496	-0.8985924232	 0.120721
H	-0.7284177145	 1.9567767464	 0.8496319756	 0.11534
H	 0.7289134904	-0.0642200551	 0.8892611736	 0.109391
H	-0.8426763703	-0.4586894652	 0.2297983968	 0.113017
H	-0.860881825	-0.8634507845	-2.7196473086	 0.144062
H	 3.0508196809	-0.8736424971	 0.467981812	 0.109951
H	 4.1311799822	-1.0914064201	-0.9043151664	 0.130212
H	 3.9986390116	 1.3781534433	-1.4059587142	 0.133848
H	 2.9346400884	 1.6087960958	-0.0113057959	 0.125057
H	 4.6031250867	 1.0776654565	 0.2330424092	 0.118602
36.9089	70.2915	149.4203	166.9687	182.5038	219.845	279.2878	337.5509	407.2633	467.9725	606.1364	622.1688	686.1376	756.5575	784.7349	793.6199	846.2718	915.4428	943.8373	966.2603	985.572	1071.6697	1079.4033	1083.5219	1095.5052	1158.2437	1197.5691	1277.2203	1281.2971	1311.6059	1356.1663	1360.3034	1406.1049	1411.8673	1439.798	1478.2688	1487.7155	1493.1679	1498.1996	1499.6043	1506.4957	1517.6743	1642.9329	3035.028	3037.2978	3038.3982	3042.153	3067.635	3089.0448	3110.	3112.4876	3115.1256	3121.3283	3254.0779
CCC1=CON=C1CC	CCc1conc1CC	
InChI=1S/C7H11NO/c1-3-6-5-9-8-7(6)4-2/h5H,3-4H2,1-2H3	InChI=1S/C7H11NO/c1-3-6-5-9-8-7(6)4-2/h5H,3-4H2,1-2H3
