19
gdb 126671	6.27536	0.72769	0.66008	1.5438	78.86	-0.2136	0.0317	0.2453	1705.1422	0.160237	-419.228985	-419.219935	-419.21899	-419.263708	32.661	
C	 0.0025481144	 1.5022402892	 0.0085756099	-0.382981
C	-0.0537119693	-0.0276636695	 0.0024706302	-0.189403
C	-1.4830143714	-0.5458344793	 0.0126392298	-0.035645
O	-1.4297440694	-1.9751612832	 0.006213338	-0.277877
C	-2.6110331339	-2.6141594885	 0.0130966159	 0.455395
N	-3.7792685907	-1.9834284436	 0.0256218634	-0.32269
N	-4.6869291724	-2.9932870417	 0.0284650668	-0.210346
C	-4.1152485677	-4.2187576059	 0.0183664216	 0.000024
C	-2.7523366533	-4.023359785	 0.0078511784	-0.335282
H	 1.037209405	 1.8565495255	 0.0010808501	 0.116739
H	-0.4997647104	 1.9237520887	-0.8690519068	 0.118005
H	-0.4843559663	 1.916127023	 0.8984299039	 0.118005
H	 0.4583636042	-0.4230430524	-0.8823704242	 0.106623
H	 0.4735904878	-0.4306097787	 0.8748684491	 0.106628
H	-2.028399136	-0.2035064499	 0.9016068497	 0.109613
H	-2.0436679048	-0.1961440238	-0.8638688289	 0.109634
H	-5.6645106631	-2.7639059719	 0.0375526187	 0.27252
H	-4.7075486686	-5.1204362817	 0.0192348229	 0.133681
H	-1.972355944	-4.7651308813	-0.0020049087	 0.107358
55.6155	73.3912	112.6067	146.5183	235.5748	292.8232	336.2548	338.8205	396.5453	514.2937	648.645	720.0995	757.9277	763.251	764.9435	829.5194	895.4853	913.8536	936.8482	989.5913	1041.9759	1062.3262	1070.6694	1118.8683	1144.6094	1190.1298	1223.2878	1267.2257	1311.4109	1311.4508	1334.7263	1404.5879	1412.7055	1421.3533	1491.6239	1492.1091	1501.6273	1505.1473	1516.6065	1537.7275	1593.2303	3015.4184	3033.135	3038.7351	3047.7902	3074.9595	3101.8612	3109.4098	3257.6881	3286.5249	3694.3683
CCCOC1=NNC=C1	CCCOc1n[nH]cc1	
InChI=1S/C6H10N2O/c1-2-5-9-6-3-4-7-8-6/h3-4H,2,5H2,1H3,(H,7,8)	InChI=1S/C6H10N2O/c1-2-5-9-6-3-4-7-8-6/h3-4H,2,5H2,1H3,(H,7,8)
