23
gdb 122025	3.016	0.59331	0.51466	2.9843	80.04	-0.258	0.0716	0.3296	2158.5583	0.202495	-462.542122	-462.530371	-462.529427	-462.580388	40.447	
C	 0.9186363227	 1.1277446695	 0.0071332028	-0.223507
O	 0.9119718452	-0.2576249795	-0.2398463392	-0.231632
C	-0.1587667752	-0.6680378378	-1.059610306	-0.075386
C	-0.0907065585	-2.1847603388	-1.2543004086	 0.09074
O	-1.2540572005	-2.6251374372	-1.9478516748	-0.43047
C	 1.2042454417	-2.6301371683	-1.9371561934	-0.206429
C	 1.3383823727	-4.1511707831	-2.040141773	-0.164199
C	 2.5988271556	-4.5841567374	-2.7757134399	-0.07582
O	 2.6186445684	-6.003443863	-2.8157137086	-0.420807
H	 1.0193464239	 1.7081717071	-0.9238685428	 0.103308
H	-0.0012507008	 1.4555561643	 0.5163466572	 0.106314
H	 1.7747960092	 1.3422867648	 0.6513928344	 0.127366
H	-1.1283840303	-0.4091501261	-0.6055214823	 0.095991
H	-0.1113567461	-0.1631496998	-2.0433726146	 0.068983
H	-0.1557964003	-2.6547263248	-0.2656800993	 0.099145
H	-1.188839215	-2.3127897456	-2.8575147472	 0.277857
H	 1.238941748	-2.1793432677	-2.9423944729	 0.075495
H	 2.0455846292	-2.2014204346	-1.3813509318	 0.118732
H	 1.3516349082	-4.5942717344	-1.0368297956	 0.105787
H	 0.4660455069	-4.5690812463	-2.5531727111	 0.11361
H	 2.6012262	-4.1574128028	-3.7931150354	 0.078444
H	 3.4881251323	-4.1875121511	-2.2580504779	 0.082537
H	 3.4211828626	-6.2802853475	-3.2670392701	 0.28394
56.8612	63.0786	78.0144	111.0499	133.0151	141.4405	189.3253	233.5571	262.2181	289.1543	299.9826	303.1954	405.8973	457.1771	493.5037	554.0681	762.0804	847.7247	887.1302	991.3296	997.5108	1015.8673	1053.5973	1075.3727	1088.1576	1118.6022	1136.0451	1171.3273	1183.0765	1202.5885	1225.5555	1229.6559	1249.2519	1277.5023	1297.948	1309.5332	1332.7946	1356.5604	1395.4013	1411.0438	1421.8896	1463.9757	1480.7575	1483.8002	1485.3974	1502.1589	1503.2943	1524.2351	1529.5398	2925.3221	2952.4415	2970.4591	2976.8494	2981.1125	2994.6183	3014.9785	3038.5202	3051.1563	3068.2737	3092.1828	3113.5234	3793.2686	3830.0815
COCC(O)CCCO	COC[C@@H](O)CCCO	
InChI=1S/C6H14O3/c1-9-5-6(8)3-2-4-7/h6-8H,2-5H2,1H3	InChI=1S/C6H14O3/c1-9-5-6(8)3-2-4-7/h6-8H,2-5H2,1H3/t6-/m0/s1
