17
gdb 29934	2.36474	1.71402	1.00088	3.9212	82.85	-0.1905	-0.027	0.1636	1142.2481	0.137062	-418.063177	-418.054601	-418.053657	-418.096165	32.087	
C	-0.0273600136	 1.4394039961	 0.0253835444	-0.343292
N	-0.0191019216	-0.0068804527	 0.0010601601	-0.06915
C	-0.017311669	-0.7772013935	-1.1123496374	-0.067573
C	-0.013609315	-2.1176716928	-0.7670761855	-0.262861
C	-0.0165218205	-2.1745541668	 0.6465095297	 0.2677
N	-0.0696598233	-3.2738933508	 1.4590091273	-0.605636
C	-0.0116316192	-0.8466271364	 1.1216466513	 0.139202
C	 0.0536988379	-0.4317798079	 2.4816502617	 0.056598
O	 0.0858254488	-1.2092442432	 3.4358723421	-0.347499
H	 0.8636581103	 1.8339385782	 0.5255592403	 0.144413
H	-0.0391999584	 1.8074793424	-1.0020448918	 0.140005
H	-0.9135723936	 1.8219911218	 0.5426219456	 0.145547
H	-0.0242199365	-0.3201558456	-2.090805641	 0.127424
H	-0.0193223072	-2.9499337043	-1.4534862	 0.097787
H	 0.2942654726	-4.1397059668	 1.0964681109	 0.247094
H	 0.116055536	-3.0733206242	 2.4345264434	 0.274135
H	 0.0863964123	 0.6648583967	 2.661139019	 0.056106
102.2413	150.3596	175.2627	210.1328	273.7685	288.5691	324.3308	406.6828	424.1723	524.0979	594.7434	605.7928	619.0383	712.2618	748.9621	761.5214	816.7245	819.7534	1011.5012	1036.3495	1065.0626	1104.4687	1136.8828	1150.7602	1286.0693	1292.6917	1366.7306	1427.9024	1435.35	1460.4976	1478.3514	1503.4067	1535.101	1539.312	1571.3198	1644.379	1715.8011	2884.7549	3031.1303	3086.395	3134.5953	3240.7596	3259.8016	3525.7958	3679.8351
CN1C=CC(N)=C1C=O	Cn1ccc(N)c1C=O	
InChI=1S/C6H8N2O/c1-8-3-2-5(7)6(8)4-9/h2-4H,7H2,1H3	InChI=1S/C6H8N2O/c1-8-3-2-5(7)6(8)4-9/h2-4H,7H2,1H3
