19
gdb 62078	3.48979	0.70133	0.61886	2.6515	74.18	-0.251	-0.0386	0.2124	1753.1409	0.154999	-460.194189	-460.183664	-460.18272	-460.23146	36.059	
C	 0.0996521399	 1.4135992228	 0.0125317676	-0.482674
C	 0.0793073287	-0.0936941	-0.0733011841	 0.366822
O	 1.0911596669	-0.7538111489	-0.1843069557	-0.315721
C	-1.2684721618	-0.8226978809	-0.0144837732	 0.036496
O	-1.0658289191	-2.1983807522	-0.1832031145	-0.434123
C	-2.0048749551	-0.5386442505	 1.311587863	-0.225931
C	-3.3297531364	-1.3137131443	 1.3943578412	-0.269307
C	-3.9559732579	-1.207368964	 2.7641137182	 0.15505
O	-5.0658714141	-0.7991813332	 2.9895320021	-0.23755
H	 1.0677833392	 1.7874097118	-0.3228973827	 0.154128
H	-0.7054696627	 1.8589210026	-0.5794657385	 0.14403
H	-0.0535676113	 1.7241193703	 1.0526113694	 0.158575
H	-1.8863234817	-0.4318335501	-0.8420321517	 0.092514
H	-0.1009279285	-2.3058131911	-0.236786714	 0.294917
H	-1.35040142	-0.8360634381	 2.1412195687	 0.112458
H	-2.1945802007	 0.5361560403	 1.4101664009	 0.111671
H	-4.0493135794	-0.9630895681	 0.6485411949	 0.118895
H	-3.1119504686	-2.371669723	 1.1991242067	 0.148921
H	-3.2914671273	-1.5446113233	 3.5954628118	 0.070829
45.5251	57.898	84.9841	105.555	111.1028	151.1841	242.8346	311.2294	326.1881	404.2968	466.3544	479.9565	519.1806	587.9331	638.6576	765.1492	821.3376	849.6767	965.3919	976.0213	993.2983	1026.3992	1079.7835	1120.7053	1145.5067	1189.8183	1221.1828	1244.8475	1284.5808	1313.3338	1355.2731	1375.9062	1386.7589	1430.6769	1439.6031	1463.4016	1464.153	1473.8515	1485.2382	1795.6232	1836.4797	2847.0545	2954.9518	3023.8325	3037.3952	3042.4904	3073.1098	3104.7833	3106.4114	3153.8595	3655.9348
CC(=O)C(O)CCC=O	CC(=O)[C@@H](O)CCC=O	
InChI=1S/C6H10O3/c1-5(8)6(9)3-2-4-7/h4,6,9H,2-3H2,1H3	InChI=1S/C6H10O3/c1-5(8)6(9)3-2-4-7/h4,6,9H,2-3H2,1H3/t6-/m0/s1
