23
gdb 11618	5.01886	0.86081	0.77736	1.0773	83.15	-0.2294	0.0848	0.3142	1547.5889	0.210794	-330.304269	-330.294564	-330.293619	-330.33928	35.471	
C	-0.086381151	 1.4691144107	-0.2256818427	-0.387332
C	 0.0264046229	-0.0373128925	 0.0462410771	 0.042495
C	 0.8031105969	-0.2915541978	 1.3466570802	-0.381103
C	-1.3690313708	-0.6862102314	 0.0553425904	-0.164527
C	-1.3641577103	-2.2141251945	 0.129192895	-0.152429
N	-2.7257164508	-2.7386075217	 0.0731960781	-0.057456
C	-3.2583793678	-3.0106890518	-1.2572945693	-0.218312
C	-2.8667790434	-4.1256089041	-0.3509252112	-0.220819
H	 0.9017413524	 1.9388475497	-0.2738320385	 0.107307
H	-0.5997562436	 1.6675456771	-1.1724255485	 0.108287
H	-0.6522311664	 1.9687148647	 0.5698150857	 0.112306
H	 0.5986139421	-0.4840682387	-0.7805786411	 0.068177
H	 0.9743107018	-1.3571609579	 1.5257761339	 0.113357
H	 1.782352337	 0.1979938598	 1.3184433003	 0.108706
H	 0.2576958639	 0.1082674369	 2.2102298771	 0.112509
H	-1.9551429627	-0.2945222812	 0.8968236221	 0.101443
H	-1.9050194547	-0.3884865703	-0.8553270499	 0.090708
H	-0.7344156843	-2.6238526358	-0.6845342585	 0.072185
H	-0.9234459827	-2.553398151	 1.0732936187	 0.103563
H	-4.3047054653	-2.7634934285	-1.41281129	 0.114777
H	-2.6128054546	-2.820242368	-2.1142036674	 0.105744
H	-1.9619479404	-4.6757788968	-0.6065907616	 0.105898
H	-3.6211931584	-4.708035167	 0.1705793802	 0.114516
50.3616	71.4495	128.9185	140.422	223.3003	246.2623	272.4263	311.6927	377.9534	415.3998	436.3783	485.7631	766.18	784.0335	829.4475	848.319	904.6826	926.7611	946.4215	966.0583	994.4165	1016.0237	1036.8846	1068.1768	1112.8627	1116.9232	1143.079	1156.4985	1177.8234	1191.9113	1207.8144	1259.7328	1299.491	1318.7749	1327.9189	1363.9531	1371.7702	1401.4567	1406.3478	1423.515	1479.1485	1488.0942	1490.0337	1495.4076	1501.7577	1505.4366	1510.8824	1522.9109	2911.3001	2991.0907	3016.7123	3022.6951	3028.5113	3047.4364	3066.3597	3086.9825	3088.2714	3093.2794	3093.6179	3097.3124	3103.7297	3172.4418	3186.7694
CC(C)CCN1CC1	CC(C)CCN1CC1	
InChI=1S/C7H15N/c1-7(2)3-4-8-5-6-8/h7H,3-6H2,1-2H3	InChI=1S/C7H15N/c1-7(2)3-4-8-5-6-8/h7H,3-6H2,1-2H3
