14
gdb 132072	2.40827	1.80953	1.03425	7.1138	73.9	-0.1748	-0.0275	0.1474	1044.8575	0.101884	-478.012664	-478.005208	-478.004264	-478.044361	29.119	
O	 0.1058246203	 0.0241062325	 0.1681934131	-0.481574
C	-0.0168136176	 1.2647038694	 0.1228864789	 0.200452
C	-1.2079913347	 2.0409371452	 0.103219787	 0.18169
F	-2.3734980115	 1.3937790098	 0.1301022317	-0.067342
C	-1.2236092621	 3.4334686597	 0.0390906081	-0.239493
C	-0.0504036795	 4.1440537303	-0.0116380919	-0.067712
N	 1.1244631534	 3.4354436573	 0.0062028607	-0.337289
C	 1.1819177839	 2.0951983063	 0.0590931406	 0.312021
N	 2.3659048762	 1.422622433	 0.1156723246	-0.557202
H	 3.1576652043	 1.7604145564	-0.4099056968	 0.253314
H	 2.1673991156	 0.425100942	 0.0377903156	 0.281309
H	-2.1758899839	 3.9488055978	 0.0256082849	 0.119172
H	 0.0300837375	 5.2178188192	-0.0619704412	 0.135372
H	 1.9936427881	 3.951880301	-0.0022386253	 0.267283
123.4329	242.4427	288.5522	302.9106	316.1062	363.1036	479.5459	518.0189	535.9963	550.687	574.0073	647.5873	683.6844	717.0057	722.4044	750.0049	879.6224	887.7901	1021.4619	1078.213	1135.4826	1225.2567	1284.789	1331.347	1383.2309	1474.3865	1528.4187	1573.5353	1602.7345	1645.2202	1686.3495	3213.8958	3263.479	3455.7547	3591.1319	3644.3736
[O-]C1=C(F)C=CNC1=[NH2+]	O=C1C(=C[CH]N[C]1N)F	
InChI=1S/C5H5FN2O/c6-3-1-2-8-5(7)4(3)9/h1-2,9H,(H2,7,8)	InChI=1S/C5H5FN2O/c6-3-1-2-8-5(7)4(3)9/h1-2,8H,7H2
