21
gdb 58954	2.5704	1.28169	1.06189	2.0952	78.17	-0.2318	0.0602	0.292	1236.9595	0.180567	-424.181487	-424.171766	-424.170822	-424.216083	36.169	
C	 0.0396987684	 1.5128140371	-0.0455842404	-0.408247
C	 0.0095016847	-0.0077328121	 0.1353939103	-0.004143
O	 0.7026052734	-0.4005408887	 1.3197285303	-0.423679
C	-1.3935714289	-0.5570331226	 0.0913896678	 0.281276
C	-2.4301226736	-0.434937511	 1.2105276662	-0.151239
O	-2.9232562643	-1.7760713519	 0.9597242859	-0.283974
C	-1.9116756373	-1.9742235421	-0.0341812692	 0.023471
C	-2.0857346881	-1.0255116411	-1.1839548926	-0.093876
C	-3.4332897931	-0.5482859307	-1.6772175666	-0.426354
H	 1.0691381221	 1.8795755403	-0.0104624199	 0.124609
H	-0.4064083218	 1.8037821251	-1.0014393119	 0.124198
H	-0.5291395978	 2.0105857299	 0.750272854	 0.109268
H	 0.5785643337	-0.4720159297	-0.67941689	 0.087354
H	 0.3769901269	 0.1394638258	 2.0474126013	 0.27777
H	-1.9794314399	-0.3826988004	 2.2091553551	 0.097598
H	-3.2136337769	 0.3265467254	 1.1193925557	 0.102895
H	-1.4154988025	-2.9379247029	-0.0614470949	 0.10602
H	-1.3511721648	-1.2063960835	-1.9683418315	 0.086505
H	-4.1778393053	-0.5961553591	-0.8791416954	 0.137724
H	-3.3870457174	 0.4804659071	-2.0503512568	 0.11309
H	-3.7876973576	-1.184567915	-2.4949063272	 0.119735
49.7695	124.4628	165.3567	192.6478	237.8312	244.2812	252.967	276.8539	320.7211	355.3556	485.6484	523.0253	604.2805	659.5643	768.213	784.3095	874.0655	919.6572	939.7021	972.1275	996.1833	1009.1491	1027.7564	1065.7639	1069.0904	1082.242	1113.7593	1117.4545	1141.4623	1169.1349	1224.9353	1270.433	1288.8509	1307.3863	1353.1159	1361.8181	1400.9831	1412.2542	1417.5033	1466.8373	1491.6579	1492.8426	1494.7841	1504.6892	1515.3491	3015.8855	3023.334	3035.5696	3036.1425	3062.9425	3093.4984	3094.8364	3113.5274	3120.6111	3128.8809	3177.8542	3810.3827
CC(O)C12COC1C2C	C[C@@H](O)[C@]12CO[C@H]1[C@H]2C	
InChI=1S/C7H12O2/c1-4-6-7(4,3-9-6)5(2)8/h4-6,8H,3H2,1-2H3	InChI=1S/C7H12O2/c1-4-6-7(4,3-9-6)5(2)8/h4-6,8H,3H2,1-2H3/t4-,5-,6+,7-/m1/s1
