18
gdb 76113	3.16089	1.3052	1.11212	4.9234	76.87	-0.2401	0.029	0.2691	1131.7469	0.14849	-398.100384	-398.09166	-398.090715	-398.133527	32.991	
C	-0.0294566753	 1.5357593533	 0.0444238964	-0.514857
C	 0.1236588889	 0.0478278339	 0.0002956142	 0.359671
N	-0.8085910142	-0.8684698835	 0.7014888579	-0.366973
C	 0.6413836984	-0.935861616	 0.9923292864	-0.122364
C	 1.2543806872	-1.8244283766	-0.0948652374	-0.211058
C	 0.8055719237	-3.2003700451	-0.1896017581	 0.300462
N	 0.4425001966	-4.2914420521	-0.3143113799	-0.3398
C	 0.6517990253	-0.7797674697	-1.1819936734	-0.031089
N	-0.3362649076	-1.1568757365	-2.1455385728	-0.513154
H	 0.8880440781	 2.0355394684	-0.2832662422	 0.12911
H	-0.8415108275	 1.861227517	-0.6145355075	 0.14603
H	-0.256619366	 1.8792721616	 1.0593930828	 0.120312
H	-1.2506359543	-0.3442806456	 1.4553730707	 0.233983
H	 1.0228943514	-0.7851862296	 1.9943870867	 0.107481
H	 2.3464983128	-1.7891007069	-0.0930367913	 0.116375
H	 1.4906784875	-0.2866949773	-1.6803028572	 0.092542
H	 0.033815563	-1.8033407267	-2.8341536161	 0.238718
H	-1.1117632181	-1.6132770387	-1.6738895593	 0.254612
95.5087	122.801	193.3124	196.3872	241.7514	294.2144	350.9649	364.2109	419.7088	514.974	557.9762	633.6294	691.9322	718.2539	767.7877	852.1653	883.1931	894.3626	929.0784	968.716	1008.3086	1040.2831	1051.4754	1093.339	1103.516	1137.7774	1177.5037	1225.092	1249.8708	1297.2197	1322.6221	1350.1859	1398.8705	1419.9287	1467.8798	1481.7649	1499.109	1651.0706	2350.1829	3030.28	3074.5402	3089.2304	3098.9534	3100.3496	3195.8138	3484.7587	3503.5153	3585.3662
CC12NC1C(C#N)C2N	C[C@]12N[C@H]1[C@@H](C#N)[C@H]2N	
InChI=1S/C6H9N3/c1-6-4(8)3(2-7)5(6)9-6/h3-5,9H,8H2,1H3	InChI=1S/C6H9N3/c1-6-4(8)3(2-7)5(6)9-6/h3-5,9H,8H2,1H3/t3-,4+,5-,6+/m0/s1
