19
gdb 42097	3.74644	1.21283	1.15815	1.493	70.32	-0.2487	0.0841	0.3327	1122.3165	0.16126	-460.162629	-460.154828	-460.153884	-460.196166	29.23	
C	-0.0447103692	 1.3035234013	-0.2561735491	-0.078389
C	 1.2433101629	 1.9788702064	 0.2489779245	-0.309062
C	 2.1585287521	 0.7883222231	 0.6267674953	 0.402094
C	 1.2885527195	-0.4389429074	 0.2619955622	-0.142367
O	 0.3628525741	 0.0158488764	-0.7056166004	-0.242299
C	 3.5412159132	 0.7982939493	-0.0452299032	-0.173865
O	 4.3590714147	 0.1163657168	 0.8911130192	-0.237232
C	 3.8961827541	 0.5765319427	 2.1343324383	 0.01355
O	 2.4943556562	 0.7528910584	 2.0210059412	-0.305379
H	-0.780416208	 1.2087971654	 0.5582826156	 0.09604
H	-0.5194829344	 1.8192162275	-1.0938031665	 0.110292
H	 1.7017516116	 2.5800853734	-0.5421137636	 0.107283
H	 1.0826148274	 2.6222818153	 1.1158758246	 0.121445
H	 1.8568107994	-1.2712317871	-0.1608220279	 0.112409
H	 0.7824913044	-0.7804831169	 1.1787062474	 0.098197
H	 3.568715741	 0.2657799116	-0.9978563124	 0.12881
H	 3.8945609232	 1.8310794773	-0.196561492	 0.093693
H	 4.1209950718	-0.1758098179	 2.8970393077	 0.11862
H	 4.3696845461	 1.5391097246	 2.3992240292	 0.08616
31.4916	80.8945	213.6483	274.4661	304.5689	389.7681	400.6454	454.03	642.8359	704.4	745.7575	812.7907	833.8225	926.6756	948.8862	972.3015	977.2238	992.4994	1020.4717	1036.0603	1104.6973	1116.4717	1128.9313	1161.8291	1178.1448	1183.4944	1207.3178	1239.5706	1255.6498	1269.7344	1283.6478	1324.5625	1357.5248	1366.599	1397.0787	1431.7275	1480.1353	1500.6947	1512.2901	1522.0511	1546.4081	2939.471	2977.7417	2978.8589	2986.6261	3057.4034	3074.1985	3097.8765	3102.7664	3115.2182	3123.0044
C1CC2(CO1)COCO2	C1C[C@@]2(CO1)COCO2	
InChI=1S/C6H10O3/c1-2-7-3-6(1)4-8-5-9-6/h1-5H2	InChI=1S/C6H10O3/c1-2-7-3-6(1)4-8-5-9-6/h1-5H2/t6-/m1/s1
