16
gdb 34423	2.78356	1.55609	1.29932	3.7707	68.61	-0.2758	-0.0029	0.2729	997.1911	0.125791	-437.878041	-437.870686	-437.869742	-437.910004	27.77	
N	 0.0224381971	-1.1314103237	-0.3264580076	-0.333075
C	 0.0226867865	 0.0088065504	-0.1381092429	 0.238015
C	 0.0244613395	 1.4525499194	 0.0773426121	 0.296128
C	-0.829196922	 2.2428919254	-0.929923348	-0.139722
O	-0.2543610463	 3.5368243836	-0.9539514696	-0.248538
C	 1.1564685066	 3.3566838004	-0.9044263234	-0.097918
C	 1.3835079243	 2.227497799	 0.1010761332	-0.155157
C	 1.0004579713	 2.5338567441	 1.5627063269	-0.0859
O	-0.2501113952	 1.8128301733	 1.441356079	-0.310307
H	-0.7828891139	 1.7595669515	-1.9185424339	 0.110322
H	-1.8689200871	 2.3252724817	-0.6076695069	 0.141886
H	 1.5525588043	 3.0734289246	-1.892436235	 0.106897
H	 1.6046975683	 4.30778755	-0.6054713197	 0.124603
H	 2.2978605213	 1.6582835409	-0.0554827237	 0.112175
H	 1.6491454171	 2.0838326352	 2.3212591046	 0.120211
H	 0.8338229782	 3.5909605644	 1.7950434449	 0.12038
111.1138	153.0845	189.5484	245.8793	357.6149	375.0647	504.5184	529.7043	563.3383	639.901	718.5697	832.2151	886.4793	904.7155	945.9705	951.7899	1020.1151	1036.3664	1071.8566	1110.2134	1122.6577	1138.1789	1146.4315	1167.3592	1210.4096	1243.2312	1284.0411	1327.8263	1344.61	1360.1517	1399.5523	1484.9467	1506.8094	1517.3055	2356.0735	2984.2847	2990.2735	3036.9062	3087.7089	3098.8298	3121.4788	3138.5645
N#CC12COCC1CO2	N#C[C@]12COC[C@H]1CO2	
InChI=1S/C6H7NO2/c7-3-6-4-8-1-5(6)2-9-6/h5H,1-2,4H2	InChI=1S/C6H7NO2/c7-3-6-4-8-1-5(6)2-9-6/h5H,1-2,4H2/t5-,6-/m0/s1
