18
gdb 15659	3.42224	1.61122	1.23687	0.7534	68.96	-0.2439	0.02	0.264	997.0043	0.15412	-384.940102	-384.932043	-384.931098	-384.97252	30.397	
O	-0.0653568743	 1.4420991396	 0.0017255907	-0.426703
C	 0.0576655872	 0.0257456806	 0.0605293635	-0.085066
C	-1.3494650997	-0.5523940531	-0.0493011826	-0.040673
C	-2.0438682986	-0.3131076543	-1.3735783794	-0.064745
C	-2.7697016115	-1.3685048127	-1.7453687684	-0.093937
C	-2.6822704717	-2.4859033228	-0.728516604	-0.280626
C	-1.4275228246	-2.0991800352	 0.0927791764	 0.097136
O	-0.2627741158	-2.7452706023	-0.412488268	-0.432453
H	 0.8191863529	 1.8188875496	 0.0047378154	 0.28655
H	 0.6889985345	-0.3523638799	-0.7553724917	 0.081289
H	 0.5191185538	-0.298857707	 1.0058564179	 0.091062
H	-1.9412246583	-0.0878415992	 0.7541666661	 0.090913
H	-1.9623385701	 0.6281212303	-1.9036461078	 0.105487
H	-3.3847515287	-1.4276180158	-2.6365729557	 0.092237
H	-3.5823263106	-2.5142238554	-0.0982218583	 0.10912
H	-2.5663974044	-3.485921742	-1.1604628309	 0.106703
H	-1.4903480078	-2.4147454063	 1.1371688089	 0.083221
H	-0.2248426122	-2.5626748843	-1.3587758821	 0.280486
100.6483	107.4046	184.9497	252.712	294.0875	332.7044	391.3908	406.3379	477.6334	533.4406	724.5942	774.5381	798.1356	839.2578	864.9995	930.3164	951.1899	981.3108	992.3395	1064.9416	1076.5387	1082.3671	1109.0484	1132.8291	1173.8316	1218.9005	1234.9808	1249.3802	1281.6061	1304.8571	1324.4405	1337.8109	1386.0868	1432.1529	1455.8208	1476.0064	1516.1387	1670.5999	2982.7418	2990.128	3011.1017	3023.4234	3066.8743	3085.6932	3187.2718	3217.1374	3788.6591	3831.3013
OCC1C=CCC1O	OC[C@H]1C=CC[C@H]1O	
InChI=1S/C6H10O2/c7-4-5-2-1-3-6(5)8/h1-2,5-8H,3-4H2	InChI=1S/C6H10O2/c7-4-5-2-1-3-6(5)8/h1-2,5-8H,3-4H2/t5-,6-/m1/s1
