22
gdb 76191	2.09392	1.3608	1.14975	3.2038	84.46	-0.2275	-0.0208	0.2067	1237.7446	0.18978	-404.339301	-404.328227	-404.327283	-404.375149	39.878	
C	-1.2454107569	-3.1105927709	 2.1967901002	-0.320188
N	-0.6970127941	-2.3217014173	 1.1042033747	-0.16375
C	-1.5098257336	-1.8606238167	-0.0096859332	 0.271012
C	-0.8644929831	-1.9917077169	-1.3830349087	-0.44324
C	-3.0072739154	-2.1234211058	-0.0701249408	-0.45574
C	-0.9614613051	-0.8732286963	 1.0234649605	 0.141143
C	-1.8668457322	-0.1275170983	 1.9861767595	-0.476692
C	 0.2737661225	-0.0924384311	 0.6708493817	 0.131365
O	 0.3819799287	 1.1019827495	 0.8036560542	-0.266821
H	-2.2494168561	-2.8227300181	 2.5356025394	 0.106025
H	-1.2795989874	-4.1596131834	 1.8861073468	 0.128067
H	-0.568345726	-3.0380562487	 3.0535354686	 0.129568
H	-1.1168629494	-2.9643913585	-1.8207392603	 0.116748
H	-1.2324520212	-1.2162714852	-2.0637553123	 0.12209
H	 0.222217076	-1.9245785106	-1.3309558885	 0.127437
H	-3.5058859941	-2.1048303045	 0.8981560583	 0.123506
H	-3.4941887496	-1.3822770174	-0.7122697031	 0.129873
H	-3.1859811474	-3.108841278	-0.5155956482	 0.124416
H	-2.8417675842	-0.5925943066	 2.1216236571	 0.115115
H	-1.3902128607	-0.0424417598	 2.9686844819	 0.128221
H	-2.0139362122	 0.8890614927	 1.6142832931	 0.148038
H	 1.1093771416	-0.7152796981	 0.288828059	 0.083806
68.3415	98.0118	121.3783	153.0211	171.2393	177.2006	238.9727	265.9318	279.2507	317.8108	340.197	390.8584	415.6633	501.1595	517.0651	571.1779	666.6112	721.6033	768.8802	918.8178	949.1562	992.71	1002.383	1016.8174	1090.5402	1125.9511	1141.9107	1146.4771	1160.9016	1179.1658	1238.6196	1291.8712	1379.3595	1401.1143	1410.613	1411.9469	1426.1583	1460.4756	1475.1791	1480.6986	1483.4512	1495.3337	1498.2218	1504.9347	1512.6274	1518.2103	1811.8681	2914.05	3010.0159	3033.0743	3040.3845	3052.6724	3076.3903	3090.2555	3096.0511	3103.9982	3117.0455	3146.278	3147.4734	3166.0139
CN1C(C)(C)C1(C)C=O	CN1C(C)(C)[C@]1(C)C=O	
InChI=1S/C7H13NO/c1-6(2)7(3,5-9)8(6)4/h5H,1-4H3	InChI=1S/C7H13NO/c1-6(2)7(3,5-9)8(6)4/h5H,1-4H3/t7-,8?/m0/s1
