20
gdb 52091	5.05112	0.7201	0.71324	1.6654	81.23	-0.2334	-0.0247	0.2088	1610.9125	0.170649	-403.077243	-403.068566	-403.067622	-403.112083	31.818	
O	-0.7661831457	 0.8678913017	 0.6814600938	-0.234311
C	 0.0306450361	 1.0300073664	-0.205744211	 0.159974
C	 1.2828509892	 1.8701981889	-0.1075224072	-0.274662
C	 1.3100598607	 2.9773121686	-1.1788428141	-0.36722
C	 2.6017001228	 3.7650899609	-1.1771206157	 0.33577
C	 4.0569821761	 3.2795613898	-1.406324344	-0.204039
N	 4.25902743	 4.788980156	-1.1895791929	-0.1403
C	 3.0213749465	 4.9422452589	-2.0896779934	-0.219028
C	 3.2374667422	 4.6217282258	-0.0518994778	-0.201572
H	-0.1201711954	 0.554163773	-1.2043704715	 0.069911
H	 1.3478033966	 2.2845699187	 0.9024543897	 0.126048
H	 2.1435750329	 1.2031084091	-0.2610524342	 0.121436
H	 1.1634972716	 2.5326690186	-2.1725308992	 0.106742
H	 0.4686867658	 3.6632675789	-1.0177896101	 0.116687
H	 4.5283404465	 2.6645716432	-0.6343991931	 0.100676
H	 4.3363362311	 2.9424899883	-2.4090288856	 0.09984
H	 3.2203826256	 4.7317786734	-3.1446760478	 0.099685
H	 2.5074195656	 5.8998431153	-1.9652519275	 0.101028
H	 2.74037832	 5.5550314878	 0.2281941152	 0.101625
H	 3.6444412418	 4.1098726768	 0.8247328366	 0.101709
52.1453	62.0595	88.9773	130.1077	283.0775	306.2074	349.9756	518.0816	584.9385	589.5815	661.3663	750.6242	786.1258	799.6769	852.5167	895.3434	938.245	954.3593	975.7973	988.6465	1006.2876	1026.08	1067.4202	1078.5965	1154.5418	1160.455	1169.0587	1169.5172	1201.7443	1201.9345	1233.0155	1261.9806	1277.632	1318.2482	1326.8553	1375.9229	1429.4291	1463.5031	1486.0375	1510.8595	1512.0594	1565.8667	1837.298	2846.5745	3010.9619	3017.2804	3041.7407	3043.2641	3053.1493	3054.7582	3101.543	3107.2908	3113.0499	3114.5745
O=CCCC12CN(C1)C2	O=CCC[C@@]12CN(C1)C2	
InChI=1S/C7H11NO/c9-3-1-2-7-4-8(5-7)6-7/h3H,1-2,4-6H2	InChI=1S/C7H11NO/c9-3-1-2-7-4-8(5-7)6-7/h3H,1-2,4-6H2
