17
gdb 67055	2.92118	1.74543	1.43474	4.0999	72.92	-0.2574	-0.0089	0.2485	945.59	0.135188	-421.724011	-421.716668	-421.715724	-421.755404	29.497	
C	-0.0893157242	 1.51455539	-0.1918501832	-0.470569
C	-0.1162741572	-0.0022936506	-0.0435168322	 0.118721
C	-1.1749329696	-0.6689412089	 0.9310918841	-0.12803
C	-0.3308211715	-1.954261692	 0.91205242	-0.268617
C	 0.6574313741	-0.7665843361	 1.006536022	 0.379358
C	-0.2216986732	-0.1598262175	 2.1359528395	-0.313917
O	 1.867025253	-0.8595518483	 0.1954398834	-0.317608
C	 1.046778617	-0.5920324299	-0.935784114	 0.344114
O	 1.3702094515	-0.6802151367	-2.0701534452	-0.302378
H	 0.9302916569	 1.9141705602	-0.147880658	 0.13762
H	-0.5006439479	 1.7836920029	-1.1700044975	 0.142227
H	-0.693224587	 2.0170973094	 0.5675492001	 0.123514
H	-2.2625588086	-0.5867565189	 0.9200941322	 0.097044
H	-0.4024981135	-2.6086345607	 1.7818973621	 0.103539
H	-0.3191363961	-2.5122785108	-0.0266694876	 0.116805
H	-0.1617660806	 0.912438469	 2.309700193	 0.123101
H	-0.3079014533	-0.7208034912	 3.0690613513	 0.115077
140.3116	183.4383	250.2831	299.9245	320.2941	425.3919	487.3878	533.567	580.5272	633.4712	713.8585	725.244	746.2338	819.0507	845.608	869.7391	919.6373	965.4686	981.9005	997.9862	1050.5944	1066.2433	1101.2348	1116.9641	1142.8386	1154.4123	1169.5677	1205.8637	1211.6659	1227.3481	1273.7845	1408.3949	1484.6191	1491.2174	1507.1865	1536.9326	1933.2671	3033.5233	3070.2058	3081.167	3097.1176	3106.8529	3116.6381	3142.3171	3171.3663
CC12C3CC1(C3)OC2=O	C[C@]12[C@H]3C[C@@]1(C3)OC2=O	
InChI=1S/C7H8O2/c1-6-4-2-7(6,3-4)9-5(6)8/h4H,2-3H2,1H3	InChI=1S/C7H8O2/c1-6-4-2-7(6,3-4)9-5(6)8/h4H,2-3H2,1H3/t4-,6-,7-/m1/s1
