23
gdb 116470	2.45257	1.22283	0.9476	0.5175	81.03	-0.2541	0.064	0.3181	1326.0003	0.207046	-425.44303	-425.433511	-425.432567	-425.476983	36.671	
O	-0.0432941062	 1.4300561661	-0.0139417415	-0.427794
C	 0.0320455674	 0.0091821624	 0.0049129288	-0.098352
C	-1.3902458552	-0.5433680945	-0.0283252309	 0.026441
C	-2.1479468821	-0.1269480572	-1.3014447049	-0.20222
C	-3.5821237442	-0.6731649469	-1.3100524167	-0.19857
C	-3.6014062198	-2.1980400236	-1.1313588147	-0.200807
C	-2.8357148664	-2.622750355	 0.1319127657	-0.21787
C	-1.4000254396	-2.0754858615	 0.1525711833	 0.118576
O	-0.5665945604	-2.7361788547	-0.8034977957	-0.444765
H	 0.8495678616	 1.7757003685	-0.0987167045	 0.285754
H	 0.5962725399	-0.3762171142	-0.8560189432	 0.09311
H	 0.5426247428	-0.3465612231	 0.9148195459	 0.080572
H	-1.9219128037	-0.1156878766	 0.8341838917	 0.07712
H	-2.1408906691	 0.9627828482	-1.3830876923	 0.116036
H	-1.6073426213	-0.4997668594	-2.185319683	 0.076916
H	-4.1493130188	-0.2082835256	-0.4916958645	 0.095756
H	-4.0912771645	-0.3918688611	-2.2387552823	 0.090369
H	-4.630788977	-2.5696489745	-1.0861237462	 0.095654
H	-3.1538338944	-2.6750099374	-2.0161454838	 0.084192
H	-3.3645137714	-2.2467991361	 1.0176067306	 0.094218
H	-2.7992626861	-3.7139294329	 0.2169907713	 0.098829
H	-0.9377929611	-2.3210566835	 1.1159738615	 0.076702
H	-0.9611442103	-2.6243047676	-1.6741454743	 0.280131
99.5823	124.4673	165.9187	206.9177	241.264	254.7442	295.0695	313.8708	348.1313	396.1558	444.0689	517.1031	563.9778	665.1705	774.4768	816.3773	847.4216	867.9417	906.1675	957.9981	971.4638	996.2402	1038.0253	1061.2501	1077.0748	1084.2367	1100.3276	1134.9139	1148.8947	1209.8589	1217.0515	1241.9223	1272.9741	1282.9411	1293.2999	1331.5272	1340.3155	1351.9347	1369.3076	1375.781	1385.3192	1400.6816	1429.0803	1457.2779	1475.4517	1490.9577	1495.6293	1508.1003	1521.0526	2966.7154	2990.5141	2996.1032	3003.3461	3015.66	3021.9664	3024.2154	3043.062	3062.415	3064.6529	3076.0534	3096.373	3816.6524	3835.1432
OCC1CCCCC1O	OC[C@H]1CCCC[C@H]1O	
InChI=1S/C7H14O2/c8-5-6-3-1-2-4-7(6)9/h6-9H,1-5H2	InChI=1S/C7H14O2/c8-5-6-3-1-2-4-7(6)9/h6-9H,1-5H2/t6-,7-/m1/s1
