18
gdb 67613	2.73	2.19306	1.69554	1.2606	73.18	-0.2276	0.0765	0.3041	856.7188	0.151107	-401.910188	-401.903931	-401.902987	-401.940303	27.203	
O	-0.073627538	 1.342937123	 0.1195971081	-0.481232
C	 0.0441786844	-0.0344383492	 0.040776845	 0.407239
C	-0.3969362893	-0.89306692	-1.1267039361	-0.166607
C	 0.533510073	-2.0920949741	-1.144670567	-0.189958
N	 0.8300151938	-2.2248946754	 0.2915873382	-0.119682
C	-0.4716451741	-2.0585909385	 1.0551530664	-0.016776
C	 0.3435572164	-1.2777155184	 2.1164645055	-0.23484
C	 1.1002696188	-0.8427211437	 0.8407827278	-0.088567
C	-1.1382584579	-0.9561839941	 0.201908081	-0.125367
H	 0.5971244151	 1.7359290658	-0.4495365038	 0.284345
H	-0.8587240428	-0.4546986125	-2.0028429777	 0.087698
H	 0.0645340492	-3.0090240579	-1.5171678205	 0.104824
H	 1.4600488679	-1.9205271995	-1.7037318169	 0.099973
H	-1.0421492772	-2.9587353316	 1.2865866174	 0.069456
H	-0.1701492763	-0.5052262797	 2.6908387405	 0.104264
H	 0.9358211077	-1.9313024638	 2.7581854504	 0.107899
H	 2.1313334317	-0.4834942909	 0.8453280582	 0.062589
H	-2.1515877824	-0.6027831495	 0.3304932135	 0.094741
238.8972	314.1999	323.4879	385.227	447.1616	532.6345	580.7241	696.7154	728.8146	744.3505	795.1715	832.5314	851.6368	882.7179	901.8605	919.3698	944.238	964.7294	977.9385	1004.0505	1023.7218	1042.6855	1081.6223	1099.3099	1109.5989	1146.6696	1172.5685	1196.2767	1233.4602	1245.3858	1250.3185	1257.8034	1273.142	1283.5735	1306.3786	1333.3634	1453.159	1486.1736	1496.4319	3040.3324	3080.1635	3085.1992	3096.8255	3109.4468	3148.8772	3195.3824	3220.1606	3793.6748
OC12C3CN4C(CC14)C23	O[C@@]12[C@H]3CN4[C@@H](C[C@H]14)[C@@H]23	
InChI=1S/C7H9NO/c9-7-3-2-8-4(6(3)7)1-5(7)8/h3-6,9H,1-2H2	InChI=1S/C7H9NO/c9-7-3-2-8-4(6(3)7)1-5(7)8/h3-6,9H,1-2H2/t3-,4-,5+,6-,7-/m0/s1
