17
gdb 32454	3.26031	1.22832	0.90234	2.1812	72.91	-0.1945	0.0337	0.2282	1270.043	0.134262	-458.977314	-458.967943	-458.966999	-459.011571	33.447	
C	 0.052086887	 1.3342264894	-0.0158112316	-0.251414
O	 0.0026715259	-0.0761251144	-0.1447110594	-0.279371
C	-1.2311356736	-0.6229175366	-0.0152293534	 0.228769
C	-2.4589688257	-0.0833166069	 0.2180617851	-0.169132
O	-3.3897593528	-1.083277297	 0.2591576928	-0.198209
C	-2.74739392	-2.2763575823	 0.0494167134	 0.293437
C	-3.5582992408	-3.5184310236	 0.0501347215	-0.496848
C	-1.4190843159	-2.0402807034	-0.1239167006	 0.091161
O	-0.440351536	-2.9570149834	-0.3567059366	-0.455224
H	 1.0949691078	 1.6285354461	-0.1412421694	 0.136818
H	-0.5622068098	 1.819353272	-0.7858322588	 0.1266
H	-0.3025574215	 1.6493579022	 0.9744181625	 0.126606
H	-2.8229602705	 0.9172591319	 0.3677693496	 0.131248
H	-4.3260835762	-3.504592211	-0.7325168648	 0.133132
H	-2.9033531071	-4.3743655502	-0.1289989288	 0.144992
H	-4.0683410059	-3.6717134615	 1.0085695209	 0.133141
H	 0.390740975	-2.4746068211	-0.4327953124	 0.304293
75.8041	109.3282	157.7037	173.2648	211.1938	239.6236	284.9675	311.416	335.5292	405.3159	529.9348	595.9209	610.5532	649.2131	698.8925	740.1364	769.5159	942.1818	1001.2654	1063.5568	1102.9739	1166.3097	1182.3854	1194.7722	1230.8937	1275.5838	1317.1867	1323.8665	1415.4465	1470.3793	1474.53	1482.2064	1489.5876	1495.8192	1509.0827	1635.5619	1733.8988	3003.2612	3023.8434	3061.0656	3071.3195	3127.5162	3139.2517	3291.8097	3810.5367
COC1=COC(C)=C1O	COc1coc(C)c1O	
InChI=1S/C6H8O3/c1-4-6(7)5(8-2)3-9-4/h3,7H,1-2H3	InChI=1S/C6H8O3/c1-4-6(7)5(8-2)3-9-4/h3,7H,1-2H3
