18
gdb 62174	6.57554	0.56669	0.54157	3.6564	72.79	-0.2516	-0.0252	0.2264	1949.4521	0.144328	-476.219485	-476.209082	-476.208138	-476.257202	34.746	
O	 0.026995755	 1.2944200401	-0.0716582551	-0.437308
C	-0.0150962105	-0.1205132256	-0.0407066129	 0.09713
C	 0.6539300573	-0.6975616428	-1.2849530336	-0.093746
O	-0.0510955464	-0.1495373798	-2.4013584357	-0.20474
C	 0.517517535	-0.2918552428	-3.6181807797	 0.130009
N	-0.0697601965	 0.1582922726	-4.6381505245	-0.432072
C	 0.6917200179	-0.571562775	 1.2391458563	-0.283333
C	-0.0413651143	-0.126552558	 2.4905374873	 0.151054
O	-0.2344696339	-0.8360990987	 3.4441247576	-0.239439
H	-0.3638599252	 1.5668724675	-0.9107608879	 0.301422
H	-1.0592449459	-0.4746332569	-0.0303627654	 0.093436
H	 1.7088638039	-0.395406431	-1.3161385271	 0.114915
H	 0.5902410316	-1.7932637303	-1.2939188512	 0.115739
H	 1.4855315205	-0.8100095809	-3.5903772144	 0.092464
H	 0.4866333865	-0.0214079086	-5.4711561884	 0.23487
H	 0.8123838346	-1.6578386433	 1.2746017519	 0.12161
H	 1.6879826729	-0.1075115538	 1.2547781804	 0.133744
H	-0.3905622324	 0.9268532074	 2.4683130825	 0.104244
32.3787	54.0128	70.7315	88.2892	99.1912	172.0533	230.0798	303.3693	333.021	430.1266	432.721	493.2224	562.6362	637.0366	807.2347	823.6676	886.6174	954.6292	992.9769	1031.2573	1044.5665	1063.1044	1124.9334	1138.2623	1150.2742	1210.7138	1261.677	1280.1803	1295.9369	1307.6838	1369.8457	1403.7521	1423.3616	1423.7862	1442.8477	1448.1369	1499.0386	1750.961	1832.5602	2923.0692	2970.8147	3007.9279	3024.011	3033.0199	3064.9381	3105.7509	3522.595	3793.71
OC(COC=N)CC=O	O[C@@H](CO[CH][NH])CC=O	
InChI=1S/C5H9NO3/c6-4-9-3-5(8)1-2-7/h2,4-6,8H,1,3H2	InChI=1S/C5H9NO3/c6-4-9-3-5(8)1-2-7/h2,4-6,8H,1,3H2/t5-/m1/s1
