21
gdb 95810	2.48962	1.50655	1.11615	1.7912	74.65	-0.2488	0.0826	0.3313	1167.6677	0.182284	-461.376526	-461.367367	-461.366423	-461.409759	35.207	
C	-0.1125328472	 1.5458064205	-0.0483348451	-0.404522
C	 0.017739794	 0.0352283188	 0.0237706714	 0.096185
O	 0.7341458442	-0.4006911989	-1.1400002168	-0.262019
C	 0.8599426161	-1.7982174867	-1.1719481621	 0.010647
O	 1.5787594154	-2.3001601524	-0.0759063674	-0.262026
C	 0.9226390064	-1.999919444	 1.1638481427	 0.096172
C	 1.7388933862	-2.6182093298	 2.2843241732	-0.404523
C	 0.7815453077	-0.467489701	 1.2657504683	 0.122465
O	 2.0509986916	 0.1534425619	 1.3665933853	-0.435668
H	 0.8719334008	 2.0128594673	 0.0205508041	 0.136783
H	-0.5841055745	 1.8397042671	-0.9895101419	 0.122006
H	-0.7265116425	 1.9112779154	 0.7805072336	 0.115076
H	-0.9834214431	-0.4302161121	 0.0181823474	 0.063203
H	-0.1439061769	-2.2632276922	-1.2052070338	 0.078992
H	 1.4246559883	-2.0511867205	-2.0717457057	 0.118784
H	-0.0886168133	-2.4426571979	 1.1455047379	 0.063207
H	 2.717893016	-2.1388751123	 2.3464208094	 0.136779
H	 1.2273199418	-2.4832376362	 3.2422351346	 0.115078
H	 1.8738201856	-3.6882479114	 2.1071798679	 0.122008
H	 0.2307627561	-0.2027094419	 2.175570757	 0.082729
H	 2.5255146972	-0.0873778636	 0.5604005399	 0.288644
134.3273	155.7648	203.1792	211.4858	225.5277	277.9206	287.0856	336.1496	362.7925	401.5514	454.2914	474.2384	646.2605	655.5599	759.4804	814.6274	830.4837	896.7016	947.4756	999.4711	1010.2115	1055.545	1071.2856	1081.4155	1100.7094	1135.7579	1160.1228	1185.8113	1231.8207	1274.2105	1274.6654	1301.7244	1353.3265	1377.1615	1380.6834	1384.0392	1407.2336	1414.8255	1430.0369	1441.9148	1483.2494	1483.5957	1497.1481	1497.1685	1508.096	2922.4751	2945.8406	2960.5053	3049.0486	3050.1165	3056.164	3110.6139	3121.1836	3121.5394	3140.4331	3140.9045	3778.4131
CC1OCOC(C)C1O	C[C@H]1OCO[C@@H](C)[C@H]1O	
InChI=1S/C6H12O3/c1-4-6(7)5(2)9-3-8-4/h4-7H,3H2,1-2H3	InChI=1S/C6H12O3/c1-4-6(7)5(2)9-3-8-4/h4-7H,3H2,1-2H3/t4-,5+,6+
