20
gdb 105185	1.99416	1.50561	1.01506	4.1035	76.64	-0.2375	0.0355	0.273	1237.553	0.170616	-440.309783	-440.300088	-440.299144	-440.344039	36.592	
C	 3.0750671928	-1.1372979362	-0.0143112944	-0.427125
C	 1.733496224	-0.4377569738	-0.0004583253	-0.017614
C	 0.4731092912	-1.1172576518	-0.4279078968	-0.30986
C	 0.6460028523	-0.7104987926	 1.0340342572	 0.227986
C	 0.8446098571	-1.7916337964	 2.0681961551	-0.206109
O	-0.4278177495	-2.3635893997	 2.4080849901	-0.421475
C	-0.1453532779	 0.5199375307	 1.4293058654	 0.34695
N	-0.8465147797	 0.4141883103	 2.5987980174	-0.546866
O	-0.1417086311	 1.5364857449	 0.7553193841	-0.377079
H	 2.9920047149	-2.2157669912	 0.1478825178	 0.113496
H	 3.5543874488	-0.9965749825	-0.9891384003	 0.125121
H	 3.7515879952	-0.7312894999	 0.7458642092	 0.120901
H	 1.770878334	 0.618078217	-0.2505598177	 0.12159
H	-0.2463870509	-0.5530795851	-1.0094723415	 0.131839
H	 0.5042748373	-2.182413622	-0.6366143124	 0.11027
H	 1.5062758097	-2.5711201187	 1.6729797228	 0.097246
H	 1.3207266533	-1.3696883619	 2.9655089904	 0.10445
H	-0.281531144	-3.0254798302	 3.0914285837	 0.292078
H	-1.0875687465	-0.5121906011	 2.9252311206	 0.263696
H	-1.4856662909	 1.17061924	 2.7892074945	 0.250507
69.8035	137.5469	159.6936	188.7695	227.0626	246.9217	296.3309	341.9302	348.504	403.9816	437.5421	517.9878	551.8071	591.85	647.415	696.5375	749.5315	825.6745	900.9665	922.7356	939.3164	969.9118	1016.4361	1053.087	1076.7149	1104.9948	1135.2598	1152.266	1196.5222	1215.1632	1247.0957	1288.3774	1326.1878	1373.5897	1409.0533	1428.2376	1460.3678	1482.1773	1495.3243	1506.2816	1516.7934	1627.0452	1778.6508	2994.5692	3031.8592	3049.6543	3091.183	3104.7532	3130.5783	3166.8377	3224.8611	3535.5625	3680.2603	3820.3546
CC1CC1(CO)C(N)=O	C[C@H]1C[C@]1(CO)C(=O)N	
InChI=1S/C6H11NO2/c1-4-2-6(4,3-8)5(7)9/h4,8H,2-3H2,1H3,(H2,7,9)	InChI=1S/C6H11NO2/c1-4-2-6(4,3-8)5(7)9/h4,8H,2-3H2,1H3,(H2,7,9)/t4-,6+/m0/s1
