19
gdb 72641	2.06163	1.95857	1.58339	2.3106	75.66	-0.2436	0.0055	0.2491	976.3583	0.158798	-423.026046	-423.017812	-423.016867	-423.058206	32.658	
C	-0.3782864897	 1.3730821444	 0.1330731997	-0.452788
C	 0.0820177753	-0.0591139955	-0.0333403171	 0.363942
C	 0.9549102011	-0.3541729215	-1.2664584664	-0.319029
C	 2.0018597026	-1.3072549981	-0.7377272088	-0.058561
C	 1.8969575289	-1.5318224481	 0.5729759435	-0.177877
C	 0.7621543981	-0.7667788923	 1.195247174	 0.286802
O	 1.0918418767	-0.0438432497	 2.3554071159	-0.47106
C	-0.5730013381	-1.5188165558	 1.3223301584	-0.112377
O	-1.0283161914	-0.9994824855	 0.0574320605	-0.330455
H	 0.4753483348	 2.0595271919	 0.1348319174	 0.108281
H	-1.0416663105	 1.6552294021	-0.6911342086	 0.123466
H	-0.9188579668	 1.4998065243	 1.0743126592	 0.129876
H	 0.3368107675	-0.8127410786	-2.047026792	 0.126794
H	 1.4053911114	 0.5467031625	-1.7040393583	 0.100748
H	 2.7457142159	-1.762584816	-1.3835592768	 0.100515
H	 2.5311530269	-2.189554225	 1.1583807165	 0.099102
H	 1.9644114709	 0.3437890426	 2.2271289991	 0.278242
H	-0.5367856797	-2.6134297088	 1.3346067997	 0.100788
H	-1.1777066541	-1.1574241331	 2.1643486541	 0.103592
118.0965	201.907	223.6997	233.2416	308.0898	330.655	345.6595	394.1099	466.517	510.5283	577.2847	674.3178	678.8994	761.8665	768.911	865.9304	916.673	941.9855	950.0413	965.9594	982.3325	1012.369	1028.9289	1093.9936	1104.2551	1147.6786	1159.4793	1198.0423	1211.2213	1222.6734	1241.6211	1322.4845	1338.2458	1373.8704	1391.0449	1407.5426	1464.0134	1483.8885	1485.6435	1514.9995	1676.1471	3014.2595	3018.0271	3035.6399	3064.2279	3071.878	3101.6954	3122.7717	3175.9228	3200.3221	3804.4719
CC12CC=CC1(O)CO2	C[C@@]12CC=C[C@]1(O)CO2	
InChI=1S/C7H10O2/c1-6-3-2-4-7(6,8)5-9-6/h2,4,8H,3,5H2,1H3	InChI=1S/C7H10O2/c1-6-3-2-4-7(6,8)5-9-6/h2,4,8H,3,5H2,1H3/t6-,7+/m1/s1
