16
gdb 133758	1.91231	1.42979	1.00906	0.9913	53.72	-0.2709	0.0791	0.3501	1170.4927	0.119547	-606.522716	-606.513305	-606.512361	-606.557504	33.709	
O	 0.1187272652	 1.3850115975	-0.2349459976	-0.422653
C	 0.0588977229	-0.0057064552	 0.0012570023	-0.078488
C	-1.3769584375	-0.5727538601	 0.0276919456	-0.179017
C	-1.3892962203	-2.1094922932	-0.1218856144	-0.078591
O	-2.6509589973	-2.6383367767	-0.4712261971	-0.422604
C	-2.0913453409	-0.1556235454	 1.3024998522	 0.281306
F	-2.143792468	 1.1854834672	 1.4447498486	-0.087411
F	-3.3674823472	-0.593201464	 1.3411802894	-0.087382
F	-1.4824937469	-0.6383016079	 2.3984005113	-0.080061
H	-0.3293797469	 1.8325530828	 0.4893177074	 0.289324
H	 0.5933045478	-0.4728949296	-0.8310827692	 0.119291
H	 0.5828306954	-0.2876880536	 0.9269546559	 0.106623
H	-1.9338689774	-0.1404631467	-0.8098477882	 0.124381
H	-0.716521642	-2.3763692791	-0.9421190309	 0.119307
H	-0.9897763724	-2.5714307199	 0.7934953604	 0.10665
H	-3.2681056345	-2.4377139361	 0.2390746345	 0.289327
51.5243	99.4824	147.7747	213.9536	214.2017	251.131	320.2733	369.794	377.7438	381.6439	440.8788	512.5283	536.1228	604.0229	631.4618	788.3745	910.6448	1012.5915	1045.7443	1073.9608	1078.9959	1095.6015	1147.5336	1158.3775	1222.0812	1233.7725	1262.2812	1280.0334	1393.8497	1402.637	1409.5235	1427.9293	1452.2838	1501.4098	1512.1429	2993.8751	3000.24	3076.4235	3081.2088	3092.4096	3833.5499	3834.9599
OCC(CO)C(F)(F)F	OCC(CO)C(F)(F)F	
InChI=1S/C4H7F3O2/c5-4(6,7)3(1-8)2-9/h3,8-9H,1-2H2	InChI=1S/C4H7F3O2/c5-4(6,7)3(1-8)2-9/h3,8-9H,1-2H2
