16
gdb 43050	2.46885	2.25424	1.64292	4.3927	66.96	-0.224	-0.0212	0.2028	850.1016	0.127503	-437.855692	-437.849451	-437.848506	-437.886223	25.489	
O	-0.0192563151	 0.0400568081	 0.1930368273	-0.330539
C	-0.049809895	 1.2320709882	 0.0949525494	 0.485249
C	-1.2334122134	 2.1986615645	 0.0002744359	-0.154581
N	-0.8089312485	 3.0566906514	 1.1835779609	-0.342941
C	 0.252551293	 3.5312379113	 0.2292661885	-0.034756
C	-0.6631820021	 3.280843539	-0.9966558716	-0.064879
C	 0.2426649974	 2.7879002149	-2.1196405499	-0.112699
O	 1.4206494128	 2.3074722742	-1.4382560918	-0.275229
C	 1.1019560809	 2.2659694715	-0.0458341889	-0.000321
H	-2.2411067656	 1.7898173076	-0.0280685091	 0.0928
H	-1.4947290622	 3.8064801091	 1.2756822538	 0.227186
H	 0.771430591	 4.4658226243	 0.4352362614	 0.087292
H	-1.3763086376	 4.0671863856	-1.246038106	 0.087916
H	-0.2062722661	 1.9812489666	-2.7131801539	 0.116658
H	 0.540624737	 3.5941268974	-2.7992268058	 0.114752
H	 2.0073267634	 2.0892332765	 0.5298255598	 0.10409
136.9736	243.5792	327.8635	410.1937	456.4237	545.5284	653.0846	698.6952	753.9273	796.0689	820.4469	851.1246	870.732	914.5965	924.0213	947.3001	973.4569	1009.4661	1035.5312	1052.0952	1070.8778	1124.5772	1135.0039	1149.801	1191.8582	1208.689	1234.2291	1266.9532	1278.0791	1292.6598	1342.673	1357.0278	1376.1137	1520.3673	1897.551	3021.1633	3064.9091	3115.4032	3134.3129	3151.2442	3158.9469	3453.9222
O=C1C2NC3C2COC13	O=C1[C@H]2N[C@@H]3[C@H]2CO[C@H]13	
InChI=1S/C6H7NO2/c8-5-3-2-1-9-6(5)4(2)7-3/h2-4,6-7H,1H2	InChI=1S/C6H7NO2/c8-5-3-2-1-9-6(5)4(2)7-3/h2-4,6-7H,1H2/t2-,3-,4+,6-/m0/s1
