19
gdb 124545	2.5612	1.3495	1.02321	1.3449	77.54	-0.2123	0.0104	0.2227	1222.0378	0.1606	-415.403785	-415.394401	-415.393456	-415.438641	34.44	
C	-0.0648988645	 1.6655004085	 0.4064939282	-0.381183
C	-0.0648165896	 0.1962843221	-0.0373374304	-0.093473
C	 0.8667606884	-0.6507092964	 0.8544281618	-0.38221
C	-1.4510319085	-0.3825226313	-0.0747010138	 0.288323
N	-2.4442437099	 0.0163561578	 0.7233629242	-0.27857
N	-3.4617558104	-0.7526487866	 0.3753527698	-0.091218
N	-3.2313044006	-1.6430952677	-0.5945189086	-0.282271
C	-1.9531197386	-1.4230423108	-0.8964508503	 0.243955
N	-1.3036878229	-2.0949803674	-1.9300078696	-0.598786
H	 0.953015432	 2.0677108027	 0.3943202599	 0.103856
H	-0.6860421108	 2.2776993489	-0.2531031217	 0.118893
H	-0.4619355376	 1.7638042827	 1.4207452091	 0.133125
H	 0.3239255559	 0.1474660943	-1.0641638198	 0.084512
H	 0.5277415041	-0.624649475	 1.8951361873	 0.127546
H	 0.8872170923	-1.6999351418	 0.5400782938	 0.103079
H	 1.8924310638	-0.2688336985	 0.8184340092	 0.112782
H	-4.3715520648	-0.6515038263	 0.7912859865	 0.286662
H	-1.8391186292	-2.8902066368	-2.2539436554	 0.254217
H	-0.361088559	-2.3774485184	-1.6973975004	 0.25076
21.8613	144.3084	168.2536	222.0566	240.4458	256.8221	291.6337	305.4218	372.9424	391.9147	465.3281	523.4491	626.7437	698.4198	716.9176	756.6077	805.9561	892.2499	932.8914	965.	989.9366	1097.4645	1101.3829	1119.6446	1165.6097	1192.8989	1218.3006	1266.3696	1343.677	1368.801	1397.7618	1405.0684	1420.527	1465.0487	1483.8855	1489.2449	1500.0311	1508.1312	1556.4534	1579.9902	1649.4886	3006.3326	3027.4155	3041.251	3093.8188	3105.6528	3111.7365	3120.3221	3544.887	3638.4811	3686.4827
CC(C)C1=NNN=C1N	CC(C)c1n[nH]nc1N	
InChI=1S/C5H10N4/c1-3(2)4-5(6)8-9-7-4/h3H,1-2H3,(H3,6,7,8,9)	InChI=1S/C5H10N4/c1-3(2)4-5(6)8-9-7-4/h3H,1-2H3,(H3,6,7,8,9)
