18
gdb 32495	1.97312	1.69103	0.97346	2.6356	87.83	-0.2037	0.017	0.2207	1219.8825	0.147689	-364.829455	-364.820479	-364.819535	-364.863293	33.874	
C	 0.0761156212	 1.5382646894	 0.1279311544	-0.36868
C	-0.0439724489	 0.0139081413	-0.0446886034	-0.315365
C	 0.6675042658	-0.5039747861	-1.2596510039	 0.170821
C	 0.102090355	-0.9245850017	-2.4379533401	-0.163832
N	 1.1099362517	-1.3001127438	-3.2968473034	-0.241549
C	 2.320639619	-1.1317907	-2.6934111176	-0.193785
C	 2.0939072739	-0.6360457383	-1.4204593445	 0.08167
C	 3.0799806843	-0.3283702261	-0.4547395939	 0.255497
C	 3.9031011393	-0.0620383154	 0.3851490239	-0.475985
H	 1.1248091334	 1.8352958215	 0.2175671663	 0.13351
H	-0.3506301742	 2.0633336544	-0.7326160465	 0.111075
H	-0.4506526477	 1.8719202024	 1.0280213234	 0.105026
H	 0.3608728781	-0.4764275842	 0.8489535001	 0.111422
H	-1.1022869266	-0.2662629097	-0.099924285	 0.094129
H	-0.9331347334	-0.9904732462	-2.7329454491	 0.121645
H	 0.9750555599	-1.6556821227	-4.226707023	 0.265658
H	 3.2443349728	-1.373101833	-3.1929625765	 0.128706
H	 4.6330894665	 0.1697487581	 1.1198417888	 0.180038
56.3708	123.4222	157.4961	171.998	225.2939	323.5216	376.4837	459.5275	495.2301	519.419	534.1196	583.2708	636.9241	647.3174	670.0377	684.0932	755.5401	770.668	788.8269	909.4737	964.148	1058.8601	1085.824	1090.2549	1120.3301	1200.7947	1248.5068	1286.4466	1327.9824	1364.1709	1380.8471	1405.6514	1472.7065	1480.7735	1496.2261	1507.7652	1549.3186	1604.0935	2224.5074	3027.1396	3034.6202	3062.5284	3103.298	3117.6805	3259.2934	3272.6106	3504.958	3687.4687
CCC1=CNC=C1C#C	CCc1c[nH]cc1C#C	
InChI=1S/C8H9N/c1-3-7-5-9-6-8(7)4-2/h1,5-6,9H,4H2,2H3	InChI=1S/C8H9N/c1-3-7-5-9-6-8(7)4-2/h1,5-6,9H,4H2,2H3
