22
gdb 11751	4.6994	1.25383	1.16307	0.3028	82.42	-0.2415	0.089	0.3305	1159.1663	0.200154	-313.054111	-313.045418	-313.044474	-313.086987	33.384	
C	 0.0571352698	 1.504160057	-0.2238866462	-0.371345
C	-0.1141204943	 0.0013169027	 0.0386698043	-0.296845
C	 0.638544635	-0.471903711	 1.2523050565	 0.405734
C	 2.0920184155	-0.858981657	 1.2235874246	-0.326855
C	 1.0755123271	-1.881763871	 1.6640277472	-0.132481
C	 0.6230848883	-1.6317735676	 3.1113488471	 0.044792
C	 1.6124041651	-1.8561150579	 4.2488517286	-0.40361
C	 0.2371453604	-0.1654182925	 2.7069407821	-0.314939
H	 1.1093954467	 1.7552101672	-0.3931099102	 0.117109
H	-0.5125680302	 1.8209217574	-1.103164831	 0.108225
H	-0.2911606273	 2.095849815	 0.6295598369	 0.117158
H	-1.182295347	-0.2267814499	 0.1581778244	 0.09165
H	 0.2234547178	-0.5652033597	-0.8387350533	 0.092888
H	 2.5057418746	-1.0283800893	 0.2335854595	 0.104042
H	 2.8022345488	-0.4306403881	 1.927570459	 0.099465
H	 0.9523789114	-2.8150022166	 1.1245867092	 0.075105
H	-0.2912262293	-2.1991299973	 3.3135364237	 0.070544
H	 2.5478269234	-1.3109501096	 4.0854383448	 0.113002
H	 1.1954936431	-1.5189423768	 5.2045998115	 0.110498
H	 1.8609942326	-2.918582478	 4.3500621493	 0.111845
H	 0.8002696446	 0.6365711233	 3.1975072754	 0.088481
H	-0.8302800063	 0.0374022999	 2.8302038365	 0.095537
85.0517	116.3917	183.7866	221.9998	231.4193	276.8241	348.9656	380.4752	410.7368	516.7615	620.8844	688.5821	787.8233	801.7927	852.5615	862.2645	898.9143	953.3216	965.7009	976.7447	996.2962	1024.5545	1041.3009	1073.9698	1084.6786	1105.1049	1110.7878	1142.1419	1188.4303	1230.6984	1242.1713	1265.8494	1293.3466	1327.9927	1354.8845	1373.1045	1400.3585	1407.4755	1418.0132	1481.0487	1481.5058	1494.3441	1496.7178	1497.3745	1507.6856	1509.2279	3008.2712	3025.7026	3031.8045	3035.7213	3043.5908	3044.3832	3089.4523	3091.4683	3098.989	3100.3609	3103.7309	3104.3655	3161.372	3188.3588
CCC12CC1C(C)C2	CC[C@]12C[C@H]1[C@@H](C)C2	
InChI=1S/C8H14/c1-3-8-4-6(2)7(8)5-8/h6-7H,3-5H2,1-2H3	InChI=1S/C8H14/c1-3-8-4-6(2)7(8)5-8/h6-7H,3-5H2,1-2H3/t6-,7-,8-/m0/s1
