22
gdb 78396	3.59024	1.25298	1.09024	1.2676	87.15	-0.1959	0.0682	0.264	1221.7878	0.192252	-367.117234	-367.108037	-367.107093	-367.15089	35.992	
C	-0.0988502464	 1.3441082542	-0.0622784716	-0.32299
N	 0.0904168577	-0.1006040623	 0.0277049287	-0.106616
C	 1.5056182114	-0.4950255406	-0.12386982	-0.053758
C	 0.8741769554	-0.4942587481	 1.2159645334	-0.053731
C	 0.9979288452	-2.0397990678	 1.3043401844	-0.128261
C	 1.6519954127	-2.0406059739	-0.0831712512	-0.128265
C	 0.382562632	-2.831950572	 0.1667671889	 0.327299
C	 0.6962123754	-4.3206988279	 0.3156452689	-0.447971
C	-0.9882972979	-2.6044689613	-0.4796906691	-0.441439
H	 0.7473129394	 1.9310804868	 0.3361112547	 0.094402
H	-0.2425054057	 1.6228624762	-1.1110703351	 0.123219
H	-0.9989882729	 1.623756203	 0.4943695608	 0.123225
H	 2.2225382263	 0.1915927778	-0.5568654691	 0.089236
H	 0.996895796	 0.1930479782	 2.0438874145	 0.089234
H	 1.3538409014	-2.5278811135	 2.2045441623	 0.080379
H	 2.572732082	-2.5292797536	-0.3810118168	 0.080379
H	 1.6739401178	-4.4927778386	 0.7769624573	 0.108037
H	-0.0615226129	-4.8115180577	 0.9365663457	 0.115928
H	 0.6932437055	-4.8125215176	-0.6634904755	 0.115925
H	-0.9123734424	-2.0452818578	-1.4125766531	 0.123749
H	-1.4530985035	-3.5727475119	-0.7003166781	 0.088399
H	-1.6606062664	-2.0476650016	 0.17361748	 0.123622
47.7133	165.4003	168.4564	239.4587	266.8334	273.8518	312.1593	362.6517	371.8302	410.5304	501.2769	594.0338	672.7332	740.4159	781.9803	789.53	825.3357	855.3794	884.0401	935.7213	943.9048	990.3991	1004.6798	1006.6478	1030.9201	1038.6203	1045.8948	1123.6279	1136.1816	1136.6912	1158.3598	1181.9796	1232.6622	1245.3591	1281.9078	1295.1021	1342.2131	1397.3832	1410.1371	1427.1851	1453.8573	1486.9263	1490.9238	1491.78	1497.0109	1498.5222	1500.4692	2949.652	3023.2427	3033.9173	3063.4582	3089.0744	3098.3252	3101.9156	3116.5519	3145.499	3164.4727	3174.691	3183.1631	3196.3645
CN1C2C1C1C2C1(C)C	CN1[C@H]2[C@@H]1[C@@H]1[C@H]2C1(C)C	
InChI=1S/C8H13N/c1-8(2)4-5(8)7-6(4)9(7)3/h4-7H,1-3H3	InChI=1S/C8H13N/c1-8(2)4-5(8)7-6(4)9(7)3/h4-7H,1-3H3/t4-,5+,6-,7+,9?
