21
gdb 63051	2.80081	1.61792	1.60192	1.6807	80.9	-0.2337	0.081	0.3147	994.4907	0.183016	-387.049663	-387.041822	-387.040878	-387.081278	32.211	
C	-0.1238059567	 1.5876078919	 0.0853273612	-0.458002
C	 0.021166177	 0.0745997144	-0.0051362747	 0.310511
C	-1.3141155293	-0.6379447174	 0.2293436534	-0.442669
C	 0.7246813303	-0.5449033727	-1.2621835127	-0.085939
C	 2.0661183957	 0.1367073936	-1.6438853899	-0.265067
C	 2.7326897245	-0.5327001177	-0.421577566	 0.104001
O	 2.3761924662	 0.123726942	 0.8174682734	-0.309506
C	 1.1189228629	-0.5879267401	 0.8796872886	 0.077782
C	 1.5268658837	-1.5073426217	-0.3021064696	-0.097482
H	 0.851456824	 2.078579658	 0.0730457312	 0.130151
H	-0.7211511191	 1.976782489	-0.7476853542	 0.107687
H	-0.6276970243	 1.8751258297	 1.0155698482	 0.109337
H	-2.0512768338	-0.3402846534	-0.5246424979	 0.114653
H	-1.2080790675	-1.727500999	 0.1762129655	 0.114301
H	-1.7226340582	-0.3897831352	 1.2154632799	 0.112876
H	 0.0741350533	-0.8795783557	-2.0717561958	 0.060187
H	 2.4602027114	-0.2993733731	-2.5684834094	 0.099971
H	 2.1118112481	 1.2264705352	-1.71441065	 0.103241
H	 3.792164933	-0.7945157826	-0.452601408	 0.075086
H	 0.8685507965	-0.8889686137	 1.9007675772	 0.066336
H	 1.5537979424	-2.5930991817	-0.3203152704	 0.072542
172.294	200.3027	223.6138	246.8185	311.7389	336.9542	406.2431	420.1499	513.9369	599.7655	693.3508	755.9373	829.4704	835.499	840.1212	856.3755	899.5176	945.9928	954.5264	969.8918	984.8726	996.3525	1016.8667	1034.3548	1056.5043	1114.9552	1128.1721	1152.6783	1182.6483	1185.5861	1204.4598	1233.8864	1257.0456	1264.044	1278.3852	1295.8704	1329.3705	1344.4886	1398.2488	1418.7662	1470.6876	1481.1344	1489.592	1499.8782	1513.9057	3020.7749	3027.1549	3043.8634	3067.6671	3082.5007	3087.9198	3089.3901	3091.0255	3092.764	3104.0358	3128.2242	3154.2589
CC1(C)C2CC3OC1C23	CC1(C)[C@H]2C[C@H]3O[C@@H]1[C@@H]23	
InChI=1S/C8H12O/c1-8(2)4-3-5-6(4)7(8)9-5/h4-7H,3H2,1-2H3	InChI=1S/C8H12O/c1-8(2)4-3-5-6(4)7(8)9-5/h4-7H,3H2,1-2H3/t4-,5+,6-,7+/m0/s1
