17
gdb 65384	4.26066	0.99181	0.91057	3.1745	70.76	-0.2573	-0.0391	0.2182	1278.7485	0.132649	-458.926752	-458.917742	-458.916798	-458.960956	32.092	
C	 0.3419784746	 1.5047680518	-0.0913145172	-0.483848
C	 0.0482405441	 0.0422705694	 0.1128163983	 0.266163
O	 1.1532690428	-0.8934106338	 0.1151025583	-0.274884
C	 0.4353961148	-0.7350839769	 1.3217623837	-0.027568
C	 1.1489592341	-0.1729081682	 2.5154467901	 0.043587
C	 2.5776248401	-0.4513022528	 2.7329431792	-0.171975
O	 2.1239272736	 0.8424268785	 2.3289881623	-0.221076
C	-1.1340233801	-0.5180841318	-0.628413216	 0.126694
O	-1.9705649962	 0.1531110643	-1.1737659062	-0.247715
H	 1.2554149675	 1.7898912484	 0.4263452299	 0.164541
H	 0.4423271134	 1.7141798141	-1.1601853815	 0.136258
H	-0.4934905417	 2.1047141938	 0.280404379	 0.137923
H	-0.1923403647	-1.5909996523	 1.5898138663	 0.098758
H	 0.5051289015	-0.0352753164	 3.3855306123	 0.107561
H	 2.967955536	-0.5142027534	 3.7467220406	 0.123355
H	 3.12144032	-1.0042783729	 1.9705494012	 0.137518
H	-1.1641427899	-1.631012932	-0.6335500702	 0.084709
78.1747	84.9988	138.3432	184.7568	188.6117	269.5815	279.865	341.704	390.0437	483.5827	589.0206	659.5303	756.9541	763.4507	840.4735	894.1098	917.8495	961.9007	997.4695	1019.6222	1087.0973	1091.6623	1119.6401	1139.8312	1165.2706	1167.9157	1266.1243	1284.9703	1332.8364	1397.1875	1418.1086	1422.2761	1458.2894	1493.1536	1495.004	1517.7745	1830.7956	2886.0012	3057.886	3058.1198	3096.2395	3105.6084	3117.9562	3182.2794	3193.9918
CC1(OC1C1CO1)C=O	C[C@]1(O[C@H]1[C@H]1CO1)C=O	
InChI=1S/C6H8O3/c1-6(3-7)5(9-6)4-2-8-4/h3-5H,2H2,1H3	InChI=1S/C6H8O3/c1-6(3-7)5(9-6)4-2-8-4/h3-5H,2H2,1H3/t4-,5+,6+/m1/s1
