13
gdb 130647	5.0933	1.38277	1.09506	0.957	64.71	-0.2454	-0.034	0.2114	998.5667	0.092115	-452.789981	-452.783676	-452.782732	-452.820952	23.96	
O	-0.0221269323	 0.0566843409	 0.0038803197	-0.286235
C	-0.0559581687	 1.2417639815	 0.0107661225	 0.401292
C	-1.2840284109	 2.1768881817	 0.0331355559	-0.314318
N	-0.6308760199	 3.4542658305	 0.0306251882	 0.008194
N	-1.0448233904	 4.7416339186	 0.0438719958	-0.292884
C	 0.1032962449	 5.419048335	 0.0316900303	 0.025684
C	 1.2603897543	 4.589284002	 0.0108142632	-0.396947
C	 0.7093466205	 3.3345590303	 0.0113069556	 0.490967
O	 1.0986819497	 2.0248213499	-0.0013033621	-0.23885
H	-1.9067027956	 2.0009003504	-0.8495251353	 0.175207
H	-1.8814389953	 1.9915249522	 0.9312071761	 0.175213
H	 0.0773107369	 6.4988301824	 0.0381800208	 0.124523
H	 2.2975447269	 4.8733600747	-0.0020553308	 0.128154
108.403	169.9593	323.1797	359.6956	564.8478	565.2382	569.5609	651.1138	688.3502	751.3416	772.4423	825.4946	863.1108	886.4331	952.4122	1014.9457	1040.8265	1047.4318	1182.0685	1186.0934	1222.2624	1274.3787	1346.6935	1362.7912	1439.4593	1479.1514	1528.3625	1619.2716	1936.0334	3057.5895	3100.0962	3250.1889	3294.757
O=C1CN2N=CC=C2O1	O=C1Cn2nccc2O1	
InChI=1S/C5H4N2O2/c8-5-3-7-4(9-5)1-2-6-7/h1-2H,3H2	InChI=1S/C5H4N2O2/c8-5-3-7-4(9-5)1-2-6-7/h1-2H,3H2
