16
gdb 125040	3.28813	1.28791	0.93272	3.8227	81.75	-0.2093	0.0028	0.212	1203.0017	0.12424	-396.922487	-396.913321	-396.912376	-396.95639	33.41	
C	-0.0516134139	 1.5676696284	 0.0238345885	-0.53202
C	-0.0250473109	 0.0730382581	-0.0064389423	 0.056731
C	 0.0011173471	-0.7574908524	-1.1112062748	 0.308255
N	-0.0565415254	-0.4932094711	-2.4829084906	-0.617953
N	 0.025918517	-2.0320977481	-0.6388285634	-0.251248
N	 0.0307179651	-2.1085379585	 0.7078980964	-0.311499
C	-0.0089460437	-0.8296459247	 1.0976939442	 0.150388
C	-0.0105628277	-0.4710602792	 2.4697203749	 0.279483
C	-0.009994839	-0.1146040929	 3.6197982587	-0.433493
H	 0.5378215231	 1.9996547865	-0.7941232044	 0.109687
H	-1.0682670152	 1.9723909149	-0.0571773714	 0.131613
H	 0.3672607455	 1.9371801654	 0.9638042147	 0.143901
H	-0.1027991082	 0.5007674872	-2.6656500859	 0.255433
H	 0.7215006533	-0.8861432075	-3.001469113	 0.251493
H	-0.0019191469	-2.8811628172	-1.1777164452	 0.271715
H	-0.0121671601	 0.1813547411	 4.6392747837	 0.187512
73.1859	119.5096	136.2655	164.8584	245.436	254.756	309.0629	388.9888	450.3289	519.3418	529.6644	567.9311	581.9248	662.161	664.7974	703.2035	745.8235	760.2947	786.8145	963.7598	1063.5456	1102.8737	1122.5873	1188.4879	1250.7864	1337.3797	1415.2797	1418.6597	1458.5092	1483.6206	1500.3994	1537.1933	1626.9296	1663.8659	2234.5536	3016.4659	3063.1115	3109.3988	3504.4671	3519.6527	3618.6377	3670.6173
CC1=C(N)NN=C1C#C	Cc1c(N)[nH]nc1C#C	
InChI=1S/C6H7N3/c1-3-5-4(2)6(7)9-8-5/h1H,2H3,(H3,7,8,9)	InChI=1S/C6H7N3/c1-3-5-4(2)6(7)9-8-5/h1H,2H3,(H3,7,8,9)
