19
gdb 74790	2.75358	1.69056	1.46884	1.7532	79.81	-0.2237	0.0049	0.2286	994.1043	0.16107	-385.900841	-385.893415	-385.89247	-385.932338	30.07	
C	-0.0432527952	 1.5021325699	 0.0437460198	-0.503568
C	-0.0515920603	 0.0106514078	-0.020912655	 0.340699
C	-0.0546197834	-0.7982975372	-1.0797104412	-0.199066
C	 0.0536779863	-2.2324476543	-0.5616314382	-0.020387
O	-0.5184750405	-2.1246108014	 0.7470749185	-0.252324
C	 0.0260257272	-0.8895289397	 1.2144377621	-0.024965
C	 1.4948486415	-1.1555329161	 1.6328819044	-0.265649
C	 2.1839992144	-2.0627160497	 0.6333276443	-0.055356
C	 1.5275625716	-2.5837398211	-0.4033030036	-0.051179
H	 0.8599120495	 1.8787313272	 0.5409078606	 0.128524
H	-0.0840043849	 1.9462265559	-0.9543868144	 0.127794
H	-0.8964781402	 1.8808258709	 0.6209699555	 0.128486
H	-0.0287247244	-0.518629326	-2.1252470098	 0.098468
H	-0.5065046132	-2.9820021936	-1.1257088712	 0.079633
H	-0.5748601654	-0.5404966516	 2.059961674	 0.074755
H	 2.0492894231	-0.2123080691	 1.7338755781	 0.103482
H	 1.5105319006	-1.6237445288	 2.6258884849	 0.114653
H	 3.2387746918	-2.2707522464	 0.7937611323	 0.088432
H	 2.0121737712	-3.2153341066	-1.1412023412	 0.087567
140.3935	170.7165	219.2803	311.7804	321.3525	452.5134	472.2494	506.8308	583.5231	640.714	686.9036	757.5896	810.7832	825.5384	869.2474	879.2559	929.3119	947.7869	972.8293	984.4914	1006.9684	1016.4898	1032.7366	1067.5664	1069.7279	1166.7519	1190.0992	1203.4785	1257.0165	1284.195	1292.669	1324.9463	1357.3306	1363.4824	1395.5772	1414.4197	1460.942	1479.8399	1487.7669	1699.5668	1710.6091	3011.9851	3016.5503	3041.1466	3060.5934	3062.5831	3083.7069	3110.7531	3151.8675	3182.5499	3214.7415
CC1=CC2OC1CC=C2	CC1=C[C@@H]2O[C@H]1CC=C2	
InChI=1S/C8H10O/c1-6-5-7-3-2-4-8(6)9-7/h2-3,5,7-8H,4H2,1H3	InChI=1S/C8H10O/c1-6-5-7-3-2-4-8(6)9-7/h2-3,5,7-8H,4H2,1H3/t7-,8+/m1/s1
