18
gdb 34933	2.74382	1.52315	1.22371	4.166	79.98	-0.2664	0.0333	0.2998	1062.2593	0.148476	-364.783071	-364.775315	-364.774371	-364.815319	30.408	
N	 0.076559998	-1.1623153068	 0.0473261936	-0.356779
C	 0.0827830668	-0.005279675	 0.0441422005	 0.307842
C	 0.0844053118	 1.4342250224	 0.0500088773	-0.188457
C	 0.5023162643	 2.2470057977	 1.2610021485	-0.06327
C	 1.6208460089	 1.5423614405	 2.0446027272	-0.330212
C	 2.4737846793	 1.5617259383	 0.7547419466	 0.382844
C	 3.9318877681	 1.8983538905	 0.6663868979	-0.349915
C	 3.4362298724	 0.5342349028	 0.2393783993	-0.306602
C	 1.3596809641	 2.2604268663	 0.0018128879	-0.14592
H	-0.7415809607	 1.8692294224	-0.5050700107	 0.132718
H	-0.1594236064	 3.0119986764	 1.6470809628	 0.103555
H	 2.0372180416	 2.1771196677	 2.8304314822	 0.113355
H	 1.3699010308	 0.5634216531	 2.4632497654	 0.123758
H	 4.2502547231	 2.5917477004	-0.1058301005	 0.115011
H	 4.4926450522	 1.9766626551	 1.5924062372	 0.115469
H	 3.6560580983	-0.314478093	 0.8779156485	 0.124936
H	 3.4193448089	 0.3010119895	-0.8198397895	 0.121026
H	 1.4765082187	 3.0328411919	-0.7495634442	 0.10064
90.5288	134.165	208.1909	267.3404	298.1629	380.8747	430.2934	526.1453	594.005	637.079	753.5101	767.1205	785.6253	827.2735	861.9734	897.5548	929.7723	943.7662	961.8674	986.8956	993.4004	1027.4964	1057.4533	1068.4969	1077.2001	1091.0542	1161.4079	1167.8101	1186.4419	1224.4971	1249.2415	1281.6172	1314.7846	1398.5445	1400.8078	1463.6795	1486.4998	1504.4916	2349.8926	3056.8708	3111.205	3123.1439	3134.9432	3159.1999	3179.2649	3196.125	3203.4268	3222.2985
N#CC1C2CC3(CC3)C12	N#C[C@H]1[C@H]2CC3(CC3)[C@@H]12	
InChI=1S/C8H9N/c9-4-6-5-3-8(1-2-8)7(5)6/h5-7H,1-3H2	InChI=1S/C8H9N/c9-4-6-5-3-8(1-2-8)7(5)6/h5-7H,1-3H2/t5-,6+,7-/m1/s1
