19
gdb 52821	3.50204	0.90467	0.88557	1.7407	85.67	-0.2387	0.0291	0.2678	1437.4216	0.157541	-385.876333	-385.8667	-385.865756	-385.912385	34.915	
C	 0.2567609182	 1.5897337955	-0.354965437	-0.500153
C	 0.1078243224	 0.1555114184	-0.153438305	 0.033692
C	-0.0280501577	-1.0303024632	 0.0119719916	 0.058368
C	-0.1466043904	-2.4786232512	 0.1954843522	 0.187316
O	 0.4270418807	-3.1706492225	-0.9211131845	-0.454559
C	 0.5100432037	-2.976364951	 1.5269823264	-0.286716
C	-0.4154017408	-4.0711477147	 1.9902550785	-0.062728
C	-1.5635679578	-4.0736247416	 1.3174163649	-0.063753
C	-1.6169844724	-2.9871352243	 0.2753100905	-0.270998
H	 1.0806092568	 1.9957753822	 0.242380997	 0.147358
H	 0.4615346975	 1.8231204734	-1.405666396	 0.150234
H	-0.6550993863	 2.1260613358	-0.0698581099	 0.150499
H	 1.3056067402	-2.8020904445	-1.0641206795	 0.276957
H	 1.5326241535	-3.3194701007	 1.3310064052	 0.10121
H	 0.5784636676	-2.1674828212	 2.2651511066	 0.112781
H	-0.1582958673	-4.7472691851	 2.7979153563	 0.090883
H	-2.3924118085	-4.7505489824	 1.4915367374	 0.091097
H	-2.3006391806	-2.1809991806	 0.5661210322	 0.113689
H	-1.925910519	-3.3365716624	-0.7146259168	 0.124824
17.9203	69.4574	99.7265	135.5183	275.353	282.1733	324.4966	362.7712	384.0232	422.8384	451.0148	541.4452	572.224	693.0088	771.7109	784.488	884.7481	934.557	952.3534	959.4467	971.2143	985.4151	1051.4071	1053.6704	1063.0379	1075.109	1128.422	1154.803	1178.6736	1262.6497	1289.6393	1304.1358	1360.6911	1384.6848	1414.2197	1464.5164	1472.4174	1477.6069	1478.7609	1691.3276	2363.4782	3024.8188	3026.3772	3038.4146	3060.9507	3084.6995	3086.8701	3087.9754	3182.4508	3207.7177	3807.1944
CC#CC1(O)CC=CC1	CC#C[C@@]1(O)CC=CC1	
InChI=1S/C8H10O/c1-2-5-8(9)6-3-4-7-8/h3-4,9H,6-7H2,1H3	InChI=1S/C8H10O/c1-2-5-8(9)6-3-4-7-8/h3-4,9H,6-7H2,1H3
