14
gdb 9470	3.21549	1.76742	1.57918	4.3274	60.9	-0.2498	-0.0447	0.2051	850.1613	0.106358	-415.850581	-415.843014	-415.842069	-415.882429	27.781	
O	 0.2018508648	 1.4853627635	 0.0746385664	-0.467322
C	 0.0185834211	 0.1228955494	-0.024714757	 0.262105
C	-1.4573288816	-0.3915980577	-0.187678367	-0.225845
N	-0.9839129689	-1.1915041945	-1.3266746105	-0.329434
C	 0.2503119461	-0.552403526	-1.4087652188	 0.316068
N	 1.2151203265	-0.4780730276	-2.2155289267	-0.534065
C	 0.7740468325	-0.6088485607	 1.0645176475	 0.126625
O	 1.4747137278	-0.0142598616	 1.8456998792	-0.273068
H	 0.8574071845	 1.6129254471	 0.7806236105	 0.299307
H	-1.8907608897	-0.9763930035	 0.6296435895	 0.115457
H	-2.1133710672	 0.4449340835	-0.4466710276	 0.134719
H	-1.5440339192	-1.511544469	-2.1040104901	 0.247316
H	 1.0413124344	-0.9974143038	-3.0779615457	 0.215854
H	 0.6483850091	-1.7083974491	 1.0941896804	 0.112282
97.9105	137.7703	208.0618	273.9773	312.6727	346.0299	451.7994	463.5235	519.7987	579.1225	670.8463	759.6317	833.832	847.0147	901.3366	914.4246	1010.37	1038.324	1069.6816	1113.3759	1151.5731	1222.151	1283.1835	1325.3206	1366.9222	1383.0406	1446.3109	1518.0195	1793.6675	1819.2061	2954.8307	3042.336	3098.6766	3461.0284	3598.4674	3671.5503
OC1(CNC1=N)C=O	O[C@]1(CN[C]1[NH])C=O	
InChI=1S/C4H6N2O2/c5-3-4(8,2-7)1-6-3/h2,8H,1H2,(H2,5,6)	InChI=1S/C4H6N2O2/c5-3-4(8,2-7)1-6-3/h2,8H,1H2,(H2,5,6)/t4-/m1/s1
