20
gdb 37381	2.81449	2.02531	1.83483	1.454	79.97	-0.2095	0.0873	0.2968	875.0619	0.176319	-365.993153	-365.987076	-365.986131	-366.023046	27.278	
C	-0.0046991768	 1.4714816677	-0.1694605597	-0.263759
C	 1.2753741421	 0.7319168411	 0.0014128236	 0.001674
C	 2.0663064898	 0.6763077723	 1.3056998433	-0.06143
C	 1.2522912033	 1.2385577292	 2.4875597667	-0.243411
C	 0.1627839152	 0.1844838536	 2.6455890583	-0.067122
C	 0.7565666802	-1.135177341	 2.1619473346	-0.064854
C	 2.1689076655	-0.8301136092	 1.6692072242	-0.21347
C	-0.3316985343	-0.4658271067	 1.3624225535	-0.000641
N	-0.0086403459	 0.0141730132	 0.0313964599	-0.098658
H	-0.3728585877	 2.0970462334	 0.6368455223	 0.116457
H	-0.303574002	 1.7934234472	-1.1633646826	 0.10989
H	 1.868708836	 0.5331658383	-0.8909009012	 0.084881
H	 3.0397542404	 1.1578923997	 1.187135862	 0.066252
H	 1.8728438885	 1.2711119505	 3.3919332627	 0.094881
H	 0.8849940399	 2.2530555451	 2.3121627229	 0.097883
H	-0.5045796075	 0.2239454064	 3.4997215861	 0.077089
H	 0.5553249756	-2.0747923729	 2.6631580916	 0.079586
H	 2.4708036553	-1.4431607933	 0.8132806142	 0.101962
H	 2.895018873	-0.9921200219	 2.4740708444	 0.09456
H	-1.3189225305	-0.915111863	 1.4089645033	 0.08823
271.0639	302.3917	383.8669	460.5825	499.1234	548.5369	594.1545	691.4183	716.3752	766.9237	788.3449	824.0045	839.8619	882.7715	902.438	918.8804	940.6178	973.1014	1011.6049	1021.3395	1034.896	1059.4227	1087.9891	1095.9175	1102.7936	1111.2737	1120.4667	1166.213	1174.5922	1177.0944	1197.4294	1225.9793	1291.6875	1309.469	1314.3107	1337.2393	1342.9047	1367.277	1405.2514	1416.1309	1485.7986	1501.5724	1519.3638	3026.5879	3034.9281	3076.6024	3079.6114	3085.3442	3100.8984	3115.8276	3149.0642	3163.3967	3178.2395	3201.9239
C1C2C3CC4C(C3)C4N12	C1[C@H]2[C@H]3C[C@@H]4[C@H](C3)[C@@H]4N12	
InChI=1S/C8H11N/c1-4-2-6-5(1)8(6)9-3-7(4)9/h4-8H,1-3H2	InChI=1S/C8H11N/c1-4-2-6-5(1)8(6)9-3-7(4)9/h4-8H,1-3H2/t4-,5+,6-,7-,8+,9?/m0/s1
