16
gdb 125238	3.06791	1.4009	0.96882	4.8186	76.45	-0.2092	-0.0486	0.1606	1159.6287	0.12631	-434.118348	-434.11032	-434.109376	-434.150618	30.937	
C	-0.0559538854	 1.5381839431	 0.02243224	-0.511509
C	-0.0099685841	 0.0364195313	-0.026180267	 0.295678
C	-0.0058885867	-0.6599414363	-1.1888446371	-0.307052
C	 0.0145168533	-2.1162838354	-1.2197313144	 0.428719
O	 0.0161674604	-2.8228484185	-2.2165289195	-0.405431
N	 0.0290523559	-2.6622561994	 0.0571271075	-0.281798
N	 0.0516541248	-2.0209978903	 1.2450521118	-0.283924
C	 0.0180193099	-0.7198323445	 1.2107638009	 0.305747
N	-0.069762494	-0.0460497203	 2.4305069778	-0.563611
H	 0.858402604	 1.9524887771	 0.4670321828	 0.133752
H	-0.1574075398	 1.9601077604	-0.9793245529	 0.139399
H	-0.8950870351	 1.8810346722	 0.6371017426	 0.153232
H	-0.028479779	-0.1628454705	-2.1522178367	 0.12114
H	 0.0431973396	-3.6706674104	 0.1192857463	 0.269642
H	 0.0906744916	-0.6687051091	 3.2120659721	 0.255999
H	 0.5024802845	 0.7845887608	 2.4965528958	 0.250018
116.2276	179.6454	206.9522	295.8943	316.0697	364.1285	376.0444	412.6561	471.1512	523.0921	562.6622	610.5136	699.1753	725.5667	728.8973	773.2215	814.3669	920.4307	942.1214	1026.1231	1066.4643	1096.8673	1167.1611	1256.8317	1296.0887	1304.1676	1410.0045	1431.4698	1462.6152	1478.7702	1490.8212	1585.6702	1635.6947	1681.4701	1779.0024	3023.0801	3082.2037	3131.8828	3200.0312	3544.6207	3608.3343	3645.3785
CC1=CC(=O)NN=C1N	Cc1cc(=O)[nH]nc1N	
InChI=1S/C5H7N3O/c1-3-2-4(9)7-8-5(3)6/h2H,1H3,(H2,6,8)(H,7,9)	InChI=1S/C5H7N3O/c1-3-2-4(9)7-8-5(3)6/h2H,1H3,(H2,6,8)(H,7,9)
