16
gdb 52082	2.53969	1.18152	0.89677	3.4738	67.46	-0.2545	-0.0559	0.1985	1266.9033	0.122329	-475.029316	-475.020303	-475.019359	-475.064239	31.395	
O	 0.3332501184	 0.0663493917	-0.9041345363	-0.321863
C	 0.1614302124	 1.0794224043	-0.2606394017	 0.163226
N	 1.1002457062	 1.6859880899	 0.5154097089	-0.284423
C	 2.4472873448	 1.1692254368	 0.6530462354	-0.244646
C	 3.5019159678	 2.1414855977	 0.1658280462	 0.294784
C	 4.7923881103	 1.652281062	-0.3681443707	-0.220206
O	 3.8030206201	 2.1675198147	-1.2397630228	-0.244359
C	 3.4997470982	 3.5152878969	 0.7612238041	 0.126576
O	 2.7655453532	 3.8580533493	 1.6557749786	-0.265678
H	-0.8018956308	 1.6249636952	-0.2355340397	 0.079885
H	 0.8607580749	 2.5132755919	 1.0387921958	 0.265453
H	 2.656071055	 0.9264219956	 1.7023990879	 0.12624
H	 2.4935265992	 0.2505414459	 0.0651969593	 0.157942
H	 5.6937473847	 2.2550029903	-0.2625837958	 0.127824
H	 4.9478307556	 0.5752002523	-0.4073935373	 0.13867
H	 4.22572422	 4.2117869256	 0.2901591081	 0.100577
47.5801	65.8961	132.2739	172.7099	213.287	288.3463	314.1296	342.1724	377.0097	499.6793	535.0124	599.7589	758.1348	788.7721	874.4424	889.2974	948.221	983.6373	1033.8638	1047.8444	1053.4062	1135.1309	1165.3121	1209.6811	1253.6878	1318.7487	1342.2072	1383.6824	1428.4483	1436.9923	1465.4278	1520.2843	1526.933	1806.3653	1813.8126	2915.7788	2946.7558	3032.3705	3084.3432	3128.9284	3175.4246	3640.4897
O=CNCC1(CO1)C=O	O=CNC[C@]1(CO1)C=O	
InChI=1S/C5H7NO3/c7-2-5(3-9-5)1-6-4-8/h2,4H,1,3H2,(H,6,8)	InChI=1S/C5H7NO3/c7-2-5(3-9-5)1-6-4-8/h2,4H,1,3H2,(H,6,8)/t5-/m1/s1
