20
gdb 65085	3.15181	1.33677	1.18873	2.1829	78.31	-0.2283	0.0761	0.3043	1121.4405	0.170904	-403.047695	-403.039469	-403.038525	-403.080885	31.89	
C	-0.0249807146	 1.5076116356	-0.3076307892	-0.48296
C	-0.0145027847	 0.0113950768	-0.0880630708	 0.234115
C	 1.1848070081	-0.7771976833	-0.4144562753	-0.225628
O	 0.8801435747	-0.4495853056	 0.9421316311	-0.276508
C	-1.3530348882	-0.6662830825	-0.0747894824	 0.31631
C	-1.6923605275	-2.1520285446	 0.1819341945	-0.216513
N	-3.0902804477	-1.5426157929	-0.0369291344	-0.148051
C	-2.57294916	-0.3920232777	 0.8438726157	-0.212336
C	-2.4227184084	-0.7741365456	-1.1910086663	-0.213998
H	 0.9897729797	 1.9093438636	-0.258174892	 0.130084
H	-0.4531668521	 1.755820861	-1.2846660109	 0.124779
H	-0.6276802645	 2.0051708553	 0.4594643797	 0.130391
H	 1.0908848662	-1.8309197388	-0.6731068309	 0.109039
H	 2.0559259154	-0.2746712962	-0.8339334965	 0.111743
H	-1.4182422359	-2.8856984647	-0.581677203	 0.098103
H	-1.5374158781	-2.5444542252	 1.1893378792	 0.111717
H	-2.4857571826	-0.6550300378	 1.9010969789	 0.10922
H	-3.1266130341	 0.5410219018	 0.7068785398	 0.099248
H	-2.9636505119	 0.1311238747	-1.4807764032	 0.100622
H	-2.197409994	-1.399800024	-2.0594486841	 0.100622
44.7032	156.3258	174.6089	193.1408	303.2004	353.3121	404.7352	473.8235	536.5351	596.3778	599.795	791.3291	794.2659	799.3764	847.9514	898.6071	925.337	935.9044	976.3923	987.6432	993.0161	1023.7113	1033.1275	1096.6936	1134.5874	1153.8837	1155.405	1157.7025	1167.7736	1169.3644	1179.3536	1197.3453	1200.7133	1289.3733	1348.9498	1404.6863	1413.1107	1481.6168	1496.1144	1510.1435	1511.7277	1527.8332	1564.5342	3036.7573	3044.3024	3048.9816	3057.3725	3079.3427	3100.6593	3111.8478	3119.7649	3124.4127	3125.7528	3164.7746
CC1(CO1)C12CN(C1)C2	C[C@]1(CO1)[C@@]12CN(C1)C2	
InChI=1S/C7H11NO/c1-6(5-9-6)7-2-8(3-7)4-7/h2-5H2,1H3	InChI=1S/C7H11NO/c1-6(5-9-6)7-2-8(3-7)4-7/h2-5H2,1H3/t6-/m0/s1
