21
gdb 88378	2.07538	1.39234	1.19224	1.8327	84.21	-0.2584	0.052	0.3104	1211.9441	0.178388	-387.041601	-387.031115	-387.030171	-387.076671	39.062	
C	-1.4975107033	-1.3543471752	 2.612565004	-0.437301
C	-0.6131903675	-1.3367051383	 1.3929216607	 0.057331
O	-0.6034153868	-0.1605855061	 0.5652474721	-0.266656
C	 0.6130859153	-0.5451373257	 1.1945819608	 0.084524
C	 1.3109035164	 0.4226703605	 2.1606538515	 0.004888
C	 2.1835631441	-0.4095501028	 3.1300073409	-0.403691
C	 2.2147154305	 1.3520089724	 1.3085815709	-0.40518
C	 0.3909534236	 1.2740151117	 2.9203183849	 0.326745
C	-0.2783315151	 2.0374757401	 3.5645254839	-0.462322
H	-1.4064931461	-0.4417961873	 3.1991485372	 0.150642
H	-2.543179472	-1.4716945804	 2.3079562369	 0.125539
H	-1.2399002357	-2.2123779501	 3.2437370546	 0.116209
H	-0.6640122252	-2.2577128878	 0.8054836321	 0.085574
H	 1.3447325893	-0.9764598915	 0.5039946414	 0.08258
H	 2.8613394514	-1.0583548129	 2.5648561767	 0.114603
H	 2.7863235517	 0.2477111483	 3.7622686212	 0.127031
H	 1.564800068	-1.0365472937	 3.7767782411	 0.127781
H	 1.6151137228	 1.9113249365	 0.5861510016	 0.141018
H	 2.7402871005	 2.0655337385	 1.9482916825	 0.123953
H	 2.9579527057	 0.7605507503	 0.7634940108	 0.111618
H	-0.8976522676	 2.6971931435	 4.1204747741	 0.195114
45.7025	140.6679	167.4628	186.4828	191.9413	232.714	234.0296	272.259	310.9395	342.23	388.4361	423.6872	504.5019	571.7116	623.0745	628.5655	643.2104	695.8815	785.1089	830.5835	933.6398	939.9197	951.4829	1001.8336	1028.3523	1043.1209	1093.7315	1158.5274	1169.6627	1186.078	1205.112	1265.4634	1331.9068	1391.893	1393.558	1412.4622	1425.5195	1468.4218	1480.7398	1485.9836	1494.0808	1499.3706	1507.6316	1510.9629	2230.2221	3036.0147	3037.6406	3038.8341	3050.5511	3069.7818	3093.3211	3109.219	3114.177	3125.5747	3129.7229	3169.1229	3500.6433
CC1OC1C(C)(C)C#C	C[C@H]1O[C@H]1C(C)(C)C#C	
InChI=1S/C8H12O/c1-5-8(3,4)7-6(2)9-7/h1,6-7H,2-4H3	InChI=1S/C8H12O/c1-5-8(3,4)7-6(2)9-7/h1,6-7H,2-4H3/t6-,7-/m1/s1
