20
gdb 100344	2.48587	1.16589	1.01642	2.9993	71.51	-0.2563	0.0165	0.2728	1253.2614	0.169297	-477.437433	-477.427014	-477.42607	-477.472676	37.888	
C	-0.0294893559	 1.6098330708	 0.0134469265	-0.427158
C	 0.0148271997	 0.0758324222	 0.0250348116	 0.232828
C	 0.6834183091	-0.4117275976	 1.3280899123	-0.113905
O	 0.4527225211	-1.7951280236	 1.5796573488	-0.435765
C	-1.4167389179	-0.5151578946	-0.0707373201	-0.095647
O	-2.1343086215	-0.4088260637	 1.1362132586	-0.422816
N	 0.7430064808	-0.456322007	-1.1432955736	-0.322054
C	 2.0260133436	-0.1567128749	-1.4845325375	 0.151937
O	 2.8052003271	 0.4968977364	-0.8222387673	-0.325755
H	 0.9634858643	 2.0322572088	 0.178471162	 0.149189
H	-0.401573834	 1.9725711264	-0.9497780996	 0.110732
H	-0.7080331411	 1.9572496526	 0.7976471615	 0.133469
H	 1.7509631513	-0.1744351411	 1.2994034229	 0.139671
H	 0.2330150035	 0.1207827829	 2.1688907299	 0.12033
H	 0.9197706884	-2.29508324	 0.9019040886	 0.287608
H	-1.9856246431	 0.0340080767	-0.8299693048	 0.110405
H	-1.3459317118	-1.5641365889	-0.3952879933	 0.08222
H	-1.760372846	-1.0747840939	 1.7264015788	 0.300476
H	 0.2001196793	-0.9400634204	-1.8437328666	 0.244083
H	 2.301439243	-0.6071138112	-2.4604886887	 0.080155
78.2486	87.3561	127.0945	163.3996	219.6451	236.1946	246.943	301.16	324.0925	347.1952	369.1542	407.6106	495.9805	513.8822	557.2969	587.1627	742.7171	840.1624	878.1546	904.7179	962.534	1003.6019	1031.699	1064.4709	1091.3363	1147.5365	1156.1628	1186.2219	1249.7904	1255.9915	1281.9887	1378.0296	1392.3411	1413.5214	1425.3017	1428.4098	1435.8608	1487.1369	1497.7119	1503.4691	1512.7177	1523.3492	1799.8356	2920.8581	2987.7464	3043.8004	3062.7479	3066.163	3113.9954	3120.4607	3141.0912	3601.4075	3784.626	3812.6623
CC(CO)(CO)NC=O	CC(CO)(CO)NC=O	
InChI=1S/C5H11NO3/c1-5(2-7,3-8)6-4-9/h4,7-8H,2-3H2,1H3,(H,6,9)	InChI=1S/C5H11NO3/c1-5(2-7,3-8)6-4-9/h4,7-8H,2-3H2,1H3,(H,6,9)
