16
gdb 79546	2.57406	1.66811	1.21101	4.5952	73.18	-0.275	-0.0043	0.2707	1027.0615	0.124004	-400.700731	-400.693056	-400.692112	-400.732875	29.364	
C	-0.0872626526	 1.5245259529	-0.0611160593	-0.425179
C	 0.0900626654	 0.022810932	 0.0313618397	-0.009057
C	 1.3781250651	-0.72926346	-0.2037235968	-0.111314
C	 2.5603583538	-0.0024280901	 0.3935149496	-0.055245
O	 3.0987110191	-0.7715125269	 1.4710341535	-0.272236
C	 1.9144848129	-0.0013148837	 1.7347574896	 0.3151
C	 1.973455198	 0.9736540109	 2.7803231221	 0.224699
N	 1.9772403397	 1.759575527	 3.6287016698	-0.34486
C	 0.7022495179	-0.7258979547	 1.1916443611	-0.181344
H	 0.7600030531	 2.0754939327	 0.3521921333	 0.134677
H	-0.2083588921	 1.8289028007	-1.1059933852	 0.125796
H	-0.9833964881	 1.8370444257	 0.4844210855	 0.132909
H	-0.7601987253	-0.5255118931	-0.3732637057	 0.10409
H	 1.4532237875	-1.5677186619	-0.8842526194	 0.114552
H	 3.2088000263	 0.7482725453	-0.0412792913	 0.13153
H	 0.2107879692	-1.5514200169	 1.6899073235	 0.115881
107.5257	154.7659	195.3584	230.1827	277.5261	427.3088	447.4412	537.8923	573.9829	585.271	661.8846	735.6741	772.9403	840.9544	868.5764	918.9893	925.7497	958.2705	980.781	1009.3702	1065.8615	1074.0907	1100.2385	1139.8153	1168.9355	1203.8135	1260.1103	1288.56	1320.0911	1389.0008	1418.4805	1436.6449	1494.5243	1502.0552	2357.8283	3041.9958	3102.2939	3115.0061	3134.3705	3196.0331	3203.2871	3207.9634
CC1C2C3OC3(C#N)C12	C[C@H]1[C@H]2[C@@H]3O[C@]3(C#N)[C@@H]12	
InChI=1S/C7H7NO/c1-3-4-5(3)7(2-8)6(4)9-7/h3-6H,1H3	InChI=1S/C7H7NO/c1-3-4-5(3)7(2-8)6(4)9-7/h3-6H,1H3/t3-,4+,5-,6-,7+/m0/s1
