19
gdb 73108	2.81763	1.48227	1.21607	4.4088	74.53	-0.2625	0.0165	0.279	1082.709	0.159942	-423.074284	-423.066297	-423.065352	-423.106932	31.041	
C	-0.3041262245	 1.471741344	 0.2074170645	-0.479224
C	 0.0600414242	 0.0169166932	-0.048586344	 0.329318
C	-1.1129851277	-0.9969925615	 0.185112118	-0.283146
C	-0.4191038426	-1.4960546777	 1.4848992817	-0.234357
C	 0.8470397692	-0.7066210682	 1.0947955534	 0.072541
O	 1.8313297677	-1.5290721632	 0.4616253409	-0.228414
C	 1.8872832885	-1.333071263	-0.8880625215	 0.42073
O	 2.6289084434	-1.9553151431	-1.5893280921	-0.330985
C	 0.9065418134	-0.2323245114	-1.2916101075	-0.437994
H	 0.5898961362	 2.1045065401	 0.2373440106	 0.120519
H	-0.961448952	 1.8548628063	-0.5808173941	 0.125234
H	-0.8303345621	 1.5900924646	 1.1610366239	 0.11903
H	-2.0992359379	-0.5446085243	 0.310150619	 0.106454
H	-1.1829721702	-1.7613110835	-0.593117219	 0.11059
H	-0.88237939	-1.1110874986	 2.3965880417	 0.110204
H	-0.2718005084	-2.572091762	 1.5905988638	 0.12113
H	 1.3440042836	-0.1089213812	 1.8633904553	 0.085607
H	 0.3408585212	-0.5494899471	-2.1708967109	 0.138506
H	 1.4929840078	 0.6471026166	-1.5826730137	 0.134255
76.0151	112.9055	236.8471	253.5021	311.6222	368.6156	374.373	498.9765	541.6693	579.7068	643.0519	696.9102	742.5809	823.0902	864.8959	881.6063	915.5147	953.9838	956.7567	974.609	999.316	1053.148	1116.2467	1135.0202	1147.149	1187.6423	1216.6644	1229.6481	1249.233	1262.5565	1278.9192	1288.9111	1331.7769	1372.7473	1414.4747	1459.5287	1468.6892	1490.4275	1494.7758	1497.5523	1882.0692	3024.2159	3047.6869	3063.1539	3067.5126	3078.9282	3092.6001	3094.5485	3107.2438	3112.6783	3134.0341
CC12CCC1OC(=O)C2	C[C@]12CC[C@H]1OC(=O)C2	
InChI=1S/C7H10O2/c1-7-3-2-5(7)9-6(8)4-7/h5H,2-4H2,1H3	InChI=1S/C7H10O2/c1-7-3-2-5(7)9-6(8)4-7/h5H,2-4H2,1H3/t5-,7-/m1/s1
