15
gdb 87661	2.72048	1.32981	1.12747	3.0405	62.16	-0.2635	-0.0149	0.2486	1092.47	0.109975	-494.88399	-494.875279	-494.874335	-494.91756	31.396	
O	-0.3073167182	 1.4066696123	 0.0050970638	-0.431288
C	-0.0778823442	 0.0389450736	-0.0946564212	 0.078156
C	-0.1513800527	-0.8271717409	 1.1610658347	-0.396929
C	-1.2198021017	-0.8895997126	 0.1243887027	 0.397043
O	-2.5332692797	-0.3046666325	 0.3576473751	-0.278825
C	-3.1227037753	-1.1967260106	-0.519025648	 0.426048
O	-4.2517380659	-1.2250405268	-0.8802075145	-0.314619
C	-1.806944443	-1.9799466951	-0.7531025287	-0.176002
O	-1.2941406197	-2.016658341	-2.0536033318	-0.415581
H	-1.2615479923	 1.5503963777	-0.0256094783	 0.301902
H	 0.6520420621	-0.2258582333	-0.8549206246	 0.123156
H	 0.522114232	-1.6727887328	 1.2576770178	 0.128754
H	-0.3974102205	-0.3137863349	 2.084544527	 0.140358
H	-1.8327799619	-2.9684400504	-0.2738890161	 0.112972
H	-1.7990819089	-2.6601650225	-2.562664048	 0.304855
84.6414	133.1008	162.1519	180.9722	216.6638	253.1375	283.2191	414.6947	447.2232	509.667	573.3359	599.9829	717.3273	799.1301	820.2962	865.074	902.3582	986.6204	1010.7325	1028.2746	1064.9816	1098.1171	1152.1079	1162.7246	1201.4723	1240.7195	1278.7644	1318.4386	1363.3577	1408.1523	1439.0106	1495.8632	1949.8679	3014.4497	3130.0778	3150.0146	3226.091	3773.9064	3816.8617
OC1CC11OC(=O)C1O	O[C@H]1C[C@]21OC(=O)[C@H]2O	
InChI=1S/C5H6O4/c6-2-1-5(2)3(7)4(8)9-5/h2-3,6-7H,1H2	InChI=1S/C5H6O4/c6-2-1-5(2)3(7)4(8)9-5/h2-3,6-7H,1H2/t2-,3+,5+/m0/s1
