19
gdb 119765	4.64515	0.73941	0.67504	4.1304	80.8	-0.2324	-0.0394	0.193	1638.8446	0.15885	-423.064893	-423.055566	-423.054622	-423.100543	33.163	
O	-0.1189371707	 1.4421960861	-0.068733019	-0.414453
C	 0.0160465443	 0.0321269267	-0.0869304006	-0.068386
C	-1.3842521208	-0.5539214546	 0.1323161567	-0.288033
C	-1.4101478806	-2.0507713967	 0.1146948126	 0.324268
C	-1.6460587329	-2.8598951421	 1.1599790045	-0.297382
C	-1.59734784	-4.2813340869	 0.764158533	 0.395928
O	-1.7549869224	-5.248320927	 1.4737983051	-0.337742
C	-1.3055071066	-4.3124088066	-0.7467108251	-0.334911
C	-1.1653688873	-2.836695874	-1.1611608304	-0.314436
H	 0.7543139062	 1.8313985286	-0.1724072779	 0.289939
H	 0.4269260776	-0.3175769361	-1.0467035886	 0.091623
H	 0.6892125816	-0.3219400523	 0.7091354805	 0.098067
H	-1.7676141619	-0.1754276935	 1.0844883016	 0.121676
H	-2.0335904478	-0.1601420248	-0.6606065153	 0.12111
H	-1.8548543675	-2.5491310852	 2.1764128481	 0.10764
H	-0.4029456053	-4.9016712564	-0.9315670725	 0.131627
H	-2.1255813502	-4.8230859176	-1.2598670282	 0.133863
H	-1.8864836099	-2.5412644689	-1.9335374664	 0.120022
H	-0.1755401158	-2.6122793187	-1.5765863881	 0.119582
34.5192	79.5839	92.912	110.2157	225.4299	252.378	303.3639	338.2731	479.5194	507.2358	553.9133	630.0816	672.9896	799.3081	830.0316	836.5261	882.1062	899.489	997.4391	1004.2805	1017.2318	1064.1764	1082.5166	1151.8003	1157.2918	1185.6701	1215.1661	1234.4441	1241.6776	1258.3292	1297.4872	1313.9231	1332.2088	1352.8304	1452.0046	1454.5764	1481.4758	1486.6794	1528.9197	1675.9001	1811.8477	2974.4368	3002.9254	3027.2486	3031.5636	3054.4303	3067.0919	3092.3179	3107.5195	3212.3444	3831.4519
OCCC1=CC(=O)CC1	OCCC1=CC(=O)CC1	
InChI=1S/C7H10O2/c8-4-3-6-1-2-7(9)5-6/h5,8H,1-4H2	InChI=1S/C7H10O2/c8-4-3-6-1-2-7(9)5-6/h5,8H,1-4H2
