23
gdb 59042	2.46802	1.24465	1.04462	1.4358	88.45	-0.2297	0.0259	0.2556	1304.8095	0.20545	-388.312324	-388.302401	-388.301456	-388.346853	37.627	
C	-0.0493236822	 1.5580247558	 0.2506206707	-0.397241
C	-0.0231270712	 0.033672829	 0.0398618256	-0.075261
C	 0.8851628028	-0.6474493721	 1.0843352252	-0.386938
C	-1.4116482695	-0.5577532167	 0.0421556053	 0.358475
C	-1.9154466183	-1.4099087846	-0.8536494672	-0.194442
C	-3.3519627997	-1.7831876697	-0.5836839199	-0.25567
C	-3.5717157127	-1.2511633797	 0.8517547342	-0.24465
C	-2.4750759271	-0.181394983	 1.0607514259	 0.027469
O	-1.9369073695	-0.1629924996	 2.3830689617	-0.430822
H	 0.9629827821	 1.9701569324	 0.1874212592	 0.106393
H	-0.6638936918	 2.0572165871	-0.5058978263	 0.10682
H	-0.4516184569	 1.8035326356	 1.2380538397	 0.127412
H	 0.4075781205	-0.1640204473	-0.9508114717	 0.069778
H	 1.8969251511	-0.2289845671	 1.0397537106	 0.099484
H	 0.4900137651	-0.5021862587	 2.0920396308	 0.141928
H	 0.9532091261	-1.7235982229	 0.8981343221	 0.107376
H	-1.3737332388	-1.7742542011	-1.7212547048	 0.083303
H	-4.0250639732	-1.2941465558	-1.3021678966	 0.104346
H	-3.5421990541	-2.8590172993	-0.6727036603	 0.102675
H	-4.5832217907	-0.8722971672	 1.0251440906	 0.086429
H	-3.3792697699	-2.0475516051	 1.5780525811	 0.111951
H	-2.8598441952	 0.8251892614	 0.8219544786	 0.069518
H	-2.6146158768	 0.1819150384	 2.9727201156	 0.281668
67.8438	103.7829	162.8534	193.1507	233.3331	258.7792	270.1587	298.9046	307.7219	367.1359	431.8375	466.3848	579.6344	616.7735	677.7399	802.8043	837.5171	878.4444	891.0347	932.1406	938.1328	944.7687	965.3998	1015.3785	1044.5776	1081.1129	1089.2356	1121.0283	1163.294	1177.5121	1207.0296	1225.864	1249.2336	1284.8648	1299.3037	1335.4299	1342.5205	1350.6785	1368.9128	1390.6875	1413.6135	1428.109	1484.3358	1486.2922	1498.666	1500.8156	1503.0233	1518.1481	1712.1275	2941.5724	3006.4146	3010.0944	3031.1171	3035.2073	3044.8272	3054.3784	3097.3456	3098.581	3100.3182	3112.5977	3136.277	3176.464	3818.8065
CC(C)C1=CCCC1O	CC(C)C1=CCC[C@H]1O	
InChI=1S/C8H14O/c1-6(2)7-4-3-5-8(7)9/h4,6,8-9H,3,5H2,1-2H3	InChI=1S/C8H14O/c1-6(2)7-4-3-5-8(7)9/h4,6,8-9H,3,5H2,1-2H3/t8-/m1/s1
