18
gdb 62189	4.86772	0.59449	0.54525	1.9798	78.15	-0.2636	0.0139	0.2776	1915.6657	0.146867	-398.147108	-398.137015	-398.136071	-398.183458	34.76	
C	 0.1547230412	 1.5225483164	 0.1212154747	-0.397035
C	 0.0217053324	-0.0089561738	-0.0198336909	-0.103229
N	-1.3350618605	-0.5506371667	 0.0697048812	-0.296363
C	-1.9756254892	-0.4059747208	 1.369369234	-0.138737
C	-3.2361643975	-1.2908647033	 1.4110257363	-0.342603
C	-3.925102537	-1.2041931604	 2.6955660693	 0.255635
N	-4.4522779577	-1.1204915541	 3.7202054637	-0.29809
C	 0.6110232315	-0.4461757614	-1.297529114	 0.277615
N	 1.0710566667	-0.7577264416	-2.3101399344	-0.311869
H	 1.2009922976	 1.829488166	 0.0404964588	 0.145732
H	-0.4125919253	 2.0310757441	-0.6640260377	 0.134796
H	-0.2235602695	 1.8460504243	 1.0942026779	 0.133782
H	 0.6061173322	-0.4849096522	 0.7786259463	 0.138527
H	-1.9119835095	-0.149004012	-0.6635189857	 0.230116
H	-1.2742444409	-0.7505040056	 2.1372568698	 0.133092
H	-2.2529580265	 0.6272272121	 1.631411563	 0.11612
H	-3.9332030686	-0.9899940484	 0.6197328928	 0.153347
H	-2.9581124393	-2.3302350328	 1.2110009347	 0.169162
45.0493	73.1712	80.5586	137.936	156.8648	215.5759	243.8023	318.0356	333.2555	399.6481	408.2482	533.9987	562.7013	599.1546	735.2293	787.0987	839.5922	915.0029	958.2636	1024.8869	1055.7383	1068.3664	1100.5535	1133.9224	1168.5072	1233.2315	1287.8295	1319.3722	1328.5522	1349.8342	1403.761	1414.642	1468.4285	1488.0152	1490.8879	1507.5721	1515.7832	2364.6178	2365.8751	2978.9669	3031.2671	3044.9082	3046.563	3067.8792	3098.1015	3124.1715	3128.7793	3512.9428
CC(NCCC#N)C#N	C[C@@H](NCCC#N)C#N	
InChI=1S/C6H9N3/c1-6(5-8)9-4-2-3-7/h6,9H,2,4H2,1H3	InChI=1S/C6H9N3/c1-6(5-8)9-4-2-3-7/h6,9H,2,4H2,1H3/t6-/m1/s1
