23
gdb 111917	1.95605	1.34955	0.88244	1.9909	88.04	-0.2291	0.0193	0.2485	1405.7012	0.205558	-388.309465	-388.299548	-388.298604	-388.344016	37.569	
C	-0.8107231006	 1.2645504699	-0.0237005855	-0.41343
C	 0.0832290494	 0.024352475	-0.0655381337	 0.017523
C	 1.3041572747	 0.1377694163	-1.0126985115	-0.308159
C	 2.3150917426	-0.8133074046	-0.4047580357	 0.333103
C	 3.5349947097	-1.250843442	-1.1510812867	-0.493475
C	 1.9563015977	-1.1491973199	 0.8377820146	-0.199735
C	 0.6874653863	-0.4590335651	 1.2918660604	-0.057019
C	 0.9920080618	 0.6682612986	 2.2973351089	-0.0661
O	 1.6006566635	 0.1846564426	 3.4855933739	-0.426706
H	-0.2636177662	 2.1547649967	 0.3039825294	 0.117907
H	-1.2154801856	 1.4788811325	-1.018667541	 0.11102
H	-1.6603916188	 1.1251298909	 0.6532216673	 0.11519
H	-0.5220019291	-0.8120290527	-0.4362364152	 0.079039
H	 1.0512955056	-0.1169845222	-2.0495023592	 0.096629
H	 1.7064207149	 1.1621335044	-1.0427094321	 0.099212
H	 4.1509893578	-0.3897170862	-1.4413158687	 0.125141
H	 4.1553770188	-1.9266472211	-0.5558457131	 0.121667
H	 3.2663496044	-1.7648224524	-2.0829068516	 0.125365
H	 2.5240759359	-1.817884606	 1.4783315506	 0.08119
H	 0.0057710376	-1.153543296	 1.7989732699	 0.072801
H	 1.6171870101	 1.4393243069	 1.8193609967	 0.082468
H	 0.0638002452	 1.1506451079	 2.6192438991	 0.105763
H	 2.4614552244	-0.1708366035	 3.2428476734	 0.280605
81.1101	118.2643	153.7841	186.0415	200.0024	247.0204	273.7375	317.6112	344.9137	378.0808	424.9574	480.324	521.2041	562.1432	670.7392	812.9944	848.5496	874.7723	887.7624	931.6975	960.1875	995.8214	1009.1235	1040.4835	1051.4796	1072.9285	1089.914	1130.9264	1146.8687	1183.5193	1196.4042	1219.1324	1282.1237	1284.2277	1325.4514	1350.9571	1355.3977	1371.4979	1390.6109	1412.3289	1414.2961	1422.4085	1479.5451	1486.7089	1488.3464	1498.8427	1502.0459	1509.5835	1716.1124	2973.8601	2991.276	3014.3496	3015.9257	3028.785	3029.9444	3044.7182	3060.6228	3078.4811	3094.197	3099.9486	3108.1599	3168.9673	3817.2487
CC1CC(C)=CC1CO	C[C@H]1CC(=C[C@H]1CO)C	
InChI=1S/C8H14O/c1-6-3-7(2)8(4-6)5-9/h4,7-9H,3,5H2,1-2H3	InChI=1S/C8H14O/c1-6-3-7(2)8(4-6)5-9/h4,7-9H,3,5H2,1-2H3/t7-,8-/m0/s1
