13
gdb 21572	7.47029	1.25695	1.07808	6.6006	64.07	-0.2252	-0.0415	0.1837	1011.3657	0.09711	-394.804521	-394.797317	-394.796373	-394.836038	25.932	
N	 0.1055532161	 1.4013538531	 0.1261911429	-0.60674
C	-0.0448194653	 0.018438574	 0.0365944333	 0.406921
C	-1.1487090575	-0.8086666248	 0.0176095904	-0.366708
C	-0.6121648375	-2.1238153182	 0.0048951294	 0.256913
C	-1.39115689	-3.3722239229	-0.0236075847	 0.097072
O	-0.9382064399	-4.490360275	-0.060338173	-0.261424
N	 0.7231078214	-2.1173951437	 0.0103054221	-0.267693
N	 1.037124614	-0.8108732276	 0.0395020796	-0.224272
H	 0.7377860321	 1.7894154323	-0.564111126	 0.255576
H	-0.7820729453	 1.8822115136	 0.0737992749	 0.261342
H	-2.1858392442	-0.5146318451	-0.0003926275	 0.107725
H	-2.4916391732	-3.1959018351	-0.0075472241	 0.064069
H	 2.0063837094	-0.5420573107	 0.0965668327	 0.277219
103.9805	165.997	189.1605	232.1629	347.4531	374.8037	476.6401	540.2573	665.6817	696.5168	710.7338	749.0837	790.6369	807.1462	1006.0152	1034.3468	1045.9575	1103.9815	1164.0305	1210.8476	1326.1349	1409.2931	1457.1635	1473.1253	1501.3481	1625.009	1661.9976	1812.4302	2862.8416	3262.7332	3533.9121	3632.2482	3652.7493
NC1=CC(C=O)=NN1	Nc1cc(C=O)n[nH]1	
InChI=1S/C4H5N3O/c5-4-1-3(2-8)6-7-4/h1-2H,(H3,5,6,7)	InChI=1S/C4H5N3O/c5-4-1-3(2-8)6-7-4/h1-2H,(H3,5,6,7)
