18
gdb 80326	2.18299	1.54515	1.37517	4.1481	75.9	-0.2635	0.0257	0.2893	1058.087	0.147287	-401.936889	-401.928172	-401.927227	-401.969904	32.899	
C	-0.0830294808	 1.4914273926	-0.0425342656	-0.502221
C	 0.0466159202	-0.0023332696	 0.035088436	 0.26981
C	-0.7912544201	-0.8743899146	 0.9333682858	 0.060044
O	-1.4735454071	-2.0145362162	 0.5082401253	-0.417389
C	 0.6937040316	-0.933122072	 1.0925232344	-0.141903
C	 1.285177856	-1.8207942498	-0.0065836561	-0.245927
C	 0.673490024	-0.8589327663	-1.0866497107	-0.19546
C	-0.2364798182	-1.3939807026	-2.0936661089	 0.270616
N	-0.9776551009	-1.7881723742	-2.8897250913	-0.34708
H	 0.8714151274	 1.9655260258	-0.2986651785	 0.122623
H	-0.8152556642	 1.7853978587	-0.8042777493	 0.133954
H	-0.4143415064	 1.9068687001	 0.9142529592	 0.127345
H	-1.3010303113	-0.3076536688	 1.7140547407	 0.093349
H	-2.1135340362	-1.768402564	-0.1686358467	 0.301541
H	 1.1886951546	-0.6750009497	 2.0208659178	 0.096617
H	 2.3749690469	-1.8152852664	-0.0405736802	 0.114142
H	 0.9175636725	-2.8470537992	-0.0268898944	 0.13634
H	 1.4655781622	-0.3054148138	-1.5981884175	 0.123598
113.6449	124.8002	194.8701	221.5205	265.338	273.5229	304.9768	310.9543	460.7068	507.5112	547.0179	588.6014	645.6662	766.5556	798.1929	817.0763	897.8562	959.4295	963.8272	1015.8098	1029.6443	1047.9952	1085.3027	1112.6405	1146.1241	1151.663	1203.4385	1243.2181	1260.1391	1287.4152	1313.3653	1337.1009	1349.7072	1416.0445	1460.8962	1484.849	1490.9712	1499.8848	2345.9546	3022.5104	3073.549	3081.335	3088.911	3094.0211	3102.9798	3147.3152	3187.6292	3809.0019
CC12C(O)C1CC2C#N	C[C@]12[C@@H](O)[C@H]1C[C@H]2C#N	
InChI=1S/C7H9NO/c1-7-4(3-8)2-5(7)6(7)9/h4-6,9H,2H2,1H3	InChI=1S/C7H9NO/c1-7-4(3-8)2-5(7)6(7)9/h4-6,9H,2H2,1H3/t4-,5+,6-,7+/m0/s1
