20
gdb 75177	4.4529	0.93762	0.80444	4.3558	86.26	-0.246	0.0138	0.2598	1425.5386	0.172337	-366.060521	-366.051751	-366.050806	-366.093906	33.228	
C	-0.0064460657	 1.5407191365	 0.0535742439	-0.475278
C	-0.0146354523	 0.0384891045	-0.0254070848	 0.329463
C	-0.0451943601	-0.6155589001	-1.1891803804	-0.161616
C	-0.0196390526	-2.1138618674	-1.3366112531	-0.248397
C	 0.4196718164	-2.8046265554	-0.026682937	-0.152886
C	-0.3210057385	-2.1835676299	 1.1763874145	-0.206135
C	 0.0232891378	-0.6947468008	 1.2973473663	-0.310482
C	 0.2151360218	-4.2518067505	-0.0969586228	 0.262939
N	 0.0422094814	-5.3934664364	-0.1522910703	-0.326424
H	 0.8743181298	 1.9021579159	 0.6003242437	 0.124262
H	-0.0012829951	 1.9991765085	-0.9386248171	 0.122603
H	-0.8831060433	 1.9133925132	 0.5988654962	 0.124742
H	-0.0879011254	-0.0483047966	-2.1165017378	 0.083687
H	-1.0098946141	-2.4880314531	-1.6313351285	 0.127813
H	 0.6583555349	-2.4024711512	-2.1480528437	 0.122263
H	 1.495976458	-2.6345047631	 0.1085915327	 0.125124
H	-1.3990243647	-2.3087926582	 1.0241256235	 0.119875
H	-0.0635032826	-2.7154184361	 2.0966295015	 0.116773
H	 1.0188063247	-0.5719623619	 1.750207386	 0.112119
H	-0.6719215903	-0.216904958	 1.9996093375	 0.109554
77.3738	143.5775	173.9984	187.1981	259.831	309.9985	328.6212	369.754	439.78	498.8562	540.3233	567.2528	646.7064	764.6473	812.0528	822.1883	920.9699	933.9433	966.0727	1012.345	1032.375	1044.2056	1065.1114	1092.943	1122.2155	1164.2972	1174.9615	1236.6619	1274.0722	1311.8094	1319.6043	1340.9184	1355.3059	1386.5494	1399.5694	1414.4162	1474.4569	1479.822	1481.2824	1491.2656	1497.6733	1743.4289	2356.0981	2996.6957	3013.1641	3015.5077	3025.8519	3035.3095	3051.0773	3058.6786	3061.187	3094.8979	3113.078	3147.1828
CC1=CCC(CC1)C#N	CC1=CC[C@@H](CC1)C#N	
InChI=1S/C8H11N/c1-7-2-4-8(6-9)5-3-7/h2,8H,3-5H2,1H3	InChI=1S/C8H11N/c1-7-2-4-8(6-9)5-3-7/h2,8H,3-5H2,1H3/t8-/m0/s1
