22
gdb 99865	2.01975	1.38311	1.02786	4.0022	82.2	-0.2399	0.0255	0.2653	1288.8873	0.193317	-400.537263	-400.526232	-400.525288	-400.572674	40.794	
C	 0.0740587758	 1.5976234837	 0.1308467565	-0.407026
C	-0.0562849382	 0.0819236924	-0.0421615331	-0.207319
C	 0.6505241098	-0.4924459849	-1.3017445706	 0.072842
N	 0.1214204745	 0.0179272482	-2.5811456586	-0.536228
C	 2.0781705432	-0.1231595451	-1.2382453985	 0.298684
N	 3.1975157768	 0.1541954722	-1.1576056728	-0.355734
C	 0.5980258344	-2.0719573406	-1.3413206641	 0.041897
C	-0.8355172471	-2.5985118215	-1.4651292873	-0.408344
N	 1.3992641975	-2.6489362976	-2.4142097587	-0.518479
H	 1.1198875613	 1.8983552663	 0.2429986504	 0.146694
H	-0.3433212516	 2.1361111194	-0.7263440277	 0.108997
H	-0.4684318678	 1.9281842283	 1.0210275145	 0.123152
H	 0.3396853768	-0.4272887761	 0.8446347185	 0.114342
H	-1.1157269932	-0.1878073716	-0.1110345807	 0.104524
H	-0.8937967387	 0.0112018651	-2.5471964415	 0.237095
H	 0.4028851301	 0.9816804432	-2.7271274236	 0.24649
H	 1.0174664263	-2.420464773	-0.3901467026	 0.091074
H	-1.2920906547	-2.2770287107	-2.4074081562	 0.119242
H	-0.8043569795	-3.6899134511	-1.4756897641	 0.137962
H	-1.476781821	-2.2800646314	-0.6394870809	 0.114389
H	 1.1448545033	-2.1882659959	-3.2855888184	 0.235723
H	 2.3839224521	-2.4479919092	-2.2638804207	 0.240022
82.1095	98.7277	152.9912	160.1843	203.9554	228.2465	239.4142	265.1262	291.2233	318.6963	325.3864	371.6666	415.9896	448.3484	516.165	584.6805	622.1124	700.1963	790.5939	843.981	898.3873	905.3242	938.2277	968.0646	1010.8365	1027.9055	1062.8111	1086.4076	1106.5409	1165.1298	1197.9319	1268.2725	1284.0168	1313.4158	1360.3817	1373.3211	1402.7281	1412.7017	1422.3886	1478.6612	1491.9805	1499.9886	1503.4183	1506.7763	1654.0662	1669.3896	2351.0517	3032.6354	3040.3421	3042.0372	3045.9493	3074.6404	3108.0099	3115.3484	3119.0402	3134.3953	3480.2328	3500.0373	3559.8555	3584.0371
CCC(N)(C#N)C(C)N	CC[C@@](N)(C#N)[C@@H](C)N	
InChI=1S/C6H13N3/c1-3-6(9,4-7)5(2)8/h5H,3,8-9H2,1-2H3	InChI=1S/C6H13N3/c1-3-6(9,4-7)5(2)8/h5H,3,8-9H2,1-2H3/t5-,6-/m1/s1
