15
gdb 8469	2.9556	2.13555	1.59611	3.5403	61.75	-0.2418	0.0047	0.2465	838.3515	0.118313	-399.799033	-399.791422	-399.790478	-399.83059	28.534	
C	-0.1374752039	 1.4876987959	 0.0907309532	-0.489147
C	 0.0454629724	 0.0111846196	 0.0488409018	 0.435544
C	 1.1934541691	-0.799398133	-0.4296312269	-0.36027
C	 0.6811926517	-0.9843363774	 1.0110633482	 0.05596
N	 1.5391088584	-0.7919480858	 2.1172305466	-0.599535
C	-0.6548514831	-1.6905072925	 0.9192389683	 0.409442
O	-1.2286234491	-2.5802793964	 1.4592998395	-0.333492
O	-1.1530286595	-0.8257587942	-0.0506516755	-0.299959
H	 0.8054365345	 1.9675301554	 0.3678185175	 0.141663
H	-0.446825242	 1.8755810033	-0.8853627552	 0.140569
H	-0.8996777055	 1.7611137847	 0.826264497	 0.138381
H	 1.0432342377	-1.5737558787	-1.1749090719	 0.1322
H	 2.1539386034	-0.2931029255	-0.4592162709	 0.134643
H	 1.015871872	-0.6903116769	 2.9804941015	 0.247197
H	 2.1771470039	-1.5725757686	 2.2337143169	 0.246804
138.6523	165.6335	193.2312	254.6949	282.9252	362.0142	389.4371	479.9657	555.2005	625.4125	681.0275	741.6619	754.8515	795.278	859.7001	909.9917	963.6866	979.5445	1017.8297	1077.2008	1100.0445	1132.6952	1220.0295	1270.3727	1357.1996	1412.402	1430.8891	1473.8885	1493.4294	1518.3449	1666.3322	1932.6627	3039.8904	3106.5262	3122.3207	3124.4213	3218.7604	3504.7214	3580.6557
CC12CC1(N)C(=O)O2	C[C@@]12C[C@]1(N)C(=O)O2	
InChI=1S/C5H7NO2/c1-4-2-5(4,6)3(7)8-4/h2,6H2,1H3	InChI=1S/C5H7NO2/c1-4-2-5(4,6)3(7)8-4/h2,6H2,1H3/t4-,5+/m1/s1
