19
gdb 36314	4.12238	1.05184	0.91711	0.8533	86.1	-0.2297	0.017	0.2467	1289.7226	0.159658	-348.716644	-348.708509	-348.707564	-348.749431	32.115	
C	-0.0065933619	-1.2692570734	 0.0083469958	-0.448891
C	-0.0412608144	-0.0682432208	 0.0542721326	 0.301085
C	-0.0462157997	 1.3885711131	 0.112722858	-0.357729
C	 1.3683956782	 2.0062606172	-0.0320277444	-0.039523
C	 2.0353451864	 1.7396582283	-1.3692367577	-0.086133
C	 2.508359778	 2.8550607394	-1.9291938642	-0.082101
C	 2.1798533833	 4.064490311	-1.1179670064	-0.078804
C	 0.6967178965	 4.3544404085	-0.9921139735	-0.281263
C	 1.3924306666	 3.5349233227	 0.0682502059	-0.063916
H	 0.0084974896	-2.3300457958	-0.0328610362	 0.193298
H	-0.6996761818	 1.7867387471	-0.6724647294	 0.129544
H	-0.4787238828	 1.71288793	 1.0675642148	 0.128791
H	 1.9810699962	 1.5785674781	 0.7741360135	 0.091638
H	 2.085693968	 0.7436418213	-1.7929433615	 0.105778
H	 3.0332219315	 2.9087646455	-2.8765582441	 0.094789
H	 2.887652478	 4.8813202125	-1.0307686518	 0.086282
H	 0.4018383543	 5.3596928892	-0.7087309767	 0.10944
H	 0.0298587137	 3.8697642035	-1.6974925403	 0.11271
H	 1.5025826105	 3.9816435825	 1.0494633056	 0.085003
74.7152	117.424	175.7614	247.4221	348.3354	372.4232	428.5981	454.7434	584.7773	617.8606	637.9518	686.195	753.256	781.957	787.4639	810.9218	860.5592	914.5394	941.0918	964.1361	973.0943	1005.7454	1022.5526	1059.7542	1075.5455	1078.7313	1093.2615	1106.4777	1142.388	1198.8791	1204.8804	1276.4383	1305.2325	1327.0931	1349.7977	1372.4257	1390.3082	1469.9274	1479.9222	1668.3973	2235.824	3001.0164	3026.5026	3063.8923	3125.921	3166.5872	3176.1794	3188.4268	3214.0891	3215.3587	3506.8863
C#CCC1C=CC2CC12	C#CC[C@H]1C=C[C@H]2C[C@@H]12	
InChI=1S/C9H10/c1-2-3-7-4-5-8-6-9(7)8/h1,4-5,7-9H,3,6H2	InChI=1S/C9H10/c1-2-3-7-4-5-8-6-9(7)8/h1,4-5,7-9H,3,6H2/t7-,8-,9-/m0/s1
