29
gdb 121835	3.57619	0.62404	0.61334	0.0607	100.16	-0.2911	0.076	0.3671	2083.3237	0.272578	-354.77935	-354.76689	-354.765946	-354.817436	45.749	
C	-0.1556153917	 1.5269815157	-0.2232405335	-0.381433
C	-0.033627468	 0.0095344269	-0.0603338832	-0.156701
C	 0.7220375682	-0.4032405193	 1.2096178806	-0.190178
C	 0.8339095879	-1.9265616923	 1.3547577859	-0.183996
C	 1.5760606056	-2.4846692355	 2.5990979891	 0.262047
C	 3.0368163431	-1.9967357039	 2.6142266116	-0.409604
C	 0.8670309781	-2.0359831708	 3.8906440221	-0.409616
C	 1.5298839019	-4.0324070645	 2.4729068607	-0.171504
C	 2.1971707773	-4.8501648186	 3.5848572764	-0.405514
H	 0.8313658652	 2.0003133999	-0.2751665971	 0.112235
H	-0.6986708197	 1.7897712771	-1.1366376609	 0.109397
H	-0.6904918999	 1.9742887607	 0.6221579963	 0.112234
H	-1.0357084268	-0.4395620492	-0.047141708	 0.092764
H	 0.4742604185	-0.4137282207	-0.9372194708	 0.092764
H	 1.7203611542	 0.051617963	 1.1886939143	 0.093731
H	 0.2089477095	 0.0255864875	 2.0795822664	 0.093722
H	-0.1805526925	-2.3499135567	 1.3459971265	 0.084482
H	 1.329204713	-2.3236478247	 0.4572915038	 0.084479
H	 3.0941272415	-0.9066852203	 2.6871899995	 0.111418
H	 3.5865750529	-2.4039845896	 3.4680442534	 0.110179
H	 3.5640919477	-2.2988786971	 1.7018386632	 0.10443
H	-0.1778303601	-2.3674277092	 3.9037329723	 0.10443
H	 1.3578051633	-2.4434540592	 4.7795785716	 0.110194
H	 0.8727851559	-0.946792783	 3.9929073732	 0.11141
H	 0.4767210048	-4.3351045684	 2.4000601919	 0.087472
H	 1.9875877379	-4.3078033335	 1.5133519639	 0.087477
H	 2.0954431965	-5.9203002634	 3.3770695002	 0.111057
H	 3.2671791221	-4.6373513862	 3.6687463103	 0.116304
H	 1.7422021736	-4.6659788347	 4.5627664703	 0.116321
49.622	62.8717	84.7263	109.1968	140.7674	204.3819	234.3116	239.4129	257.0602	277.3781	291.0464	327.7011	335.853	371.7217	409.2566	464.5231	538.2361	728.4057	735.2023	777.4392	793.6	862.1147	901.3342	919.7186	943.0672	960.5699	996.111	1015.5474	1030.8798	1038.6681	1062.6057	1081.5069	1121.2829	1126.6201	1208.9479	1228.4299	1252.3665	1262.9235	1297.4609	1311.1656	1332.5543	1363.8073	1364.6922	1373.1928	1397.6904	1398.2764	1409.2514	1412.3469	1423.2005	1471.5814	1483.2828	1483.7072	1486.7936	1491.2788	1498.7209	1498.8205	1505.4709	1508.6585	1511.5489	1512.4087	1518.4384	2995.5362	3007.8224	3011.6116	3022.8464	3026.5649	3027.5511	3028.4351	3033.5249	3037.3034	3039.4996	3041.9025	3067.091	3094.2351	3095.2105	3096.3817	3099.1692	3101.0602	3101.8715	3108.8859	3111.5925
CCCCC(C)(C)CC	CCCCC(C)(C)CC	
InChI=1S/C9H20/c1-5-7-8-9(3,4)6-2/h5-8H2,1-4H3	InChI=1S/C9H20/c1-5-7-8-9(3,4)6-2/h5-8H2,1-4H3
