19
gdb 93205	2.69847	1.31225	0.92583	3.1698	79.47	-0.2397	-0.0481	0.1916	1256.6762	0.158887	-423.069293	-423.060314	-423.05937	-423.102949	33.675	
C	 0.0364830657	 1.5261082091	-0.0640932202	-0.476983
C	-0.019776007	 0.0247774506	-0.0280810969	 0.2119
C	-1.1597407203	-0.6806892428	-0.085023448	-0.178933
C	-1.2513654397	-2.1875796069	-0.075757856	 0.090113
O	-2.276035337	-2.6532063635	-0.9470370036	-0.431569
C	 0.0591870649	-2.8184516726	-0.5366041097	-0.224054
C	 1.24182658	-2.200359307	 0.2139390303	-0.330552
C	 1.2877380953	-0.6832721162	 0.0870459027	 0.334015
O	 2.3357483442	-0.0684874852	 0.1095601202	-0.322174
H	 0.6446031958	 1.8676217079	-0.9077715572	 0.144074
H	-0.962905806	 1.9598504174	-0.1489792791	 0.113063
H	 0.519605969	 1.9195079872	 0.8362602727	 0.139715
H	-2.1120743664	-0.1526566588	-0.1418023638	 0.08879
H	-1.461260325	-2.5187459771	 0.9583853666	 0.07994
H	-3.1250132109	-2.3532637338	-0.606781009	 0.283879
H	 0.0212877475	-3.9020630144	-0.3929998526	 0.10917
H	 0.1545645506	-2.635968998	-1.6131091244	 0.119532
H	 1.1632706672	-2.4322539539	 1.2864188672	 0.123584
H	 2.2018593821	-2.597760292	-0.123984399	 0.126491
71.1312	138.3803	177.0936	200.3691	250.3696	279.6124	336.4065	357.0082	398.8613	429.2526	537.5329	567.2306	589.2081	707.02	730.07	820.2659	901.1656	906.242	973.4386	1025.0946	1044.1236	1066.5948	1076.0443	1105.1394	1128.7646	1153.0214	1195.3354	1262.0526	1275.7841	1338.632	1345.7903	1359.1942	1378.7968	1412.893	1428.8286	1463.1774	1469.9802	1484.1998	1497.686	1702.1158	1772.8572	2922.5515	3011.2301	3041.1807	3047.5408	3095.1524	3098.5026	3104.1959	3122.2664	3125.9342	3817.9486
CC1=CC(O)CCC1=O	CC1=C[C@@H](O)CCC1=O	
InChI=1S/C7H10O2/c1-5-4-6(8)2-3-7(5)9/h4,6,8H,2-3H2,1H3	InChI=1S/C7H10O2/c1-5-4-6(8)2-3-7(5)9/h4,6,8H,2-3H2,1H3/t6-/m0/s1
