17
gdb 83103	2.57848	1.78624	1.28507	0.7681	74.07	-0.2368	-0.0044	0.2324	994.4135	0.139148	-414.173357	-414.165663	-414.164718	-414.205908	29.116	
N	-0.1187527927	 1.5912181248	-0.267318238	-0.506655
C	 0.0095779342	 0.1579828472	-0.0900482977	-0.080226
C	-1.3143421586	-0.6744524313	-0.0775560596	 0.001752
C	-2.6461899778	-0.0967023013	-0.6082240482	-0.20076
N	-2.8054617924	-0.6329304376	-1.977707353	-0.207233
C	-1.780645359	-1.3312574512	-2.2496733764	 0.015012
N	-0.8014409951	-1.4853220263	-1.2323390243	-0.139687
C	 0.4151979545	-0.7081350335	-1.2971141273	 0.333862
N	 1.4070406836	-0.6829315521	-2.0683834463	-0.520129
H	 0.8016064281	 2.0187112544	-0.2297415774	 0.247068
H	-0.4845231187	 1.8036210246	-1.1916238234	 0.238889
H	 0.6321772849	-0.0253098385	 0.7900356979	 0.10682
H	-1.4464034613	-1.2744486173	 0.8241222187	 0.095661
H	-3.4938690584	-0.4113430802	 0.00665428	 0.124711
H	-2.6654202171	 0.9982505051	-0.6399070297	 0.129664
H	-1.6192808422	-1.8076282487	-3.2115938413	 0.134803
H	 1.342802438	-1.3846188981	-2.8083898541	 0.226448
59.2068	154.9574	225.0046	228.5831	235.5061	372.2137	484.9461	547.6226	625.6851	653.1912	727.7338	783.2056	829.8578	850.4993	887.2027	917.8994	935.1575	947.0886	966.9682	1013.4056	1026.3208	1073.9175	1128.0492	1164.3794	1185.9667	1220.2808	1237.8388	1244.6289	1274.4604	1307.4716	1332.9201	1357.8849	1417.5017	1497.8868	1666.8258	1681.9417	1792.1645	3050.0595	3073.1741	3083.1665	3099.2731	3193.7297	3459.7046	3493.9864	3569.6524
NC1C2CN=CN2C1=N	N[C@H]1[C@H]2CN=CN2[C]1[NH]	
InChI=1S/C5H8N4/c6-4-3-1-8-2-9(3)5(4)7/h2-4,7H,1,6H2	InChI=1S/C5H8N4/c6-4-3-1-8-2-9(3)5(4)7/h2-4,7H,1,6H2/t3-,4+/m1/s1
