21
gdb 104249	2.14542	1.29188	1.09724	4.553	82.82	-0.2488	0.0156	0.2644	1252.0834	0.182329	-383.268937	-383.259248	-383.258304	-383.303233	36.083	
C	 0.0103334586	 1.5776211975	 0.1334476995	-0.404373
C	-0.1075114023	 0.0692484037	-0.1116538406	-0.217867
C	 0.6837010737	-0.4449566564	-1.3243802903	 0.311137
C	 0.2559638412	 0.1966176752	-2.6377628191	-0.471782
C	 2.2172923985	-0.5224015452	-1.0468314342	-0.207227
N	 2.0566431548	-1.9383062008	-0.6440919097	-0.305501
C	 0.7656218723	-2.0203274845	-1.3533437766	-0.173681
C	-0.2755639605	-2.80544259	-0.6883893397	 0.304525
N	-1.1143934171	-3.419094195	-0.1822212184	-0.337524
H	 1.0549412891	 1.8924836096	 0.2332594173	 0.117308
H	-0.4389946046	 2.1622603654	-0.6746808748	 0.119974
H	-0.5034259568	 1.8514455115	 1.0595083455	 0.122835
H	 0.2372055123	-0.4710396388	 0.7768524425	 0.123914
H	-1.1633293266	-0.1982802126	-0.2417059179	 0.112696
H	 0.4548331786	 1.2725539812	-2.6359548613	 0.1281
H	 0.7950590722	-0.2355029047	-3.4868499067	 0.113811
H	-0.816977368	 0.0569954855	-2.8121294419	 0.127487
H	 2.8110945768	-0.3717342956	-1.9591516404	 0.093152
H	 2.6154033353	 0.1211304573	-0.2561368168	 0.110873
H	 2.7679357163	-2.584470139	-0.9671566251	 0.228345
H	 0.8393108266	-2.3768654841	-2.3912647013	 0.103799
95.8473	112.8249	126.0561	192.8637	212.6458	237.4521	276.1982	325.9616	351.9815	379.7741	427.2817	545.2562	572.554	625.2307	697.7966	789.3604	839.2141	879.0785	928.4898	982.209	997.3589	1017.1334	1029.8703	1041.7039	1068.1655	1074.8797	1148.0348	1165.7989	1196.2171	1232.5954	1277.297	1309.9991	1355.4713	1361.9299	1374.3326	1390.3986	1411.8404	1418.2161	1481.5804	1493.9235	1498.0856	1504.3138	1512.8788	1521.9202	2352.6389	2990.2449	3002.8334	3030.1803	3034.095	3038.0954	3071.7324	3073.2477	3097.9231	3103.6755	3106.1722	3114.8502	3535.3016
CCC1(C)CNC1C#N	CC[C@@]1(C)CN[C@H]1C#N	
InChI=1S/C7H12N2/c1-3-7(2)5-9-6(7)4-8/h6,9H,3,5H2,1-2H3	InChI=1S/C7H12N2/c1-3-7(2)5-9-6(7)4-8/h6,9H,3,5H2,1-2H3/t6-,7-/m0/s1
