17
gdb 31671	3.90648	0.94894	0.81263	6.8966	79.77	-0.2374	-0.0324	0.2051	1411.8616	0.136611	-418.069	-418.060359	-418.059414	-418.103877	30.871	
C	 0.1971156657	 1.366360179	-0.4878241144	-0.374847
C	-0.0223844221	 0.0469328911	 0.2744396611	-0.294197
C	-1.4350280388	-0.4393729974	 0.2127268509	 0.349141
N	-2.3503064126	-0.2802301033	 1.1343916449	-0.324027
C	-3.5040385509	-0.8518356111	 0.6301523207	 0.169523
C	-4.784628014	-0.9051043971	 1.3337349062	 0.077836
O	-5.0108492965	-0.4632471087	 2.4352912041	-0.27099
C	-3.2666052065	-1.3653750149	-0.6276313635	-0.149744
N	-1.9520610686	-1.0981446522	-0.8844434541	-0.280887
H	 1.2372615736	 1.6928013191	-0.3988667892	 0.122901
H	-0.0308540211	 1.2583972582	-1.5535299184	 0.110337
H	-0.4463722323	 2.1531562335	-0.0850267338	 0.143227
H	 0.6539441634	-0.7242352612	-0.1151832126	 0.105388
H	 0.2202560746	 0.1835704622	 1.3309654059	 0.14513
H	-5.5820737305	-1.4133840849	 0.7412954001	 0.054375
H	-3.899573571	-1.8841781698	-1.3292501797	 0.146997
H	-1.4497313824	-1.3473395224	-1.7210577782	 0.269836
18.4785	123.8239	147.4655	160.5088	226.3678	278.5953	365.756	411.2351	497.1858	567.2226	643.6763	675.1639	752.2328	772.7371	776.905	807.2056	959.3273	996.5252	1003.0107	1029.6827	1075.9268	1095.4275	1115.3724	1216.49	1280.5959	1333.1139	1351.2077	1379.9728	1409.9168	1412.4617	1451.8127	1477.5075	1497.8043	1505.2459	1564.4137	1597.856	1807.2059	2846.6009	3032.9107	3039.3101	3097.8029	3116.0183	3125.5114	3269.9175	3651.5808
CCC1=NC(C=O)=CN1	CCc1nc(C=O)c[nH]1	
InChI=1S/C6H8N2O/c1-2-6-7-3-5(4-9)8-6/h3-4H,2H2,1H3,(H,7,8)	InChI=1S/C6H8N2O/c1-2-6-7-3-5(4-9)8-6/h3-4H,2H2,1H3,(H,7,8)
