27
gdb 122136	2.91221	0.61656	0.53857	1.4945	93.72	-0.2627	0.0764	0.3392	2185.9654	0.249951	-390.70048	-390.688234	-390.68729	-390.739266	43.409	
C	 0.7526848078	 2.4556642953	-0.8107144381	-0.380215
C	 0.4486960551	 0.9652775643	-0.6359970689	-0.161682
C	 1.0944206677	 0.0879041425	-1.7144112458	-0.166616
C	 0.7768818254	-1.4032961997	-1.5516389146	-0.202697
C	 1.4417734173	-2.3173892951	-2.6030827433	 0.034974
C	 2.9495989423	-2.5036722594	-2.3194375831	-0.165632
C	 3.8078724224	-2.8705245443	-3.5356879524	-0.384677
C	 0.6836787178	-3.646802517	-2.6529328495	-0.084419
O	 1.1988875102	-4.4661650569	-3.694011479	-0.418876
H	 1.8309244319	 2.6471082122	-0.7710342839	 0.113305
H	 0.3890632397	 2.8231137025	-1.7769133072	 0.112974
H	 0.2794849471	 3.0559805992	-0.0272406754	 0.109777
H	 0.7928575523	 0.6342840461	 0.3529421544	 0.093329
H	-0.6384013846	 0.8092834571	-0.6446230976	 0.092553
H	 0.7536017442	 0.4212529216	-2.704614731	 0.091954
H	 2.1803278079	 0.2481857177	-1.7005890604	 0.097636
H	 1.0768685332	-1.733998702	-0.5468482101	 0.090593
H	-0.3136830026	-1.5287133267	-1.5965483937	 0.084994
H	 1.3272451176	-1.8454077186	-3.5897144028	 0.074158
H	 3.3428216783	-1.5773376799	-1.8840680585	 0.090019
H	 3.0650204196	-3.2698968897	-1.5400271858	 0.087719
H	 3.7413329628	-2.0943287937	-4.3068459399	 0.105371
H	 4.8618986163	-2.9637822041	-3.2526407259	 0.098532
H	 3.4801046925	-3.8111776996	-3.9796678465	 0.140433
H	 0.7748311892	-4.1495817072	-1.6747946799	 0.081008
H	-0.3872156868	-3.4450643407	-2.8164366178	 0.080537
H	 0.7375525252	-5.3092343139	-3.6676993235	 0.28495
42.2498	58.5861	73.4137	90.0547	145.4209	152.9538	222.5538	229.3944	248.8525	255.1851	297.5894	301.1185	334.4979	411.6441	469.8897	559.3866	730.8987	763.5891	783.3075	829.6616	901.3083	926.1574	975.1588	982.2054	1010.1158	1038.0212	1055.9425	1065.9895	1074.5253	1084.4435	1130.7517	1169.1612	1187.7348	1230.4838	1247.9849	1262.7768	1285.9289	1307.4696	1315.7768	1330.1256	1333.6695	1357.9422	1382.925	1393.5274	1401.8465	1409.6328	1414.1575	1459.9311	1481.8365	1485.9865	1488.5998	1495.7672	1499.929	1500.7333	1512.5581	1515.5708	1520.2234	2951.5144	2979.4799	2999.2789	3003.3824	3007.8164	3014.8623	3017.5172	3027.6277	3028.9498	3032.3519	3038.2111	3052.3921	3062.1407	3089.444	3094.8488	3100.079	3147.6777	3831.0398
CCCCC(CC)CO	CCCC[C@@H](CC)CO	
InChI=1S/C8H18O/c1-3-5-6-8(4-2)7-9/h8-9H,3-7H2,1-2H3	InChI=1S/C8H18O/c1-3-5-6-8(4-2)7-9/h8-9H,3-7H2,1-2H3/t8-/m1/s1
