15
gdb 47191	2.5323	1.6487	1.14915	2.8293	69.15	-0.2601	-0.0696	0.1905	1034.2691	0.112571	-457.805863	-457.798197	-457.797253	-457.838717	28.227	
O	 0.3080189172	 0.2584869321	-0.8748555692	-0.298733
C	-0.0019075944	 1.2254616465	-0.2435435051	 0.37975
C	-1.3789402982	 1.7662755703	-0.0082675061	-0.396606
C	-1.5980126215	 3.0989406304	-0.7601240559	 0.357954
O	-2.7248338314	 3.5428151135	-0.8143375515	-0.308666
C	-0.5102003829	 3.8314990984	-1.4719520185	-0.135944
C	 0.8262748268	 3.7122369518	-1.4589751671	-0.048967
C	 1.6816113647	 2.7829772372	-0.6537458455	-0.151952
O	 0.9199703419	 2.0861171062	 0.3212093751	-0.243558
H	-2.1505798175	 1.0652135174	-0.3293990758	 0.155409
H	-1.5150231325	 1.9805605781	 1.0567630781	 0.163203
H	-0.9413726587	 4.6064818258	-2.1001547227	 0.120147
H	 1.3927433829	 4.3774019333	-2.1097484249	 0.119817
H	 2.2044265027	 2.0773807312	-1.3162746389	 0.147215
H	 2.445258301	 3.3486686979	-0.109639052	 0.14093
57.2408	102.3091	193.4509	286.3583	337.0906	396.3285	431.198	477.3172	564.7274	633.0253	683.0233	740.5246	783.7134	816.7204	874.3206	911.4386	965.5997	1021.6618	1055.2241	1082.1323	1133.2888	1165.4994	1220.839	1268.2738	1278.8508	1298.8007	1395.0499	1410.0531	1437.7119	1471.6975	1688.9152	1761.9696	1864.4888	3009.0977	3067.3935	3076.2041	3138.4622	3139.2737	3173.8127
O=C1CC(=O)C=CCO1	O=C1CC(=O)C=CCO1	
InChI=1S/C6H6O3/c7-5-2-1-3-9-6(8)4-5/h1-2H,3-4H2	InChI=1S/C6H6O3/c7-5-2-1-3-9-6(8)4-5/h1-2H,3-4H2
