16
gdb 28806	3.34985	1.30836	0.96311	4.0061	86.62	-0.2351	-0.0805	0.1547	1185.4693	0.12489	-400.787861	-400.779926	-400.778982	-400.820839	29.46	
C	 0.0223262387	 1.5323406444	-0.0683890882	-0.446247
C	-0.061620363	 0.0330954581	 0.055908537	 0.287109
C	-1.2691694532	-0.6015550961	-0.0394615047	-0.115143
C	-1.5435078034	-2.0012225635	-0.0361153221	-0.059668
C	-0.6831036773	-3.0506219372	-0.0946067575	-0.184054
C	 0.7737693729	-3.0145025492	-0.1300289563	 0.309779
O	 1.4442600505	-3.9996728098	-0.4095175403	-0.350886
C	 1.4894978582	-1.7775094741	 0.3080418387	-0.052123
N	 1.1559869235	-0.5384854585	 0.3466872039	-0.273616
H	 0.7242797538	 1.7995725141	-0.8661472727	 0.14429
H	-0.9474153012	 1.9822414164	-0.290151614	 0.122138
H	 0.4194715038	 1.9676298369	 0.8544303209	 0.146357
H	-2.1406705292	 0.0407322668	-0.1302695125	 0.102965
H	-2.6021538522	-2.2522127472	-0.0375146657	 0.114166
H	-1.0895940637	-4.0575090254	-0.1358603253	 0.121306
H	 2.510996182	-2.0122034657	 0.6206633687	 0.133627
49.6608	137.5144	177.0777	312.8853	321.8701	346.0471	390.4668	410.9987	501.0102	596.8917	671.4137	694.3962	714.2965	830.0571	873.4642	897.4474	918.2694	976.6861	997.2645	1037.4706	1064.7206	1094.0148	1201.7221	1240.1465	1300.2337	1359.4757	1410.8768	1419.3688	1451.1146	1469.6569	1487.5741	1572.3369	1648.3202	1668.1147	1720.8725	3038.4666	3094.935	3096.1818	3133.132	3146.5709	3168.2799	3179.1875
CC1=CC=CC(=O)C=N1	Cc1cccc(=O)cn1	
InChI=1S/C7H7NO/c1-6-3-2-4-7(9)5-8-6/h2-5H,1H3	InChI=1S/C7H7NO/c1-6-3-2-4-7(9)5-8-6/h2-5H,1H3
