17
gdb 28475	3.07512	1.40296	0.97502	2.6691	78.41	-0.2402	-0.0309	0.2092	1183.6637	0.13698	-418.093104	-418.08482	-418.083876	-418.125866	31.047	
C	-0.0199925351	 1.5146066252	-0.0428509018	-0.50563
C	 0.0166604534	 0.0112426314	 0.0013767644	 0.213892
C	 0.0342140213	-0.7560019344	-1.1567194941	-0.052086
N	 0.066590969	-2.0901853957	-1.1638878899	-0.358432
C	 0.0816363081	-2.660891357	 0.0398516725	 0.438324
O	 0.113585867	-4.0026172188	 0.0794323769	-0.393798
N	 0.0678015561	-2.0526058609	 1.2225020278	-0.337197
C	 0.0353849883	-0.7178081816	 1.2056306731	 0.254834
C	 0.0196453327	-0.0272245662	 2.5413990611	-0.485559
H	 0.849587684	 1.9596846363	 0.4547690533	 0.133451
H	-0.0289769613	 1.8720310738	-1.0763596142	 0.127117
H	-0.9100076023	 1.9167487585	 0.4552097077	 0.133453
H	 0.0216670467	-0.2728743852	-2.132576183	 0.109446
H	 0.1197091024	-4.295216013	-0.8420528233	 0.303264
H	 0.881886854	 0.6409527195	 2.6495219053	 0.135366
H	-0.8763440702	 0.5945046675	 2.6525072373	 0.135449
H	 0.040458496	-0.7693529594	 3.3395577369	 0.148106
118.933	131.1969	166.6268	219.2997	284.9482	334.3086	336.4092	463.9479	497.6073	526.7269	566.2464	578.4843	655.9796	764.5754	776.4069	827.1445	967.0508	972.0892	1022.5967	1039.7434	1047.9568	1078.18	1182.8754	1213.848	1289.0206	1309.4236	1378.3481	1399.2164	1424.2341	1450.5682	1477.654	1478.1358	1491.837	1494.6354	1506.8946	1601.8259	1647.6296	3025.699	3033.3445	3075.3164	3084.3679	3108.9624	3141.7535	3153.1849	3782.2343
CC1=CN=C(O)N=C1C	Cc1cnc(O)nc1C	
InChI=1S/C6H8N2O/c1-4-3-7-6(9)8-5(4)2/h3H,1-2H3,(H,7,8,9)	InChI=1S/C6H8N2O/c1-4-3-7-6(9)8-5(4)2/h3H,1-2H3,(H,7,8,9)
