21
gdb 88995	3.8088	0.86476	0.82097	2.1013	79.29	-0.2442	0.0743	0.3186	1493.2374	0.181253	-424.176506	-424.16713	-424.166185	-424.211942	33.989	
C	 0.2204947854	 1.509006219	-0.1354607746	-0.397023
C	 0.1571691455	 0.0016426475	-0.0217983735	-0.032327
C	 1.4211032625	-0.8023530664	 0.2283667411	-0.325572
C	 0.3592866111	-0.6787228452	 1.2975020573	 0.117042
O	 0.5768144324	 0.1369974154	 2.4111669073	-0.251285
C	 1.2552791687	-0.4969567761	 3.4624643156	 0.098969
C	 2.803448058	-0.4557975446	 3.4925789649	-0.093628
O	 2.7835945955	 0.1437517068	 4.8051325824	-0.273649
C	 1.3573985512	 0.3551418412	 4.7357736347	-0.103379
H	 0.9326285361	 1.9255603566	 0.5803330109	 0.127569
H	 0.5262065827	 1.8110400978	-1.1426609357	 0.11478
H	-0.7560029205	 1.9605155406	 0.0697543423	 0.119118
H	-0.5782984086	-0.4693248106	-0.6688782654	 0.087276
H	 1.5554213485	-1.7564967641	-0.2699303399	 0.110862
H	 2.3337496456	-0.2349317014	 0.376013688	 0.11833
H	-0.2410196435	-1.562250913	 1.5196472473	 0.085992
H	 0.850159573	-1.5026746133	 3.6343173714	 0.078664
H	 3.3415713776	-1.409959677	 3.4833805611	 0.103236
H	 3.2288338351	 0.2174752689	 2.7368843643	 0.099866
H	 1.0972990615	 1.4061388206	 4.5539569633	 0.109371
H	 0.8402020422	-0.0038371529	 5.6318094073	 0.105789
42.7253	74.0107	90.3025	138.8088	189.9515	256.4013	294.0488	369.1234	408.7291	494.2144	540.3316	734.4476	758.0638	831.5468	871.1585	878.9708	889.9818	925.2786	977.261	1009.6403	1024.1335	1026.4399	1048.5182	1069.5291	1111.8466	1118.328	1148.486	1153.2141	1160.782	1188.9031	1192.5186	1205.1813	1253.6645	1276.5633	1300.3627	1343.8087	1372.6369	1399.7726	1418.0538	1433.2224	1484.0566	1494.3809	1498.7731	1504.3827	1527.6716	3009.464	3016.1168	3021.9061	3036.8204	3070.7231	3076.4291	3086.8654	3094.964	3122.366	3131.4738	3143.564	3219.913
CC1CC1OC1COC1	C[C@H]1C[C@H]1OC1COC1	
InChI=1S/C7H12O2/c1-5-2-7(5)9-6-3-8-4-6/h5-7H,2-4H2,1H3	InChI=1S/C7H12O2/c1-5-2-7(5)9-6-3-8-4-6/h5-7H,2-4H2,1H3/t5-,7+/m0/s1
