17
gdb 34025	3.2112	1.35824	1.17046	1.041	74.63	-0.2467	0.0396	0.2863	1075.7804	0.136174	-421.771959	-421.764156	-421.763212	-421.804087	30.511	
C	 0.0068665899	-1.1602072373	 0.0273135622	-0.407127
C	 0.0086665037	 0.0428059387	 0.0020611644	 0.233823
C	-0.0139636342	 1.4765748897	-0.0135412597	 0.063736
C	 0.4734278038	 2.2006183473	-1.2656058435	-0.329531
C	 1.3185048568	 2.2290861268	-0.027773379	 0.07375
O	 1.4317730885	 3.4372847679	 0.6683587298	-0.247238
C	 0.4202064925	 3.6379585973	 1.6265284913	 0.009314
O	-0.8612226975	 3.4834282002	 1.0819843169	-0.234857
C	-1.1303535436	 2.1157611439	 0.8136186512	-0.172636
H	 0.0100779704	-2.2218299512	 0.0441388981	 0.192701
H	 0.789680827	 1.5918450788	-2.1039654851	 0.125266
H	-0.0334091849	 3.1271090808	-1.5111065702	 0.135956
H	 2.2302608622	 1.6402651435	 0.0011474614	 0.113975
H	 0.5519108857	 2.9425081543	 2.4746713787	 0.086734
H	 0.5158741592	 4.6721046527	 1.9612425143	 0.122921
H	-2.0851919827	 2.0810494832	 0.2824738654	 0.125862
H	-1.2353970669	 1.5588558336	 1.7569232737	 0.107353
122.7744	142.019	173.5823	277.5106	393.1375	412.572	442.9876	501.03	512.5238	546.1308	590.6728	625.5401	653.3653	750.822	821.7168	881.213	927.4607	974.9355	1004.4525	1026.328	1055.7717	1058.9319	1096.2883	1112.5343	1184.3841	1201.5071	1249.6412	1278.0213	1286.2059	1328.4261	1367.6979	1415.4043	1447.0912	1465.0097	1498.4616	1515.6398	2233.79	2945.4971	2994.7693	3092.6909	3121.4111	3142.1979	3156.5885	3241.6291	3503.0341
C#CC12CC1OCOC2	C#C[C@]12C[C@H]1OCOC2	
InChI=1S/C7H8O2/c1-2-7-3-6(7)9-5-8-4-7/h1,6H,3-5H2	InChI=1S/C7H8O2/c1-2-7-3-6(7)9-5-8-4-7/h1,6H,3-5H2/t6-,7-/m1/s1
