14
gdb 11181	3.74517	1.56912	1.42586	3.168	61.28	-0.2619	-0.0373	0.2246	887.4442	0.108363	-378.749899	-378.742818	-378.741873	-378.781693	25.807	
O	 0.0026720063	 0.0213074561	-0.2019419443	-0.292301
C	-0.0230949983	 1.207407598	-0.026094228	 0.419832
C	-1.2728379013	 2.0676821441	 0.1804592545	-0.280902
N	-0.7331438773	 3.3517756808	 0.6283042584	-0.296834
C	 0.5658053702	 3.5506296892	-0.031795701	-0.142952
C	 1.1912518612	 2.143931181	 0.0260601481	-0.321521
C	 0.4394240993	 4.0320852483	-1.4263977006	 0.258453
N	 0.2887548365	 4.422807394	-2.504277719	-0.315533
H	-1.8163164642	 2.105276992	-0.7787174114	 0.138366
H	-1.9354851704	 1.6218531099	 0.9271723686	 0.144161
H	-1.364655531	 4.127993369	 0.4729574129	 0.244031
H	 1.15427062	 4.288294636	 0.5213727376	 0.135902
H	 1.693622219	 2.0016609879	 0.9882799263	 0.152765
H	 1.90142843	 1.9259185337	-0.7716551121	 0.156534
70.3384	128.0371	198.4388	284.844	444.0268	452.9611	487.5398	541.3189	619.7343	697.896	746.5562	809.3559	824.5068	890.7018	960.6046	1011.8776	1056.2938	1113.9664	1157.7876	1178.1323	1209.1646	1218.1142	1281.8505	1336.8416	1352.8829	1441.7928	1447.0035	1482.1336	1869.2202	2343.8032	2971.7154	3065.5667	3074.4104	3090.2791	3144.4029	3561.7272
O=C1CNC(C1)C#N	O=C1CN[C@@H](C1)C#N	
InChI=1S/C5H6N2O/c6-2-4-1-5(8)3-7-4/h4,7H,1,3H2	InChI=1S/C5H6N2O/c6-2-4-1-5(8)3-7-4/h4,7H,1,3H2/t4-/m0/s1
