20
gdb 121335	3.32939	0.94634	0.77257	4.1337	75.69	-0.2393	0.0313	0.2706	1469.1449	0.172301	-440.331325	-440.322025	-440.32108	-440.366033	33.884	
O	 0.1272077117	 1.4512542102	 0.3458007502	-0.421683
C	 0.0909921009	 0.0414465017	 0.1675599703	-0.080784
C	-1.3405369586	-0.4808629762	 0.0043392324	-0.209516
C	-1.4266020284	-2.00545839	-0.1259853119	-0.109878
C	-2.842196954	-2.5991106373	 0.0013986612	-0.233925
C	-2.7892464488	-3.8936536991	-0.8366934963	-0.172381
N	-1.7768284436	-3.5701534956	-1.8271187192	-0.303739
C	-0.9422009421	-2.5431486558	-1.4840137075	 0.416018
O	 0.0013658593	-2.1491810679	-2.1396362068	-0.386819
H	-0.0668239309	 1.8555315285	-0.5053716179	 0.281297
H	 0.7026366201	-0.2820968633	-0.6822448777	 0.129396
H	 0.5340933518	-0.3837205009	 1.076343416	 0.10076
H	-1.9288740639	-0.1541142042	 0.8702626084	 0.101367
H	-1.7976183191	-0.0167979459	-0.8804423391	 0.092176
H	-0.771471615	-2.4656154253	 0.6293253613	 0.09919
H	-3.1436376355	-2.7838270963	 1.0345041472	 0.110408
H	-3.5676423795	-1.907780029	-0.4412125166	 0.114205
H	-2.4963831294	-4.7588862112	-0.2241838842	 0.107725
H	-3.7487495317	-4.128568721	-1.3077612025	 0.115323
H	-1.5657060132	-4.1508282016	-2.6231079771	 0.25086
72.5389	85.5378	118.393	163.2541	194.2455	270.08	287.3741	331.9038	405.8047	491.8683	531.4153	612.598	692.537	713.4041	762.3396	817.4599	894.1184	943.4997	966.8411	1013.8921	1061.5295	1068.5818	1074.1153	1108.7939	1126.5019	1170.0393	1199.2462	1223.9238	1259.6608	1276.6111	1302.8679	1330.1878	1337.0306	1353.0237	1379.7425	1404.4493	1417.9836	1447.4432	1484.3674	1495.5395	1519.3074	1534.4799	1814.0061	2995.5309	2995.9837	3014.2631	3032.0623	3049.6874	3054.1465	3070.7997	3085.1822	3111.9016	3641.3784	3822.0058
OCCC1CCNC1=O	OCC[C@H]1CCNC1=O	
InChI=1S/C6H11NO2/c8-4-2-5-1-3-7-6(5)9/h5,8H,1-4H2,(H,7,9)	InChI=1S/C6H11NO2/c8-4-2-5-1-3-7-6(5)9/h5,8H,1-4H2,(H,7,9)/t5-/m1/s1
