18
gdb 126971	3.16868	1.05332	0.8014	3.7387	76.13	-0.2083	0.0167	0.2249	1417.7045	0.148418	-435.252651	-435.243531	-435.242587	-435.287038	33.259	
C	-0.0537699147	 1.5151445286	-0.0130055605	-0.401164
C	 0.0847217818	-0.0026023269	 0.0038189958	-0.106155
N	 0.635919392	-0.4823559022	-1.2610174528	-0.40421
C	 0.776832893	-1.8391421247	-1.4488628246	 0.451004
N	 0.2373914824	-2.7440411166	-0.6610119443	-0.244934
O	 0.5811137443	-3.979190831	-1.2269112789	-0.192775
C	 1.3083921206	-3.7619497062	-2.3408660535	 0.01925
C	 1.4803815429	-2.4335228762	-2.5499442902	 0.023192
N	 2.2059080908	-1.6985862643	-3.5066199209	-0.622081
H	 0.9207033141	 2.0022727639	-0.137868619	 0.113792
H	-0.7027695231	 1.8401674245	-0.8315471191	 0.126676
H	-0.4804209131	 1.8693600884	 0.9293918633	 0.124533
H	 0.7005100042	-0.3252690021	 0.8572974391	 0.106955
H	-0.8923006897	-0.4775042754	 0.1350710798	 0.135441
H	 1.4477127351	 0.0307960813	-1.5829474661	 0.239235
H	 1.6380682191	-4.6414677223	-2.8721190952	 0.134475
H	 2.6875025975	-2.2962852331	-4.1668785959	 0.246753
H	 1.6047134328	-1.0674133057	-4.0276703371	 0.250015
65.2805	93.6017	119.2336	197.227	248.8521	279.7411	283.3477	342.739	386.311	523.0642	571.8665	600.4606	667.265	736.2274	789.8126	801.0907	812.018	839.1943	913.6936	932.3555	961.2862	1079.5114	1137.8445	1145.5579	1150.7311	1172.4854	1261.3061	1291.8032	1313.2851	1375.9101	1413.3192	1437.7311	1492.2593	1498.121	1521.0033	1528.1276	1584.9532	1640.9659	1696.447	2990.1575	3032.8847	3076.5029	3103.5396	3121.5674	3259.3642	3501.3287	3555.5196	3601.0236
CCNC1=NOC=C1N	CCNc1nocc1N	
InChI=1S/C5H9N3O/c1-2-7-5-4(6)3-9-8-5/h3H,2,6H2,1H3,(H,7,8)	InChI=1S/C5H9N3O/c1-2-7-5-4(6)3-9-8-5/h3H,2,6H2,1H3,(H,7,8)
