16
gdb 30555	4.14999	0.93899	0.87428	3.2309	75.1	-0.2313	0.0007	0.2321	1358.985	0.124734	-434.087723	-434.079136	-434.078192	-434.12242	29.948	
C	-0.2209378697	 1.4690786631	-0.4080642862	-0.312301
N	-0.0408213374	 0.0415505876	-0.2625860713	-0.193561
C	-0.9413566044	-0.6067386675	 0.3398309901	 0.072982
N	-0.8986792553	-1.9821416172	 0.5121375412	-0.446862
C	 0.1863253242	-2.7640398851	 0.1534448133	 0.396858
C	 0.3793163687	-3.7362023253	-0.769743696	-0.153729
N	 1.673613009	-4.2260092953	-0.6656462043	-0.261348
C	 2.1920864039	-3.5288207826	 0.2935854931	 0.088543
O	 1.365149077	-2.6271436322	 0.8567730792	-0.155867
H	 0.6237979742	 1.9981129077	 0.0487216335	 0.126023
H	-0.2240829666	 1.7368720702	-1.4713328857	 0.126086
H	-1.1517550841	 1.8498832338	 0.0450734428	 0.092415
H	-1.8506808763	-0.162778037	 0.770945154	 0.083832
H	-1.5959583952	-2.3859892073	 1.1166912796	 0.259176
H	-0.3198591189	-4.1104210507	-1.5000362638	 0.127543
H	 3.195842511	-3.5793847721	 0.6864366705	 0.150208
29.2004	84.2788	122.952	203.1958	241.4816	269.893	332.9484	357.8438	471.5069	642.0148	661.3004	672.6723	811.2784	845.6937	877.8243	932.763	975.7618	983.2527	1047.1332	1127.1731	1137.1099	1142.6813	1150.2743	1177.147	1243.8849	1290.2062	1343.9862	1405.2177	1448.8611	1479.4927	1488.8967	1504.8666	1543.7277	1666.822	1775.4142	2961.5275	3011.1261	3052.8844	3071.3548	3268.4663	3272.2932	3625.5108
CN=CNC1=CN=CO1	CN=CNc1cnco1	
InChI=1S/C5H7N3O/c1-6-3-8-5-2-7-4-9-5/h2-4H,1H3,(H,6,8)	InChI=1S/C5H7N3O/c1-6-3-8-5-2-7-4-9-5/h2-4H,1H3,(H,6,8)
