18
gdb 115020	2.63411	1.45125	1.06056	0.3146	72.59	-0.2355	0.0141	0.2496	1140.417	0.148309	-439.079901	-439.071721	-439.070776	-439.113088	31.057	
O	 0.0630753612	 1.4551999688	-0.0608027746	-0.421798
C	 0.0348495272	 0.0726436208	 0.2235153757	-0.061322
C	-1.3621586123	-0.5104237732	 0.0391650461	-0.019641
O	-1.7613722462	-0.2466686756	-1.341912292	-0.251187
C	-1.949558475	-1.4686148394	-1.9058521127	 0.096383
N	-1.8169579555	-2.5104373582	-1.1978824237	-0.294941
C	-1.4796872396	-2.0398021731	 0.132214428	 0.336635
C	-0.6074640712	-2.9129804428	 0.9982068797	-0.318826
C	-2.0769559713	-2.7633044843	 1.3089050055	-0.309827
H	-0.3019890146	 1.5592224264	-0.9471790618	 0.29157
H	 0.7441779314	-0.4930322423	-0.4012819389	 0.097643
H	 0.3458994203	-0.0415265067	 1.2671182581	 0.11284
H	-2.072849661	 0.0208877146	 0.6803918927	 0.102961
H	-2.214033986	-1.4450885806	-2.9564927741	 0.143363
H	-0.2723426563	-3.8447675999	 0.5582390969	 0.131679
H	 0.1084633114	-2.4387334681	 1.6604038639	 0.119041
H	-2.3596973222	-2.1703895424	 2.1732464265	 0.115932
H	-2.7341844103	-3.5958543641	 1.0875141545	 0.129495
58.2316	120.0229	170.7733	275.7659	290.4619	301.0431	425.9095	447.8959	492.768	549.9944	605.116	774.0155	803.2785	837.2365	870.4176	913.0088	930.5806	947.2698	969.5037	1007.8818	1027.3341	1057.0266	1077.7236	1093.6015	1105.3641	1116.9792	1192.6394	1221.2159	1245.0827	1279.8859	1324.8414	1346.8886	1374.1691	1395.2324	1430.9614	1456.0695	1494.4143	1496.7368	1700.1637	2983.9815	3058.1701	3080.008	3131.1838	3140.3462	3220.6376	3223.2161	3234.9121	3799.9891
OCC1OC=NC11CC1	OC[C@H]1OC=NC21CC2	
InChI=1S/C6H9NO2/c8-3-5-6(1-2-6)7-4-9-5/h4-5,8H,1-3H2	InChI=1S/C6H9NO2/c8-3-5-6(1-2-6)7-4-9-5/h4-5,8H,1-3H2/t5-/m1/s1
