18
gdb 26195	4.06753	0.9669	0.92443	2.3374	74.84	-0.2349	0.0048	0.2397	1351.5829	0.146667	-439.127151	-439.117888	-439.116944	-439.161763	33.382	
C	-0.0047646853	 1.5367209145	 0.0688073181	-0.408336
C	-0.0246623929	 0.0039322991	 0.0330959512	 0.024145
O	 0.6588867189	-0.5571298094	 1.1477746697	-0.425507
C	-1.4221393073	-0.5337345191	-0.0654943038	 0.382963
N	-2.0072532711	-1.1222876948	-1.0568485642	-0.34925
C	-3.2976792832	-1.4040182946	-0.6012620663	 0.246713
C	-4.3027642647	-2.0923692801	-1.4604933455	-0.49177
C	-3.4045983236	-0.9570907063	 0.6721917672	-0.122576
O	-2.2092959987	-0.3895355489	 1.0332766642	-0.194383
H	 1.0272162676	 1.8858066608	 0.1560551044	 0.129341
H	-0.4462767066	 1.955038935	-0.8408579733	 0.129916
H	-0.5751907786	 1.9091085933	 0.9264490778	 0.120596
H	 0.5071846137	-0.3532455535	-0.8522744301	 0.123202
H	 0.1570109935	-0.33083594	 1.9390473344	 0.287549
H	-3.9384758953	-3.0764280807	-1.7733775082	 0.141732
H	-5.2483662673	-2.2277293467	-0.9293606052	 0.123802
H	-4.497690793	-1.5158175023	-2.3708242937	 0.139806
H	-4.1816832162	-0.9582182163	 1.416929913	 0.142057
39.1344	116.8286	139.8047	170.4422	252.6498	259.0456	278.8268	317.9825	372.6166	428.2488	512.1672	649.0448	657.0336	716.7011	747.6433	771.6755	903.818	958.5172	990.6484	1020.5929	1026.5901	1067.9155	1082.7741	1101.3266	1127.6095	1227.2832	1284.6936	1291.5658	1338.5113	1355.0715	1399.9121	1417.6428	1418.621	1475.0532	1489.8549	1490.4586	1493.7012	1620.2621	1644.3694	3037.8315	3039.0708	3091.1559	3095.7349	3114.8754	3122.3616	3127.0774	3291.7453	3802.8412
CC(O)C1=NC(C)=CO1	C[C@@H](O)c1nc(C)co1	
InChI=1S/C6H9NO2/c1-4-3-9-6(7-4)5(2)8/h3,5,8H,1-2H3	InChI=1S/C6H9NO2/c1-4-3-9-6(7-4)5(2)8/h3,5,8H,1-2H3/t5-/m1/s1
