20
gdb 117797	2.57628	1.01757	0.89014	3.9576	76.16	-0.2736	0.0327	0.3063	1407.6456	0.168113	-440.285032	-440.274209	-440.273265	-440.321132	37.847	
C	-0.0032640469	 1.373081472	-0.0639587132	-0.230674
O	 0.0099653953	-0.0345442057	 0.0203336454	-0.233753
C	-1.2743133157	-0.6008418202	 0.0036471138	-0.073501
C	-1.1427583935	-2.1334873721	 0.0528229325	 0.026193
C	-0.3476022428	-2.5880977631	 1.2924491748	-0.405803
C	-2.5653700127	-2.7656461591	 0.0567167011	-0.081668
O	-2.541309917	-4.1728880618	 0.0263645011	-0.417945
C	-0.4714519771	-2.6057605916	-1.1695601413	 0.277624
N	-0.0062656831	-3.0360585086	-2.1368333613	-0.350469
H	 1.0361295215	 1.7072397367	-0.0491566828	 0.13742
H	-0.4770803676	 1.7190598847	-0.9951438525	 0.11336
H	-0.5372292091	 1.8259544371	 0.785821516	 0.108232
H	-1.8632041421	-0.2700075008	 0.8769078259	 0.094168
H	-1.8242788948	-0.297612279	-0.9023860208	 0.101564
H	-0.8380553249	-2.2066462396	 2.1940119311	 0.117877
H	-0.3269652727	-3.677809817	 1.3442020027	 0.144277
H	 0.6713260906	-2.2014808104	 1.2624291251	 0.149056
H	-3.0610968497	-2.4863212852	 0.9919904981	 0.119646
H	-3.1506784599	-2.3493802946	-0.7767632696	 0.104376
H	-2.1769907377	-4.4469818517	-0.823907606	 0.300021
65.87	97.2547	110.2112	133.0305	172.02	199.7941	222.6145	233.7393	290.778	345.5874	361.6147	376.3014	414.8172	465.2627	586.3358	682.559	718.58	894.8255	911.205	985.1667	992.913	1022.2656	1092.417	1154.2284	1163.6152	1172.5096	1187.8779	1208.1206	1235.3777	1248.9481	1317.638	1386.8564	1397.7708	1414.9286	1431.0113	1479.3918	1486.14	1490.5444	1493.6424	1499.387	1504.0565	1525.872	2347.8331	2950.1121	2978.1525	2986.3627	2995.0437	3025.7292	3050.943	3081.0146	3125.6214	3129.4286	3159.8252	3789.9875
COCC(C)(CO)C#N	COC[C@@](C)(CO)C#N	
InChI=1S/C6H11NO2/c1-6(3-7,4-8)5-9-2/h8H,4-5H2,1-2H3	InChI=1S/C6H11NO2/c1-6(3-7,4-8)5-9-2/h8H,4-5H2,1-2H3/t6-/m1/s1
