18
gdb 47056	3.46522	1.34771	1.05272	3.3513	71.6	-0.2329	-0.0191	0.2139	1115.7036	0.149463	-439.079858	-439.072286	-439.071342	-439.112417	29.12	
O	 0.0413097046	 0.4709388162	-1.1688533103	-0.302795
C	-0.0377172252	 1.2437314152	-0.2456271708	 0.386568
C	-1.3705028451	 1.9003119536	 0.1337830603	-0.268849
N	-1.219870902	 2.7330186508	 1.3222691658	-0.304767
C	-0.242342108	 3.7874857745	 1.1133658428	-0.04945
C	 0.4422864871	 4.3005012701	 2.394666287	-0.08635
O	 1.6766218782	 3.6280024641	 2.06102956	-0.290169
C	 1.1476280491	 3.1824339201	 0.7939814131	 0.13571
C	 1.143763872	 1.6612926693	 0.6170255884	-0.324025
H	-1.7285286814	 2.4401016558	-0.7630357576	 0.112055
H	-2.0937798102	 1.1021102002	 0.3301751033	 0.136973
H	-2.1138067323	 3.1120496395	 1.6137325681	 0.227109
H	-0.5727133083	 4.5710023431	 0.4138295518	 0.064618
H	 0.5735351034	 5.3880596308	 2.4518324663	 0.10074
H	 0.0081442183	 3.9290643504	 3.3294482421	 0.107761
H	 1.6688076861	 3.6689759526	-0.0396545469	 0.088257
H	 1.0038091709	 1.2164778589	 1.6089105105	 0.144414
H	 2.0684954531	 1.2768582149	 0.183673206	 0.122202
67.5365	101.7056	218.8024	326.9623	366.4449	399.0412	445.0255	510.245	551.4951	601.5837	738.4482	780.918	812.1129	828.7508	875.1829	950.9155	986.1934	1009.9115	1033.2866	1055.3308	1081.2282	1092.9491	1138.0082	1163.1462	1181.9786	1216.9623	1234.5962	1255.426	1278.6916	1304.1875	1325.414	1360.1916	1371.7568	1399.1457	1454.1151	1463.1185	1471.7933	1514.43	1826.6314	2931.6467	2969.3466	3018.5887	3029.8966	3053.4401	3073.5283	3076.1069	3128.2192	3532.2187
O=C1CNC2COC2C1	O=C1CN[C@H]2CO[C@H]2C1	
InChI=1S/C6H9NO2/c8-4-1-6-5(3-9-6)7-2-4/h5-7H,1-3H2	InChI=1S/C6H9NO2/c8-4-1-6-5(3-9-6)7-2-4/h5-7H,1-3H2/t5-,6-/m0/s1
