23
gdb 118914	2.37435	1.05902	0.98723	2.4651	86.2	-0.2326	-0.0167	0.216	1410.8064	0.203458	-388.31415	-388.303687	-388.302742	-388.350201	38.221	
C	-0.1424924064	 1.5804323397	 0.2800115692	-0.380518
C	-0.0468882045	 0.065540839	 0.0756614555	-0.180566
C	 0.8234609476	-0.6125294073	 1.1422708317	-0.222756
C	 0.8528745641	-2.1544838001	 1.0891076366	 0.204043
C	 1.3569268527	-2.6970339469	-0.2490283736	-0.449976
C	 1.5004441047	-2.7897081257	 2.3719134449	-0.287899
C	 0.1057653294	-3.2656224626	 2.8782605872	-0.339392
C	-0.4890724135	-2.7671221176	 1.5529225159	 0.379715
O	-1.5706826104	-2.8517064936	 1.0429204904	-0.308744
H	 0.8471945257	 2.0502699647	 0.2476956097	 0.111168
H	-0.7577411724	 2.0475330493	-0.4950613418	 0.113699
H	-0.5902270048	 1.8219703326	 1.2505725047	 0.113858
H	-1.048725845	-0.3781307957	 0.0922900567	 0.124723
H	 0.362658976	-0.1385742691	-0.9203530031	 0.098213
H	 1.8586539771	-0.2504211776	 1.0640194249	 0.095564
H	 0.4716676937	-0.3008332434	 2.135852657	 0.091032
H	 2.3461416557	-2.2880166325	-0.4848230406	 0.115444
H	 1.4416531759	-3.7883442305	-0.2255676395	 0.113892
H	 0.675433842	-2.4370507684	-1.06328596	 0.137187
H	 2.1822319412	-3.6124431525	 2.1461347846	 0.105508
H	 2.0133438252	-2.0797620499	 3.0235546428	 0.10344
H	-0.0215608169	-4.336079752	 3.0610343056	 0.130281
H	-0.280944497	-2.7260117097	 3.7484819913	 0.132084
42.6686	78.5362	98.9587	153.759	187.5249	211.6667	244.4772	280.8161	312.5374	352.1716	405.5306	497.9661	514.6488	697.2657	701.9875	741.1139	752.0065	849.3971	882.2749	896.0181	935.5709	943.6939	975.3474	1030.0773	1048.947	1059.3392	1077.0805	1111.5206	1162.7023	1201.3545	1207.7256	1221.3221	1247.4319	1258.0328	1303.6361	1316.2001	1346.5156	1391.8627	1405.2732	1413.393	1438.0619	1479.1788	1486.9348	1493.6187	1495.0634	1499.4218	1501.7916	1512.1679	1875.7714	2997.2656	3027.6567	3028.3773	3029.5732	3038.8096	3058.3659	3071.6377	3072.1492	3093.8554	3097.8703	3103.1378	3105.731	3115.9288	3127.1122
CCCC1(C)CCC1=O	CCC[C@@]1(C)CCC1=O	
InChI=1S/C8H14O/c1-3-5-8(2)6-4-7(8)9/h3-6H2,1-2H3	InChI=1S/C8H14O/c1-3-5-8(2)6-4-7(8)9/h3-6H2,1-2H3/t8-/m0/s1
