14
gdb 48322	2.71868	1.48171	1.10667	5.4363	67.59	-0.264	-0.0478	0.2162	1055.0993	0.099828	-436.648337	-436.640549	-436.639605	-436.680964	28.177	
O	-0.3519955722	 0.4147240072	-0.8293366551	-0.238245
C	 0.2319205756	 0.8071346223	 0.1469158156	 0.100584
C	 1.3337907727	 1.8214528662	 0.1008170466	 0.002397
C	 1.7902009957	 2.2007522772	-1.2107550301	 0.252722
N	 2.1909359296	 2.5237009509	-2.2458643977	-0.324743
C	 1.4776233576	 2.9765844632	 1.1332466091	-0.157498
C	 1.053242109	 2.5032868662	 2.5179213683	-0.121331
O	 1.9476939995	 1.3529139239	 2.414485103	-0.277732
C	 2.4380712687	 1.8418535911	 1.1794213614	 0.075483
H	 0.0087671486	 0.4227675634	 1.1588963857	 0.11137
H	 1.5826893047	 3.9934533894	 0.7839185168	 0.147482
H	 1.3993439993	 3.175934583	 3.3083357111	 0.141733
H	 0.0123054701	 2.220336559	 2.6934211824	 0.134538
H	 3.4852944411	 1.7196631668	 0.9326440129	 0.153239
102.4929	143.6525	150.2901	200.4741	267.2185	371.8415	396.0702	493.4999	552.7772	568.7342	714.921	763.3885	852.5931	908.9295	931.8295	950.451	996.1301	1016.9953	1045.115	1068.8983	1082.0766	1157.7485	1171.4842	1241.8358	1289.475	1312.7879	1375.806	1428.0804	1516.6199	1816.5876	2358.673	2969.6067	3056.5881	3113.509	3202.6333	3229.6368
O=CC1(C#N)C2COC12	O=C[C@@]1(C#N)[C@H]2CO[C@@H]12	
InChI=1S/C6H5NO2/c7-2-6(3-8)4-1-9-5(4)6/h3-5H,1H2	InChI=1S/C6H5NO2/c7-2-6(3-8)4-1-9-5(4)6/h3-5H,1H2/t4-,5+,6-/m0/s1
