15
gdb 16818	3.66611	2.01974	1.50149	4.1439	61.11	-0.2437	0.0069	0.2506	835.2653	0.119796	-399.821062	-399.814126	-399.813182	-399.852124	26.29	
C	-0.0663159125	 1.5742493472	 0.0547165662	-0.398782
C	 0.0203853582	 0.0481391288	 0.0113548273	 0.013501
N	 0.790714254	-0.4502328312	-1.1249001466	-0.334754
C	 1.8174253477	-1.3131883386	-0.8393328516	 0.433776
O	 2.5277861467	-1.8872754687	-1.6331180076	-0.37806
C	 1.8648359457	-1.3977258655	 0.6766543517	-0.0963
O	 2.1334577295	-0.1108314447	 1.2688311757	-0.244478
C	 0.7815881475	-0.5544490047	 1.1918927213	 0.036901
H	 0.9339793856	 2.0015126522	 0.1559135781	 0.147727
H	-0.528030312	 1.9651912038	-0.8574102116	 0.118812
H	-0.6776997193	 1.897909418	 0.9028177792	 0.124439
H	-0.9930908628	-0.3788055064	-0.0028231037	 0.091443
H	 0.6444198595	-0.127263897	-2.0682837488	 0.253357
H	 2.2927965513	-2.2622803899	 1.1709022301	 0.122374
H	 0.275961001	-0.7272625232	 2.1369775104	 0.110044
109.2396	195.4548	244.1621	268.5882	390.0936	467.6508	474.0205	524.0931	619.9615	714.4902	765.486	839.6737	866.212	898.7584	902.2339	973.8064	1019.521	1043.9738	1094.7734	1122.0401	1161.6975	1239.3197	1265.4825	1300.1284	1336.7366	1373.8165	1403.219	1419.408	1435.0542	1493.7917	1501.1091	1837.1633	2996.5932	3041.9609	3108.4942	3135.5796	3165.6797	3194.2172	3640.6503
CC1NC(=O)C2OC12	C[C@H]1NC(=O)[C@H]2O[C@@H]12	
InChI=1S/C5H7NO2/c1-2-3-4(8-3)5(7)6-2/h2-4H,1H3,(H,6,7)	InChI=1S/C5H7NO2/c1-2-3-4(8-3)5(7)6-2/h2-4H,1H3,(H,6,7)/t2-,3+,4+/m1/s1
