21
gdb 82639	2.29036	1.69987	1.31632	1.0562	82.41	-0.227	0.0726	0.2996	1087.6795	0.181832	-387.043347	-387.034494	-387.03355	-387.076087	34.872	
C	-0.0024460567	 1.6242718496	-0.0344094043	-0.428877
C	 0.088444617	 0.1029476512	-0.0128119825	-0.009216
C	 1.1122110214	-0.6571800116	-0.9143108628	-0.158306
C	 2.5071006707	-0.1143490369	-0.502106229	-0.236436
C	 2.255282255	-0.75595817	 0.859271151	-0.200199
C	 0.7242726596	-0.6389950413	 1.1693608175	 0.290356
C	 0.2028985138	-0.7603417932	 2.5704968065	-0.512262
C	 1.244564845	-1.719266332	 0.2758747616	 0.331814
O	 1.0532613918	-3.0731968473	 0.3747893094	-0.457693
H	 0.9518886376	 2.1000072177	 0.2086127207	 0.116788
H	-0.3198637156	 1.9860828671	-1.0191606892	 0.111286
H	-0.7375424062	 1.9771396069	 0.6976379627	 0.113224
H	-0.9060760651	-0.3266123824	-0.1875241094	 0.069911
H	 0.8794999258	-0.8683834001	-1.9568296277	 0.063364
H	 3.3104764212	-0.6272758284	-1.0401457856	 0.08974
H	 2.6706980848	 0.9663963736	-0.5626596162	 0.089157
H	 2.9513753323	-0.9252072198	 1.6717907632	 0.080257
H	 0.2805852945	 0.187937409	 3.1149022032	 0.116987
H	-0.8506791787	-1.0624827268	 2.5735695688	 0.119098
H	 0.7613963437	-1.5144271098	 3.134810055	 0.122049
H	 1.8143207685	-3.5224317757	-0.0103858229	 0.288956
157.0839	173.8543	186.3414	189.3054	228.7093	296.6506	309.3828	352.7926	380.053	504.1043	574.6216	599.0535	660.4791	687.1968	754.8566	785.9304	883.8383	900.1463	917.2412	957.4503	988.475	1006.8724	1022.6052	1041.6284	1074.3276	1093.0453	1112.267	1122.8607	1150.9054	1191.1576	1215.1345	1231.8654	1265.4902	1286.2284	1297.4337	1341.9598	1384.4326	1406.9955	1416.9722	1485.4511	1487.1572	1492.4206	1494.95	1512.0119	1519.4227	3022.2613	3024.6477	3029.2672	3040.9527	3080.8984	3086.1579	3087.982	3094.8815	3107.5469	3126.9321	3190.5123	3781.7636
CC1C2CC3C1(C)C23O	C[C@H]1[C@H]2C[C@H]3[C@]1(C)[C@@]23O	
InChI=1S/C8H12O/c1-4-5-3-6-7(4,2)8(5,6)9/h4-6,9H,3H2,1-2H3	InChI=1S/C8H12O/c1-4-5-3-6-7(4,2)8(5,6)9/h4-6,9H,3H2,1-2H3/t4-,5+,6-,7+,8+/m0/s1
