18
gdb 102837	1.93572	1.23902	0.82987	2.3357	69.43	-0.2575	-0.0054	0.252	1367.6453	0.146202	-476.20215	-476.192478	-476.191533	-476.238162	33.453	
O	 0.5891104415	 0.3595613729	-0.7221387508	-0.413679
C	-0.2980447139	 0.3560026053	 0.379290064	-0.081069
C	-1.6185538927	-0.360328257	 0.0451443507	 0.031328
O	-2.4420352684	-0.3137001729	 1.2216102675	-0.194728
C	-2.6253237966	-1.4469110109	 1.9334224553	 0.171059
O	-3.2774111977	-1.4794650537	 2.9310789186	-0.267434
C	-2.3565568195	 0.2912197673	-1.105190302	 0.005549
C	-3.8315016443	 0.2564761026	-1.2208326442	-0.247719
N	-3.1381092561	 1.5195139586	-0.896053426	-0.32526
H	 0.3598869262	 1.0996030877	-1.2921012973	 0.300001
H	 0.201114373	-0.1828830045	 1.1916861382	 0.118229
H	-0.5205028961	 1.3686863759	 0.7414567684	 0.115339
H	-1.3955655185	-1.4044870651	-0.2144960967	 0.102947
H	-2.1113941408	-2.3189210639	 1.4857617945	 0.088042
H	-1.7699985418	 0.2905768049	-2.0213491039	 0.09904
H	-4.2921178323	 0.2238491779	-2.2037132331	 0.124057
H	-4.3948150303	-0.2316009653	-0.4317260424	 0.128973
H	-3.2316176518	 1.6834639301	 0.1050927393	 0.245326
41.6919	65.0411	102.8099	142.9683	174.7074	205.1575	287.0488	305.8219	340.9154	410.4394	483.1018	581.5154	694.5926	779.1504	855.8303	898.9858	952.667	987.7939	1038.3389	1045.3343	1074.9613	1080.3595	1087.3305	1132.4836	1155.6859	1176.742	1191.9461	1218.5627	1276.2819	1303.5404	1330.132	1364.0692	1395.5152	1404.9926	1421.8696	1434.9691	1497.4954	1507.5724	1868.9489	2958.1826	3013.4677	3022.7027	3080.8365	3119.8795	3132.3903	3208.6314	3488.4211	3833.504
OCC(OC=O)C1CN1	OC[C@@H](OC=O)[C@H]1CN1	
InChI=1S/C5H9NO3/c7-2-5(9-3-8)4-1-6-4/h3-7H,1-2H2	InChI=1S/C5H9NO3/c7-2-5(9-3-8)4-1-6-4/h3-7H,1-2H2/t4-,5-/m1/s1
