18
gdb 61903	2.64338	0.97839	0.917	2.7941	73.93	-0.2373	0.0221	0.2594	1364.7714	0.144545	-439.075608	-439.06532	-439.064376	-439.111738	36.765	
C	-1.4123412673	 0.311887529	-2.0211381666	-0.403464
C	-0.7978313483	 0.0233947844	-0.6537854474	 0.024211
O	-1.2262244816	-1.2750388369	-0.2436000593	-0.257144
C	-1.2425043889	-1.4692007166	 1.1658543889	-0.237853
C	-2.2813165652	-0.6955328625	 1.8475083038	 0.316779
C	-3.1332163066	-0.0560275332	 2.4037516067	-0.449391
C	 0.7354519465	 0.1411391458	-0.734667569	 0.36399
N	 1.3945324875	-1.0501513024	-0.7350802061	-0.511593
O	 1.2810697685	 1.2241559961	-0.8127271266	-0.367593
H	-1.0597333395	 1.2800332236	-2.3831498356	 0.145794
H	-1.1239736652	-0.4604818312	-2.7409009505	 0.12272
H	-2.502127408	 0.3266357729	-1.946097874	 0.128226
H	-1.1360290643	 0.7797496627	 0.0641885889	 0.114338
H	-1.4207594179	-2.5395754792	 1.3136990283	 0.140327
H	-0.2601628372	-1.2370571207	 1.6039076393	 0.133618
H	-3.8859716695	 0.5062224054	 2.899354672	 0.2072
H	 0.8703663223	-1.9065884423	-0.7976807897	 0.268177
H	 2.3857150145	-1.051138125	-0.9109755532	 0.261659
36.8158	69.2293	83.1634	167.3319	227.4053	238.825	260.9645	319.7607	332.3077	349.3773	430.8938	496.1095	537.8889	613.1891	620.743	628.472	688.3239	753.0253	801.7224	869.7651	937.4949	1026.2501	1033.4585	1073.7771	1101.8456	1119.5063	1146.7381	1288.2959	1324.4287	1356.5507	1362.8757	1393.4086	1399.0653	1482.469	1487.5608	1496.9055	1588.1525	1804.8038	2236.032	2996.222	3046.1395	3050.0588	3070.9061	3123.2251	3142.919	3502.7341	3595.763	3734.9098
CC(OCC#C)C(N)=O	C[C@@H](OCC#C)C(=O)N	
InChI=1S/C6H9NO2/c1-3-4-9-5(2)6(7)8/h1,5H,4H2,2H3,(H2,7,8)	InChI=1S/C6H9NO2/c1-3-4-9-5(2)6(7)8/h1,5H,4H2,2H3,(H2,7,8)/t5-/m1/s1
