18
gdb 39030	3.16367	1.76987	1.29781	2.5292	77.17	-0.2154	0.033	0.2484	982.623	0.152079	-398.125053	-398.117931	-398.116987	-398.156478	28.35	
C	 0.1165737339	 1.3709608662	-0.3981138915	-0.165577
C	 1.4065544437	 1.9909335174	 0.2324611758	-0.35067
C	 2.1605733925	 0.7587919072	 0.6825676627	 0.297427
N	 3.4493636506	 0.3173291008	 0.1328686473	-0.372757
C	 3.2560862838	 0.3322508203	 1.5920795694	-0.128561
C	 2.7568000748	-0.9826484092	 2.2228114314	-0.191151
N	 1.4482533933	-1.3171386899	 1.6127972543	-0.364953
C	 1.1486190085	-0.3211801633	 0.8646303395	 0.392578
N	 0.0264259326	 0.0244462519	 0.1801321734	-0.383361
H	-0.7755737483	 1.9581447216	-0.1586524185	 0.113437
H	 0.1976885591	 1.3238547893	-1.4918938744	 0.115977
H	 1.9681528926	 2.5933836325	-0.4825231403	 0.125676
H	 1.1371938604	 2.6236644126	 1.0839316015	 0.11828
H	 3.3820219871	-0.6355113686	-0.2251619319	 0.231466
H	 3.8988393264	 1.0093527598	 2.145245212	 0.096592
H	 3.4767516844	-1.7996078732	 2.078194982	 0.10533
H	 2.630506845	-0.8652719094	 3.3071573848	 0.107238
H	-0.8461796203	-0.4649212659	 0.2815582525	 0.25303
103.3778	188.9266	267.8978	291.1922	389.0655	423.7893	439.2669	618.586	652.4169	716.9544	724.4567	780.1414	834.8477	850.5845	875.3069	920.5113	946.1103	983.7709	1001.225	1041.9909	1071.5772	1100.0851	1116.4086	1166.5126	1195.29	1217.8741	1227.5563	1239.194	1289.7128	1308.6781	1314.923	1331.3305	1389.9691	1434.041	1443.1021	1485.9383	1491.7704	1531.1819	1746.495	3012.606	3015.0228	3039.7084	3055.2677	3071.7721	3128.9279	3165.068	3450.2022	3664.3786
C1CC23NC2CN=C3N1	C1C[C@@]23N[C@@H]2CN=C3N1	
InChI=1S/C6H9N3/c1-2-7-5-6(1)4(9-6)3-8-5/h4,9H,1-3H2,(H,7,8)	InChI=1S/C6H9N3/c1-2-7-5-6(1)4(9-6)3-8-5/h4,9H,1-3H2,(H,7,8)/t4-,6-/m1/s1
