15
gdb 27425	2.43736	1.74004	1.12678	3.7361	77.34	-0.2507	-0.0885	0.1622	1060.0571	0.112722	-416.838449	-416.830654	-416.82971	-416.870913	28.738	
C	-0.3945750197	 1.4445748092	 0.1248174913	-0.471196
C	-0.0164029365	-0.0000839206	-0.0808280756	 0.274423
N	-0.3385639783	-0.5849409274	-1.174649355	-0.268616
C	-0.0141950073	-1.9096257405	-1.5007666307	 0.33378
O	 0.5003650114	-2.1931167244	-2.5575567989	-0.317436
C	-0.4666290097	-2.919889948	-0.5188409819	-0.172789
C	-0.1685859396	-2.8333239595	 0.7938484415	 0.019103
N	 0.5877086456	-1.8654238595	 1.4275770605	-0.208595
C	 0.6996117749	-0.647158519	 1.036273453	-0.019789
H	-1.0204914886	 1.5619075917	 1.0166665134	 0.145547
H	 0.5034915927	 2.0532841965	 0.2843947894	 0.145925
H	-0.9298008082	 1.8168116268	-0.7485229393	 0.156696
H	-0.9389281817	-3.8150837062	-0.9123759272	 0.132877
H	-0.4404661435	-3.6536484008	 1.4539071757	 0.126664
H	 1.3278515985	 0.0032187118	 1.6500005739	 0.123407
108.0658	124.4373	165.4665	252.1266	290.3262	379.8023	418.0327	433.1821	545.3988	625.9369	639.4838	678.5436	816.9128	819.88	879.8149	919.7218	939.7152	989.4292	1006.4038	1054.7696	1056.6817	1193.247	1244.8545	1247.8283	1398.588	1419.8025	1435.0374	1469.6936	1476.7655	1584.7126	1647.2848	1704.2882	1792.6564	3033.7926	3088.628	3096.6679	3157.2414	3158.0873	3185.7475
CC1=NC(=O)C=CN=C1	Cc1nc(=O)ccnc1	
InChI=1S/C6H6N2O/c1-5-4-7-3-2-6(9)8-5/h2-4H,1H3	InChI=1S/C6H6N2O/c1-5-4-7-3-2-6(9)8-5/h2-4H,1H3
