12
gdb 132715	5.83358	0.99908	0.853	4.603	71.3	-0.2779	-0.0687	0.2092	1194.5742	0.078995	-439.700463	-439.693718	-439.692774	-439.731942	25.081	
F	-0.0062970403	 0.0256798392	 0.0036995524	-0.060775
C	-0.006301278	 1.3540547404	 0.0105138264	 0.272116
C	-1.2212989018	 2.0373898465	 0.0299452174	-0.114754
N	-1.2894120623	 3.3629024988	 0.0376354486	-0.293875
C	-0.1363887793	 4.0479112773	 0.0260335649	 0.2124
C	 1.1224460293	 3.439021683	 0.0064141742	-0.139583
C	 1.190469551	 2.052007424	-0.0015915733	-0.2146
C	-0.2313353558	 5.4836954332	 0.0346436418	 0.239484
N	-0.269098948	 6.6396811243	 0.0410683775	-0.322359
H	-2.1542466969	 1.4808878873	 0.0393199084	 0.140083
H	 2.0205651424	 4.0444082742	-0.0022499299	 0.141736
H	 2.1348889999	 1.5213025318	-0.0166909384	 0.140127
104.7285	158.5012	281.9033	395.3407	421.8228	429.0996	493.1881	561.4152	578.2638	658.8973	709.3707	784.868	864.129	873.8621	952.5612	988.695	1030.4511	1135.0037	1232.9828	1286.4053	1294.8955	1321.7811	1410.9395	1509.0047	1609.2045	1631.7822	2353.0994	3177.0211	3206.2592	3219.3008
FC1=CN=C(C=C1)C#N	Fc1cnc(cc1)C#N	
InChI=1S/C6H3FN2/c7-5-1-2-6(3-8)9-4-5/h1-2,4H	InChI=1S/C6H3FN2/c7-5-1-2-6(3-8)9-4-5/h1-2,4H
