20
gdb 31641	3.43221	1.02106	0.81139	3.2029	84.37	-0.1939	0.0436	0.2375	1437.2422	0.170505	-403.184977	-403.175032	-403.174088	-403.220602	35.464	
C	 0.2442919817	 1.3544373834	-0.0105961706	-0.33769
N	 0.1222160788	-0.0865802053	 0.036614627	-0.037042
C	 0.1959485831	-0.9228616159	-1.0531645182	-0.201623
C	 0.0638449408	-2.2235361813	-0.6187512362	 0.217631
C	 0.0762995992	-3.4455747656	-1.4889545088	-0.156396
O	 0.8856443733	-3.2915956935	-2.6501205722	-0.415845
C	-0.0925165949	-2.1638321555	 0.7956745212	-0.364274
C	-0.056926689	-0.8399952596	 1.1781970211	 0.312874
C	-0.164840259	-0.2202243239	 2.5322742705	-0.500595
H	 1.1237493065	 1.7023413143	 0.5430311291	 0.135453
H	 0.3467349436	 1.6670724562	-1.0509744158	 0.142056
H	-0.641597695	 1.8425442926	 0.4095550816	 0.137353
H	 0.3320820597	-0.5271180893	-2.0468709355	 0.121789
H	 0.3892605609	-4.3189962365	-0.893639074	 0.085873
H	-0.9257095913	-3.6743269463	-1.873312293	 0.113933
H	 1.7386561898	-2.9615111259	-2.3476749523	 0.274531
H	-0.2186075365	-3.0032145958	 1.4645509231	 0.087444
H	 0.7307469364	 0.3527387367	 2.8056481457	 0.123999
H	-1.0203123751	 0.4626358716	 2.6156538584	 0.125154
H	-0.295754133	-1.0028407102	 3.2828697792	 0.135375
50.7633	56.3825	134.6708	150.7941	187.5928	213.5275	264.6181	279.2757	349.2184	384.5304	480.7368	614.0818	635.0131	637.0141	677.2705	724.8226	788.4289	803.6466	982.0285	1000.143	1016.0995	1058.3631	1060.3858	1077.0735	1149.0879	1163.4947	1187.304	1204.6922	1235.081	1335.6254	1384.0158	1399.2573	1416.4364	1435.5647	1446.9696	1472.8215	1475.5932	1488.6542	1489.2669	1510.6454	1517.499	1555.2842	1616.4047	2967.9883	3011.2564	3028.7588	3035.7801	3052.414	3081.8686	3122.1814	3137.1441	3231.8365	3261.2858	3802.4114
CN1C=C(CO)C=C1C	Cn1cc(CO)cc1C	
InChI=1S/C7H11NO/c1-6-3-7(5-9)4-8(6)2/h3-4,9H,5H2,1-2H3	InChI=1S/C7H11NO/c1-6-3-7(5-9)4-8(6)2/h3-4,9H,5H2,1-2H3
