18
gdb 64180	2.22235	1.49049	1.38231	3.7018	72.09	-0.2725	0.0134	0.2859	1059.0826	0.145039	-439.087778	-439.078295	-439.077351	-439.121398	35.804	
C	-0.1485326517	 1.5024704077	 0.0926692403	-0.448285
C	 0.0070672356	-0.0057915372	-0.0637052693	 0.378631
O	-1.1922187081	-0.6167757229	-0.4639165505	-0.458946
C	 1.1979997453	-0.437262183	-0.9530454496	-0.25748
C	 2.0629047963	-0.6470665758	 0.316605762	-0.290128
C	 0.7567215352	-0.6563496531	 1.1740027841	 0.175054
O	 0.7085841451	 0.130508293	 2.3417210817	-0.465209
C	 0.2866139784	-2.0193876201	 1.4541422084	 0.256328
N	-0.0507167614	-3.0898212378	 1.7311271011	-0.3408
H	 0.7951681667	 1.988547366	 0.3509139869	 0.129219
H	-0.514174224	 1.9173064766	-0.8511694708	 0.127347
H	-0.8629321101	 1.7389181158	 0.8877400043	 0.126953
H	-1.9061360418	-0.3049079399	 0.1041048764	 0.284932
H	 0.9680888474	-1.3772057252	-1.4583699708	 0.134243
H	 1.5489816405	 0.291050135	-1.6857959723	 0.109838
H	 2.6916964366	-1.5365377726	 0.3623465306	 0.122524
H	 2.6537891499	 0.2333680025	 0.5781783422	 0.120971
H	 1.17185573	-0.3315502891	 3.0495960154	 0.294808
80.5793	139.1731	201.0041	248.6777	259.9304	269.7727	275.6515	321.2458	349.4041	387.21	420.2213	466.5551	534.835	596.4807	649.6974	681.6624	762.4279	895.7489	898.4845	930.4316	957.0678	974.1956	1007.7046	1107.5616	1131.4594	1162.7452	1202.9345	1217.1517	1234.9804	1264.3934	1287.8741	1341.0246	1381.0185	1408.0703	1474.7734	1485.3534	1489.073	1495.2782	2349.5971	3041.7806	3078.4056	3081.3854	3113.3421	3128.2388	3132.6109	3146.922	3797.6879	3802.7958
CC1(O)CCC1(O)C#N	C[C@@]1(O)CC[C@]1(O)C#N	
InChI=1S/C6H9NO2/c1-5(8)2-3-6(5,9)4-7/h8-9H,2-3H2,1H3	InChI=1S/C6H9NO2/c1-5(8)2-3-6(5,9)4-7/h8-9H,2-3H2,1H3/t5-,6+/m1/s1
