17
gdb 105936	3.75488	1.44952	1.35295	2.1144	70.03	-0.2277	0.0602	0.2879	979.2623	0.137975	-417.893786	-417.88691	-417.885966	-417.925299	27.519	
O	 0.1066146121	 1.1650196202	-0.5716457848	-0.417034
C	-0.0612425176	 0.0788549057	 0.3258661226	-0.203538
C	-1.4654191838	-0.425882991	 0.3196417136	 0.373373
C	-1.9291434203	-1.8314941931	 0.459060628	-0.087933
C	-3.3977799108	-1.5851192922	 0.8613955946	-0.06258
N	-3.3502098973	-0.4369406194	 1.8264561818	-0.328689
C	-2.7773441048	 0.3160727359	 0.6612114172	-0.121608
C	-3.3924245498	-0.6549729891	-0.3915322911	 0.004936
N	-2.0256843341	-1.1541099134	-0.8821530592	-0.239982
H	-0.1845392497	 0.8484932583	-1.4349119944	 0.291099
H	 0.6251102121	-0.7501944458	 0.0918831798	 0.095628
H	 0.1998392983	 0.456240623	 1.3207350558	 0.12228
H	-1.2895955664	-2.6876113815	 0.6315435374	 0.102554
H	-4.0669458229	-2.4189562689	 1.0624912956	 0.083165
H	-4.307892437	-0.11076387	 1.968656076	 0.214241
H	-2.8073184118	 1.4031630923	 0.6597159832	 0.09002
H	-4.203901346	-0.4653884908	-1.0922289261	 0.084069
82.7976	146.5703	252.8549	362.7162	436.8272	510.0053	602.8107	662.2586	749.3732	766.3299	804.7086	811.5735	849.524	871.9492	878.5086	909.0202	929.4545	968.7033	977.675	981.703	1022.6349	1059.3316	1075.2146	1113.9914	1139.9062	1168.2966	1190.64	1196.3428	1226.7967	1241.3377	1280.8638	1314.9892	1342.9972	1379.0064	1409.1399	1444.5821	1488.2886	2982.6519	3071.6697	3127.3875	3144.8793	3153.5705	3198.8889	3441.6131	3793.5672
OCC12C3C4NC1C4N23	OC[C@@]12[C@H]3[C@H]4N[C@@H]1[C@H]4N23	
InChI=1S/C6H8N2O/c9-1-6-4-3-2(7-4)5(6)8(3)6/h2-5,7,9H,1H2	InChI=1S/C6H8N2O/c9-1-6-4-3-2(7-4)5(6)8(3)6/h2-5,7,9H,1H2/t2-,3-,4+,5+,6-,8?/m0/s1
