13
gdb 33452	2.57533	1.61779	1.15409	4.858	67.9	-0.2836	-0.0215	0.2621	1011.5955	0.089155	-415.572958	-415.56545	-415.564506	-415.605173	27.327	
N	 0.0974698884	-1.1373703314	 0.0588099943	-0.333997
C	 0.0430039827	 0.0167892672	 0.0368959318	 0.264672
C	 0.0018322714	 1.4564972411	 0.0454943758	-0.014708
C	-1.0674667995	 2.0737884844	-0.6951354441	 0.243072
N	-1.9057399275	 2.6067499656	-1.2867053292	-0.315178
C	 0.4500407122	 2.2568776935	 1.2928606577	-0.163216
C	 1.6233231205	 1.5276803846	 1.9395795874	-0.117498
O	 2.3534453241	 1.5477131202	 0.6711587185	-0.26355
C	 1.3163844248	 2.2818685451	 0.078972816	 0.094403
H	-0.2089630917	 2.990089256	 1.734893517	 0.149666
H	 2.1433911322	 2.1393508549	 2.6811481725	 0.143645
H	 1.4610654554	 0.5129799657	 2.3108880003	 0.155422
H	 1.536041727	 3.0129252032	-0.6891864877	 0.157267
131.0141	142.3124	155.6374	186.0223	358.1758	372.3318	498.0594	498.5673	588.5188	594.8234	635.3338	757.3002	850.7255	908.87	929.2407	956.9507	1000.8366	1029.5835	1074.3258	1093.086	1152.7367	1167.4941	1243.2358	1283.9268	1295.7038	1377.7198	1505.1718	2357.8985	2361.6412	3065.5841	3128.6716	3204.0798	3228.7541
N#CC1(C#N)C2COC12	N#CC1(C#N)[C@H]2CO[C@@H]12	
InChI=1S/C6H4N2O/c7-2-6(3-8)4-1-9-5(4)6/h4-5H,1H2	InChI=1S/C6H4N2O/c7-2-6(3-8)4-1-9-5(4)6/h4-5H,1H2/t4-,5+/m0/s1
