19
gdb 22521	2.86286	1.04019	0.99168	0.9645	75.91	-0.2267	0.0027	0.2293	1291.8744	0.157341	-456.270967	-456.261144	-456.2602	-456.305561	36.112	
C	-0.2820935657	 1.5960273536	 0.2188298361	-0.439965
C	-0.0118272246	 0.1004882115	 0.0901735352	 0.206133
C	-1.2733335667	-0.6911051942	-0.3082476045	-0.112539
O	-1.6349926564	-0.4702772211	-1.6628098316	-0.41843
N	 1.1644041053	-0.2260161208	-0.7833425695	-0.35465
C	 1.7660345652	-1.1062856226	 0.2606062157	-0.263161
C	 0.7326536484	-0.5758380716	 1.2278833613	 0.374235
N	 0.5110651647	-0.5821627775	 2.4717274148	-0.250923
O	 1.480558084	-1.3399847465	 3.1544373191	-0.389427
H	 0.6401457819	 2.1280948547	 0.4603300414	 0.131935
H	-0.6586092691	 2.0058247462	-0.7259091777	 0.10445
H	-1.0183308403	 1.7917457854	 1.004996424	 0.124964
H	-1.0756879571	-1.7649251855	-0.2299045012	 0.110184
H	-2.0966082144	-0.4544208095	 0.381695789	 0.103145
H	-1.9420571142	 0.43770767	-1.7495286036	 0.289671
H	 0.884168313	-0.703908395	-1.6343264416	 0.22595
H	 1.6826823743	-2.1874762035	 0.085173017	 0.119692
H	 2.8104960934	-0.8766373279	 0.4967247887	 0.130883
H	 1.2067957484	-1.2416814757	 4.0727466775	 0.307853
83.4708	96.6599	146.5334	167.4336	217.3488	255.7335	307.7725	325.5451	342.696	363.8539	395.7364	459.1975	516.9843	614.967	674.0814	770.8845	787.0169	923.8538	938.706	957.9975	970.9453	982.2969	1026.8852	1069.2517	1105.2098	1124.0693	1147.5691	1184.6915	1209.7983	1286.7112	1308.1749	1359.1592	1370.7787	1402.3039	1409.7777	1418.9809	1479.9734	1489.7643	1493.2291	1500.4508	1800.1073	2999.5411	3011.9183	3030.4631	3065.3119	3079.5907	3098.1017	3131.4605	3522.8821	3816.8369	3821.8434
CC1(CO)NCC1=NO	C[C@@]1(CO)NCC1=NO	
InChI=1S/C5H10N2O2/c1-5(3-8)4(7-9)2-6-5/h6,8-9H,2-3H2,1H3	InChI=1S/C5H10N2O2/c1-5(3-8)4(7-9)2-6-5/h6,8-9H,2-3H2,1H3/t5-/m0/s1
