20
gdb 88601	2.76752	1.16753	0.98305	2.0559	75.21	-0.233	0.051	0.2839	1269.4072	0.169831	-440.229677	-440.220103	-440.219159	-440.264717	35.64	
C	-0.5028557175	 1.2580734782	 0.303196047	-0.393574
C	 0.0056314387	-0.1600558176	 0.1912409277	-0.012612
N	 1.3926548605	-0.3303854409	-0.2647949576	-0.344917
C	 1.0393705828	-0.7421478878	 1.1055417924	-0.05376
C	 1.6916795942	 0.0201307587	 2.2182388877	-0.108336
C	 0.9586652576	 0.2359306475	 3.5326072617	 0.020592
O	-0.2819740499	-0.3928634717	 3.7280792634	-0.428322
C	 2.1163041749	-0.7222206153	 3.4792544977	 0.074942
O	 1.8188843414	-2.077398262	 3.598459437	-0.426434
H	 0.2621276957	 1.9173821368	 0.7192471004	 0.13148
H	-0.78304853	 1.6465998921	-0.6815794476	 0.125255
H	-1.3921267987	 1.3122499012	 0.9434171292	 0.104384
H	-0.7261543045	-0.8690733571	-0.1967894581	 0.080994
H	 1.4769344996	-1.1444225897	-0.8671430269	 0.233022
H	 0.9618498365	-1.8099667514	 1.2967481753	 0.099094
H	 2.3303829174	 0.8344477524	 1.8929816653	 0.104796
H	 1.05982109	 1.189371555	 4.0461718154	 0.095328
H	-0.827969859	-0.23672519	 2.9502976137	 0.302246
H	 3.0575972114	-0.4515305564	 3.9481808135	 0.101894
H	 0.887689959	-2.1186131321	 3.8621433027	 0.293927
30.6432	103.3206	167.091	177.0353	199.9086	249.7909	275.9773	336.9572	418.7566	424.7344	482.2084	567.8939	624.8518	678.8407	763.769	780.8215	809.5128	853.2092	913.3876	960.767	1000.5593	1006.6195	1031.6839	1058.5745	1064.5123	1115.7836	1117.1602	1160.8193	1166.1582	1211.2146	1226.4807	1259.8133	1265.0639	1303.1446	1323.8295	1343.4561	1388.7577	1402.2326	1429.7763	1442.0618	1467.2728	1485.3587	1500.4183	3027.149	3086.9574	3096.7474	3124.3547	3129.5385	3135.6867	3150.9415	3170.1792	3506.5848	3720.7873	3808.2145
CC1NC1C1C(O)C1O	C[C@H]1N[C@H]1[C@H]1[C@@H](O)[C@H]1O	
InChI=1S/C6H11NO2/c1-2-4(7-2)3-5(8)6(3)9/h2-9H,1H3	InChI=1S/C6H11NO2/c1-2-4(7-2)3-5(8)6(3)9/h2-9H,1H3/t2-,3-,4-,5+,6-/m1/s1
