19
gdb 53798	2.83288	1.30489	0.97312	1.2734	79.25	-0.2462	-0.051	0.1952	1235.9212	0.158734	-419.223541	-419.214218	-419.213273	-419.258349	35.386	
C	-0.1577851517	 1.7257963152	-0.1188255306	-0.450111
C	-0.0788896485	 0.2132740768	-0.0176652208	 0.228687
C	 1.1516200294	-0.4541788921	-0.6446071927	-0.271513
C	 1.0581682079	-0.3651100276	 0.8360817829	-0.267322
C	-1.2816485625	-0.6749029215	-0.0459779927	 0.326223
O	-1.1618653829	-1.8904337521	-0.041816145	-0.356903
C	-2.7115464687	-0.1283902864	-0.0627307601	 0.249575
N	-3.6125495657	-1.1147750468	-0.3601762306	-0.526721
N	-2.9399452219	 1.1067812018	 0.1850559366	-0.518516
H	 0.8589391625	 2.13184936	-0.1547961542	 0.093932
H	-0.6833543327	 2.0442331511	-1.0220684344	 0.124641
H	-0.6826780634	 2.1655004636	 0.7290447407	 0.14151
H	 0.9939140201	-1.4257064235	-1.0961954275	 0.135086
H	 1.830337912	 0.2081712096	-1.1699053027	 0.116315
H	 1.668764971	 0.3598648542	 1.3626714803	 0.118403
H	 0.8380840873	-1.2767783923	 1.3781161964	 0.132697
H	-3.2548714767	-2.056513387	-0.2881314099	 0.270398
H	-4.5830834476	-0.965413002	-0.1399341781	 0.249002
H	-3.9434599979	 1.3056748189	 0.1769138822	 0.204618
28.5167	57.9462	226.0531	252.9056	283.1117	314.142	327.036	362.7779	390.3825	425.1462	481.5887	536.3064	560.7542	592.6835	671.6981	788.0129	797.8582	836.2838	841.6889	885.91	960.4369	967.7638	1040.9769	1075.0256	1084.0058	1089.3669	1116.8653	1120.7292	1147.6697	1205.9554	1300.9184	1325.6372	1426.9858	1432.6746	1451.5002	1481.5175	1485.318	1492.6295	1593.8072	1713.6984	1735.7039	3040.6836	3112.0855	3140.5215	3143.4823	3147.4587	3230.9604	3245.1157	3432.4722	3570.6073	3702.7421
CC1(CC1)C(=O)C(N)=N	CC1(CC1)C(=O)C(=N)N	
InChI=1S/C6H10N2O/c1-6(2-3-6)4(9)5(7)8/h2-3H2,1H3,(H3,7,8)	InChI=1S/C6H10N2O/c1-6(2-3-6)4(9)5(7)8/h2-3H2,1H3,(H3,7,8)
