20
gdb 58029	1.80637	1.5439	1.02479	2.4153	82.45	-0.2268	-0.0244	0.2024	1260.5743	0.166198	-403.112026	-403.10114	-403.100196	-403.148171	38.708	
C	 0.9003928151	-0.5057316338	-0.8350071043	-0.323314
N	-0.1210294331	-0.013107719	 0.0826375965	-0.079595
C	 0.0521586839	 1.4144087931	 0.3311622252	-0.326954
C	-1.4905406707	-0.2958254928	-0.366840976	-0.195466
C	-1.6917291328	-1.695091528	-0.7377937127	 0.287195
C	-1.9254273411	-2.8379094427	-1.0291657142	-0.42263
C	-2.5126577476	 0.0474945309	 0.7630234562	 0.369913
C	-2.2927518396	-0.6330436561	 2.0954794922	-0.476349
O	-3.4219400631	 0.8067171085	 0.5415832645	-0.297427
H	 1.8867322925	-0.3105041155	-0.4037005536	 0.119973
H	 0.7911919501	-1.5822931322	-0.975105527	 0.138791
H	 0.8597594855	-0.019289539	-1.8273225903	 0.096349
H	-0.0661720158	 2.0264779698	-0.5822828234	 0.104094
H	-0.6753279314	 1.7704609999	 1.0661493229	 0.132712
H	 1.0534241451	 1.591189938	 0.733451264	 0.123123
H	-1.782596998	 0.3390300304	-1.2242272462	 0.09915
H	-2.1205669899	-3.8466632979	-1.2989328624	 0.202328
H	-1.2468847969	-0.5423237286	 2.3989108269	 0.153583
H	-2.9615765618	-0.2060336632	 2.8430291588	 0.137422
H	-2.4981033304	-1.7035266419	 1.987964373	 0.1571
59.0235	70.0025	115.8343	142.3657	165.9988	178.4374	239.8682	251.7681	335.3514	354.5792	386.5692	410.3404	460.7081	541.5752	560.0384	601.305	627.8442	662.3632	786.9436	883.9653	975.9596	997.0551	1029.6749	1065.645	1077.2663	1123.9095	1173.8005	1196.8709	1240.4037	1284.9709	1291.7625	1344.766	1376.7182	1444.9725	1462.2819	1467.4357	1477.7587	1481.5471	1496.6664	1498.9471	1512.7965	1825.2818	2230.4881	2926.0123	2935.8903	2943.8716	3052.1885	3071.869	3076.7393	3115.5909	3119.3927	3135.5253	3162.6824	3500.7779
CN(C)C(C#C)C(C)=O	CN(C)[C@@H](C#C)C(=O)C	
InChI=1S/C7H11NO/c1-5-7(6(2)9)8(3)4/h1,7H,2-4H3	InChI=1S/C7H11NO/c1-5-7(6(2)9)8(3)4/h1,7H,2-4H3/t7-/m0/s1
