18
gdb 115559	2.48258	1.14588	1.00683	3.372	72.76	-0.2718	0.0145	0.2864	1250.2341	0.146216	-439.075841	-439.066328	-439.065384	-439.110343	34.566	
O	-0.0884433736	 1.4346511596	-0.1868640221	-0.425574
C	 0.0565056595	 0.0381881139	 0.0342964849	-0.10316
C	-1.3408787902	-0.5484915704	 0.0033202684	 0.01481
C	-2.1314192824	-0.5946423494	-1.3317301552	-0.234296
C	-2.6574173997	-1.9988498961	-0.9307564984	-0.270995
C	-1.4929147773	-2.0981805984	 0.1054368794	 0.228728
O	-0.3320462454	-2.7136382896	-0.4222616194	-0.460673
C	-1.8210500512	-2.6590724221	 1.4230547773	 0.228454
N	-2.0927140614	-3.1178546598	 2.4490714542	-0.338142
H	 0.7900405512	 1.8211688766	-0.2450923455	 0.290186
H	 0.6754241783	-0.4333909073	-0.740272278	 0.105363
H	 0.5262860028	-0.1707961017	 1.0085677569	 0.098147
H	-1.9454571805	-0.0759408596	 0.7824980863	 0.105123
H	-2.8731441352	 0.1873918008	-1.4927015679	 0.115596
H	-1.4636843731	-0.6357007784	-2.1951062565	 0.117535
H	-3.6333204611	-1.9618190978	-0.4417629526	 0.126012
H	-2.6614879573	-2.7862414956	-1.6879691196	 0.109288
H	-0.5038772434	-3.6577978446	-0.5142599724	 0.293598
72.544	101.879	152.0146	161.6925	206.2478	249.778	298.2781	309.1283	379.3485	403.5857	468.6977	529.0771	607.1072	611.0782	750.4333	792.6674	907.3973	919.4318	945.4925	981.1506	1007.2377	1071.0448	1097.7059	1131.3041	1142.8929	1164.1954	1210.2208	1246.0322	1256.9222	1263.2011	1279.9243	1302.1383	1349.3457	1376.0613	1460.7471	1469.2598	1491.7876	1524.9724	2346.849	2978.5678	3032.6873	3067.6272	3077.9605	3083.2827	3124.7896	3144.4618	3801.1514	3832.1136
OCC1CCC1(O)C#N	OC[C@H]1CC[C@]1(O)C#N	
InChI=1S/C6H9NO2/c7-4-6(9)2-1-5(6)3-8/h5,8-9H,1-3H2	InChI=1S/C6H9NO2/c7-4-6(9)2-1-5(6)3-8/h5,8-9H,1-3H2/t5-,6+/m1/s1
