19
gdb 96401	2.06198	1.72211	1.21393	4.7812	75.47	-0.2339	0.0247	0.2585	1098.6294	0.160889	-419.216674	-419.208164	-419.207219	-419.249615	32.352	
C	-0.0138304989	 1.5307924628	-0.0820951626	-0.420047
C	 0.0543089391	 0.0144321375	-0.0098902375	 0.129399
O	 0.6780213119	-0.4513156107	-1.1922436906	-0.249576
C	 0.7184724035	-1.8690676479	-1.2748679736	-0.073316
C	 1.4800879038	-2.4602883138	-0.0889545195	-0.17973
N	 0.9505414522	-1.9997993697	 1.2021874604	-0.294011
C	 0.8006559837	-0.5382074395	 1.2368657806	-0.165262
C	 2.1289570157	 0.0846581161	 1.3810884325	 0.323023
N	 3.1600899806	 0.5935884449	 1.4915367268	-0.334656
H	 0.9901772447	 1.9586448939	-0.1403258224	 0.155635
H	-0.5714524771	 1.8322111418	-0.9721129485	 0.131395
H	-0.5180634298	 1.9383520643	 0.7996315464	 0.118409
H	-0.9678148129	-0.4033533852	 0.0524428547	 0.06345
H	-0.309178592	-2.2727614283	-1.3018803509	 0.081551
H	 1.205536731	-2.1088742529	-2.224847595	 0.115253
H	 1.4446743377	-3.5539152027	-0.109685546	 0.10956
H	 2.5326087204	-2.1601571959	-0.1480802847	 0.139711
H	 0.0364627776	-2.4125845155	 1.3650752243	 0.223896
H	 0.2236779788	-0.2796444291	 2.1327604456	 0.125316
97.0071	147.8721	177.6538	215.1676	282.2012	301.2212	347.3686	402.9886	441.5943	462.5756	570.0712	626.5762	686.7656	769.5674	806.0637	860.82	883.9508	952.4745	956.1403	992.2479	1049.9791	1109.5146	1129.1176	1137.5496	1159.0699	1168.997	1248.5247	1284.9191	1293.3886	1331.3707	1369.5148	1380.428	1383.8711	1411.7551	1415.5214	1478.2167	1481.5168	1483.869	1494.5774	1500.7388	2360.9421	2930.4425	2953.1775	3044.6107	3045.3248	3049.6595	3085.024	3095.7799	3122.2406	3134.5339	3507.7147
CC1OCCNC1C#N	C[C@H]1OCCN[C@H]1C#N	
InChI=1S/C6H10N2O/c1-5-6(4-7)8-2-3-9-5/h5-6,8H,2-3H2,1H3	InChI=1S/C6H10N2O/c1-5-6(4-7)8-2-3-9-5/h5-6,8H,2-3H2,1H3/t5-,6+/m1/s1
