20
gdb 31723	5.39462	0.82294	0.75252	0.8048	85.28	-0.1614	0.0595	0.2209	1568.0988	0.172059	-399.341236	-399.331452	-399.330508	-399.376418	35.791	
C	 0.4332977049	 0.9382576041	 0.559281211	-0.324027
N	-0.1494811653	 0.1979551474	-0.5676723768	-0.386613
C	-1.368956616	-0.4528732213	-0.3021716398	 0.335948
C	-2.6768620784	-0.1253697785	-0.590402366	-0.355807
C	-3.4997543443	-1.1986818539	-0.1226702925	 0.321809
N	-4.9000644222	-1.2177305443	-0.17273686	-0.383199
C	-5.5523075442	-2.4815843852	 0.1121888812	-0.316783
C	-2.6671941485	-2.1417317081	 0.4418941201	-0.183503
N	-1.3687278796	-1.6610438206	 0.3391107717	-0.287744
H	 1.3800652307	 1.3856498197	 0.2424398376	 0.116242
H	-0.2218193917	 1.7311619879	 0.9520398832	 0.11004
H	 0.6471645476	 0.2458115488	 1.3781170696	 0.125386
H	-0.2615858236	 0.8116195408	-1.3648192953	 0.231114
H	-3.0164336596	 0.7919681546	-1.0481500796	 0.07446
H	-5.2509138278	-0.7862205115	-1.016596314	 0.225907
H	-5.3847381314	-2.7530506823	 1.1609750208	 0.12593
H	-6.6301798393	-2.37539914	-0.0345641202	 0.114214
H	-5.1914067653	-3.3186627915	-0.5100417095	 0.100869
H	-2.8769359056	-3.0811624069	 0.9228010497	 0.102762
H	-0.5351457805	-2.1924356792	 0.5172051087	 0.252995
39.0475	76.5755	154.444	167.5277	193.5773	231.0716	302.2991	330.3711	348.2918	463.6186	477.1558	553.8358	610.2812	660.1335	675.7129	691.4232	731.7266	765.0118	787.1177	971.9244	989.7297	1051.5151	1084.6369	1118.5393	1139.53	1150.4949	1158.3608	1165.6911	1213.2788	1285.2204	1321.5305	1397.4086	1423.9899	1451.4924	1457.331	1480.1524	1487.3388	1500.2337	1511.6797	1524.0126	1526.1271	1578.3323	1645.3589	2955.0061	2983.7527	3052.4202	3076.8688	3110.5999	3114.8787	3236.4431	3281.2551	3559.8495	3572.7139	3688.2552
CNC1=CC(NC)=CN1	CNc1cc(NC)c[nH]1	
InChI=1S/C6H11N3/c1-7-5-3-6(8-2)9-4-5/h3-4,7-9H,1-2H3	InChI=1S/C6H11N3/c1-7-5-3-6(8-2)9-4-5/h3-4,7-9H,1-2H3
