18
gdb 93071	2.20942	1.76012	1.03476	2.2605	77.29	-0.2366	-0.0017	0.2349	1145.2011	0.149412	-435.285206	-435.276842	-435.275898	-435.318375	31.549	
C	-0.219676197	 1.4043716306	 0.1375216465	-0.395212
C	 0.0108987845	-0.0860520865	-0.0693068035	 0.082346
C	 0.7465823462	-0.3882436771	-1.3740359123	-0.147977
N	 0.8341890964	-1.7807159705	-1.7599339922	-0.248111
C	 0.7472971338	-2.7328025678	-0.9329344658	 0.097388
N	 0.5827713213	-2.7723867806	 0.4557839712	-0.373749
C	 0.7658588898	-1.8021578633	 1.4555983642	 0.442851
N	 0.9177364201	-2.0523352414	 2.6913836692	-0.532917
O	 0.7996327135	-0.5226777973	 1.0566870494	-0.226819
H	 0.732476418	 1.9435455677	 0.1280930271	 0.133067
H	-0.8553159581	 1.8046746307	-0.6571882615	 0.122319
H	-0.7049985398	 1.5834883773	 1.0995060546	 0.13667
H	-0.9493941609	-0.617344891	-0.055123823	 0.100255
H	 0.2479758292	 0.1469095937	-2.1918173675	 0.110659
H	 1.7589537602	 0.0337089669	-1.3045322915	 0.124021
H	 0.7859316832	-3.7500307364	-1.3292010435	 0.11424
H	 0.5139488854	-3.7074372894	 0.8272088025	 0.251656
H	 0.9849526941	-3.0521521256	 2.868746296	 0.209313
75.4713	120.6318	164.9616	213.6299	281.2614	362.3276	404.8859	428.0309	478.0543	525.9918	562.4433	620.3964	720.0333	787.817	809.6626	865.0236	904.5285	933.1694	938.3135	962.6989	1024.942	1081.1612	1128.3462	1148.6948	1152.4466	1187.145	1274.0489	1320.1177	1346.9557	1384.03	1408.3801	1412.4586	1464.2499	1474.2454	1485.2466	1487.3404	1499.4278	1741.3701	1774.2634	3012.89	3028.6759	3047.7055	3051.6766	3102.2706	3122.0365	3132.8361	3511.9169	3620.2121
CC1CN=CNC(=N)O1	C[C@H]1CN=CN[C]([NH])O1	
InChI=1S/C5H9N3O/c1-4-2-7-3-8-5(6)9-4/h3-4H,2H2,1H3,(H2,6,7,8)	InChI=1S/C5H9N3O/c1-4-2-7-3-8-5(6)9-4/h3-4H,2H2,1H3,(H2,6,7,8)/t4-/m0/s1
