17
gdb 70102	2.51802	1.93344	1.34447	0.5615	73.06	-0.2479	-0.0159	0.232	970.7563	0.134975	-421.79453	-421.786821	-421.785877	-421.826405	30.167	
C	-0.1136751452	 1.4896751833	 0.0110483787	-0.492658
C	 0.0918704773	 0.0031426598	-0.0185437843	 0.293639
O	-0.4726322377	-0.7744939849	 1.0462944217	-0.29599
C	 0.9686253442	-0.7814903826	 0.8712276719	-0.079773
C	 1.4688975399	-1.9534044674	 0.0893113252	-0.10066
C	 0.9402689697	-1.9491645926	-1.1391604067	-0.158577
C	 0.0637653775	-0.7602193528	-1.3350148086	 0.389868
C	-1.0571896256	-0.6898473609	-2.2828711393	-0.241457
O	 0.1687919736	-0.0137866773	-2.5584920593	-0.280106
H	 0.5883559136	 1.9888911491	-0.6615505013	 0.141965
H	-1.1281139271	 1.7491646248	-0.3114682133	 0.128407
H	 0.0248779684	 1.8682318123	 1.0263422941	 0.12967
H	 1.5314298109	-0.3509042142	 1.6939076328	 0.099278
H	 2.134107975	-2.7048347549	 0.4954026369	 0.112476
H	 1.0826087532	-2.6966834759	-1.9100110368	 0.113737
H	-1.2760229765	-1.5450071496	-2.9209574917	 0.119332
H	-1.9090769613	-0.0507294063	-2.0539328903	 0.12085
119.9983	171.5231	234.6701	246.622	286.8041	389.4881	418.891	470.3393	552.0221	604.3165	647.2046	751.785	765.7946	840.2844	856.0712	876.5308	914.6154	949.1407	966.0938	974.0282	1001.7157	1056.4188	1102.8077	1122.1627	1129.0299	1157.898	1169.9214	1275.2002	1299.0315	1352.7837	1403.1995	1419.2578	1443.092	1478.9035	1493.8869	1528.5055	1648.7551	3042.5444	3081.682	3108.1116	3135.458	3163.5217	3169.2662	3202.3836	3225.6317
CC12OC1C=CC21CO1	C[C@]12O[C@H]1C=C[C@]12CO1	
InChI=1S/C7H8O2/c1-6-5(9-6)2-3-7(6)4-8-7/h2-3,5H,4H2,1H3	InChI=1S/C7H8O2/c1-6-5(9-6)2-3-7(6)4-8-7/h2-3,5H,4H2,1H3/t5-,6-,7+/m0/s1
