18
gdb 24645	4.25106	1.19193	0.96957	1.3608	88.17	-0.2058	0.0044	0.2103	1210.9938	0.150453	-364.849537	-364.842189	-364.841245	-364.88167	28.886	
C	 1.0181242824	-0.6340937314	-0.8203301257	-0.22596
C	-0.3910646006	-0.9483696886	-1.2047550863	-0.22596
N	-0.0989736253	-0.1406750324	-0.0322765442	-0.124272
C	-0.3438152942	-0.6297057078	 1.2650213681	 0.312071
C	 0.6596095683	-0.5846523391	 2.2401743187	-0.188923
C	 0.3913818535	-0.9967480989	 3.5412189949	-0.08304
C	-0.8755300412	-1.4588321394	 3.891966699	-0.133737
C	-1.8756719278	-1.5024744239	 2.9227303967	-0.08304
C	-1.6167134212	-1.0924483416	 1.619154664	-0.188926
H	 1.6097863601	-1.4469507059	-0.403878147	 0.120953
H	 1.5842983867	 0.1164540052	-1.3644850627	 0.121496
H	-0.8658764583	-0.4299838792	-2.0328912464	 0.121496
H	-0.7316318272	-1.9691328195	-1.0426149008	 0.120952
H	 1.6445964722	-0.2184556726	 1.9704476128	 0.090676
H	 1.1807389403	-0.957322723	 4.2852107799	 0.092598
H	-1.0805297837	-1.7810289896	 4.9068431615	 0.090344
H	-2.8673725113	-1.8603610356	 3.1808194576	 0.092598
H	-2.3984928528	-1.1203772367	 0.8674282601	 0.090676
69.4798	142.4662	201.1828	303.987	418.5957	466.9188	485.6807	547.4643	627.3709	712.0975	726.2695	780.0139	822.89	848.7402	906.8349	928.2747	936.8207	949.0141	977.5298	1009.6435	1035.5009	1047.1752	1104.2311	1115.806	1129.9443	1163.4085	1172.5354	1179.4324	1187.0982	1203.6995	1326.9517	1349.8304	1382.8605	1482.4941	1494.1795	1519.5188	1527.7872	1619.397	1641.7641	3099.5932	3102.8213	3167.49	3173.2152	3182.1673	3185.284	3189.6156	3195.8829	3200.2982
C1CN1C1=CC=CC=C1	C1CN1c1ccccc1	
InChI=1S/C8H9N/c1-2-4-8(5-3-1)9-6-7-9/h1-5H,6-7H2	InChI=1S/C8H9N/c1-2-4-8(5-3-1)9-6-7-9/h1-5H,6-7H2
