14
gdb 28547	3.27152	1.36268	0.96199	2.7337	68.1	-0.208	-0.0103	0.1977	1117.9993	0.102107	-473.893345	-473.885795	-473.884851	-473.925008	29.54	
O	 0.0398251402	 1.360946064	-0.1127119556	-0.451124
C	 0.0620651342	-0.0002309802	-0.0524602886	 0.267228
C	 0.0237532634	-0.7643289882	-1.2048131154	-0.074555
N	 0.0429344328	-2.1065259824	-1.2058815667	-0.374965
C	 0.1017829125	-2.7243236981	-0.0376737154	 0.442332
O	 0.1213426125	-4.0784304394	-0.0400626318	-0.428046
C	 0.1451686243	-2.0639551747	 1.1949591257	-0.368686
C	 0.1244656802	-0.6805157224	 1.1760783379	 0.310844
O	 0.1606999718	 0.10869915	 2.2859877938	-0.458317
H	 0.0742697696	 1.696270811	 0.7911610095	 0.307854
H	-0.0246846246	-0.2668053296	-2.1689741578	 0.120155
H	 0.0851903579	-4.3359433329	-0.9714595047	 0.296146
H	 0.1929594578	-2.6266298613	 2.1206604921	 0.102081
H	 0.2028691074	-0.4375037557	 3.0775531669	 0.309052
151.5691	227.0179	300.1535	303.4296	349.2043	376.1343	409.2362	458.0715	459.7181	516.8435	537.9461	603.9989	688.9185	755.0885	777.471	800.9552	840.5047	938.2579	987.3323	1154.5743	1166.4919	1223.1366	1230.1004	1294.4797	1326.015	1373.0937	1422.229	1505.0349	1550.3253	1657.4305	1668.7828	3174.8211	3188.6738	3772.8521	3799.6867	3830.1912
OC1=CN=C(O)C=C1O	Oc1cnc(O)cc1O	
InChI=1S/C5H5NO3/c7-3-1-5(9)6-2-4(3)8/h1-2,8H,(H2,6,7,9)	InChI=1S/C5H5NO3/c7-3-1-5(9)6-2-4(3)8/h1-2,8H,(H2,6,7,9)
