18
gdb 97111	3.05194	1.24393	1.03149	2.4052	75.39	-0.2482	0.0094	0.2576	1215.9045	0.146985	-439.054953	-439.046132	-439.045188	-439.08939	31.102	
C	 0.0819944412	 1.528208496	 0.1007645934	-0.341452
N	 0.2381126824	 0.0857750829	-0.0244256174	-0.331542
C	 0.5389826127	-0.5920586288	 0.9795924309	 0.41811
O	 0.7517335333	-0.2266799485	 2.3035488978	-0.278293
C	 1.0723926975	-1.6006457274	 2.678508341	-0.133882
C	 0.7847494693	-2.0724139724	 1.2388334186	 0.275514
C	-0.2475960009	-3.1444158441	 0.8403833941	-0.35124
C	 0.9136306194	-3.7454411556	 0.0248383121	-0.071575
O	 1.8255924202	-2.7366099807	 0.5230649842	-0.302549
H	 0.7422302349	 2.0204242923	-0.6212744878	 0.131115
H	-0.9445598771	 1.8011241481	-0.1681612752	 0.128448
H	 0.2986329886	 1.9172675843	 1.1022234183	 0.128431
H	 2.1193023975	-1.7012188261	 2.9754629595	 0.130298
H	 0.4036549937	-1.9639006508	 3.4634543293	 0.116989
H	-0.6041702149	-3.7600731068	 1.6679959043	 0.117145
H	-1.0937101213	-2.7695752782	 0.2645364661	 0.135692
H	 1.236971674	-4.7544886925	 0.3018064191	 0.108591
H	 0.8020793194	-3.6837755218	-1.0626639082	 0.120199
73.2785	80.5101	110.7953	131.1617	187.4364	264.4658	302.7376	367.8177	485.2676	613.0197	696.0247	754.44	785.328	871.274	887.1564	904.307	969.4401	979.4669	1023.8249	1040.2485	1088.6058	1126.6478	1139.7849	1149.7179	1164.4061	1169.8834	1197.7728	1227.0917	1234.1516	1274.5295	1351.3752	1353.1676	1439.0667	1481.792	1493.5843	1496.1995	1502.5006	1528.3231	1846.895	3018.9998	3035.9012	3057.4252	3081.1622	3084.412	3086.405	3091.1317	3122.2578	3147.9805
CN=C1OCC11CCO1	CN=C1OC[C@]21CCO2	
InChI=1S/C6H9NO2/c1-7-5-6(4-8-5)2-3-9-6/h2-4H2,1H3	InChI=1S/C6H9NO2/c1-7-5-6(4-8-5)2-3-9-6/h2-4H2,1H3/t6-/m0/s1
