17
gdb 117611	2.32161	1.22442	1.03909	4.0419	75.19	-0.2594	0.0007	0.2601	1231.3492	0.132983	-417.951662	-417.941301	-417.940356	-417.987224	36.38	
C	 0.2101725018	 0.9212743075	 0.4721953866	-0.259239
O	-0.4227833137	 0.1206843566	-0.5194056723	-0.243899
C	 0.4422921561	-0.5388160259	-1.4080221752	-0.096014
C	 0.518279881	-2.0703068424	-1.0715891918	-0.134131
N	-0.8142146628	-2.6737331354	-0.9217654496	-0.519148
C	 1.2683278204	-2.7415669781	-2.1358784907	 0.356006
C	 1.8653475877	-3.2369434701	-3.0517341665	-0.436637
C	 1.2410277827	-2.2388354206	 0.2144401574	 0.337631
N	 1.8077488864	-2.3270861766	 1.2170263606	-0.349605
H	 0.8516153873	 0.3291579963	 1.1337316213	 0.149226
H	 0.8067791642	 1.7193126461	 0.0094463509	 0.116714
H	-0.5900246231	 1.3745689824	 1.0610272897	 0.136087
H	 0.0218393784	-0.4633952202	-2.4175835405	 0.117099
H	 1.4475595428	-0.1002645533	-1.4131990996	 0.119074
H	-1.3897438648	-2.0077890124	-0.4096457062	 0.251821
H	-1.2233675616	-2.7835387454	-1.8452656049	 0.241297
H	 2.4011428772	-3.6955569085	-3.8466341491	 0.213717
56.2708	107.7654	122.8664	130.6605	172.1736	187.0371	241.8751	275.272	305.4538	399.6563	420.2701	496.1205	509.3406	571.3159	610.2199	660.1171	680.5959	723.7595	874.1953	913.4643	982.3076	1006.062	1071.4159	1124.694	1177.0099	1193.3802	1232.226	1310.9008	1337.5837	1393.0529	1473.2544	1488.0331	1497.7189	1510.2957	1645.2753	2246.6142	2360.1091	3006.2252	3022.3277	3078.4618	3082.7331	3130.577	3476.4241	3498.3559	3569.2631
COCC(N)(C#C)C#N	COC[C@@](N)(C#C)C#N	
InChI=1S/C6H8N2O/c1-3-6(8,4-7)5-9-2/h1H,5,8H2,2H3	InChI=1S/C6H8N2O/c1-3-6(8,4-7)5-9-2/h1H,5,8H2,2H3/t6-/m1/s1
