17
gdb 79614	2.26817	1.99149	1.56471	3.491	71.91	-0.2301	-0.0214	0.2087	927.0006	0.13704	-417.958356	-417.950947	-417.950003	-417.990047	28.867	
C	-0.1122742267	 1.5101637882	 0.0569658592	-0.331997
N	 0.0624669877	 0.0674660895	-0.068894898	-0.083462
C	 0.5303688793	-0.6940986151	-1.2040188138	-0.060484
C	 1.4388399142	-0.1512199911	-2.2972106305	-0.031663
C	 1.8678166748	 1.2735388671	-2.4270919963	-0.272903
N	 2.6898512142	 0.2975046703	-1.6873017501	-0.116668
C	 2.5629476105	 0.1912957115	-0.2620323484	 0.372657
O	 3.3263853352	 0.6866083062	 0.5224334902	-0.319813
C	 1.3261774362	-0.6389310342	 0.0728742876	-0.150857
H	 0.8212467295	 2.0841698946	 0.104875784	 0.1341
H	-0.7211670997	 1.8812714946	-0.7726543714	 0.130956
H	-0.6585211121	 1.7030474412	 0.9857737502	 0.133954
H	-0.0901301002	-1.5439582428	-1.4750785775	 0.104807
H	 1.5453822456	-0.8024353446	-3.1619556574	 0.10594
H	 2.3077968612	 1.6040810748	-3.3641766899	 0.134677
H	 1.3603317482	 2.0499590707	-1.8725548031	 0.138042
H	 1.3939589221	-1.4018905509	 0.8436911153	 0.112712
119.7104	176.8701	195.1425	281.6165	320.9742	381.6922	463.6699	548.7506	618.7485	680.4367	721.5002	729.2611	792.2007	835.0781	873.4914	908.8148	948.7569	988.523	1043.8795	1064.4417	1093.0028	1098.3282	1125.7707	1143.6838	1151.7047	1159.3217	1173.5904	1277.8033	1290.715	1337.5277	1376.9683	1404.1772	1459.2586	1484.333	1503.2058	1534.4519	1838.8373	3014.3867	3077.8854	3108.2117	3128.4118	3134.2714	3142.7932	3151.2779	3250.1357
CN1C2C3CN3C(=O)C12	CN1[C@H]2[C@H]3CN3C(=O)[C@@H]12	
InChI=1S/C6H8N2O/c1-7-4-3-2-8(3)6(9)5(4)7/h3-5H,2H2,1H3	InChI=1S/C6H8N2O/c1-7-4-3-2-8(3)6(9)5(4)7/h3-5H,2H2,1H3/t3-,4+,5+,7?,8?/m1/s1
