14
gdb 31912	4.18552	0.99191	0.84377	4.6005	73.53	-0.2612	-0.055	0.2061	1305.63	0.102724	-432.901701	-432.893624	-432.89268	-432.93575	28.262	
N	 0.3549374342	 1.4173100958	-0.1419632169	-0.505055
C	 0.1066367577	-0.0223668752	-0.0127575775	-0.274243
C	 0.7702090999	-0.5572044583	 1.2136475312	 0.413571
N	 0.204455758	-0.9712708627	 2.3108905119	-0.290474
C	 1.2492535437	-1.3371875482	 3.130481845	-0.180317
C	 2.4243490496	-1.1220339971	 2.4741601522	 0.222726
O	 2.1207476639	-0.6193761831	 1.2352786545	-0.182094
C	 3.7760484268	-1.3165829776	 2.8201423798	 0.224829
N	 4.8792594968	-1.4875623376	 3.1292705509	-0.328455
H	 0.0338687903	 1.7355764907	-1.0504587329	 0.239782
H	-0.1872385717	 1.9224860376	 0.5525823851	 0.240075
H	-0.9506090477	-0.3153863321	 0.0517410075	 0.127127
H	 0.5395716748	-0.5192036247	-0.8877928234	 0.13845
H	 1.0996271038	-1.7262077176	 4.1247717226	 0.154079
28.565	111.6043	149.5294	198.7936	244.0058	331.3689	416.301	509.5674	555.9531	572.3447	680.6771	687.5511	773.0185	855.022	890.2451	964.5734	988.3122	1019.0662	1065.2192	1153.5155	1189.4425	1224.6393	1270.5547	1313.7239	1363.5821	1423.1008	1488.3519	1565.5061	1607.9299	1662.2992	2347.2169	3008.9537	3075.2855	3274.5265	3498.5851	3581.4836
NCC1=NC=C(O1)C#N	NCc1ncc(o1)C#N	
InChI=1S/C5H5N3O/c6-1-4-3-8-5(2-7)9-4/h3H,2,7H2	InChI=1S/C5H5N3O/c6-1-4-3-8-5(2-7)9-4/h3H,2,7H2
