21
gdb 109861	2.2479	1.41538	1.02773	0.5728	78.21	-0.2305	0.0721	0.3026	1226.9747	0.181299	-424.187594	-424.178083	-424.177139	-424.221437	36.445	
C	-0.3351618643	 1.5856790436	 0.1402724105	-0.408823
C	-0.0771858967	 0.0835657641	 0.0783936131	 0.018926
C	 0.3672318677	-0.5418841856	-1.2546797337	-0.161526
C	 1.7404134266	-0.0369582987	-1.6490836642	-0.320348
C	 1.6425921094	-1.0792808283	-0.5877379957	 0.393951
O	 2.336246435	-2.2657387374	-0.7548160979	-0.462575
C	 1.2170099846	-0.5086994555	 0.7670402789	-0.071527
C	 2.1822472041	 0.3869233414	 1.5208883042	-0.103753
O	 1.5531238117	 0.7702347957	 2.739860467	-0.423537
H	 0.4714416506	 2.1634254871	-0.3221249461	 0.108191
H	-1.2601557085	 1.8390531696	-0.388684407	 0.108534
H	-0.4277891681	 1.91543323	 1.1790825627	 0.129265
H	-0.9549954307	-0.4399683484	 0.4686037733	 0.072734
H	-0.2856954921	-1.0110318409	-1.9811605448	 0.084024
H	 2.099349141	-0.4313165355	-2.5944635543	 0.118447
H	 2.0594678602	 0.9820335058	-1.4449045792	 0.102738
H	 1.8594597388	-2.9592799841	-0.2847905074	 0.281293
H	 0.9224896574	-1.3196277188	 1.4439112823	 0.070447
H	 3.1146020657	-0.1691276443	 1.7106828947	 0.092313
H	 2.446024603	 1.2693610438	 0.9198401101	 0.085277
H	 2.1387111146	 1.3765273762	 3.2028329434	 0.285949
97.5938	124.0288	175.8297	219.3987	237.4933	250.6314	282.5975	320.785	354.3071	388.1654	479.6105	510.8604	546.244	626.7445	728.7331	759.8415	833.5892	875.7949	944.1202	968.8018	990.7252	1000.7819	1019.5866	1052.4123	1070.8716	1081.6619	1104.1835	1137.2093	1152.9729	1187.1072	1196.4208	1235.864	1257.9775	1275.5814	1295.8275	1322.2574	1358.0623	1381.5999	1406.3372	1424.4571	1459.7549	1492.9886	1499.6058	1507.1505	1521.8005	2971.3945	3004.7076	3034.0919	3035.7973	3056.4697	3098.62	3109.9986	3113.7574	3180.1038	3201.7332	3789.21	3826.7517
CC1C2CC2(O)C1CO	C[C@H]1[C@H]2C[C@@]2(O)[C@H]1CO	
InChI=1S/C7H12O2/c1-4-5-2-7(5,9)6(4)3-8/h4-6,8-9H,2-3H2,1H3	InChI=1S/C7H12O2/c1-4-5-2-7(5,9)6(4)3-8/h4-6,8-9H,2-3H2,1H3/t4-,5+,6-,7-/m0/s1
