16
gdb 50431	3.0536	1.53256	1.20744	3.0284	69.52	-0.2421	-0.0312	0.2109	1014.9286	0.124789	-437.882057	-437.874492	-437.873548	-437.91497	27.987	
O	 0.0554334711	-0.0649834035	-0.136798225	-0.231644
C	 0.0152211571	 1.1320632979	-0.0776932776	 0.160298
C	 1.2266280654	 2.0451032263	 0.0639448825	 0.006055
O	 2.3650237011	 1.2411253567	 0.3575913801	-0.225445
C	 3.5785133111	 1.6017522752	-0.132062206	 0.126459
N	 3.860209254	 2.4340211838	-1.0403867041	-0.255821
C	 2.7779867246	 3.1057498555	-1.6882287178	 0.011542
C	 1.7870168148	 2.2900678567	-2.4917152835	-0.299587
C	 1.3693517467	 2.9085832967	-1.1812245886	-0.092585
H	-0.9407255558	 1.7002374796	-0.1545234031	 0.080225
H	 1.0469996739	 2.7095326092	 0.9236425573	 0.110944
H	 4.3572112934	 1.0346225962	 0.3717662951	 0.133783
H	 3.0504053433	 4.0799990891	-2.0788895163	 0.105011
H	 1.3887722259	 2.717584093	-3.4049754291	 0.123733
H	 1.9490363273	 1.2175908064	-2.5231208666	 0.143958
H	 0.6889144462	 3.7534822312	-1.2102418374	 0.103073
48.4701	92.0593	217.473	243.7675	316.7046	365.7275	543.2094	548.6706	618.8463	710.252	740.2132	800.7602	836.1135	857.7672	928.8277	941.4755	961.4712	1005.5323	1030.3033	1058.353	1074.4233	1105.6114	1126.9774	1159.3336	1195.3684	1222.2456	1301.3547	1352.8215	1363.7566	1392.9527	1411.4438	1422.4565	1483.0768	1725.1383	1852.2375	2866.4288	2988.0228	3135.5451	3158.2669	3168.9178	3176.7991	3226.7836
O=CC1OC=NC2CC12	O=C[C@H]1OC=N[C@H]2C[C@@H]12	
InChI=1S/C6H7NO2/c8-2-6-4-1-5(4)7-3-9-6/h2-6H,1H2	InChI=1S/C6H7NO2/c8-2-6-4-1-5(4)7-3-9-6/h2-6H,1H2/t4-,5+,6-/m1/s1
