21
gdb 107671	3.12039	1.29387	1.08836	0.523	78.42	-0.2364	0.0857	0.322	1193.7393	0.183356	-424.204629	-424.196007	-424.195062	-424.23778	33.165	
C	-0.3752356556	 1.2919093867	-0.0524429753	-0.251173
O	 0.2679549123	 0.0384214374	 0.0943080196	-0.284427
C	 0.7639410387	-0.500522526	-1.0973201165	 0.400602
C	-0.2096703046	-1.121025801	-2.0625228143	-0.343213
C	 0.6865391997	-1.99914796	-1.203436061	-0.09181
C	 1.8356132631	-2.7746415239	-1.8432801402	-0.237483
C	 3.0552349984	-1.8762736775	-2.073937856	-0.072287
O	 2.680893229	-0.6114703548	-2.6014583592	-0.242706
C	 2.0174728648	 0.1779321877	-1.6326356559	-0.152038
H	 0.3241201625	 2.0905015676	-0.3368923009	 0.110578
H	-1.1781622659	 1.2499694983	-0.8016082108	 0.109635
H	-0.8075236284	 1.540681392	 0.9196765228	 0.1269
H	-1.2630789984	-1.0809477777	-1.808881611	 0.111072
H	 0.0177163952	-1.0585107757	-3.1222834001	 0.119275
H	 0.1879590411	-2.4779520225	-0.3674567436	 0.095857
H	 2.1286005103	-3.6127684501	-1.2016791259	 0.101266
H	 1.5094369385	-3.206399371	-2.7965702938	 0.106835
H	 3.6027884097	-1.7310926687	-1.1282586097	 0.090288
H	 3.7438172914	-2.3206442026	-2.7982796561	 0.105132
H	 1.7849742184	 1.1278822161	-2.1252287838	 0.103985
H	 2.68335428	 0.3873474756	-0.7778213282	 0.09371
96.2118	122.539	171.228	183.8852	283.3125	342.6638	370.6407	396.1734	404.5954	495.8045	530.8767	621.6805	727.3429	791.978	841.8406	892.4283	925.5887	941.7397	963.5147	996.4521	1051.5733	1059.5826	1080.6301	1119.9551	1127.8521	1137.3911	1142.2684	1181.0531	1211.4304	1237.7076	1254.573	1272.4893	1315.3119	1318.3216	1366.2184	1374.8809	1409.5737	1420.8594	1467.4976	1480.2053	1488.9754	1492.8033	1497.9609	1505.6441	1509.1316	2961.9516	2972.6023	2992.8233	3032.6084	3043.8886	3067.0869	3073.0389	3087.1376	3116.344	3126.2433	3166.2195	3219.7701
COC12CC1CCOC2	CO[C@]12C[C@H]1CCOC2	
InChI=1S/C7H12O2/c1-8-7-4-6(7)2-3-9-5-7/h6H,2-5H2,1H3	InChI=1S/C7H12O2/c1-8-7-4-6(7)2-3-9-5-7/h6H,2-5H2,1H3/t6-,7+/m1/s1
