17
gdb 47311	2.89611	1.31679	1.01383	3.304	69.81	-0.2409	0.0129	0.2538	1151.8045	0.138662	-455.212014	-455.203847	-455.202903	-455.245381	30.495	
O	-0.0083571948	-0.1551577123	 0.0217591778	-0.364019
C	-0.0159248921	 1.0621125141	 0.0104164675	 0.378977
C	-1.353218555	 1.8053452479	 0.0091827966	-0.280488
C	-1.3731593946	 3.3146351216	-0.2454341532	-0.206122
N	-0.6587897451	 4.0878662169	 0.7569133676	-0.286863
C	 0.6910347761	 4.064162282	 0.9439470085	 0.394312
O	 1.2548317738	 4.69946425	 1.8122065548	-0.356236
C	 1.4516116268	 3.1872458992	-0.0595785715	-0.285728
N	 1.1617275811	 1.7612334496	 0.0431251624	-0.305894
H	-1.9720804446	 1.2967607891	-0.7367131098	 0.138388
H	-1.8122929924	 1.5938479543	 0.9819642261	 0.141282
H	-0.9797241959	 3.5399502886	-1.2443133068	 0.126067
H	-2.410253539	 3.659448981	-0.244579981	 0.125132
H	-1.1785373068	 4.6289863069	 1.4314292098	 0.25428
H	 1.2831349403	 3.563239937	-1.0792182439	 0.125296
H	 2.5071467591	 3.3250973957	 0.1707629284	 0.146748
H	 1.9595290533	 1.1429639082	 0.0723806265	 0.25487
61.7934	80.5213	165.909	291.0883	333.414	371.0957	436.5851	472.7705	486.3441	527.2464	588.8686	608.2756	672.5523	707.3538	766.7829	865.8974	927.4065	938.9655	984.653	1070.1422	1114.6519	1129.397	1242.9808	1257.0906	1272.7191	1313.8758	1359.3863	1379.1932	1399.9182	1412.8	1444.2498	1465.9692	1473.0392	1497.4366	1514.1793	1776.5584	1805.5124	2997.0881	3032.2271	3049.9664	3095.4366	3097.994	3142.4773	3610.3782	3623.5819
O=C1CCNC(=O)CN1	O=C1CCNC(=O)CN1	
InChI=1S/C5H8N2O2/c8-4-1-2-6-5(9)3-7-4/h1-3H2,(H,6,9)(H,7,8)	InChI=1S/C5H8N2O2/c8-4-1-2-6-5(9)3-7-4/h1-3H2,(H,6,9)(H,7,8)
