18
gdb 96959	2.81799	1.4179	1.12039	2.0637	74.39	-0.2558	0.0144	0.2702	1130.3206	0.147263	-439.060137	-439.05159	-439.050646	-439.093787	31.57	
C	-0.013986385	 1.3187759423	-0.0685421844	-0.343818
N	 0.2500742504	-0.1156571995	-0.0912933317	-0.333288
C	 0.5911045062	-0.6887239833	 0.9704810853	 0.444311
O	 0.7349042245	-0.1906386244	 2.2577074563	-0.274739
C	 0.9591347883	-1.5390608489	 2.7822770965	 0.095333
C	-0.372024142	-2.2176671933	 3.1663583836	-0.280238
C	-0.4344261022	-2.8787255653	 1.7403410896	 0.141046
O	-1.5616675108	-2.7088810648	 0.9344868934	-0.43045
C	 0.8742151718	-2.1226217256	 1.3447034792	-0.236785
H	 0.766798153	 1.835878481	-0.6375699791	 0.133721
H	-0.9624264268	 1.5140506057	-0.5788107305	 0.129084
H	-0.0555861452	 1.7482032544	 0.9388694561	 0.129589
H	 1.8256625271	-1.576174948	 3.4393240549	 0.09791
H	-0.2990641161	-2.9411573488	 3.9812834109	 0.112241
H	-1.170974713	-1.5061762554	 3.3838707971	 0.121951
H	-0.2528473244	-3.9548094721	 1.8117268244	 0.09772
H	-1.4977099715	-1.8485649463	 0.4991983099	 0.29336
H	 1.6597182958	-2.6467509178	 0.8048507386	 0.103052
83.277	87.4252	107.9063	211.3357	246.4194	350.9203	370.0915	403.1507	442.29	543.3935	637.324	723.2348	733.4396	816.0797	864.3186	883.7756	922.1521	967.9344	992.5456	1032.1624	1056.9523	1096.3082	1109.3978	1130.2756	1152.7308	1164.442	1176.5525	1201.5059	1226.9867	1260.1785	1302.5319	1322.5939	1347.2334	1433.7328	1444.6544	1461.4828	1493.6103	1497.8578	1823.4741	3020.7468	3066.5547	3075.0857	3085.8037	3095.8539	3132.7897	3138.7357	3147.1688	3756.3626
CN=C1OC2CC(O)C12	CN=C1O[C@H]2C[C@@H](O)[C@@H]12	
InChI=1S/C6H9NO2/c1-7-6-5-3(8)2-4(5)9-6/h3-5,8H,2H2,1H3	InChI=1S/C6H9NO2/c1-7-6-5-3(8)2-4(5)9-6/h3-5,8H,2H2,1H3/t3-,4+,5-/m1/s1
