20
gdb 79294	2.58451	1.74717	1.50543	2.7578	76.79	-0.2369	0.0702	0.307	985.8873	0.17361	-403.14476	-403.137314	-403.13637	-403.176114	30.741	
C	-0.1230095149	 1.5671917326	 0.054799784	-0.419929
C	 0.0314612797	 0.0545649701	-0.0110625341	 0.089544
C	 0.9427625989	-0.5331346559	-1.113853057	-0.124725
C	 2.3455778553	-0.1239817591	-0.6210499674	-0.2505
C	 2.1539203424	-0.6061423652	 0.8149540866	-0.041469
C	 1.2640830996	-1.8000085213	 0.7654323902	-0.048624
C	 0.9211764446	-2.0296963812	-0.6996472175	 0.128729
O	-0.3286689429	-2.6838462999	-0.8165967578	-0.44277
N	 0.7223236395	-0.4899718704	 1.193115689	-0.126876
H	 0.8382084384	 2.0821122352	 0.1375135323	 0.116591
H	-0.6349997293	 1.9415083399	-0.8379523563	 0.109518
H	-0.7192672032	 1.8416444055	 0.9297677166	 0.128118
H	-0.9560940562	-0.4129025176	-0.0619686619	 0.089551
H	 0.6912918914	-0.311850207	-2.1511961863	 0.057901
H	 3.1461292939	-0.6646831744	-1.1367551771	 0.099882
H	 2.5516946059	 0.9461745734	-0.7011551072	 0.104613
H	 2.8855211454	-0.4410405892	 1.5963467791	 0.090099
H	 1.2721989849	-2.6077277642	 1.4866267792	 0.094107
H	 1.7090394442	-2.6011999366	-1.2132619548	 0.063681
H	-0.5142191975	-2.8066433246	-1.7530223893	 0.282559
182.87	200.3479	248.9609	286.8267	307.5603	343.0855	444.1693	537.1875	560.581	700.4369	708.5422	774.3292	792.181	849.9787	888.9713	897.9569	910.3081	922.0091	952.5321	988.7224	1025.0001	1033.3591	1052.2488	1086.299	1104.7617	1113.962	1132.2412	1155.3611	1204.7503	1206.8203	1221.896	1252.0165	1277.6963	1293.3041	1320.5887	1333.7129	1377.1774	1385.9314	1411.0952	1431.2911	1488.0639	1493.6343	1511.5422	2987.3033	3040.2548	3053.7323	3070.2192	3098.194	3109.1277	3117.9306	3118.9558	3185.6035	3197.0417	3817.1046
CC1C2CC3C(C2O)N13	C[C@H]1[C@H]2C[C@@H]3[C@H]([C@H]2O)N13	
InChI=1S/C7H11NO/c1-3-4-2-5-6(7(4)9)8(3)5/h3-7,9H,2H2,1H3	InChI=1S/C7H11NO/c1-3-4-2-5-6(7(4)9)8(3)5/h3-7,9H,2H2,1H3/t3-,4+,5+,6+,7-,8?/m0/s1
