16
gdb 114936	2.97693	1.13164	0.89392	5.468	72.21	-0.2447	-0.0461	0.1986	1261.8071	0.125648	-434.080414	-434.071996	-434.071051	-434.113897	30.504	
O	-0.1691341364	 1.3976754615	 0.2632024522	-0.42404
C	-0.0313910961	-0.0041310524	 0.086233408	-0.088885
C	-1.4358301906	-0.569958806	-0.1148451582	 0.004658
C	-1.4802298359	-2.1221959724	-0.0622237352	-0.198036
N	-1.9388172337	-2.4744742579	 1.2949252948	-0.291205
C	-2.3527039133	-1.3757580398	 1.8061877322	 0.280764
N	-2.3088016809	-0.2330136742	 1.0218083805	-0.342643
C	-2.9002278294	-1.2908211222	 3.1344271963	 0.259616
N	-3.3294669021	-1.1809469284	 4.2015263993	-0.316568
H	 0.6846935518	 1.7649253821	 0.509310379	 0.297866
H	 0.5853991737	-0.2468571357	-0.7928544349	 0.100782
H	 0.4307777661	-0.4777548238	 0.9663889845	 0.103961
H	-1.8546298458	-0.1653789225	-1.0401001282	 0.101452
H	-2.1913897515	-2.5299600062	-0.790093841	 0.129791
H	-0.5079728896	-2.5831475446	-0.2651460825	 0.120155
H	-2.1481271564	 0.6635963226	 1.4624326534	 0.262333
74.1974	137.9965	156.9258	185.8522	236.914	275.9704	366.9604	421.1597	498.1273	555.3599	569.975	633.9668	720.6639	788.7353	844.5354	933.2344	958.8663	1004.7085	1023.7121	1083.1561	1085.9414	1121.7575	1192.8027	1233.7107	1250.7489	1269.8376	1288.3408	1329.0642	1381.5276	1436.1305	1453.2084	1488.0143	1515.3399	1667.2135	2366.9295	2976.0436	3012.5043	3036.2943	3071.2093	3080.259	3589.0001	3836.0387
OCC1CN=C(N1)C#N	OC[C@H]1C[N][C](N1)C#N	
InChI=1S/C5H7N3O/c6-1-5-7-2-4(3-9)8-5/h4,9H,2-3H2,(H,7,8)	InChI=1S/C5H7N3O/c6-1-5-7-2-4(3-9)8-5/h4,9H,2-3H2,(H,7,8)/t4-/m1/s1
