19
gdb 109023	4.07855	1.13311	0.99434	1.7214	77.24	-0.2129	0.0574	0.2703	1250.2749	0.159521	-419.210605	-419.201835	-419.200891	-419.243776	33.129	
C	-0.0066768085	 1.3615146031	-0.0050648081	-0.231981
O	-0.0508864899	-0.0673851122	-0.0338507901	-0.262027
C	-1.2779759664	-0.5932905144	-0.0366987174	 0.470451
N	-2.3872905931	 0.0528378987	-0.0606861713	-0.36458
C	-3.4257283158	-0.945431075	-0.0323289798	-0.056263
C	-3.5270510781	-1.9108031936	-1.2001511409	-0.331287
C	-2.7504407877	-2.3219967594	 0.0264268301	 0.347569
C	-3.1280919954	-3.4941719922	 0.8886549037	-0.49345
N	-1.3395711597	-1.9778467511	-0.0496258869	-0.409351
H	 1.0515013106	 1.6251979891	-0.0042874581	 0.127459
H	-0.507844618	 1.7781110121	-0.8827240246	 0.142302
H	-0.4991224519	 1.7457007862	 0.8925779208	 0.137961
H	-4.3268417909	-0.6888399931	 0.5155427229	 0.086529
H	-4.4890601579	-2.3904015525	-1.3499841171	 0.10699
H	-2.9794139026	-1.6799248983	-2.1082692617	 0.114463
H	-4.2156665779	-3.5945733343	 0.9361916859	 0.129466
H	-2.7287800494	-4.434296355	 0.4888482479	 0.124504
H	-2.7571174964	-3.3729509007	 1.913277309	 0.118792
H	-0.6723819212	-2.4914449275	 0.5080981456	 0.242452
97.8043	138.6177	196.4712	205.1701	213.8219	265.7431	321.1895	382.471	464.5007	478.1338	505.9253	644.6531	687.774	725.706	773.5307	809.9968	886.4849	957.6458	979.3019	989.0134	1036.218	1046.3095	1079.8669	1108.7259	1114.0743	1154.2156	1183.7263	1223.1199	1238.3349	1280.7991	1325.39	1396.1501	1419.2686	1445.2049	1476.002	1477.8639	1484.6998	1493.2029	1501.3383	1507.8489	1680.2448	3021.117	3046.7903	3078.0699	3113.535	3120.2329	3122.5476	3152.1817	3154.8824	3215.2288	3600.4893
COC1=NC2CC2(C)N1	COC1=N[C@H]2C[C@@]2(C)N1	
InChI=1S/C6H10N2O/c1-6-3-4(6)7-5(8-6)9-2/h4H,3H2,1-2H3,(H,7,8)	InChI=1S/C6H10N2O/c1-6-3-4(6)7-5(8-6)9-2/h4H,3H2,1-2H3,(H,7,8)/t4-,6+/m0/s1
