20
gdb 13409	4.71089	1.17619	1.08891	0.5775	71.63	-0.2575	0.0894	0.3469	1184.896	0.177681	-386.153895	-386.14537	-386.144426	-386.188044	30.567	
C	 0.4163541954	 1.3867301327	 0.0507828813	-0.385188
C	 0.0753119202	-0.0918589729	-0.0166695668	-0.041486
O	 0.7095261422	-0.6451032019	-1.1629956026	-0.258712
C	 0.4799699522	-2.020950273	-1.3331698399	 0.232911
C	 1.1620417857	-2.4517216579	-2.6495775978	-0.262212
C	 2.292994407	-3.4015132126	-2.1953585271	-0.209702
C	 2.4036325548	-3.0878571072	-0.6986428449	-0.087693
O	 1.0649633511	-2.7926254321	-0.3018199122	-0.250795
H	 1.4976647172	 1.5277432938	 0.1370124221	 0.124366
H	 0.0754507129	 1.9042637722	-0.8506061608	 0.123218
H	-0.0631775869	 1.8484706132	 0.9192097199	 0.113862
H	 0.4128354321	-0.6154884979	 0.8868233005	 0.107295
H	-1.015445978	-0.2365843638	-0.0916732701	 0.084003
H	-0.5991676126	-2.2255028518	-1.2876553201	 0.066093
H	 0.4553853629	-2.9396651622	-3.3237200678	 0.107046
H	 1.5458983186	-1.5593351686	-3.1475479209	 0.121552
H	 2.0016287475	-4.4464358239	-2.3359316631	 0.107812
H	 3.2298585377	-3.2371453564	-2.7328815871	 0.10311
H	 2.7551815523	-3.9235232983	-0.0890225655	 0.105457
H	 3.0576847479	-2.2220689115	-0.5219473771	 0.099065
42.0754	68.757	121.2649	185.9697	221.7033	257.3628	367.2855	423.3169	581.9739	618.9919	743.7539	818.5899	824.0099	867.7094	912.2899	927.5992	932.2968	959.1344	1019.5934	1053.5499	1075.1128	1095.9304	1143.1398	1159.6455	1188.3856	1212.3888	1233.1064	1258.0076	1291.8693	1307.8907	1320.3326	1357.6171	1370.8752	1397.0135	1405.5962	1438.2801	1482.0964	1484.3212	1497.9222	1500.9439	1518.6418	1530.4078	2967.8034	3004.1251	3005.9549	3039.612	3043.3129	3059.142	3079.7437	3099.7701	3108.779	3117.4221	3119.3283	3131.2017
CCOC1CCCO1	CCO[C@H]1CCCO1	
InChI=1S/C6H12O2/c1-2-7-6-4-3-5-8-6/h6H,2-5H2,1H3	InChI=1S/C6H12O2/c1-2-7-6-4-3-5-8-6/h6H,2-5H2,1H3/t6-/m1/s1
