18
gdb 127032	6.61298	0.79485	0.71684	2.5742	76.69	-0.1993	0.046	0.2453	1572.5579	0.148313	-435.283124	-435.273767	-435.272822	-435.317588	33.813	
C	-0.042769925	 1.4649550351	 0.0405527848	-0.392361
C	-0.0051260661	-0.0513594051	 0.0006258	-0.030404
O	-1.3577596477	-0.5178757405	 0.0094280167	-0.280228
C	-1.5225713609	-1.8511907175	-0.019267433	 0.479109
N	-0.5123327922	-2.7041677435	-0.0380299495	-0.335268
N	-1.1355101666	-3.9286162005	-0.0300140776	-0.281448
C	-2.487737266	-3.8298296508	-0.0357995824	 0.428649
N	-3.2936715807	-4.9662249838	-0.121792093	-0.605563
C	-2.7921044006	-2.4838525645	-0.0129177344	-0.438495
H	 0.9756540999	 1.8649356473	 0.0351739996	 0.11572
H	-0.5755726304	 1.8636272983	-0.8275846575	 0.125727
H	-0.5480886141	 1.8174892426	 0.9443747592	 0.125258
H	 0.5011657197	-0.4206898265	-0.8994983091	 0.111322
H	 0.5283496478	-0.4672908123	 0.8638146728	 0.111714
H	-0.5882665392	-4.7490649716	-0.2215119104	 0.263953
H	-3.0318664647	-5.6928753516	 0.5339702745	 0.24988
H	-4.2719318743	-4.7428754311	 0.0014913583	 0.256493
H	-3.763453129	-2.021661884	 0.0319032812	 0.095942
58.5593	91.7141	145.547	176.8703	222.0575	256.6206	287.5639	338.4262	346.9203	434.5796	491.8327	650.616	682.5907	709.134	737.3382	770.675	789.7346	812.3401	911.9942	1001.2641	1048.0855	1073.6436	1108.1977	1126.2915	1172.5863	1184.9118	1213.3753	1288.3048	1330.3703	1388.6691	1414.4829	1448.1579	1484.6435	1498.447	1515.6218	1540.3681	1570.8407	1620.6116	1661.985	3026.3675	3044.044	3060.7075	3118.479	3121.033	3275.537	3533.5509	3630.8028	3685.4598
CCOC1=NNC(N)=C1	CCOc1n[nH]c(N)c1	
InChI=1S/C5H9N3O/c1-2-9-5-3-4(6)7-8-5/h3H,2H2,1H3,(H3,6,7,8)	InChI=1S/C5H9N3O/c1-2-9-5-3-4(6)7-8-5/h3H,2H2,1H3,(H3,6,7,8)
