18
gdb 116690	4.91035	0.79067	0.72611	3.2037	79.7	-0.2201	0.0107	0.2308	1565.2371	0.145732	-439.023972	-439.014996	-439.014052	-439.058731	32.043	
C	 0.1665549122	 1.3164979485	 0.170759541	-0.249854
O	-0.244090093	 0.0075760663	-0.2038193397	-0.194175
C	 0.5761136394	-0.6378925862	-1.0562794827	 0.095231
N	 0.2944298417	-1.805954716	-1.4395028252	-0.299879
C	 1.1516792851	-2.4748590331	-2.3215715138	 0.327313
C	 0.5912528448	-3.4611432815	-3.3401360774	-0.345241
C	 1.5786552426	-3.9355305277	-2.3282736492	 0.041176
O	 2.9110944035	-3.6124178363	-2.7375302356	-0.284247
C	 2.6188354926	-2.1923547715	-2.6749716866	-0.13941
H	 1.1342563287	 1.3023202602	 0.6871909588	 0.127765
H	 0.2304198296	 1.9824344644	-0.6986302812	 0.127682
H	-0.5958023953	 1.6936892564	 0.8531231444	 0.148444
H	 1.4614584894	-0.0624288824	-1.3601638836	 0.083422
H	-0.4432966586	-3.7202506605	-3.1422528253	 0.12907
H	 0.8773267909	-3.4043306076	-4.3873132303	 0.11339
H	 1.4409382415	-4.7416695995	-1.6179493968	 0.112518
H	 2.8311130888	-1.677077339	-3.6193817227	 0.104452
H	 3.1863290961	-1.7241900146	-1.8611205041	 0.102343
45.0331	89.3459	116.3101	154.1265	215.4006	294.4407	316.4828	369.4812	447.4341	470.2662	513.6053	719.9315	767.6259	850.089	917.0751	922.3998	969.8368	986.6747	987.7163	1018.3965	1057.2047	1062.4107	1080.2489	1095.3822	1163.0242	1166.8777	1177.1258	1223.5731	1270.5825	1295.8134	1305.2014	1384.338	1425.8071	1470.972	1489.3869	1494.4145	1501.0456	1512.7666	1762.6683	3007.8291	3013.8617	3025.9075	3064.2177	3075.1618	3114.0233	3146.2332	3191.3562	3220.02
COC=NC12CC1OC2	COC=N[C@]12C[C@H]1OC2	
InChI=1S/C6H9NO2/c1-8-4-7-6-2-5(6)9-3-6/h4-5H,2-3H2,1H3	InChI=1S/C6H9NO2/c1-8-4-7-6-2-5(6)9-3-6/h4-5H,2-3H2,1H3/t5-,6+/m1/s1
