17
gdb 99093	4.67703	0.72325	0.72156	2.4991	67.39	-0.2772	-0.0433	0.2339	1590.5707	0.132484	-496.137752	-496.12773	-496.126786	-496.174345	33.867	
C	 0.0121506042	 1.3720887763	-0.204240142	-0.24238
O	-0.1312102301	-0.055173443	-0.2588780856	-0.226081
C	-1.2729287271	-0.5362357475	 0.2587738216	 0.46313
O	-2.1366252005	 0.1471416238	 0.7478108016	-0.361142
C	-1.3213202258	-2.0519377603	 0.1752456171	-0.349078
C	-2.7238940492	-2.519053749	-0.2476295425	 0.061812
O	-2.978752103	-2.1902258284	-1.5841355272	-0.435721
C	-2.8813080659	-4.0080581376	-0.025136206	 0.133351
O	-3.2014287926	-4.7538685819	-0.9183575087	-0.257759
H	 0.9749545997	 1.5900092126	-0.6657353926	 0.136186
H	-0.7972886291	 1.8577541277	-0.7541476848	 0.14832
H	-0.0059088852	 1.7209292249	 0.8312054467	 0.141721
H	-0.5684180246	-2.4211564657	-0.5235973389	 0.138081
H	-1.0838759504	-2.4357399909	 1.1759931804	 0.1316
H	-3.4434533756	-2.0140775311	 0.421269982	 0.122421
H	-3.2108967888	-3.0252621383	-2.0203875002	 0.295814
H	-2.6935709261	-4.3749718318	 1.0050730191	 0.099726
35.4183	59.4334	90.9439	114.5907	165.2982	195.5001	276.4709	299.3057	338.8562	379.1975	425.011	495.9584	613.6901	703.4195	771.8416	844.2427	891.1583	911.5677	1001.8163	1029.1569	1082.6113	1144.9899	1178.7959	1200.2195	1215.4275	1243.3779	1266.4188	1331.5435	1370.4138	1402.4433	1439.7289	1452.1498	1474.3059	1481.4199	1495.9271	1814.999	1821.2111	2925.1452	2964.7738	3037.7806	3055.1157	3123.0667	3131.8068	3163.4199	3693.6515
COC(=O)CC(O)C=O	COC(=O)C[C@@H](O)C=O	
InChI=1S/C5H8O4/c1-9-5(8)2-4(7)3-6/h3-4,7H,2H2,1H3	InChI=1S/C5H8O4/c1-9-5(8)2-4(7)3-6/h3-4,7H,2H2,1H3/t4-/m1/s1
