20
gdb 59921	3.33167	0.86957	0.80278	5.0156	79.48	-0.2397	-0.019	0.2207	1507.8024	0.170609	-436.486351	-436.476403	-436.475459	-436.521629	35.558	
C	-0.3904234165	 1.3072061416	 0.0194035271	-0.318134
N	-0.2664037515	-0.1408136494	-0.0933370737	-0.079721
C	 1.1295248149	-0.5466526855	-0.2371645347	-0.326112
C	-0.9232227313	-0.8447881223	 1.00614422	-0.20945
C	-1.2275812525	-2.2968753789	 0.6663985687	 0.333045
N	-1.1744616848	-3.1970022462	 1.5572501235	-0.500686
N	-1.6019682421	-2.4471687993	-0.6829160432	-0.314264
C	-2.0054627868	-3.597837491	-1.3041122173	 0.161491
O	-2.1455961371	-4.6782843091	-0.7736675755	-0.302601
H	 0.0513153216	 1.7818836797	-0.8621355513	 0.123151
H	-1.4465468598	 1.5885958833	 0.0658698498	 0.123091
H	 0.1145914235	 1.7154419019	 0.9131102143	 0.10493
H	 1.7441659777	-0.2610402647	 0.6349083209	 0.10906
H	 1.1944511012	-1.6320420278	-0.3527858446	 0.135773
H	 1.5600767434	-0.0798296032	-1.1279604968	 0.121936
H	-0.3498068299	-0.8369196536	 1.945256843	 0.120755
H	-1.8790259374	-0.3433258349	 1.2027280866	 0.122467
H	-1.4665194685	-4.0970876616	 1.1737006189	 0.250367
H	-1.4607986407	-1.6098350972	-1.2380594393	 0.254326
H	-2.2019616934	-3.4304577419	-2.3808876963	 0.090576
67.554	83.7534	108.1227	164.7707	240.1052	246.3347	254.0766	263.2818	340.5297	384.5425	385.1545	481.0007	518.5254	610.715	745.9255	785.8907	864.745	926.0909	967.471	1013.3034	1028.4241	1054.759	1067.0784	1093.2564	1123.1102	1175.8546	1190.664	1203.8308	1295.9659	1304.3238	1341.8908	1379.7912	1437.4865	1446.0401	1466.1254	1481.8109	1487.279	1496.0855	1503.1112	1514.0686	1514.7694	1735.4702	1809.2866	2946.1016	2949.6009	2957.3221	2998.0862	3052.9422	3065.9612	3073.0611	3109.4837	3117.4028	3481.6702	3534.8975
CN(C)CC(=N)NC=O	CN(C)CC(=N)NC=O	
InChI=1S/C5H11N3O/c1-8(2)3-5(6)7-4-9/h4H,3H2,1-2H3,(H2,6,7,9)	InChI=1S/C5H11N3O/c1-8(2)3-5(6)7-4-9/h4H,3H2,1-2H3,(H2,6,7,9)
