21
gdb 97950	9.61703	0.39097	0.3905	0.0771	99.31	-0.2377	0.0518	0.2895	2854.6359	0.17939	-349.917884	-349.906106	-349.905162	-349.959955	38.968	
C	 0.086720767	 1.2971216095	-0.5940434524	-0.363024
C	-0.0720064567	 0.1900677163	 0.4641061671	-0.313158
C	-1.4117141573	-0.3886861765	 0.4926500527	 0.118563
C	-2.5290171314	-0.8396963887	 0.505018676	 0.010356
C	-3.8638034645	-1.4263924516	 0.5081486623	-0.341974
C	-3.8929254598	-2.8398977156	-0.133431669	-0.340446
C	-5.2279109511	-3.4258650277	-0.1301497552	 0.032286
C	-6.3427659132	-3.8808647123	-0.1116621441	 0.097379
C	-7.6848379183	-4.4457007221	-0.0971143043	-0.496862
H	 1.1043332306	 1.6990041599	-0.5777630119	 0.11251
H	-0.1146087952	 0.9082781499	-1.5959649517	 0.126502
H	-0.6111553969	 2.1173963738	-0.4052298115	 0.12735
H	 0.6633577654	-0.6029953313	 0.2758410899	 0.126494
H	 0.171872502	 0.5941762481	 1.4552407703	 0.127008
H	-4.2456467971	-1.4969199927	 1.5335685692	 0.134653
H	-4.5641154633	-0.779426057	-0.0333783859	 0.134568
H	-3.5112135315	-2.7690105172	-1.1588593914	 0.134079
H	-3.1924406507	-3.4867836561	 0.4079403753	 0.134512
H	-8.0369585989	-4.6651357129	-1.1112640814	 0.146423
H	-7.7188471986	-5.3801823379	 0.4740486477	 0.146451
H	-8.4027273903	-3.7546121378	 0.3586433284	 0.146329
6.1434	13.4457	37.8825	59.5729	123.3583	134.4482	209.1444	218.4243	284.6085	299.8872	339.0428	389.4586	458.3947	494.5927	519.9201	720.6322	763.5294	785.0905	802.4159	963.1567	999.6236	1029.2855	1054.0072	1056.822	1079.3363	1104.5394	1165.2553	1168.6489	1192.955	1283.3489	1287.1298	1304.5144	1350.9623	1366.4458	1408.0764	1415.4567	1472.8589	1475.7584	1478.9563	1479.5647	1483.7057	1494.4874	1505.6774	2365.9827	2373.3494	3016.9119	3025.0115	3026.0103	3035.4535	3042.808	3043.1896	3051.8239	3074.0904	3084.914	3084.9672	3115.6983	3122.2348
CCC#CCCC#CC	CCC#CCCC#CC	
InChI=1S/C9H12/c1-3-5-7-9-8-6-4-2/h3,8-9H2,1-2H3	InChI=1S/C9H12/c1-3-5-7-9-8-6-4-2/h3,8-9H2,1-2H3
