18
gdb 41279	2.91856	2.07063	1.82527	1.0405	74.48	-0.2228	0.0669	0.2897	845.0334	0.15023	-401.850993	-401.844777	-401.843833	-401.881102	27.063	
C	 0.0415103513	 1.5154565992	-0.1843667883	-0.328571
C	 1.5994704641	 1.5761287235	 0.0634818255	-0.345414
C	 1.5622688345	 0.1440326564	 0.6534654214	 0.238816
N	 1.6538160823	-0.3575989277	 2.0412656702	-0.376488
C	 0.9177165133	-1.5509726778	 1.4603874941	-0.073079
C	-0.496693545	-0.9300455145	 1.2569982161	-0.268203
C	 0.0662037804	 0.0332850972	 0.2111299045	 0.38769
O	 0.4476450991	-0.8818520924	-0.8783963454	-0.337557
C	 1.5268917346	-1.2291827017	-0.0088144895	 0.040532
H	-0.5217513301	 2.1305325028	 0.5218410008	 0.11702
H	-0.3056602611	 1.7212721872	-1.1984703831	 0.117825
H	 2.2072150411	 1.6816414322	-0.8372704003	 0.117732
H	 1.9089833416	 2.3317132821	 0.7876459068	 0.120728
H	 2.6197830083	-0.6407194845	 2.2169957517	 0.214206
H	 1.0306524334	-2.5066262492	 1.9707689279	 0.074461
H	-1.2455631666	-1.6122598215	 0.8515364282	 0.106999
H	-0.844793397	-0.4612341506	 2.1780376616	 0.115352
H	 2.3250890558	-1.8400837006	-0.4394558422	 0.077947
186.8709	294.6455	374.5536	471.751	499.3562	519.0635	634.357	684.9798	691.7303	720.2511	759.7369	819.4093	834.5338	869.4272	882.9324	895.9866	913.463	946.0271	970.6898	997.616	1022.357	1059.4114	1118.6162	1130.5965	1147.5581	1183.4802	1185.4039	1195.4422	1220.3836	1246.6821	1250.7946	1270.8883	1294.3217	1313.4516	1328.9192	1335.3636	1452.4912	1463.5463	1469.3476	3069.2803	3077.0158	3079.3015	3084.1838	3123.0584	3133.2204	3139.0487	3149.5231	3432.096
C1CC23NC4CC12OC34	C1C[C@@]23N[C@H]4C[C@@]12O[C@@H]34	
InChI=1S/C7H9NO/c1-2-7-5-4(8-7)3-6(1,7)9-5/h4-5,8H,1-3H2	InChI=1S/C7H9NO/c1-2-7-5-4(8-7)3-6(1,7)9-5/h4-5,8H,1-3H2/t4-,5+,6-,7-/m0/s1
