17
gdb 53247	7.32852	0.64787	0.62615	2.7185	79.36	-0.2456	-0.0326	0.213	1764.1546	0.132759	-421.78678	-421.776981	-421.776037	-421.824146	32.681	
C	 0.4619997694	 1.5661437014	-0.3596003264	-0.498344
C	 0.2623734037	 0.1495031004	-0.0954635096	 0.06404
C	 0.0934040315	-1.0239929831	 0.116902501	 0.09637
C	-0.1015310677	-2.4356280244	 0.3793428728	-0.041218
C	-0.3440242413	-2.8683399594	 1.8533639622	-0.307361
C	-1.6839336763	-3.404077401	 1.3286594049	 0.060439
O	-1.4276147719	-2.9216266947	-0.0082533038	-0.303821
C	-1.8616220613	-4.9105681376	 1.320111809	 0.131544
O	-1.4082074435	-5.6522411604	 2.1525867593	-0.235248
H	 1.3677183117	 1.7374802947	-0.9512575421	 0.152936
H	-0.3837089937	 1.9810404911	-0.9187996474	 0.156766
H	 0.5563739513	 2.1363645872	 0.5709280734	 0.151512
H	 0.6709067787	-3.0263726769	-0.1289214739	 0.110194
H	 0.3283228808	-3.6319539094	 2.2442906226	 0.135475
H	-0.4190278708	-2.0382105153	 2.5536469913	 0.125524
H	-2.589635152	-2.9490470655	 1.7575596741	 0.107546
H	-2.4505878185	-5.281062877	 0.4513387128	 0.093646
28.3421	30.7141	71.1356	82.2877	145.9965	212.298	285.9289	317.197	372.9424	487.4583	517.0936	595.8945	695.1437	773.9489	875.5683	908.1269	941.5392	964.0593	1035.3814	1049.3852	1050.207	1057.9708	1085.8433	1150.3613	1189.6282	1246.2975	1251.179	1284.839	1343.1472	1378.8317	1402.1943	1413.4263	1475.1367	1477.5141	1490.2858	1831.9627	2368.4229	2891.1727	2993.3507	3022.5266	3029.7744	3091.8971	3093.1491	3101.2438	3163.8769
CC#CC1CC(O1)C=O	CC#C[C@H]1C[C@@H](O1)C=O	
InChI=1S/C7H8O2/c1-2-3-6-4-7(5-8)9-6/h5-7H,4H2,1H3	InChI=1S/C7H8O2/c1-2-3-6-4-7(5-8)9-6/h5-7H,4H2,1H3/t6-,7+/m0/s1
