16
gdb 19066	5.30874	1.67098	1.65489	1.5446	63.33	-0.2431	0.0794	0.3225	817.4539	0.131972	-383.678902	-383.672767	-383.671822	-383.708782	25.336	
O	-0.0543583519	 1.3412616885	-0.0596187418	-0.441211
C	 0.0221602007	-0.0554200247	-0.0210238065	 0.084902
C	-0.4192709846	-0.7330814504	 1.2614688317	-0.114116
C	-1.3151635527	-0.7304525112	 0.0252451923	-0.075241
C	-1.3247431496	-2.2512807763	-0.2345222254	 0.045114
C	-1.6133073025	-2.8378845545	 1.1741275278	-0.214045
C	-0.1848057199	-2.2551895075	 1.3516881995	 0.046677
O	 0.0746951093	-2.6288510467	-0.0390224512	-0.29239
H	 0.752346932	 1.6898315681	 0.3336495992	 0.286789
H	 0.821318819	-0.5016936017	-0.6059964929	 0.108834
H	-0.6334394961	-0.1394850012	 2.1413855561	 0.092972
H	-2.218034372	-0.1382079704	-0.0503985983	 0.100702
H	-1.764428071	-2.6367419774	-1.15392395	 0.084877
H	-2.4332053312	-2.4206724564	 1.7645634087	 0.095598
H	-1.6184500807	-3.9292838886	 1.1740207474	 0.10824
H	 0.545212151	-2.6473930695	 2.0594268834	 0.082299
225.3227	268.6257	314.0259	382.6786	430.4056	473.1673	640.0918	704.4243	792.4507	843.4336	855.6015	859.9215	862.0313	935.6414	943.1408	951.1516	956.9782	1023.9403	1069.0559	1081.0458	1095.1459	1103.4879	1144.9716	1165.463	1175.3336	1219.9431	1248.0972	1260.9489	1269.3996	1277.8342	1298.4647	1320.7819	1447.3385	1482.3572	3063.8174	3123.528	3127.3554	3140.0528	3144.6432	3193.2496	3203.3463	3810.1323
OC1C2C1C1CC2O1	O[C@H]1[C@H]2[C@@H]1[C@@H]1C[C@H]2O1	
InChI=1S/C6H8O2/c7-6-4-2-1-3(8-2)5(4)6/h2-7H,1H2	InChI=1S/C6H8O2/c7-6-4-2-1-3(8-2)5(4)6/h2-7H,1H2/t2-,3+,4-,5+,6+
