21
gdb 32081	2.88055	1.13958	0.87904	0.2932	94.22	-0.2305	0.0064	0.2369	1403.8861	0.183522	-350.040171	-350.030964	-350.03002	-350.075407	34.103	
C	-0.0456700684	 1.5644084492	-0.0343363601	-0.363033
C	 0.0072500198	 0.0269572016	-0.0045913068	-0.287991
C	 0.7371929788	-0.5087078158	 1.2070384286	 0.334107
C	 2.1183632217	-0.7191733867	 1.1766971927	-0.212868
C	 2.7864700692	-1.182693985	 2.3059523923	-0.087651
C	 2.0845465674	-1.4413349315	 3.4794661932	-0.206599
C	 0.7032870697	-1.2383613302	 3.5396248706	 0.330692
C	-0.0624814757	-1.4931130453	 4.8153253405	-0.491857
C	 0.0507168681	-0.7766521955	 2.3939487189	-0.286155
H	 0.9627491422	 1.9901714698	-0.0473183097	 0.120024
H	-0.5777853194	 1.9221927923	-0.9216807168	 0.11039
H	-0.5579745678	 1.9550283938	 0.8506938891	 0.119381
H	-1.0147297231	-0.3690419766	-0.0214693696	 0.10073
H	 0.4974069603	-0.3340116414	-0.9161965557	 0.100822
H	 2.66972064	-0.5268096271	 0.2606742798	 0.085418
H	 3.8579901326	-1.3522704535	 2.2690847495	 0.091058
H	 2.6105841656	-1.8096852086	 4.3554251327	 0.085644
H	-0.1008176439	-0.5937675738	 5.4427656449	 0.132307
H	-1.0959051792	-1.7878757675	 4.6102367338	 0.123515
H	 0.4043285166	-2.2827942347	 5.4114764289	 0.123697
H	-1.0262437446	-0.6264386533	 2.4248612532	 0.078368
35.4539	42.8629	132.6542	212.1761	213.999	289.6806	312.1992	403.8874	451.0887	517.37	531.5573	600.7286	722.3873	732.4873	790.7755	806.8041	894.0912	900.4835	911.256	960.8982	983.0422	1013.6466	1016.3171	1062.1211	1074.5614	1084.4405	1125.7896	1181.8352	1195.9621	1267.7772	1273.6202	1334.4251	1343.9515	1352.7994	1409.1101	1412.9206	1459.0214	1486.3182	1488.1438	1496.6346	1498.6345	1507.9445	1523.5314	1627.7498	1647.0996	3026.1389	3030.275	3033.4693	3065.4507	3083.7776	3105.1901	3109.1062	3111.5956	3148.2361	3159.1899	3167.2858	3186.6861
CCC1=CC=CC(C)=C1	CCc1cccc(C)c1	
InChI=1S/C9H12/c1-3-9-6-4-5-8(2)7-9/h4-7H,3H2,1-2H3	InChI=1S/C9H12/c1-3-9-6-4-5-8(2)7-9/h4-7H,3H2,1-2H3
