22
gdb 109869	2.31945	1.43037	1.04681	2.8505	81.98	-0.2316	0.0705	0.302	1248.2982	0.193806	-404.315745	-404.306254	-404.30531	-404.349672	36.447	
C	 0.0207157456	 1.603762369	 0.061865202	-0.384908
C	-0.1619871784	 0.0937748372	-0.1290492655	-0.193527
C	 0.6878734158	-0.465515062	-1.2634774199	-0.067758
C	 2.2704154068	-0.5124420852	-1.1000858674	 0.135062
O	 2.8215299583	-0.1789054051	 0.1454695125	-0.433583
C	 2.2077879345	-2.0109287055	-1.4197058144	-0.151035
N	 1.3901155391	-2.5639957136	-0.302698389	-0.396935
C	 0.721066451	-1.9854740882	-1.5015372751	 0.334437
C	-0.231380673	-2.788520347	-2.3322848352	-0.511149
H	 1.0604401646	 1.8335321825	 0.3095881875	 0.138934
H	-0.2422011333	 2.1546633798	-0.8487749804	 0.103825
H	-0.613804632	 1.9796849772	 0.8707509133	 0.105619
H	 0.0860702453	-0.4319167528	 0.7987177422	 0.102894
H	-1.2177522033	-0.1299312513	-0.3341150222	 0.086621
H	 0.4468837613	 0.0454151565	-2.2037928475	 0.06394
H	 2.7865747146	 0.0852998637	-1.8538492675	 0.084186
H	 2.5074904959	-0.8649037955	 0.7514562407	 0.292327
H	 2.9341397384	-2.6329356851	-1.9302295262	 0.089661
H	 1.3830139762	-3.577964229	-0.404163245	 0.227016
H	-1.2070392981	-2.8816522809	-1.8412404024	 0.131134
H	-0.3941558023	-2.3140236027	-3.3059682347	 0.127042
H	 0.150595443	-3.8000113921	-2.5109605456	 0.116197
93.438	120.3359	158.0492	208.2665	220.055	237.8884	274.0313	320.26	348.0558	496.5919	519.1373	549.9674	598.9601	676.3438	707.0382	760.1693	823.6042	844.349	911.0889	922.2184	961.2412	976.0731	1007.8585	1027.8119	1055.6653	1094.7215	1097.5973	1119.7802	1145.5831	1162.3541	1200.6743	1235.0491	1265.673	1291.9615	1305.2022	1329.834	1355.4921	1379.5797	1404.9816	1411.6111	1443.5056	1457.2644	1483.3273	1490.3623	1498.5784	1500.2697	1513.7042	3016.3122	3022.9978	3029.8494	3032.2644	3070.9484	3085.8812	3094.1428	3094.6416	3096.4784	3121.373	3179.1876	3479.5615	3741.6185
CCC1C(O)C2NC12C	CC[C@H]1[C@@H](O)[C@H]2N[C@@]12C	
InChI=1S/C7H13NO/c1-3-4-5(9)6-7(4,2)8-6/h4-6,8-9H,3H2,1-2H3	InChI=1S/C7H13NO/c1-3-4-5(9)6-7(4,2)8-6/h4-6,8-9H,3H2,1-2H3/t4-,5+,6+,7-/m0/s1
