21
gdb 109946	2.26434	1.34456	1.00508	1.1231	78.34	-0.2558	0.0541	0.3099	1266.324	0.180786	-424.193193	-424.183671	-424.182726	-424.227747	35.7	
C	 0.1054264801	 1.5595283986	 0.1188317898	-0.385346
C	-0.0667719946	 0.0384619037	 0.0498218452	-0.1978
C	 0.6570220256	-0.5868112667	-1.1350591825	-0.084369
C	 2.2292220468	-0.6294607614	-1.1472862137	 0.114057
O	 2.8515405647	-0.5168221356	 0.1168420513	-0.427948
C	 2.1645322952	-2.0759557763	-1.7251674973	-0.355145
C	 0.6895113253	-2.1116730033	-1.3157751139	 0.426973
C	-0.0313639435	-3.1486980613	-0.5694982344	-0.274876
O	-0.3133396134	-2.8785889955	-1.9502193143	-0.27389
H	 1.1608435874	 1.8217346824	 0.2366921267	 0.135193
H	-0.2652348928	 2.041666372	-0.7925181339	 0.113112
H	-0.4437134444	 1.9816230737	 0.966046907	 0.111014
H	 0.2993452847	-0.4089093026	 0.9821783089	 0.082229
H	-1.1325421191	-0.2157811352	-0.0146729395	 0.10299
H	 0.3064805358	-0.1326618116	-2.0706502185	 0.084823
H	 2.7169569732	 0.1164850573	-1.7763072954	 0.091568
H	 2.5238405288	-1.2212545707	 0.6859348701	 0.28209
H	 2.2827544465	-2.1025269717	-2.8123100828	 0.119737
H	 2.8463699765	-2.8030262915	-1.2753797359	 0.10563
H	 0.4506645243	-4.105822476	-0.3708544517	 0.113172
H	-0.820939737	-2.8731154282	 0.1284237749	 0.116788
58.7833	86.2588	145.8907	201.407	262.1093	269.0013	285.6048	310.4988	350.0666	399.73	484.3627	517.8813	631.1681	732.8387	809.3434	821.5775	837.5082	886.4577	905.3255	935.4177	979.8226	994.1387	1028.4177	1076.1592	1093.3365	1126.8271	1142.0231	1154.1135	1164.602	1186.8665	1208.3503	1241.0561	1268.6689	1291.4469	1312.7205	1335.4184	1389.7992	1408.3394	1418.545	1438.9992	1471.0536	1484.6332	1498.8592	1510.0567	1533.6215	3019.842	3028.2913	3034.3229	3053.6838	3055.031	3076.3316	3100.3321	3100.8508	3111.5419	3115.2318	3162.7768	3808.4459
CCC1C(O)CC11CO1	CC[C@H]1[C@@H](O)C[C@]21CO2	
InChI=1S/C7H12O2/c1-2-5-6(8)3-7(5)4-9-7/h5-6,8H,2-4H2,1H3	InChI=1S/C7H12O2/c1-2-5-6(8)3-7(5)4-9-7/h5-6,8H,2-4H2,1H3/t5-,6-,7+/m0/s1
