18
gdb 18250	4.28034	1.59103	1.31827	1.7293	71.96	-0.244	0.0002	0.2442	972.8516	0.154359	-347.79329	-347.785902	-347.784958	-347.825032	28.299	
C	-0.0870094852	 1.5600759351	 0.077540786	-0.388893
C	-0.0609221684	 0.0327689643	-0.026799539	-0.171269
C	 0.7309987815	-0.5035279943	-1.2361235969	-0.0589
C	 2.220822584	-0.1934153628	-1.2189684224	-0.079802
C	 2.9778031376	-1.2880073951	-1.3316328013	-0.091416
C	 2.1134210274	-2.5048842776	-1.3921612146	-0.003998
O	 1.3111359864	-2.6908570533	-0.1992697222	-0.258949
C	 0.7223704817	-2.0314472541	-1.323851736	 0.021821
H	 0.9150820559	 1.9751432281	 0.2257750239	 0.118072
H	-0.504437877	 2.0152946326	-0.827953989	 0.112212
H	-0.7023296622	 1.8817735034	 0.9234194781	 0.115698
H	 0.36544285	-0.4048594787	 0.8816988327	 0.118941
H	-1.0901318956	-0.3409483332	-0.0988682015	 0.095833
H	 0.2791053919	-0.0928660399	-2.1521001209	 0.08007
H	 2.6000595399	 0.8145937203	-1.0950425581	 0.102379
H	 4.0602957854	-1.319077199	-1.3455335168	 0.100903
H	 2.4223432878	-3.4221958789	-1.8838093648	 0.095681
H	-0.1140394412	-2.553171917	-1.7824881472	 0.091617
85.8625	143.0872	193.9676	251.7924	327.9894	421.6644	476.9558	560.7954	711.0165	746.1808	760.9511	822.7456	836.0315	867.2685	873.6962	936.2401	959.5991	979.5286	984.2433	1033.9794	1060.06	1106.4564	1117.7836	1126.7142	1146.7526	1253.1532	1268.14	1287.4776	1299.9252	1334.7478	1367.405	1379.657	1412.2024	1416.926	1490.3399	1501.0372	1507.8907	1659.6069	2990.0255	3027.8933	3031.4726	3075.8251	3100.9259	3104.8037	3140.507	3165.1632	3191.1893	3218.2425
CCC1C=CC2OC12	CC[C@H]1C=C[C@H]2O[C@@H]12	
InChI=1S/C7H10O/c1-2-5-3-4-6-7(5)8-6/h3-7H,2H2,1H3	InChI=1S/C7H10O/c1-2-5-3-4-6-7(5)8-6/h3-7H,2H2,1H3/t5-,6+,7-/m0/s1
