17
gdb 33577	2.2651	1.49067	1.18646	4.8842	75.95	-0.3266	-0.0084	0.3182	1101.6414	0.137546	-380.911398	-380.902862	-380.901918	-380.945281	30.847	
N	 0.5556282179	-1.0265109742	 0.4324134946	-0.328162
C	 0.2899407926	 0.0748936334	 0.2077405968	 0.294576
C	-0.0168737723	 1.4958812258	-0.0262178529	-0.044275
C	-0.7250554526	 2.1056337516	 1.2244523663	-0.227064
C	 0.4177613165	 2.3274089365	 2.2368785098	-0.223351
C	 1.7219818783	 2.4707229423	 1.3978843735	-0.223387
C	 1.3026099494	 2.3286716761	-0.0800396915	-0.227045
C	-0.8174012144	 1.6339606852	-1.2470340404	 0.264671
N	-1.4485468673	 1.7869930712	-2.2020438376	-0.326246
H	-1.1693148306	 3.0549291754	 0.9119618421	 0.1324
H	-1.527150761	 1.4648708986	 1.5939252311	 0.137937
H	 0.2205052073	 3.2071422337	 2.8532216023	 0.118249
H	 0.4943752206	 1.4734835281	 2.9141976249	 0.131554
H	 2.2222169663	 3.4268775678	 1.5659157936	 0.118254
H	 2.4337493136	 1.6863748811	 1.6662542712	 0.13156
H	 2.0576893588	 1.8592098058	-0.7124062053	 0.137934
H	 1.0529014969	 3.2993935515	-0.5176664685	 0.132396
49.641	120.4012	137.1842	157.4064	193.533	293.7381	437.746	503.2783	504.1667	572.3728	590.8451	652.2068	685.4464	800.8942	815.2073	886.9532	922.1439	957.03	1009.3494	1045.9371	1050.0422	1091.6665	1094.103	1217.7099	1226.5016	1262.2576	1262.9653	1309.5611	1336.9707	1346.048	1355.1078	1482.6633	1492.6391	1495.7848	1515.9067	2360.3991	2366.729	3067.3218	3068.2723	3070.793	3078.1554	3102.5184	3119.8301	3130.7411	3135.4961
N#CC1(CCCC1)C#N	N#CC1(CCCC1)C#N	
InChI=1S/C7H8N2/c8-5-7(6-9)3-1-2-4-7/h1-4H2	InChI=1S/C7H8N2/c8-5-7(6-9)3-1-2-4-7/h1-4H2
