18
gdb 46191	3.05542	1.6317	1.22954	2.403	77.05	-0.2354	-0.0292	0.2062	1026.7414	0.148865	-401.887925	-401.880618	-401.879674	-401.919745	29.047	
O	-0.0792196138	 0.0284938551	-0.2474439948	-0.297748
C	-0.0742039302	 1.2071260327	-0.041028219	 0.293873
C	-1.1404513231	 2.2506051518	 0.3341862782	-0.284694
N	-0.0523217891	 3.2573612994	 0.4616495161	-0.411847
C	 0.9797630737	 2.3182791022	-0.0394426297	 0.312367
C	 2.4101875013	 2.2229242133	 0.5683886534	-0.087814
C	 2.8061024887	 1.4255132418	-0.7090428308	-0.231632
C	 1.9522399607	 2.6215006334	-1.2214557961	-0.1197
C	 2.7421021106	 3.5229750046	-0.22212063	-0.234969
H	-1.8638981576	 2.4239490833	-0.4730090743	 0.125033
H	-1.6879401155	 2.0596287519	 1.2631307232	 0.133861
H	-0.186071744	 4.0717855895	-0.1264453575	 0.224645
H	 2.6545969044	 1.9918494245	 1.6050900282	 0.081561
H	 3.8652238916	 1.460355075	-0.9747662102	 0.094
H	 2.3836926643	 0.4274089145	-0.8240158782	 0.13011
H	 1.6698114761	 2.8483121787	-2.2511387927	 0.07613
H	 2.2607458135	 4.4423691057	 0.1173548905	 0.101348
H	 3.7971785583	 3.6876271125	-0.4584290061	 0.095477
99.2613	140.8548	197.9415	329.4004	355.5072	467.2979	525.3245	567.0448	615.2212	682.3963	753.1545	800.4287	815.366	867.2763	900.8036	902.5531	968.4082	995.363	1016.3534	1023.8977	1037.5827	1053.8217	1084.1293	1091.0078	1108.8951	1117.3749	1170.7837	1187.9075	1200.1501	1210.6508	1237.0818	1247.7909	1268.6048	1276.9025	1362.489	1475.0787	1500.3203	1535.6352	1895.4013	3022.7368	3055.3936	3070.0722	3075.477	3097.5876	3118.2783	3124.1977	3152.0693	3542.8382
O=C1CNC11C2CC1C2	O=C1CN[C@]21[C@H]1C[C@@H]2C1	
InChI=1S/C7H9NO/c9-6-3-8-7(6)4-1-5(7)2-4/h4-5,8H,1-3H2	InChI=1S/C7H9NO/c9-6-3-8-7(6)4-1-5(7)2-4/h4-5,8H,1-3H2/t4-,5+,7-
