20
gdb 116402	2.77663	1.33134	0.95475	4.6688	76.07	-0.2232	0.0097	0.2329	1256.8962	0.172286	-440.314186	-440.30532	-440.304376	-440.348143	32.958	
C	-0.1780384187	 1.390237365	 0.1135445026	-0.326943
N	 0.010334974	-0.0581863203	 0.0480227509	-0.285727
C	 0.6239211985	-0.5546575876	-1.174261576	-0.090308
C	 1.2928323829	-1.9114683792	-0.9255977616	-0.242656
C	 1.7721776233	-2.5068382508	-2.2464445387	-0.230586
C	 0.5813077487	-2.6709295899	-3.1759209427	-0.059635
O	-0.184316149	-1.4665986275	-3.3430660747	-0.231162
C	-0.4004294425	-0.5940600046	-2.3242664865	 0.435993
O	-1.3148031096	 0.1776773252	-2.4172758645	-0.313793
H	 0.7485397043	 1.9634881668	-0.0739262498	 0.085588
H	-0.9215708651	 1.6914163463	-0.6241570115	 0.162764
H	-0.547087769	 1.6544359072	 1.1087129927	 0.112641
H	 0.5899634539	-0.3512150929	 0.8269511877	 0.215494
H	 1.4085196696	 0.1344823329	-1.5545273248	 0.086049
H	 2.1244421427	-1.7817893921	-0.2237087795	 0.101765
H	 0.5689388671	-2.5833159965	-0.4467494939	 0.118329
H	 2.5201745876	-1.8517728255	-2.7090840469	 0.113357
H	 2.24353505	-3.4838331125	-2.096207066	 0.109953
H	 0.8869038476	-2.9569736511	-4.1853684811	 0.122808
H	-0.0933354563	-3.4491413929	-2.7946152458	 0.11607
54.6759	118.7052	142.5147	209.2744	235.2241	302.8478	334.8914	386.812	428.3288	474.996	540.8508	592.1396	674.8819	734.3289	805.0047	900.5112	913.968	937.6562	975.885	1020.9436	1078.6886	1104.2407	1109.9457	1148.0612	1155.2528	1180.4503	1198.0097	1228.5006	1263.87	1296.9997	1320.6027	1351.8013	1382.7076	1383.2075	1426.5929	1452.3308	1482.0589	1484.3317	1499.9733	1508.1087	1517.0649	1529.2448	1840.5853	2867.6244	2937.2151	3019.7389	3025.8403	3035.9779	3068.4274	3083.3823	3085.052	3099.1713	3153.3085	3522.1166
CNC1CCCOC1=O	CN[C@H]1CCCOC1=O	
InChI=1S/C6H11NO2/c1-7-5-3-2-4-9-6(5)8/h5,7H,2-4H2,1H3	InChI=1S/C6H11NO2/c1-7-5-3-2-4-9-6(5)8/h5,7H,2-4H2,1H3/t5-/m0/s1
