21
gdb 81090	1.91062	1.57545	1.17099	2.9418	84.6	-0.2414	-0.0264	0.2149	1192.1963	0.181512	-387.052559	-387.043363	-387.042419	-387.086525	34.606	
C	-0.1385261828	 1.6575506249	 0.1045861708	-0.44307
C	 0.0009810468	 0.1420635173	 0.0988444467	 0.004865
C	 1.1423651635	-0.5847458186	-0.6861770963	-0.081211
C	 2.1408330237	-0.1261269173	 0.4188634274	-0.276916
C	 0.8767650997	-0.6097805678	 1.1768511725	 0.239505
C	 0.6515944494	-0.6402071226	 2.6462697483	 0.021265
O	 1.4511018192	-0.2681644612	 3.4708792361	-0.248741
C	 0.8782173369	-1.8501735896	 0.1955453342	 0.013515
C	-0.3214664826	-2.7641852171	-0.0057092025	-0.452103
H	 0.8017925755	 2.1887007564	 0.2653856995	 0.126505
H	-0.5505564346	 1.9959683637	-0.8528748351	 0.120756
H	-0.835917152	 1.9756371896	 0.8872401561	 0.122227
H	-0.986670208	-0.2995232991	-0.0481405209	 0.068501
H	 1.3068301768	-0.5660553102	-1.7653855957	 0.070419
H	 3.0371415248	-0.7372090245	 0.5475085553	 0.099358
H	 2.3828840303	 0.9334768368	 0.4775082374	 0.102922
H	-0.3423451879	-1.0427689759	 2.955355838	 0.065154
H	 1.7772871869	-2.4614534616	 0.3312613735	 0.075446
H	-1.2700055364	-2.2389681457	-0.1382325223	 0.123674
H	-0.1646326044	-3.3858822555	-0.8943173264	 0.124384
H	-0.4340194648	-3.4427986521	 0.8466673234	 0.123542
62.5611	148.1093	171.3825	179.6439	196.8573	253.3483	258.7177	367.3346	398.9596	478.3232	550.6441	591.0017	698.9967	734.8853	766.3904	813.2293	830.8818	927.6973	973.3312	1012.557	1017.6217	1026.3247	1044.0873	1065.3363	1102.3348	1122.5058	1141.8844	1154.5007	1167.1227	1183.2918	1220.5095	1233.8525	1242.1434	1300.7057	1400.4695	1414.6368	1419.7824	1428.6209	1432.9919	1494.6877	1496.0286	1496.7131	1505.0333	1537.2852	1811.0201	2847.0609	3035.0407	3035.7859	3043.6839	3077.399	3081.0193	3090.2602	3091.9198	3094.9194	3119.8229	3127.1342	3156.0174
CC1C2CC1(C=O)C2C	C[C@H]1[C@H]2C[C@]1(C=O)[C@H]2C	
InChI=1S/C8H12O/c1-5-7-3-8(5,4-9)6(7)2/h4-7H,3H2,1-2H3	InChI=1S/C8H12O/c1-5-7-3-8(5,4-9)6(7)2/h4-7H,3H2,1-2H3/t5-,6-,7-,8-/m0/s1
