21
gdb 89473	2.7954	1.51055	1.34938	1.1605	76.89	-0.2414	0.0695	0.311	1059.8022	0.184037	-424.244174	-424.236053	-424.235109	-424.276293	33.047	
C	 0.0186271924	 1.4773224283	 0.0757509603	-0.471408
C	-0.0205651514	-0.0286934141	-0.047571879	 0.416704
C	 0.6186806952	-0.6422742753	-1.3129248681	-0.287784
C	 0.0976916965	-2.1169071711	-1.2822730814	 0.158853
O	 1.0965303356	-3.1127786675	-1.3845885119	-0.449456
C	-0.7407694558	-2.1455567204	 0.0272263932	-0.075165
C	 0.2102639759	-1.9607380074	 1.214455658	-0.089264
O	 0.6698586996	-0.6043330279	 1.0882178852	-0.315423
C	-1.3843024297	-0.747034134	-0.0052904688	-0.26446
H	 1.0523937719	 1.836179539	 0.0852419971	 0.125026
H	-0.4993488002	 1.9463238159	-0.7663037044	 0.113963
H	-0.4604607079	 1.798609564	 1.0050881957	 0.121758
H	 0.3154424334	-0.1181653987	-2.2245019033	 0.097656
H	 1.7106475719	-0.6039900609	-1.2521336981	 0.09888
H	-0.5670146568	-2.3069670943	-2.1304271378	 0.086299
H	 1.8253930351	-2.8715185197	-0.8038313196	 0.283384
H	-1.4015901945	-3.0087406453	 0.1125218154	 0.069328
H	-0.3017001455	-2.091538341	 2.1771914426	 0.096504
H	 1.0621817773	-2.6520541416	 1.1958384262	 0.086672
H	-1.9617866744	-0.5033181096	 0.8907252597	 0.100789
H	-1.9957278587	-0.5662921784	-0.8940420309	 0.097143
104.0964	211.7692	241.9358	273.7273	307.526	323.2297	407.6576	432.9661	458.7789	519.7105	570.4431	619.9105	756.1797	795.733	826.9633	870.2236	889.1804	913.4905	954.8662	958.1851	962.0365	1009.4761	1039.4784	1051.4871	1073.7812	1115.2718	1132.398	1164.9189	1206.1461	1213.2195	1225.1104	1246.94	1271.5195	1288.0402	1309.7119	1348.2285	1354.6191	1377.6505	1414.8523	1435.4909	1472.9239	1483.1756	1492.8625	1495.7643	1544.5522	3008.339	3038.9473	3039.6576	3047.258	3055.1742	3060.8133	3096.674	3109.1772	3111.6456	3114.4708	3117.0358	3817.3948
CC12CC(O)C(CO1)C2	C[C@@]12C[C@@H](O)[C@@H](CO1)C2	
InChI=1S/C7H12O2/c1-7-2-5(4-9-7)6(8)3-7/h5-6,8H,2-4H2,1H3	InChI=1S/C7H12O2/c1-7-2-5(4-9-7)6(8)3-7/h5-6,8H,2-4H2,1H3/t5-,6-,7-/m1/s1
