18
gdb 46940	2.75606	1.81778	1.3572	3.7111	75.14	-0.2409	-0.0257	0.2152	967.2813	0.150512	-401.931042	-401.92419	-401.923246	-401.962277	27.868	
O	 0.0628470129	-0.0655874384	-0.0380946689	-0.322265
C	-0.0368174059	 1.14222582	-0.0405349027	 0.400806
C	-1.3978770538	 1.8253386998	-0.1362557971	-0.327385
C	-1.3615688821	 3.224954021	-0.7758916927	-0.230852
C	-0.1566976796	 4.0277084747	-0.2824131662	-0.042567
C	 0.2258723398	 3.8779878933	 1.2168142065	-0.169552
N	 1.5014668545	 3.1524389245	 0.8862102006	-0.148326
C	 1.2029463252	 3.3695052965	-0.5686259163	-0.059371
C	 1.2018807603	 1.9909709992	-0.0147480046	-0.111327
H	-2.0640312606	 1.1426126902	-0.6702336492	 0.127517
H	-1.7926173873	 1.8911578317	 0.8862345984	 0.133179
H	-1.3029765314	 3.1353868924	-1.8679674809	 0.111035
H	-2.2945235584	 3.7556830352	-0.5554364683	 0.105176
H	-0.2116756589	 5.0671221161	-0.6106460056	 0.085503
H	 0.493824142	 4.8280133704	 1.6835152729	 0.119708
H	-0.4514192775	 3.3401254684	 1.8857062365	 0.109344
H	 1.9551922406	 3.711052189	-1.272558627	 0.102644
H	 2.0983553302	 1.3959894658	-0.1553906151	 0.116733
90.4418	233.4514	301.4279	342.4915	433.19	470.357	509.2876	568.85	664.7898	719.1268	753.5529	785.4208	800.8934	863.3359	902.8676	923.8072	977.0361	988.471	1007.0582	1037.0213	1057.1639	1086.8556	1101.9072	1174.4345	1175.2549	1193.1689	1214.6015	1270.4808	1276.7661	1289.4795	1320.7213	1334.1945	1356.1916	1381.2907	1385.5329	1459.7298	1491.3075	1507.7048	1789.3112	3026.3595	3028.4865	3062.8644	3067.3344	3091.4072	3098.7562	3116.5333	3160.4306	3176.1462
O=C1CCC2CN3C2C13	O=C1CC[C@H]2CN3[C@H]2[C@H]13	
InChI=1S/C7H9NO/c9-5-2-1-4-3-8-6(4)7(5)8/h4,6-7H,1-3H2	InChI=1S/C7H9NO/c9-5-2-1-4-3-8-6(4)7(5)8/h4,6-7H,1-3H2/t4-,6+,7-,8?/m0/s1
