20
gdb 12420	2.84329	1.9548	1.42675	2.4664	70.	-0.25	0.0598	0.3097	943.595	0.178948	-386.162844	-386.154895	-386.153951	-386.19453	31.497	
O	 0.0331940305	 1.4187707917	-0.0001531721	-0.450291
C	 0.0354747692	 0.0019489752	 0.0191711678	 0.148314
C	 0.8376984859	-0.5586810431	 1.2030803332	-0.205207
C	 0.8036935518	-2.0942706444	 1.2354107196	-0.203433
C	-0.6403364645	-2.6143914972	 1.2631890833	-0.177161
C	-1.4442354134	-2.0654976097	 0.0760685337	-0.222558
C	-1.4039817572	-0.5334900641	 0.0174369519	 0.08708
O	-2.027489953	 0.0628366946	 1.1634609462	-0.447641
H	-0.61858379	 1.6821023042	 0.6620322348	 0.283316
H	 0.5107399557	-0.3136128881	-0.9184767639	 0.078275
H	 1.8649161172	-0.1859274511	 1.1392448692	 0.095581
H	 0.4082255598	-0.1609862583	 2.1305079573	 0.103011
H	 1.3162079983	-2.4916607139	 0.347643485	 0.090705
H	 1.359428742	-2.4649628452	 2.1036804468	 0.092983
H	-0.6562275846	-3.7095412267	 1.2514858151	 0.08829
H	-1.1222025899	-2.2973333284	 2.1954548621	 0.103681
H	-1.0351203986	-2.4559868881	-0.8657981624	 0.097628
H	-2.4879079242	-2.4029109305	 0.1212069516	 0.082485
H	-1.9007861434	-0.175543165	-0.895999658	 0.06643
H	-2.9761903118	-0.0804730819	 1.1025560789	 0.288511
143.4221	176.1665	240.4225	267.2068	299.4138	360.6172	380.7237	419.7158	444.9619	494.4487	589.0661	662.6569	775.4697	820.93	851.3777	889.08	920.5843	965.5563	996.3544	1027.8996	1065.1176	1083.9543	1097.0384	1120.0846	1145.8114	1195.7534	1225.0178	1258.7705	1278.9841	1305.874	1336.6281	1353.7346	1368.455	1379.0073	1386.9218	1389.5207	1428.6575	1444.4391	1479.6861	1482.2857	1489.031	1501.3288	2992.1144	3008.6542	3014.6112	3030.2799	3033.5837	3038.617	3049.8559	3064.9434	3077.7396	3086.2531	3775.7484	3834.6127
OC1CCCCC1O	O[C@H]1CCCC[C@H]1O	
InChI=1S/C6H12O2/c7-5-3-1-2-4-6(5)8/h5-8H,1-4H2	InChI=1S/C6H12O2/c7-5-3-1-2-4-6(5)8/h5-8H,1-4H2/t5-,6+
