21
gdb 116013	1.82482	1.49156	0.86559	0.9959	81.64	-0.2362	0.0232	0.2594	1367.117	0.182001	-424.222358	-424.212647	-424.211702	-424.25736	35.257	
C	-0.1871440613	 1.4129262472	 0.0181419668	-0.241434
O	 0.035230204	 0.0231712945	-0.0525503137	-0.247912
C	 0.7190885464	-0.5338318551	 1.066524037	 0.037236
C	 0.1611735845	-1.9404783837	 1.371554809	-0.23744
C	 1.3791176972	-2.7907094437	 1.7996988947	-0.260293
C	 2.5440434601	-2.0144937404	 1.2359786069	-0.174482
C	 2.1998573316	-0.7928014451	 0.8259210353	 0.276372
C	 3.1059882101	 0.2401689978	 0.2247643964	-0.174055
O	 4.4138720232	-0.2311685973	-0.049701055	-0.411395
H	 0.7470570119	 1.9946590813	 0.0055628996	 0.103919
H	-0.7766054873	 1.689404404	-0.8601248927	 0.126653
H	-0.7506285714	 1.6906982149	 0.922295623	 0.106836
H	 0.5891636128	 0.1436477494	 1.9275079592	 0.06652
H	-0.6437584002	-1.9241948272	 2.1100997099	 0.096547
H	-0.2555896614	-2.3210359273	 0.434208303	 0.11974
H	 1.4549377355	-2.8664431081	 2.8934009396	 0.107647
H	 1.330503285	-3.8201756952	 1.4266826963	 0.103372
H	 3.556437699	-2.4020521779	 1.2145173412	 0.095023
H	 2.6310346992	 0.65281347	-0.6801461023	 0.106453
H	 3.2333251113	 1.083506899	 0.9174032536	 0.11776
H	 4.3274771499	-0.9593002472	-0.6742307778	 0.282935
79.5373	88.9724	109.5094	160.7695	194.4698	218.0921	296.3254	299.3546	334.7979	391.83	467.9565	551.7332	632.5741	695.4886	812.2647	857.2166	884.3017	935.6267	951.7923	993.5986	1007.0753	1038.3546	1064.6715	1084.7282	1146.1779	1155.2925	1181.6843	1182.3199	1212.715	1225.1068	1239.0986	1264.3604	1302.8853	1326.4219	1331.7115	1383.0246	1391.9535	1416.6072	1479.464	1483.4899	1488.108	1496.8408	1500.8267	1510.9093	1717.7874	2950.7183	2972.9078	2977.6865	3011.5832	3022.0605	3027.917	3049.5236	3064.5425	3108.4079	3111.2588	3195.9532	3808.8382
COC1CCC=C1CO	CO[C@H]1CCC=C1CO	
InChI=1S/C7H12O2/c1-9-7-4-2-3-6(7)5-8/h3,7-8H,2,4-5H2,1H3	InChI=1S/C7H12O2/c1-9-7-4-2-3-6(7)5-8/h3,7-8H,2,4-5H2,1H3/t7-/m0/s1
