21
gdb 114324	2.20478	1.34792	1.18438	0.8196	79.3	-0.245	0.0834	0.3284	1208.6248	0.180528	-424.184374	-424.17462	-424.173676	-424.21865	36.317	
C	-0.0762305481	 1.4400343101	-0.2029507602	-0.237788
O	-0.0491941812	 0.1326168925	 0.3257268451	-0.248681
C	-1.249587766	-0.5732867356	 0.1231336191	 0.069945
C	-1.5622056552	-1.2163360137	-1.2763926003	-0.28108
C	-1.7364066594	-2.5654076274	-0.5710407102	-0.131473
C	-0.4561528198	-2.9864538972	 0.1197550455	-0.065957
C	 0.9510249568	-2.7983435535	-0.4113417718	-0.418905
C	-1.327666877	-1.9466811159	 0.7730470761	 0.332214
O	-1.9172060452	-2.1474581957	 2.0115949146	-0.462243
H	 0.8823366969	 1.9085537559	 0.0331226983	 0.125793
H	-0.2107077317	 1.4416933498	-1.2950807193	 0.108038
H	-0.8850398102	 2.0397611796	 0.2434266914	 0.105428
H	-2.1050257957	 0.0334142808	 0.4559884668	 0.077809
H	-2.4774208918	-0.8300863551	-1.7295366387	 0.102564
H	-0.7525054729	-1.1619416182	-2.0093919943	 0.101291
H	-2.5337352312	-3.2719189787	-0.7646801129	 0.091676
H	-0.605217812	-3.9394987662	 0.6265977405	 0.087015
H	 1.1096387451	-1.7957765537	-0.8094915967	 0.135195
H	 1.6843415729	-2.9451869979	 0.3893353455	 0.111931
H	 1.1705422752	-3.5280120915	-1.1992270464	 0.109564
H	-1.2180030494	-2.1962946085	 2.6722782481	 0.287664
90.3384	122.7037	166.8114	172.3362	208.3263	230.1169	259.2688	285.1351	313.6503	388.5751	462.6558	508.2407	570.5416	640.722	739.2153	761.7139	834.6739	898.5147	952.1991	964.287	1005.3733	1030.7317	1047.2714	1075.3953	1118.833	1130.9227	1142.5296	1173.5661	1183.7287	1191.7256	1228.7088	1236.0357	1243.365	1303.5946	1324.1457	1345.2606	1391.3197	1414.8969	1463.1987	1479.2456	1486.3898	1492.811	1503.4706	1505.2293	1509.9788	2974.0497	2994.5691	3022.6596	3031.7867	3058.9608	3085.526	3112.4371	3113.1533	3114.9678	3144.8176	3192.4236	3799.7025
COC1CC2C(C)C12O	CO[C@H]1C[C@H]2[C@@H](C)[C@@]12O	
InChI=1S/C7H12O2/c1-4-5-3-6(9-2)7(4,5)8/h4-6,8H,3H2,1-2H3	InChI=1S/C7H12O2/c1-4-5-3-6(9-2)7(4,5)8/h4-6,8H,3H2,1-2H3/t4-,5+,6+,7+/m1/s1
