18
gdb 108797	3.05166	1.09571	0.89485	3.4385	75.18	-0.218	-0.0065	0.2115	1318.7945	0.147524	-439.132797	-439.123748	-439.122804	-439.166868	33.357	
C	-0.1818580626	 1.559225421	 0.0601847457	-0.387773
C	 0.0164381604	 0.0402594519	-0.041934023	-0.155235
C	 0.791908621	-0.4565530375	-1.2374509336	-0.246658
C	 1.8252341688	-1.1973657909	-0.8165478275	 0.321469
C	 2.8719801143	-1.9396922089	-1.5831190287	-0.177698
O	 4.1802697289	-1.6982009063	-1.0752093928	-0.413506
N	 1.8496839894	-1.2628142363	 0.588881785	-0.366874
C	 0.8412169566	-0.4995196379	 1.1480902995	 0.409509
O	 0.6661293718	-0.2939493916	 2.3267998838	-0.375374
H	 0.7734478094	 2.0847750758	-0.0317514881	 0.119057
H	-0.8468876729	 1.9204455776	-0.729455268	 0.114999
H	-0.6179226324	 1.8079442673	 1.031268439	 0.143044
H	-0.9700886478	-0.4427630009	 0.010738746	 0.117969
H	 0.5327236731	-0.2687931306	-2.2694430491	 0.102075
H	 2.723527692	-3.0211255789	-1.4787102326	 0.130192
H	 2.7853186514	-1.6946358979	-2.6502627695	 0.110248
H	 4.3684996743	-0.7599384443	-1.1873490374	 0.290102
H	 2.6269972543	-1.6272709918	 1.1164266513	 0.264454
69.3373	118.1252	123.2149	215.1197	225.2635	238.0651	328.9395	406.8586	413.4158	504.6999	517.8326	600.9197	656.3625	681.9367	746.1953	756.5153	806.5643	919.3996	972.8097	991.4893	1028.611	1055.9024	1090.2206	1101.0886	1193.0362	1195.313	1202.0815	1274.3171	1293.0138	1328.8326	1371.7387	1401.4295	1413.8772	1427.8837	1492.2854	1493.5229	1499.9108	1705.6671	1834.4813	3009.1653	3015.5973	3041.8142	3062.3696	3113.3255	3125.855	3235.109	3650.7013	3805.4006
CC1C=C(CO)NC1=O	C[C@H]1C=C(CO)NC1=O	
InChI=1S/C6H9NO2/c1-4-2-5(3-8)7-6(4)9/h2,4,8H,3H2,1H3,(H,7,9)	InChI=1S/C6H9NO2/c1-4-2-5(3-8)7-6(4)9/h2,4,8H,3H2,1H3,(H,7,9)/t4-/m0/s1
