18
gdb 99239	5.2024	0.6419	0.59796	2.4815	70.15	-0.2505	0.016	0.2665	1826.9496	0.145292	-476.295564	-476.285	-476.284055	-476.333253	35.535	
C	-0.0591258628	 1.3614230794	-0.0598797794	-0.239131
O	 0.2616734228	-0.0350481371	-0.0409875662	-0.231961
C	 0.5548542087	-0.5437319639	 1.1720527113	 0.447762
O	 0.5767048584	 0.1160341391	 2.1825398126	-0.363454
C	 0.8185845063	-2.0302862935	 1.0813764902	-0.325777
C	 1.5189787314	-2.5762887507	 2.3218135056	-0.315742
C	 1.3118547588	-4.0816290975	 2.4746984442	 0.414199
N	 2.2342820251	-4.7053319868	 3.2651456385	-0.524878
O	 0.3968197281	-4.6827902464	 1.9449930346	-0.357756
H	 0.7808364537	 1.9555858769	 0.3089601039	 0.139182
H	-0.2696073664	 1.6032917154	-1.1016891074	 0.133303
H	-0.9327367304	 1.5656789544	 0.564351628	 0.140501
H	-0.1432276473	-2.5443176583	 0.9679411284	 0.16618
H	 1.3751762888	-2.2412487043	 0.164163442	 0.131599
H	 2.5878706733	-2.3367875687	 2.3152237319	 0.111468
H	 1.1024321954	-2.0821071713	 3.2076521427	 0.154534
H	 2.9166208294	-4.1887993561	 3.7922630246	 0.258958
H	 2.0748129467	-5.6707581805	 3.5033940245	 0.261012
34.6838	44.2442	62.436	121.489	130.888	176.4841	230.3688	249.3637	290.1338	367.9532	481.1436	516.4359	586.0673	610.8253	659.3011	705.5115	801.6612	862.48	923.7776	1017.368	1034.0795	1083.9989	1105.2122	1171.8352	1179.9804	1199.6711	1216.3724	1262.4762	1296.624	1371.804	1411.5066	1461.4752	1470.8436	1475.0019	1482.5738	1497.9533	1619.2879	1796.6179	1813.7001	3043.0668	3051.5012	3058.3433	3077.9025	3104.0584	3125.5087	3158.5386	3599.1847	3733.977
COC(=O)CCC(N)=O	COC(=O)CCC(=O)N	
InChI=1S/C5H9NO3/c1-9-5(8)3-2-4(6)7/h2-3H2,1H3,(H2,6,7)	InChI=1S/C5H9NO3/c1-9-5(8)3-2-4(6)7/h2-3H2,1H3,(H2,6,7)
