18
gdb 55655	3.19841	1.0366	0.94793	3.0166	68.85	-0.2579	-0.0317	0.2261	1283.2011	0.143627	-476.282535	-476.272133	-476.271189	-476.31824	36.939	
C	-0.0412038805	 1.6650830777	 0.0068915995	-0.426382
C	-0.0436579401	 0.1366478929	 0.0257571405	 0.281847
C	 0.8546061026	-0.4490882471	 1.1271598497	-0.431397
O	-1.3862307686	-0.407888041	 0.0947575718	-0.318562
C	-2.1582333538	-0.1694552338	 1.186135737	 0.498916
N	-3.3503176334	-0.8202747659	 1.0434163328	-0.553271
O	-1.8434590167	 0.4886226338	 2.1506380488	-0.400542
C	 0.4625209513	-0.4128970123	-1.3129518784	 0.143638
O	 1.4146357912	 0.0277164105	-1.898430589	-0.253866
H	 0.9506897291	 2.0082154862	-0.2958865462	 0.140021
H	-0.7671590849	 2.0368555718	-0.7222836677	 0.119873
H	-0.2906227132	 2.0607548963	 0.9907859896	 0.152285
H	 0.5199769048	-0.1015259287	 2.1043687031	 0.162472
H	 0.8251213785	-1.5431745329	 1.1095236116	 0.121876
H	 1.8851532027	-0.1279053627	 0.9547602002	 0.137115
H	-3.6153160889	-1.1702657311	 0.1389572524	 0.2657
H	-4.0766420742	-0.5678391163	 1.6908565355	 0.271128
H	-0.1153405158	-1.2863640776	-1.6868438012	 0.089149
47.5245	78.3977	110.459	168.2535	212.0662	248.5726	277.8292	298.7788	314.8469	326.3805	368.4404	425.012	441.1437	517.0505	599.9454	703.5508	772.0439	783.0352	854.4297	919.7381	958.6605	996.1893	1043.2526	1049.666	1112.4151	1189.6268	1210.3777	1270.9206	1363.7069	1384.3106	1392.3915	1411.7102	1474.7052	1492.1855	1495.1228	1515.6277	1609.427	1824.6121	1842.7152	2897.726	3047.7985	3055.3673	3119.8149	3128.018	3159.7619	3165.2166	3617.3939	3748.6127
CC(C)(OC(N)=O)C=O	CC(C)(OC(=O)N)C=O	
InChI=1S/C5H9NO3/c1-5(2,3-7)9-4(6)8/h3H,1-2H3,(H2,6,8)	InChI=1S/C5H9NO3/c1-5(2,3-7)9-4(6)8/h3H,1-2H3,(H2,6,8)
