21
gdb 122242	2.73225	0.8995	0.74998	0.8987	86.26	-0.2406	0.0393	0.2798	1610.6596	0.179229	-387.037628	-387.02731	-387.026365	-387.073553	37.766	
C	-0.3208967793	 1.4101493755	-0.0027746953	-0.382561
C	 0.1540199815	-0.044494819	-0.0434638238	-0.181618
C	 0.6461767706	-0.5293338481	 1.3124050545	-0.058758
O	 1.0625054102	-1.8842811401	 1.1746699788	-0.277568
C	 1.5407500583	-2.4646385446	 2.3521224577	 0.264988
C	 0.5089195483	-3.010780544	 3.3289193273	-0.317398
C	 1.2971444588	-3.9491016421	 2.4521096131	-0.313913
C	 2.7701360427	-1.9156997986	 2.871249413	 0.31946
C	 3.7919602513	-1.4410585325	 3.2929456878	-0.510987
H	 0.485425714	 2.084787294	 0.3052482545	 0.118254
H	-0.6690264016	 1.737019633	-0.9867678799	 0.11702
H	-1.1491051242	 1.5409923748	 0.7025172018	 0.115659
H	-0.6583710788	-0.7005513233	-0.3771404388	 0.103305
H	 0.9664472558	-0.1595354537	-0.7698651897	 0.109389
H	 1.4857583754	 0.0879378314	 1.6641171811	 0.102236
H	-0.1541244286	-0.4566778458	 2.0660934566	 0.085579
H	 0.7335158131	-2.9703660504	 4.3880956112	 0.12657
H	-0.5273000594	-2.8329190037	 3.0648149381	 0.124477
H	 0.7893247069	-4.3897659652	 1.6022160339	 0.131227
H	 2.0721778449	-4.5579054491	 2.9013307216	 0.127907
H	 4.6982244602	-1.0301309884	 3.6635985767	 0.196735
55.8622	63.2324	116.8695	148.6755	177.5537	214.7268	236.8275	297.7926	334.1412	401.3741	446.5322	552.6102	576.8346	598.6595	679.3242	705.8214	765.108	778.6837	892.8233	900.8886	908.1545	914.1867	962.9801	982.1807	1047.52	1057.2602	1082.5913	1095.5074	1149.4662	1193.7697	1194.6048	1266.2858	1269.4396	1303.2644	1316.8698	1336.5774	1412.0919	1430.4692	1448.7102	1483.5924	1492.1731	1500.993	1508.0828	1527.2871	2229.6694	2976.7619	3017.1358	3032.2249	3038.7782	3072.5653	3100.8492	3108.511	3141.3318	3147.8148	3230.7842	3245.9112	3501.6018
CCCOC1(CC1)C#C	CCCOC1(CC1)C#C	
InChI=1S/C8H12O/c1-3-7-9-8(4-2)5-6-8/h2H,3,5-7H2,1H3	InChI=1S/C8H12O/c1-3-7-9-8(4-2)5-6-8/h2H,3,5-7H2,1H3
