19
gdb 37977	2.53465	2.0395	1.42869	2.2839	74.04	-0.2258	0.0813	0.307	953.2804	0.161709	-422.982228	-422.975273	-422.974328	-423.01332	28.564	
C	-0.0161196603	 1.5445523762	-0.0788103495	-0.193167
C	 1.3919678144	 2.1395314111	-0.0300796039	-0.07552
O	 1.8878714438	 2.2504021458	 1.297966169	-0.249118
C	 2.4496381369	 1.1161323207	 1.8694175176	 0.098084
C	 1.7289931365	 0.2586826315	 2.8576697301	 0.061683
O	 0.3408597062	 0.1514560254	 2.5576757175	-0.296787
C	 0.644043963	-0.5310457571	 1.3050977034	 0.136909
C	-0.078596352	 0.0208699306	 0.0864520743	-0.233078
C	 2.1482586825	-0.3149124251	 1.4987141712	-0.240359
H	-0.6006109081	 2.0242620316	 0.7127285294	 0.124727
H	-0.4817322067	 1.8142614355	-1.0348669519	 0.090063
H	 2.0884246972	 1.5622949454	-0.6564869081	 0.08937
H	 1.3731748813	 3.1651443116	-0.4125179488	 0.104908
H	 3.5019590682	 1.2517782276	 2.1245074211	 0.094801
H	 2.0432113557	 0.056402571	 3.8756933138	 0.102546
H	 0.406962451	-1.5961108823	 1.4263925823	 0.083355
H	-1.1288146702	-0.2936367764	 0.1278010977	 0.105842
H	 0.3553464686	-0.4741102125	-0.7937909226	 0.099871
H	 2.9129510821	-1.0299425308	 1.2236169772	 0.095869
149.9241	194.1269	279.991	326.6505	363.5934	422.0648	548.5756	612.6035	631.1658	726.5131	775.0439	805.0325	815.572	858.0295	904.1013	936.2699	958.8087	970.0659	996.1907	1022.2509	1046.0379	1067.1771	1087.5234	1101.1312	1110.0552	1152.7697	1213.279	1234.359	1256.2366	1265.7676	1296.0743	1324.8207	1352.1739	1367.4867	1386.3566	1402.3159	1412.4438	1435.5942	1466.2812	1475.3086	1494.6603	2995.2912	3007.356	3021.5009	3033.115	3054.4483	3075.2106	3090.8404	3094.7453	3172.6844	3192.4989
C1COC2C3OC(C1)C23	C1CO[C@H]2[C@H]3O[C@@H](C1)[C@@H]23	
InChI=1S/C7H10O2/c1-2-4-5-6(8-3-1)7(5)9-4/h4-7H,1-3H2	InChI=1S/C7H10O2/c1-2-4-5-6(8-3-1)7(5)9-4/h4-7H,1-3H2/t4-,5-,6+,7-/m0/s1
