17
gdb 67528	2.48548	1.8527	1.521	3.9758	72.71	-0.2403	0.0302	0.2705	944.0759	0.136403	-417.944234	-417.936756	-417.935812	-417.975842	29.575	
C	-0.0384615567	 1.5668424487	-0.0209895761	-0.495545
C	-0.0064674138	 0.0582164327	 0.0211006897	 0.193595
C	-1.2167757808	-0.6739402521	 0.6794047141	-0.100932
N	-1.0590443696	-2.1182667815	 0.441012418	-0.321565
C	-0.3079451691	-1.4819032756	 1.5463073977	-0.080708
C	 0.9266472406	-0.7910094127	 0.9182922278	 0.068647
O	 1.4969626886	-1.4395099192	-0.2539456481	-0.270711
C	 0.6747400019	-0.7109437519	-1.1051631713	 0.419679
N	 0.6150144392	-0.6846165042	-2.3553793601	-0.566111
H	 0.9509588404	 1.9767602496	-0.2432980154	 0.132197
H	-0.724748943	 1.9078764782	-0.8028213591	 0.144052
H	-0.3766687715	 1.980929424	 0.9349162865	 0.118013
H	-2.182656637	-0.2315983627	 0.8899935186	 0.100504
H	-1.8606377266	-2.590375328	 0.8575035535	 0.237306
H	-0.4184632991	-1.8226645884	 2.5678980419	 0.099804
H	 1.6831855782	-0.3801970957	 1.5858066401	 0.094469
H	 1.2688856483	-1.347483481	-2.7756659978	 0.227307
139.353	197.5429	218.217	259.5708	270.6568	350.8688	464.7759	569.9608	655.2155	676.0227	713.1452	785.7782	818.6416	823.7285	865.2013	891.6954	906.6704	922.0309	947.5803	962.5451	988.2922	1017.1922	1085.6725	1101.031	1146.1869	1164.1798	1189.5652	1214.1347	1251.8852	1291.0217	1326.3818	1339.7313	1379.3125	1411.7084	1490.4617	1491.9556	1825.317	3034.5849	3102.9797	3112.3356	3126.7395	3187.105	3200.2447	3474.3636	3482.3446
CC12C3NC3C1OC2=N	C[C@]12[C@H]3N[C@H]3[C@H]1O[C]2[NH]	
InChI=1S/C6H8N2O/c1-6-3-2(8-3)4(6)9-5(6)7/h2-4,7-8H,1H3	InChI=1S/C6H8N2O/c1-6-3-2(8-3)4(6)9-5(6)7/h2-4,7-8H,1H3/t2-,3+,4-,6+/m1/s1
