18
gdb 86738	3.70919	1.11252	0.9522	3.271	74.12	-0.2268	0.0056	0.2324	1254.6858	0.147266	-439.130321	-439.121424	-439.12048	-439.164402	33.026	
C	 0.7739297593	 1.5706626553	-0.4221082933	-0.386646
C	 0.1093099574	 0.1968952824	-0.3442163279	 0.0806
O	 0.9549518602	-0.7922982354	-0.9663372048	-0.300353
C	 1.2629726672	-1.8425921599	-0.0491632289	-0.01957
C	 0.5577803897	-1.4649766914	 1.2255418894	-0.092118
C	-0.0993962945	-0.3257554363	 1.0524687548	-0.093975
C	 0.8214218074	-3.2305115858	-0.5537402922	 0.362503
N	 0.1846038291	-3.2103081204	-1.7490444241	-0.514073
O	 1.0408940188	-4.2265045994	 0.108089187	-0.375557
H	 1.7160821914	 1.572666528	 0.1334035205	 0.124759
H	 0.9809542542	 1.8321623723	-1.463624728	 0.125894
H	 0.116648485	 2.3378741811	 0.000483442	 0.115328
H	-0.8428556303	 0.2318381522	-0.8978273437	 0.084868
H	 2.3527485124	-1.9075445997	 0.0887094086	 0.116107
H	 0.6018458395	-2.0864800069	 2.1086563183	 0.130406
H	-0.707784899	 0.1913605415	 1.7834838126	 0.110251
H	 0.1326329136	-2.3453109575	-2.2602966522	 0.270892
H	-0.0825324214	-4.08096551	-2.1766492682	 0.260683
55.4452	76.8192	152.4275	232.9184	242.3973	300.797	316.5397	394.8264	438.8746	522.0529	537.3664	638.8615	706.8467	732.7189	761.2544	811.9839	852.9106	897.3198	916.4493	964.4658	1009.0953	1017.8601	1083.3094	1095.4545	1114.7199	1126.9701	1131.3137	1266.5543	1311.7402	1331.6601	1358.4798	1363.3319	1377.4048	1403.0635	1486.2963	1494.454	1583.8064	1691.3324	1803.014	2969.4838	2994.8525	3038.7472	3112.3519	3123.1681	3214.7983	3249.0389	3597.5852	3738.9893
CC1OC(C=C1)C(N)=O	C[C@H]1O[C@@H](C=C1)C(=O)N	
InChI=1S/C6H9NO2/c1-4-2-3-5(9-4)6(7)8/h2-5H,1H3,(H2,7,8)	InChI=1S/C6H9NO2/c1-4-2-3-5(9-4)6(7)8/h2-5H,1H3,(H2,7,8)/t4-,5+/m1/s1
