20
gdb 110644	2.52013	1.52582	1.1824	2.2855	79.87	-0.2144	0.0672	0.2816	1137.4189	0.169556	-403.04536	-403.036541	-403.035597	-403.078696	33.549	
C	 0.0946295748	 1.253483284	-0.3744601656	-0.243446
O	-0.0305905392	 0.1726443938	 0.5313495157	-0.239365
C	-1.1897803344	-0.5724065271	 0.3092021818	 0.083173
C	-1.4421881448	-1.6019617803	-0.7622967559	-0.199626
C	-0.3375481967	-2.6555989878	-0.9110072443	-0.036711
C	 0.8540437355	-2.484440519	-0.0515602709	-0.260312
N	-0.3881192157	-3.0420389707	 0.5385943259	-0.185894
C	-1.4515344817	-1.9753880851	 0.7432210512	 0.277625
C	-2.5478104345	-2.3741364484	 1.6832566572	-0.468544
H	 1.009059622	 1.7894700131	-0.1115276406	 0.12959
H	 0.1630801468	 0.9037534739	-1.4138802247	 0.116945
H	-0.7592260088	 1.9433879618	-0.294774186	 0.108998
H	-2.0917229492	 0.0322888285	 0.4553270059	 0.089607
H	-2.2696473414	-1.5241250185	-1.4573806974	 0.087685
H	-0.3978206474	-3.4223595689	-1.6771610552	 0.097171
H	 1.6157562407	-3.2557023319	-0.1382320197	 0.114194
H	 1.2032895008	-1.5073941401	 0.2446597519	 0.15501
H	-2.1658788576	-2.4231060697	 2.7100547068	 0.130576
H	-3.3732378753	-1.6566010495	 1.6585842092	 0.113814
H	-2.9347969438	-3.364896928	 1.4263266445	 0.129511
75.7168	160.8097	182.4989	200.0094	209.5425	279.5345	293.126	355.5527	427.1926	532.9221	615.2891	638.7041	701.0384	765.3334	774.9874	868.5577	904.2255	931.5139	953.8218	991.9798	996.3581	1045.4468	1058.046	1097.7745	1110.3189	1129.1856	1136.9275	1165.1041	1182.736	1204.0798	1225.5609	1240.1545	1280.3197	1357.9041	1361.0924	1411.8435	1452.7769	1474.3175	1482.4227	1485.787	1495.9713	1501.8413	1516.1878	2985.2854	3028.4065	3039.2704	3043.4731	3093.2723	3113.9374	3123.3326	3124.5575	3153.7735	3181.9089	3264.7053
COC1C2C3CN3C12C	CO[C@H]1[C@H]2[C@H]3CN3[C@@]12C	
InChI=1S/C7H11NO/c1-7-5(6(7)9-2)4-3-8(4)7/h4-6H,3H2,1-2H3	InChI=1S/C7H11NO/c1-7-5(6(7)9-2)4-3-8(4)7/h4-6H,3H2,1-2H3/t4-,5-,6+,7-,8?/m1/s1
