19
gdb 58210	2.01462	1.33761	1.07935	4.2184	71.36	-0.2511	0.0165	0.2676	1220.7982	0.158185	-456.343482	-456.333323	-456.332379	-456.378499	37.334	
C	-0.300249865	 1.4796616779	 0.5836908186	-0.410749
C	-0.2396607913	-0.0098870644	 0.2585322705	 0.12568
O	-0.0280772187	-0.7920515621	 1.4393996921	-0.443419
C	-1.4693203235	-0.4820420452	-0.5781430695	-0.035268
N	-1.3237888236	-0.2601542483	-2.0160911359	-0.52158
C	-1.7510409038	-1.9929583697	-0.3624658601	-0.005673
O	-0.5864100919	-2.7829868155	-0.4561466846	-0.427079
C	-2.4641378109	-2.2089941961	 0.9154700168	 0.259751
N	-3.0140886046	-2.3397872665	 1.9242920897	-0.339235
H	 0.6061821784	 1.7944918602	 1.1066324992	 0.134583
H	-0.3977108799	 2.0811792384	-0.3261765843	 0.118364
H	-1.1635489658	 1.7010653511	 1.2227200305	 0.123578
H	 0.6513705693	-0.2119014949	-0.3461289581	 0.094795
H	-0.7616611007	-0.6560628699	 2.0515643546	 0.299411
H	-2.3613730545	 0.0677657953	-0.2513195345	 0.09852
H	-1.1577825414	 0.7216105503	-2.2129076738	 0.233792
H	-0.5121282655	-0.7722189163	-2.3535505566	 0.240216
H	-2.4134075969	-2.3132968327	-1.1725508978	 0.14813
H	-0.0445841496	-2.5357002214	 0.3090293429	 0.306183
52.3754	105.8426	143.5699	207.5042	220.7835	242.9589	276.9245	299.1708	332.7153	369.236	390.3583	440.3392	477.3247	540.0457	589.9154	657.6526	703.9233	811.7529	855.4322	899.6531	943.4098	989.8299	1052.9759	1062.9735	1092.7232	1120.5751	1154.4285	1198.3445	1267.3747	1277.9854	1299.1957	1329.3719	1380.4951	1401.0606	1414.0026	1424.8817	1451.9454	1488.3722	1494.6109	1650.8255	2346.4831	3028.0776	3031.0086	3052.6335	3077.9986	3097.9303	3123.1185	3486.4086	3573.3052	3716.708	3788.6736
CC(O)C(N)C(O)C#N	C[C@@H](O)[C@@H](N)[C@@H](O)C#N	
InChI=1S/C5H10N2O2/c1-3(8)5(7)4(9)2-6/h3-5,8-9H,7H2,1H3	InChI=1S/C5H10N2O2/c1-3(8)5(7)4(9)2-6/h3-5,8-9H,7H2,1H3/t3-,4+,5-/m1/s1
