15
gdb 42641	3.10072	1.48918	1.24326	2.6863	79.78	-0.2557	0.0044	0.2601	1016.7321	0.112767	-379.572499	-379.565296	-379.564352	-379.604094	28.478	
N	-0.0932919128	 1.2106797847	-0.1134903955	-0.554883
C	-0.088957138	-0.0411133693	-0.059386552	 0.426966
C	-1.1557142179	-1.0959845235	 0.0627310809	-0.199086
C	-0.8768571289	-1.961461567	-1.2020146972	-0.247514
C	 0.4847906817	-2.2490356112	-0.5665976653	-0.098246
N	 1.0107085333	-0.9946266217	 0.0908242033	-0.227093
C	 0.0002498883	-1.9195489416	 0.7918851573	 0.31867
C	 0.1528957464	-2.4584967123	 2.0846417576	 0.019554
C	 0.2424127025	-2.9255187492	 3.1897227005	-0.338713
H	 0.865195531	 1.5688528583	-0.1252546207	 0.231972
H	-2.1583529974	-0.885858287	 0.4213145558	 0.110136
H	-1.4907938953	-2.8643809134	-1.2279494491	 0.123524
H	-0.9083499904	-1.4498513111	-2.1683563321	 0.119661
H	 1.2398612811	-2.9685167368	-0.8548110228	 0.12473
H	 0.3311090366	-3.3342980189	 4.1659621692	 0.190322
100.0677	162.461	214.6555	378.5842	417.2826	475.5946	518.6484	560.8301	614.4865	626.9533	669.7368	685.0244	754.2928	776.3464	836.3401	900.8915	909.9109	959.4358	964.6224	978.842	1053.3419	1073.8982	1090.2164	1124.0604	1140.1163	1204.289	1242.8586	1271.5202	1299.4332	1406.8772	1496.1991	1826.6689	2239.9809	3060.1269	3123.4479	3179.6402	3210.9526	3449.7498	3500.5164
N=C1C2CC3N1C23C#C	[NH][C]1[C@H]2C[C@H]3N1[C@@]23C#C	
InChI=1S/C7H6N2/c1-2-7-4-3-5(7)9(7)6(4)8/h1,4-5,8H,3H2	InChI=1S/C7H6N2/c1-2-7-4-3-5(7)9(7)6(4)8/h1,4-5,8H,3H2/t4-,5-,7+,9?/m1/s1
