14
gdb 25441	5.10738	1.10296	0.90707	3.2535	79.28	-0.2391	-0.0648	0.1742	1185.7951	0.103399	-432.920704	-432.913542	-432.912597	-432.952675	26.636	
N	-0.0885689037	 1.3048651498	 0.3572018377	-0.514022
C	-0.0312203442	 0.0677172717	 0.0409595071	 0.338916
C	-1.2505205264	-0.7289903602	-0.092707018	-0.166229
C	-1.1819715032	-2.0227333112	-0.4238906301	 0.014305
N	 0.0580812679	-2.6259002925	-0.6455930762	-0.133019
C	 0.1654322903	-3.9764911347	-0.9933222577	 0.179032
O	 1.2060697526	-4.5431335021	-1.1946720995	-0.28944
C	 1.2001289356	-1.8334338716	-0.5086837125	 0.115241
N	 1.2004892933	-0.5972561453	-0.1959064288	-0.328637
H	 0.8628133018	 1.6776883746	 0.3985451088	 0.224384
H	-2.2019017874	-0.2449597827	 0.0827710653	 0.133564
H	-2.0416957122	-2.671754087	-0.5402233371	 0.146009
H	-0.8272509349	-4.4567985306	-1.0595589106	 0.10932
H	 2.1230992805	-2.3730119781	-0.6966301183	 0.170577
76.8592	172.9392	231.0259	268.7164	407.6332	421.7783	460.882	475.197	628.9695	664.605	746.7742	817.2123	838.9653	839.1825	923.9732	977.3202	992.5031	998.3038	1022.5543	1076.1144	1172.5886	1250.7906	1303.7499	1349.4058	1415.167	1440.3286	1448.3703	1646.1449	1693.8647	1725.175	1827.7951	2979.1492	3196.8452	3203.8749	3233.7584	3458.5337
N=C1C=CN(C=O)C=N1	[NH]C1=CCN(C=O)C=N1	
InChI=1S/C5H5N3O/c6-5-1-2-8(4-9)3-7-5/h1-4,6H	InChI=1S/C5H6N3O/c6-5-1-2-8(4-9)3-7-5/h1,3-4,6H,2H2
