13
gdb 48871	2.64063	1.7946	1.35464	4.061	62.87	-0.2434	-0.0541	0.1893	919.0389	0.087071	-456.50519	-456.498051	-456.497106	-456.537249	26.373	
O	-0.5380689092	 0.5071130569	-0.606338057	-0.242146
C	 0.0518639711	 1.0969901814	 0.2621739675	 0.036495
C	 1.2667720181	 1.9147925882	 0.0029498788	 0.190781
O	 1.5140545719	 3.0118635694	 0.9290113262	-0.319978
C	 2.21682327	 3.6422557022	-0.1459451596	 0.103214
C	 3.130514877	 2.6085562437	-0.8133830023	-0.260425
C	 1.6275254396	 2.8223820893	-1.2221120067	-0.178776
C	 2.7188234633	 1.3128511131	-0.2024368947	 0.45586
O	 3.180985832	 0.2183233268	-0.1133689158	-0.310124
H	-0.2520026319	 1.0625709683	 1.3297123451	 0.106311
H	 2.4644063687	 4.6928441241	-0.0738989381	 0.138499
H	 4.0223733145	 2.8576517242	-1.3702694903	 0.131357
H	 1.1928120648	 2.9736737025	-2.197829463	 0.148932
76.9828	153.6195	184.0925	209.7497	418.7327	461.5763	558.0099	632.492	692.1227	730.885	766.0002	790.9657	814.1974	844.2492	887.8505	941.0894	970.5065	1010.426	1033.6673	1051.9859	1061.2568	1091.4768	1170.4459	1258.1291	1304.957	1362.7285	1408.8848	1815.359	1904.4765	2916.1764	3214.6495	3232.714	3249.4297
O=CC12OC3C(C13)C2=O	O=C[C@]12O[C@H]3[C@H]([C@@H]13)C2=O	
InChI=1S/C6H4O3/c7-1-6-3-2(5(6)8)4(3)9-6/h1-4H	InChI=1S/C6H4O3/c7-1-6-3-2(5(6)8)4(3)9-6/h1-4H/t2-,3+,4-,6-/m0/s1
