17
gdb 20160	3.75981	2.72514	2.07331	1.1013	73.11	-0.2067	-0.0031	0.2037	707.5097	0.145388	-326.650124	-326.644488	-326.643544	-326.679362	24.059	
C	-0.0205288703	 1.479754753	-0.1720456371	-0.178138
C	 1.532204261	 1.5957563211	 0.0776658364	-0.03708
C	 1.9532740408	 2.2965015534	 1.3943750369	-0.256203
C	 1.198076233	 1.4360364637	 2.4153008361	-0.150059
C	 0.9403979905	 0.2317481883	 1.8907734931	 0.112099
C	-0.3798392568	-0.4193355575	 1.4965368341	-0.219465
N	-0.0412613589	-0.0212762968	 0.0679662291	-0.143264
C	 1.4228895165	 0.1122444684	 0.458623293	-0.006501
H	-0.6536270854	 2.0578116766	 0.5091370883	 0.102737
H	-0.3236298271	 1.6903304425	-1.1998988779	 0.112111
H	 2.1112080716	 1.875711025	-0.8049116724	 0.065481
H	 3.0456434194	 2.3151994817	 1.5166170099	 0.10392
H	 1.6145161404	 3.3379143739	 1.44143849	 0.104472
H	 0.6939243115	 1.8647965429	 3.2745777559	 0.090507
H	-0.4260559451	-1.5111992147	 1.5389408735	 0.116298
H	-1.2956500591	 0.0082694088	 1.915300958	 0.110698
H	 2.117728248	-0.6680056703	 0.142276693	 0.072388
270.3919	324.433	386.5332	393.7376	575.9212	663.6598	713.2596	764.0211	790.69	799.7851	856.3895	879.3431	904.0928	913.378	946.347	968.455	976.0393	997.4124	1026.4903	1054.6993	1083.7874	1157.6485	1166.7362	1178.4902	1191.853	1242.6031	1247.4963	1263.3016	1274.0986	1292.9709	1319.8993	1333.5117	1479.1711	1486.1339	1497.2925	1662.323	3002.9591	3046.4061	3049.744	3059.4949	3081.9126	3093.6296	3105.2999	3109.5191	3186.5265
C1C2CC=C3CN1C23	C1[C@H]2C[CH][C]3CN1[C@@H]23	
InChI=1S/C7H9N/c1-2-6-4-8-3-5(1)7(6)8/h1,6-7H,2-4H2	InChI=1S/C7H9N/c1-2-6-4-8-3-5(1)7(6)8/h1,6-7H,2-4H2/t6-,7-/m1/s1
