17
gdb 73201	2.38626	1.57057	1.40483	3.823	68.43	-0.2461	-0.0312	0.2149	1004.8339	0.134007	-458.927837	-458.919522	-458.918578	-458.961139	30.89	
O	 0.3397586215	 1.2905370154	 0.0904440473	-0.468683
C	 0.0218817634	-0.0561597919	-0.0104057665	 0.324444
C	 0.3934641274	-0.8567009634	-1.2842438821	-0.31225
C	-0.974994701	-1.6048577095	-1.2102140525	-0.234285
C	-1.3970416675	-0.730858796	-0.0019934326	 0.046549
O	-1.1309804171	-1.370230991	 1.2607659696	-0.282576
C	 0.1799105183	-0.8044855252	 1.3501308735	 0.014504
C	 1.3117022923	-1.7964132438	 1.4359292537	 0.138852
O	 1.2082305364	-2.982012406	 1.2564301504	-0.248869
H	 0.3204504203	 1.6805824708	-0.7897977799	 0.286634
H	 0.45525301	-0.190807697	-2.1521944794	 0.09672
H	 1.3017578515	-1.4625420918	-1.2558243605	 0.123267
H	-1.5978132953	-1.4914328959	-2.0999474336	 0.105014
H	-0.9050388851	-2.6601188322	-0.9443398411	 0.139626
H	-2.3567092401	-0.2101399726	-0.0174050309	 0.08577
H	 0.26272225	-0.0811267865	 2.1741265453	 0.105526
H	 2.296196715	-1.3187866437	 1.6533144093	 0.079759
62.3584	91.7319	200.6115	232.4525	272.3945	291.6347	377.2263	405.4688	457.407	614.8819	639.0057	732.5146	762.5382	832.9938	873.6897	881.2658	930.4597	946.4276	969.8558	1029.4272	1082.4723	1091.9476	1120.8468	1132.5011	1157.6959	1189.3542	1225.8438	1237.4821	1266.4333	1302.3801	1326.7438	1358.1247	1382.0013	1416.1682	1463.6636	1486.289	1830.272	2855.7803	3011.8038	3044.1475	3076.0102	3094.14	3107.6484	3144.3194	3813.6497
OC12CCC1OC2C=O	O[C@]12CC[C@H]1O[C@H]2C=O	
InChI=1S/C6H8O3/c7-3-5-6(8)2-1-4(6)9-5/h3-5,8H,1-2H2	InChI=1S/C6H8O3/c7-3-5-6(8)2-1-4(6)9-5/h3-5,8H,1-2H2/t4-,5+,6-/m1/s1
