11
gdb 132932	3.1536	1.43917	0.9882	2.4047	58.1	-0.2461	-0.0775	0.1685	1035.4754	0.064845	-537.945836	-537.938948	-537.938004	-537.977801	25.243	
F	 0.0295659914	 0.0154855147	 0.0032499387	-0.045666
C	-0.0255064928	 1.3420486018	 0.0109128405	 0.039028
C	-1.1786171087	 2.03154615	 0.0289212107	-0.010755
O	-1.2059709822	 3.3675869311	 0.0362319859	-0.18948
C	-0.0071862273	 4.1067546646	 0.0254034998	 0.446529
N	-0.1561906818	 5.3586097797	 0.0347017265	-0.517994
N	 1.192148346	 3.4048985457	 0.0065198786	-0.361028
C	 1.1752906342	 2.1315658674	 7.4083*^-6	 0.251532
F	 2.3144916328	 1.4719804316	-0.0180150351	-0.030173
H	-2.1610475246	 1.5761742832	 0.0387500306	 0.17381
H	 0.7601621627	 5.8012473701	 0.0258979755	 0.244196
64.3289	213.5269	277.3647	342.3261	384.2548	387.1994	464.1814	552.8887	606.9721	711.7297	739.3365	744.0217	792.3768	854.3977	855.3316	926.3854	1083.5364	1220.9448	1254.5768	1282.1568	1336.2521	1481.4803	1635.6314	1736.1801	1756.1239	3225.2312	3534.7663
FC1=COC(=N)N=C1F	FC1=C(N=C(OC1)[NH])F	
InChI=1S/C4H2F2N2O/c5-2-1-9-4(7)8-3(2)6/h1,7H	InChI=1S/C4H3F2N2O/c5-2-1-9-4(7)8-3(2)6/h7H,1H2
