16
gdb 36173	3.67295	1.22215	1.10797	3.5076	72.39	-0.2495	0.0297	0.2792	1097.4132	0.124277	-400.667675	-400.66036	-400.659416	-400.700013	27.94	
N	-0.0852036059	-1.1523569731	 0.1263091226	-0.306933
C	-0.0458990739	-0.0001557958	 0.0490230612	 0.261239
C	 0.0395449099	 1.456329942	-0.0518688125	-0.481576
C	 1.470402007	 1.9448896243	-0.1082850699	 0.312081
C	 2.6041992588	 1.6679970427	-1.1180703487	-0.323145
C	 3.2643316664	 2.6276635578	-0.1014853851	-0.097318
C	 1.9399803979	 3.4196797558	 0.1238584248	 0.037301
O	 1.9645219008	 3.3060269401	 1.5762725234	-0.326259
C	 2.4684003206	 2.0236531782	 1.0948126447	 0.062383
H	-0.5161765952	 1.7801894375	-0.9397477891	 0.155662
H	-0.4494692473	 1.9068111853	 0.8205598902	 0.168995
H	 2.9888662281	 0.6456819018	-1.1476983527	 0.121565
H	 2.4602263244	 2.0532619391	-2.1313031518	 0.106384
H	 4.2745457231	 3.0316641059	-0.0712453369	 0.09576
H	 1.5857500933	 4.3462929822	-0.3277894996	 0.101521
H	 2.7510600221	 1.2600040061	 1.8182492594	 0.112341
65.1046	109.2358	230.4135	299.6418	396.1008	405.0333	450.0179	589.5274	696.368	740.7297	778.3281	817.9426	840.5377	871.7577	889.5129	924.958	934.4221	949.7891	1010.4338	1055.3997	1065.1325	1096.5469	1120.5358	1144.7294	1167.6944	1170.937	1214.3246	1228.1392	1276.7149	1305.8547	1319.9947	1359.5035	1457.1308	1518.2041	2363.1053	3036.2347	3058.325	3076.6205	3117.6449	3121.5169	3131.423	3145.9128
N#CCC12CC3C1OC23	N#CC[C@@]12C[C@H]3[C@@H]1O[C@@H]23	
InChI=1S/C7H7NO/c8-2-1-7-3-4-5(7)9-6(4)7/h4-6H,1,3H2	InChI=1S/C7H7NO/c8-2-1-7-3-4-5(7)9-6(4)7/h4-6H,1,3H2/t4-,5-,6+,7+
