20
gdb 98217	2.68381	1.18561	0.84609	4.4252	78.95	-0.2468	0.0121	0.2589	1379.7196	0.170845	-436.509254	-436.499216	-436.498272	-436.545027	36.885	
C	-1.9558156773	 1.9175855039	-0.0785222207	-0.381874
C	-2.451014642	 0.4777959017	-0.2066794581	-0.220298
C	-1.3520541438	-0.5471519308	-0.0134584897	 0.37763
N	-0.1809962469	-0.137054095	 0.2823021758	-0.513824
N	-1.6621726663	-1.9277873223	-0.1909138417	-0.168665
C	-0.5329052349	-2.8511593126	-0.2788579556	-0.381103
C	-2.9711979643	-2.4374512224	-0.2055981754	 0.442215
N	-3.05575805	-3.8104923262	-0.0115641393	-0.557019
O	-3.9679498861	-1.7759318671	-0.4097373792	-0.37646
H	-2.7933021515	 2.6062610956	-0.2278014711	 0.09996
H	-1.5212944298	 2.1037080408	 0.9060610615	 0.125979
H	-1.1840341398	 2.141252858	-0.8188515622	 0.123417
H	-3.2497821712	 0.2783311113	 0.5136107555	 0.132634
H	-2.9223431218	 0.3072975757	-1.1785462594	 0.129525
H	 0.4894981174	-0.887968529	 0.4261695932	 0.209339
H	-0.1151597044	-3.1155950169	 0.7025032161	 0.128048
H	-0.8489937065	-3.7596405364	-0.789041429	 0.155481
H	 0.2598328201	-2.3939356931	-0.8756613721	 0.152254
H	-2.4053835929	-4.2625053073	 0.6121060527	 0.257378
H	-4.0147742982	-4.1020843679	 0.1057354888	 0.265385
21.8999	97.7501	127.8657	208.7498	213.5658	246.0373	251.2672	315.046	379.3298	421.8781	458.7083	491.5027	549.119	573.8796	583.6195	629.4521	743.0312	783.7075	807.2806	882.2856	910.412	1017.1085	1051.5143	1096.9525	1101.977	1113.641	1146.7067	1206.9161	1230.7115	1288.9819	1293.2139	1378.3717	1397.9733	1414.1165	1443.6953	1464.4028	1489.4882	1499.6931	1511.4865	1521.3515	1623.3403	1695.9616	1799.7061	3007.7799	3048.3908	3069.0126	3094.5205	3096.9288	3118.8555	3133.8277	3155.1556	3516.0411	3577.2185	3690.6798
CCC(=N)N(C)C(N)=O	CCC(=N)N(C)C(=O)N	
InChI=1S/C5H11N3O/c1-3-4(6)8(2)5(7)9/h6H,3H2,1-2H3,(H2,7,9)	InChI=1S/C5H11N3O/c1-3-4(6)8(2)5(7)9/h6H,3H2,1-2H3,(H2,7,9)
