18
gdb 37095	2.12483	2.11484	1.32577	2.3731	76.03	-0.243	0.0721	0.3151	999.923	0.147944	-401.860745	-401.853256	-401.852312	-401.892477	29.947	
C	-0.0100721729	 1.5292341927	 0.0553712573	-0.315851
N	 1.195302046	 0.6798665469	-0.059502583	-0.363812
C	-0.1121373517	 0.0545878833	 0.0380748421	 0.298595
C	-0.4634801156	-0.9792765661	 1.094156912	-0.142119
C	-1.9266385284	-1.3107830196	 1.0097371482	-0.301559
C	-0.9926631461	-1.9172197578	-0.0071558381	-0.153399
C	-0.6509675663	-0.8722785013	-1.0510853343	 0.389067
C	-1.1861540105	-0.6193026341	-2.3887043393	-0.272474
O	 0.1411030674	-1.1492143418	-2.1936584343	-0.283758
H	-0.0940950219	 2.073570306	 0.9922911703	 0.120565
H	-0.3526474793	 2.0776008849	-0.81948909	 0.108749
H	 1.5096322836	 0.6268202497	-1.0276089588	 0.240602
H	 0.1554264544	-1.2173753125	 1.9490244585	 0.10491
H	-2.2953922121	-1.9998347463	 1.762851338	 0.11978
H	-2.6454648046	-0.5514706552	 0.7112840138	 0.112176
H	-0.8550033901	-2.9836219457	-0.1278503451	 0.104882
H	-1.9020669807	-1.313815939	-2.8260956812	 0.120052
H	-1.2249288912	 0.3954614659	-2.7827789662	 0.113595
117.3884	191.801	214.1612	259.4452	319.6529	374.7205	499.564	552.7822	590.267	595.5409	773.5777	793.1241	861.8863	872.6863	897.9809	922.4079	926.9171	942.4587	972.389	977.6546	1016.9807	1031.5621	1058.9174	1078.5218	1091.5354	1119.3938	1125.8736	1145.9641	1165.4484	1185.6357	1257.3646	1270.673	1281.8924	1309.7847	1418.4497	1454.1209	1487.9827	1511.6931	1538.3698	3080.8416	3099.1408	3111.324	3167.7862	3184.3283	3198.4523	3201.1759	3212.9603	3477.3241
C1NC11C2CC2C11CO1	C1N[C@]21[C@H]1C[C@H]1[C@]12CO1	
InChI=1S/C7H9NO/c1-4-5(1)7(3-9-7)6(4)2-8-6/h4-5,8H,1-3H2	InChI=1S/C7H9NO/c1-4-5(1)7(3-9-7)6(4)2-8-6/h4-5,8H,1-3H2/t4-,5+,6+,7-/m0/s1
