17
gdb 38412	4.22814	1.33276	1.22485	0.9426	71.34	-0.2406	0.0187	0.2593	1029.38	0.137844	-417.968786	-417.961777	-417.960833	-418.000503	27.383	
C	-0.0565159018	 1.392401163	-0.0794570193	-0.24653
C	 1.2392549529	 0.6968935625	 0.0620524466	-0.099522
N	-0.0706567731	-0.0711727359	 0.0790093573	-0.123532
C	 0.2929865826	-0.617995258	-1.2778195131	-0.234084
C	 1.6703536322	 0.0900809112	-1.2692735193	 0.3997
C	 2.1883403651	 0.9675602841	-2.4331477946	-0.2618
N	 3.5297808082	 0.4532194019	-2.7541644331	-0.261134
C	 3.706905473	-0.5255484799	-1.9714717218	 0.106115
O	 2.7408024232	-0.8696753185	-1.0843565244	-0.256838
H	-0.4365740713	 1.9195615013	 0.7900627315	 0.130263
H	-0.3466122094	 1.8280516086	-1.0341739815	 0.115647
H	 1.8764958427	 0.7796640672	 0.9362061489	 0.109006
H	 0.3986522617	-1.7029369279	-1.2349020771	 0.132262
H	-0.4076030385	-0.3401784119	-2.0732257359	 0.105471
H	 1.5448425212	 0.8993973968	-3.3177210646	 0.119893
H	 2.2443219086	 2.0247227263	-2.1517528242	 0.12276
H	 4.5908593328	-1.1522757708	-1.9320162452	 0.142323
78.436	142.3712	236.0733	383.7313	417.9646	438.1828	499.402	525.18	748.494	776.513	792.501	843.3715	869.037	895.028	931.5633	957.1505	969.8467	986.2012	1007.8737	1050.0498	1091.6059	1111.9585	1127.1233	1137.2938	1157.1013	1180.0786	1208.1378	1236.4645	1251.6884	1284.3833	1322.7678	1334.4263	1367.3052	1478.7317	1492.5306	1502.8217	1710.2839	3035.1053	3042.698	3069.9482	3099.2725	3129.1894	3171.6123	3197.131	3218.0038
C1C2N1CC21CN=CO1	C1[C@H]2N1C[C@]12CN=CO1	
InChI=1S/C6H8N2O/c1-5-6(3-8(1)5)2-7-4-9-6/h4-5H,1-3H2	InChI=1S/C6H8N2O/c1-5-6(3-8(1)5)2-7-4-9-6/h4-5H,1-3H2/t5-,6+,8?/m1/s1
