17
gdb 133710	2.57798	1.28264	1.19221	2.9265	61.67	-0.2429	0.0818	0.3247	1109.6755	0.130427	-549.492085	-549.482823	-549.481878	-549.526344	33.666	
C	-0.2357347456	 1.4922839739	 0.0524314277	-0.318749
N	-0.0226971441	 0.0542377101	 0.1182069858	-0.100392
C	 1.2740840666	-0.4845743078	-0.2671628056	-0.289629
C	 0.8268260312	-0.5162689511	 1.1567542148	 0.138589
C	 1.5123980742	 0.3187848767	 2.2205977006	-0.487006
C	 0.2698734365	-1.8198475493	 1.6999374295	 0.279193
F	 1.2365441913	-2.529774598	 2.3139948617	-0.087657
F	-0.6888104028	-1.5888236349	 2.6132869142	-0.084657
F	-0.2531845263	-2.5949101809	 0.7485130626	-0.069085
H	 0.668139329	 2.0987742446	 0.2142952809	 0.103144
H	-0.6290590956	 1.7345757478	-0.9392936189	 0.133705
H	-0.9862111161	 1.7816936469	 0.7940119523	 0.133069
H	 1.2557677833	-1.3807868311	-0.8799146082	 0.130814
H	 2.0748216139	 0.2178478879	-0.4981045651	 0.109472
H	 1.95867152	 1.2191802445	 1.7970892642	 0.126784
H	 0.8012488348	 0.6141266097	 2.9981682923	 0.139008
H	 2.3074585497	-0.2619325192	 2.6948484112	 0.143397
53.5845	147.6481	154.2037	177.2089	214.9134	278.0292	300.1956	330.2213	391.3449	437.1489	466.8102	552.7891	582.7099	590.4284	742.4621	799.3556	852.117	939.1109	976.7786	1059.2763	1096.0793	1124.3326	1147.1356	1155.533	1175.2983	1189.7634	1209.5379	1230.1993	1347.6798	1403.7078	1414.063	1448.9008	1482.5494	1485.9378	1499.7681	1511.0744	1513.3912	2986.7771	3053.323	3076.6902	3090.3262	3111.6968	3120.2201	3143.3156	3187.1836
CN1CC1(C)C(F)(F)F	CN1C[C@]1(C)C(F)(F)F	
InChI=1S/C5H8F3N/c1-4(3-9(4)2)5(6,7)8/h3H2,1-2H3	InChI=1S/C5H8F3N/c1-4(3-9(4)2)5(6,7)8/h3H2,1-2H3/t4-,9?/m1/s1
