19
gdb 108721	3.61847	1.05192	0.82836	5.9804	82.76	-0.2069	0.0045	0.2114	1393.5357	0.159439	-419.258782	-419.249125	-419.248181	-419.293677	34.152	
C	-0.0237247951	 1.3991579188	 0.1200891012	-0.324762
N	-0.0494548486	-0.0370116231	-0.071259053	-0.364213
C	 0.6202221977	-0.6180666742	-1.1040850475	 0.385316
C	 1.2247529483	-0.0608116182	-2.175633164	-0.385418
C	 1.7620065508	-1.1274083633	-3.0404529494	 0.441542
O	 2.3749853244	-1.0343372373	-4.087425113	-0.418265
N	 1.4377681951	-2.3312743702	-2.4194306143	-0.099437
C	 1.8101482851	-3.6202351218	-2.9357672842	-0.33876
C	 0.7195074632	-2.1286537796	-1.1902215481	-0.266595
H	 0.9936758679	 1.7861148064	 0.2752730575	 0.128879
H	-0.4457040159	 1.8991829432	-0.7580974729	 0.145438
H	-0.635943009	 1.6583675313	 0.9860033582	 0.129666
H	-0.1932462493	-0.5999584541	 0.7511598061	 0.244906
H	 1.333560206	 0.9846127264	-2.4164450277	 0.103804
H	 2.3477192081	-3.4454642934	-3.8702412002	 0.164002
H	 2.466938655	-4.1664104245	-2.2443106865	 0.110706
H	 0.9331552513	-4.2490597865	-3.1417936389	 0.112032
H	 1.254722286	-2.5456972631	-0.3210177922	 0.11089
H	-0.2799894511	-2.5907532265	-1.206403981	 0.120272
55.8344	111.9205	147.2065	168.6656	180.7679	205.8721	224.1604	286.8426	348.7098	409.7251	517.7755	541.3914	625.3939	687.4639	734.5663	805.0959	809.9824	913.5541	1017.4268	1031.1724	1068.3325	1146.0575	1151.3031	1156.6717	1174.3967	1199.7534	1250.9612	1274.5034	1322.582	1331.5837	1417.8372	1445.243	1460.2293	1480.0483	1492.2114	1499.9179	1513.5334	1531.0781	1544.2076	1684.5009	1795.6128	2967.53	2992.5559	2996.159	3001.3923	3035.8423	3072.8059	3130.0959	3132.6808	3259.9175	3632.643
CNC1=CC(=O)N(C)C1	CNC1=CC(=O)N(C)C1	
InChI=1S/C6H10N2O/c1-7-5-3-6(9)8(2)4-5/h3,7H,4H2,1-2H3	InChI=1S/C6H10N2O/c1-7-5-3-6(9)8(2)4-5/h3,7H,4H2,1-2H3
