16
gdb 97699	3.01021	0.78308	0.68426	2.9589	80.4	-0.2621	0.0052	0.2674	1633.6146	0.122872	-400.710025	-400.700544	-400.6996	-400.745807	33.182	
O	 0.2579025874	 1.0544653173	-0.7506066586	-0.398283
C	-0.0219450558	 0.1146850487	 0.2755489494	-0.202409
C	-1.3698402204	-0.4489267437	 0.2054751326	 0.141575
C	-2.4991468673	-0.8637054857	 0.1379917267	-0.059662
C	-3.8386299129	-1.3777716837	 0.0493832424	 0.033706
C	-4.3372614963	-1.9136092849	-1.3033213895	-0.280277
C	-4.0399307966	-2.8800385711	-0.2109174407	-0.279649
C	-4.8211237141	-0.7302583202	 0.8891760727	 0.223633
N	-5.615879009	-0.2188594175	 1.5555601797	-0.340317
H	-0.4218110591	 1.7357546416	-0.7133563799	 0.290605
H	 0.722067641	-0.6814148366	 0.1614446391	 0.14439
H	 0.1309123916	 0.548879775	 1.2762922841	 0.12768
H	-5.3723711844	-1.709008585	-1.5486076995	 0.150976
H	-3.6364644232	-1.8210754121	-2.1235392961	 0.14929
H	-3.1311477057	-3.4661928383	-0.2652502068	 0.14755
H	-4.8674500352	-3.3497313939	 0.3068018344	 0.151193
30.8067	82.8047	89.413	182.5742	216.1447	220.2468	271.07	342.8238	425.7468	470.3665	505.0831	589.6703	597.6813	621.9949	780.0106	836.1611	849.8227	957.4689	968.5789	980.5768	1039.2574	1070.0899	1086.3686	1097.9465	1199.8473	1215.9204	1271.4152	1330.6667	1362.4416	1416.956	1463.2096	1485.6367	1489.3104	2354.2914	2359.8304	2982.8661	3065.6964	3152.9548	3155.8933	3242.953	3256.9362	3814.883
OCC#CC1(CC1)C#N	OCC#CC1(CC1)C#N	
InChI=1S/C7H7NO/c8-6-7(3-4-7)2-1-5-9/h9H,3-5H2	InChI=1S/C7H7NO/c8-6-7(3-4-7)2-1-5-9/h9H,3-5H2
