13
gdb 5291	5.0064	1.59679	1.21969	2.347	60.55	-0.2522	-0.0488	0.2034	917.1143	0.095721	-398.652265	-398.645264	-398.64432	-398.68406	24.613	
C	-0.0231727105	 1.4971868646	-0.0357425688	-0.481985
C	-0.0243851979	-0.0132737546	 0.032139203	 0.299358
O	-0.0417121492	-0.6306971591	 1.0779137606	-0.312094
C	-0.0029526287	-0.739586912	-1.2581076827	 0.153853
C	 0.0003232678	-2.0885939587	-1.4407370212	-0.071461
O	 0.0223543553	-2.3353762209	-2.7739735546	-0.132234
C	 0.0317985739	-1.1022198656	-3.3474662002	 0.069571
N	 0.017573931	-0.1229693052	-2.5100968245	-0.302897
H	 0.863490959	 1.8512739064	-0.5718317936	 0.149974
H	-0.8876574999	 1.8516688943	-0.6065459143	 0.149985
H	-0.0428040324	 1.9047148095	 0.9751672348	 0.137022
H	-0.0104975328	-2.9352256603	-0.7775200968	 0.17948
H	 0.0496236544	-1.0720312186	-4.4253685217	 0.161428
80.4504	126.2794	183.3728	200.9918	369.3246	501.1274	561.214	630.5708	647.4408	710.3155	826.644	859.4694	928.8151	934.378	995.8335	1046.6722	1085.8873	1133.1319	1144.8467	1240.5466	1316.5167	1347.0649	1388.711	1456.3348	1467.3688	1559.2112	1588.9389	1782.5142	3046.3227	3107.4093	3159.9136	3280.0363	3308.8322
CC(=O)C1=COC=N1	CC(=O)c1cocn1	
InChI=1S/C5H5NO2/c1-4(7)5-2-8-3-6-5/h2-3H,1H3	InChI=1S/C5H5NO2/c1-4(7)5-2-8-3-6-5/h2-3H,1H3
