20
gdb 54523	3.05747	1.35946	1.10131	2.6703	79.13	-0.2339	-0.014	0.2198	1162.0792	0.171362	-403.160296	-403.151725	-403.150781	-403.193658	32.747	
C	 0.9054562519	 1.1483893488	 0.2596939113	-0.498423
C	-0.184576011	 0.1351234622	-0.0280470825	 0.306456
O	-1.089456129	-0.0793400557	 0.7506278906	-0.305758
C	-0.1213441347	-0.6161360095	-1.3277886894	 0.240183
C	 1.1894379041	-0.9919043934	-1.9537817622	-0.28982
N	 0.4137822985	 0.099776112	-2.5237650421	-0.127589
C	-0.442015037	-0.2932119898	-3.6623880342	-0.149648
C	-1.231793704	-1.5603231181	-3.2590133529	-0.250194
C	-1.3246793053	-1.4624282644	-1.7220375395	-0.278169
H	 1.826102821	 0.6317982888	 0.5558927367	 0.139506
H	 1.1313182511	 1.7364397998	-0.6333810077	 0.157424
H	 0.5892449483	 1.7893429429	 1.0833388722	 0.139401
H	 2.1227625992	-0.6929288465	-1.4864618409	 0.119252
H	 1.2332339108	-1.9476277712	-2.4712838473	 0.117197
H	-1.1209455635	 0.5446740663	-3.851990602	 0.11424
H	 0.1725563532	-0.4320525244	-4.5571242023	 0.110256
H	-2.2135404003	-1.5992060468	-3.7366208229	 0.10874
H	-0.6988156274	-2.4663609731	-3.5618798805	 0.108084
H	-1.326959128	-2.4405690974	-1.2341648783	 0.113355
H	-2.2323508579	-0.9449883404	-1.3995630961	 0.125507
60.528	138.7449	154.1663	203.0422	242.72	317.2776	380.1849	437.4419	470.1777	582.962	607.0139	643.8823	690.514	771.7013	814.676	883.9455	889.1917	906.5959	947.1106	962.8594	1001.7567	1023.5553	1039.4881	1078.4598	1112.9648	1140.8351	1177.3252	1195.4476	1207.1861	1258.6213	1291.7219	1307.329	1335.2071	1354.432	1370.4966	1385.8028	1468.2284	1474.1556	1491.268	1494.5245	1500.7792	1524.0806	1789.2442	3041.6446	3047.2537	3059.0231	3068.5522	3089.514	3100.908	3107.3307	3111.3945	3115.8821	3157.981	3192.1433
CC(=O)C12CN1CCC2	CC(=O)[C@]12CN1CCC2	
InChI=1S/C7H11NO/c1-6(9)7-3-2-4-8(7)5-7/h2-5H2,1H3	InChI=1S/C7H11NO/c1-6(9)7-3-2-4-8(7)5-7/h2-5H2,1H3/t7-,8?/m0/s1
