17
gdb 116629	3.34686	1.0534	0.82518	3.5424	76.03	-0.2644	-0.0386	0.2259	1385.7144	0.135684	-455.162789	-455.153906	-455.152962	-455.198398	30.904	
C	 1.1042681339	 0.2583189035	 0.2458372389	-0.367045
C	-0.2856717729	 0.4437954447	-0.3596758179	-0.141921
N	-1.0612179867	-0.7830959879	-0.2287475619	-0.290246
C	-1.921163269	-1.0772789257	-1.0913816132	 0.3681
O	-2.2462351356	-0.3349316866	-2.2055729875	-0.254502
C	-3.2290774862	-1.0256196749	-2.9509691788	 0.02271
O	-3.5548920628	-2.2113145462	-2.2445219113	-0.239016
C	-2.7861728892	-2.2916376612	-1.113050016	 0.319324
N	-2.8126303188	-3.2166558797	-0.261251494	-0.503569
H	 1.6728822528	 1.1921532779	 0.1958804805	 0.108455
H	 1.0280567519	-0.0515345207	 1.2915238941	 0.130791
H	 1.6623851921	-0.5128447688	-0.2934723309	 0.121616
H	-0.8196367867	 1.2352164813	 0.1847964337	 0.117268
H	-0.2129899372	 0.7757655168	-1.4040842726	 0.107675
H	-4.1237960776	-0.400314378	-3.0487863158	 0.133702
H	-2.8322101003	-1.2856556377	-3.9395389652	 0.132258
H	-3.4971472078	-3.9293112169	-0.5186339421	 0.234399
16.0543	115.0442	124.1658	131.1013	166.3102	262.1772	328.66	369.1316	514.9613	563.5644	652.0096	761.9477	767.8772	783.2118	817.6722	890.1696	915.0092	992.6601	1018.5688	1071.0038	1093.9735	1119.9232	1147.9702	1154.813	1186.8669	1209.9412	1296.6848	1327.0257	1384.9455	1411.013	1445.9983	1480.0793	1488.8527	1505.6226	1548.7555	1776.3609	1816.8972	3002.4472	3025.4097	3036.3151	3041.9241	3073.3958	3112.7539	3123.1245	3486.1173
CCN=C1OCOC1=N	CCN=C1OCO[C]1[NH]	
InChI=1S/C5H8N2O2/c1-2-7-5-4(6)8-3-9-5/h6H,2-3H2,1H3	InChI=1S/C5H8N2O2/c1-2-7-5-4(6)8-3-9-5/h6H,2-3H2,1H3
