21
gdb 118367	1.59502	1.19165	0.72081	2.2598	86.29	-0.2438	-0.0175	0.2263	1624.5072	0.181045	-420.443347	-420.43279	-420.431846	-420.479603	36.864	
C	-0.2035423356	 1.3433399102	 0.7629508163	-0.380694
C	-0.1378732303	-0.1401911036	 0.392623441	-0.170841
C	 0.9214056255	-0.8855891494	 1.21156787	-0.162936
N	 1.0093504665	-2.31087659	 0.8895763524	-0.091327
C	 1.9966030666	-2.7842267128	 0.0464491231	 0.15468
O	 2.1346584247	-3.9355097517	-0.2958034145	-0.318093
C	 0.0931387588	-3.207645068	 1.4372067292	 0.108101
N	-0.8291353263	-2.8240617093	 2.2156844059	-0.24064
C	-1.7149282581	-3.8413929911	 2.7451569228	-0.315395
H	 0.7553052622	 1.84425415	 0.5870675053	 0.114129
H	-0.9621409519	 1.8624321679	 0.1703372988	 0.120037
H	-0.45894354	 1.4762507367	 1.8198112883	 0.123563
H	-1.1078400573	-0.6151500394	 0.5666990277	 0.128301
H	 0.0894308744	-0.253034438	-0.6746777368	 0.098356
H	 1.9109932959	-0.4481336009	 1.0402502426	 0.10969
H	 0.6956989549	-0.8024848077	 2.2778577626	 0.13745
H	 2.6675960742	-1.9702808874	-0.2863499865	 0.086169
H	 0.2783152123	-4.2376834363	 1.1210130248	 0.136518
H	-1.6753643924	-3.8271137815	 3.8404930237	 0.129207
H	-2.7486879102	-3.6106582992	 2.4629078941	 0.128624
H	-1.4782886738	-4.8602440284	 2.4013115693	 0.105101
65.1696	82.8341	108.088	146.1435	170.7948	205.9539	239.5454	246.3899	281.0559	320.2449	334.5695	406.4259	471.5173	573.7574	730.3219	750.9652	881.3133	893.4198	944.1201	1007.3344	1030.4002	1046.5902	1053.0762	1125.6429	1133.3623	1143.0277	1152.8053	1253.6752	1289.6325	1325.3991	1336.0549	1362.6703	1408.3815	1417.138	1428.3971	1443.7084	1449.0878	1479.3551	1480.3264	1491.4366	1501.7537	1503.6287	1508.0148	1744.579	1804.9865	2957.7018	2981.1764	3031.563	3033.7604	3048.3641	3062.3036	3076.8524	3082.2173	3098.6012	3099.9267	3110.2153	3113.669
CCCN(C=O)C=NC	CCCN(C=O)C=NC	
InChI=1S/C6H12N2O/c1-3-4-8(6-9)5-7-2/h5-6H,3-4H2,1-2H3	InChI=1S/C6H12N2O/c1-3-4-8(6-9)5-7-2/h5-6H,3-4H2,1-2H3
