20
gdb 56153	3.17373	1.01644	0.94789	2.6602	71.99	-0.2539	0.0441	0.298	1340.5742	0.168643	-477.478991	-477.468665	-477.467721	-477.514091	38.462	
C	-0.1679689478	 1.5347943918	 0.0699476076	-0.39296
C	 0.1500955016	 0.0542338973	-0.1607359457	 0.34992
C	 0.6336594892	-0.6146451899	 1.1366161581	-0.409786
O	-1.064620027	-0.5500758735	-0.5934051272	-0.475531
C	 1.2483158749	-0.1160179143	-1.2251419546	-0.123118
O	 0.8538662485	 0.3885252971	-2.5125981681	-0.25643
C	 0.2181805175	-0.487334446	-3.3233606379	 0.514383
N	-0.0175260582	 0.0806318721	-4.5356254042	-0.556054
O	-0.0691731667	-1.6316818082	-3.0286568835	-0.42051
H	 0.6889894567	 2.0647196561	 0.4978150995	 0.103345
H	-0.4440486996	 2.0133955651	-0.8726160859	 0.119581
H	-1.0114515883	 1.6232490611	 0.759904313	 0.123151
H	-0.138902235	-0.5190931593	 1.9040814836	 0.125609
H	 0.8182026452	-1.6817165249	 0.9749591801	 0.114135
H	 1.5550488666	-0.1583729534	 1.515602223	 0.106054
H	-0.8511706614	-1.2739386414	-1.1996109105	 0.292792
H	 2.1368081723	 0.458432694	-0.9517692343	 0.113916
H	 1.5177885638	-1.1706501731	-1.3287923054	 0.127949
H	 0.0925977178	 1.0743583015	-4.6416493853	 0.269721
H	-0.6525429402	-0.4025453621	-5.1465539022	 0.273833
58.3162	80.9292	150.371	213.8212	237.549	254.5601	275.1951	317.282	318.7772	364.491	400.5033	444.9501	471.3056	516.2696	531.976	581.8063	683.2967	769.8069	791.3962	865.2629	913.4026	928.893	951.1956	990.701	1038.2593	1100.5376	1117.5423	1196.599	1206.7525	1237.6742	1315.8869	1363.2015	1389.6766	1404.8078	1425.1464	1438.9768	1472.1907	1481.925	1488.5325	1501.4443	1506.4761	1611.9266	1801.193	3030.1143	3043.9668	3063.2418	3098.6478	3114.5097	3119.5432	3121.3493	3129.0318	3619.9893	3723.0576	3751.2926
CC(C)(O)COC(N)=O	CC(C)(O)COC(=O)N	
InChI=1S/C5H11NO3/c1-5(2,8)3-9-4(6)7/h8H,3H2,1-2H3,(H2,6,7)	InChI=1S/C5H11NO3/c1-5(2,8)3-9-4(6)7/h8H,3H2,1-2H3,(H2,6,7)
