16
gdb 131060	4.08213	1.0121	0.87047	3.5425	71.26	-0.2454	0.0181	0.2635	1284.3308	0.12689	-434.112577	-434.104408	-434.103463	-434.146879	29.167	
O	 0.7787762365	 0.7231994111	 1.3962319242	-0.331138
C	 0.4054003293	 1.3912543191	 0.4529198544	 0.161774
N	 1.1268640823	 1.6196887496	-0.6739550197	-0.262679
C	 2.499423799	 1.139966466	-0.8259374384	-0.280176
C	 3.5308305536	 2.0896739284	-0.2895871679	 0.333478
N	 4.3227295914	 2.7641482633	-1.1226203499	-0.290873
N	 5.0986973022	 3.5108088402	-0.3147479382	-0.18087
C	 4.8236653105	 3.3325642962	 1.0014677389	-0.020194
C	 3.803280336	 2.4105285271	 1.0620663088	-0.273109
H	-0.5912038266	 1.8742699092	 0.4122186214	 0.076673
H	 0.780281291	 2.2977923373	-1.3340086618	 0.251505
H	 2.5522000534	 0.1858536681	-0.2962868165	 0.148283
H	 2.6929315639	 0.964363564	-1.8866581541	 0.125427
H	 5.7974350996	 4.106662517	-0.7245276155	 0.274999
H	 5.3665527263	 3.8604500154	 1.7696547821	 0.134136
H	 3.3112941218	 2.0168137378	 1.9359862721	 0.132767
41.379	49.9196	133.3106	231.0081	269.6569	339.0614	435.1445	507.8084	519.5514	653.5094	685.3104	743.8601	774.3523	797.5456	870.7316	946.1834	950.8768	997.4894	1014.0694	1032.2247	1070.2069	1105.8468	1204.4053	1205.5973	1278.9717	1301.7839	1383.8325	1412.8631	1427.7188	1458.8207	1472.1962	1492.998	1524.278	1575.6488	1796.7675	2936.1435	3073.8301	3127.1435	3259.6079	3284.3682	3634.5065	3677.5904
O=CNCC1=NNC=C1	O=CNCc1n[nH]cc1	
InChI=1S/C5H7N3O/c9-4-6-3-5-1-2-7-8-5/h1-2,4H,3H2,(H,6,9)(H,7,8)	InChI=1S/C5H7N3O/c9-4-6-3-5-1-2-7-8-5/h1-2,4H,3H2,(H,6,9)(H,7,8)
