17
gdb 111938	3.19285	1.18212	0.90967	5.0836	76.18	-0.2311	-0.0929	0.1382	1267.6784	0.135299	-421.870525	-421.861938	-421.860994	-421.904443	31.173	
C	 0.0544859142	 1.5984761325	 0.0947650613	-0.394599
C	 0.0196682886	 0.0693839712	 0.0422545572	-0.176844
C	-1.4053659978	-0.517873415	-0.0314444805	-0.171499
C	-2.1438225115	-0.28681276	-1.3296779164	-0.061487
C	-2.5603408802	-1.4080590807	-1.9412325563	-0.184128
C	-2.1801572334	-2.6002311712	-1.1632328907	 0.290053
O	-2.3919216491	-3.7661135637	-1.3879184016	-0.29887
C	-1.4065139136	-2.0468577021	 0.0712718247	 0.301491
O	-0.8865067948	-2.7132524902	 0.9233029672	-0.285661
H	 1.0841630509	 1.9586386943	 0.1761686205	 0.126016
H	-0.3793026052	 2.049712587	-0.8038121139	 0.117745
H	-0.5007575119	 1.9774959958	 0.9597135489	 0.12202
H	 0.5992980519	-0.2907250558	-0.8163713538	 0.107554
H	 0.4937759721	-0.3500266786	 0.9359240315	 0.130767
H	-1.9829187535	-0.1114749503	 0.8121594101	 0.119943
H	-2.3107875215	 0.7138599341	-1.715316096	 0.127693
H	-3.1048641852	-1.4655333173	-2.875029422	 0.129806
50.9402	95.235	162.6559	205.0549	255.1283	299.8776	321.272	355.6743	510.3647	553.7627	644.2081	708.0325	716.4856	758.3264	783.7545	850.3163	905.5601	966.3635	1014.4529	1032.4649	1061.7354	1098.3109	1115.7828	1135.0754	1199.8866	1252.6413	1263.5218	1333.1729	1365.7348	1377.8426	1416.1539	1489.7293	1499.9726	1506.1166	1631.0484	1820.6387	1859.5758	3002.3675	3033.3799	3037.2741	3076.5051	3103.9578	3109.3657	3185.1875	3224.4594
CCC1C=CC(=O)C1=O	CC[C@H]1C=CC(=O)C1=O	
InChI=1S/C7H8O2/c1-2-5-3-4-6(8)7(5)9/h3-5H,2H2,1H3	InChI=1S/C7H8O2/c1-2-5-3-4-6(8)7(5)9/h3-5H,2H2,1H3/t5-/m0/s1
