20
gdb 60235	3.27819	0.92135	0.75415	4.6393	76.17	-0.2353	0.0059	0.2412	1516.0813	0.169756	-440.301591	-440.291989	-440.291045	-440.336736	34.954	
C	 0.3518654402	 1.5376504521	 0.172983461	-0.395365
C	 0.1586076487	 0.0198821737	 0.1527639553	 0.067663
C	 0.1229035159	-0.5581260719	 1.5783624941	-0.3847
N	-1.023068506	-0.2884965811	-0.6588544843	-0.286268
C	-1.2699546736	-1.6554428223	-0.9850067741	-0.144917
C	-2.0533402238	-2.6606279432	-0.0814567684	-0.108261
O	-2.9954856501	-2.9052355954	-1.1698319616	-0.238434
C	-2.4224964947	-1.9470083049	-1.9726945234	 0.432241
O	-2.8004506713	-1.5642945933	-3.0303283226	-0.315214
H	 1.2671841994	 1.807989229	 0.7073495626	 0.117416
H	 0.4063887832	 1.9320700023	-0.8444844183	 0.131346
H	-0.4855216749	 2.028758618	 0.6841039624	 0.111892
H	 1.011049554	-0.429009145	-0.3761487427	 0.086432
H	 0.0237404957	-1.6482947349	 1.5705028525	 0.114504
H	 1.0420208312	-0.3147370762	 2.1216908368	 0.118765
H	-0.7200353398	-0.1435087223	 2.1440856192	 0.110675
H	-1.8508205058	 0.1737600303	-0.2971346383	 0.219446
H	-0.341757271	-2.1044246764	-1.3562232898	 0.12403
H	-1.5458408304	-3.5830538971	 0.2096729053	 0.120829
H	-2.5612294569	-2.2107508014	 0.7754631043	 0.11792
50.4811	83.6946	122.3073	165.8642	230.6415	241.4599	271.372	326.1025	385.7611	424.9839	449.7627	559.9861	641.4996	700.2628	754.835	840.4034	863.4304	922.5491	926.6682	945.5578	959.1686	977.2452	1042.4391	1108.3138	1138.9703	1157.6253	1167.9639	1193.8023	1215.7988	1238.7606	1305.8371	1332.8777	1353.7635	1394.4762	1398.1551	1417.4318	1484.1121	1486.0784	1491.4229	1508.6584	1511.3024	1520.0611	1943.2354	3008.9644	3024.9093	3032.925	3057.8708	3060.7243	3093.4172	3100.7672	3103.01	3125.0803	3128.0625	3523.4368
CC(C)NC1COC1=O	CC(C)N[C@H]1COC1=O	
InChI=1S/C6H11NO2/c1-4(2)7-5-3-9-6(5)8/h4-5,7H,3H2,1-2H3	InChI=1S/C6H11NO2/c1-4(2)7-5-3-9-6(5)8/h4-5,7H,3H2,1-2H3/t5-/m0/s1
