21
gdb 75261	2.74552	1.56132	1.0546	0.3432	90.84	-0.2211	0.0299	0.251	1181.8818	0.18456	-349.986261	-349.978271	-349.977326	-350.018461	31.95	
C	-0.0935063971	 1.5297764104	-0.055974497	-0.495821
C	 0.0069089428	 0.0379164876	-0.0262509471	 0.312464
C	-0.0096314849	-0.7957869242	-1.0749189732	-0.165742
C	 0.0624502938	-2.2654545246	-0.6826562165	-0.384525
C	 0.4337837255	-2.1362856339	 0.7698317711	 0.35234
C	 1.2168278311	-2.7802410665	 1.6297474105	-0.224929
C	 1.473596637	-1.92892826	 2.8628347182	-0.243529
C	 1.1167517687	-0.496417982	 2.3687341738	-0.233944
C	 0.0591416853	-0.7527879139	 1.2700095505	-0.138547
H	 0.7675659442	 1.9963208779	 0.4390271442	 0.126756
H	-0.1454270199	 1.913010957	-1.078993088	 0.120768
H	-0.9847129728	 1.8763258253	 0.4837833266	 0.12308
H	-0.0980776682	-0.4791769085	-2.1096048318	 0.082246
H	-0.9098001257	-2.7595416009	-0.8365106113	 0.110993
H	 0.7953386464	-2.839009864	-1.262070207	 0.111518
H	 1.6627672956	-3.7579234659	 1.4834656248	 0.084518
H	 0.8343441761	-2.2298980178	 3.7061821427	 0.100997
H	 2.5071482477	-2.0040705653	 3.2185947663	 0.098226
H	 0.7696590492	 0.160535065	 3.1714084793	 0.088744
H	 2.0078799061	-0.0405660291	 1.9219192649	 0.099923
H	-0.9448172611	-0.7467640765	 1.7314426093	 0.074466
118.8791	177.2886	213.5676	224.1865	280.3825	309.4311	413.7905	513.2737	548.6974	605.9331	623.4335	721.9004	802.1972	815.2386	845.7647	869.1247	915.3352	918.6152	949.5511	972.5657	991.9827	1017.6472	1032.5447	1058.6503	1074.4405	1136.5515	1162.8029	1167.1258	1189.9713	1223.3978	1240.6619	1281.8033	1290.9768	1309.8351	1318.3877	1345.1056	1349.6084	1413.8707	1475.0941	1479.4016	1484.4889	1488.2849	1498.9326	1697.132	1742.5895	2933.4605	2982.6604	2997.2765	3014.5674	3037.3765	3049.967	3059.4643	3060.3577	3092.3719	3106.0721	3178.3774	3190.0596
CC1=CCC2=CCCC12	CC1=CCC2=CCC[C@@H]12	
InChI=1S/C9H12/c1-7-5-6-8-3-2-4-9(7)8/h3,5,9H,2,4,6H2,1H3	InChI=1S/C9H12/c1-7-5-6-8-3-2-4-9(7)8/h3,5,9H,2,4,6H2,1H3/t9-/m0/s1
