19
gdb 40926	3.78402	1.29158	1.1791	1.5485	74.46	-0.2424	0.0585	0.3008	1096.0572	0.159736	-422.968999	-422.961324	-422.96038	-423.001817	29.452	
C	 0.1496873593	 1.4764666526	-0.3358181446	-0.077724
C	 1.6034445083	 1.4416403141	 0.1692870984	-0.355029
C	 1.2210057751	 0.0676228143	 0.7566470442	 0.453821
C	 1.9336749495	-1.2709452546	 0.4117085212	-0.310894
C	 2.0687670521	-1.5825440309	 1.9164092734	 0.119571
O	 3.2912658321	-1.069199062	 2.4904418549	-0.294004
C	 2.6261607874	 0.1287574894	 2.9517441692	-0.083971
C	 1.3077201623	-0.2723212756	 2.2709718395	-0.163327
O	-0.1226690736	 0.1818006436	 0.2401770371	-0.31751
H	-0.4880718715	 2.2580677172	 0.0942006996	 0.103597
H	 0.0205721703	 1.4733843398	-1.4245089255	 0.105314
H	 2.3718713811	 1.4132532677	-0.6053193268	 0.115495
H	 1.8650414674	 2.205755555	 0.9039068441	 0.111474
H	 1.243493275	-1.9397316806	-0.1108434848	 0.117037
H	 2.8779323857	-1.2096123242	-0.1348748562	 0.107947
H	 1.8263485241	-2.5846258467	 2.2774003087	 0.078928
H	 2.5736757655	 0.1578486324	 4.0475162878	 0.102795
H	 3.1176233588	 1.0439953425	 2.5971860908	 0.10004
H	 0.3751308309	-0.2063527239	 2.8289048188	 0.086441
65.9595	76.7982	199.1899	271.9792	348.8336	362.1682	445.0873	505.303	707.6983	780.7335	797.6801	827.3518	858.2862	873.7732	891.6651	933.4468	970.8164	976.2741	990.8888	1010.8732	1031.666	1047.9897	1090.3959	1139.1449	1144.0438	1161.4771	1175.7536	1186.9561	1216.0087	1221.9412	1237.5627	1259.1291	1266.3691	1299.7106	1313.3157	1355.1536	1362.292	1442.2038	1484.9265	1521.3385	1533.2893	3007.3114	3019.9896	3047.7337	3056.5213	3059.6448	3075.958	3082.4627	3121.4168	3129.3047	3130.0178
C1CC2(CC3OCC23)O1	C1C[C@]2(C[C@H]3OC[C@@H]23)O1	
InChI=1S/C7H10O2/c1-2-9-7(1)3-6-5(7)4-8-6/h5-6H,1-4H2	InChI=1S/C7H10O2/c1-2-9-7(1)3-6-5(7)4-8-6/h5-6H,1-4H2/t5-,6-,7-/m1/s1
