18
gdb 51779	2.32081	1.1372	0.87124	3.8705	74.9	-0.2534	-0.0339	0.2194	1339.5474	0.14675	-439.105647	-439.096492	-439.095548	-439.141256	32.195	
O	 0.2129789229	-0.4139466367	 0.3322231702	-0.314031
C	 0.0162174361	 0.7779627257	 0.2489067972	 0.155509
N	 0.969397391	 1.7133656794	-0.0388876526	-0.297419
C	 2.3466647334	 1.3765641277	-0.2866830314	 0.064814
C	 3.0738944022	 1.9712834165	-1.5170451328	-0.253331
C	 4.3576867587	 2.0742357276	-0.6523790175	-0.242856
C	 3.4898155374	 1.9400846464	 0.6423350272	-0.122518
C	 3.1623351704	 3.2757948928	 1.2491170472	 0.165469
O	 3.1500761883	 3.5161153326	 2.4287277425	-0.248329
H	-0.9790626993	 1.240282497	 0.3970130951	 0.081803
H	 0.6786615108	 2.6772384851	-0.090382862	 0.249085
H	 2.3932242447	 0.2870424561	-0.2818299736	 0.138638
H	 3.1043468706	 1.3614379928	-2.4221923293	 0.117247
H	 2.6826118154	 2.9597551368	-1.7792359051	 0.10444
H	 5.0172614286	 1.2129565804	-0.7734884455	 0.124983
H	 4.9526512478	 2.9849803271	-0.7497491923	 0.114474
H	 3.838263238	 1.271003228	 1.4304066566	 0.100789
H	 2.9236198832	 4.0781550047	 0.5072296361	 0.061232
32.9157	58.2647	103.0931	170.2032	200.4168	235.6588	316.8078	394.1488	460.1977	482.2338	531.7451	643.3841	736.8406	828.663	869.8507	892.8378	931.9471	967.4672	994.209	1020.5408	1036.0964	1090.5548	1111.2329	1146.5301	1205.1829	1216.7304	1245.3666	1257.7161	1263.6978	1278.8396	1325.5399	1365.1756	1431.8103	1437.6961	1481.3135	1497.6746	1528.9453	1809.0406	1831.274	2817.0413	2945.9461	3052.0283	3073.4523	3104.8219	3109.4395	3121.5757	3131.6119	3628.0391
O=CNC1CCC1C=O	O=CN[C@H]1CC[C@H]1C=O	
InChI=1S/C6H9NO2/c8-3-5-1-2-6(5)7-4-9/h3-6H,1-2H2,(H,7,9)	InChI=1S/C6H9NO2/c8-3-5-1-2-6(5)7-4-9/h3-6H,1-2H2,(H,7,9)/t5-,6-/m0/s1
