15
gdb 41057	3.35827	2.20402	1.9361	1.9711	66.03	-0.2359	0.0333	0.2692	757.927	0.11382	-420.470117	-420.464552	-420.463608	-420.499656	24.085	
C	 0.0759092883	 1.4747504073	-0.2020796486	-0.167597
O	 1.4769130268	 1.5535957569	 0.2498864769	-0.315162
C	 1.4266451465	 0.2052025594	 0.6780213325	 0.328869
C	 0.9942595887	-0.4466481064	 2.0264939537	-0.192562
C	 0.9707811454	-1.7364027072	 1.2444261219	-0.072983
C	-0.2899758896	-0.8653621501	 1.3116524422	-0.161529
C	 0.0523107801	-0.0321420147	 0.0681388257	 0.272537
O	 0.580677045	-0.8787287114	-0.9931640296	-0.32395
C	 1.6467821637	-1.1526638296	-0.0586162758	-0.01768
H	-0.5784393055	 2.080363689	 0.4333115539	 0.121452
H	-0.0278514456	 1.764458388	-1.2503993436	 0.133351
H	 1.2214447177	-0.2664244248	 3.0664062702	 0.105197
H	 1.0208937826	-2.7434453466	 1.6299912879	 0.105942
H	-1.2381582673	-1.214892336	 1.7008923907	 0.096569
H	 2.5314282432	-1.6217267139	-0.4914251178	 0.087549
256.339	328.3806	443.4433	525.9521	569.6875	625.5813	728.7958	770.5254	797.617	800.0345	815.8379	829.3376	868.1656	885.1461	912.9185	937.3745	962.9627	1000.9569	1016.5733	1031.1428	1070.1236	1086.366	1117.8759	1133.867	1152.7821	1172.0548	1225.3409	1248.2992	1270.9355	1300.4968	1311.853	1342.5031	1491.7537	3045.4886	3113.4815	3114.5502	3186.3713	3228.6946	3241.556
C1OC23C4C5C4C12OC35	C1O[C@@]23[C@@H]4[C@H]5[C@@H]4[C@@]12O[C@@H]35	
InChI=1S/C7H6O2/c1-6-3-2-4(3)7(6,8-1)5(2)9-6/h2-5H,1H2	InChI=1S/C7H6O2/c1-6-3-2-4(3)7(6,8-1)5(2)9-6/h2-5H,1H2/t2-,3+,4-,5-,6+,7-/m1/s1
