14
gdb 132090	3.03466	1.40651	0.96687	5.5036	68.9	-0.2317	-0.0649	0.1668	1112.7397	0.10097	-478.035148	-478.027422	-478.026478	-478.067779	28.309	
C	-0.0272274639	 1.537661657	 0.0354112461	-0.506178
C	 0.005258653	 0.0447503736	-0.0444740027	 0.262824
C	 0.1747947787	-0.670482085	-1.1923570442	 0.148819
F	 0.3299767223	-0.0585293301	-2.3746065825	-0.07927
C	 0.1856913126	-2.0839152279	-1.1245064228	-0.046599
N	 0.0435951998	-2.7745117274	-0.0283792174	-0.31991
C	-0.1331113898	-2.1042939547	 1.176490069	 0.441033
O	-0.2749562343	-2.6353577964	 2.2547896499	-0.381423
N	-0.141981517	-0.6876157456	 1.0930043083	-0.401486
H	 0.1037418053	 1.9704443742	-0.9560190328	 0.165426
H	-0.9822048161	 1.8830106912	 0.4464343878	 0.156161
H	 0.770265296	 1.9081256126	 0.6888258288	 0.156181
H	 0.3227427131	-2.6353527848	-2.0556997031	 0.136377
H	-0.2717368495	-0.2193801668	 1.9798295055	 0.268045
99.8088	105.1212	181.0507	269.6015	340.7163	356.1363	449.6882	467.8869	543.9504	588.0754	594.5617	685.2218	764.8619	796.3363	803.4888	892.2315	994.3424	1030.7582	1062.4747	1096.2865	1188.4251	1285.0701	1326.88	1407.0782	1439.316	1450.0032	1485.069	1488.1943	1596.746	1698.9524	1814.0131	3039.616	3094.9713	3126.0437	3159.7321	3598.0814
CC1=C(F)C=NC(=O)N1	Cc1c(F)cnc(=O)[nH]1	
InChI=1S/C5H5FN2O/c1-3-4(6)2-7-5(9)8-3/h2H,1H3,(H,7,8,9)	InChI=1S/C5H5FN2O/c1-3-4(6)2-7-5(9)8-3/h2H,1H3,(H,7,8,9)
