16
gdb 123493	5.06978	0.91689	0.87883	3.8334	70.57	-0.2553	-0.0416	0.2137	1316.6864	0.124876	-433.989745	-433.9821	-433.981155	-434.023364	27.637	
C	-0.1391307818	 1.6250957267	 0.0374807541	-0.276678
N	-0.2717128715	 0.2303600238	-0.3729192961	-0.075022
C	-0.2113510988	-0.7608695759	 0.700735574	-0.217757
C	-1.5037870407	-0.4373323105	 0.0361658355	-0.218876
C	 1.3041015176	 2.0236559731	 0.0355345398	 0.34762
N	 1.8549059412	 2.6996884326	 1.0076841253	-0.153872
O	 3.1618876746	 2.8801208994	 0.6480325115	-0.148963
N	 3.4290187585	 2.2997501936	-0.5607099602	-0.061971
C	 2.3035881111	 1.7708619316	-0.9490218237	-0.094015
H	-0.6884886878	 2.2401739945	-0.6862917903	 0.13149
H	-0.5626299119	 1.8343074157	 1.0329236392	 0.117449
H	 0.3164698357	-1.6791214532	 0.4626133093	 0.125853
H	-0.0677859474	-0.4004621217	 1.7175634442	 0.124817
H	-2.2281039022	 0.1376608234	 0.6104031631	 0.117047
H	-1.9355093481	-1.1147508293	-0.6944066119	 0.125353
H	 2.2230920814	 1.2323995161	-1.8795519938	 0.157525
40.4127	74.3126	128.7041	283.1957	325.1644	371.2138	424.8617	649.789	677.3466	755.874	773.3505	839.7651	888.6045	902.5152	909.6993	932.8505	997.5283	1020.7046	1033.7718	1048.7125	1069.3038	1115.8367	1122.363	1173.8514	1180.2784	1198.8028	1265.1703	1321.4645	1374.4066	1427.4258	1471.2379	1482.8079	1493.9045	1521.2952	1617.4403	2978.4158	3046.2438	3100.7652	3106.254	3186.5073	3200.9126	3281.0222
C(N1CC1)C1=NON=C1	C(N1CC1)c1nonc1	
InChI=1S/C5H7N3O/c1-2-8(1)4-5-3-6-9-7-5/h3H,1-2,4H2	InChI=1S/C5H7N3O/c1-2-8(1)4-5-3-6-9-7-5/h3H,1-2,4H2
