20
gdb 10989	2.73888	2.37186	1.70219	1.5394	74.45	-0.23	0.0889	0.3189	873.271	0.177654	-348.994057	-348.986457	-348.985513	-349.025246	30.413	
C	-0.1683730081	 1.5591912292	-0.0765317093	-0.437829
C	 0.0100662986	 0.048993649	 0.001100754	 0.007227
C	 1.1575205443	-0.602994161	-0.8470893188	-0.080552
C	 2.1294971497	-0.2209395837	 0.3119111874	-0.283108
C	 0.8710651026	-0.5573081952	 1.156595051	 0.449852
C	 0.6967057353	-0.2452836813	 2.6152180063	-0.49715
O	 0.7191347468	-1.9774666833	 0.923194508	-0.316645
C	 0.9185742804	-2.0765926798	-0.5054346701	-0.084223
H	 0.7720783986	 2.1115005216	 0.0023986851	 0.117128
H	-0.6336005314	 1.8411957383	-1.0274842918	 0.11756
H	-0.8265752471	 1.9125218659	 0.7251050977	 0.119024
H	-0.9646719739	-0.4423214897	-0.0987389154	 0.067954
H	 1.3440239424	-0.342093677	-1.8888662617	 0.065553
H	 3.0095709314	-0.8490213615	 0.4733632745	 0.094953
H	 2.4072710235	 0.8322620334	 0.3209242121	 0.100122
H	 0.7881047006	 0.8299335437	 2.7938456809	 0.116984
H	-0.2884431379	-0.5737337954	 2.9616929508	 0.126208
H	 1.4548496516	-0.7617462441	 3.212166197	 0.127158
H	 0.0259157687	-2.4975558628	-0.9840079569	 0.095101
H	 1.7770969737	-2.7239143463	-0.7226511007	 0.094682
186.4128	197.3411	199.6948	259.5153	305.8507	344.7023	399.5011	485.1376	531.6199	630.6946	655.6991	786.7196	817.408	853.3712	883.8749	913.9521	949.9006	961.8147	987.6241	1009.4752	1046.6267	1068.3183	1100.1517	1124.7137	1130.1019	1170.5771	1189.7439	1194.5413	1231.1832	1259.5496	1269.1433	1331.7803	1356.3124	1387.025	1411.8713	1416.814	1479.2302	1489.8815	1492.6021	1497.86	1508.6696	1531.5702	3015.8833	3031.2045	3037.5935	3039.6101	3054.7089	3070.5344	3088.5937	3107.5471	3108.6765	3115.5474	3117.1252	3145.6421
CC1C2CC1(C)OC2	C[C@H]1[C@H]2C[C@]1(C)OC2	
InChI=1S/C7H12O/c1-5-6-3-7(5,2)8-4-6/h5-6H,3-4H2,1-2H3	InChI=1S/C7H12O/c1-5-6-3-7(5,2)8-4-6/h5-6H,3-4H2,1-2H3/t5-,6-,7-/m0/s1
