16
gdb 10364	2.50058	2.09474	1.39121	0.8941	76.64	-0.2537	0.0315	0.2852	933.6641	0.128392	-309.385255	-309.377118	-309.376174	-309.417451	30.949	
C	-0.2504213276	-1.3239757431	-0.3129910565	-0.42591
C	-0.1387817479	-0.1367127381	-0.1619679619	 0.238019
C	 0.0327425797	 1.2916374005	 0.0615886709	-0.030857
C	-0.1024123054	 1.793548456	 1.555473061	-0.239493
C	 1.1514366612	 2.6778695142	 1.3500424369	-0.218235
C	 1.5211733571	 1.8244089306	 0.1126001476	-0.239493
C	-0.7923034777	 2.0791351902	-0.8499476015	 0.303688
C	-1.459737497	 2.7547541074	-1.5865246956	-0.470471
H	-0.3604445298	-2.3699080198	-0.4591705327	 0.193039
H	-1.0459333545	 2.2774900647	 1.8095381289	 0.117362
H	 0.0804690014	 0.9639735242	 2.2413136815	 0.11765
H	 0.8860263828	 3.7006827104	 1.0732664941	 0.118345
H	 1.8756216733	 2.7108923286	 2.1656345765	 0.104631
H	 2.1983069463	 1.0042286006	 0.359200789	 0.11765
H	 1.8737612067	 2.3329868125	-0.7851808672	 0.117362
H	-2.0555348686	 3.3375551511	-2.244476631	 0.196714
114.2316	127.7548	171.1382	184.1107	256.1408	451.6535	463.8381	527.1789	558.8179	571.1777	619.4617	628.6545	637.4709	640.8362	685.4405	796.514	871.4856	910.9654	945.296	969.4043	971.3169	1065.742	1112.4807	1203.8247	1207.6988	1254.1989	1262.8253	1280.395	1296.9076	1471.743	1483.1245	1501.8864	2233.1171	2237.7851	3072.9897	3076.1539	3080.3476	3120.2854	3140.7641	3146.5708	3502.4971	3503.3491
C#CC1(CCC1)C#C	C#CC1(CCC1)C#C	
InChI=1S/C8H8/c1-3-8(4-2)6-5-7-8/h1-2H,5-7H2	InChI=1S/C8H8/c1-3-8(4-2)6-5-7-8/h1-2H,5-7H2
