21
gdb 98314	4.04429	0.79758	0.67736	2.1137	87.12	-0.2371	-0.0078	0.2293	1710.8913	0.180282	-420.44834	-420.437421	-420.436476	-420.484999	37.784	
C	 0.009472004	 1.5491676052	-0.0099454175	-0.376422
C	-0.0397411011	 0.0231270021	 0.0237419757	-0.312187
C	-1.4685253331	-0.5035980672	-0.0106312303	 0.429617
O	-2.4286753193	 0.2399812905	-0.0653219698	-0.354924
N	-1.6137600072	-1.8918486682	 0.0249134009	-0.150481
C	-0.4771063296	-2.8073992406	 0.092401904	-0.351741
C	-2.9071667751	-2.4205000569	-0.0022144422	 0.118998
N	-3.1321669188	-3.6662146261	 0.0281993754	-0.248955
C	-4.5161468986	-4.0925681789	-0.0059826038	-0.312664
H	 1.046111417	 1.8965598003	 0.0141527424	 0.107766
H	-0.4676991073	 1.9345099944	-0.9138150958	 0.134912
H	-0.5219233794	 1.9752890443	 0.8440623856	 0.134574
H	 0.5151742917	-0.4023861995	-0.8220677266	 0.126195
H	 0.4598493794	-0.3627758563	 0.9213233073	 0.125851
H	 0.1049278184	-2.6535263259	 1.0060541379	 0.131897
H	-0.8820662453	-3.8181835685	 0.0938935758	 0.174109
H	 0.1832026663	-2.6861279488	-0.77122772	 0.131797
H	-3.6677241006	-1.6389090281	-0.0516935117	 0.135633
H	-4.6786878233	-4.743779861	-0.8728696271	 0.12625
H	-4.7383692873	-4.6909021255	 0.8854156511	 0.126247
H	-5.2369372609	-3.2615395354	-0.0554629311	 0.103528
46.3737	78.951	124.3486	142.9233	146.7742	186.0864	199.2606	218.1841	257.4438	345.5068	371.7618	384.3989	424.0706	564.2816	572.2336	680.2232	813.477	818.9913	968.4448	1016.2805	1017.3894	1071.1165	1084.5761	1096.0293	1132.874	1141.3816	1154.7117	1156.5388	1286.8964	1287.8255	1337.5348	1380.0403	1403.6588	1415.6967	1447.4173	1455.5312	1457.1202	1480.7605	1490.4519	1497.8682	1501.2276	1506.6534	1510.3014	1745.6269	1777.858	2979.5138	3027.5187	3042.0583	3054.1958	3058.3057	3059.2647	3073.4055	3100.4609	3117.7302	3125.8441	3134.7222	3164.4615
CCC(=O)N(C)C=NC	CCC(=O)N(C)C=NC	
InChI=1S/C6H12N2O/c1-4-6(9)8(3)5-7-2/h5H,4H2,1-3H3	InChI=1S/C6H12N2O/c1-4-6(9)8(3)5-7-2/h5H,4H2,1-3H3
