15
gdb 37872	3.31973	2.26999	1.81242	1.3679	67.72	-0.2354	-0.0128	0.2226	765.6777	0.114453	-420.520855	-420.515432	-420.514488	-420.550227	24.036	
O	-0.0883828248	 1.4496711096	 0.0484430644	-0.384897
C	 1.4055744077	 1.2258610673	 0.0210574349	-0.041455
C	 1.2550420843	-0.0063347991	 0.9403517805	 0.068241
O	 2.0971557793	-1.060971745	 0.6065461207	-0.268291
C	 1.7752237186	-1.2164912352	-0.8310973788	-0.027168
C	 0.4742119162	-2.0335258127	-0.8772781236	-0.066118
C	-0.5634451999	-1.2765742084	-0.4480552099	-0.23902
C	 0.078251997	 0.0159914832	-0.131752273	 0.391287
C	 1.2473837939	 0.191393635	-1.1210715046	-0.054821
H	 2.0192876517	 2.1224463233	 0.0962784563	 0.096663
H	 1.0534616741	 0.0853462813	 2.0041217422	 0.104635
H	 2.645929558	-1.6263789577	-1.338103309	 0.085493
H	 0.4481988265	-3.1028903081	-1.0447641474	 0.111775
H	-1.5653144526	-1.6117825731	-0.2157790863	 0.125193
H	 1.00130359	 0.5004577195	-2.1335554964	 0.098483
368.7301	401.9147	459.1171	478.267	574.0866	641.6992	706.6768	717.8968	741.5268	755.0499	781.0361	842.7334	872.7015	892.4173	911.2815	932.5814	938.5414	975.6318	1010.8277	1035.9458	1079.1796	1086.7115	1116.6287	1135.9974	1180.9448	1208.6701	1231.2951	1251.848	1277.2608	1295.1343	1349.4434	1375.1698	1561.5281	3128.9483	3144.0837	3163.9684	3172.7479	3209.113	3231.5065
O1C2C3OC4C=CC13C24	O1[C@H]2[C@@H]3O[C@H]4C=C[C@@]13[C@@H]24	
InChI=1S/C7H6O2/c1-2-7-4-3(1)8-6(7)5(4)9-7/h1-6H	InChI=1S/C7H6O2/c1-2-7-4-3(1)8-6(7)5(4)9-7/h1-6H/t3-,4+,5+,6-,7-/m0/s1
