19
gdb 78914	3.31417	1.77586	1.58428	1.6282	76.38	-0.2437	0.0791	0.3228	906.7713	0.163228	-385.873288	-385.866961	-385.866017	-385.903601	27.55	
O	 0.1123491821	 1.4321057739	 0.1853825925	-0.445754
C	 0.0416591908	 0.0210923048	 0.0680241816	 0.131685
C	-1.3559411342	-0.5310068164	-0.151070363	-0.120464
C	-1.6063586122	-0.5752746444	-1.6526370552	-0.075461
C	-1.2365412101	-1.8391576601	-0.8978558986	-0.066967
C	 0.2175306481	-2.0301105289	-1.385561593	-0.060132
C	 0.1267086688	-1.7339726779	-2.9105372875	-0.227508
C	-0.2885302758	-0.3183835317	-2.4104225527	-0.063449
C	 0.6800669587	-0.5496534394	-1.1954106995	-0.066046
H	-0.3874161688	 1.8049459383	-0.5497391006	 0.28022
H	 0.5070688906	-0.372864732	 0.9782765703	 0.085702
H	-2.1594799493	-0.3465400358	 0.5517291726	 0.084417
H	-2.5821330979	-0.4123482082	-2.0901279136	 0.083614
H	-1.9207639136	-2.6645202387	-0.7529201171	 0.08489
H	 0.7820690767	-2.8719812719	-0.9850304195	 0.062066
H	 1.1048817346	-1.7382638249	-3.4003449451	 0.093838
H	-0.5954805211	-2.3013640764	-3.5052350909	 0.08859
H	-0.2267807561	 0.5619034467	-3.0513282347	 0.058892
H	 1.7331521988	-0.338648717	-1.3713548859	 0.071865
174.5353	262.5375	327.438	431.514	486.7984	554.3251	654.8443	701.8895	747.486	801.3051	808.4673	826.7769	861.9705	870.9475	887.3548	931.4134	936.2856	963.2148	977.1463	1000.89	1013.9641	1038.5515	1054.7102	1070.1904	1075.8986	1094.3055	1099.2977	1119.9177	1174.4819	1228.6655	1236.0634	1244.0851	1250.3044	1266.4598	1274.909	1288.6937	1305.599	1337.885	1375.5841	1430.5228	1501.2481	3047.2141	3057.9194	3102.8197	3105.8949	3113.8464	3140.6472	3187.9888	3196.8603	3208.712	3798.4226
OC1C2C3C2C2CC3C12	O[C@H]1[C@H]2[C@@H]3[C@H]2[C@H]2C[C@@H]3[C@@H]12	
InChI=1S/C8H10O/c9-8-4-2-1-3(4)6-5(2)7(6)8/h2-9H,1H2	InChI=1S/C8H10O/c9-8-4-2-1-3(4)6-5(2)7(6)8/h2-9H,1H2/t2-,3+,4-,5+,6-,7+,8-/m1/s1
