21
gdb 87008	5.85238	0.56346	0.54784	3.191	80.99	-0.2467	-0.0187	0.228	1985.2977	0.180658	-424.224271	-424.214366	-424.213422	-424.260511	35.499	
O	 0.012268941	 1.4608675083	-0.0037529437	-0.430633
C	 0.0662975427	 0.0542744634	 0.0174322033	 0.146553
C	 0.3448193219	-0.6742497887	 1.3618897271	-0.292939
C	-0.7918226747	-1.6712050493	 0.9964856875	 0.044781
C	-1.7223710713	-2.1513609731	 2.1030773462	-0.220241
C	-2.886004232	-3.0111219016	 1.5742268741	-0.271241
C	-3.8544006941	-3.3826326562	 2.6719700913	 0.159172
O	-4.1587871248	-4.5063167051	 2.9789235847	-0.23797
C	-1.3167282499	-0.6237831927	-0.029352892	-0.247629
H	 0.9127400735	 1.8005250956	 0.0116773766	 0.282178
H	 0.7203044659	-0.3315967687	-0.7780066547	 0.067063
H	 1.3460645607	-1.0721564715	 1.5458260761	 0.093329
H	 0.0513210222	-0.0297263655	 2.1970814054	 0.104256
H	-0.3761308727	-2.5368133867	 0.4678956116	 0.073822
H	-1.1497038188	-2.7299226524	 2.8395159358	 0.110572
H	-2.1256711178	-1.2807493205	 2.6380557922	 0.099586
H	-3.4427972118	-2.432036224	 0.8229895102	 0.12231
H	-2.5258084757	-3.9286155131	 1.0993439032	 0.119388
H	-4.2846589651	-2.5065049554	 3.2142353723	 0.068602
H	-2.0593700375	 0.038904219	 0.4278268443	 0.109197
H	-1.6895721715	-0.9680424319	-0.9962627318	 0.099843
48.3819	53.3661	91.0997	116.7232	155.4376	265.6819	289.4056	324.127	398.9822	417.5437	464.9274	524.4291	603.96	768.4344	789.8506	810.3732	851.2469	923.5487	952.8836	979.3336	1002.8946	1025.6886	1035.7863	1074.1012	1108.283	1125.6451	1167.026	1186.4076	1218.8386	1237.1618	1248.0378	1265.7572	1273.5067	1282.0419	1318.6674	1332.4332	1358.1495	1391.8198	1430.5008	1432.8376	1464.172	1469.898	1491.7651	1503.1298	1836.0494	2844.7984	2992.2155	3009.8805	3015.3396	3035.168	3047.5515	3053.1083	3056.0783	3096.705	3108.2213	3114.9497	3815.3503
OC1CC(CCC=O)C1	O[C@H]1C[C@@H](CCC=O)C1	
InChI=1S/C7H12O2/c8-3-1-2-6-4-7(9)5-6/h3,6-7,9H,1-2,4-5H2	InChI=1S/C7H12O2/c8-3-1-2-6-4-7(9)5-6/h3,6-7,9H,1-2,4-5H2/t6-,7+
