14
gdb 13474	3.3295	1.92185	1.30522	1.7759	58.54	-0.2499	0.0095	0.2594	883.169	0.108207	-415.916086	-415.908553	-415.907609	-415.948384	27.25	
N	-0.0853005409	 1.2534200341	 0.3350379791	-0.519774
C	 0.0938648858	-0.0186158024	-0.1177802374	 0.380945
O	 1.1397317441	-0.4553181436	-0.554671173	-0.360333
C	-1.1861037183	-0.8470425835	-0.0619370169	-0.261689
C	-1.0394460683	-2.3676795517	 0.1997942716	-0.171214
N	-1.8269521009	-2.1558644642	 1.4282049665	-0.324082
C	-1.939346093	-0.8019017676	 1.2915302346	 0.434793
O	-2.3934396377	 0.079223809	 1.9792705609	-0.377277
H	 0.7324727065	 1.8370585082	 0.4154636261	 0.261182
H	-0.8902929534	 1.4646482402	 0.9098270414	 0.279716
H	-1.8257406822	-0.5898411099	-0.9099623644	 0.135315
H	-1.5216315057	-3.024337815	-0.5283741529	 0.120187
H	-0.0075929861	-2.6818378222	 0.37018842	 0.144253
H	-2.0498809299	-2.7644609614	 2.2017669845	 0.257978
63.7993	122.0153	167.8878	238.9767	394.7535	420.717	450.858	504.7195	565.635	609.619	668.6227	707.0051	774.9744	843.7788	944.517	971.2254	1045.2524	1074.287	1130.1111	1151.5895	1164.9332	1193.7283	1268.1864	1293.4701	1362.4028	1391.3989	1528.5875	1631.0783	1804.0458	1873.953	3066.7307	3092.5975	3125.3303	3545.0252	3614.867	3690.5434
NC(=O)C1CNC1=O	NC(=O)[C@H]1CNC1=O	
InChI=1S/C4H6N2O2/c5-3(7)2-1-6-4(2)8/h2H,1H2,(H2,5,7)(H,6,8)	InChI=1S/C4H6N2O2/c5-3(7)2-1-6-4(2)8/h2H,1H2,(H2,5,7)(H,6,8)/t2-/m1/s1
