17
gdb 65712	4.37536	0.77843	0.74792	2.4138	71.76	-0.2483	-0.0398	0.2085	1493.4558	0.131691	-458.960012	-458.950301	-458.949357	-458.995762	33.877	
O	-0.1782763652	 1.4980392002	-0.1373467464	-0.460496
C	-0.0363340768	 0.104522924	-0.0393906984	 0.365166
C	 1.1264749742	-0.45338205	-0.8512572511	-0.322514
C	 2.4681852583	-0.0078932729	-0.3059453446	 0.153948
O	 3.3686691344	-0.7518126599	-0.016791835	-0.229987
C	-0.4632113079	-0.5603969164	 1.2262868151	-0.360177
C	-1.3343663851	-0.6871088891	-0.0292633839	-0.155548
C	-2.6379834819	 0.0236340657	-0.0558302972	 0.174099
O	-3.6242704425	-0.4112282096	-0.5971433783	-0.26749
H	 0.319920451	 1.9093026212	 0.5765832276	 0.293968
H	 1.108816333	-1.545641635	-0.8762865655	 0.127904
H	 1.0312089017	-0.0748096806	-1.8778920772	 0.139868
H	 2.5753730523	 1.0945489274	-0.1831327774	 0.073965
H	 0.0564183256	-1.4493655918	 1.56514108	 0.142557
H	-0.8498010157	 0.0753533968	 2.0169936112	 0.129052
H	-1.341023948	-1.6410198006	-0.5447855497	 0.114654
H	-2.6464521275	 0.9994314504	 0.4732238907	 0.081031
47.6246	61.0869	95.6757	130.5438	223.3798	237.1842	261.2936	335.268	373.6783	426.2746	456.3241	501.3111	594.3215	697.071	835.21	857.8481	882.4213	910.285	979.511	1021.8346	1050.8285	1063.2098	1067.9124	1081.3363	1170.8671	1195.049	1211.8967	1295.361	1302.7013	1338.6299	1377.185	1425.8196	1441.1034	1449.8504	1479.8146	1816.7667	1836.588	2864.7922	2914.5546	3029.3214	3113.7099	3131.5111	3181.8733	3225.0295	3811.8404
OC1(CC=O)CC1C=O	O[C@@]1(CC=O)C[C@H]1C=O	
InChI=1S/C6H8O3/c7-2-1-6(9)3-5(6)4-8/h2,4-5,9H,1,3H2	InChI=1S/C6H8O3/c7-2-1-6(9)3-5(6)4-8/h2,4-5,9H,1,3H2/t5-,6-/m0/s1
