20
gdb 18640	2.75124	2.1321	1.74139	1.3845	74.31	-0.2429	0.0817	0.3246	886.8457	0.178153	-349.004857	-348.997071	-348.996126	-349.036399	30.383	
C	-0.1999123835	 1.5356964929	-0.1384062846	-0.42433
C	 0.022269851	 0.0415214003	-0.0039418275	-0.006276
C	 1.3535714848	-0.6418195884	-0.217061395	-0.086477
C	 2.6096215937	 0.1955048259	-0.0405594942	-0.096682
O	 2.4611209509	 0.8876541972	 1.1965968405	-0.267519
C	 1.6439361019	 0.0991619187	 2.0685872597	 0.135836
C	 1.0171791906	 1.0085964977	 3.1162843437	-0.404567
C	 0.7033275068	-0.6671077506	 1.1496167126	-0.084749
H	 0.6509426078	 2.1118610629	 0.2264145325	 0.14429
H	-0.3669642214	 1.7994011341	-1.1891231354	 0.109299
H	-1.0887991085	 1.8491956579	 0.4205814354	 0.112442
H	-0.8090440502	-0.5404280821	-0.3977512416	 0.082481
H	 1.415408332	-1.5239604278	-0.8445935824	 0.083359
H	 3.4945281076	-0.4612783395	-0.0217914299	 0.091614
H	 2.7654104521	 0.9521760639	-0.8177281227	 0.104942
H	 2.2764719358	-0.6451992968	 2.5857742465	 0.063914
H	 0.3458347339	 1.7395414827	 2.6601129299	 0.124992
H	 0.4446929016	 0.4133358042	 3.8346661755	 0.112333
H	 1.7962774081	 1.5469621003	 3.6637534343	 0.123357
H	 0.2525515051	-1.5711637435	 1.5446006925	 0.081741
150.4838	197.4261	214.7256	227.4924	242.8011	292.7144	395.2577	466.6866	547.7943	653.2625	729.0171	760.9776	776.1115	840.8158	876.5443	934.3417	969.3498	991.8346	1019.6372	1042.5879	1077.2717	1085.5509	1113.3815	1126.3557	1130.8973	1149.8586	1166.2603	1224.9549	1242.7432	1330.7543	1343.3156	1358.473	1372.0943	1394.0371	1409.1429	1417.7489	1449.1794	1487.0468	1494.8455	1501.6408	1510.8786	1520.509	2929.8974	2972.2548	3030.4757	3045.5887	3057.4533	3081.4348	3113.1342	3116.2726	3131.278	3147.5943	3163.2235	3174.6229
CC1C2COC(C)C12	C[C@H]1[C@H]2CO[C@@H](C)[C@@H]12	
InChI=1S/C7H12O/c1-4-6-3-8-5(2)7(4)6/h4-7H,3H2,1-2H3	InChI=1S/C7H12O/c1-4-6-3-8-5(2)7(4)6/h4-7H,3H2,1-2H3/t4-,5-,6+,7+/m0/s1
