17
gdb 65671	3.77892	1.09564	0.98061	4.1474	69.17	-0.246	-0.0152	0.2308	1202.5894	0.133024	-458.890326	-458.881922	-458.880978	-458.923813	31.447	
O	 0.1935487671	 1.3834108681	-0.2375294805	-0.475879
C	 0.0579273318	 0.0088245671	-0.0139248543	 0.407288
C	 1.0960380296	-0.6719247879	-0.891242025	-0.325875
C	 2.5035555775	-0.2164904468	-0.5651376197	 0.174118
O	 3.3631895995	-0.0158978232	-1.3816926693	-0.243981
C	-0.1670552835	-0.5546105396	 1.4419705088	-0.016052
C	-1.5994152342	 0.0341924909	 1.4496280278	-0.261281
C	-1.3589914643	-0.6606306669	 0.0869105597	-0.012235
O	-0.7238815692	-1.7748274811	 0.8229267291	-0.29854
H	-0.4211972808	 1.8747313601	 0.3155722709	 0.288606
H	 1.0369763016	-1.7527025827	-0.7259770812	 0.150768
H	 0.9032899745	-0.4664853668	-1.947925831	 0.127594
H	 2.7116779158	-0.1025005936	 0.5245981644	 0.066963
H	 0.5302498623	-0.6843167742	 2.2703985373	 0.103025
H	-2.2944648636	-0.4922778198	 2.103467908	 0.124547
H	-1.7509599954	 1.1170255103	 1.4952921593	 0.088515
H	-2.0711907887	-0.9168167842	-0.6981685044	 0.102419
69.0792	88.274	152.6747	226.3707	290.1814	321.5261	397.273	426.0878	459.6196	565.5947	615.2814	716.1291	761.7098	790.9872	823.5424	880.7097	906.8006	915.6841	993.1674	1006.9647	1017.8046	1070.1912	1094.7006	1129.1959	1132.5758	1162.2227	1172.8041	1201.5147	1237.3733	1271.744	1279.5568	1300.1572	1395.3041	1434.7816	1447.507	1502.3948	1840.5505	2856.0001	3050.9524	3059.7876	3114.2396	3114.8632	3120.3508	3146.6546	3830.1074
OC1(CC=O)C2CC1O2	O[C@@]1(CC=O)[C@H]2C[C@@H]1O2	
InChI=1S/C6H8O3/c7-2-1-6(8)4-3-5(6)9-4/h2,4-5,8H,1,3H2	InChI=1S/C6H8O3/c7-2-1-6(8)4-3-5(6)9-4/h2,4-5,8H,1,3H2/t4-,5+,6+
