21
gdb 81801	2.05836	1.76571	1.26821	1.8498	82.45	-0.2405	0.0824	0.3229	1118.7115	0.180783	-387.047543	-387.038554	-387.03761	-387.080634	35.036	
C	-0.1446170045	 1.5354759471	-0.0282704988	-0.403684
C	 0.0002702384	 0.0190195737	-0.0099908591	-0.115745
C	 1.1680154026	-0.5270940363	-0.8591209309	-0.048505
O	 1.2434210908	-1.9405826863	-0.6405706928	-0.29685
C	 1.8643275643	-1.0643383561	 0.324203772	 0.343126
C	 3.3056098809	-1.2821735064	 0.6480351288	-0.515244
C	 0.7380690454	-0.5746156032	 1.2263163308	 0.327965
C	 0.8936268835	 0.0610975541	 2.5769921174	-0.335174
C	 0.1769698683	-1.2633669778	 2.4313534579	-0.322858
H	 0.8125942202	 2.0292779829	 0.1707206021	 0.115763
H	-0.5071739818	 1.8805051614	-1.0027874911	 0.115284
H	-0.8585472597	 1.8756173712	 0.7290122446	 0.117798
H	-0.9520330609	-0.4692870145	-0.2413879757	 0.081375
H	 1.5550719523	-0.1425431976	-1.7976208726	 0.095726
H	 3.869838371	-1.491362462	-0.2644405272	 0.135651
H	 3.7351118505	-0.3999764794	 1.133138589	 0.125849
H	 3.4312011	-2.135085037	 1.3253900736	 0.128918
H	 1.8789979527	 0.0617906998	 3.032857121	 0.111406
H	 0.3035114279	 0.9432589007	 2.8038869471	 0.112082
H	-0.9015800098	-1.2723150819	 2.5524115061	 0.113718
H	 0.6707897379	-2.1607918025	 2.7900848277	 0.113397
101.6477	188.4562	199.5006	205.6185	221.7334	239.1879	281.3191	366.1711	403.1994	507.5067	519.6939	591.0447	643.5028	765.3355	782.3914	817.8314	861.8855	890.5501	923.6125	947.986	974.2356	977.9179	1021.8243	1050.288	1066.5188	1078.0101	1096.8324	1110.0579	1126.525	1160.8807	1186.8761	1231.2467	1249.9137	1264.4827	1344.238	1382.9173	1399.5958	1409.6796	1463.5953	1465.8341	1484.6579	1492.9633	1495.8905	1498.9036	1508.7234	3028.9266	3032.9202	3052.9539	3094.6841	3095.5073	3100.7619	3121.8378	3122.742	3126.1157	3165.7846	3198.2263	3213.1802
CC1C2OC2(C)C11CC1	C[C@H]1[C@@H]2O[C@]2(C)C21CC2	
InChI=1S/C8H12O/c1-5-6-7(2,9-6)8(5)3-4-8/h5-6H,3-4H2,1-2H3	InChI=1S/C8H12O/c1-5-6-7(2,9-6)8(5)3-4-8/h5-6H,3-4H2,1-2H3/t5-,6-,7-/m0/s1
