19
gdb 54187	2.48701	1.56371	1.23094	2.8933	74.92	-0.2374	-0.0131	0.2243	1080.7263	0.156892	-423.007388	-422.998515	-422.997571	-423.040994	33.682	
C	 0.5226031441	 0.7316658333	-0.9359558582	-0.497796
C	-0.1129776816	 0.1629068253	 0.3157307989	 0.343582
O	 0.3366147398	 0.4025294694	 1.4155706217	-0.307789
C	-1.3294947759	-0.7597174823	 0.1662983296	 0.17487
C	-2.1160629411	-0.8442471213	 1.4734553056	-0.444795
C	-2.2757339425	-0.6231884036	-1.0938810324	-0.327225
C	-1.9198022854	-2.0651615615	-1.4750138583	 0.039364
O	-0.5028908923	-2.1146022488	-1.691787828	-0.239877
C	-0.9830592942	-2.1908745444	-0.3498294919	-0.003561
H	 1.4784111347	 1.189139383	-0.6772105678	 0.134931
H	 0.646554998	-0.0484508149	-1.6914113899	 0.163364
H	-0.1308717244	 1.4979889571	-1.3702084202	 0.136198
H	-2.5837298054	 0.1172068991	 1.7063357573	 0.124578
H	-2.9043443397	-1.6006659398	 1.4022667111	 0.107363
H	-1.4522465391	-1.0977199199	 2.3021315	 0.142422
H	-3.3175871875	-0.4896201435	-0.7942740295	 0.11528
H	-2.0181562687	 0.1228395985	-1.8476538869	 0.114929
H	-2.5185189722	-2.810922998	-1.9839277565	 0.111824
H	-0.6734016667	-3.0418786077	 0.2468008356	 0.112337
44.2764	170.9824	201.3162	215.5294	235.4565	273.846	311.3139	374.5237	435.5165	471.6339	501.0759	618.8677	634.7975	784.1995	835.6324	855.9006	863.9881	872.2683	935.5168	965.4888	982.0905	991.9869	1044.6772	1057.9682	1116.048	1142.3023	1169.051	1173.9344	1226.4913	1253.1151	1264.8922	1291.7535	1383.4531	1384.8584	1408.6479	1467.2631	1474.9585	1483.2861	1489.3705	1495.5319	1790.5041	3038.7557	3040.8297	3075.8571	3106.99	3109.3205	3131.6993	3135.7406	3156.78	3179.3165	3197.9923
CC(=O)C1(C)CC2OC12	CC(=O)[C@@]1(C)C[C@H]2O[C@@H]12	
InChI=1S/C7H10O2/c1-4(8)7(2)3-5-6(7)9-5/h5-6H,3H2,1-2H3	InChI=1S/C7H10O2/c1-4(8)7(2)3-5-6(7)9-5/h5-6H,3H2,1-2H3/t5-,6-,7-/m1/s1
