21
gdb 82965	2.90911	1.7284	1.44025	0.7027	87.72	-0.2133	0.0057	0.219	1007.7625	0.184665	-349.91208	-349.904791	-349.903846	-349.94324	30.687	
C	 0.106235219	 1.527494324	 0.2971598658	-0.414109
C	 0.0102417063	 0.0385060801	 0.0173108099	-0.026848
C	 0.7772761435	-0.6387378456	-1.1941161817	-0.050232
C	 2.3418886035	-0.4852728924	-1.2716392926	-0.244444
C	 2.5773382731	-1.810101842	-0.4372710066	-0.02133
C	 3.0672577357	-1.6209473922	 1.0206322508	-0.252484
C	 1.9238979628	-0.7789835714	 1.5925766062	-0.162991
C	 0.8263085442	-0.9408758726	 0.846697941	 0.146634
C	 1.0416863409	-1.8989023702	-0.3184246408	-0.063344
H	 1.1506746723	 1.8502055872	 0.3558904632	 0.117507
H	-0.3881369684	 2.1068517823	-0.4900968785	 0.113668
H	-0.3748208122	 1.78214603	 1.2478061901	 0.119614
H	-1.0408617838	-0.263729681	-0.0844025811	 0.077581
H	 0.2488308409	-0.6602003259	-2.1505262678	 0.061893
H	 2.6932096705	-0.585468699	-2.301263177	 0.101465
H	 2.7702228594	 0.4303678894	-0.8555118057	 0.097605
H	 3.104477843	-2.5900720675	-0.9935777918	 0.054585
H	 3.2298115449	-2.5853134733	 1.52377829	 0.098583
H	 4.0163515503	-1.0740267799	 1.079302942	 0.098907
H	 2.0936346242	 0.0278637013	 2.2975351535	 0.086583
H	 0.4673309298	-2.8246382813	-0.3757584688	 0.061158
166.615	211.1002	225.1805	302.5865	334.6832	424.1077	522.0196	580.3259	625.8342	667.4227	744.3264	788.0191	810.3022	845.3748	855.727	883.9108	890.1444	925.8492	935.9263	969.9081	993.5946	998.3838	1030.545	1066.6404	1081.7047	1101.8707	1129.7623	1141.4837	1170.6817	1194.065	1217.3388	1220.9369	1244.493	1266.0412	1282.5868	1300.7325	1309.6514	1332.3261	1369.3172	1407.2345	1467.2832	1479.1954	1490.581	1498.4831	1672.1847	2998.2934	3011.7348	3030.3311	3049.5391	3058.4367	3067.8483	3070.9242	3094.9983	3098.5338	3103.7576	3113.8218	3183.8062
CC1C2CC3CC=C1C23	C[C@H]1[C@H]2C[C@H]3C[CH][C]1[C@@H]23	
InChI=1S/C9H12/c1-5-7-3-2-6-4-8(5)9(6)7/h3,5-6,8-9H,2,4H2,1H3	InChI=1S/C9H12/c1-5-7-3-2-6-4-8(5)9(6)7/h3,5-6,8-9H,2,4H2,1H3/t5-,6-,8-,9+/m1/s1
