19
gdb 9258	4.62502	0.91824	0.83886	2.9388	73.12	-0.2511	0.0224	0.2735	1420.786	0.162773	-402.194097	-402.184295	-402.183351	-402.229347	34.019	
C	-0.1017759859	 1.3083273635	 0.0259174084	-0.315016
N	-0.023311828	-0.1363320066	-0.0270840701	-0.208744
C	 0.5410760732	-0.7204754986	 0.9320501977	 0.132837
O	 0.6838246054	-2.0608097877	 0.936387005	-0.232528
C	 1.211802752	-2.6712199906	 2.1305253507	 0.093431
C	 0.0999954772	-2.8904851324	 3.1509612864	-0.387146
C	 1.8514533025	-3.9734685671	 1.645631354	-0.062848
O	 0.9125392896	-4.82132929	 1.0176917598	-0.418094
H	 0.4029538131	 1.7373038563	-0.8473325034	 0.128646
H	-1.1505277227	 1.621780784	-0.0285327198	 0.128578
H	 0.3442283158	 1.7496753024	 0.9326625336	 0.095198
H	 0.9714140353	-0.2167363718	 1.8126197909	 0.074154
H	 1.9969565649	-2.0237688936	 2.5470274706	 0.081175
H	-0.640040859	-3.585920015	 2.749147836	 0.145465
H	 0.5111453921	-3.3138205945	 4.0729006672	 0.120515
H	-0.3960541433	-1.9480497971	 3.3999047249	 0.118632
H	 2.6871487562	-3.7272753446	 0.9732041105	 0.096931
H	 2.2561329952	-4.5234369519	 2.5015331173	 0.110662
H	 0.5219663863	-4.3098108449	 0.2990307905	 0.298153
48.9108	84.7249	97.0789	170.5663	204.8195	221.5027	258.4436	298.3165	318.7857	396.5605	434.4592	457.8573	541.6381	686.8839	840.1804	921.8238	939.4959	982.1009	1009.7099	1054.8597	1094.4703	1140.7394	1142.4745	1146.5047	1158.3917	1233.3522	1259.487	1342.7289	1359.6701	1389.1819	1410.2553	1416.5045	1432.0408	1450.6771	1480.3823	1484.0772	1496.2405	1499.2986	1505.0422	1777.9912	2964.8682	2983.9672	2990.55	3009.7669	3045.6272	3057.9565	3077.5877	3081.1211	3114.055	3138.8678	3796.2772
CN=COC(C)CO	CN=CO[C@@H](C)CO	
InChI=1S/C5H11NO2/c1-5(3-7)8-4-6-2/h4-5,7H,3H2,1-2H3	InChI=1S/C5H11NO2/c1-5(3-7)8-4-6-2/h4-5,7H,3H2,1-2H3/t5-/m0/s1
