20
gdb 64661	3.70666	1.01819	1.00477	4.0825	82.95	-0.2674	0.035	0.3024	1276.7481	0.171163	-366.003308	-365.994557	-365.993612	-366.036749	33.413	
C	-0.0491264396	 1.6428020969	 0.295768068	-0.481415
C	 0.0039852683	 0.1350807966	 0.1416850914	 0.346634
C	-1.3060459982	-0.4637335288	-0.3811818207	-0.417482
C	-1.6396155462	-0.0111123889	-1.7340304608	 0.275261
N	-1.8922390821	 0.3548305039	-2.8007114093	-0.316994
C	 1.2204381891	-0.6270918571	-0.3262955081	-0.078649
C	 2.5248916671	-0.016447287	 0.1999381586	-0.246828
C	 1.9956929327	-0.1784210178	 1.6625573743	-0.250607
C	 0.7004779117	-0.7891206759	 1.1123374043	-0.108383
H	 0.8931181604	 2.0578329294	 0.6568183756	 0.126364
H	-0.2771190567	 2.1223389764	-0.662091845	 0.141726
H	-0.8309367025	 1.9319543552	 1.00815007	 0.116305
H	-1.2473879384	-1.5578380394	-0.392967833	 0.147878
H	-2.1370196832	-0.1985320021	 0.2841450789	 0.148596
H	 1.1537366486	-1.3177932634	-1.1596995992	 0.091524
H	 3.3884413494	-0.655929947	 0.0068417728	 0.109486
H	 2.7647300376	 0.9949394872	-0.1414193089	 0.103905
H	 2.5838288072	-0.9013310112	 2.2313897376	 0.109216
H	 1.8919013557	 0.7289747274	 2.2652450313	 0.101022
H	 0.175100999	-1.6267799647	 1.5588164121	 0.08244
65.3899	119.2802	180.5185	234.2702	256.5356	294.2412	342.6907	397.8632	409.7031	432.9293	573.3767	690.0483	727.1501	785.7519	836.7096	856.7558	924.2986	932.4921	938.2823	968.8844	981.0476	1009.2102	1027.1231	1037.5909	1098.4167	1108.7235	1124.4167	1183.6454	1220.9343	1226.3141	1260.5177	1264.1932	1286.704	1311.1372	1336.2993	1423.5724	1425.8334	1461.2287	1477.0389	1499.0237	1500.6986	1509.2798	2359.9942	3032.2191	3034.8626	3052.9667	3059.8477	3075.9108	3091.1404	3101.1951	3119.0188	3132.3427	3159.2597	3172.9131
CC1(CC#N)C2CCC12	C[C@@]1(CC#N)[C@H]2CC[C@@H]12	
InChI=1S/C8H11N/c1-8(4-5-9)6-2-3-7(6)8/h6-7H,2-4H2,1H3	InChI=1S/C8H11N/c1-8(4-5-9)6-2-3-7(6)8/h6-7H,2-4H2,1H3/t6-,7+,8+
