19
gdb 45483	2.84025	1.67546	1.48395	3.3253	77.46	-0.2317	-0.0101	0.2217	967.7668	0.162693	-385.926138	-385.91932	-385.918376	-385.957369	28.213	
O	 0.0363104291	 0.0456572706	-0.5158211953	-0.332791
C	 0.0081817299	 1.1899906193	-0.134947419	 0.397039
C	-1.2574613506	 2.0109171331	 0.1447512887	-0.318916
C	-0.7909475433	 3.3113712533	 0.8321965184	-0.056144
C	-0.7341510932	 3.1539363753	 2.3676922011	-0.195684
C	 0.5450164464	 2.3213693846	 2.6280794336	-0.24724
C	 1.4563850896	 2.6760306425	 1.4501009801	-0.031635
C	 0.7017413002	 3.4709617409	 0.4287554204	-0.088156
C	 1.19228036	 2.0876545796	 0.0569835362	-0.156807
H	-1.703057613	 2.2275929648	-0.83422629	 0.130049
H	-1.9931970611	 1.4319125138	 0.709711452	 0.120843
H	-1.3979408336	 4.1663226259	 0.5298481445	 0.075396
H	-0.6219851961	 4.1422292408	 2.8271260832	 0.099171
H	-1.6395413234	 2.6994818575	 2.7822079271	 0.097499
H	 1.0159795236	 2.5866726819	 3.5785276812	 0.103436
H	 0.3324116439	 1.247487008	 2.6731057212	 0.115908
H	 2.5015606173	 2.8874623701	 1.646308706	 0.094987
H	 1.0765913084	 4.3726299264	-0.0389893473	 0.090213
H	 2.0596078358	 1.9108576515	-0.5681190522	 0.102831
93.1833	167.9343	352.7671	360.7563	453.5902	507.7502	589.5814	618.6111	675.768	726.0295	748.5536	818.2662	824.5257	848.1131	880.9481	924.0267	935.1434	939.2605	957.1941	999.0183	1032.8551	1046.2904	1071.9769	1098.6245	1125.8226	1164.2578	1171.6488	1196.602	1221.4863	1246.9193	1287.3663	1291.2454	1310.7759	1327.2826	1340.2282	1353.2638	1389.397	1450.3743	1490.7231	1509.4876	1829.1791	3038.3934	3039.6463	3044.6603	3081.4238	3092.7462	3094.2836	3099.5547	3169.9484	3182.7907	3193.5677
O=C1CC2CCC3C2C13	O=C1C[C@H]2CC[C@@H]3[C@H]2[C@H]13	
InChI=1S/C8H10O/c9-6-3-4-1-2-5-7(4)8(5)6/h4-5,7-8H,1-3H2	InChI=1S/C8H10O/c9-6-3-4-1-2-5-7(4)8(5)6/h4-5,7-8H,1-3H2/t4-,5-,7+,8+/m1/s1
