16
gdb 62907	3.07212	1.48713	1.13507	3.8339	69.93	-0.2634	0.0183	0.2817	1054.0656	0.122393	-437.821958	-437.813776	-437.812832	-437.85431	31.357	
C	-0.0007015356	 1.6371575196	-0.0034863127	-0.475597
C	-0.0591910155	 0.1204754617	-0.0049528548	 0.42224
O	-1.3470801053	-0.3644025183	-0.2451110032	-0.455062
C	 1.1693411855	-0.6500932632	-0.6236306739	-0.040546
O	 1.9631165907	-0.1914294468	 0.5316578866	-0.299482
C	 0.6904114653	-0.6512787812	 1.11763973	-0.010788
C	 0.8169370025	-1.9212566134	 0.2107852639	-0.124262
C	-0.2744862797	-2.8230021967	-0.1110087479	 0.274302
N	-1.06871295	-3.6240764864	-0.3636483957	-0.341728
H	 1.0031767352	 1.9943958536	 0.2239414658	 0.151489
H	-0.2931871379	 2.0250362105	-0.9870435859	 0.114444
H	-0.7046485243	 2.0346793124	 0.7336630796	 0.134394
H	-1.7067062332	 0.0642623657	-1.0288715518	 0.291491
H	 1.6299256285	-0.5976655827	-1.6104873332	 0.108321
H	 0.5779076626	-0.6049276394	 2.2005656422	 0.113493
H	 1.7150355012	-2.4893427054	 0.4591285609	 0.13729
125.6257	153.0552	224.2022	256.3107	267.3019	300.2475	391.6661	410.9626	455.1383	538.5704	546.1646	640.6501	678.9317	748.7596	835.7876	883.525	891.7235	912.4535	964.7213	1031.847	1051.5454	1087.4708	1121.2008	1140.9858	1176.9503	1194.5886	1233.4841	1249.1938	1251.9419	1348.3328	1392.174	1402.0312	1489.4749	1501.9503	2356.06	3034.2082	3099.4835	3108.2408	3122.0852	3131.7639	3158.3467	3815.257
CC1(O)C2OC1C2C#N	C[C@@]1(O)[C@H]2O[C@@H]1[C@H]2C#N	
InChI=1S/C6H7NO2/c1-6(8)4-3(2-7)5(6)9-4/h3-5,8H,1H3	InChI=1S/C6H7NO2/c1-6(8)4-3(2-7)5(6)9-4/h3-5,8H,1H3/t3-,4-,5+,6+
