17
gdb 19871	4.09509	2.09869	1.82738	3.1384	66.16	-0.2212	0.073	0.2942	770.8525	0.145545	-363.808321	-363.802237	-363.801292	-363.838401	24.618	
C	-0.0221884607	 1.551062343	-0.0106747841	-0.092825
O	 1.350292302	 1.9415431022	 0.056827201	-0.262626
C	 2.0519786137	 1.0095516757	 0.8812961265	-0.092837
C	 1.3833611272	-0.349769909	 0.6296908054	-0.032714
C	 0.6538194993	-1.0834649644	 1.7757622159	-0.065694
N	-0.2032007675	-0.0771884473	 2.4463339496	-0.330229
C	-0.6746868752	-0.7361106392	 1.2051876648	-0.065771
C	-0.0175048502	 0.0159371511	 0.027594331	-0.032721
H	-0.5861114969	 1.9578321163	 0.8388945908	 0.10472
H	-0.4261869474	 1.9642810919	-0.9392656036	 0.097444
H	 3.1023207925	 1.0432098958	 0.5781567774	 0.097434
H	 1.9744495572	 1.2891931668	 1.9400917013	 0.104764
H	 1.9721639813	-1.0191095972	 0.001452358	 0.077825
H	 0.9772880017	-1.9737350665	 2.3007796666	 0.092024
H	-0.6607265792	-0.5424561733	 3.2288944815	 0.231309
H	-1.5991552804	-1.3001105139	 1.1942907148	 0.092032
H	-0.2165801573	-0.447915352	-0.9391580067	 0.077866
160.2974	178.9483	310.9553	433.8189	580.5341	642.0965	646.4506	675.2606	817.8051	828.2317	864.6401	876.2777	917.3468	924.3383	959.3818	1007.8908	1016.2237	1025.6317	1074.0804	1076.7362	1085.0952	1097.8493	1138.3775	1171.8508	1226.4496	1239.4729	1240.6468	1274.7746	1298.8446	1323.5072	1350.3519	1363.8338	1370.6365	1400.9026	1500.1865	1513.7454	3015.9089	3021.4624	3079.7381	3081.8277	3100.3064	3112.1211	3182.188	3196.0343	3483.7352
C1OCC2C3NC3C12	C1OC[C@H]2[C@H]3N[C@H]3[C@@H]12	
InChI=1S/C6H9NO/c1-3-4(2-8-1)6-5(3)7-6/h3-7H,1-2H2	InChI=1S/C6H9NO/c1-3-4(2-8-1)6-5(3)7-6/h3-7H,1-2H2/t3-,4+,5-,6+
