16
gdb 94029	4.51259	1.01416	0.8836	4.4015	71.33	-0.2757	-0.0141	0.2616	1258.358	0.12438	-437.884816	-437.876537	-437.875593	-437.91802	30.526	
O	-0.050292263	 1.3990136502	 0.0615365852	-0.425843
C	 0.0378414163	-0.0184868835	-0.0162767809	 0.05281
C	-1.401176643	-0.5356461605	-0.015254292	-0.087848
O	-1.4385465099	-1.9215287388	-0.3216003358	-0.262709
C	-1.0074636072	-2.2081579926	-1.6368849714	-0.038009
C	 0.2446564766	-1.4542192142	-2.0373743653	-0.080523
C	 0.7231542569	-0.4716080276	-1.2827276871	-0.096978
C	-0.7833078975	-3.6627770944	-1.7212192895	 0.270313
N	-0.595963054	-4.7965314716	-1.8324753965	-0.312195
H	 0.8266590908	 1.7502359097	 0.2440222373	 0.291097
H	 0.5676613874	-0.4221751774	 0.8606986372	 0.093303
H	-1.8614629135	-0.4286036735	 0.9684057329	 0.126337
H	-1.9831081664	 0.0526956684	-0.7404348071	 0.112064
H	-1.8110230629	-1.9672844596	-2.3579660537	 0.130514
H	 0.7109190047	-1.7546115485	-2.970112346	 0.125259
H	 1.6216732246	 0.064106924	-1.5801298975	 0.102409
57.4319	142.9817	188.366	221.7358	282.0666	322.4973	362.3693	416.3321	476.2648	509.6293	588.2019	622.6816	711.066	780.125	885.6729	914.4167	987.0367	999.7413	1023.214	1075.9733	1081.9373	1095.4077	1131.4377	1204.3753	1236.5998	1279.6673	1298.9238	1341.422	1353.0265	1373.3404	1399.5341	1435.7635	1499.1968	1722.9989	2369.2034	2932.547	2977.802	3005.2992	3119.7956	3154.0721	3190.0578	3826.3554
OC1COC(C=C1)C#N	O[C@H]1CO[C@@H](C=C1)C#N	
InChI=1S/C6H7NO2/c7-3-6-2-1-5(8)4-9-6/h1-2,5-6,8H,4H2	InChI=1S/C6H7NO2/c7-3-6-2-1-5(8)4-9-6/h1-2,5-6,8H,4H2/t5-,6+/m1/s1
