18
gdb 113425	3.12411	1.04629	0.90387	2.0395	74.6	-0.2541	0.0205	0.2746	1315.521	0.146616	-439.059657	-439.050921	-439.049977	-439.093488	32.675	
O	 0.299277704	 0.9457042723	 0.5474757431	-0.414557
C	-0.1621352041	 0.2254523545	-0.5828228594	-0.073813
C	-1.470082494	-0.4887045964	-0.3304472804	-0.122582
C	-1.9114088543	-1.6425973505	-1.2291095018	-0.373192
C	-1.4857966608	-1.893212664	 0.1726638599	 0.437053
C	-0.394878345	-2.7885961823	 0.7537581785	-0.444561
C	-1.4728487117	-3.1481894378	 1.7589960717	 0.428214
N	-1.537359432	-3.9006312668	 2.7576529527	-0.538585
O	-2.4273325374	-2.3243950961	 1.1858902904	-0.268606
H	 0.3558726037	 0.3332570531	 1.2880159106	 0.284881
H	-0.2874219503	 0.970335012	-1.3758675286	 0.11996
H	 0.590660944	-0.4982008606	-0.9384691751	 0.084522
H	-2.268512816	 0.1473895077	 0.0425304713	 0.113975
H	-2.9684378019	-1.7219020265	-1.4568260632	 0.135252
H	-1.2472877647	-1.9594913281	-2.0279883557	 0.12328
H	-0.0683086724	-3.6174282781	 0.1230440603	 0.14539
H	 0.4795054276	-2.2891996853	 1.1769991607	 0.132117
H	-2.4639111948	-3.8722990869	 3.186506265	 0.231253
66.1237	110.1466	148.9819	169.9639	277.9528	304.4102	393.6567	425.9855	447.3604	490.9477	502.4172	565.931	780.4004	791.4596	860.3908	870.7879	894.1598	953.6093	966.4838	1004.8818	1013.5284	1029.7703	1046.8424	1066.8204	1092.515	1144.6163	1158.0174	1163.9638	1214.0092	1224.1128	1290.0045	1330.0411	1373.7134	1410.3376	1431.3121	1464.9007	1494.4295	1508.5748	1833.9717	2963.307	3070.0852	3079.0683	3127.7194	3131.0837	3153.3203	3219.6986	3478.548	3816.8321
OCC1CC11CC(=N)O1	OC[C@H]1C[C@]21C[C]([NH])O2	
InChI=1S/C6H9NO2/c7-5-2-6(9-5)1-4(6)3-8/h4,7-8H,1-3H2	InChI=1S/C6H9NO2/c7-5-2-6(9-5)1-4(6)3-8/h4,7-8H,1-3H2/t4-,6-/m1/s1
