14
gdb 31897	3.7642	1.09958	0.85789	7.2268	77.81	-0.2171	-0.0437	0.1735	1266.3033	0.101835	-432.900075	-432.891855	-432.890911	-432.933518	28.885	
C	 0.0329195924	 1.4860649864	-0.1899944625	-0.3368
N	 0.2055058008	 0.0534078161	 0.0153647124	-0.403767
C	 0.6325121742	-0.7584211392	-0.9889573251	 0.417685
C	 0.6202647394	-2.1192191312	-1.1986238118	-0.212927
N	 1.2653877615	-2.3886386291	-2.3794603032	-0.276198
C	 1.6358860848	-1.2343786953	-2.8418746807	 0.269132
O	 1.2726960458	-0.1778652073	-2.0282478785	-0.195747
C	 2.3310739366	-0.930485492	-4.0306220802	 0.250663
N	 2.9014978906	-0.6705985413	-5.0052259778	-0.337422
H	 0.9701143616	 1.9223362315	-0.5409856719	 0.162436
H	-0.7536675128	 1.7236038232	-0.9187877353	 0.135664
H	-0.2213041031	 1.9426935699	 0.7679547717	 0.139957
H	-0.4425768745	-0.3852686219	 0.6500874051	 0.262143
H	 0.1969650727	-2.8946999498	-0.5821019421	 0.12518
77.1841	123.7267	137.4349	158.8131	233.9116	306.4438	413.015	499.6118	514.9652	558.219	604.4641	703.8688	710.7347	743.2246	778.4445	970.9407	1001.7893	1077.6533	1126.2604	1150.0365	1170.254	1270.8584	1310.7902	1375.3103	1451.128	1488.4758	1489.7167	1515.8499	1565.9942	1654.44	2340.7972	3015.2201	3106.1624	3146.4988	3272.4843	3635.7176
CNC1=CN=C(O1)C#N	CNc1cnc(o1)C#N	
InChI=1S/C5H5N3O/c1-7-5-3-8-4(2-6)9-5/h3,7H,1H3	InChI=1S/C5H5N3O/c1-7-5-3-8-4(2-6)9-5/h3,7H,1H3
