19
gdb 82823	2.28989	2.00142	1.48739	1.2096	73.87	-0.2411	0.0696	0.3107	962.5839	0.15896	-422.979235	-422.971337	-422.970393	-423.011174	31.417	
C	-0.1810957896	 1.5718960753	-0.0441811852	-0.426044
C	 0.0609651732	 0.0725988589	 0.0137802727	-0.043618
C	 1.1559529075	-0.5586704742	-0.8861522873	 0.083766
O	 2.4115027463	 0.1532142328	-0.7800728654	-0.304886
C	 2.7515326172	-0.5533428059	 0.434989776	 0.107987
C	 2.0710509892	 0.0734257378	 1.6746581358	-0.316122
C	 0.7401522865	-0.6066898388	 1.2457457875	 0.368021
O	-0.0768707012	-1.1611337881	 2.2333845082	-0.482676
C	 1.5514765778	-1.5265469737	 0.2611694666	-0.144313
H	 0.7666933198	 2.1161951826	-0.0278181406	 0.133571
H	-0.7073007709	 1.8494146216	-0.9640113977	 0.117664
H	-0.7928124535	 1.9142641825	 0.7985952392	 0.104216
H	-0.8660935915	-0.4896751285	-0.1575884628	 0.079608
H	 0.920799823	-0.8190070738	-1.9197427802	 0.076076
H	 3.8099771296	-0.8146505124	 0.4747821951	 0.080762
H	 2.4338697852	-0.411361178	 2.5872707304	 0.107108
H	 2.1166184452	 1.1603294606	 1.7852557229	 0.098923
H	-0.4656207927	-0.4427119705	 2.7451631201	 0.278226
H	 1.564452189	-2.6119736982	 0.2496767449	 0.08173
153.7056	174.7503	191.1202	227.3796	273.0128	344.496	415.7255	452.67	570.5009	614.8648	638.7973	737.5173	822.7388	836.6946	856.3097	867.5996	895.0958	936.3549	948.6151	978.353	989.1321	1039.3974	1082.9961	1115.5719	1129.0766	1136.391	1140.8831	1171.6803	1203.0622	1228.4454	1232.1006	1252.1609	1292.5884	1300.1706	1343.0242	1361.0276	1379.6904	1405.2594	1470.7722	1488.4082	1505.6735	3027.8426	3033.2061	3045.7579	3087.984	3091.1255	3098.4499	3107.1856	3118.6671	3167.6177	3793.7842
CC1C2OC3CC1(O)C23	C[C@H]1[C@H]2O[C@H]3C[C@]1(O)[C@@H]23	
InChI=1S/C7H10O2/c1-3-6-5-4(9-6)2-7(3,5)8/h3-6,8H,2H2,1H3	InChI=1S/C7H10O2/c1-3-6-5-4(9-6)2-7(3,5)8/h3-6,8H,2H2,1H3/t3-,4-,5+,6+,7+/m0/s1
