20
gdb 117240	4.17611	0.73671	0.70862	0.6668	78.05	-0.2284	-0.0254	0.203	1656.5051	0.168488	-440.262389	-440.2522	-440.251256	-440.298506	36.026	
C	-0.8253151523	 1.0049436468	 0.3661853418	-0.326114
N	-0.0202033894	-0.2043341212	 0.2083320362	-0.080977
C	 1.2097694558	-0.1226583931	-0.5367187696	-0.234757
C	 1.2510876319	-0.3588967505	 0.9468476602	-0.100825
C	 1.8038276654	 0.7246650036	 1.8242697709	 0.373683
O	 1.8023420998	 1.8974547669	 1.5010217572	-0.334086
C	 2.3614016989	 0.2624047375	 3.1573476892	-0.293322
C	 2.933921711	 1.3926209954	 3.9981534845	-0.078936
O	 3.4236775825	 0.814028817	 5.1989871298	-0.424457
H	-0.2414444727	 1.9270424704	 0.4587230496	 0.145429
H	-1.4804477949	 1.0788313809	-0.5073005178	 0.124035
H	-1.4569306793	 0.8947448459	 1.2532685276	 0.120528
H	 1.4259886075	-0.9511041623	-1.2067887995	 0.119429
H	 1.5518388641	 0.858011383	-0.8631876184	 0.132448
H	 1.4070547272	-1.370140905	 1.3150060483	 0.093825
H	 1.5689575964	-0.2580783249	 3.7122716945	 0.137022
H	 3.1316548087	-0.4997723747	 2.9757935687	 0.13433
H	 3.729202257	 1.903066688	 3.4364289877	 0.102219
H	 2.150769907	 2.1386972021	 4.1936243948	 0.102637
H	 3.7865782653	 1.5191127341	 5.7426435443	 0.28789
39.6316	77.9322	108.0375	129.9289	183.7737	241.0302	259.5637	273.3877	316.131	378.5458	405.9693	417.0014	583.1236	700.0537	731.9847	804.4514	837.3352	887.6156	993.8484	1011.6151	1035.6041	1056.2803	1070.1251	1092.2058	1108.78	1125.7086	1142.0961	1170.776	1207.1848	1215.7234	1254.0087	1301.1443	1331.2319	1338.8395	1403.0513	1442.9145	1445.6048	1470.0295	1485.1845	1492.8767	1511.2199	1522.146	1772.8346	2996.4826	3023.3262	3024.1472	3027.1166	3058.3542	3093.6729	3100.4167	3105.1369	3133.3747	3186.4442	3832.4639
CN1CC1C(=O)CCO	CN1C[C@H]1C(=O)CCO	
InChI=1S/C6H11NO2/c1-7-4-5(7)6(9)2-3-8/h5,8H,2-4H2,1H3	InChI=1S/C6H11NO2/c1-7-4-5(7)6(9)2-3-8/h5,8H,2-4H2,1H3/t5-,7?/m0/s1
