17
gdb 38026	3.84066	1.59825	1.23692	3.4369	81.49	-0.2216	-0.0313	0.1903	1000.4027	0.139404	-380.863879	-380.85725	-380.856306	-380.894858	26.7	
C	-0.009528659	 1.4087221308	 0.0675265464	-0.24313
C	 1.297648476	 0.6903476764	 0.0050739393	-0.061607
C	 1.9857370499	 0.3677515247	 1.3012262209	-0.308817
C	 1.1987029771	-0.4633125016	 1.994556145	 0.332719
C	 1.03093827	-1.2048464332	 3.2846451818	-0.385303
C	-0.4063033474	-1.8292125909	 3.0906160276	-0.163006
N	-0.9213730476	-1.4434702356	 1.7601985423	-0.312632
C	-0.023660105	-0.7159483367	 1.2256922772	 0.347228
N	 0.0181138133	-0.0690024363	-0.0384666629	-0.16651
H	-0.3020883029	 1.8407901915	 1.0209140307	 0.12794
H	-0.4011967023	 1.9100222207	-0.8127777307	 0.130155
H	 1.8722792015	 0.7157551117	-0.9168240402	 0.108109
H	 2.9539119098	 0.7697218171	 1.5703841018	 0.112851
H	 1.7940179931	-1.9786727667	 3.4159814376	 0.127989
H	 1.0815780898	-0.5546108512	 4.1631870549	 0.123923
H	-0.3918540843	-2.9222145281	 3.1647693298	 0.115567
H	-1.1030599621	-1.4740094125	 3.8582400384	 0.114525
113.425	202.6597	255.4324	412.4456	428.4136	479.2305	630.0858	668.0471	739.4481	746.7259	799.3491	812.2674	823.4234	852.7748	861.4347	916.6213	945.9341	1007.2437	1043.1568	1046.7595	1068.9923	1081.6406	1112.8538	1160.8376	1181.2323	1199.3886	1232.351	1242.3917	1292.3409	1323.1795	1344.7218	1354.6787	1469.4552	1492.857	1498.3177	1701.8016	1720.4655	3037.8548	3053.5474	3064.9518	3091.2392	3110.6468	3148.5815	3204.8781	3217.409
C1C2C=C3CCN=C3N12	C1[C@H]2C=C3CCN=C3N12	
InChI=1S/C7H8N2/c1-2-8-7-5(1)3-6-4-9(6)7/h3,6H,1-2,4H2	InChI=1S/C7H8N2/c1-2-8-7-5(1)3-6-4-9(6)7/h3,6H,1-2,4H2/t6-,9?/m1/s1
