19
gdb 63241	2.26522	1.72299	1.24797	3.9525	77.59	-0.2596	0.0052	0.2648	1079.055	0.158546	-423.074158	-423.065179	-423.064235	-423.108469	33.396	
C	-0.1437842811	 1.5913578254	 0.0056223187	-0.403697
C	 0.0531709647	 0.0564176242	-0.0121048671	 0.030193
C	-1.3321074935	-0.6329509639	 0.0186169588	-0.40369
C	 0.7991144158	-0.3494041916	-1.2537043338	-0.051057
C	 1.9674916527	-0.9738356626	-1.2323685474	-0.121782
C	 2.6602890885	-1.3369138432	 0.0361774034	-0.108665
O	 1.9778724858	-0.9648592605	 1.2359167412	-0.246973
C	 0.7856761482	-0.3273613706	 1.282747072	 0.427125
O	 0.3228663726	-0.0735337244	 2.3632602573	-0.340473
H	 0.8165513547	 2.1149356947	-0.0191230958	 0.12101
H	-0.7225931225	 1.9026936627	-0.8700274992	 0.112192
H	-0.67936425	 1.8892949253	 0.9092454205	 0.144562
H	-1.9169152575	-0.332886278	-0.8569833246	 0.1122
H	-1.2335641296	-1.7224676228	 0.0033252277	 0.121007
H	-1.8731514657	-0.3451428143	 0.9222731124	 0.144556
H	 0.3226212297	-0.1001185087	-2.1994265297	 0.097802
H	 2.4819733024	-1.2541295828	-2.1471825218	 0.104673
H	 2.8238461147	-2.4219881286	 0.0914979418	 0.130506
H	 3.6538358102	-0.8701042104	 0.0824102957	 0.130511
27.7576	94.6614	217.0219	242.3312	262.0238	264.5252	302.1282	329.8871	478.9569	484.1326	496.1131	551.6986	659.2818	740.4886	750.0629	826.2265	915.4711	926.8433	950.3231	970.8935	1004.9672	1029.8665	1032.1183	1082.9424	1150.766	1164.6906	1200.8481	1231.6523	1258.7049	1313.761	1386.3718	1397.1401	1427.0301	1432.0642	1478.9005	1489.3035	1498.1541	1504.9333	1512.5815	1754.0224	1825.8624	3008.2583	3030.4041	3037.1553	3040.3831	3106.2986	3108.8984	3134.1227	3137.5942	3146.1993	3176.7322
CC1(C)C=CCOC1=O	CC1(C)C=CCOC1=O	
InChI=1S/C7H10O2/c1-7(2)4-3-5-9-6(7)8/h3-4H,5H2,1-2H3	InChI=1S/C7H10O2/c1-7(2)4-3-5-9-6(7)8/h3-4H,5H2,1-2H3
