18
gdb 116947	4.65932	0.54665	0.49523	3.0928	77.87	-0.2422	0.028	0.2702	2137.2525	0.144776	-439.085711	-439.074553	-439.073609	-439.126059	37.091	
N	-0.2124009042	 1.1087835011	-0.6309364086	-0.528179
C	-0.5900078446	-0.2058678746	-0.6379747302	 0.427986
O	-0.729834106	-0.8438687563	-1.6563456554	-0.336519
C	-0.8719197542	-0.763862029	 0.773100378	-0.500098
C	-0.9885821681	-2.2110717944	 0.815494715	 0.111601
C	-1.0847387761	-3.4090824342	 0.8642031175	 0.05975
C	-1.2014180493	-4.8608927875	 0.8596625054	-0.327837
C	-1.3009013223	-5.4272178404	-0.5615525467	-0.061954
O	-1.4070653684	-6.8363172075	-0.4378105482	-0.418158
H	 0.0345829736	 1.5297609783	-1.5115483908	 0.262752
H	 0.0344509496	 1.5921236873	 0.2147977962	 0.258212
H	-0.085788059	-0.4199553436	 1.4588435345	 0.133898
H	-1.8004615057	-0.2924137083	 1.1249578611	 0.155006
H	-0.3376056867	-5.3200472567	 1.3559186355	 0.133429
H	-2.0873440572	-5.1794595811	 1.4226309797	 0.133726
H	-2.1764924197	-4.9936508487	-1.0660256568	 0.103443
H	-0.4098300657	-5.1324702891	-1.1343816138	 0.104512
H	-1.469599526	-7.2107438454	-1.3210303224	 0.288431
12.8882	14.8095	47.6088	88.3318	152.136	169.7179	215.6846	238.7959	323.3428	346.4188	385.1515	410.1303	494.2309	521.238	614.4725	654.9439	795.2081	807.5506	855.6927	952.4632	1000.7372	1077.9672	1086.8881	1089.4036	1170.5529	1218.1721	1223.0326	1238.9869	1271.9502	1304.2224	1332.6641	1373.7428	1452.0152	1455.2191	1479.6864	1526.6934	1618.5022	1819.515	2382.175	2990.8241	3008.5651	3021.8395	3028.4334	3037.6019	3065.8944	3602.2999	3736.0103	3835.0509
NC(=O)CC#CCCO	NC(=O)CC#CCCO	
InChI=1S/C6H9NO2/c7-6(9)4-2-1-3-5-8/h8H,3-5H2,(H2,7,9)	InChI=1S/C6H9NO2/c7-6(9)4-2-1-3-5-8/h8H,3-5H2,(H2,7,9)
