18
gdb 7048	5.76824	0.83757	0.75692	0.8357	83.51	-0.2449	0.045	0.2899	1503.3938	0.150288	-310.619798	-310.60972	-310.608776	-310.656303	34.779	
C	 0.0131289371	 1.486412576	-0.030680011	-0.497936
C	 0.018357786	 0.0301378215	-0.0217432102	 0.07446
C	 0.0247647156	-1.1742059867	-0.0018240797	 0.060987
C	 0.022649845	-2.636341352	-0.0075272673	-0.158926
C	-1.3962684636	-3.2005942909	 0.190424679	-0.383406
C	 0.6738160051	-3.1615516999	-1.322425438	-0.346092
C	 0.8486255668	-4.6082127252	-1.3383853256	 0.303876
C	 0.9931236053	-5.8018358473	-1.3270481609	-0.449522
H	 0.6427166985	 1.892298123	 0.7689500223	 0.147637
H	 0.3912430058	 1.8803050942	-0.9806363797	 0.14707
H	-0.998500553	 1.882484831	 0.1115505527	 0.14755
H	 0.6487928449	-2.9905027618	 0.8219961907	 0.112427
H	-2.0578896302	-2.8677328267	-0.6155762523	 0.120706
H	-1.3715147118	-4.2934665184	 0.1919789931	 0.13006
H	-1.8180621773	-2.8560054821	 1.1378610141	 0.122796
H	 0.052836341	-2.8488982818	-2.1710113647	 0.135458
H	 1.6449417483	-2.67161398	-1.4541877273	 0.138126
H	 1.1249833865	-6.8553335629	-1.3313907049	 0.194728
16.0769	64.8407	83.2401	147.8106	172.4954	246.5218	290.5411	303.6688	345.7154	357.877	465.8178	515.3861	531.1088	615.6184	644.4319	748.833	857.2988	893.8082	974.828	1019.1714	1052.7677	1053.6316	1092.9866	1104.8483	1180.9964	1241.4585	1289.3998	1337.3442	1362.8885	1406.0577	1415.1391	1469.2467	1478.7927	1479.202	1495.5566	1498.6778	2235.489	2369.4402	3015.7737	3025.7216	3032.8763	3043.0428	3069.8331	3085.9802	3086.1471	3116.2923	3127.3556	3506.6144
CC#CC(C)CC#C	CC#C[C@@H](C)CC#C	
InChI=1S/C8H10/c1-4-6-8(3)7-5-2/h1,8H,6H2,2-3H3	InChI=1S/C8H10/c1-4-6-8(3)7-5-2/h1,8H,6H2,2-3H3/t8-/m0/s1
