17
gdb 22689	4.87099	0.61518	0.57048	1.2094	89.58	-0.2221	-0.0317	0.1904	1907.8262	0.134089	-417.912268	-417.90242	-417.901476	-417.949081	34.101	
C	-0.3244976149	 1.4542232389	 0.0398913865	-0.476302
C	 0.0912690653	 0.0027470812	 0.029558895	 0.200038
N	 0.397599713	-0.665763102	 1.0889235608	-0.163976
O	 0.2864240141	 0.1344958102	 2.2276372307	-0.392196
C	 0.154189763	-0.6924129603	-1.2087777419	-0.031167
C	 0.1932489381	-1.2296780107	-2.2909325037	 0.193814
C	 0.218038489	-1.894829821	-3.5592515599	-0.170413
C	 1.1847907268	-3.0138469872	-3.7907233135	-0.224437
N	-0.244608201	-3.3029310553	-3.6676322162	-0.304267
H	 0.4598610581	 2.0658227079	 0.496253244	 0.150677
H	-0.5220758557	 1.8106848308	-0.9707538096	 0.13156
H	-1.2222267873	 1.5827099107	 0.6527355961	 0.151056
H	 0.5378310275	-0.4750927456	 2.929878144	 0.311623
H	-0.069617726	-1.2856432023	-4.4121252221	 0.120282
H	 1.5976776054	-3.1502110544	-4.7861820081	 0.128011
H	 1.8499562467	-3.2727439578	-2.9726128722	 0.130373
H	-0.4445803121	-3.652946373	-2.7332683099	 0.245324
25.0691	68.1599	70.3821	97.526	188.2909	219.1374	287.2091	378.8554	411.7631	452.674	516.949	530.1896	574.8497	587.4253	734.3994	807.013	841.3063	930.0067	962.8058	992.3105	1043.3118	1045.2285	1045.7222	1112.8457	1140.5217	1188.3844	1249.784	1293.4038	1304.2561	1383.8241	1397.4837	1419.4102	1475.7005	1483.7786	1503.3337	1663.1208	2335.5527	3048.6861	3107.2187	3115.7409	3141.5687	3154.9944	3207.9565	3503.3052	3816.5969
CC(=NO)C#CC1CN1	CC(=NO)C#C[C@H]1CN1	
InChI=1S/C6H8N2O/c1-5(8-9)2-3-6-4-7-6/h6-7,9H,4H2,1H3	InChI=1S/C6H8N2O/c1-5(8-9)2-3-6-4-7-6/h6-7,9H,4H2,1H3/t6-/m0/s1
