16
gdb 12037	3.88724	1.78361	1.55589	1.6527	70.18	-0.2409	0.0288	0.2697	867.7041	0.128262	-346.523989	-346.516391	-346.515447	-346.555345	29.512	
C	-0.0493460273	 1.5680604041	 0.0168103512	-0.44017
C	 0.046775993	 0.049260134	 0.0799906693	 0.185787
O	 1.085931557	-0.4822690055	-0.8178049392	-0.32005
C	 1.6689814698	-1.2187323014	 0.2620418102	 0.113719
C	 2.217139756	-0.2931987188	 1.2975338216	-0.318537
C	 0.7375955416	-0.6244485178	 1.2850976115	-0.150868
C	-1.2389767667	-0.5765611914	-0.2198303222	 0.342921
C	-2.3083050147	-1.0759836553	-0.4466880782	-0.454092
H	 0.9057674687	 2.0278762034	 0.2788739913	 0.122296
H	-0.3222986158	 1.8805534499	-0.9949317373	 0.138528
H	-0.8193054278	 1.9247360003	 0.7069638894	 0.130121
H	 1.9956125789	-2.2328219872	 0.06659244	 0.107378
H	 2.7611496364	-0.7660405991	 2.1099219624	 0.117565
H	 2.5872188034	 0.6847602159	 1.0061160672	 0.118378
H	 0.2152139495	-1.0757661609	 2.1165038902	 0.109063
H	-3.248395432	-1.5227591303	-0.6583369373	 0.197959
139.8485	162.5517	210.0053	239.8741	298.1899	433.0921	476.6239	489.4486	545.6503	628.0388	644.3904	660.9945	761.4191	802.1286	853.8353	877.5929	946.0111	965.11	979.4922	1028.3587	1043.7387	1063.4449	1082.2629	1107.9757	1161.2527	1214.1028	1227.3972	1285.2773	1348.8337	1404.4752	1470.5796	1479.7168	1489.7148	2234.897	3049.2457	3121.2121	3123.5656	3134.9982	3187.7702	3208.136	3218.7304	3500.5002
CC1(OC2CC12)C#C	C[C@]1(O[C@H]2C[C@@H]12)C#C	
InChI=1S/C7H8O/c1-3-7(2)5-4-6(5)8-7/h1,5-6H,4H2,2H3	InChI=1S/C7H8O/c1-3-7(2)5-4-6(5)8-7/h1,5-6H,4H2,2H3/t5-,6+,7+/m1/s1
