19
gdb 114923	2.81771	1.34825	1.00831	1.9413	73.2	-0.2258	0.0283	0.254	1199.8165	0.160315	-456.349433	-456.340426	-456.339482	-456.383287	33.913	
C	-0.5678143426	 1.1250868306	-0.2713679367	-0.252294
O	 0.266804298	 0.0283699021	 0.0634688415	-0.262792
C	 0.9071508327	-0.5739260476	-1.0570174049	 0.060473
C	 2.2829789666	-1.1402736108	-0.6320404041	-0.179156
N	 2.1254306469	-2.5771327237	-0.388401276	-0.284581
C	 0.9823468357	-2.9376343236	-0.8314874793	 0.335118
N	 0.4912314279	-4.2160041816	-0.8155004921	-0.569896
C	 0.1275130033	-1.8529052536	-1.4777680882	 0.026861
O	-1.223195695	-1.8815339184	-1.0590981294	-0.438296
H	 0.007277161	 1.9276719602	-0.7551323474	 0.115312
H	-1.3887299962	 0.8282737972	-0.9369711837	 0.123839
H	-0.9847312511	 1.505540315	 0.6645984061	 0.129878
H	 0.9861454994	 0.1550244813	-1.8708760711	 0.069452
H	 3.0350357329	-0.9686008229	-1.413708469	 0.100557
H	 2.6335521253	-0.6318569631	 0.2721519944	 0.114239
H	 0.9597927234	-4.8542019976	-0.1893079615	 0.254992
H	-0.5167667834	-4.2739718572	-0.8080838355	 0.258512
H	 0.1201144616	-1.9805032329	-2.5660669736	 0.106746
H	-1.2156510462	-1.4870034034	-0.1751446396	 0.291034
56.2455	106.9788	188.6146	223.321	264.3135	287.1334	315.8549	378.2567	414.2322	477.0065	529.8845	560.4258	591.7176	653.9401	725.7435	800.3391	803.6928	868.6517	966.5068	984.6236	1010.9458	1074.4163	1105.3725	1136.9224	1167.458	1182.263	1208.1917	1233.2316	1239.5155	1277.6576	1297.482	1334.8038	1392.6465	1408.7432	1434.5028	1480.3654	1489.1258	1490.9795	1513.7762	1621.8018	1740.0771	2993.7448	3014.6303	3041.0671	3054.2164	3057.3697	3071.5244	3116.1747	3565.6183	3678.3339	3739.5299
COC1CN=C(N)C1O	CO[C@H]1C[N][C](N)[C@H]1O	
InChI=1S/C5H10N2O2/c1-9-3-2-7-5(6)4(3)8/h3-4,8H,2H2,1H3,(H2,6,7)	InChI=1S/C5H10N2O2/c1-9-3-2-7-5(6)4(3)8/h3-4,8H,2H2,1H3,(H2,6,7)/t3-,4-/m0/s1
