12
gdb 21667	3.62844	1.90826	1.25208	4.105	59.94	-0.2396	-0.0569	0.1827	872.9721	0.085881	-410.848984	-410.842138	-410.841194	-410.880105	24.66	
N	-0.0642150885	 1.3724187506	 0.143613053	-0.590076
C	 0.0202039767	 0.0014032984	 0.0379677067	 0.28721
N	-1.0689731216	-0.7689949143	 0.0271445212	-0.281135
N	-0.5504940258	-2.0050701856	-0.0129038614	-0.060879
N	 0.7487019682	-2.1146267097	-0.0381211401	-0.235203
C	 1.1721621412	-0.835711483	-0.002865771	 0.174722
C	 2.5819487518	-0.4538102866	 0.0009903124	 0.082018
O	 3.5215775713	-1.21197854	-0.0486481106	-0.264479
H	 0.6697847019	 1.8918199274	-0.3129189352	 0.262883
H	-0.9829853672	 1.737094279	-0.0646596518	 0.266053
H	-1.1491198503	-2.8161136496	-0.0250971248	 0.301761
H	 2.7401278724	 0.6483145433	 0.0603256915	 0.057127
136.5847	182.9836	217.5075	289.8428	354.4545	368.0327	541.7774	552.6788	598.3104	691.9453	714.3836	770.4133	850.6078	990.9922	1028.2694	1087.8557	1189.7572	1210.3946	1308.4226	1375.8828	1427.6325	1477.6589	1541.7597	1574.325	1654.1237	1801.549	2852.3871	3573.3644	3657.3663	3676.0485
NC1=NNN=C1C=O	Nc1n[nH]nc1C=O	
InChI=1S/C3H4N4O/c4-3-2(1-8)5-7-6-3/h1H,(H3,4,5,6,7)	InChI=1S/C3H4N4O/c4-3-2(1-8)5-7-6-3/h1H,(H3,4,5,6,7)
