20
gdb 108469	2.08537	1.59636	1.29	3.6899	74.95	-0.2249	0.0607	0.2857	1108.7651	0.170135	-440.231917	-440.222786	-440.221842	-440.265741	34.141	
C	-0.4821188966	 1.6509798328	 0.3059709503	-0.411233
C	-0.0805116127	 0.1997491744	 0.1840611961	 0.13383
O	 0.8970989649	-0.0416611197	-0.8775484184	-0.32472
C	 1.7536092691	-0.7927752788	-0.004659207	 0.066611
C	 2.87930664	 0.0455320842	 0.6329581441	-0.188862
N	 1.9239925132	 0.5311462403	 1.676682649	-0.367323
C	 0.8831393319	-0.4305397189	 1.2235708069	 0.288409
C	 0.3564498085	-1.3745532885	 2.2749509626	-0.211406
O	-0.5210327864	-2.3010626618	 1.6585488697	-0.413881
H	 0.3783546619	 2.2630576529	 0.5834837696	 0.135766
H	-0.8893550603	 2.0068575488	-0.6456651352	 0.121336
H	-1.259770132	 1.7669294806	 1.0695965638	 0.106851
H	-0.9524982693	-0.4455602021	 0.0233447716	 0.088395
H	 1.9714252112	-1.7972130649	-0.3737360929	 0.08229
H	 3.6968271241	-0.5720764821	 1.0264773873	 0.093608
H	 3.2942458564	 0.8399491804	 0.0052030833	 0.111665
H	 2.2411052808	 0.3670261916	 2.6257596722	 0.215056
H	 1.2061098699	-1.8859708607	 2.7586059146	 0.085303
H	-0.1572195144	-0.7878333175	 3.0567128578	 0.095104
H	-0.8946706904	-2.866214461	 2.3407351045	 0.293203
78.8483	115.0224	183.0767	188.2772	202.8	242.7032	269.1103	378.9927	398.137	442.4076	564.3536	632.3824	641.9118	727.0438	831.8741	846.0421	878.3227	905.2044	971.3696	995.7888	1039.9599	1063.9882	1083.0306	1100.5165	1113.2679	1138.2279	1145.1515	1170.1466	1187.8695	1219.6234	1262.6425	1282.9911	1291.4549	1321.9044	1345.192	1375.8936	1398.3637	1424.3487	1462.5516	1479.8244	1492.3177	1495.2184	1514.7091	2945.0948	2971.444	3015.9968	3033.3821	3040.6644	3082.0978	3087.6404	3101.0139	3136.8165	3529.0899	3834.6083
CC1OC2CNC12CO	C[C@H]1O[C@H]2CN[C@@]12CO	
InChI=1S/C6H11NO2/c1-4-6(3-8)5(9-4)2-7-6/h4-5,7-8H,2-3H2,1H3	InChI=1S/C6H11NO2/c1-4-6(3-8)5(9-4)2-7-6/h4-5,7-8H,2-3H2,1H3/t4-,5+,6+/m1/s1
