23
gdb 103456	2.42623	1.3373	1.1123	1.4861	86.4	-0.2403	0.0747	0.315	1238.1404	0.204512	-388.261535	-388.251557	-388.250612	-388.295719	38.067	
C	-0.0774039182	 1.5580146867	 0.1143323666	-0.476775
C	 0.0055580102	 0.0406858596	 0.0778185867	 0.307552
C	-1.2339354398	-0.5817735083	-0.5380227692	-0.151294
O	-1.3593783659	-0.0947122263	-1.871382068	-0.424378
C	 1.2706096033	-0.7263539423	-0.2562233667	-0.12153
C	 2.5227559111	-0.0199400191	 0.2663285341	-0.245087
C	 1.9128235348	-0.0467081925	 1.7029351743	-0.287978
C	 0.6719738612	-0.7858143607	 1.1623920305	 0.285498
C	 0.0224262635	-1.8895588794	 1.955773695	-0.501606
H	 0.8493213666	 2.0263412527	 0.448881759	 0.113926
H	-0.3122406763	 1.9421120889	-0.8816420814	 0.13537
H	-0.8752564102	 1.8825068495	 0.7939120963	 0.104172
H	-1.1540848337	-1.678031794	-0.5393282843	 0.081915
H	-2.121800384	-0.314888472	 0.0588298493	 0.081744
H	-2.2045740319	-0.3944009046	-2.2183002277	 0.284591
H	 1.258746158	-1.476758349	-1.039469585	 0.079384
H	 3.4184867301	-0.6408908715	 0.192117675	 0.098491
H	 2.7489691311	 0.9597346187	-0.1666244585	 0.096984
H	 2.4925307898	-0.6784687307	 2.3813290163	 0.097057
H	 1.7398025041	 0.9139044304	 2.198202137	 0.092759
H	-0.4741224597	-1.4848838135	 2.8472883072	 0.11736
H	-0.7284002607	-2.4449889255	 1.3882869443	 0.117381
H	 0.7718175265	-2.6109487072	 2.3025782092	 0.114462
90.6253	153.7274	169.0728	176.3423	200.3103	240.8522	266.4974	296.2479	322.6066	359.3534	383.6243	483.6565	499.3208	652.4456	686.7656	728.5758	796.5266	875.8444	925.4569	940.1158	958.3063	964.8478	982.045	1012.498	1025.1149	1059.7821	1102.9584	1110.4321	1127.1093	1184.4898	1194.5004	1219.2446	1231.7152	1246.6618	1258.2382	1273.9587	1307.0067	1316.1842	1407.6342	1414.4063	1438.5329	1460.5681	1473.376	1487.5792	1495.2773	1500.9426	1508.277	1513.1384	1519.0888	2962.2186	3007.9806	3017.9409	3032.0362	3044.1825	3051.0116	3068.814	3087.3405	3103.0751	3106.8299	3111.2634	3139.0998	3166.2645	3830.4178
CC1(CO)C2CCC12C	C[C@@]1(CO)[C@H]2CC[C@@]12C	
InChI=1S/C8H14O/c1-7-4-3-6(7)8(7,2)5-9/h6,9H,3-5H2,1-2H3	InChI=1S/C8H14O/c1-7-4-3-6(7)8(7,2)5-9/h6,9H,3-5H2,1-2H3/t6-,7+,8+/m0/s1
