14
gdb 19657	4.79774	2.10352	1.94628	3.2803	60.63	-0.2288	-0.0196	0.2092	706.3687	0.108986	-382.500556	-382.495087	-382.494143	-382.530008	22.25	
O	-0.0457431534	-0.009746707	-0.0976171686	-0.320931
C	-0.018557737	 1.1756904118	 0.0446952398	 0.474889
C	-1.0390554404	 2.3349480235	 0.0213058172	-0.068365
O	-0.7852536748	 2.9367564187	 1.3027011495	-0.270742
C	 0.5778630239	 3.3472410113	 1.0582574822	 0.092945
C	 0.409709458	 4.3688605958	-0.0862358657	-0.24407
C	 0.0189468472	 3.1077855211	-0.8757422784	-0.068646
C	 1.0476015797	 2.2610400485	 0.0142422622	-0.216905
H	-2.1005284371	 2.2417828639	-0.1909808667	 0.101522
H	 1.0948278733	 3.5462083255	 1.9943575806	 0.096417
H	-0.322383176	 5.1663865259	 0.0587394339	 0.112292
H	 1.3647789687	 4.7687604929	-0.4341083938	 0.112748
H	-0.0526989473	 3.0249452284	-1.9571570997	 0.099045
H	 2.1009350951	 2.1204962194	-0.2082713126	 0.099802
152.2625	337.919	484.4343	510.887	578.613	633.7008	730.9377	765.1147	818.6168	834.6609	853.1994	917.1874	925.3508	951.6562	992.9294	1011.238	1035.7312	1056.9462	1070.5707	1105.7062	1154.9929	1169.4741	1198.4673	1222.1901	1235.9513	1249.992	1276.4325	1324.5689	1486.4357	1901.5529	3067.8086	3131.723	3150.2122	3156.0812	3169.5074	3176.2171
O=C1C2OC3CC2C13	O=C1[C@H]2O[C@@H]3C[C@H]2[C@H]13	
InChI=1S/C6H6O2/c7-5-4-2-1-3(4)8-6(2)5/h2-4,6H,1H2	InChI=1S/C6H6O2/c7-5-4-2-1-3(4)8-6(2)5/h2-4,6H,1H2/t2-,3+,4-,6-/m0/s1
