17
gdb 16744	3.61033	1.81239	1.65859	2.8055	67.15	-0.2333	-0.0285	0.2048	844.664	0.143355	-363.852695	-363.845658	-363.844713	-363.884378	26.52	
O	-0.778186557	 1.5840560929	 0.7409375383	-0.243377
C	-0.0384872938	 1.5706179422	-0.2093250832	 0.153774
C	 1.4458959364	 1.8879726177	-0.1813361508	-0.117271
C	 1.858935266	 2.9026079819	-1.2826949271	-0.256066
C	 2.0364414539	 4.2120098187	-0.5292517863	-0.004935
C	 0.9537458685	 4.6500007288	 0.388894375	-0.259016
N	 2.1420671664	 3.9676925974	 0.9218556278	-0.090997
C	 1.945910384	 2.5225719554	 1.1397623289	-0.176309
H	-0.4172923638	 1.2885771365	-1.2199485527	 0.080496
H	 1.932554551	 0.9215831772	-0.3699867056	 0.108109
H	 2.8087367045	 2.608567778	-1.739115752	 0.114389
H	 1.1212564103	 2.968646912	-2.0904329853	 0.110251
H	 2.7192557684	 4.9465826292	-0.9470492208	 0.091972
H	 0.8753739515	 5.6973882794	 0.6660287529	 0.118207
H	 0.004848967	 4.1203411392	 0.3802185366	 0.129714
H	 1.2398181721	 2.3474025962	 1.9554830073	 0.134291
H	 2.9135954446	 2.0983663975	 1.423588537	 0.106767
61.7517	128.2732	225.9085	320.78	351.6376	411.7342	595.1289	676.4549	690.7554	739.4491	816.4774	837.6866	897.526	905.0272	934.0309	991.6465	1011.9035	1023.6292	1076.9672	1104.889	1110.3079	1128.6333	1167.47	1199.7377	1210.6131	1244.8112	1282.318	1323.4863	1335.1769	1341.9328	1392.931	1421.0882	1492.2849	1497.9473	1518.0028	1824.6059	2855.8708	3022.3521	3044.4542	3057.581	3083.9904	3110.4435	3114.2352	3146.5229	3196.9571
O=CC1CC2CN2C1	O=C[C@H]1C[C@H]2CN2C1	
InChI=1S/C6H9NO/c8-4-5-1-6-3-7(6)2-5/h4-6H,1-3H2	InChI=1S/C6H9NO/c8-4-5-1-6-3-7(6)2-5/h4-6H,1-3H2/t5-,6-,7?/m0/s1
