20
gdb 37359	2.58863	1.92191	1.79131	1.2046	76.47	-0.2233	0.0819	0.3052	904.1837	0.175386	-403.119162	-403.11263	-403.111686	-403.149575	28.311	
C	 0.0818559177	 1.3745325042	-0.2404422501	-0.246756
C	 1.3135942052	 0.5666739244	-0.1264178306	-0.022473
C	 1.9595101298	 0.4195247292	 1.2598190221	 0.100742
C	 1.3537135736	-0.9325623831	 1.6815030737	-0.248829
C	-0.1203230201	-0.6158545231	 1.3575011885	 0.020692
C	-0.6470693987	 0.3632634918	 2.4308697444	-0.247076
C	 0.5159289389	 1.1553400819	 3.0628655794	-0.065932
O	 1.5577285494	 1.4720326314	 2.1424218652	-0.280552
N	-0.0186529141	-0.0816019154	-0.0407989852	-0.11311
H	-0.1395934299	 2.060201332	 0.5694239142	 0.124245
H	-0.2577388155	 1.7053324476	-1.2186797686	 0.111729
H	 1.9226472615	 0.3308018622	-0.9960557907	 0.084587
H	 3.0522090452	 0.434707519	 1.2147251418	 0.074522
H	 1.7308117341	-1.7240193269	 1.0281772943	 0.109812
H	 1.5461877304	-1.2172568251	 2.7192912386	 0.101078
H	-0.7569711856	-1.5016344886	 1.3121934414	 0.079565
H	-1.4002781064	 1.0277603734	 1.9974392652	 0.114988
H	-1.1506021603	-0.20319151	 3.2223341822	 0.099913
H	 0.1766225068	 2.1174569528	 3.4573828915	 0.107831
H	 0.9267754681	 0.5886986724	 3.9114702926	 0.095024
218.2418	240.313	343.6297	390.7459	448.4708	508.7719	534.325	571.9328	686.4797	729.4982	768.0314	811.7515	834.328	861.6353	874.0699	910.5245	952.9779	971.3398	979.1102	1014.0638	1029.4214	1071.7954	1080.2037	1095.1737	1110.5219	1128.7971	1152.6962	1192.6388	1213.0745	1242.1761	1264.1657	1283.879	1308.7007	1314.436	1337.3602	1355.4448	1366.8742	1381.8989	1412.4992	1487.0761	1490.2348	1503.485	1526.6408	2987.6134	3043.6246	3060.1743	3070.7872	3075.1995	3085.2799	3092.7153	3112.6564	3116.5455	3132.153	3209.2178
C1C2C3CC(CCO3)N12	C1[C@H]2[C@@H]3C[C@@H](CCO3)N12	
InChI=1S/C7H11NO/c1-2-9-7-3-5(1)8-4-6(7)8/h5-7H,1-4H2	InChI=1S/C7H11NO/c1-2-9-7-3-5(1)8-4-6(7)8/h5-7H,1-4H2/t5-,6+,7+,8?/m1/s1
