14
gdb 55608	5.13756	0.79174	0.71397	7.8857	62.9	-0.2593	-0.028	0.2313	1488.1789	0.10008	-507.225173	-507.215882	-507.214938	-507.260574	31.853	
N	-0.2595623996	 1.3844992487	-0.2743969396	-0.56616
C	 0.109623657	 0.1119202021	 0.1313063437	 0.46977
O	 1.1805168491	-0.1656840289	 0.603132129	-0.325883
N	-0.9622955012	-0.7988851742	 0.0076227138	-0.453368
C	-0.8236135896	-2.1937048953	 0.003036323	 0.535119
O	 0.1874515723	-2.7858702985	-0.2316546507	-0.296867
N	-2.063271447	-2.8069162713	 0.3029650078	-0.400584
C	-2.3971786332	-4.1413848331	 0.0914554297	 0.171416
O	-1.7471874986	-4.9555153591	-0.5004008583	-0.249782
H	 0.5180125613	 2.0279917919	-0.2872451457	 0.271674
H	-0.8805862481	 1.4701242881	-1.0652319019	 0.255438
H	-1.8872661759	-0.4115851116	-0.094348734	 0.250026
H	-2.7433516509	-2.261305251	 0.8117052264	 0.253081
H	-3.3884604155	-4.3565174177	 0.5408089067	 0.086121
46.9998	62.03	94.1407	143.2597	220.1211	235.4596	324.0737	394.7823	425.6099	488.4181	534.6225	559.9981	570.968	662.6623	727.074	771.5404	889.0338	961.9802	979.8647	1029.1113	1101.7276	1150.4923	1168.9456	1315.5754	1446.1917	1494.3444	1505.1556	1628.4353	1819.5042	1852.3694	1908.6496	2923.2378	3571.7718	3608.8073	3627.2862	3685.9458
NC(=O)NC(=O)NC=O	NC(=O)NC(=O)NC=O	
InChI=1S/C3H5N3O3/c4-2(8)6-3(9)5-1-7/h1H,(H4,4,5,6,7,8,9)	InChI=1S/C3H5N3O3/c4-2(8)6-3(9)5-1-7/h1H,(H4,4,5,6,7,8,9)
