25
gdb 122817	6.71898	0.46501	0.44317	2.3961	90.96	-0.2399	-0.0052	0.2347	2574.3311	0.225752	-389.53213	-389.520194	-389.51925	-389.571528	41.151	
C	-0.0413369358	 1.6465282345	 0.0114193639	-0.379839
C	-0.0018710434	 0.1161083387	 0.0026561816	-0.1636
C	-1.3941230268	-0.5244153106	 0.0127625925	-0.166389
C	-1.3553317077	-2.055628135	 0.0039711151	-0.170568
C	-2.7460646322	-2.6893733759	 0.0141297123	-0.303368
C	-2.7344417365	-4.2138758246	 0.0056372288	 0.370911
O	-1.70277996	-4.8471047849	-0.0077342355	-0.297203
C	-4.0971670993	-4.8989309787	 0.0147767171	-0.273792
C	-4.0155859163	-6.4233833675	 0.0064144438	-0.374065
H	 0.9666814935	 2.0729050749	 0.0039025537	 0.111258
H	-0.5729850934	 2.034366457	-0.8648446284	 0.112108
H	-0.5557179688	 2.0246952687	 0.902098051	 0.112109
H	 0.5487409146	-0.2322253599	-0.8811109011	 0.096109
H	 0.5658757948	-0.2418190378	 0.8716240982	 0.09611
H	-1.9465429115	-0.1754255977	 0.8970994977	 0.088424
H	-1.9637090019	-0.1657907498	-0.8567049322	 0.088423
H	-0.8069335415	-2.4114205062	-0.8759251448	 0.108426
H	-0.7898264503	-2.4210103928	 0.8689817132	 0.108438
H	-3.320570107	-2.3607274034	 0.8924891961	 0.115692
H	-3.337683972	-2.3511272521	-0.8490954278	 0.115678
H	-4.6499343808	-4.5359792366	 0.89245343	 0.118205
H	-4.6657877239	-4.527341947	-0.8490635573	 0.118241
H	-5.016105827	-6.8649474704	 0.013162186	 0.10775
H	-3.4846933179	-6.780308605	-0.8796941472	 0.130488
H	-3.4689682488	-6.7891463378	 0.8792665734	 0.130451
27.7768	44.7172	65.2101	79.7882	118.4181	136.5336	187.2868	195.7562	245.1701	255.2813	300.6937	403.5959	470.7662	472.6336	646.2503	702.1365	736.547	779.7233	822.2893	849.9739	906.8356	954.0251	977.4097	1005.4823	1033.602	1036.2037	1068.0237	1070.7602	1124.7582	1141.7875	1153.2507	1226.1014	1266.92	1275.8818	1302.8321	1326.6412	1335.702	1337.8538	1369.8361	1393.6152	1402.5694	1412.9139	1413.2434	1446.3213	1459.4121	1482.7149	1487.8903	1491.5044	1497.6043	1499.3382	1500.8229	1513.2966	1805.0311	2997.7221	3005.4876	3016.8293	3019.1663	3022.8031	3028.2026	3029.6366	3040.9941	3045.5301	3050.6586	3050.9848	3080.758	3094.2516	3100.7689	3121.7281	3127.3896
CCCCCC(=O)CC	CCCCCC(=O)CC	
InChI=1S/C8H16O/c1-3-5-6-7-8(9)4-2/h3-7H2,1-2H3	InChI=1S/C8H16O/c1-3-5-6-7-8(9)4-2/h3-7H2,1-2H3
