18
gdb 51097	4.27576	1.04899	1.00847	3.023	72.38	-0.2432	0.0014	0.2446	1208.6135	0.149	-439.06828	-439.060587	-439.059643	-439.101649	29.154	
O	 0.0527429531	-0.0253396015	 0.0859210099	-0.272036
C	 0.103056353	 1.1554253938	 0.2545786885	 0.144518
O	 1.0018243907	 1.9409271395	-0.371642575	-0.247931
C	 0.9487159682	 3.3358422682	-0.1505488361	 0.404466
C	 0.5953918645	 4.0352627409	 1.191359937	-0.24406
N	 1.378412411	 5.1991956517	 0.6215954927	-0.125918
C	 2.2537438321	 4.1445481006	-0.0303850455	-0.220767
C	 0.500758066	 5.5642256231	-0.5416878103	-0.164839
C	 0.147275112	 4.17539482	-1.1618192494	-0.280711
H	-0.5619168848	 1.717903788	 0.9358461387	 0.085196
H	-0.4489691619	 4.2529089537	 1.4303861528	 0.109707
H	 1.1130500245	 3.6179549073	 2.0576550586	 0.123233
H	 2.9598270278	 3.7345244511	 0.693700172	 0.121133
H	 2.7679736233	 4.4593731401	-0.9417432878	 0.111067
H	-0.3720945262	 6.1115899039	-0.1792099746	 0.11474
H	 1.0562935071	 6.2124074298	-1.2226074438	 0.116739
H	 0.5109446813	 4.0393992333	-2.1829758453	 0.117973
H	-0.9209923419	 3.9426916067	-1.1412025524	 0.10749
27.5756	133.4883	159.5498	300.6947	355.8311	410.0601	451.0805	490.9828	548.222	664.5246	779.2447	831.0896	840.634	854.273	881.691	941.6441	978.4639	983.7765	989.9156	1029.305	1042.867	1055.9808	1150.1038	1168.027	1189.5133	1200.5623	1221.228	1238.095	1249.0044	1259.0485	1263.3467	1307.9158	1336.9185	1428.3567	1497.6402	1498.6288	1505.1258	1539.4516	1865.2201	2968.8069	3059.5343	3062.4109	3068.4315	3076.2327	3107.6828	3124.8044	3129.3067	3137.2926
O=COC12CN(C1)CC2	O=CO[C@@]12CN(C1)CC2	
InChI=1S/C6H9NO2/c8-5-9-6-1-2-7(3-6)4-6/h5H,1-4H2	InChI=1S/C6H9NO2/c8-5-9-6-1-2-7(3-6)4-6/h5H,1-4H2
