18
gdb 85213	2.56114	1.12069	0.83645	3.7077	74.05	-0.2496	-0.0239	0.2258	1354.2004	0.145895	-439.097996	-439.088741	-439.087797	-439.133114	32.752	
C	-0.2685392852	 1.5333022229	-0.0969705306	-0.402505
C	 0.0485159655	 0.0589624359	 0.0102959904	 0.116718
O	 1.2049494663	-0.3139542829	-0.821783609	-0.265437
C	 1.9043621224	-0.7705140778	 0.2706079153	 0.438968
N	 3.0690795331	-1.2263246233	 0.3702037454	-0.544337
C	 0.7907606693	-0.4948663439	 1.2629998732	-0.169998
C	 1.1111866951	 0.4261948492	 2.4442865421	-0.304097
C	 1.996968353	-0.2631199795	 3.470657816	 0.148167
O	 1.7413658435	-0.3095405247	 4.6468058972	-0.242739
H	 0.5969499867	 2.1510791475	 0.1563360513	 0.130892
H	-0.57236479	 1.7757888477	-1.1193624738	 0.137758
H	-1.0933895653	 1.7941823951	 0.5740372521	 0.131151
H	-0.811854833	-0.5494894993	-0.2836977437	 0.100898
H	 3.5431655262	-1.2544340108	-0.5340193236	 0.231377
H	 0.3350411978	-1.4209128777	 1.6259232042	 0.119457
H	 1.6539857458	 1.3118737985	 2.0891127961	 0.127463
H	 0.1996584039	 0.7608025427	 2.9480052897	 0.124728
H	 2.9135548547	-0.7267578694	 3.0509233975	 0.121535
59.6434	78.1218	88.7609	150.7879	204.6268	234.3732	302.2816	357.1882	447.6658	455.1674	533.4561	649.6779	728.686	801.1961	836.8378	859.0861	868.768	884.3793	1021.4624	1025.7045	1045.7347	1069.8306	1074.0491	1146.8416	1157.2157	1196.6992	1232.742	1247.7906	1294.0934	1342.5671	1365.1823	1385.6111	1414.8469	1427.2088	1462.1903	1483.6096	1497.4924	1818.7458	1829.4487	2933.0375	3028.2405	3044.2881	3060.7965	3074.6641	3100.0321	3115.4371	3126.8223	3477.4911
CC1OC(=N)C1CC=O	C[C@H]1O[C]([NH])[C@H]1CC=O	
InChI=1S/C6H9NO2/c1-4-5(2-3-8)6(7)9-4/h3-5,7H,2H2,1H3	InChI=1S/C6H9NO2/c1-4-5(2-3-8)6(7)9-4/h3-5,7H,2H2,1H3/t4-,5+/m1/s1
