20
gdb 91602	2.12517	2.02502	1.42889	2.2874	77.	-0.215	-0.0148	0.2002	1001.3477	0.1736	-403.168662	-403.161068	-403.160124	-403.20054	30.602	
C	-0.2177391453	 1.56058524	-0.0013403598	-0.416131
C	 0.0195254676	 0.0507609079	 0.0166518605	 0.02046
C	 0.9039943789	-0.5000738354	-1.1602078031	-0.191104
N	 1.9904575426	-1.2995769949	-0.5347506889	-0.092276
C	 1.2877989386	-1.8546619627	 0.652929785	-0.202292
C	 0.7958574665	-0.5126572074	 1.2476918541	-0.141782
C	 2.1263138684	 0.2352435002	 1.3020037084	 0.423423
O	 2.4848218207	 1.0862684231	 2.0730588439	-0.334547
C	 2.9235610501	-0.3510303573	 0.1135310639	-0.294289
H	 0.7207070344	 2.1238975209	 0.0210993827	 0.129253
H	-0.7611698772	 1.852571095	-0.906141926	 0.116337
H	-0.8119468663	 1.8795914111	 0.8610304195	 0.123675
H	-0.9553227591	-0.4508085331	-0.001393103	 0.079257
H	 0.3244997221	-1.1492798261	-1.8224793673	 0.10757
H	 1.3345108062	 0.2984065212	-1.7708322651	 0.107169
H	 0.4745424441	-2.5207199744	 0.3513531963	 0.110113
H	 1.981639838	-2.4063275534	 1.2933509402	 0.111668
H	 0.2422849434	-0.5084220807	 2.1854986374	 0.082821
H	 3.8032768119	-0.8878315558	 0.4881106638	 0.130919
H	 3.2725992044	 0.4248926716	-0.5722300623	 0.129758
111.7077	137.3719	219.8816	305.4421	414.7846	428.8947	433.1925	476.8062	545.1895	586.7207	666.5895	770.814	789.2827	814.3939	855.0468	903.4318	925.8684	940.9531	971.3517	1001.4019	1017.1979	1032.7804	1053.0078	1104.5171	1118.8574	1158.4767	1183.0159	1211.0181	1232.7598	1269.2665	1272.4365	1294.5477	1297.8927	1329.3597	1341.6005	1373.4127	1419.7125	1456.4787	1493.7389	1497.5924	1501.9515	1515.656	1854.3773	3024.9195	3033.7802	3041.9483	3053.7579	3059.1458	3098.8295	3101.1809	3105.7393	3109.6506	3110.2549	3133.8059
CC1CN2CC1C(=O)C2	C[C@H]1CN2C[C@H]1C(=O)C2	
InChI=1S/C7H11NO/c1-5-2-8-3-6(5)7(9)4-8/h5-6H,2-4H2,1H3	InChI=1S/C7H11NO/c1-5-2-8-3-6(5)7(9)4-8/h5-6H,2-4H2,1H3/t5-,6+/m0/s1
