16
gdb 29326	3.33545	1.27835	0.92732	1.4106	85.81	-0.1764	0.0135	0.19	1203.2267	0.124584	-396.927373	-396.917973	-396.917029	-396.961119	34.9	
N	 0.0683403161	 1.4367288128	 0.0858387088	-0.62347
C	 0.0161513711	 0.0265021177	 0.009746937	 0.219307
C	-1.0778812702	-0.8172101727	 0.0248116193	-0.17226
N	-0.6235327332	-2.1080355282	 0.0071369566	-0.348728
C	 0.7637982161	-2.1180069923	-0.0272234317	 0.150853
C	 1.529985575	-3.2919975317	-0.0476272877	 0.232367
C	 2.2079343315	-4.2920935637	-0.0565290558	-0.45365
C	 1.1787573691	-0.7888522696	-0.0222612785	 0.099586
N	 2.4854721639	-0.2920843755	-0.0994454621	-0.633434
H	 0.6259560464	 1.8223522361	-0.6704974321	 0.244974
H	-0.853420338	 1.8537864182	 0.0412446944	 0.236584
H	-2.1321536692	-0.5926155786	 0.0521710995	 0.110294
H	-1.1929155467	-2.9339671584	 0.0026408161	 0.262842
H	 2.8016146583	-5.1714405079	-0.077386141	 0.181884
H	 3.1782572579	-1.0110152576	 0.0710651636	 0.246303
H	 2.629600332	 0.4811986714	 0.5411136735	 0.246549
99.6363	114.1858	131.03	205.7064	235.2401	273.5844	344.5877	374.5597	391.5563	403.993	483.7437	517.8341	581.5582	623.0329	688.4289	692.1993	706.4881	712.4755	765.6103	803.7686	843.8517	985.3002	1107.5405	1118.99	1235.9067	1247.0711	1288.7327	1357.1121	1465.6313	1499.742	1572.6172	1617.9635	1647.1484	1663.2081	2207.6753	3258.832	3496.6527	3503.6442	3508.8685	3596.8307	3606.845	3706.8501
NC1=CNC(C#C)=C1N	Nc1c[nH]c(C#C)c1N	
InChI=1S/C6H7N3/c1-2-5-6(8)4(7)3-9-5/h1,3,9H,7-8H2	InChI=1S/C6H7N3/c1-2-5-6(8)4(7)3-9-5/h1,3,9H,7-8H2
