15
gdb 50274	2.89402	1.31091	1.09725	2.2943	71.03	-0.2638	-0.0512	0.2126	1095.0346	0.112211	-416.775762	-416.767789	-416.766845	-416.808962	28.75	
O	-0.8161079129	 1.0424376825	-0.5224020156	-0.238842
C	 0.1382067235	 0.9040637465	 0.2002238559	 0.138002
C	 1.360697152	 1.7885106753	 0.1598134831	-0.162259
C	 1.3999930261	 2.98814507	-0.8116732137	-0.183306
N	 1.5695173601	 3.9853940302	 0.3123947705	-0.14118
C	 0.374130487	 3.8603729626	 1.1475718809	-0.270114
C	 1.4353525758	 2.8295477322	 1.302638727	 0.172755
C	 2.2417670411	 2.6894251058	 2.475324033	 0.211487
N	 2.8840213651	 2.5319730057	 3.4247698533	-0.330608
H	 0.1604875222	 0.1156329293	 0.9847660772	 0.100204
H	 2.2642288627	 1.1741749338	 0.1305688519	 0.125893
H	 2.2774128481	 3.0047203985	-1.4573137216	 0.133384
H	 0.4944484573	 3.1443854579	-1.4016828792	 0.142727
H	 0.3151692198	 4.615355257	 1.9243149497	 0.152966
H	-0.5729639477	 3.5769597426	 0.6939412276	 0.14889
63.5225	106.9172	163.6008	201.6041	243.5258	357.7057	443.6758	518.7217	547.6218	598.6872	670.8786	716.7067	783.9197	851.1239	866.9976	944.9531	997.8081	1000.9975	1077.933	1089.6644	1126.7846	1146.5364	1186.7506	1201.6728	1220.6062	1301.3092	1329.3458	1363.3627	1419.0251	1488.3553	1507.1901	1822.1762	2348.8314	2892.6394	3084.1838	3088.0053	3114.9049	3149.4759	3217.1543
O=CC1CN2CC12C#N	O=C[C@H]1CN2C[C@@]12C#N	
InChI=1S/C6H6N2O/c7-3-6-4-8(6)1-5(6)2-9/h2,5H,1,4H2	InChI=1S/C6H6N2O/c7-3-6-4-8(6)1-5(6)2-9/h2,5H,1,4H2/t5-,6+,8?/m1/s1
