17
gdb 72106	2.90518	1.76196	1.58877	1.7752	65.97	-0.219	0.0699	0.289	899.3322	0.137841	-458.93829	-458.931444	-458.9305	-458.969168	28.056	
O	-0.144035757	 1.4165266995	-0.0838953092	-0.468021
C	-0.0145947881	 0.0331170476	-0.0406807391	 0.291517
C	 1.0003285463	-0.689922274	-0.9173575501	-0.297791
C	 0.4459649011	-2.1277832587	-0.8478189051	 0.019354
C	 0.7761979694	-2.7538778901	 0.5056164901	-0.055955
O	 0.4194233135	-1.8695607487	 1.5726884487	-0.273689
C	-0.386013134	-0.7910141138	 1.1803295498	 0.000984
C	-1.232822129	-0.8629059734	-0.0749315459	 0.009011
O	-0.9829514714	-1.9729964529	-0.9038388002	-0.258629
H	 0.5518484615	 1.8011554935	 0.461063719	 0.285212
H	 0.9653720925	-0.2878602637	-1.934142971	 0.116888
H	 2.0272183564	-0.6330176796	-0.5425541434	 0.104855
H	 0.7495418822	-2.7765445194	-1.6712310162	 0.092501
H	 0.2206815843	-3.695175989	 0.6078525576	 0.10886
H	 1.8489776926	-2.9678785305	 0.5938493548	 0.101129
H	-0.7952089927	-0.2724004075	 2.0408363416	 0.109555
H	-2.2542891776	-0.5052500894	-0.1107597614	 0.114218
160.306	248.4948	318.8485	323.5801	381.8426	406.059	520.7616	534.8098	619.6533	666.9124	720.792	793.2923	845.6578	880.7565	913.1038	919.8499	947.8609	985.2359	1024.2249	1044.9943	1056.6375	1088.4245	1114.2983	1148.9075	1169.8227	1223.314	1243.2456	1248.5975	1282.5474	1293.209	1335.3513	1340.1995	1361.4954	1404.3571	1455.0984	1495.4721	1507.783	3011.2048	3049.2632	3052.9811	3100.5016	3106.8239	3172.807	3198.1129	3787.6025
OC12CC3COC1C2O3	O[C@@]12C[C@H]3CO[C@@H]1[C@@H]2O3	
InChI=1S/C6H8O3/c7-6-1-3-2-8-4(6)5(6)9-3/h3-5,7H,1-2H2	InChI=1S/C6H8O3/c7-6-1-3-2-8-4(6)5(6)9-3/h3-5,7H,1-2H2/t3-,4+,5-,6-/m0/s1
