19
gdb 56269	4.55159	0.75708	0.71654	1.2865	72.22	-0.2448	0.024	0.2688	1582.787	0.159113	-456.334704	-456.325045	-456.324101	-456.370697	34.394	
N	 0.5162967902	-0.7215943823	-0.4160778319	-0.505035
C	-0.4967711675	-0.0905265983	 0.2346739517	 0.354296
O	-0.378282145	 0.9497889977	 0.8491814291	-0.353328
C	-1.8608451902	-0.7858528385	 0.1126718094	-0.171997
O	-1.8169498664	-2.1279292835	-0.3305583942	-0.257432
C	-1.5239495434	-3.0737879606	 0.6889946489	-0.111654
C	-1.7182104129	-4.4706113847	 0.141216518	 0.00446
C	-2.8243456116	-4.779903701	-0.7925534823	-0.229402
N	-1.4229485596	-4.7713198025	-1.2661485726	-0.321458
H	 1.4175887134	-0.2757293732	-0.4595255078	 0.265665
H	 0.3261050606	-1.5258610947	-0.9888415758	 0.268443
H	-2.3687138185	-0.6910131058	 1.0803303774	 0.129457
H	-2.4462198525	-0.2280060322	-0.6263555217	 0.140449
H	-0.4892991409	-2.9443554714	 1.0425060683	 0.108361
H	-2.1893947219	-2.9152892085	 1.5521872125	 0.109705
H	-1.3907940613	-5.2428225997	 0.8349193815	 0.096516
H	-3.2962788729	-5.7578287906	-0.7717978312	 0.11772
H	-3.4671090537	-3.9594893545	-1.0958687868	 0.121662
H	-1.2676754058	-3.8909753954	-1.7530370925	 0.233569
37.744	57.2214	80.8314	152.2058	174.8234	276.4513	311.6002	347.4551	361.5509	474.0599	504.205	550.6142	644.2537	673.7309	779.026	846.8804	857.2514	911.3529	939.3385	991.9576	997.2397	1044.3713	1091.124	1098.1488	1114.7171	1148.0468	1155.4934	1196.5347	1268.5526	1281.6122	1291.073	1308.3136	1357.8086	1370.0865	1420.9318	1426.1588	1470.8158	1505.0548	1516.5544	1596.8175	1812.1417	2977.3792	3009.601	3034.9012	3086.3552	3117.9919	3127.2155	3208.2899	3493.6499	3602.3094	3740.5264
NC(=O)COCC1CN1	NC(=O)COC[C@H]1CN1	
InChI=1S/C5H10N2O2/c6-5(8)3-9-2-4-1-7-4/h4,7H,1-3H2,(H2,6,8)	InChI=1S/C5H10N2O2/c6-5(8)3-9-2-4-1-7-4/h4,7H,1-3H2,(H2,6,8)/t4-/m1/s1
