18
gdb 72863	3.10352	1.20388	1.03852	5.1585	76.5	-0.2679	0.0282	0.2961	1181.2388	0.14765	-401.937513	-401.929139	-401.928195	-401.97079	31.812	
O	 0.2954131019	 1.3642043859	-0.6738439259	-0.476201
C	 0.1353122713	 0.0883905518	-0.13218876	 0.424566
C	 0.5027256268	-1.1253839	-1.0443090912	-0.296229
C	-0.9823831741	-1.6061728357	-0.9934801654	-0.230381
C	-1.3049304391	-0.4982220218	 0.033220106	-0.073596
C	-0.9367614337	-0.8864818153	 1.5106329573	-0.148603
C	 0.4155144147	-0.1015317267	 1.3786738113	-0.313199
C	-1.8441478689	-0.42063683	 2.5435635932	 0.27009
N	-2.5687969483	-0.0349191346	 3.3583779992	-0.329759
H	 1.2351266649	 1.5186601079	-0.824495565	 0.280885
H	 0.8355558165	-0.8171894605	-2.0377013906	 0.110853
H	 1.2395009894	-1.8156913609	-0.6241472242	 0.099656
H	-1.50181689	-1.4581200144	-1.9424590553	 0.116976
H	-1.1559192574	-2.6338332669	-0.6634426518	 0.105326
H	-2.2044672606	 0.102455264	-0.0882686897	 0.100604
H	-0.7968425212	-1.9645002405	 1.6294892527	 0.119936
H	 1.3188773307	-0.6386976027	 1.6785793492	 0.106069
H	 0.3680779871	 0.8580895405	 1.8967366203	 0.133006
52.6118	154.4878	174.6993	207.4109	281.5278	333.0889	392.1639	396.095	489.4967	544.9412	612.0318	654.4082	737.035	780.3558	868.4473	885.92	921.3586	934.865	952.2318	982.4633	1039.5711	1050.6887	1076.3167	1122.7836	1154.1136	1174.9352	1216.9843	1223.9453	1239.8109	1243.9036	1271.8801	1279.1435	1305.4676	1347.2114	1374.1505	1466.2453	1477.6633	1490.9138	2352.0605	3056.9004	3063.6002	3064.7364	3070.151	3107.0875	3124.5159	3133.0344	3135.9263	3791.4169
OC12CCC1C(C2)C#N	O[C@]12CC[C@H]1[C@@H](C2)C#N	
InChI=1S/C7H9NO/c8-4-5-3-7(9)2-1-6(5)7/h5-6,9H,1-3H2	InChI=1S/C7H9NO/c8-4-5-3-7(9)2-1-6(5)7/h5-6,9H,1-3H2/t5-,6-,7-/m0/s1
