14
gdb 25360	6.96046	0.85122	0.75846	1.0342	78.29	-0.2493	-0.0622	0.1871	1376.1888	0.101955	-436.757465	-436.749835	-436.74889	-436.790032	27.452	
O	 0.0517999763	-0.0811812158	-0.0021681623	-0.310681
C	-0.009368282	 1.133929228	 0.0098729286	 0.082534
C	 1.161372523	 1.9856574502	 0.0036500331	 0.253256
C	 1.3259105232	 3.3596920968	 0.0126421646	-0.347836
C	 2.7198386145	 3.621191294	-0.0004488742	 0.181439
C	 3.3870047245	 4.920698625	 0.0026590728	 0.077874
O	 4.5888024544	 5.0767911045	-0.0085505763	-0.280568
C	 3.3656252462	 2.3816568834	-0.0173993815	-0.111612
N	 2.4247698814	 1.4211737881	-0.014992671	-0.286377
H	-0.9788292283	 1.672002687	 0.0233633292	 0.087213
H	 0.5314801863	 4.0914835546	 0.027164617	 0.129156
H	 2.6949714289	 5.7919933406	 0.0178527653	 0.069252
H	 4.421280547	 2.1626446142	-0.0306686144	 0.168174
H	 2.5612211046	 0.4213758794	-0.0245890507	 0.288176
86.5853	139.7612	170.2595	234.3897	285.3953	315.0709	396.2144	595.5675	619.6035	652.8963	698.9645	755.1944	782.7642	837.9694	861.6333	982.7072	1006.7457	1028.0387	1041.9756	1134.4723	1153.6545	1267.1553	1355.1016	1392.6321	1406.6911	1438.0144	1472.6749	1524.3356	1594.9267	1759.9862	1788.2934	2882.8672	2928.5879	3247.2564	3274.8572	3639.9693
O=CC1=CC(C=O)=CN1	O=Cc1cc(C=O)c[nH]1	
InChI=1S/C6H5NO2/c8-3-5-1-6(4-9)7-2-5/h1-4,7H	InChI=1S/C6H5NO2/c8-3-5-1-6(4-9)7-2-5/h1-4,7H
