17
gdb 38529	3.70412	1.67099	1.31407	4.0329	72.27	-0.2145	0.0469	0.2614	961.773	0.13959	-418.002138	-417.995593	-417.994649	-418.032984	26.418	
C	-0.1557840653	 1.2988599215	 0.003422372	-0.341222
C	 1.2627779823	 0.8016301318	 0.0939598953	 0.075436
O	 1.8301184933	 0.6905496614	 1.3951739992	-0.254871
C	 1.0357085094	-0.1515439312	 2.0899156714	 0.460819
N	 0.9187467362	-0.2880732421	 3.3451732325	-0.364816
C	-0.1598692021	-1.292490768	 3.4838163095	-0.161367
C	-0.8952606836	-1.3226917309	 2.1047247217	-0.194513
N	 0.1972509937	-0.8793455946	 1.2388069897	-0.110727
C	 0.1399659793	-0.1971108085	-0.0180941863	-0.047368
H	-0.6051289593	 1.7285794851	 0.8926630151	 0.139567
H	-0.451197952	 1.7597271274	-0.9330912274	 0.126789
H	 2.0073973209	 0.9988759937	-0.6645305807	 0.123471
H	 0.2694179235	-2.2775374934	 3.7098698067	 0.110816
H	-0.8278060395	-1.0266085434	 4.3068979587	 0.11206
H	-1.2632370199	-2.3136120937	 1.8287615575	 0.113494
H	-1.7362051969	-0.6123746062	 2.0786578568	 0.099551
H	-0.03727764	-0.7902242389	-0.9073198119	 0.112882
140.8562	197.3235	260.7149	374.7593	453.5813	490.269	641.5612	681.6813	730.1379	743.5108	784.6162	811.5469	830.5225	879.7022	924.6583	957.9621	976.3906	1023.4173	1041.0483	1058.4062	1092.1208	1108.9052	1124.243	1137.5748	1192.4187	1203.8911	1242.9923	1248.7598	1268.7405	1319.9276	1343.0372	1384.3853	1412.4736	1461.2552	1501.7038	1523.4356	1760.8602	2983.7794	3019.3576	3089.0355	3097.393	3132.6478	3177.9297	3216.1272	3227.3939
C1C2OC3=NCCN3C12	C1[C@H]2O[C]3[N]CCN3[C@@H]12	
InChI=1S/C6H8N2O/c1-2-8-4-3-5(4)9-6(8)7-1/h4-5H,1-3H2	InChI=1S/C6H8N2O/c1-2-8-4-3-5(4)9-6(8)7-1/h4-5H,1-3H2/t4-,5+/m0/s1
