15
gdb 131673	4.84346	0.91006	0.77691	3.5327	71.85	-0.2607	-0.0513	0.2094	1377.5301	0.113309	-453.969365	-453.961247	-453.960303	-454.002876	28.856	
O	 0.2438309182	 1.0977850785	 0.7654511771	-0.406408
C	 0.0082629428	 0.1110904113	-0.2257986972	-0.176639
C	-1.3629112726	-0.4925797455	-0.1296470945	 0.112743
C	-2.1695153084	-0.5409824598	 0.9743055252	-0.09088
N	-3.324217124	-1.1910397471	 0.6013362595	-0.017861
C	-4.4217908848	-1.4441527712	 1.4383407188	 0.192108
O	-5.4242919859	-2.0058692525	 1.1091656672	-0.253853
N	-3.2995024683	-1.5684969886	-0.7057442286	-0.228576
C	-2.1282586655	-1.1491165596	-1.1414756136	-0.048555
H	-0.378446551	 1.816968968	 0.612410721	 0.285947
H	 0.1722065411	 0.5037041659	-1.2412811057	 0.105905
H	 0.7764236384	-0.6535484151	-0.0603499833	 0.135202
H	-2.0232072302	-0.1746070005	 1.9775526784	 0.161102
H	-4.2261251694	-1.0486162814	 2.4523045712	 0.101061
H	-1.8514916505	-1.3224091623	-2.1727373455	 0.128703
63.4301	97.9867	148.6647	236.7426	268.2733	295.0884	355.1782	444.5604	508.7023	621.8607	673.2369	737.7986	813.1837	821.8385	905.9132	975.0257	985.5159	1025.1094	1025.7499	1071.3504	1168.4967	1200.2753	1216.5616	1290.562	1341.65	1386.9729	1408.0313	1434.2108	1449.9488	1456.8007	1501.5881	1629.0687	1855.4522	2969.015	2986.879	3053.7743	3232.6093	3271.3984	3808.2376
OCC1=CN(C=O)N=C1	OCc1cn(C=O)nc1	
InChI=1S/C5H6N2O2/c8-3-5-1-6-7(2-5)4-9/h1-2,4,8H,3H2	InChI=1S/C5H6N2O2/c8-3-5-1-6-7(2-5)4-9/h1-2,4,8H,3H2
