17
gdb 48603	2.62469	1.37707	1.06799	2.4717	80.61	-0.246	-0.034	0.2121	1141.569	0.134697	-384.612131	-384.60395	-384.603006	-384.645264	30.973	
O	-0.6683204997	 0.8686973736	 0.7046370106	-0.243934
C	 0.1743356156	 0.9534555849	-0.1544727077	 0.025399
C	 1.38393132	 1.8173181305	-0.0543742512	 0.254161
C	 1.7689765509	 2.8030553457	 1.0781482599	-0.269342
C	 2.9137236996	 2.9089290347	 0.0291268096	-0.054716
C	 2.8824789997	 1.3575268445	-0.0739991975	-0.277388
C	 1.8019604426	 2.9520086518	-1.0789921131	-0.214483
C	 2.1223804316	 2.6124938501	-2.4484511598	 0.299808
C	 2.3720756048	 2.352227385	-3.5962468945	-0.434597
H	 0.0964877711	 0.3743998804	-1.10245828	 0.082869
H	 1.1264551372	 3.6772413686	 1.2053501411	 0.104021
H	 2.0297262128	 2.3507077129	 2.0361964983	 0.107252
H	 3.7938987948	 3.5502088111	 0.0688860154	 0.089102
H	 3.2134123268	 0.8037242785	 0.8071995237	 0.106166
H	 3.2500573316	 0.9149093784	-1.0003114628	 0.121122
H	 1.1545713911	 3.8332371068	-1.0338168852	 0.106594
H	 2.5952303695	 2.1227956425	-4.6089266968	 0.197966
68.5132	104.2642	172.3606	211.6977	265.8202	401.5874	430.9708	501.6717	539.7253	587.2291	624.4714	648.4127	718.0719	779.1002	821.211	867.8314	902.0364	943.9275	983.1653	1019.0051	1024.9704	1048.1562	1078.3629	1114.0544	1125.9614	1153.3198	1161.8028	1213.6566	1225.8659	1229.3527	1305.9743	1368.3623	1420.2904	1497.1507	1535.5543	1814.6409	2229.383	2877.4517	3061.1637	3068.8692	3073.446	3119.0287	3138.7076	3146.7323	3501.6219
O=CC12CC(C1)C2C#C	O=C[C@@]12C[C@@H](C1)[C@H]2C#C	
InChI=1S/C8H8O/c1-2-7-6-3-8(7,4-6)5-9/h1,5-7H,3-4H2	InChI=1S/C8H8O/c1-2-7-6-3-8(7,4-6)5-9/h1,5-7H,3-4H2/t6-,7-,8+/m1/s1
