18
gdb 121525	5.95246	0.47681	0.44514	2.8291	80.93	-0.252	-0.017	0.235	2371.9249	0.144761	-439.078644	-439.067476	-439.066532	-439.118265	36.342	
C	-0.0433166718	 1.3710524281	 0.0559038686	-0.231758
O	 0.0001848181	-0.0362993505	 0.0060848526	-0.228573
C	 0.6556246966	-0.5241261779	-1.1398198905	-0.04368
C	 0.6282800494	-2.0553019061	-1.0616370346	-0.362936
C	 1.2807490465	-2.6833033019	-2.2000890853	 0.012574
C	 1.8286121754	-3.1719839438	-3.1565234714	 0.069383
C	 2.5008039331	-3.6990831159	-4.3351170048	 0.262376
N	 2.5522120002	-5.0629512631	-4.3758696087	-0.520433
O	 2.9761480096	-2.9866035322	-5.1984945307	-0.335821
H	 0.9665252194	 1.8097706542	 0.0747906397	 0.108721
H	-0.5846379257	 1.7929818534	-0.8052377113	 0.108683
H	-0.5669724677	 1.6486175987	 0.9736175629	 0.129932
H	 0.1535829469	-0.1843852908	-2.0598190379	 0.104458
H	 1.6970334334	-0.1672681056	-1.1842775622	 0.104548
H	 1.1121631167	-2.3689318307	-0.1287153032	 0.146086
H	-0.4153634883	-2.3857877856	-0.994871327	 0.145913
H	 2.1168918049	-5.6289838468	-3.6692438943	 0.265307
H	 2.9753447332	-5.5010286736	-5.1773961719	 0.265218
15.077	53.7576	55.204	70.1611	103.0761	150.7114	164.2439	232.2522	261.061	363.7262	391.7157	484.2671	498.9148	569.187	614.2718	725.4421	773.4854	792.9169	990.7311	1048.6825	1084.064	1085.9512	1088.4212	1163.8512	1181.8231	1227.2337	1230.9627	1299.6519	1308.5178	1351.6619	1420.2045	1468.5347	1481.8974	1485.9686	1504.6413	1531.8527	1607.0008	1772.9333	2349.7462	2966.7441	2978.5257	3002.2007	3019.8881	3033.2232	3070.3458	3117.322	3603.7448	3746.8133
COCCC#CC(N)=O	COCCC#CC(=O)N	
InChI=1S/C6H9NO2/c1-9-5-3-2-4-6(7)8/h3,5H2,1H3,(H2,7,8)	InChI=1S/C6H9NO2/c1-9-5-3-2-4-6(7)8/h3,5H2,1H3,(H2,7,8)
