18
gdb 18029	4.05677	1.94004	1.4195	1.4368	74.67	-0.2335	0.0228	0.2563	891.0574	0.156231	-347.790552	-347.78389	-347.782946	-347.821135	26.597	
C	 0.0022727885	 1.555053011	-0.0723912291	-0.250102
C	 1.566658066	 1.4930694016	 0.0485706339	-0.314367
C	 1.3709165542	 0.093969071	 0.5905674099	 0.338435
C	 1.8351208587	-0.67178035	 1.5667106889	-0.26437
C	 0.9929140757	-1.8322468304	 2.0419585628	-0.094573
O	-0.2355461569	-1.9890048182	 1.3466797877	-0.255737
C	-0.9032688393	-0.7716740223	 1.0256772582	-0.111028
C	-0.0335649763	-0.0038992793	 0.0386827184	-0.043974
H	-0.4465777312	 2.0331937572	 0.802540525	 0.107382
H	-0.412089252	 2.0026605552	-0.9781730794	 0.101013
H	 2.0442053716	 1.5076308946	-0.9376540389	 0.111364
H	 2.0651436879	 2.2267225503	 0.6875679616	 0.107792
H	 2.7516316189	-0.4593413428	 2.1112501251	 0.087153
H	 1.518921802	-2.7878576106	 1.9239079884	 0.116718
H	 0.8035124293	-1.7082880251	 3.1244930635	 0.093846
H	-1.8761908559	-1.0661028293	 0.6215963409	 0.103671
H	-1.0722753618	-0.164543998	 1.9302877343	 0.083357
H	-0.0755658895	-0.469858815	-0.9524687811	 0.083421
139.6023	227.8679	278.1314	318.3022	366.575	467.7898	527.9459	639.0866	712.8486	777.7954	802.3408	844.1118	887.9036	915.1885	923.9078	968.2508	999.7189	1030.3948	1070.0331	1088.5458	1100.8345	1146.2587	1149.869	1195.0293	1225.0045	1243.282	1253.3915	1264.9731	1297.7287	1311.1443	1358.6049	1371.3671	1406.8997	1474.0125	1488.0005	1489.0469	1499.564	1774.2361	2932.4591	2971.0978	3037.6109	3039.0737	3041.2966	3061.4977	3082.9776	3094.7622	3121.1966	3160.0802
C1CC2=CCOCC12	C1C[C]2[CH]COC[C@@H]12	
InChI=1S/C7H10O/c1-2-7-5-8-4-3-6(1)7/h3,7H,1-2,4-5H2	InChI=1S/C7H10O/c1-2-7-5-8-4-3-6(1)7/h3,7H,1-2,4-5H2/t7-/m1/s1
