23
gdb 119076	2.12753	1.23578	0.9337	2.1818	82.41	-0.2385	0.0775	0.3159	1394.9265	0.203686	-425.4019	-425.391435	-425.390491	-425.437992	37.476	
C	 1.2362888122	-0.8789740973	 1.2989055327	-0.396223
C	 0.2402302908	-0.3006796318	 0.2886347387	-0.222307
C	 0.6937004382	-0.3892078953	-1.1674532503	 0.413199
C	 2.0172257255	 0.3181028122	-1.4357837577	-0.092491
O	 2.002725079	 1.5990653329	-0.852067509	-0.234885
C	 3.1577633596	 2.3489244906	-1.1395342383	-0.224206
C	 0.610257691	-1.7880728398	-1.8327062122	-0.3378
C	-0.5026405687	-1.1620810809	-2.6935575964	-0.06935
O	-0.3568644015	 0.1152090244	-2.0454730858	-0.323844
H	 1.4974188071	-1.9173383767	 1.0637421431	 0.110078
H	 2.1600859204	-0.2938455852	 1.3236381708	 0.127023
H	 0.8115717814	-0.8682020065	 2.3070743892	 0.115391
H	-0.7213184761	-0.821165633	 0.3660095302	 0.090392
H	 0.0513495193	 0.7536276643	 0.5108323687	 0.124701
H	 2.846342461	-0.2873484545	-1.0269408123	 0.083428
H	 2.1663779996	 0.387643321	-2.5256292483	 0.087581
H	 3.2776455217	 2.5138628034	-2.2219000989	 0.10622
H	 3.0513749969	 3.3172863575	-0.6446760668	 0.128159
H	 4.0700139258	 1.8563833521	-0.7656247814	 0.100836
H	 1.5046553324	-2.0975238054	-2.3785377161	 0.104839
H	 0.3013009963	-2.5959673021	-1.167066352	 0.109302
H	-0.2964428424	-1.1048672641	-3.7696606026	 0.099326
H	-1.5064004895	-1.5819475157	-2.5524842551	 0.100633
58.8698	84.5576	91.0765	127.3331	163.4232	208.094	230.6761	268.5836	324.3408	355.5773	388.7728	432.8407	491.3515	716.8163	783.6991	791.481	849.8256	889.116	950.	962.909	990.1429	1017.534	1024.199	1045.346	1052.5793	1131.8665	1159.4601	1164.2953	1185.112	1198.0991	1209.429	1232.6409	1257.177	1259.1031	1297.6247	1323.0716	1346.9603	1368.5852	1408.1244	1421.589	1476.0948	1478.7774	1485.8916	1489.7638	1495.4305	1500.4141	1510.2261	1519.6675	1533.5704	2942.1503	2968.3838	2986.7259	3011.925	3012.4871	3033.3225	3040.3401	3047.7461	3069.3176	3086.7381	3103.6033	3114.3507	3114.6541	3124.0888
CCC1(COC)CCO1	CC[C@@]1(COC)CCO1	
InChI=1S/C7H14O2/c1-3-7(6-8-2)4-5-9-7/h3-6H2,1-2H3	InChI=1S/C7H14O2/c1-3-7(6-8-2)4-5-9-7/h3-6H2,1-2H3/t7-/m0/s1
