21
gdb 81067	2.75459	1.36765	1.12316	1.9142	82.66	-0.2284	0.083	0.3113	1184.8361	0.182087	-387.012818	-387.004298	-387.003353	-387.046294	33.307	
C	-0.4056564951	 1.4969309318	-0.291910727	-0.440934
C	-0.006478632	 0.0495181288	-0.0555452508	 0.00482
C	 1.3074737645	-0.582190172	-0.5870653268	 0.025801
C	 2.1381989796	 0.186858786	 0.4648036344	-0.285776
C	 0.8771501457	-0.4119336728	 1.1516142149	 0.433799
O	 1.1369614378	-1.675135897	 0.3910842267	-0.349646
C	 0.5248697042	-0.5068083126	 2.5867460092	-0.142997
C	 1.6010491511	-0.7267073065	 3.6222834475	-0.260703
C	 0.9179282391	 0.6096089162	 3.5288041085	-0.269143
H	 0.4216255203	 2.2001097849	-0.1659675845	 0.116914
H	-0.7971887456	 1.6242663111	-1.3071362511	 0.12135
H	-1.1998252271	 1.7918553322	 0.4025045094	 0.123485
H	-0.8507885636	-0.6314204272	-0.1984771868	 0.077827
H	 1.5798902102	-0.8615750188	-1.6051787878	 0.087958
H	 3.0783300725	-0.2955788931	 0.7355495904	 0.105756
H	 2.2324243958	 1.2713206227	 0.3805363677	 0.093328
H	-0.4326367587	-0.9851835928	 2.7721653264	 0.090988
H	 1.3665650111	-1.3712364152	 4.46157885	 0.116105
H	 2.6246541879	-0.8006372404	 3.2733219016	 0.120421
H	 1.4829335247	 1.4393112853	 3.1178747467	 0.115717
H	 0.2123079474	 0.8903362793	 4.3023218514	 0.11493
46.8322	137.6252	168.9189	196.0508	261.979	321.0157	384.3185	441.7042	573.3948	581.0845	608.239	722.1578	780.0562	802.9653	821.3956	840.646	880.9209	909.3864	929.7812	944.1732	983.958	1010.844	1050.7736	1060.4095	1077.5383	1082.5427	1094.2868	1127.4244	1130.9255	1138.0959	1174.3638	1198.0417	1212.9832	1221.9023	1228.5178	1253.0089	1309.717	1379.8867	1412.7703	1432.2557	1469.369	1493.9138	1495.8875	1503.6734	1508.6931	3035.1402	3069.2342	3071.9462	3093.2455	3115.2748	3116.4495	3136.3437	3141.9753	3145.9446	3148.5661	3216.2196	3232.0541
CC1C2CC1(O2)C1CC1	C[C@H]1[C@H]2C[C@@]1(O2)C1CC1	
InChI=1S/C8H12O/c1-5-7-4-8(5,9-7)6-2-3-6/h5-7H,2-4H2,1H3	InChI=1S/C8H12O/c1-5-7-4-8(5,9-7)6-2-3-6/h5-7H,2-4H2,1H3/t5-,7+,8-/m0/s1
