15
gdb 125151	2.69312	1.56891	0.99822	3.7647	71.79	-0.25	-0.058	0.192	1118.0593	0.112107	-450.121792	-450.113189	-450.112245	-450.155759	30.993	
C	-0.0277964922	 1.5218025621	 0.1907259829	-0.503992
C	-0.0071731289	 0.0481719711	-0.0160453926	 0.166386
C	-0.0206012734	-0.7172641991	-1.1487480357	 0.378736
O	 0.0088293191	-2.0090488386	-0.7895904649	-0.249178
N	 0.042663685	-2.0343569178	 0.635937319	-0.015717
N	 0.0316162666	-0.8437012074	 1.0373972121	-0.160947
C	-0.0523997415	-0.4027847646	-2.5901959856	 0.248317
N	-0.1539503761	-1.5059139993	-3.4043437063	-0.550595
N	-0.0209863316	 0.8294286004	-2.9405394163	-0.518456
H	 0.87487547	 1.8479501245	 0.7178610189	 0.14282
H	-0.0827520586	 2.0267298715	-0.7729431977	 0.177033
H	-0.8863277302	 1.809934642	 0.8058105799	 0.142534
H	 0.0466297477	-2.4134757895	-3.0167489529	 0.275306
H	 0.0352812432	-1.3862567076	-4.3858518316	 0.256883
H	-0.051381649	 0.9295420921	-3.956010779	 0.210868
53.073	64.7052	187.92	203.0434	284.813	312.0901	356.1261	421.0273	437.4614	499.1584	607.0531	652.9122	663.7177	695.9886	722.7087	781.586	843.3697	993.1804	1024.8102	1073.0112	1092.8918	1122.0901	1183.2778	1226.1503	1333.022	1407.9373	1446.2091	1461.0084	1482.4445	1492.1797	1631.146	1656.4782	1706.2417	3044.4803	3098.3911	3167.7286	3467.7843	3595.8632	3716.1462
CC1=C(ON=N1)C(N)=N	Cc1c(onn1)C(=N)N	
InChI=1S/C4H6N4O/c1-2-3(4(5)6)9-8-7-2/h1H3,(H3,5,6)	InChI=1S/C4H6N4O/c1-2-3(4(5)6)9-8-7-2/h1H3,(H3,5,6)
