18
gdb 116103	2.25386	1.60912	1.122	3.0257	68.11	-0.2301	0.0076	0.2378	1119.4014	0.148663	-476.241997	-476.233381	-476.232437	-476.275944	31.24	
C	 0.6324432451	 1.1294335326	-0.2320710307	-0.250819
O	 0.6591652328	-0.2684647354	 0.0285805152	-0.235097
C	 0.3937589054	-0.6106316354	 1.3536785298	 0.191441
C	 0.2494439673	-2.1497736418	 1.4204343877	-0.201215
N	 1.4543868242	-2.8361005114	 1.8789739336	-0.284632
C	 2.6575344733	-2.0916080375	 1.5120405924	-0.30936
C	 2.6605174084	-0.7041059278	 2.1382282981	 0.408133
O	 3.6132560338	-0.1510895979	 2.6092643262	-0.324548
O	 1.4234303881	-0.120302441	 2.2268439936	-0.236276
H	 1.4143065172	 1.6594408645	 0.322026674	 0.141909
H	 0.7977427642	 1.2512775189	-1.3039534117	 0.135007
H	-0.3442996518	 1.5580562261	 0.0338904603	 0.114176
H	-0.5063148604	-0.0922107523	 1.7103334497	 0.088302
H	-0.5808688215	-2.4138120545	 2.0793680374	 0.116113
H	-0.0072707406	-2.4804034851	 0.4077454552	 0.131088
H	 1.4268740172	-2.9292563536	 2.8887511745	 0.230902
H	 3.5557158686	-2.613715399	 1.8466758726	 0.137228
H	 2.7027112086	-1.9989288793	 0.4208717221	 0.147648
64.9166	85.2862	129.979	194.0919	245.1523	278.1604	389.0421	416.0501	475.1921	494.2288	597.2863	670.155	775.2188	797.3079	839.2857	849.7475	943.7604	985.8976	1011.8838	1052.4659	1108.7768	1144.1916	1163.737	1176.3688	1181.8142	1211.3021	1256.6392	1323.1056	1339.5571	1375.5475	1385.2651	1414.9207	1461.627	1479.455	1484.9307	1487.8784	1499.3084	1510.5697	1862.008	3003.826	3016.4313	3046.6263	3052.132	3080.6958	3107.6158	3125.3351	3136.2697	3524.3603
COC1CNCC(=O)O1	CO[C@H]1CNCC(=O)O1	
InChI=1S/C5H9NO3/c1-8-5-3-6-2-4(7)9-5/h5-6H,2-3H2,1H3	InChI=1S/C5H9NO3/c1-8-5-3-6-2-4(7)9-5/h5-6H,2-3H2,1H3/t5-/m1/s1
