16
gdb 45732	2.92447	1.63016	1.23303	5.1884	71.28	-0.2395	-0.0201	0.2194	999.0996	0.12617	-434.061639	-434.054023	-434.053079	-434.094193	28.344	
N	 0.0553410116	 1.2930655925	 0.0129959607	-0.53613
C	 0.0797882357	 0.0240469658	 0.0045238441	 0.311524
N	 1.1499079068	-0.8713453891	-0.0077654776	-0.357265
C	 0.641177811	-2.1632485047	-0.0131131796	 0.043138
N	-0.6321669785	-2.2590504491	-0.0062061699	-0.287408
C	-1.1401864047	-0.8868918725	 0.0058662927	 0.206378
C	-2.2543770665	-0.5931308029	 1.0453058991	-0.091951
O	-3.2426260676	-0.3904460375	 0.0217160775	-0.269215
C	-2.2667234002	-0.5795929354	-1.016209007	-0.091955
H	 0.9900792781	 1.7031604685	 0.0100767657	 0.211835
H	 2.1238135761	-0.6191596023	-0.0119670208	 0.260751
H	 1.3216035044	-3.0085051281	-0.0227464734	 0.139672
H	-2.4882656935	-1.4432086991	 1.6943329112	 0.113075
H	-2.0767185847	 0.3130256591	 1.6354169046	 0.117238
H	-2.0960703648	 0.3342485605	-1.5964541507	 0.117238
H	-2.5084334532	-1.4210929856	-1.6734960866	 0.113075
85.7241	87.1491	211.0506	258.7172	284.9829	397.5729	431.6635	530.3309	605.343	690.3444	698.2235	830.7861	849.3062	853.5146	914.6492	936.2072	962.1549	990.0016	1052.1823	1062.5861	1070.8364	1083.3505	1158.1818	1169.642	1182.275	1222.6927	1307.8827	1319.0583	1352.3623	1370.3288	1414.5411	1489.4829	1517.4047	1671.2868	1761.1812	3023.2261	3033.452	3088.9407	3089.6001	3196.4	3465.0351	3662.6311
N=C1NC=NC11COC1	[NH][C]1NC=NC21COC2	
InChI=1S/C5H7N3O/c6-4-5(1-9-2-5)8-3-7-4/h3H,1-2H2,(H2,6,7,8)	InChI=1S/C5H7N3O/c6-4-5(1-9-2-5)8-3-7-4/h3H,1-2H2,(H2,6,7,8)
