18
gdb 44199	4.08403	1.161	1.1167	2.9429	78.34	-0.2544	0.0189	0.2733	1150.4244	0.148267	-401.905182	-401.897585	-401.896641	-401.937499	29.678	
N	-0.0228105476	 1.1776015747	-0.0164757184	-0.558683
C	-0.0632772634	-0.0733774329	-0.0588434758	 0.462588
O	 0.9703971804	-1.002795822	-0.2244901352	-0.273829
C	 0.0332823407	-2.0863293737	 0.0143289008	 0.002259
C	-1.1258344261	-1.1103980221	 0.0950666956	-0.305127
C	-0.9897283737	-2.1069074403	-1.0563665196	 0.345183
C	-0.7711440461	-1.9174484352	-2.5610276208	-0.294919
C	-1.4101446994	-3.3241453503	-2.7700995065	-0.207152
C	-1.9275278444	-3.2979239217	-1.2997992286	-0.308615
H	 0.9309776375	 1.5201108383	-0.1437900926	 0.229864
H	 0.3553678868	-2.8911330236	 0.662101676	 0.120714
H	-1.9922141935	-1.064558419	 0.7391632438	 0.11806
H	-1.3821421292	-1.1099553698	-2.9737158957	 0.116077
H	 0.2622498563	-1.7788663748	-2.8837030207	 0.118139
H	-2.1688591209	-3.4070892184	-3.5500759174	 0.106131
H	-0.6590519507	-4.1011073575	-2.929146849	 0.110756
H	-1.7654414839	-4.1922186543	-0.6919726055	 0.105856
H	-2.9827774827	-3.0174385375	-1.2316650804	 0.112697
87.2515	117.9167	195.7112	234.8275	356.3526	417.2724	466.4653	570.5424	680.4867	710.2673	754.1605	793.7154	815.6794	862.2878	871.3156	876.6008	928.2649	933.2862	949.1333	959.5342	989.2407	1027.8435	1049.8034	1061.855	1121.3696	1142.8641	1180.2557	1199.0636	1218.6555	1229.5652	1253.7558	1279.1037	1287.6368	1300.1099	1416.6669	1476.6624	1482.748	1505.9882	1828.6331	3052.3281	3065.269	3073.2643	3099.0103	3117.6782	3133.0653	3204.3491	3225.0128	3478.9825
N=C1OC2C1C21CCC1	[NH][C]1O[C@H]2[C@@H]1C12CCC1	
InChI=1S/C7H9NO/c8-6-4-5(9-6)7(4)2-1-3-7/h4-5,8H,1-3H2	InChI=1S/C7H9NO/c8-6-4-5(9-6)7(4)2-1-3-7/h4-5,8H,1-3H2/t4-,5-/m0/s1
