17
gdb 82027	2.38857	1.50868	1.35375	1.0387	68.18	-0.2544	-0.0312	0.2232	1026.7183	0.133133	-458.927656	-458.918861	-458.917917	-458.961284	32.277	
C	 0.122138548	 1.7240936857	 0.1929612198	-0.471851
C	-0.0056232438	 0.2119099317	 0.0611747271	 0.128851
C	-1.3881554003	-0.2768650987	 0.3900294767	 0.102974
O	-1.9499722349	-1.1818147425	-0.1788388709	-0.26283
C	 0.5797469854	-0.4597799627	-1.1889566121	 0.009654
O	 1.988027661	-0.1736691069	-1.2049232635	-0.273097
C	 1.5186758888	-1.2804956563	-0.4156659498	-0.010737
C	 1.0651646806	-0.6680226173	 0.914292713	 0.073966
O	 2.0226816666	 0.0141549297	 1.6568860047	-0.419365
H	 1.1252683421	 2.049523266	-0.0896717894	 0.132643
H	-0.5935371419	 2.2408821061	-0.4554149396	 0.12659
H	-0.059422913	 2.0405744082	 1.2247016306	 0.134536
H	-1.8698176953	 0.2494990367	 1.246352019	 0.081169
H	 0.0970550093	-0.6672683663	-2.134814356	 0.125026
H	 1.9508922678	-2.2537872917	-0.6148915829	 0.116325
H	 0.5680337149	-1.3780068044	 1.5790460219	 0.108376
H	 2.5844801649	 0.4762130527	 1.0210088513	 0.297771
72.2082	111.5197	154.4523	212.203	227.1562	253.052	288.5026	410.0842	457.2985	503.4064	584.5492	655.8481	686.6389	782.1242	814.6725	867.7586	874.6608	907.3585	952.0846	998.1905	1015.109	1053.3993	1120.563	1131.9424	1181.9188	1194.9892	1227.4885	1254.357	1279.3537	1314.7905	1374.4816	1405.4427	1425.8696	1434.3562	1482.6857	1502.725	1807.6333	2866.1904	3039.9391	3094.5027	3105.5527	3130.7084	3192.1387	3215.7588	3772.7517
CC1(C=O)C2OC2C1O	C[C@@]1(C=O)[C@H]2O[C@H]2[C@H]1O	
InChI=1S/C6H8O3/c1-6(2-7)4(8)3-5(6)9-3/h2-5,8H,1H3	InChI=1S/C6H8O3/c1-6(2-7)4(8)3-5(6)9-3/h2-5,8H,1H3/t3-,4+,5-,6-/m0/s1
