17
gdb 14278	3.59189	1.81536	1.73867	2.9639	68.59	-0.2459	0.027	0.2729	846.6922	0.143577	-363.87126	-363.864129	-363.863185	-363.90261	27.414	
C	 0.2940712635	 1.630736056	 0.0107033787	-0.423009
C	 0.1095709448	 0.1309868926	-0.0604822092	-0.043888
C	 0.5756827196	-0.734920633	-1.2257085638	-0.102941
C	 1.6536487952	-0.1964316883	-2.1473798761	-0.316687
C	 2.8403146794	 0.0696694052	-1.2326260836	 0.400986
N	 3.9253274225	 0.6136339978	-1.5757777698	-0.537614
O	 2.5556645923	-0.3567959533	 0.0418669899	-0.230801
C	 1.2330909114	-0.8535856673	 0.1236478538	 0.0676
H	 1.2639362707	 1.954542081	-0.3732734043	 0.141946
H	-0.4814542425	 2.143342171	-0.5679873827	 0.122504
H	 0.2216119415	 1.9765664523	 1.0470192318	 0.125662
H	-0.8278451013	-0.2165254657	 0.3686718584	 0.093355
H	-0.0883900223	-1.504904202	-1.5985438758	 0.096887
H	 1.9347928149	-0.9382537694	-2.9011095884	 0.137544
H	 1.3848783407	 0.7183582242	-2.6821323972	 0.138833
H	 4.5583414801	 0.687667317	-0.7776900209	 0.223105
H	 1.1593271896	-1.709967578	 0.7825619492	 0.106517
93.3195	163.2775	199.9379	250.6918	420.1913	456.1249	536.374	555.6538	678.2191	716.4088	766.4899	785.4467	836.9483	891.7232	900.0355	957.3838	988.038	1007.9763	1038.171	1061.1748	1093.4178	1112.5978	1138.608	1161.2578	1192.4295	1222.321	1265.571	1294.5888	1352.3213	1371.1234	1425.8919	1433.9465	1471.3448	1496.681	1504.9395	1775.1778	3040.0618	3063.7746	3097.7276	3101.2454	3121.0106	3137.2035	3180.4717	3190.8862	3474.8714
CC1C2CC(=N)OC12	C[C@H]1[C@H]2C[C]([NH])O[C@@H]12	
InChI=1S/C6H9NO/c1-3-4-2-5(7)8-6(3)4/h3-4,6-7H,2H2,1H3	InChI=1S/C6H9NO/c1-3-4-2-5(7)8-6(3)4/h3-4,6-7H,2H2,1H3/t3-,4+,6-/m0/s1
