17
gdb 72806	2.71821	1.5805	1.29563	4.1559	74.25	-0.2368	-0.0503	0.1865	1013.2793	0.136202	-421.845534	-421.837736	-421.836791	-421.877894	30.171	
O	 0.0586986853	 1.4215180356	-0.1345304263	-0.471296
C	 0.0336715743	 0.0158530842	-0.0081870772	 0.367255
C	 0.3206561052	-0.813982812	-1.3009354213	-0.293499
C	-1.0168463466	-1.5740489804	-1.0886350255	-0.229041
C	-1.3803081018	-0.601781888	 0.0873688923	-0.169098
C	-1.4568980649	-1.2767613145	 1.454941663	 0.375988
O	-2.4169563177	-1.8266834778	 1.9406617887	-0.332707
C	-0.093413494	-1.1718011683	 2.0494294238	-0.177618
C	 0.7198778184	-0.477225563	 1.2465469835	-0.133073
H	 0.9771488261	 1.7051916821	-0.2084045107	 0.278942
H	 0.2988406693	-0.1610588801	-2.1769395605	 0.113288
H	 1.2375750849	-1.4086183652	-1.3170271971	 0.098669
H	-1.7094322448	-1.547168708	-1.9302970027	 0.119165
H	-0.9014138043	-2.6121327302	-0.7700724163	 0.116718
H	-2.2152669064	 0.0696334555	-0.1073356314	 0.10569
H	 0.1542075269	-1.6179546751	 3.0047240054	 0.120191
H	 1.7684687202	-0.2655152647	 1.4397446625	 0.110426
69.847	180.9798	220.579	232.992	318.0479	351.7672	401.2873	498.0674	581.699	632.6587	690.9619	720.0835	752.7698	805.6332	846.5039	862.3725	937.	960.6835	965.6428	1001.4654	1014.2651	1070.8799	1101.0542	1121.386	1146.0092	1189.6862	1218.812	1230.2802	1253.5451	1267.9786	1288.4976	1352.4617	1377.4009	1470.2462	1492.4336	1643.6998	1816.4203	3058.6975	3078.9367	3113.0039	3128.9473	3139.9502	3165.8354	3220.187	3793.9554
OC12CCC1C(=O)C=C2	O[C@]12CC[C@H]1C(=O)C=C2	
InChI=1S/C7H8O2/c8-6-2-4-7(9)3-1-5(6)7/h2,4-5,9H,1,3H2	InChI=1S/C7H8O2/c8-6-2-4-7(9)3-1-5(6)7/h2,4-5,9H,1,3H2/t5-,7-/m0/s1
