19
gdb 38480	3.5317	1.68319	1.51547	2.9594	79.24	-0.2148	0.0713	0.286	930.978	0.16331	-381.942298	-381.936034	-381.93509	-381.972445	27.505	
C	-0.0068855676	 1.5292008097	 0.1888023663	-0.189206
N	 1.511800488	 1.3082307946	 0.1341271016	-0.190341
C	 1.205289456	 0.0560435206	 0.9946648723	-0.249849
C	 0.0796215873	-0.0014517875	-0.0770051431	 0.271664
C	-0.9487320578	-0.8870660737	-0.7822574308	-0.367111
C	-0.7346972247	-0.4577259176	-2.2504664139	-0.01581
N	-0.8609389706	 0.9913148662	-2.4758803317	-0.329349
C	 0.497430453	 0.4152728218	-2.405467226	-0.120011
C	 1.1882694765	 0.3288008665	-1.0605707139	 0.075095
H	-0.3519986446	 1.8395749495	 1.1801980004	 0.083897
H	-0.3918732672	 2.1750171214	-0.593327656	 0.138098
H	 1.9864393979	-0.70914943	 0.9630041935	 0.097892
H	 0.9347017284	 0.3161561185	 2.0212619744	 0.099841
H	-0.7190102414	-1.9533617677	-0.6758578451	 0.104362
H	-1.9794975748	-0.7227428442	-0.4544223161	 0.111105
H	-1.0413214529	-1.1311565784	-3.0452791766	 0.088292
H	-1.0848681312	 1.1676893312	-3.4517025454	 0.234618
H	 1.0843164602	 0.3763974358	-3.3178132174	 0.088774
H	 2.0043656457	-0.3967427564	-1.1604983925	 0.068038
255.2005	266.985	379.2446	401.5835	424.9661	526.0318	608.5889	698.3123	699.99	767.4196	810.0067	813.5925	837.0772	880.7574	885.2366	906.1435	915.8883	941.112	997.6283	1002.299	1032.9939	1066.3131	1082.9424	1094.7949	1131.6176	1134.0871	1166.3787	1176.5492	1186.416	1192.6214	1217.0226	1235.0957	1236.7473	1292.8768	1307.3676	1362.0327	1394.71	1416.7232	1469.8577	1512.3749	1554.756	3031.3589	3043.1906	3047.5282	3055.7304	3093.8531	3118.0823	3151.5274	3161.5218	3194.406	3505.1207
C1N2CC11CC3NC3C21	C1N2C[C@]31C[C@H]1N[C@H]1[C@@H]23	
InChI=1S/C7H10N2/c1-4-5(8-4)6-7(1)2-9(6)3-7/h4-6,8H,1-3H2	InChI=1S/C7H10N2/c1-4-5(8-4)6-7(1)2-9(6)3-7/h4-6,8H,1-3H2/t4-,5-,6-/m1/s1
