21
gdb 60305	3.76227	0.67448	0.59844	2.7168	86.9	-0.2627	-0.0544	0.2083	1880.5607	0.178502	-387.082126	-387.071232	-387.070288	-387.11915	38.786	
C	 0.0129785567	 1.5392384244	-0.0204919788	-0.388912
C	 0.0223637483	 0.0057299664	 0.0405703027	 0.028543
C	 0.8509207518	-0.4801199741	 1.2389683885	-0.382604
C	-1.4191435094	-0.5334521906	 0.0607275834	-0.168478
C	-1.5262997672	-2.053520519	-0.0606949405	-0.318145
C	-2.9573062951	-2.5526633213	-0.1614439826	 0.227886
O	-3.9250189902	-1.8234662495	-0.1585537787	-0.28812
C	-3.1004090686	-3.9987462052	-0.2651930415	 0.246085
C	-3.1976889399	-5.1956778298	-0.3490125168	-0.391145
H	 1.0304995144	 1.9398842813	-0.0758993492	 0.108935
H	-0.5397322653	 1.900776373	-0.8937493194	 0.112272
H	-0.4623152662	 1.9626941482	 0.872348172	 0.114186
H	 0.5057244121	-0.363896992	-0.8762453032	 0.069346
H	 1.8627976226	-0.0631639008	 1.2079705015	 0.112478
H	 0.391631506	-0.1642729767	 2.1836385561	 0.113386
H	 0.9473429622	-1.5699304539	 1.2632108476	 0.110665
H	-1.9202368439	-0.2091722149	 0.9815117571	 0.106784
H	-1.9876483774	-0.0799695878	-0.7586072234	 0.110435
H	-0.9874779852	-2.4233053557	-0.9454382306	 0.130028
H	-1.061544188	-2.5718568876	 0.7883077593	 0.13346
H	-3.3039026875	-6.2506399546	-0.4237948235	 0.212915
34.5636	67.8097	92.7045	118.1519	181.6064	227.6846	243.1268	252.9686	256.446	346.8744	411.597	422.1363	506.4311	568.6327	609.7873	642.7326	701.6947	770.5936	804.3785	864.3815	930.3527	941.753	964.417	977.6098	1047.936	1093.2844	1124.0223	1154.2142	1195.5816	1224.7326	1294.0805	1312.1126	1357.2697	1370.6411	1394.5834	1403.3041	1424.5238	1447.8577	1482.16	1489.8728	1496.3743	1506.4147	1512.2988	1770.8195	2210.3739	2990.4004	3014.2664	3024.2642	3027.939	3035.8411	3047.6951	3077.2481	3089.5082	3095.589	3100.623	3102.8403	3496.1295
CC(C)CCC(=O)C#C	CC(C)CCC(=O)C#C	
InChI=1S/C8H12O/c1-4-8(9)6-5-7(2)3/h1,7H,5-6H2,2-3H3	InChI=1S/C8H12O/c1-4-8(9)6-5-7(2)3/h1,7H,5-6H2,2-3H3
