21
gdb 42093	3.62498	1.21897	1.19181	1.2957	84.23	-0.2325	0.0247	0.2572	1162.4533	0.184708	-387.114814	-387.106804	-387.10586	-387.147983	31.334	
C	 0.3031465412	 1.6427039869	 0.4350600411	-0.22908
C	 1.554711475	 1.8854222409	-0.4117703234	-0.065504
O	 2.1354385049	 0.6040083469	-0.6181331098	-0.312953
C	 1.1489392896	-0.4450391047	-0.437401372	 0.411753
C	-0.168216623	 0.2977030697	-0.1279245718	-0.289694
C	 1.1018483197	-1.3736425455	-1.6784555352	-0.27362
C	 1.9781206348	-2.6024057775	-1.3386987568	-0.26302
C	 2.1039334901	-2.5239660302	 0.1635228078	-0.073544
C	 1.6441538206	-1.3744409162	 0.6509129983	-0.098169
H	 0.5725880567	 1.5500371069	 1.4927813173	 0.105947
H	-0.4391497265	 2.4396649771	 0.3427672334	 0.098704
H	 1.2860446942	 2.3470277752	-1.3763100809	 0.084624
H	 2.2971401174	 2.5279721055	 0.0730545288	 0.101667
H	-0.8062827171	-0.2697634063	 0.5540043596	 0.104415
H	-0.7298066728	 0.4551714312	-1.0560574014	 0.100977
H	 0.069117549	-1.6955053012	-1.8477590697	 0.098404
H	 1.4335661118	-0.8327941593	-2.5674535669	 0.106031
H	 1.5250339448	-3.5421512	-1.6748378786	 0.100746
H	 2.9677000819	-2.5518188785	-1.8115364426	 0.114298
H	 2.5504066086	-3.3186298004	 0.7522263965	 0.091803
H	 1.664549669	-1.0716482107	 1.6923223365	 0.086214
46.9333	86.5946	196.5959	263.3435	303.3034	403.5375	421.6437	494.3769	601.8692	689.8165	727.411	769.1926	789.0351	833.3255	872.5265	888.434	924.2013	937.273	942.8145	976.7522	984.2916	998.8119	1024.7361	1059.7057	1082.1865	1109.0638	1158.2868	1177.6735	1199.3608	1207.7445	1218.8586	1245.9506	1274.6432	1305.6832	1321.24	1327.0606	1340.0401	1384.3597	1390.3884	1468.7457	1485.1081	1491.666	1496.4892	1527.4535	1686.0806	2965.4467	3023.0762	3037.3165	3046.113	3047.5016	3060.483	3066.9932	3098.7954	3107.0649	3111.607	3176.0344	3202.2168
C1COC2(C1)CCC=C2	C1CO[C@@]2(C1)CCC=C2	
InChI=1S/C8H12O/c1-2-5-8(4-1)6-3-7-9-8/h1,4H,2-3,5-7H2	InChI=1S/C8H12O/c1-2-5-8(4-1)6-3-7-9-8/h1,4H,2-3,5-7H2/t8-/m1/s1
