18
gdb 47592	2.3647	1.83297	1.17805	4.3669	72.01	-0.2348	-0.0319	0.2029	1047.9439	0.149665	-439.072812	-439.065149	-439.064205	-439.105599	29.173	
O	 0.0288807207	-0.0343539208	 0.059645208	-0.303004
C	-0.0247356769	 1.1723650577	 0.0697177414	 0.371236
C	-1.3205210275	 1.9547773378	 0.1166272227	-0.280607
C	-1.235760023	 3.1716423857	-0.81814469	-0.18225
N	-0.1598943993	 4.038547389	-0.3501628711	-0.296062
C	 1.1816339173	 3.4824280029	-0.463690077	-0.070071
C	 2.0233421602	 3.7410346688	 0.8046487431	-0.066531
O	 1.7349804699	 2.4130693784	 1.3032207092	-0.291099
C	 1.256835861	 2.005255546	-0.0012333702	 0.065713
H	-2.1454549831	 1.2847220909	-0.1369482375	 0.118217
H	-1.4630711962	 2.3221429885	 1.1401649915	 0.141954
H	-1.1114706401	 2.8287519263	-1.8623705221	 0.088756
H	-2.1724298227	 3.7357160238	-0.7782783762	 0.11139
H	-0.2035642965	 4.9471921209	-0.7945733227	 0.224922
H	 1.6690896527	 3.6867497024	-1.4266644424	 0.071164
H	 3.0983106674	 3.8736074938	 0.6227992123	 0.096648
H	 1.6480254698	 4.5237574149	 1.4694000218	 0.112196
H	 2.0155178659	 1.4160268929	-0.5320708108	 0.087428
51.1473	113.6327	210.941	278.3529	365.2998	392.5725	453.5025	466.6538	548.4266	648.1774	723.7637	763.7394	816.5243	867.7784	905.5307	925.4727	972.8475	1007.44	1019.4894	1059.6676	1074.2437	1082.9937	1160.9734	1178.0138	1192.0176	1216.4305	1255.4272	1267.2021	1285.0923	1326.7095	1341.9439	1346.1302	1355.0999	1412.7916	1445.0414	1480.6128	1506.3114	1511.9172	1818.4274	2925.8801	2997.1309	3013.692	3030.7109	3043.9096	3075.9654	3095.7484	3114.8173	3549.3122
O=C1CCNC2COC12	O=C1CCN[C@H]2CO[C@@H]12	
InChI=1S/C6H9NO2/c8-5-1-2-7-4-3-9-6(4)5/h4,6-7H,1-3H2	InChI=1S/C6H9NO2/c8-5-1-2-7-4-3-9-6(4)5/h4,6-7H,1-3H2/t4-,6+/m0/s1
