16
gdb 27824	1.97344	1.87249	0.96661	2.9904	77.7	-0.2026	-0.0257	0.1768	1166.3418	0.126414	-434.137506	-434.129468	-434.128523	-434.170326	30.443	
C	-0.0170003095	 1.472745147	 0.032408049	-0.489261
C	 0.0015048133	-0.0258769863	-0.0504185429	 0.409723
N	-0.0176396357	-0.6156564713	-1.2118793489	-0.414416
C	 0.0023520715	-1.9902199481	-1.1959496101	 0.432091
O	-0.0184892399	-2.5576810476	-2.4147834191	-0.412898
C	 0.0399269817	-2.7574497607	-0.0722846472	-0.311107
C	 0.0614031825	-2.119107494	 1.2190705871	 0.376689
N	 0.0963936765	-2.5943060616	 2.4102812531	-0.582406
N	 0.0386684159	-0.7086035197	 1.1132840641	-0.343915
H	 0.8779356055	 1.8451005066	 0.5424967858	 0.148605
H	-0.0534505687	 1.8873562748	-0.973934112	 0.159131
H	-0.8886456419	 1.8207897198	 0.5969827155	 0.148244
H	-0.0438765934	-1.8269402078	-3.0472344259	 0.299873
H	 0.0537746671	-3.8371188701	-0.1365475728	 0.104469
H	 0.1102274087	-3.6119639863	 2.3817004753	 0.211466
H	 0.0526910465	-0.2216873947	 1.9991926788	 0.26371
74.6808	156.0073	190.1403	210.1657	292.8901	354.935	507.4501	512.1163	536.83	564.909	584.4934	630.0982	656.6519	728.6047	755.1597	789.1869	844.9237	937.9743	977.3015	1038.4316	1062.8858	1063.1198	1128.142	1203.9235	1282.7155	1293.4489	1354.6712	1404.6711	1449.0131	1469.5987	1482.4311	1513.3354	1625.0399	1670.9991	1727.5808	3043.2102	3100.1848	3167.5089	3222.0991	3504.6633	3600.7146	3776.4404
CC1=NC(O)=CC(=N)N1	CC1=N[C@H](O)C=C([NH])N1	
InChI=1S/C5H7N3O/c1-3-7-4(6)2-5(9)8-3/h2H,1H3,(H3,6,7,8,9)	InChI=1S/C5H8N3O/c1-3-7-4(6)2-5(9)8-3/h2,5-6,9H,1H3,(H,7,8)/t5-/m1/s1
