19
gdb 37254	3.14006	2.07888	1.67037	0.2666	79.86	-0.2072	0.0807	0.2879	869.7938	0.16308	-348.687161	-348.681163	-348.680219	-348.716989	27.054	
C	-0.0562568044	 1.534490943	 0.1041126441	-0.31006
C	 1.279231448	 0.8395444652	-0.0208095762	-0.042831
C	 0.0121609371	 0.0282559403	 0.0110600869	-0.042828
C	-0.2985660283	-0.6736617657	-1.2735960378	-0.043522
C	-0.0080100789	-0.0915426448	-2.6344016688	-0.103277
C	 1.3020344655	 0.7473071954	-2.6673448392	-0.103285
C	 2.0004566592	 0.7983956643	-1.3314294347	-0.04352
C	 2.0851184731	-0.4584358509	-2.1798100981	-0.089746
C	 0.7768069299	-1.296160546	-2.1468722575	-0.089751
H	-0.3113493921	 1.9705805322	 1.0636420125	 0.104326
H	-0.4268761239	 2.0794681516	-0.7577347926	 0.113359
H	 1.9170488647	 0.8239885927	 0.8577709501	 0.077575
H	-0.2088910083	-0.5372107632	 0.9112493635	 0.077575
H	-1.2129382424	-1.2627007441	-1.2656415396	 0.08311
H	-0.7559696259	-0.0439129177	-3.4156337691	 0.082871
H	 1.5434254732	 1.4284497331	-3.4734534057	 0.08287
H	 2.9175339685	 1.3820252843	-1.369546861	 0.08311
H	 3.0258416965	-0.8478639933	-2.547265593	 0.082012
H	 0.7241920086	-2.3216388765	-2.4893103638	 0.082012
246.3833	261.2824	479.2753	484.2301	574.0343	584.3348	669.3719	720.4934	723.6833	747.8752	749.9186	830.8871	863.3136	877.696	886.9972	888.0337	928.4291	961.9902	980.5011	1004.768	1010.7621	1019.7367	1056.0767	1060.8012	1074.39	1078.4636	1105.3036	1122.6865	1123.7398	1145.018	1153.1797	1221.7419	1244.7406	1288.0577	1310.2027	1310.8311	1377.5321	1402.2312	1417.0951	1451.4944	1487.8683	3128.879	3130.6104	3131.186	3142.6209	3151.6037	3177.7101	3187.718	3188.9111	3199.5664	3219.5943
C1C2C1C1C3C4C2C4C13	C1[C@H]2[C@@H]1[C@H]1[C@H]3[C@H]4[C@@H]2[C@H]4[C@@H]13	
InChI=1S/C9H10/c1-2-3(1)5-8-6-4(2)7(6)9(5)8/h2-9H,1H2	InChI=1S/C9H10/c1-2-3(1)5-8-6-4(2)7(6)9(5)8/h2-9H,1H2/t2-,3+,4-,5+,6+,7-,8+,9-
