17
gdb 82908	3.19585	1.92041	1.64365	1.8027	65.38	-0.2329	0.0756	0.3084	850.6174	0.139814	-458.944978	-458.939106	-458.938162	-458.974912	25.749	
O	 0.1319446319	 1.3877087949	-0.1000718392	-0.452234
C	 0.0227906215	-0.0041751616	-0.0322347279	 0.201537
C	 0.3356777054	-0.5895445955	 1.3665399451	-0.018549
O	-0.6148472981	 0.2024340119	 2.1159406401	-0.291405
C	-1.8014213267	-0.4138829088	 1.5564123486	 0.03433
C	-1.6216611528	-1.8189122354	 2.1512741921	-0.199896
C	-0.3587258319	-2.0263628675	 1.2962896099	 0.046062
O	-0.97744191	-2.0212992274	-0.0063533477	-0.264092
C	-1.3896596094	-0.6461754014	 0.0197944105	-0.024139
H	-0.1633852531	 1.7122541343	 0.761995914	 0.286853
H	 0.5884240957	-0.4354330398	-0.8580612283	 0.098769
H	 1.33518452	-0.4986333183	 1.7851333315	 0.089901
H	-2.6875920162	 0.1757038325	 1.7773323656	 0.091449
H	-1.4792694038	-1.7589683325	 3.2307595289	 0.110925
H	-2.3779367469	-2.5588704471	 1.8877357984	 0.112617
H	 0.26305716	-2.9078548878	 1.4324623533	 0.089642
H	-2.1150558557	-0.4237111605	-0.758718075	 0.088231
231.6753	319.4929	430.6147	518.5203	545.1746	568.313	608.6906	634.472	718.2543	797.009	824.7901	854.8757	869.4214	910.0792	912.3608	921.5214	927.1448	966.4477	984.0062	1006.0761	1034.6862	1037.9315	1124.0327	1131.8307	1142.0823	1198.6728	1223.9262	1234.2084	1248.9625	1260.5936	1269.2959	1286.1256	1306.2062	1319.3487	1343.3382	1438.2026	1471.8636	3088.3893	3123.788	3152.8423	3154.013	3156.8552	3159.9308	3166.6869	3748.6829
OC1C2OC3CC2OC13	O[C@H]1[C@H]2O[C@@H]3C[C@H]2O[C@H]13	
InChI=1S/C6H8O3/c7-4-5-2-1-3(9-5)6(4)8-2/h2-7H,1H2	InChI=1S/C6H8O3/c7-4-5-2-1-3(9-5)6(4)8-2/h2-7H,1H2/t2-,3-,5+,6+/m1/s1
