13
gdb 129500	2.94572	1.74552	1.09605	4.1682	60.8	-0.2558	-0.03	0.2259	991.7196	0.091704	-486.139816	-486.132542	-486.131598	-486.171737	26.908	
N	-0.0429232424	 1.2844918345	 0.0234554267	-0.56398
C	 0.058175709	-0.0526417186	-0.0220395704	 0.547422
O	 1.0970647645	-0.7023007684	-0.0713434998	-0.422626
N	-1.1750627071	-0.7185931284	-0.0086351443	-0.140201
N	-2.4047197334	-0.0944432753	 0.0455755591	-0.28147
C	-3.2188874518	-1.1263402869	 0.035938745	 0.055999
N	-2.6403968933	-2.3659825834	-0.0196666312	-0.357609
C	-1.3614880693	-2.0828333867	-0.0467669443	 0.506263
O	-0.3572901724	-2.9303027432	-0.1020842387	-0.397315
H	 0.7990011009	 1.832752834	 0.0171077817	 0.283631
H	-0.9537038338	 1.7138742565	 0.0620563516	 0.295705
H	-4.2903925943	-0.9932325166	 0.0702540784	 0.141324
H	 0.4646988034	-2.3842603474	-0.1081646439	 0.332855
109.7951	140.6054	236.6274	275.5311	328.8468	379.7526	485.5694	558.3346	598.7108	658.8348	702.2082	741.7796	753.5951	777.6028	778.6022	932.1039	966.2758	1088.7641	1143.4769	1236.0744	1242.3673	1280.9378	1304.202	1452.9838	1475.2233	1549.6662	1594.7423	1649.5575	1800.1704	3257.7392	3405.1216	3600.2137	3747.3016
NC(=O)N1N=CN=C1O	NC(=O)n1ncnc1O	
InChI=1S/C3H4N4O2/c4-2(8)7-3(9)5-1-6-7/h1H,(H2,4,8)(H,5,6,9)	InChI=1S/C3H4N4O2/c4-2(8)7-3(9)5-1-6-7/h1H,(H2,4,8)(H,5,6,9)
