20
gdb 38453	3.52975	1.30105	1.21912	1.4737	78.09	-0.2308	0.0816	0.3124	1099.2869	0.173193	-403.102718	-403.095012	-403.094068	-403.135314	30.138	
C	 0.2331298346	 1.7167168983	-0.0731743584	-0.32067
C	 1.7123861341	 1.3236526651	-0.1379539345	-0.034976
N	 1.998720652	 0.5779082688	 1.1141885294	-0.339976
C	 1.3789314506	-0.1207798963	-0.0365740255	-0.107238
C	-0.1290778933	 0.1936309724	 0.0232672307	 0.370177
C	-0.9205367031	-0.3608445773	 1.2151956318	-0.315972
C	-1.5336777424	-1.6695294742	 0.6607640086	-0.071843
O	-1.2516698347	-1.7017719056	-0.7435662496	-0.260167
C	-0.9133310328	-0.3876819839	-1.1505600611	-0.147065
H	-0.0476982906	 2.341792317	 0.778210716	 0.106135
H	-0.1364238735	 2.1686840932	-0.9983166687	 0.102486
H	 2.5084377848	 1.8215206249	-0.6773665043	 0.092499
H	 2.9920768907	 0.3465029328	 1.1037561485	 0.227202
H	 1.8469631725	-0.9897963316	-0.484175207	 0.092612
H	-0.2787271848	-0.5143140708	 2.0844814673	 0.124968
H	-1.7070985981	 0.343961087	 1.5039176678	 0.101048
H	-1.0938270264	-2.5687620432	 1.1042316919	 0.105463
H	-2.6192064658	-1.708423093	 0.8281106973	 0.092131
H	-1.8134491557	 0.2215201845	-1.3478362233	 0.080039
H	-0.3375832481	-0.4576651182	-2.0792492169	 0.103146
61.4369	142.6134	164.3562	235.1216	349.1384	400.4599	447.9361	532.2944	695.3976	734.7981	773.5101	813.5508	833.83	844.6816	894.2503	924.9753	935.3487	941.088	968.982	985.99	1015.6131	1024.7115	1074.4796	1093.7189	1101.1771	1146.0672	1155.8674	1168.9277	1211.2855	1225.5814	1234.6069	1256.8821	1270.3201	1299.5848	1307.4494	1340.2009	1358.3557	1380.1692	1401.4609	1473.9668	1495.3298	1511.3824	1532.4786	2944.8358	3001.5355	3052.0346	3054.7491	3064.7854	3071.4282	3111.029	3119.2061	3179.4268	3195.4617	3468.9246
C1C2NC2C11CCOC1	C1[C@H]2N[C@H]2[C@]21CCOC2	
InChI=1S/C7H11NO/c1-2-9-4-7(1)3-5-6(7)8-5/h5-6,8H,1-4H2	InChI=1S/C7H11NO/c1-2-9-4-7(1)3-5-6(7)8-5/h5-6,8H,1-4H2/t5-,6-,7+/m1/s1
