19
gdb 91174	2.593	1.85786	1.7924	1.5304	77.53	-0.2202	0.0052	0.2254	910.0162	0.16181	-385.883632	-385.876685	-385.875741	-385.914573	28.954	
C	 0.21873787	 1.5482781053	-0.0941987692	-0.396359
C	 0.0600987475	 0.0325459643	 0.0291021219	 0.123444
O	 0.5471528933	-0.6582766205	-1.1395366044	-0.283646
C	 1.7141050695	-1.4180284665	-0.7852673474	 0.025532
C	 2.9167639961	-0.4776375001	-0.8029037169	-0.087904
C	 3.1460695906	-0.0068616534	 0.4230971036	-0.083814
C	 2.2560242432	-0.6685645897	 1.429125962	-0.090911
C	 0.729407224	-0.6432643699	 1.2267621833	-0.081536
C	 1.5468385538	-1.7827735828	 0.7054650249	-0.090118
H	 1.2673960256	 1.845753403	-0.1316939898	 0.123721
H	-0.2744992053	 1.9003606898	-1.004930179	 0.120429
H	-0.2553781789	 2.0427494651	 0.7610452844	 0.106782
H	-1.0161409905	-0.1859943312	 0.0891316843	 0.076808
H	 1.7694113428	-2.2640261067	-1.4734235104	 0.076186
H	 3.3621773696	-0.1230215812	-1.7242870619	 0.100046
H	 3.8482688608	 0.776587769	 0.6851772263	 0.097521
H	 2.5968047555	-0.7951547626	 2.4510598205	 0.084588
H	 0.1285446654	-0.7627198541	 2.1223062153	 0.089394
H	 1.4837207872	-2.8052494877	 1.0538585623	 0.089837
155.4825	208.7871	221.6083	348.9556	386.906	488.1254	579.7125	639.4338	684.1825	728.9245	749.8148	797.9615	811.0052	821.1118	833.4018	919.9862	930.1047	945.4163	969.8904	986.1672	998.5817	1022.6026	1029.8286	1084.7421	1092.0452	1107.0941	1115.1241	1129.1345	1165.5176	1278.927	1283.2021	1310.3507	1337.4571	1354.0167	1367.5549	1386.9376	1394.994	1403.9333	1486.0189	1501.0522	1665.8953	2988.1	3040.6282	3091.2043	3105.5433	3144.8854	3160.2166	3169.2883	3189.1744	3197.0429	3218.4971
CC1OC2C=CC3C1C23	C[C@H]1O[C@H]2C=C[C@H]3[C@@H]1[C@@H]23	
InChI=1S/C8H10O/c1-4-7-5-2-3-6(9-4)8(5)7/h2-8H,1H3	InChI=1S/C8H10O/c1-4-7-5-2-3-6(9-4)8(5)7/h2-8H,1H3/t4-,5+,6+,7-,8-/m1/s1
