21
gdb 41736	3.5881	1.38224	1.20303	1.6778	81.45	-0.2443	0.0902	0.3345	1103.0207	0.186545	-387.102077	-387.094844	-387.0939	-387.133385	29.774	
C	 0.2889360075	 1.3297820426	-0.5169568575	-0.219925
C	 1.4138672045	 1.9960102755	 0.3144918451	-0.232293
C	 2.0883385167	 0.8521881729	 1.0617435473	-0.070048
C	 2.480773976	-0.3661127762	 0.2640719256	-0.124792
C	 3.3061160912	-1.4045096515	 1.0035723169	-0.102488
O	 2.6509877318	-1.6162342942	 2.2540903689	-0.257274
C	 1.2551488129	-1.3926953916	 2.0731636099	-0.180054
C	 1.1522756756	-0.3387403533	 0.9951094441	 0.353271
C	-0.1186230836	 0.0675951143	 0.280203249	-0.312057
H	-0.5525962124	 2.0035187095	-0.6974222387	 0.097585
H	 0.6721845039	 1.0356447708	-1.4993933364	 0.105479
H	 2.101554064	 2.574180251	-0.3125206739	 0.096935
H	 0.9860723833	 2.6924080146	 1.0456196267	 0.10017
H	 2.6454065936	 1.0706397875	 1.9681539992	 0.086397
H	 2.5538184197	-0.3255995603	-0.8179134425	 0.08078
H	 3.3505739751	-2.3358779769	 0.4151006699	 0.088435
H	 4.3319815534	-1.0934059826	 1.2296628307	 0.105822
H	 0.7379151112	-2.3163783841	 1.7603354008	 0.085104
H	 0.8479779528	-1.0863851741	 3.0436239768	 0.103611
H	-0.8920760386	 0.311830218	 1.0203981033	 0.099113
H	-0.5288387886	-0.7176115017	-0.3649250949	 0.09623
186.1315	207.9329	231.4852	274.9285	314.3494	372.9528	451.4492	615.3714	646.1402	692.2689	761.7535	837.1403	857.2181	884.0125	894.2521	924.1818	941.5083	954.2434	996.6152	1014.7649	1035.1734	1069.2178	1075.6116	1089.7724	1110.8366	1121.083	1178.8399	1183.3639	1220.4965	1235.4923	1246.8641	1263.935	1273.277	1285.5788	1331.4932	1341.2866	1342.8355	1367.702	1393.0488	1445.4801	1492.562	1493.5451	1510.7529	1513.0719	1523.6148	2952.4782	2968.3276	3018.5137	3031.4455	3047.1837	3053.9959	3060.4299	3063.0813	3069.9738	3099.8503	3152.9028	3161.9331
C1CC2C3COCC23C1	C1C[C@@H]2[C@H]3COC[C@@]23C1	
InChI=1S/C8H12O/c1-2-6-7-4-9-5-8(6,7)3-1/h6-7H,1-5H2	InChI=1S/C8H12O/c1-2-6-7-4-9-5-8(6,7)3-1/h6-7H,1-5H2/t6-,7-,8+/m1/s1
