22
gdb 77378	2.42548	1.64272	1.31521	1.7923	85.71	-0.2271	0.0833	0.3104	1111.3244	0.193253	-367.164405	-367.155346	-367.154402	-367.197305	35.514	
C	 0.0244637691	 1.6305587008	 0.0492001739	-0.436644
C	 0.1031242358	 0.1080530608	 0.0141809094	-0.058226
C	 0.7725146265	-0.6369591415	-1.1469044129	 0.345659
C	 0.3544171884	-0.6757991966	-2.5832673981	-0.503538
C	 1.2361590545	-1.7196806817	-0.2485831656	-0.164577
N	 2.2489451231	-0.8024321466	-0.8537950763	-0.190502
C	 2.4596324447	-0.1837756526	 0.4939333354	-0.190575
C	 1.0767963229	-0.6890680221	 0.9446598201	 0.281076
C	 0.7337714387	-0.9688788142	 2.3840647633	-0.514064
H	 0.9923453863	 2.1050266287	-0.1335077286	 0.121897
H	-0.6676497193	 1.9962152385	-0.7173144369	 0.118194
H	-0.3471114015	 1.9830925714	 1.0181184044	 0.114894
H	-0.9023044648	-0.3135008511	 0.1413658393	 0.069132
H	 0.4727811734	 0.3063432828	-3.0549746407	 0.122571
H	 0.9672962078	-1.3889533773	-3.1410230094	 0.133049
H	-0.6963284103	-0.9714613411	-2.6778488227	 0.11458
H	 1.2635132014	-2.7995225533	-0.3289413155	 0.088552
H	 3.2797735738	-0.7149625907	 0.9872293613	 0.100705
H	 2.669559559	 0.8919684476	 0.5008069566	 0.090661
H	 0.6939976483	-0.0387628098	 2.9637131866	 0.12087
H	-0.2421590667	-1.4580418987	 2.47624083	 0.117859
H	 1.4804539587	-1.6189235133	 2.8534410464	 0.118427
157.4874	177.9373	191.1191	196.6685	206.7946	243.3025	281.6556	339.9878	365.2374	504.6407	570.344	575.8508	631.3955	680.9007	770.149	788.2155	836.4563	847.6094	913.089	965.8894	982.3426	1009.3752	1016.6784	1036.231	1059.5057	1090.4916	1120.9088	1137.9568	1152.3359	1171.1422	1182.0764	1216.0912	1260.1342	1286.9608	1342.2663	1379.6134	1402.6038	1407.3241	1415.0115	1442.287	1485.1832	1489.3936	1490.8345	1494.7363	1495.6331	1497.1992	1520.8103	3021.4833	3023.5655	3029.2359	3030.019	3036.0281	3084.2003	3085.8282	3088.5604	3091.0173	3091.8368	3113.3637	3115.4138	3187.976
CC1C2(C)C3N2CC13C	C[C@H]1[C@]2(C)[C@H]3N2C[C@@]13C	
InChI=1S/C8H13N/c1-5-7(2)4-9-6(7)8(5,9)3/h5-6H,4H2,1-3H3	InChI=1S/C8H13N/c1-5-7(2)4-9-6(7)8(5,9)3/h5-6H,4H2,1-3H3/t5-,6+,7+,8-,9?/m1/s1
