18
gdb 30487	3.88519	1.12957	0.88479	2.2774	87.36	-0.2056	-0.0285	0.1772	1316.1985	0.148757	-398.177923	-398.169285	-398.168341	-398.211165	31.987	
C	 0.0479830299	 1.4612254624	-0.0501352653	-0.343555
N	 0.0926718032	 0.0156318058	-0.1213955386	-0.321771
C	 0.5838210386	-0.6265278664	 0.8722858817	 0.40846
N	 1.0918342914	-0.0278267423	 2.0478139384	-0.371564
C	 1.6049962067	-0.7508291814	 3.0800631156	 0.094637
N	 1.689855793	-2.035511008	 3.114546356	-0.332599
C	 1.2108032851	-2.7122250885	 1.9927991418	 0.320693
C	 1.3276748834	-4.2055491147	 2.0720757159	-0.46413
C	 0.6838889339	-2.068761391	 0.9213811703	-0.224079
H	 1.0473450245	 1.9213858826	 0.0480557736	 0.101142
H	-0.393835732	 1.8558095915	-0.9686430181	 0.12826
H	-0.5674308097	 1.8347993102	 0.7875922783	 0.101233
H	 1.0710543895	 0.977251563	 2.1207464699	 0.262735
H	 1.9613438435	-0.1636881311	 3.9244069375	 0.128168
H	 2.3751090779	-4.4946678351	 2.2113594359	 0.139218
H	 0.7802976669	-4.5806358619	 2.9437242717	 0.139215
H	 0.9411674739	-4.6907922522	 1.1735464786	 0.123349
H	 0.3150297603	-2.6045377529	 0.0559735667	 0.110589
105.9006	135.9463	156.3402	182.8505	215.212	290.2345	329.8444	415.15	459.5421	525.6239	560.7712	617.6878	663.3702	751.2627	780.2159	892.7083	893.2548	958.8472	970.3423	1017.1352	1052.7461	1066.4666	1103.9308	1143.2693	1172.8079	1226.8498	1263.4084	1366.3952	1411.1498	1416.1165	1439.4623	1461.4063	1470.4378	1482.5458	1504.2074	1506.2891	1617.5759	1673.7033	1728.6649	2932.636	2971.3431	3037.0073	3092.4269	3095.8858	3133.0723	3152.5962	3216.44	3635.7355
CN=C1NC=NC(C)=C1	C[N]C1=C[C@H](N=CN1)C	
InChI=1S/C6H9N3/c1-5-3-6(7-2)9-4-8-5/h3-4H,1-2H3,(H,7,8,9)	InChI=1S/C6H10N3/c1-5-3-6(7-2)9-4-8-5/h3-5H,1-2H3,(H,8,9)/t5-/m1/s1
