21
gdb 73305	3.19271	1.516	1.31658	1.6163	81.53	-0.2173	0.0909	0.3083	1073.3422	0.182571	-387.075676	-387.067472	-387.066528	-387.107625	33.27	
C	-0.0001035063	 1.4643298012	 0.096741835	-0.493573
C	 0.000942193	-0.0382625329	-0.0351374761	 0.305162
C	 1.0392223231	-0.7273579739	-0.9291369551	-0.284998
C	 0.37972368	-2.0709499556	-1.3383782916	-0.234362
C	-0.7513924784	-2.2344299882	-0.3210994237	 0.418876
C	-1.6914205445	-3.4012450753	-0.4805665452	-0.479796
O	-0.1126572688	-2.2298992326	 1.0152645349	-0.345109
C	-0.4665992836	-0.857062496	 1.1558052892	 0.060479
C	-1.3093837083	-0.8085018761	-0.0789378016	-0.244525
H	 0.9572333451	 1.8267445941	 0.4886669134	 0.120958
H	-0.1682195222	 1.9499848501	-0.8717559384	 0.116835
H	-0.7863444198	 1.8061650835	 0.7786849203	 0.115266
H	 1.2686888015	-0.1056841902	-1.8006053729	 0.093562
H	 1.9779034	-0.8902640897	-0.3902051431	 0.106873
H	-0.0363869863	-2.0178046422	-2.3514634066	 0.093901
H	 1.0730191306	-2.9164587038	-1.300842203	 0.102696
H	-1.1386938733	-4.3448393739	-0.4279763632	 0.126724
H	-2.4450219187	-3.4017641991	 0.311318541	 0.126438
H	-2.2002919467	-3.3546292391	-1.4493810733	 0.115812
H	-0.6055373505	-0.4642394108	 2.1576559004	 0.093216
H	-2.3001636259	-0.4251379293	-0.2854951306	 0.085567
187.1686	195.739	216.1419	225.206	251.3201	321.2911	364.7462	395.7598	491.106	544.8921	599.3956	683.1278	752.1307	798.2515	825.6416	842.437	856.8504	894.4403	909.5484	947.5195	984.9343	996.1086	1030.2664	1037.5227	1066.2676	1082.088	1134.4032	1154.0209	1186.4302	1201.3409	1218.1568	1257.9783	1281.3537	1288.3044	1317.157	1357.243	1406.0541	1412.2277	1419.9021	1473.1106	1481.7152	1489.7885	1492.8327	1497.8757	1504.5052	3020.3385	3032.5114	3037.4772	3047.2108	3077.6847	3080.3782	3090.9022	3096.2322	3105.7423	3118.7819	3163.6526	3194.1253
CC12CCC3(C)OC1C23	C[C@@]12CC[C@@]3(C)O[C@@H]1[C@@H]23	
InChI=1S/C8H12O/c1-7-3-4-8(2)5(7)6(7)9-8/h5-6H,3-4H2,1-2H3	InChI=1S/C8H12O/c1-7-3-4-8(2)5(7)6(7)9-8/h5-6H,3-4H2,1-2H3/t5-,6+,7-,8+/m0/s1
