14
gdb 25063	6.06477	0.91598	0.79967	3.4894	70.05	-0.2223	0.0157	0.238	1336.0747	0.099712	-436.667271	-436.65927	-436.658326	-436.700413	29.414	
N	 0.3478363589	 1.0812909646	-0.9928185788	-0.57755
C	 0.1588484266	 0.0043400398	-0.377033098	 0.494421
O	 1.0078052324	-0.656541532	 0.4773113267	-0.220664
C	 0.3431055567	-1.7969489696	 0.899956011	-0.133696
C	-0.8568276528	-1.833333219	 0.3313804166	 0.324574
C	-2.0110136929	-2.7746997332	 0.3816990635	-0.475308
C	-1.7605548093	-3.9156025386	 1.2541954151	 0.303513
C	-1.5500608754	-4.8531816226	 1.9738350537	-0.432359
O	-0.9989563024	-0.7159224368	-0.4745542178	-0.230278
H	 1.2692656719	 1.4562673025	-0.7847186705	 0.23808
H	 0.8533527402	-2.4511079511	 1.5824392655	 0.172775
H	-2.9051701657	-2.2305519136	 0.7166028104	 0.164075
H	-2.2392896176	-3.1191530271	-0.6366259167	 0.164073
H	-1.3748191206	-5.6865814331	 2.6084150693	 0.208342
54.4044	108.2673	165.8567	274.3346	281.8866	332.565	421.9446	510.6338	579.8723	630.9604	666.8276	713.7478	727.0619	758.1208	767.6623	775.8005	915.6209	959.6577	960.8601	1002.1942	1013.9583	1095.2517	1200.7292	1217.8116	1224.8478	1321.368	1387.4724	1465.7019	1746.9174	1816.2912	2251.1898	3011.2617	3034.3579	3318.0003	3504.5513	3550.6949
N=C1OC=C(CC#C)O1	[NH][C@@H]1OC=C(CC#C)O1	
InChI=1S/C6H5NO2/c1-2-3-5-4-8-6(7)9-5/h1,4,7H,3H2	InChI=1S/C6H6NO2/c1-2-3-5-4-8-6(7)9-5/h1,4,6-7H,3H2/t6-/m1/s1
