21
gdb 108085	2.52094	1.43337	1.17875	2.0069	82.33	-0.2201	0.0791	0.2992	1175.1864	0.181672	-387.034378	-387.025529	-387.024585	-387.067822	33.868	
C	 0.1715264036	 1.4132648604	 0.2437366343	-0.372034
C	-0.1194764265	-0.0376936935	-0.1648872878	-0.306628
C	 0.6224131346	-0.4609418585	-1.4005878826	 0.260691
C	 0.4597811531	 0.0433446956	-2.8383034032	-0.291018
C	 1.388273966	-1.1334523542	-3.2237179419	 0.022406
O	 2.6723545251	-0.7651107446	-2.6448849751	-0.299942
C	 2.067944964	-1.0128404938	-1.3759922967	 0.00118
C	 0.9639399293	-1.8754705351	-1.891504022	 0.224081
C	 0.4470424736	-3.2392543154	-1.5692717022	-0.533361
H	 1.2381125514	 1.558639828	 0.4425934124	 0.120457
H	-0.1147056473	 2.1111475123	-0.5498260743	 0.121136
H	-0.3834538771	 1.6874076519	 1.1461255272	 0.110261
H	 0.1453744481	-0.7102675395	 0.6622544479	 0.094682
H	-1.1995775016	-0.1644874942	-0.3200125971	 0.09768
H	-0.562322508	-0.109476336	-3.1978513493	 0.096343
H	 0.8144574082	 1.0447875457	-3.1043739818	 0.096642
H	 1.4641316393	-1.5343918589	-4.2329821706	 0.082116
H	 2.6931912547	-1.0700605606	-0.4932474896	 0.099555
H	 0.3142329475	-3.3560259163	-0.4882438136	 0.12533
H	-0.524617851	-3.4265087776	-2.0411261671	 0.121602
H	 1.1389460731	-4.0202003056	-1.904548217	 0.128823
81.6668	123.0983	181.4039	199.5911	212.9091	246.1155	317.0522	392.3791	456.7147	548.5328	597.9783	674.3887	734.9001	772.9873	791.3609	825.5602	907.7442	917.2011	928.9598	958.226	985.1647	1006.2964	1028.5128	1037.6466	1092.4426	1109.555	1129.1045	1157.127	1171.3303	1196.1942	1222.7465	1235.9961	1283.5801	1315.1833	1336.3379	1368.5899	1410.4365	1412.2802	1461.6004	1482.1349	1484.351	1491.3919	1496.973	1500.4123	1507.8038	3006.9033	3021.363	3035.7816	3036.0643	3039.1022	3080.7537	3091.8826	3098.502	3105.3767	3108.0959	3136.176	3192.8842
CCC12CC3OC1C23C	CC[C@@]12C[C@H]3O[C@@H]1[C@@]23C	
InChI=1S/C8H12O/c1-3-8-4-5-7(8,2)6(8)9-5/h5-6H,3-4H2,1-2H3	InChI=1S/C8H12O/c1-3-8-4-5-7(8,2)6(8)9-5/h5-6H,3-4H2,1-2H3/t5-,6-,7+,8-/m1/s1
