21
gdb 82209	2.37461	1.82424	1.33777	1.8388	80.65	-0.2491	0.0806	0.3297	1050.6502	0.182892	-387.076452	-387.068189	-387.067245	-387.108642	33.204	
C	 0.0157566902	 1.5597489116	-0.0445209516	-0.396383
C	 0.0333378487	 0.0279483319	 0.0053795676	-0.083653
C	 0.6985723152	-0.6208346332	-1.2060108446	 0.031631
O	 2.099380327	-0.3441007347	-1.351532348	-0.259489
C	 1.7058124489	-1.5921967654	-0.75510881	 0.025035
C	 1.745464988	-1.6076669589	 0.7557477613	-0.110768
C	 2.2157050599	-0.3315723461	 1.4191386903	-0.334783
C	 0.7371656371	-0.5780449618	 1.2415282502	 0.336826
C	-0.1139980355	-0.8052555158	 2.4701266414	-0.480356
H	 1.0309289686	 1.954355898	-0.1384231456	 0.132835
H	-0.5661507922	 1.9201899581	-0.8993621489	 0.111078
H	-0.4316853997	 1.9776642007	 0.8628484277	 0.113594
H	-1.0051670282	-0.3327617971	 0.0187835332	 0.071015
H	 0.1508808828	-0.7040992851	-2.1432122779	 0.089845
H	 1.97951863	-2.4791067924	-1.319803117	 0.09285
H	 1.8774745149	-2.5607362795	 1.2555675509	 0.079675
H	 2.6024176721	-0.4143553882	 2.4300178528	 0.101686
H	 2.7223767905	 0.3913245024	 0.7927451143	 0.133947
H	-0.4864658609	 0.1422242255	 2.8786083755	 0.118485
H	-0.984228256	-1.4335920092	 2.2456328233	 0.112804
H	 0.4592409588	-1.2984095807	 3.2616773651	 0.114126
137.4231	202.5644	207.3507	229.6407	242.8983	294.2773	375.6653	408.2168	531.7699	541.3771	641.0274	686.065	701.3689	802.5247	817.015	861.8615	876.0101	891.2353	945.1035	970.8213	982.7151	1016.5809	1034.4281	1062.5995	1082.7159	1085.7962	1103.0058	1109.5059	1128.814	1149.1443	1229.7055	1261.7035	1279.71	1319.3207	1334.2387	1353.2752	1394.292	1408.3439	1419.419	1425.744	1481.2115	1488.6317	1495.2723	1500.6432	1502.389	3004.6402	3017.9378	3036.9661	3074.6097	3095.3963	3099.1545	3120.566	3124.9676	3134.3956	3152.0908	3174.6784	3231.6134
CC1C2OC2C2CC12C	C[C@H]1[C@H]2O[C@H]2[C@H]2C[C@@]12C	
InChI=1S/C8H12O/c1-4-6-7(9-6)5-3-8(4,5)2/h4-7H,3H2,1-2H3	InChI=1S/C8H12O/c1-4-6-7(9-6)5-3-8(4,5)2/h4-7H,3H2,1-2H3/t4-,5+,6+,7-,8-/m0/s1
