21
gdb 121244	2.89274	0.86053	0.71517	3.202	75.85	-0.2481	0.0692	0.3174	1620.2602	0.180601	-461.322057	-461.311754	-461.31081	-461.358563	35.839	
C	-0.0167794224	 1.4075584881	-0.298475713	-0.239192
O	-0.1355631339	 0.203776208	 0.4283856595	-0.236084
C	-1.305363103	-0.5078568209	 0.1340408053	 0.064711
C	-1.2942488018	-1.3821234848	-1.1428630635	-0.098355
O	-1.403043193	-2.5895006487	-0.3643184627	-0.294886
C	-1.4110677176	-1.8540417072	 0.8885024381	 0.090766
C	-0.2721652622	-2.2471455559	 1.812493167	-0.206802
C	-0.3733521857	-3.7096961981	 2.2525071232	-0.066983
O	 0.6665035285	-4.0844026522	 3.143964754	-0.421526
H	 0.9076295717	 1.891122751	 0.0248168824	 0.13307
H	 0.0372613463	 1.2311760573	-1.3832920995	 0.110434
H	-0.8631470043	 2.0834021002	-0.1004071419	 0.109258
H	-2.1859359695	 0.1427343797	 0.2318363015	 0.07344
H	-2.1417537944	-1.2561878084	-1.8276223753	 0.09997
H	-0.3555212665	-1.3353806448	-1.7095313933	 0.103511
H	-2.3764769484	-1.9891328016	 1.396835788	 0.07575
H	 0.6809598532	-2.0743445254	 1.3001371382	 0.099021
H	-0.283368967	-1.5991575442	 2.6965965761	 0.109869
H	-1.3063415542	-3.8726304115	 2.8042611804	 0.105955
H	-0.401207067	-4.3600957221	 1.3665978234	 0.108334
H	 1.4980520411	-4.0218492787	 2.6634499121	 0.279739
60.1349	77.889	97.7777	106.7725	112.9132	198.9522	228.957	293.3363	312.5474	355.8727	428.0374	499.8227	540.5063	768.846	806.6213	859.5146	885.4158	935.9066	1008.5239	1027.3397	1046.1248	1074.0744	1085.6745	1089.2156	1116.9692	1162.8009	1176.6995	1184.5763	1193.9288	1229.5207	1263.8326	1273.1309	1302.6272	1310.773	1350.9735	1381.9765	1399.8656	1411.5378	1422.0353	1474.2387	1483.3999	1489.52	1508.7801	1512.6323	1515.2787	2977.0332	2991.8364	3004.0681	3006.23	3014.3774	3026.6126	3040.5453	3059.8922	3060.1199	3090.869	3120.9469	3816.1523
COC1COC1CCO	CO[C@H]1CO[C@H]1CCO	
InChI=1S/C6H12O3/c1-8-6-4-9-5(6)2-3-7/h5-7H,2-4H2,1H3	InChI=1S/C6H12O3/c1-8-6-4-9-5(6)2-3-7/h5-7H,2-4H2,1H3/t5-,6-/m0/s1
