20
gdb 68903	2.62391	1.51626	1.16476	3.2324	80.51	-0.2416	0.0285	0.2701	1132.6833	0.170425	-403.171423	-403.16266	-403.161716	-403.204381	34.115	
C	-0.1283994029	 1.5141809336	 0.0391015628	-0.482969
C	 0.0194371557	 0.0128761931	-0.0182105066	 0.263616
C	 1.375364487	-0.6174154675	-0.3162553269	-0.389783
C	 0.7293384581	-0.8080058043	 1.0310915781	 0.391624
C	 1.3139755576	-0.3286565492	 2.3271544291	-0.470846
O	 0.0450285786	-2.0502898478	 1.1799764051	-0.268672
C	-1.0024332436	-2.1413929401	 0.301748941	 0.38638
N	-1.709940978	-3.1735268823	 0.1384288297	-0.537859
C	-1.181992478	-0.8223842425	-0.4293808287	-0.369246
H	 0.769149407	 1.9939273737	 0.4403583545	 0.118611
H	-0.2994917084	 1.9275144446	-0.9613697065	 0.126354
H	-0.9764010991	 1.8069459926	 0.6687475477	 0.121287
H	 1.4287309156	-1.4739925516	-0.9814422391	 0.122012
H	 2.2258567253	 0.0544543526	-0.3740348924	 0.114208
H	 1.8137657754	 0.6337037285	 2.1920105274	 0.123405
H	 0.5348378751	-0.2122759416	 3.0871672625	 0.128957
H	 2.0531547137	-1.0429480087	 2.703658584	 0.134736
H	-1.3871577578	-3.9274457302	 0.7475462819	 0.220943
H	-2.1166418224	-0.3531795135	-0.1014507581	 0.130956
H	-1.2675176388	-0.9919012496	-1.5060564954	 0.136286
93.0394	183.6084	189.9492	203.5039	226.3285	295.9526	348.8944	412.0246	460.2413	488.8596	525.3352	564.5291	609.5939	721.5744	746.9676	858.2458	890.6012	900.942	915.4053	945.419	956.1475	993.2345	1002.4248	1044.2348	1088.9202	1102.4138	1121.7689	1167.1874	1206.6694	1232.5845	1246.5028	1327.1191	1346.038	1397.4569	1417.2962	1429.4075	1469.4459	1476.6555	1488.7663	1493.3362	1496.2812	1513.4178	1776.1028	3026.3638	3040.6039	3047.9572	3085.6486	3095.7175	3103.7633	3104.6771	3121.2057	3125.6216	3211.0506	3470.7744
CC12CC1(C)OC(=N)C2	C[C@@]12C[C@]1(C)O[C]([NH])C2	
InChI=1S/C7H11NO/c1-6-3-5(8)9-7(6,2)4-6/h8H,3-4H2,1-2H3	InChI=1S/C7H11NO/c1-6-3-5(8)9-7(6,2)4-6/h8H,3-4H2,1-2H3/t6-,7+/m1/s1
