14
gdb 131679	2.71486	1.489	0.96733	3.2353	69.61	-0.2601	-0.0918	0.1683	1119.6835	0.099493	-469.954156	-469.945928	-469.944984	-469.987322	29.523	
O	-0.0075864598	 1.399841661	-0.0336622703	-0.419256
C	-0.012571681	-0.0108905504	-0.0965795938	-0.162117
C	-1.4193401322	-0.5035390305	 0.0192911237	 0.175808
C	-2.4798354363	 0.306380513	 0.1597160427	-0.064694
N	-3.7818721042	-0.1966579254	 0.2648396694	-0.097731
N	-4.0579436287	-1.3853247292	 0.2385236395	 0.041799
O	-2.9392086617	-2.3569019678	 0.0851363089	-0.295426
C	-1.6421609086	-1.9480773427	-0.0237581845	 0.38482
N	-0.6744668134	-2.7626176436	-0.155292661	-0.534247
H	 0.9016764911	 1.7011599263	-0.1093265581	 0.300804
H	 0.4085998509	-0.3943389631	-1.0386850981	 0.136735
H	 0.5799707572	-0.4728497233	 0.7080740291	 0.136735
H	-2.4015563964	 1.3823743039	 0.2003834165	 0.164287
H	-1.008014717	-3.7274309782	-0.165918034	 0.232481
87.0271	119.2692	190.0734	204.581	211.1772	303.1875	366.1393	427.7546	510.8398	577.0895	593.3263	651.2554	748.9069	806.5836	869.6057	910.17	921.2339	1030.931	1031.6566	1082.2828	1103.3094	1188.8984	1223.8213	1239.3085	1298.644	1406.2295	1466.9601	1482.9646	1619.931	1680.8574	1723.6697	2990.0052	3011.376	3257.922	3485.4919	3849.7385
OCC1=CN=NOC1=N	OCC1=C(O[N]N=C1)[NH]	
InChI=1S/C4H5N3O2/c5-4-3(2-8)1-6-7-9-4/h1,5,8H,2H2	InChI=1S/C4H5N3O2/c5-4-3(2-8)1-6-7-9-4/h1,5,8H,2H2
