21
gdb 89632	4.09052	1.05259	0.97108	2.238	83.01	-0.2277	0.0678	0.2955	1302.8949	0.18345	-383.197622	-383.189003	-383.188059	-383.231192	33.284	
C	-0.2238263011	 1.5762496627	 0.0961785221	-0.403911
C	 0.0535109623	 0.083765876	 0.1108592294	 0.093085
C	 0.9783331223	-0.559366997	-0.9630715014	-0.36953
C	 1.8060117052	-1.0948668558	 0.2114596436	 0.381732
C	 2.2709148217	 0.0380562761	 1.0371454779	-0.294817
N	 0.8925386362	-0.4488967418	 1.2522052201	-0.187135
C	 2.3370219236	-2.4743920992	 0.3664412717	-0.097795
C	 1.7921396448	-3.6249467422	-0.3956298814	-0.249469
N	 3.1282976371	-3.0908553174	-0.7186203719	-0.326124
H	 0.689306671	 2.1731868735	 0.011900496	 0.116906
H	-0.8652928611	 1.832662724	-0.7539235916	 0.119087
H	-0.7411082699	 1.8748482054	 1.0137963417	 0.129979
H	-0.8974098312	-0.4543992269	 0.1584939189	 0.087776
H	 0.4729753283	-1.3223455821	-1.557526067	 0.110958
H	 1.5058926356	 0.1190288505	-1.6408990803	 0.102168
H	 2.9214520924	-0.1864021908	 1.8771800185	 0.122431
H	 2.4449913126	 1.0117365075	 0.5854449903	 0.108398
H	 2.7402509823	-2.6723306762	 1.3575127571	 0.092861
H	 1.7937714583	-4.6135451197	 0.0546705699	 0.12189
H	 0.9760526393	-3.4503166083	-1.0908026961	 0.11014
H	 3.0670490102	-2.5086756384	-1.5520373276	 0.231371
49.6755	119.2068	168.8334	215.05	260.9927	297.6978	378.3808	426.0163	466.9	537.0145	629.8646	700.7809	795.5784	806.9452	834.1091	853.7275	866.8634	905.8494	957.1157	963.3486	966.6173	986.7249	1074.1174	1096.857	1102.096	1113.0461	1127.6074	1128.6768	1144.9598	1173.4278	1204.0183	1245.3837	1254.4507	1284.3405	1294.9948	1316.2981	1337.8515	1385.9385	1409.9389	1450.5802	1483.9264	1490.6817	1496.0145	1507.3999	1519.2348	3034.5438	3050.6252	3057.9516	3101.8104	3106.3123	3111.1822	3112.9366	3117.7033	3128.1477	3195.6102	3196.9531	3482.4892
CC1CC2(CN12)C1CN1	C[C@H]1C[C@]2(CN12)[C@H]1CN1	
InChI=1S/C7H12N2/c1-5-2-7(4-9(5)7)6-3-8-6/h5-6,8H,2-4H2,1H3	InChI=1S/C7H12N2/c1-5-2-7(4-9(5)7)6-3-8-6/h5-6,8H,2-4H2,1H3/t5-,6+,7-,9?/m0/s1
