25
gdb 110876	2.54396	1.12646	1.01169	0.1825	92.08	-0.2534	0.0769	0.3303	1385.1052	0.230248	-352.366055	-352.356578	-352.355633	-352.400533	36.936	
C	-0.160768027	 1.4905713588	 0.0753321708	-0.373819
C	 0.2326058281	 0.0213237581	-0.1237731315	-0.205404
C	 0.8050444266	-0.5961051283	 1.1353178334	 0.015058
C	-0.0310944035	-1.190272889	 2.2504528971	-0.058699
C	-1.4772272827	-1.598992977	 1.9658945033	-0.250206
C	-1.3918000018	-3.0069995824	 1.3176241757	 0.077825
C	-2.5700973644	-3.3691898591	 0.4155972877	-0.408049
C	-0.0067818857	-3.0405541546	 0.6177729371	-0.248457
C	 0.8771904946	-2.0808975811	 1.4152194023	-0.081666
H	 0.7001004316	 2.0893187363	 0.3929101524	 0.11212
H	-0.5486094753	 1.9286696469	-0.8497873316	 0.107543
H	-0.9318523662	 1.5904660787	 0.8464798293	 0.119273
H	-0.6389680902	-0.540595542	-0.4738283052	 0.097581
H	 0.9771289446	-0.0522640388	-0.9277126226	 0.093783
H	 1.6745257971	-0.0496855212	 1.4993262573	 0.073559
H	 0.2329614819	-0.9325658162	 3.2704668735	 0.074918
H	-2.0710113362	-1.6180413705	 2.8848064428	 0.093595
H	-1.9796787417	-0.8948782685	 1.2904591556	 0.095529
H	-1.3494171843	-3.733459372	 2.1402752118	 0.069809
H	-2.6533638389	-2.6678034283	-0.4235058115	 0.111351
H	-2.4573370169	-4.3748388791	-0.0039625047	 0.110495
H	-3.518218611	-3.3436915281	 0.9637701244	 0.110215
H	 0.412692774	-4.0512569065	 0.6127290317	 0.093307
H	-0.0966649511	-2.7399028936	-0.4337781252	 0.094922
H	 1.8033537682	-2.4667546023	 1.8277197763	 0.075417
55.9359	75.7895	168.2271	212.3729	234.4122	273.8273	299.2899	307.3732	413.8846	486.0369	518.4601	552.7315	683.2535	737.863	777.7109	802.1314	821.6145	877.8416	881.8445	926.0331	935.5118	958.1297	986.4405	1009.6256	1043.2865	1062.5712	1063.9751	1100.3719	1110.4721	1132.3579	1158.0128	1159.7597	1193.9834	1235.6612	1255.3659	1287.6927	1290.7982	1303.0913	1331.9556	1335.2528	1358.0149	1365.383	1383.3882	1407.3342	1408.139	1445.6969	1479.3236	1494.9638	1495.9223	1497.3624	1500.0104	1504.8541	1512.8511	3005.4654	3019.3102	3020.7807	3022.9335	3029.4164	3030.1589	3067.0495	3073.8692	3076.73	3088.023	3092.5286	3097.5351	3102.7869	3108.6472	3153.2786	3164.5989
CCC1C2CC(C)CC12	CC[C@H]1[C@H]2C[C@@H](C)C[C@@H]12	
InChI=1S/C9H16/c1-3-7-8-4-6(2)5-9(7)8/h6-9H,3-5H2,1-2H3	InChI=1S/C9H16/c1-3-7-8-4-6(2)5-9(7)8/h6-9H,3-5H2,1-2H3/t6-,7+,8-,9+
