16
gdb 5627	3.17436	1.92857	1.21802	0.9932	67.15	-0.206	0.031	0.2369	972.3897	0.130271	-383.758312	-383.750417	-383.749473	-383.790638	28.555	
C	 0.0232495893	 1.3728137538	-0.0335137822	-0.249928
O	 0.0159316842	-0.042708514	-0.0240003493	-0.256932
C	-1.2123438304	-0.6091085506	 0.0059624144	 0.245656
C	-2.4517898907	-0.0398535584	 0.0283378331	-0.156834
O	-3.4008509735	-1.0252980895	 0.0553662906	-0.155313
C	-2.741085095	-2.2106391125	 0.0494241777	-0.074707
C	-1.3936404634	-2.0366895971	 0.0198898954	 0.118018
C	-0.311855915	-3.0680632177	 0.0040799435	-0.50036
H	 1.0685843637	 1.6842456807	-0.0576684364	 0.134891
H	-0.4962722778	 1.7644592117	-0.9186610021	 0.122212
H	-0.4585319076	 1.7762651886	 0.8675351035	 0.122212
H	-2.8160140854	 0.9716088771	 0.0291308158	 0.129851
H	-3.3599801129	-3.0932838079	 0.0687779185	 0.132325
H	 0.3111622361	-2.9798972511	-0.8928685416	 0.133462
H	 0.3561597848	-2.9592172122	 0.8656133995	 0.133529
H	-0.7317592364	-4.0772371308	 0.0265810195	 0.121918
99.479	128.3175	183.8837	212.982	257.506	291.292	365.1554	518.6921	603.685	606.7528	647.3445	709.8025	739.4128	764.6281	891.9371	1012.0895	1067.2907	1067.9277	1076.8685	1182.8673	1187.6777	1212.1533	1229.3606	1260.4454	1331.2871	1412.6251	1422.1775	1475.5639	1479.1453	1485.2655	1498.0115	1509.032	1599.6379	1669.0507	2998.3167	3032.5192	3054.0109	3083.334	3114.2459	3136.6529	3268.0263	3296.0514
COC1=COC=C1C	COc1cocc1C	
InChI=1S/C6H8O2/c1-5-3-8-4-6(5)7-2/h3-4H,1-2H3	InChI=1S/C6H8O2/c1-5-3-8-4-6(5)7-2/h3-4H,1-2H3
