16
gdb 51071	3.68473	1.343	1.19126	2.6607	69.12	-0.2381	0.0115	0.2496	1036.8578	0.124849	-437.832964	-437.825611	-437.824667	-437.865456	27.934	
O	 0.4000158824	 1.8705642017	 1.5244860158	-0.30422
C	 0.1453417925	 1.7947718247	 0.3450386294	 0.131341
N	 1.0258780477	 1.3833885427	-0.6220788125	-0.456689
C	 2.3180664916	 0.9344156413	-0.314933387	 0.38976
C	 3.4824110327	 1.6079041726	 0.3995494486	-0.124087
C	 3.6535715833	 0.4217045834	 1.3460350026	-0.229604
C	 2.9827375868	-0.41210538	 0.227767793	 0.016272
O	 3.9453633303	-0.3794754116	-0.8654783383	-0.287892
C	 3.6353926573	 1.0011835891	-1.0111088009	-0.009321
H	-0.8392299011	 2.0629643113	-0.086585122	 0.080734
H	 0.6651014985	 1.2386192505	-1.5540596644	 0.253806
H	 3.6106965568	 2.6648866729	 0.5908642668	 0.101877
H	 4.6614139673	 0.1131843518	 1.6376905825	 0.101003
H	 2.9981161502	 0.5270076635	 2.2124941608	 0.131039
H	 2.5350825022	-1.3907999331	 0.3840887926	 0.092155
H	 3.9752849816	 1.5358275093	-1.888296577	 0.113826
51.3477	117.7502	214.6136	279.6596	375.0938	450.3483	532.1923	555.0057	584.3316	744.6808	766.3279	815.2324	822.8733	885.6571	922.5682	950.4932	971.0243	990.5518	1029.0286	1031.8331	1042.5666	1080.304	1105.6209	1125.7308	1147.0445	1167.7607	1218.352	1248.4858	1272.2028	1315.2742	1422.0595	1448.7799	1478.1325	1515.5955	1812.886	2940.6433	3061.3244	3135.1969	3152.9249	3207.8219	3217.1472	3596.1132
O=CNC12C3CC1OC23	O=CN[C@@]12[C@H]3C[C@@H]1O[C@@H]23	
InChI=1S/C6H7NO2/c8-2-7-6-3-1-4(6)9-5(3)6/h2-5H,1H2,(H,7,8)	InChI=1S/C6H7NO2/c8-2-7-6-3-1-4(6)9-5(3)6/h2-5H,1H2,(H,7,8)/t3-,4-,5+,6-/m0/s1
