17
gdb 74553	3.76458	1.23356	1.19496	2.5982	68.93	-0.2159	0.0497	0.2656	1083.8641	0.135803	-455.143571	-455.135184	-455.13424	-455.176016	32.581	
C	-0.1132804227	 1.5959592286	 0.0153463651	-0.46381
C	 0.0351770474	 0.096857315	 0.0492251777	 0.320166
O	-1.0785496386	-0.6258087975	-0.4161272908	-0.454717
C	 1.3381238988	-0.6282498298	-0.2194755528	-0.0327
O	 2.5501457434	 0.098378591	-0.0571702136	-0.243264
C	 2.585287785	 0.4373625877	 1.2677867139	 0.450802
N	 3.6401599587	 1.2374623457	 1.6102811992	-0.579291
N	 1.6344143494	 0.0441064581	 2.0287962225	-0.346667
C	 0.7157603544	-0.662465713	 1.1727976049	-0.064361
H	 0.7317231284	 2.1044237118	 0.4821687012	 0.145047
H	-0.1916268268	 1.9542882518	-1.0184267105	 0.106921
H	-1.0241777695	 1.8848973713	 0.5483468347	 0.131032
H	-1.1628722713	-0.4607166321	-1.3627434327	 0.281954
H	 1.4096048456	-1.4416744621	-0.9307198115	 0.108528
H	 4.4704187168	 1.1142910485	 1.0504654034	 0.264077
H	 3.8042020836	 1.2860067793	 2.6041467426	 0.270675
H	 0.1988600275	-1.5206604445	 1.5861888765	 0.105609
134.8923	143.6949	184.9044	276.9515	297.3487	332.2798	378.8614	391.2054	447.2471	499.899	506.1342	565.0422	693.6864	739.7887	746.1144	773.8347	856.0963	905.1569	924.9581	973.9731	1026.7432	1031.4744	1067.4028	1076.5127	1102.1981	1185.6115	1204.4849	1260.9655	1290.1872	1313.505	1409.5017	1421.6525	1424.3034	1481.4892	1499.3034	1613.2704	1734.3451	3030.2737	3095.8183	3139.8317	3179.5289	3191.8287	3582.8355	3696.5252	3779.0101
CC1(O)C2OC(N)=NC12	C[C@@]1(O)[C@H]2OC(=N[C@@H]12)N	
InChI=1S/C5H8N2O2/c1-5(8)2-3(5)9-4(6)7-2/h2-3,8H,1H3,(H2,6,7)	InChI=1S/C5H8N2O2/c1-5(8)2-3(5)9-4(6)7-2/h2-3,8H,1H3,(H2,6,7)/t2-,3+,5+/m1/s1
