18
gdb 51116	4.13838	1.00073	0.94194	1.4229	76.07	-0.2263	-0.0242	0.2021	1267.8139	0.146325	-401.86267	-401.854522	-401.853578	-401.896421	30.667	
O	 0.3436235592	-0.2533273231	-0.0784229934	-0.237308
C	 0.1348099236	 0.923688402	-0.2166446827	 0.168431
C	 1.1712536977	 2.0144845807	-0.0180026711	-0.394906
C	 1.2136365972	 2.9672663073	-1.1848802502	 0.330774
C	 1.948889996	 2.6953322719	-2.4733301887	-0.354614
C	 2.3010847628	 3.9066621172	-1.6532630463	-0.066075
N	 1.368383086	 5.103928031	-1.7012673969	-0.13666
C	 0.2506225749	 4.8525945277	-2.6329144162	-0.250355
C	 0.2506492315	 4.17195059	-1.3217073664	-0.092123
H	-0.8726481115	 1.2952353339	-0.5173374772	 0.076684
H	 0.9077110227	 2.5647426974	 0.8982097265	 0.124971
H	 2.1424006042	 1.538746822	 0.146714392	 0.125352
H	 2.6909764227	 1.9064802689	-2.3860649419	 0.12664
H	 1.4816668935	 2.7307031504	-3.4507822585	 0.119028
H	 3.2953788085	 4.0833038208	-1.2625998353	 0.109344
H	-0.3924009196	 5.7234616759	-2.725944493	 0.127554
H	 0.4039970344	 4.321065594	-3.5643478695	 0.123892
H	-0.4363782039	 4.441010672	-0.5241092813	 0.09937
49.5359	62.5348	141.755	254.2184	308.8325	377.7708	452.3798	471.1723	537.4254	654.3783	686.6526	756.7077	769.3639	808.0014	861.7729	896.888	932.9483	978.1668	986.243	1011.0866	1038.1761	1048.527	1065.6256	1076.844	1105.5192	1112.76	1136.9138	1174.8671	1219.8489	1248.2066	1266.2942	1304.6947	1337.6244	1401.2308	1430.6679	1450.7934	1480.903	1521.7923	1835.4724	2860.1718	3001.1011	3094.398	3124.9238	3135.1149	3146.601	3190.0806	3204.2138	3218.0788
O=CCC12CC1N1CC21	O=CC[C@]12C[C@H]1N1C[C@@H]21	
InChI=1S/C7H9NO/c9-2-1-7-3-5(7)8-4-6(7)8/h2,5-6H,1,3-4H2	InChI=1S/C7H9NO/c9-2-1-7-3-5(7)8-4-6(7)8/h2,5-6H,1,3-4H2/t5-,6+,7+,8?/m1/s1
