15
gdb 93332	2.33828	1.6806	1.12173	5.212	67.04	-0.26	0.0087	0.2688	1057.6741	0.111256	-457.760159	-457.751792	-457.750848	-457.793281	30.783	
O	-0.1031394318	 1.4907047137	 0.7093374923	-0.413158
C	-0.004148763	 0.2078771133	 0.1318899647	 0.086628
C	 0.7483561872	-0.7814900534	 1.0389299783	-0.104884
O	-0.2092089723	-1.23745745	 2.0021694621	-0.223816
C	-1.4814698304	-1.0245623292	 1.5669366757	 0.467378
O	-2.4435472046	-1.316020431	 2.2050757842	-0.323658
C	-1.4101773793	-0.4180680426	 0.1465351032	-0.383666
C	-2.5182819621	 0.4452456548	-0.2059040499	 0.357663
C	-3.4450066439	 1.1396984694	-0.5201499685	-0.427511
H	 0.770028814	 1.8952025332	 0.715668978	 0.292999
H	 0.4261497436	 0.2446249666	-0.8767326174	 0.089879
H	 1.1339806552	-1.6392424335	 0.4738711705	 0.116892
H	 1.5728584754	-0.3081043577	 1.57791094	 0.121999
H	-1.3914857609	-1.2839576597	-0.5323193944	 0.142716
H	-4.2655872869	 1.761622066	-0.7798922688	 0.200539
80.949	131.9848	171.7128	184.6227	254.1696	346.8269	381.4086	401.7302	514.1507	530.2825	627.3136	637.5248	653.3723	724.0844	770.7886	850.1375	875.2342	956.8839	1004.764	1063.0454	1072.6742	1138.8469	1142.4956	1189.0349	1234.9444	1271.626	1296.363	1348.0644	1389.7708	1430.1256	1504.7937	1902.8502	2254.1143	3004.3678	3023.5422	3038.4793	3103.1329	3505.2989	3824.3426
OC1COC(=O)C1C#C	O[C@H]1COC(=O)[C@H]1C#C	
InChI=1S/C6H6O3/c1-2-4-5(7)3-9-6(4)8/h1,4-5,7H,3H2	InChI=1S/C6H6O3/c1-2-4-5(7)3-9-6(4)8/h1,4-5,7H,3H2/t4-,5-/m0/s1
