20
gdb 98847	2.59305	1.21686	1.02965	2.6341	75.91	-0.234	0.0303	0.2643	1267.4161	0.170416	-440.304297	-440.294453	-440.293509	-440.340018	34.642	
C	-0.9212911625	 1.4941935354	 0.5664822766	-0.333003
N	-1.0173750724	 0.0645450209	 0.3626187337	-0.303054
C	-0.0598137807	-0.6544399476	-0.2710796702	 0.363198
O	 0.950949441	-0.1956213512	-0.7793447535	-0.394858
C	-0.3414718662	-2.1517726028	-0.3261424194	 0.030744
O	-1.5828868293	-2.5496697965	 0.3024169574	-0.303911
C	-2.0907533343	-3.0994072355	-0.9376047756	-0.082249
C	-0.7962233873	-2.7317441852	-1.6981235153	-0.034513
C	-0.9166652158	-1.7837974706	-2.8818832119	-0.41016
H	-0.8472992292	 1.7439282052	 1.631141468	 0.127184
H	-0.0187628469	 1.8372332139	 0.0580713795	 0.167475
H	-1.7891604365	 2.0147401595	 0.1469641366	 0.12447
H	-1.7795484703	-0.4680872212	 0.7554708761	 0.259555
H	 0.519168254	-2.6633489406	 0.1193533624	 0.107737
H	-2.3111103449	-4.168200469	-0.8411835413	 0.108652
H	-2.9944640535	-2.5750682922	-1.2731375645	 0.102626
H	-0.2094496797	-3.60998084	-1.9763496346	 0.088946
H	-1.5431648512	-0.9198994777	-2.6364698579	 0.121144
H	 0.0651792531	-1.4065797587	-3.1786950995	 0.148292
H	-1.3675967375	-2.2950877362	-3.7388290967	 0.111727
46.5725	74.0799	100.6489	125.285	185.8291	216.939	228.7342	325.6983	348.3559	399.3036	490.7965	585.098	644.992	732.3251	790.3703	851.5006	884.4463	924.4492	926.1946	1003.3779	1034.5252	1059.5106	1120.7782	1128.797	1154.1843	1158.7803	1180.3228	1187.1093	1247.4756	1254.7917	1277.304	1336.8432	1346.3101	1382.2278	1416.0565	1439.7856	1491.4244	1495.0795	1497.9881	1500.2552	1524.3273	1570.5912	1776.2396	3017.1742	3026.6938	3036.3443	3045.7119	3063.9846	3078.4508	3082.1298	3104.4318	3124.5347	3146.3223	3612.417
CNC(=O)C1OCC1C	CNC(=O)[C@H]1OC[C@H]1C	
InChI=1S/C6H11NO2/c1-4-3-9-5(4)6(8)7-2/h4-5H,3H2,1-2H3,(H,7,8)	InChI=1S/C6H11NO2/c1-4-3-9-5(4)6(8)7-2/h4-5H,3H2,1-2H3,(H,7,8)/t4-,5+/m1/s1
