18
gdb 12690	2.9946	1.94898	1.33751	2.7125	67.11	-0.2507	-0.0278	0.2229	946.1105	0.153838	-384.977338	-384.969313	-384.968368	-385.009786	30.163	
C	-0.088581969	 1.5718750381	 0.0437540705	-0.391257
C	 0.0480732323	 0.0427782373	-0.000019921	-0.091271
C	 0.8170803744	-0.5071208276	-1.2328764403	-0.238019
C	 2.2340638996	-0.8603825315	-0.7179719573	-0.243344
C	 1.9586712056	-1.4093438121	 0.687179826	 0.072875
O	 3.0527628167	-1.4651540931	 1.5558111892	-0.44421
C	 0.873507527	-0.4588005518	 1.1858293234	 0.367943
O	 0.7944017493	-0.1040558311	 2.3379272117	-0.341466
H	 0.8836157443	 2.0590043465	-0.0861883481	 0.122954
H	-0.7509797261	 1.9213954092	-0.7532107616	 0.118678
H	-0.4966355165	 1.8891816094	 1.006652746	 0.140472
H	-0.9547174775	-0.3949664383	 0.0723749951	 0.106311
H	 0.3274736508	-1.4084973428	-1.616020225	 0.106958
H	 0.8438399268	 0.2144929916	-2.0530700371	 0.108599
H	 2.7604574388	-1.568215724	-1.3613358068	 0.111364
H	 2.8563013539	 0.0375364067	-0.6266715153	 0.114425
H	 1.4857353637	-2.4057415118	 0.5823228389	 0.088559
H	 2.7375626459	-1.0924190046	 2.3936896915	 0.290429
59.6537	163.0572	215.5331	224.1319	292.2874	337.425	391.6078	419.4608	495.4346	581.6582	591.6392	677.8214	779.9045	823.3446	889.7859	949.1307	959.9177	999.7344	1027.0055	1047.1861	1116.4829	1124.6748	1170.5923	1187.3253	1220.143	1260.5289	1285.0102	1304.3186	1327.1507	1336.8703	1378.3137	1405.2613	1421.1512	1490.2496	1497.0989	1498.6214	1504.7437	1829.4772	2913.908	3033.6648	3039.8884	3047.7877	3054.104	3099.4845	3108.5002	3114.3509	3126.7043	3704.9092
CC1CCC(O)C1=O	C[C@H]1CC[C@@H](O)C1=O	
InChI=1S/C6H10O2/c1-4-2-3-5(7)6(4)8/h4-5,7H,2-3H2,1H3	InChI=1S/C6H10O2/c1-4-2-3-5(7)6(4)8/h4-5,7H,2-3H2,1H3/t4-,5+/m0/s1
