12
gdb 25046	5.7505	1.06118	0.89586	2.4593	74.14	-0.2627	-0.0985	0.1642	1170.8965	0.078917	-431.700161	-431.693053	-431.692109	-431.732383	25.839	
N	-0.0243138691	 1.3229471655	 0.0105434634	-0.493626
C	-0.055048614	 0.0655657879	 0.0026165033	 0.44468
O	 1.1948831025	-0.6544530515	-0.0083221139	-0.214569
C	 1.2110014284	-1.9760625809	-0.0155371726	 0.0533
C	 0.0720342419	-2.7155080975	-0.0129545115	 0.006705
C	-1.1657257	-1.9583330738	-0.0014423297	-0.010521
N	-1.2206185827	-0.6730525197	 0.0059409997	-0.250322
C	 0.0960893648	-4.1346406163	-0.0208508792	 0.20833
N	 0.0941927545	-5.2928156575	-0.0271559014	-0.316775
H	 0.9332349597	 1.6706349531	 0.0070610469	 0.241479
H	 2.2130541568	-2.3922314327	-0.0236507053	 0.17522
H	-2.1087108729	-2.5027270467	 0.0012053903	 0.156098
54.0825	149.794	191.7294	365.373	434.2915	451.5663	466.7513	549.0761	561.7368	644.6531	698.9586	734.1266	770.5602	862.5178	950.733	959.6623	998.0515	1019.3863	1170.9902	1244.931	1298.2357	1374.4239	1425.6861	1575.9106	1703.2558	1765.1026	2344.8	3151.8602	3202.1347	3520.3715
N=C1OC=C(C=N1)C#N	[NH]C1=NC=C(CO1)C#N	
InChI=1S/C5H3N3O/c6-1-4-2-8-5(7)9-3-4/h2-3,7H	InChI=1S/C5H4N3O/c6-1-4-2-8-5(7)9-3-4/h2,7H,3H2
