18
gdb 68575	2.34709	1.87117	1.50989	3.1412	76.48	-0.229	-0.0148	0.2142	966.4935	0.148605	-401.95187	-401.944148	-401.943204	-401.983648	30.566	
C	 0.0323330397	 1.5711408861	 0.0316359677	-0.46613
C	 0.014241971	 0.0583345961	 0.026589989	 0.171687
C	 0.6553745652	-0.5819613875	-1.2350073879	-0.298688
C	 0.625010608	-2.0912040477	-1.1228340271	-0.075625
C	 0.0589370382	-2.6673370299	-0.0585444887	-0.065175
C	-0.4590541376	-1.7484076896	 1.0378915026	-0.173002
N	 0.4969113526	-0.6229564218	 1.2806605202	-0.339556
C	-1.3105553088	-0.6915475826	 0.3022349364	 0.443132
O	-2.4659103853	-0.4893127611	 0.0907775292	-0.320303
H	 1.0570066269	 1.9505008543	-0.052862578	 0.116536
H	-0.5433169115	 1.961527563	-0.8138560123	 0.129604
H	-0.4021377651	 1.9552073288	 0.9573922638	 0.134065
H	 0.0996392652	-0.2593295898	-2.1262168113	 0.127395
H	 1.6821811698	-0.2102648285	-1.3717249016	 0.107829
H	 1.0581049102	-2.6778936625	-1.9275377917	 0.102435
H	-0.0413939598	-3.7427416559	 0.0435891318	 0.103298
H	-0.841955138	-2.2570550266	 1.9232147702	 0.090145
H	 1.4660892693	-0.9309180647	 1.2100566077	 0.212353
147.4421	170.8454	203.1877	241.2325	311.0133	378.2485	459.9816	473.3459	526.0555	610.0076	673.5978	698.2157	747.676	799.5407	867.116	893.4482	899.506	940.1277	967.6248	984.0732	990.4703	1029.3447	1053.3904	1109.6955	1140.0239	1185.4465	1190.3689	1237.0484	1258.9744	1288.6701	1336.4771	1360.9663	1382.7096	1406.2888	1472.2442	1483.9853	1490.7451	1682.0842	1917.5623	2993.2931	3030.7095	3034.433	3100.329	3109.5893	3127.8597	3167.6102	3192.7829	3464.5458
CC12CC=CC(N1)C2=O	C[C@@]12CC=C[C@@H](N1)C2=O	
InChI=1S/C7H9NO/c1-7-4-2-3-5(8-7)6(7)9/h2-3,5,8H,4H2,1H3	InChI=1S/C7H9NO/c1-7-4-2-3-5(8-7)6(7)9/h2-3,5,8H,4H2,1H3/t5-,7+/m1/s1
