20
gdb 110957	2.24172	1.39749	1.28089	2.0652	81.2	-0.2406	0.0082	0.2488	1158.3548	0.16913	-403.104323	-403.095078	-403.094134	-403.13832	34.421	
C	-0.0475165813	 1.5710516502	 0.0058442717	-0.379233
C	 0.0423628188	 0.049731574	-0.0933804101	-0.148173
N	-1.2943343563	-0.5486448888	 0.0431168655	-0.11828
C	-1.8818548443	-0.7236563849	 1.4392066906	-0.144316
C	-2.804638085	-1.7896900706	 0.7973442499	-0.259662
C	-1.4057956517	-2.0734638097	 0.1774435431	 0.206754
C	-1.0142502151	-3.0254432331	-0.9100103562	-0.524
C	-0.8294530829	-1.8468446745	 1.6047911463	 0.385404
O	 0.0776158942	-2.1837079905	 2.3017823368	-0.326595
H	 0.9316250709	 2.0238537141	-0.1761124544	 0.118304
H	-0.756899958	 1.9650580282	-0.7272581586	 0.126305
H	-0.37865576	 1.8845107851	 1.001246983	 0.120464
H	 0.4090561119	-0.2340804148	-1.0868833469	 0.106678
H	 0.7699832867	-0.3332712228	 0.639980232	 0.111704
H	-2.147529291	 0.1226612876	 2.06861091	 0.098919
H	-3.2327464477	-2.5506303588	 1.4518925334	 0.107827
H	-3.5166733658	-1.3718647118	 0.0837863093	 0.110872
H	-1.5668111994	-2.8167866467	-1.8312083821	 0.13412
H	 0.0570146575	-2.9584944914	-1.1240260195	 0.136125
H	-1.2289924716	-4.0538440607	-0.6039877639	 0.136784
71.1924	134.8348	154.6506	166.421	205.1955	224.8798	268.1548	345.5339	450.5454	472.3752	522.9702	657.583	678.898	728.4374	774.6643	811.6476	833.749	853.757	906.2038	957.0263	992.4556	1012.2587	1026.612	1091.2838	1110.6746	1151.6731	1164.0712	1178.3807	1191.1084	1208.4367	1223.9048	1314.1297	1350.1618	1391.2513	1411.2049	1415.1295	1479.8216	1482.4485	1487.2707	1490.8097	1496.2283	1512.8428	1892.4131	2977.5583	3039.2937	3040.6499	3052.6457	3075.7091	3109.141	3110.2596	3113.6316	3120.6882	3151.0263	3155.7537
CCN1C2CC1(C)C2=O	CCN1[C@H]2C[C@]1(C)C2=O	
InChI=1S/C7H11NO/c1-3-8-5-4-7(8,2)6(5)9/h5H,3-4H2,1-2H3	InChI=1S/C7H11NO/c1-3-8-5-4-7(8,2)6(5)9/h5H,3-4H2,1-2H3/t5-,7+/m0/s1
