20
gdb 64166	2.16638	1.48018	1.35214	3.4957	79.03	-0.2432	0.024	0.2672	1102.6805	0.170273	-399.318601	-399.308887	-399.307943	-399.352391	36.914	
C	-0.5143969603	 1.4790513928	 0.240461527	-0.417087
C	 0.0250506381	 0.070350837	 0.0359779825	 0.286979
C	-1.0502335451	-0.8424548576	-0.5614127876	-0.446307
N	 1.3236614122	 0.0167995462	-0.7008362043	-0.349199
C	 1.8462743873	-1.0330377871	 0.1960276144	-0.216407
C	 0.7886606219	-0.5931484208	 1.2640239336	 0.109425
N	 1.2259575258	 0.3842950819	 2.2539615821	-0.552752
C	 0.0971555673	-1.6809296963	 1.9507638476	 0.273499
N	-0.4344724219	-2.5591622601	 2.4820152702	-0.350656
H	 0.2481983155	 2.1560370175	 0.6266007328	 0.117993
H	-0.8638910433	 1.8780437015	-0.7182651745	 0.113916
H	-1.3580214741	 1.4768027402	 0.9369861371	 0.128572
H	-1.3632300996	-0.4485879676	-1.5348031971	 0.115245
H	-0.6881798243	-1.8643813549	-0.7062952127	 0.125978
H	-1.9344328139	-0.8915029888	 0.0811540968	 0.139511
H	 1.2464312295	-0.249997628	-1.6772564338	 0.217945
H	 1.7011680027	-2.0645121486	-0.1490298872	 0.110912
H	 2.8909795924	-0.9014917582	 0.4980052809	 0.104321
H	 1.7822149134	-0.074982338	 2.9695474058	 0.240919
H	 1.8286419963	 1.0641180889	 1.7994680265	 0.247195
92.4448	140.768	160.7453	199.4354	257.9983	264.6133	285.4347	336.5099	355.2299	372.5219	401.9311	471.6934	543.2142	566.88	614.2008	665.7247	756.956	859.209	927.346	931.4002	940.3625	968.5732	982.084	1003.2151	1020.4864	1082.5021	1131.4775	1185.4873	1196.3873	1238.1858	1251.9443	1312.8714	1349.3269	1372.7038	1405.3132	1421.0213	1470.9913	1479.2326	1498.4144	1500.6135	1514.3776	1649.31	2355.9333	3014.155	3033.1929	3042.2319	3067.1628	3101.2347	3108.705	3115.5244	3141.9787	3490.7092	3517.0654	3574.2797
CC1(C)NCC1(N)C#N	CC1(C)NC[C@]1(N)C#N	
InChI=1S/C6H11N3/c1-5(2)6(8,3-7)4-9-5/h9H,4,8H2,1-2H3	InChI=1S/C6H11N3/c1-5(2)6(8,3-7)4-9-5/h9H,4,8H2,1-2H3/t6-/m1/s1
