15
gdb 34165	3.88692	1.58929	1.39997	3.0803	72.54	-0.2513	0.0094	0.2606	908.0323	0.114785	-379.594952	-379.58875	-379.587806	-379.625466	25.216	
N	 0.0464179948	-1.1190970725	-0.0074065229	-0.341083
C	 0.0214447872	 0.0375461138	 0.0141188075	 0.150925
C	-0.0059366423	 1.4726777124	 0.0493446416	 0.222064
C	-0.4935990127	 2.2981765071	 1.2725366157	-0.281666
C	 0.3274996485	 3.4216174471	 0.625647462	-0.007607
C	 1.292522738	 2.3989505231	-0.0468310028	-0.126951
C	 0.8279186454	 2.9233734493	-1.4256548419	-0.042509
C	-0.4790449036	 2.2686459029	-1.1966260351	-0.101368
N	-0.2717144701	 3.6832356284	-0.7526073615	-0.147634
H	-1.5690848345	 2.43680355	 1.4017339106	 0.125217
H	-0.0330095684	 1.9444165142	 2.1988111137	 0.127817
H	 0.6247318995	 4.3293633126	 1.1455461409	 0.094413
H	 2.2740645623	 2.0857247842	 0.2956179206	 0.100743
H	 1.3324693216	 3.2604643938	-2.3216192433	 0.111539
H	-1.3011111656	 2.0435473735	-1.8626035249	 0.116101
151.8034	164.018	398.9717	474.6472	513.2963	539.5899	573.2881	746.5325	751.4218	785.9852	796.6411	844.4987	873.7524	902.5702	918.2237	941.0449	957.4199	1004.84	1010.8159	1042.7601	1065.1828	1100.1598	1141.2243	1154.8235	1194.8258	1203.3649	1241.5385	1250.0262	1256.7715	1293.1177	1332.5564	1480.151	2348.1391	3067.4819	3133.1656	3147.635	3169.3431	3199.3246	3213.8987
N#CC12CC3C1C1C2N31	N#C[C@@]12C[C@H]3[C@@H]1[C@H]1[C@@H]2N31	
InChI=1S/C7H6N2/c8-2-7-1-3-4(7)5-6(7)9(3)5/h3-6H,1H2	InChI=1S/C7H6N2/c8-2-7-1-3-4(7)5-6(7)9(3)5/h3-6H,1H2/t3-,4+,5-,6-,7-,9?/m0/s1
