21
gdb 60469	3.87032	0.67873	0.6531	3.603	76.55	-0.2588	0.071	0.3298	1796.6971	0.179971	-461.325868	-461.315601	-461.314657	-461.362581	36.392	
C	-0.0882204106	 1.4741608774	 0.1920535073	-0.392001
C	-0.0798357877	-0.0326791944	-0.0820618415	 0.134205
O	-1.3907467266	-0.5325921377	-0.2993369523	-0.439111
C	 0.814068189	-0.4072757927	-1.2645976903	-0.075858
O	 0.2302749668	 0.1643782184	-2.4228570745	-0.265204
C	 0.8557005556	-0.2147178009	-3.6291879141	-0.072304
C	 0.1377792374	 0.4527333304	-4.7687826428	 0.078895
C	 0.1231309972	-0.1403702362	-6.1104732284	-0.180163
O	-1.0272492852	-0.2042534575	-5.2692611208	-0.225899
H	 0.9075522131	 1.8294320341	 0.4797182962	 0.105091
H	-0.4022573641	 2.0231983286	-0.7003843018	 0.124205
H	-0.7849349637	 1.697978752	 1.0035702515	 0.123007
H	 0.2986098472	-0.559890961	 0.8022228327	 0.083264
H	-1.6270522603	-0.2721178844	-1.1984492713	 0.288082
H	 1.8419837606	-0.0356451609	-1.1217178017	 0.086678
H	 0.8536908166	-1.5029539985	-1.3637138069	 0.096933
H	 1.915332082	 0.0943091158	-3.6254143537	 0.092855
H	 0.8229108922	-1.3074353722	-3.7635979065	 0.100005
H	 0.0369835025	 1.5342607136	-4.6738565608	 0.102235
H	 0.037118867	 0.5057755785	-6.9825662673	 0.119593
H	 0.6271918812	-1.0902410024	-6.286162173	 0.115492
41.2274	49.8675	96.6436	121.6829	165.5609	223.2312	248.3019	316.0121	367.3336	402.6638	426.4473	446.5482	479.2888	654.7634	799.0359	831.156	873.5496	931.699	941.8656	962.884	989.0014	1005.6961	1071.9628	1105.6783	1118.4562	1145.6972	1156.5098	1162.8562	1170.12	1179.2938	1258.2602	1272.7025	1293.1824	1305.5009	1363.0614	1367.9567	1398.1057	1415.3175	1433.1574	1466.0424	1488.6413	1494.1155	1501.6628	1519.447	1532.9112	2955.5962	2969.9103	3001.8492	3010.0074	3037.4108	3041.2602	3083.4375	3109.0211	3114.664	3128.2715	3169.7075	3781.859
CC(O)COCC1CO1	C[C@@H](O)COC[C@H]1CO1	
InChI=1S/C6H12O3/c1-5(7)2-8-3-6-4-9-6/h5-7H,2-4H2,1H3	InChI=1S/C6H12O3/c1-5(7)2-8-3-6-4-9-6/h5-7H,2-4H2,1H3/t5-,6+/m1/s1
