13
gdb 29255	3.3175	1.43758	1.0041	3.3628	63.85	-0.2266	-0.0464	0.1802	1069.4949	0.091101	-489.968981	-489.961565	-489.960621	-490.000904	27.964	
N	 0.0152357588	 1.4135747799	 0.1550289006	-0.586406
C	-0.0372470186	 0.0310226318	 0.0494575304	 0.103792
C	-1.1415550959	-0.7344045314	 0.0208265651	-0.004947
O	-1.1229010724	-2.1065388406	-0.0241926287	-0.215262
C	 0.0421151934	-2.8113082266	-0.0272536216	 0.491197
O	 0.0451940294	-4.0086484176	-0.0527605546	-0.363444
N	 1.1852564831	-2.0303385288	-0.0050531071	-0.441749
C	 1.2707127531	-0.6437647489	 0.0159252583	 0.438719
O	 2.33563066	-0.0606819311	-0.0023023884	-0.370508
H	 0.9331105806	 1.7648404543	-0.0883872632	 0.269784
H	-0.7333212223	 1.9221040649	-0.2909716475	 0.255107
H	-2.1571397596	-0.362351179	 0.0304876706	 0.140955
H	 2.0593929305	-2.5387934569	-0.0254490138	 0.282762
109.2774	159.121	274.1121	303.9031	354.6371	396.4685	402.8887	454.992	551.4419	625.8778	654.4008	693.712	744.6157	759.4376	793.2478	820.6474	852.5162	917.5796	1104.2205	1181.2763	1244.3132	1280.8714	1376.0545	1413.058	1459.0661	1626.2047	1714.7146	1796.4511	1877.4759	3228.4698	3547.6908	3609.9682	3660.131
NC1=COC(=O)NC1=O	Nc1coc(=O)[nH]c1=O	
InChI=1S/C4H4N2O3/c5-2-1-9-4(8)6-3(2)7/h1H,5H2,(H,6,7,8)	InChI=1S/C4H4N2O3/c5-2-1-9-4(8)6-3(2)7/h1H,5H2,(H,6,7,8)
