16
gdb 127991	3.88785	1.16105	0.89964	4.824	81.85	-0.2082	-0.0549	0.1534	1255.173	0.123944	-434.046765	-434.0382	-434.037256	-434.080105	31.605	
C	-0.0859284366	 1.4520841204	 0.0277860994	-0.317131
N	 0.0102679499	 0.0025731385	-0.0060546747	-0.327097
C	-1.0539710672	-0.6863217901	-0.0078368627	 0.435744
O	-2.3001634943	-0.034574525	 0.0256955055	-0.298783
N	-3.5031976869	-0.7122996184	 0.0207062483	-0.063505
C	-3.459863635	-1.9941848646	-0.0146158921	 0.004958
C	-2.2497635159	-2.7969338192	-0.0412194003	 0.316351
N	-2.3938149314	-4.1664699136	-0.1345087173	-0.590285
C	-1.0745027596	-2.1262713329	-0.0327842172	-0.280155
H	 0.9221648855	 1.8740068464	 0.0216612463	 0.112881
H	-0.6332031516	 1.8524873061	-0.8366335251	 0.120457
H	-0.6057757045	 1.8131284738	 0.9258779306	 0.119687
H	-4.4365013377	-2.4719344643	-0.0278632615	 0.128684
H	-3.2357895019	-4.5585699902	 0.2590408338	 0.259761
H	-1.5719353588	-4.7158009901	 0.0676176489	 0.262412
H	-0.110389794	-2.6195310168	-0.0482943617	 0.11602
77.8524	114.8653	158.8761	199.2117	292.2955	329.107	352.8564	402.944	468.149	492.1782	545.0761	620.8925	676.8553	704.7476	723.8132	871.9829	879.9012	900.96	958.5935	988.9144	1038.965	1105.7954	1108.2334	1152.1278	1230.7694	1289.916	1356.3822	1430.8825	1439.3707	1486.0835	1497.2605	1627.0451	1655.3205	1709.4538	1745.6762	2997.0974	3044.5816	3101.1354	3165.3794	3210.5579	3574.4404	3678.4017
CN=C1ON=CC(N)=C1	CN=c1oncc(N)c1	
InChI=1S/C5H7N3O/c1-7-5-2-4(6)3-8-9-5/h2-3H,6H2,1H3	InChI=1S/C5H7N3O/c1-7-5-2-4(6)3-8-9-5/h2-3H,6H2,1H3
