17
gdb 96800	2.30246	1.49122	0.91532	2.0911	82.08	-0.2544	-0.0698	0.1846	1245.9739	0.135313	-418.074729	-418.065474	-418.06453	-418.110207	32.439	
C	-0.0513714833	 1.3839405162	 0.0690784997	-0.34173
N	-0.0152239787	-0.0689836999	 0.0299359796	-0.300091
C	 0.5525370437	-0.6280471355	-0.9603697022	 0.352989
N	 1.1772045152	-0.063746474	-2.0698786399	-0.422108
C	 1.6760099304	-1.0495047038	-2.9313166199	 0.425514
O	 2.2624184488	-0.8420438878	-3.9670429854	-0.356534
C	 1.319594817	-2.3409193354	-2.2821375734	-0.352128
C	 0.665439479	-2.1045466378	-1.1343331829	 0.279299
C	 0.1056894855	-3.0542607227	-0.1328862722	-0.489836
H	 0.9581911699	 1.820850055	 0.0844531271	 0.122672
H	-0.5840018732	 1.8065309843	-0.7958450794	 0.122527
H	-0.5702000977	 1.7103373028	 0.9728063316	 0.133853
H	 1.2756395021	 0.918891139	-2.2589232643	 0.265297
H	 1.5785748803	-3.2930915859	-2.7221801551	 0.128346
H	 0.2826325716	-4.090961249	-0.4268414429	 0.128715
H	 0.5517059118	-2.8803251477	 0.8517233772	 0.151607
H	-0.9708492325	-2.894962998	-0.0131751277	 0.151607
21.122	97.1999	123.1363	181.9011	186.5966	199.6142	268.6897	435.2427	445.4178	472.6631	571.2652	586.0264	639.2698	717.2342	769.8059	813.1785	874.1767	937.8587	1008.6094	1028.7578	1061.1714	1098.0468	1104.7018	1163.289	1192.971	1304.0622	1345.7205	1365.2461	1414.0107	1430.392	1469.0524	1476.7792	1491.2586	1504.6992	1680.8645	1753.6652	1834.482	2982.2002	3032.8146	3043.922	3099.459	3111.841	3132.8147	3244.3769	3679.74
CN=C1NC(=O)C=C1C	CN=C1NC(=O)C=C1C	
InChI=1S/C6H8N2O/c1-4-3-5(9)8-6(4)7-2/h3H,1-2H3,(H,7,8,9)	InChI=1S/C6H8N2O/c1-4-3-5(9)8-6(4)7-2/h3H,1-2H3,(H,7,8,9)
