18
gdb 67194	2.9657	1.4721	1.21054	1.2781	81.7	-0.2338	0.0473	0.2812	1076.1293	0.14712	-364.715116	-364.707124	-364.70618	-364.747372	31.416	
C	-0.3502254938	 1.5605655878	-0.0885344145	-0.534659
C	-0.022365165	 0.1120868413	 0.0168388188	 0.369485
C	 0.6744487639	-0.8601295294	-0.8563513773	-0.086186
C	 1.4739995018	-1.4574138207	 0.3153741883	-0.199462
C	 2.7647956911	-0.8203143619	 0.4929413743	 0.306963
C	 3.8348148861	-0.28985914	 0.6349513024	-0.449679
C	 0.3359798404	-0.8661157109	 1.2131381827	-0.125256
C	-0.882274088	-1.673085591	 0.7480549822	-0.16862
N	-0.8019011075	-1.0082076684	-0.5935784558	-0.196014
H	 0.5116466375	 2.1775134962	 0.1863746667	 0.133095
H	-0.6346981412	 1.8032128589	-1.1170059033	 0.137185
H	-1.1858478661	 1.8315916545	 0.5664031541	 0.125115
H	 0.980750645	-0.7728555357	-1.8903278692	 0.105552
H	 1.576678347	-2.5491569552	 0.3462079644	 0.096494
H	 4.7821586147	 0.1725449572	 0.7615137104	 0.193766
H	 0.5392034756	-0.6161720411	 2.2522165517	 0.085483
H	-0.8096595714	-2.7673617353	 0.7387668943	 0.097351
H	-1.8164497501	-1.3701261761	 1.2275949398	 0.109388
100.6885	151.6568	206.363	236.6592	281.2815	382.5228	457.9699	493.6132	505.3812	612.6031	613.1443	641.3275	741.1964	772.8045	811.6007	843.2781	905.2346	932.5673	957.584	985.2648	1014.6129	1033.6249	1073.867	1076.7367	1100.4365	1142.1109	1169.4497	1173.5879	1205.0945	1237.9932	1250.5057	1304.6743	1343.4572	1400.4925	1451.8705	1480.4388	1491.8344	1511.1372	2234.3186	3025.2009	3029.9085	3033.8884	3093.7026	3101.2355	3110.576	3142.212	3208.0074	3504.7019
CC12C3C(C#C)C1CN23	C[C@@]12[C@H]3[C@@H](C#C)[C@@H]1CN23	
InChI=1S/C8H9N/c1-3-5-6-4-9-7(5)8(6,9)2/h1,5-7H,4H2,2H3	InChI=1S/C8H9N/c1-3-5-6-4-9-7(5)8(6,9)2/h1,5-7H,4H2,2H3/t5-,6-,7+,8-,9?/m0/s1
