16
gdb 82424	2.46415	1.86791	1.22765	3.8612	64.22	-0.2536	0.0075	0.2611	992.9095	0.125604	-475.030393	-475.022654	-475.02171	-475.062881	29.012	
N	 0.2927923549	 1.0131375302	 0.7265409561	-0.51255
C	-0.0880748166	-0.1633044051	-0.041518301	-0.159345
C	-1.5856119949	-0.2335982902	-0.2044842448	 0.055492
O	-2.1179833473	 0.4277604857	-1.3687098749	-0.251502
C	-2.1158699389	-0.9973311735	-1.3277767611	 0.019744
C	-1.1458466377	-1.7001205328	-2.2451951056	-0.107123
O	 0.1165996367	-1.0462509753	-2.3735405233	-0.226297
C	 0.6387494803	-0.2628065628	-1.4004243169	 0.410094
O	 1.6755713492	 0.3061511832	-1.603803946	-0.327374
H	 1.3070766995	 1.085728883	 0.7113974207	 0.246983
H	-0.0355132634	 1.83960587	 0.2309963448	 0.24084
H	 0.2197315793	-1.0535488188	 0.5302280189	 0.119409
H	-2.1675320424	-0.0969002952	 0.7044550506	 0.116305
H	-3.096931971	-1.4669327352	-1.257405219	 0.11043
H	-0.9938942307	-2.727043769	-1.8851087641	 0.124488
H	-1.545219667	-1.7582051343	-3.2622121644	 0.140405
72.4366	142.324	218.3729	265.233	305.8122	325.0819	453.2757	466.7272	533.0471	574.6072	668.1146	740.7245	830.5789	838.4275	895.2724	927.0988	963.8866	971.0088	1054.5244	1083.5394	1109.6078	1140.7727	1150.9868	1195.9867	1234.6336	1256.3164	1286.5244	1325.5536	1359.7547	1411.0055	1425.998	1492.8901	1506.8689	1674.3477	1842.4225	2988.7497	3018.847	3085.0618	3117.6778	3144.2157	3481.6098	3554.0665
NC1C2OC2COC1=O	N[C@H]1[C@H]2O[C@H]2COC1=O	
InChI=1S/C5H7NO3/c6-3-4-2(9-4)1-8-5(3)7/h2-4H,1,6H2	InChI=1S/C5H7NO3/c6-3-4-2(9-4)1-8-5(3)7/h2-4H,1,6H2/t2-,3-,4-/m0/s1
