20
gdb 94400	2.53057	1.44163	1.20143	2.4634	79.63	-0.2358	-0.0224	0.2134	1135.6062	0.170531	-403.137021	-403.128171	-403.127227	-403.170674	33.36	
C	-0.1551562115	 1.4971389164	-0.1225882457	-0.39408
C	 0.0436244958	-0.0143714858	-0.1265414104	-0.039036
C	 1.3322957427	-0.5054067024	-0.8492622319	-0.219811
C	 2.0441675705	-0.6078342813	 0.525836079	-0.29457
C	 0.6439833214	-0.5693989684	 1.2024466725	 0.244944
N	 0.3736567808	 0.0384219987	 2.5246364637	-0.386455
C	 0.0385518004	-1.2669660291	 3.1568906785	-0.290185
C	 0.1174729947	-1.8968086896	 1.7555107715	 0.339692
O	-0.1303781613	-2.9669006677	 1.2836281887	-0.299948
H	 0.7699312535	 2.0260822315	 0.1333800335	 0.106742
H	-0.4733083113	 1.8448883706	-1.1110765863	 0.114093
H	-0.9135517512	 1.7877914898	 0.6096767229	 0.130413
H	-0.8800665019	-0.5139491789	-0.4343583186	 0.079192
H	 1.1966711388	-1.4861308922	-1.3097189485	 0.119582
H	 1.7716054469	 0.1753191317	-1.5823700114	 0.097577
H	 2.6708078224	-1.4817119108	 0.7203604192	 0.108749
H	 2.6141698966	 0.2955343927	 0.765537325	 0.105837
H	 1.1737524069	 0.5054527868	 2.9353973654	 0.221055
H	 0.7890972518	-1.6763826852	 3.8462065722	 0.123841
H	-0.9408044657	-1.2978757867	 3.6466767106	 0.132368
87.1622	94.9157	135.9849	204.0291	223.3276	258.4338	349.5481	383.2425	503.6087	537.3136	554.458	680.7523	712.8732	764.6878	799.8448	884.3294	886.7819	901.6299	951.9262	959.1074	995.4789	1029.6884	1053.4157	1073.0912	1094.205	1125.6663	1180.1363	1185.7039	1198.1797	1219.7804	1249.9903	1271.7899	1288.6258	1291.4185	1352.1675	1363.3895	1407.3721	1470.6263	1475.9465	1489.513	1492.5029	1497.1416	1903.3494	3017.4782	3030.9973	3049.7423	3053.7848	3067.784	3070.5891	3095.2781	3102.6531	3114.0231	3125.8764	3543.2699
CC1CCC11NCC1=O	C[C@H]1CC[C@]21NCC2=O	
InChI=1S/C7H11NO/c1-5-2-3-7(5)6(9)4-8-7/h5,8H,2-4H2,1H3	InChI=1S/C7H11NO/c1-5-2-3-7(5)6(9)4-8-7/h5,8H,2-4H2,1H3/t5-,7+/m0/s1
