21
gdb 64371	2.11619	1.80484	1.40672	1.2272	77.66	-0.2456	0.0809	0.3265	1058.1401	0.181151	-424.220275	-424.211275	-424.210331	-424.253612	34.999	
C	-0.2808870455	 1.5884316177	 0.10453579	-0.424336
C	-0.0435656775	 0.0834154647	 0.0232095105	 0.30547
C	-1.3275274041	-0.6768439114	-0.3254422379	-0.409336
O	 0.9200561317	-0.1764829291	-1.0263909837	-0.31143
C	 1.9798780664	-0.9317957203	-0.4802902485	 0.008769
O	 1.5020636354	-1.5179174659	 0.7067725918	-0.277424
C	 0.6556063073	-0.5289706252	 1.2461230437	 0.401782
C	 1.1420800573	 0.231104715	 2.4529682954	-0.34565
C	 0.0453323334	-0.8166501376	 2.5703058756	-0.341336
H	 0.6576711457	 2.1214086108	 0.2738460633	 0.122575
H	-0.7152365143	 1.9463871981	-0.8329847968	 0.124643
H	-0.976528638	 1.8351989989	 0.9137636055	 0.11287
H	-1.6716912616	-0.3859292187	-1.3220122443	 0.119687
H	-1.140457931	-1.7536224605	-0.3232161341	 0.126589
H	-2.1244657053	-0.4588932133	 0.3926394643	 0.108348
H	 2.2713086667	-1.7278699062	-1.1731598995	 0.112798
H	 2.8442299	-0.2770052529	-0.2700015667	 0.082279
H	 2.1240363355	-0.0351467166	 2.8276121853	 0.12206
H	 0.8706346667	 1.2732541937	 2.5745184247	 0.116074
H	-0.9693817555	-0.4793533197	 2.7542446381	 0.117485
H	 0.2978028267	-1.7649425616	 3.0311348833	 0.128085
58.1566	173.019	223.964	229.2742	244.0833	281.8886	315.6126	334.1028	399.4237	430.212	515.948	566.8098	641.5926	736.8753	768.6442	837.1248	879.7401	894.6782	931.6568	956.8278	969.2485	987.7309	1019.5106	1036.7487	1053.452	1082.1421	1111.4361	1166.0635	1175.9379	1188.9672	1198.8647	1218.8398	1242.287	1288.7799	1369.7182	1394.702	1413.4966	1428.9505	1450.6443	1476.2943	1483.8919	1495.1739	1497.1746	1508.5119	1545.0683	2941.4011	3037.5725	3042.9292	3070.8372	3107.6006	3114.5755	3125.3604	3127.2878	3133.6954	3139.7296	3218.1545	3233.5046
CC1(C)OCOC11CC1	CC1(C)OCOC21CC2	
InChI=1S/C7H12O2/c1-6(2)7(3-4-7)9-5-8-6/h3-5H2,1-2H3	InChI=1S/C7H12O2/c1-6(2)7(3-4-7)9-5-8-6/h3-5H2,1-2H3
