17
gdb 105125	2.43349	1.21689	0.95373	4.4436	81.12	-0.2659	-0.0069	0.259	1262.0822	0.134129	-380.826955	-380.817527	-380.816583	-380.861305	34.305	
C	 0.0661063487	 1.5059789941	-0.3266399126	-0.388795
C	-0.0090717762	 0.0928452039	 0.2581538212	-0.246736
C	-1.4057998185	-0.5015627682	 0.1546682222	 0.12023
N	-1.7654439786	-1.0360207736	-1.1739156032	-0.335758
C	-1.6068667786	-1.9869338267	-0.0617454965	-0.250294
C	-0.4893735378	-2.8973445438	-0.1282176755	 0.340873
N	 0.4008782595	-3.6346664624	-0.1480983202	-0.334442
C	-2.4401854942	 0.1556401231	 0.9159151274	 0.285655
C	-3.2997487572	 0.720757873	 1.5389491099	-0.425918
H	 1.0832566052	 1.8990858656	-0.2473319713	 0.121544
H	-0.2149913284	 1.4997333556	-1.3839803078	 0.132446
H	-0.6043035289	 2.1905340355	 0.201685495	 0.128191
H	 0.6815938518	-0.5698214723	-0.2707677597	 0.133301
H	 0.2887448581	 0.0965633898	 1.3125767839	 0.115887
H	-2.7564126621	-0.899065571	-1.3590305096	 0.252765
H	-2.4989045688	-2.4185716005	 0.3825293816	 0.142686
H	-4.0572805139	 1.2183068879	 2.0933878352	 0.208364
82.1776	110.2107	120.2239	150.1572	216.2144	252.6082	273.6664	355.6984	403.7087	476.6545	538.5093	585.2961	622.0685	640.3112	667.5342	675.3569	784.051	822.44	907.7181	944.7324	984.4462	1007.8576	1072.6814	1096.8638	1112.4748	1208.5459	1245.1261	1304.253	1332.7716	1374.4287	1410.2124	1425.8885	1474.7757	1498.5018	1508.5769	2233.8239	2359.4482	3043.7124	3049.8038	3095.5467	3119.0099	3121.2397	3159.2322	3498.0661	3509.2555
CCC1(NC1C#N)C#C	CC[C@]1(N[C@H]1C#N)C#C	
InChI=1S/C7H8N2/c1-3-7(4-2)6(5-8)9-7/h1,6,9H,4H2,2H3	InChI=1S/C7H8N2/c1-3-7(4-2)6(5-8)9-7/h1,6,9H,4H2,2H3/t6-,7+/m0/s1
