17
gdb 43012	2.59743	2.01328	1.30833	2.8852	72.07	-0.2368	-0.007	0.2298	957.431	0.138278	-417.975686	-417.96874	-417.967796	-418.006961	27.67	
O	-0.0186197283	 0.0842977766	 0.7874475001	-0.335392
C	-0.0442629639	 1.2004850867	 0.3285994552	 0.330684
C	-1.2982897735	 1.9757834271	-0.0282445088	-0.098358
C	-2.2044342229	 2.4783011258	 1.0313781705	-0.245576
N	-1.3174620961	 3.4091656141	 0.3184410215	-0.09596
C	-0.105634693	 3.8130806714	 1.0624665964	-0.200288
C	 1.1205833259	 3.3529469437	 0.2979788659	-0.01128
C	 2.0923770212	 2.3919964225	 0.9245553549	-0.252646
N	 1.0949871094	 1.9330878601	-0.0228723513	-0.0715
H	-1.7051894135	 1.7366404147	-1.0083908942	 0.124414
H	-3.2647825387	 2.590062886	 0.8262247842	 0.125874
H	-1.9631988949	 2.232850704	 2.0637978538	 0.124652
H	-0.1184801514	 4.8993209125	 1.1850630365	 0.121327
H	-0.0823600059	 3.3657713666	 2.0690706791	 0.103086
H	 1.4699377158	 3.9970350044	-0.5056593979	 0.111017
H	 3.120550689	 2.3622362305	 0.5762154029	 0.133761
H	 1.9497655207	 2.1229870834	 1.9681822711	 0.136185
113.3516	206.5269	239.615	358.56	410.8592	446.2861	502.8961	529.4137	599.5129	716.3911	750.2577	795.9364	862.3283	882.6833	929.4788	965.5475	983.9663	1011.6063	1030.422	1078.1512	1096.6557	1112.1731	1130.66	1137.7745	1159.4982	1167.3425	1183.2623	1259.698	1279.5704	1344.1652	1345.7031	1384.3971	1413.4116	1492.1194	1505.5737	1515.0581	1813.188	2973.7341	3086.3445	3103.8438	3113.0422	3130.6326	3138.2545	3193.8341	3203.471
O=C1C2CN2CC2CN12	O=C1[C@H]2CN2C[C@H]2CN12	
InChI=1S/C6H8N2O/c9-6-5-3-7(5)1-4-2-8(4)6/h4-5H,1-3H2	InChI=1S/C6H8N2O/c9-6-5-3-7(5)1-4-2-8(4)6/h4-5H,1-3H2/t4-,5+,7?,8?/m0/s1
