20
gdb 80056	2.42186	1.94806	1.45052	1.7567	82.18	-0.2075	0.0035	0.211	998.3081	0.171869	-365.983094	-365.975162	-365.974218	-366.014942	31.841	
C	-0.0403200422	 1.6481326514	-0.0080978599	-0.425815
C	 0.0987929601	 0.1332755633	 0.0431207749	-0.02115
C	 1.1352823433	-0.6655467616	-0.8376224657	-0.084927
C	 2.4076514728	 0.1257294009	-0.9897338605	-0.084415
C	 3.0087983969	 0.1609476668	 0.200678135	-0.076847
C	 2.2359970276	-0.6967271046	 1.1394897663	-0.119759
N	 1.3750676302	-1.6119957677	 0.3477324291	-0.172253
C	 0.7290901888	-0.57808943	 1.2364670442	 0.312765
C	-0.0067944201	-0.9317303965	 2.4971576925	-0.495667
H	 0.922589614	 2.1470906693	 0.1255357834	 0.120149
H	-0.4636081754	 1.9741494868	-0.9648913463	 0.112421
H	-0.7137616474	 1.996169476	 0.7830625318	 0.114777
H	-0.8789688254	-0.3336474556	-0.1182758405	 0.085442
H	 0.74948231	-1.1584229441	-1.729374384	 0.07379
H	 2.6787354682	 0.6816454644	-1.878130594	 0.102509
H	 3.8967961837	 0.7130622019	 0.4796437705	 0.103354
H	 2.7292553329	-1.1535197463	 1.993141959	 0.085549
H	 0.5612264596	-1.6523273634	 3.0932688524	 0.12655
H	-0.1744045847	-0.041502842	 3.1144384225	 0.12157
H	-0.982833853	-1.375791489	 2.2718203894	 0.121956
159.4806	185.5986	203.5389	217.2821	261.2139	312.1056	453.1405	474.4667	580.5751	600.9233	694.7353	735.1408	756.8282	776.8399	816.2826	836.2857	857.9307	927.9827	930.8093	949.2503	994.7226	1036.5931	1057.9482	1072.3674	1081.9822	1121.1947	1122.0061	1143.8847	1184.8193	1228.0764	1267.5942	1284.4992	1316.7305	1356.8061	1369.5032	1406.0373	1408.434	1422.4339	1483.474	1490.9087	1494.1605	1503.5498	1655.3556	3026.1734	3031.4082	3046.5884	3088.3245	3090.2769	3105.4263	3113.2658	3122.1924	3147.9662	3205.6548	3230.8235
CC1C2C=CC3N2C13C	C[C@H]1[C@H]2C=C[C@@H]3N2[C@]13C	
InChI=1S/C8H11N/c1-5-6-3-4-7-8(5,2)9(6)7/h3-7H,1-2H3	InChI=1S/C8H11N/c1-5-6-3-4-7-8(5,2)9(6)7/h3-7H,1-2H3/t5-,6+,7-,8+,9?/m0/s1
