16
gdb 54282	3.37113	1.1247	0.91603	3.4315	69.4	-0.2673	-0.0447	0.2226	1240.2746	0.121184	-437.897491	-437.888102	-437.887158	-437.932899	32.551	
C	 0.6658807959	 0.6952272533	 0.9954886481	-0.483696
C	-0.0241379626	-0.0001196217	-0.1557806003	 0.334822
O	 0.4154480686	-0.0057835073	-1.2836256256	-0.302368
C	-1.3486345629	-0.6851273741	 0.1325840862	 0.271747
C	-2.2404235142	-0.8125789987	-1.099622357	-0.414529
C	-3.4191363205	-1.6446772288	-0.8901747733	 0.270267
N	-4.3443488358	-2.3153828036	-0.7205014278	-0.311476
C	-1.4350786921	-1.6412433322	 1.2580737257	-0.217756
O	-1.9804334187	-0.3290531296	 1.3603398012	-0.247912
H	 1.6253245552	 1.0825717063	 0.6526577031	 0.148759
H	 0.0359699105	 1.5139137243	 1.3580663947	 0.164247
H	 0.817070758	 0.0232365135	 1.8454527979	 0.146679
H	-2.5598317116	 0.1875874086	-1.4140162534	 0.169088
H	-1.6380626283	-1.2157973814	-1.9188554809	 0.185206
H	-2.1632316029	-2.4469323591	 1.1972602059	 0.160036
H	-0.5585200687	-1.8376703096	 1.8719471956	 0.126886
49.2639	50.522	97.5486	132.9459	229.2111	268.1597	320.6297	354.0022	385.9232	425.2545	497.8818	582.4994	609.1853	709.4201	824.3246	851.251	930.2195	952.5986	981.0616	1000.9404	1053.4264	1108.3456	1136.8741	1170.1366	1232.8178	1279.7418	1344.6615	1381.0782	1388.2762	1452.4462	1454.338	1466.8738	1523.5581	1800.509	2366.843	3051.2491	3056.4437	3098.9445	3105.0431	3112.9822	3162.1066	3194.2191
CC(=O)C1(CC#N)CO1	CC(=O)[C@@]1(CC#N)CO1	
InChI=1S/C6H7NO2/c1-5(8)6(2-3-7)4-9-6/h2,4H2,1H3	InChI=1S/C6H7NO2/c1-5(8)6(2-3-7)4-9-6/h2,4H2,1H3/t6-/m1/s1
