19
gdb 37513	3.18655	2.11745	1.87562	1.8482	75.51	-0.2333	0.0839	0.3172	823.3123	0.164864	-385.879923	-385.874537	-385.873593	-385.909277	24.9	
C	-0.0371006354	 1.5741299405	 0.0268018247	-0.217655
C	 1.4925028449	 1.7864763703	-0.0691995904	-0.051056
C	 1.7678697605	 1.0715136327	-1.4134449708	-0.217655
C	 1.2737847871	-0.3037911314	-0.9259722478	-0.06144
C	 2.3050052302	-0.6000502102	 0.1934188645	 0.094836
O	 1.6240542077	-1.3754818183	 1.1991242488	-0.303949
C	 0.8262058054	-0.1882590847	 1.373403002	 0.094836
C	 2.0236737411	 0.7342091767	 0.9637023456	-0.069368
C	 0.0522627411	 0.0363565922	 0.0487215248	-0.06144
H	-0.4807670556	 1.9700903664	 0.947151566	 0.092632
H	-0.5791695239	 1.9934932103	-0.8258553325	 0.093763
H	 1.8610493779	 2.8064178752	 0.0367375013	 0.058806
H	 1.2006959194	 1.497868158	-2.246069703	 0.093763
H	 2.8272659859	 1.0489281061	-1.6924389567	 0.092632
H	 1.1087286578	-1.0889065529	-1.6616106533	 0.066151
H	 3.2906612261	-0.9791909534	-0.0780333563	 0.07731
H	 0.2860159027	-0.1425079371	 2.3194755843	 0.07731
H	 2.7252832491	 1.034440746	 1.7382105314	 0.074374
H	-0.8601328219	-0.5406532165	-0.0905895727	 0.066151
364.6934	435.1734	453.7523	503.4013	624.6451	632.6293	758.2306	794.037	809.3103	851.3616	858.3249	876.3381	888.8938	904.0451	918.7634	928.9344	958.2977	963.8984	966.0827	983.8939	991.021	1046.7498	1073.8036	1099.5717	1131.829	1142.5765	1145.5816	1182.3931	1213.3614	1213.7062	1242.6707	1247.6355	1269.1667	1275.2378	1294.5557	1307.8112	1307.9686	1327.2501	1351.9233	1490.1106	1513.1254	3039.6643	3042.835	3085.8955	3093.4309	3112.9139	3114.9929	3115.8966	3128.5011	3138.1214	3151.7183
C1C2CC3C4OC(C24)C13	C1[C@@H]2C[C@H]3[C@@H]4O[C@@H]([C@H]24)[C@@H]13	
InChI=1S/C8H10O/c1-3-2-5-4(1)7-6(3)8(5)9-7/h3-8H,1-2H2	InChI=1S/C8H10O/c1-3-2-5-4(1)7-6(3)8(5)9-7/h3-8H,1-2H2/t3-,4+,5-,6+,7-,8+
