18
gdb 81745	3.15081	1.23965	1.07045	4.9761	77.89	-0.2689	0.0211	0.29	1166.0383	0.147131	-401.938565	-401.92968	-401.928736	-401.971976	33.12	
C	-0.1510433369	 1.5871334205	-0.0643605808	-0.411211
C	 0.0401399289	 0.0768909917	-0.0500599826	-0.02013
C	 0.7340378505	-0.5979822293	-1.2407248785	-0.117585
C	 2.1718362892	-0.2057082662	-1.3415107906	-0.324119
C	 1.7874770213	-1.2319295923	-0.2968797027	 0.245115
C	 2.3093172363	-2.557707888	-0.2868883271	 0.16808
N	 2.7173400171	-3.641216673	-0.265029908	-0.355219
C	 1.1424186841	-0.5353628807	 0.9043141477	 0.007616
O	 2.028960021	 0.3453093036	 1.5502448694	-0.419983
H	 0.7918269387	 2.1165461635	-0.2210477144	 0.130764
H	-0.8442929802	 1.8822957975	-0.8587270571	 0.122485
H	-0.5714692717	 1.9350251711	 0.885847016	 0.111827
H	-0.9150319949	-0.4169734408	 0.1527496736	 0.083597
H	 0.2282344963	-1.1024346821	-2.0543967651	 0.113346
H	 2.7079919394	-0.6118122107	-2.19191342	 0.139568
H	 2.5221097237	 0.7631619672	-1.0034517837	 0.141923
H	 0.7123844963	-1.25915956	 1.605557117	 0.092102
H	 1.6023682708	 0.6844323882	 2.3435654769	 0.291823
92.8949	140.1683	165.1466	187.0401	218.4287	248.247	288.9356	390.2373	457.1957	510.5264	557.5639	600.1874	654.0576	701.8599	793.7763	837.8515	859.5766	963.2472	966.4151	981.143	1021.7198	1055.7918	1090.6585	1100.3976	1142.6306	1149.5308	1186.6668	1220.2268	1248.4033	1284.4126	1314.1498	1363.9435	1376.2493	1412.5786	1431.9569	1486.5515	1491.7251	1500.069	2344.0912	3035.4833	3038.371	3062.0119	3096.0764	3122.2697	3142.0077	3197.82	3230.5061	3822.1073
CC1C2CC2(C#N)C1O	C[C@H]1[C@H]2C[C@@]2(C#N)[C@H]1O	
InChI=1S/C7H9NO/c1-4-5-2-7(5,3-8)6(4)9/h4-6,9H,2H2,1H3	InChI=1S/C7H9NO/c1-4-5-2-7(5,3-8)6(4)9/h4-6,9H,2H2,1H3/t4-,5+,6-,7-/m0/s1
