19
gdb 79084	2.94192	1.70493	1.25017	1.2328	79.36	-0.2209	0.0047	0.2256	1034.8841	0.159325	-385.832665	-385.825033	-385.824089	-385.864098	31.548	
C	-0.1789524718	 1.5635556536	-0.0005216506	-0.436929
C	 0.0106042441	 0.0539910427	 0.0075005547	 0.018279
C	 1.236752877	-0.5987767767	-0.6873008793	-0.123498
C	 2.170527245	-0.1946350396	 0.5123380822	-0.080066
C	 3.1608386837	-1.3308701994	 0.7225102882	-0.102636
C	 2.4297568813	-2.4285795945	 0.5357700304	-0.196571
C	 1.0391658183	-1.8822840417	 0.2226126453	 0.392329
O	-0.0262493029	-2.7597630159	 0.033369859	-0.491802
C	 0.7998317609	-0.6438778299	 1.1511943687	-0.082579
H	 0.7381670452	 2.1111109174	 0.2350074343	 0.112653
H	-0.5237642971	 1.9048813646	-0.9832007316	 0.113945
H	-0.9383659215	 1.8615337155	 0.7311549285	 0.115801
H	-0.9307840445	-0.4510859601	-0.2263833509	 0.078256
H	 1.5063062202	-0.5863448902	-1.7485331982	 0.058818
H	 2.5043796434	 0.8345567933	 0.6164977305	 0.070163
H	 4.2075707675	-1.2293418447	 0.972290346	 0.104031
H	 2.6958273995	-3.4748412669	 0.5961549917	 0.101102
H	 0.1610007538	-3.3015886151	-0.7402005597	 0.282347
H	 0.5631378177	-0.6806701223	 2.2185308307	 0.066354
184.3542	213.8128	237.1256	262.6908	317.9264	358.4751	425.3619	523.3773	527.6114	628.4282	677.5972	709.5044	757.5261	800.7624	810.4128	813.9476	899.0157	906.5835	914.3574	959.4957	1019.165	1033.4865	1051.2197	1069.5572	1072.4533	1098.3074	1126.4842	1144.055	1169.4724	1184.3571	1230.3751	1244.7847	1275.7612	1290.9231	1326.2519	1357.9079	1407.2252	1418.9021	1495.0964	1500.747	1641.1155	3029.8701	3058.5132	3066.5292	3076.8396	3086.5137	3107.6877	3151.2783	3216.8295	3244.6395	3810.7992
CC1C2C3C=CC2(O)C13	C[C@H]1[C@H]2[C@@H]3C=C[C@@]2(O)[C@H]13	
InChI=1S/C8H10O/c1-4-6-5-2-3-8(6,9)7(4)5/h2-7,9H,1H3	InChI=1S/C8H10O/c1-4-6-5-2-3-8(6,9)7(4)5/h2-7,9H,1H3/t4-,5-,6-,7+,8-
