15
gdb 31301	2.39958	1.50481	0.93424	1.405	81.64	-0.1925	-0.0177	0.1748	1198.3479	0.112345	-416.803659	-416.795018	-416.794074	-416.837344	31.001	
C	-0.0736263813	 1.4951545968	-0.0969333161	-0.328059
N	 0.2263289849	 0.0817188379	 0.0679360255	-0.401656
C	 0.6853376723	-0.6601212067	-0.9844879777	 0.232519
C	 0.6763929303	-2.0304756825	-1.1432701354	 0.129551
O	 1.3207807481	-2.2896002001	-2.3516352347	-0.178871
C	 1.6493964192	-1.0834477526	-2.819585255	 0.067246
N	 1.3077747729	-0.0778685559	-2.0736301824	-0.309631
C	 0.1776666568	-3.0744880676	-0.3661526417	 0.21472
C	-0.2772519821	-3.9431321313	 0.3389031599	-0.422798
H	 0.7766323226	 1.9905877214	-0.5678302784	 0.161337
H	-0.9624336358	 1.6816676992	-0.7172832873	 0.118842
H	-0.2346693496	 1.937139039	 0.8890995989	 0.125298
H	-0.3777059749	-0.4270858247	 0.6956192403	 0.249272
H	 2.1632202637	-1.0499820875	-3.7681042131	 0.152436
H	-0.6645824571	-4.7143626354	 0.9569360172	 0.189794
79.1429	118.6633	127.3553	162.398	232.8664	310.2596	398.6799	400.2994	492.0543	504.9598	578.6856	617.139	635.0661	706.7601	750.7213	766.492	847.056	957.6981	1029.5089	1100.4451	1150.206	1168.0088	1200.3255	1233.2576	1323.7175	1426.5309	1458.7101	1472.0049	1489.9584	1517.5758	1552.2784	1666.7615	2210.6203	2997.8018	3096.3083	3145.8778	3269.8599	3502.8559	3614.7784
CNC1=C(OC=N1)C#C	CNc1c(ocn1)C#C	
InChI=1S/C6H6N2O/c1-3-5-6(7-2)8-4-9-5/h1,4,7H,2H3	InChI=1S/C6H6N2O/c1-3-5-6(7-2)8-4-9-5/h1,4,7H,2H3
