20
gdb 104649	3.01095	1.09047	0.94504	3.0917	77.04	-0.2274	-0.0404	0.187	1312.1854	0.169341	-440.262443	-440.252962	-440.252018	-440.296813	34.737	
C	 0.0286154734	 1.5150459016	 0.1341372584	-0.321831
N	 0.0045210113	 0.0708649717	 0.1509962953	-0.058644
C	-1.2654320811	-0.6143502854	 0.4384025739	-0.230086
C	-0.477933519	-1.7032697392	 1.2257077395	 0.183538
C	-0.1274324579	-2.9417554588	 0.3960804607	-0.126937
O	 0.8866017031	-3.7202317189	 0.9953142322	-0.429483
C	 0.6654194956	-0.638010709	 1.2594927355	-0.208636
C	-1.0220076528	-2.0616173464	 2.5802011527	 0.106916
O	-1.0149682744	-3.1748210164	 3.0534409201	-0.269388
H	 1.0561402013	 1.86599904	-0.0069078808	 0.127376
H	-0.5702316606	 1.8861361066	-0.7042590101	 0.125379
H	-0.3648295157	 1.9685429922	 1.0645633114	 0.089546
H	-1.9394659332	-0.0362319026	 1.0945626623	 0.086301
H	-1.8291082519	-0.94780001	-0.4405378127	 0.112344
H	-1.0435625076	-3.5287440919	 0.2241975108	 0.09279
H	 0.250351747	-2.618853146	-0.5787569809	 0.120921
H	 0.5078080152	-4.0528088752	 1.8191585235	 0.295635
H	 1.6705440039	-1.0186639113	 1.0560282059	 0.13254
H	 0.6777860225	-0.0618935181	 2.2006907076	 0.085569
H	-1.437794599	-1.2070583628	 3.1610074647	 0.08615
86.095	89.2235	135.8681	199.8606	225.7844	274.3695	297.5902	301.5086	352.9566	385.0732	449.1436	486.9957	563.4765	710.2589	793.01	881.4836	898.643	944.3793	962.5151	1000.3907	1012.6332	1081.813	1101.334	1116.8436	1120.0323	1135.016	1195.7299	1221.5521	1234.7891	1270.0697	1295.8749	1325.0277	1344.3327	1382.1421	1427.1026	1439.8158	1451.7885	1485.5064	1496.4876	1498.1861	1503.3407	1524.4522	1800.95	2874.8594	2919.9907	2944.0758	2957.7383	2981.3989	3050.6324	3059.1321	3080.6603	3085.631	3101.9581	3772.5631
CN1CC(CO)(C1)C=O	CN1CC(CO)(C1)C=O	
InChI=1S/C6H11NO2/c1-7-2-6(3-7,4-8)5-9/h4,9H,2-3,5H2,1H3	InChI=1S/C6H11NO2/c1-7-2-6(3-7,4-8)5-9/h4,9H,2-3,5H2,1H3
