19
gdb 104955	2.03233	1.5651	1.04373	2.7816	83.21	-0.2598	-0.0568	0.203	1204.9788	0.1565	-385.864028	-385.854347	-385.853403	-385.898751	35.774	
C	-1.5988524174	-0.6239487222	-0.6945493354	-0.38043
C	-0.1884784084	-0.3182307133	-0.1729474667	-0.288068
C	 0.9171842645	-0.6608926095	-1.1591708104	 0.241761
C	 2.2380785764	-1.225758616	-0.6218288668	-0.291299
C	 1.2976826862	-2.1209853616	-1.3528797327	-0.280984
C	 1.113428435	 0.1989881476	-2.3706991876	 0.19227
O	 1.8460934914	-0.1151206143	-3.290644643	-0.317582
C	 0.4216266995	 1.4804525317	-2.4037298891	 0.246715
C	-0.1246092535	 2.5518552482	-2.4635379305	-0.409742
H	-1.8281925199	-0.0382214578	-1.5893264213	 0.126444
H	-1.7014937549	-1.6832995094	-0.9512671858	 0.117912
H	-2.3528865983	-0.3856694678	 0.0619085908	 0.113274
H	-0.1169487943	 0.7396171858	 0.1042081538	 0.110371
H	-0.0136829164	-0.8876701241	 0.7471210721	 0.093682
H	 3.1397842564	-0.9171065031	-1.1375546563	 0.137579
H	 2.3217937293	-1.3128687562	 0.4559060921	 0.118692
H	 0.722947357	-2.8457451588	-0.786778304	 0.115747
H	 1.5687684229	-2.4159877971	-2.3594650273	 0.141019
H	-0.6037150857	 3.4987991581	-2.5268205319	 0.212636
43.0986	109.5473	149.8194	185.6548	219.2157	242.5944	283.6513	300.4023	341.3511	446.1788	475.6039	556.207	641.7975	679.6371	701.2061	758.7885	774.9856	793.13	854.0048	870.3595	939.9705	962.2071	1014.6283	1053.6538	1089.0101	1095.8558	1106.916	1116.9426	1204.0158	1273.8285	1302.9427	1358.2114	1376.2661	1410.8884	1451.2964	1477.2144	1486.5626	1499.1388	1507.3381	1733.5336	2208.2902	3033.2484	3038.8266	3068.2949	3106.8225	3115.9458	3136.9729	3139.6377	3226.6704	3240.4482	3492.6523
CCC1(CC1)C(=O)C#C	CCC1(CC1)C(=O)C#C	
InChI=1S/C8H10O/c1-3-7(9)8(4-2)5-6-8/h1H,4-6H2,2H3	InChI=1S/C8H10O/c1-3-7(9)8(4-2)5-6-8/h1H,4-6H2,2H3
