16
gdb 133117	2.53632	1.56229	0.97277	2.1875	76.08	-0.2183	0.002	0.2203	1154.61	0.124719	-445.906529	-445.898845	-445.897901	-445.938833	29.276	
C	-0.067603594	 1.3735033896	 0.1048460454	-0.247624
O	 0.0017515025	-0.0358405927	 0.002105454	-0.258283
C	 0.6217038049	-0.560629906	-1.0841966466	 0.264908
C	 1.2043794011	 0.1655799916	-2.1224054159	-0.250403
C	 1.8150845848	-0.4967291657	-3.1904463752	-0.107167
C	 1.8518403277	-1.883313878	-3.2357064515	-0.11905
C	 1.2715543409	-2.6212270381	-2.2015690798	-0.22626
C	 0.669263793	-1.9628810158	-1.1483238915	 0.21109
F	 0.1117479099	-2.6609869534	-0.1549193723	-0.069507
H	 0.9315792814	 1.8259213051	 0.1476162175	 0.126177
H	-0.6230416849	 1.8136423536	-0.7333963259	 0.126175
H	-0.596780638	 1.582447384	 1.0357252545	 0.139771
H	 1.1855586656	 1.2476472104	-2.104528213	 0.104283
H	 2.2619943367	 0.0878389722	-3.9871364266	 0.09651
H	 2.3254756474	-2.3973252463	-4.0640165374	 0.099715
H	 1.277803611	-3.7052118805	-2.1972906557	 0.109667
93.4581	177.5684	222.8225	252.3107	314.7893	334.8054	470.5298	496.3976	541.537	573.4031	592.6121	722.5061	767.5543	772.6313	845.8935	858.001	916.4179	951.121	1056.7962	1072.3904	1133.0894	1178.0272	1181.7084	1209.9992	1251.368	1295.1075	1306.0538	1359.4371	1473.1004	1491.4616	1492.5982	1506.5667	1550.2402	1630.3835	1649.8477	3005.1213	3064.7503	3137.3759	3180.9222	3194.6782	3206.5748	3213.3506
COC1=CC=CC=C1F	COc1ccccc1F	
InChI=1S/C7H7FO/c1-9-7-5-3-2-4-6(7)8/h2-5H,1H3	InChI=1S/C7H7FO/c1-9-7-5-3-2-4-6(7)8/h2-5H,1H3
