21
gdb 96708	2.92257	0.90561	0.7728	2.9364	85.73	-0.2233	-0.065	0.1583	1565.6845	0.178961	-420.41845	-420.407347	-420.406403	-420.455105	39.04	
C	-0.0824279618	 1.4990755129	 0.1284469873	-0.307181
N	-0.0445034676	 0.0489475259	 0.0653049846	-0.306715
C	 0.5339543865	-0.5747232759	-0.8884957416	 0.303921
N	 0.6403906484	-1.9483121058	-0.8836141384	-0.340819
C	-0.026947529	-2.7819145674	 0.111952895	 0.078514
C	-1.5364646783	-2.895061574	-0.1486440316	-0.385057
C	 0.6570092598	-4.1489291572	 0.1594521527	-0.403313
C	 1.2080018302	 0.0298076309	-2.0986220849	 0.105459
O	 1.2704701361	 1.2067447807	-2.3407144919	-0.239812
H	 0.9137762543	 1.9568842693	 0.1036992904	 0.124636
H	-0.648097332	 1.9390468967	-0.7021384945	 0.125273
H	-0.5709654122	 1.7859278242	 1.0642194465	 0.110205
H	 0.8547266216	-2.3907562161	-1.7645927238	 0.234466
H	 0.1146461804	-2.266239368	 1.0669978333	 0.114928
H	-1.7308671525	-3.3938540506	-1.105369953	 0.101796
H	-2.0202160899	-3.4787324304	 0.6413236628	 0.113984
H	-1.9904731731	-1.9021496789	-0.1695657473	 0.141022
H	 1.7237348678	-4.0492654187	 0.3789566226	 0.123216
H	 0.2016775557	-4.7772933738	 0.929961747	 0.124137
H	 0.5515756335	-4.6759064486	-0.7974609104	 0.109287
H	 1.6641176023	-0.7197105153	-2.7900675347	 0.07205
53.6613	64.8919	104.4251	143.4524	171.7976	232.6845	234.5074	245.9364	266.7485	310.7977	355.9255	398.9361	410.5586	445.4483	475.6067	563.0479	762.7101	842.0921	851.9829	929.1746	950.5793	980.0648	1003.1736	1086.5029	1106.7185	1133.8518	1144.6708	1192.4839	1206.7532	1272.8528	1340.2122	1381.9803	1393.3225	1416.189	1436.9055	1446.3932	1479.6118	1483.5117	1489.3713	1494.4768	1501.255	1511.5742	1532.9237	1691.2435	1829.341	2833.7601	3011.0499	3025.4536	3031.4732	3064.9394	3065.4898	3090.3636	3093.5908	3103.7144	3120.9557	3132.4119	3611.2292
CN=C(NC(C)C)C=O	CN=C(NC(C)C)C=O	
InChI=1S/C6H12N2O/c1-5(2)8-6(4-9)7-3/h4-5H,1-3H3,(H,7,8)	InChI=1S/C6H12N2O/c1-5(2)8-6(4-9)7-3/h4-5H,1-3H3,(H,7,8)
