15
gdb 34271	3.94132	1.54484	1.24101	2.0752	77.92	-0.2446	-0.0519	0.1927	971.1437	0.11229	-379.529654	-379.522706	-379.521762	-379.560701	27.909	
C	 0.0193716178	-1.147367827	 0.2338013177	-0.371422
C	 0.0073301036	 0.0445858997	 0.0758268292	 0.21009
C	-0.0287208989	 1.4722485647	-0.0516547639	 0.113323
C	-1.2828152391	 2.2354069478	 0.4348642201	-0.241461
N	-0.9539209425	 3.6154232354	 0.0166401263	-0.198165
C	-0.0201903971	 3.4729181276	-0.836339442	 0.139464
C	 1.4158422302	 3.7466866929	-0.4417539036	-0.261653
C	 1.3394272772	 2.1810702621	-0.3171004342	-0.096489
N	 0.2797567545	 2.0936191496	-1.3566648558	-0.15251
H	 0.0304269776	-2.2020994901	 0.3588085244	 0.198181
H	-2.1781730214	 1.7983085531	-0.0280421136	 0.131533
H	-1.4231020159	 2.2364988474	 1.5193406478	 0.132535
H	 2.1286385346	 3.9801353894	-1.237091593	 0.136883
H	 1.5472582173	 4.3807984045	 0.4330268646	 0.137988
H	 2.223429942	 1.5509392129	-0.3983750239	 0.121703
146.1244	156.3113	293.2174	373.5555	443.8713	486.4031	508.1844	543.2013	632.9397	656.4749	657.5202	689.8691	785.1863	787.1068	824.4064	915.0219	947.4997	971.6202	998.5205	1012.1723	1045.3213	1090.4989	1110.6526	1174.1174	1186.3977	1208.6004	1213.622	1268.9389	1344.5071	1478.6349	1486.6073	1640.0987	2236.3673	3017.9838	3071.6715	3090.9554	3130.5834	3163.7413	3501.1157
C#CC12CN=C3CC1N23	C#C[C@@]12C[N][C]3C[C@@H]1N23	
InChI=1S/C7H6N2/c1-2-7-4-8-6-3-5(7)9(6)7/h1,5H,3-4H2	InChI=1S/C7H6N2/c1-2-7-4-8-6-3-5(7)9(6)7/h1,5H,3-4H2/t5-,7+,9?/m0/s1
