21
gdb 100147	4.07035	0.67525	0.6649	4.4178	76.3	-0.245	-0.0148	0.2302	1728.0787	0.178531	-461.371428	-461.36043	-461.359486	-461.408139	39.179	
C	-0.106227558	 1.6029189636	 0.1590026351	-0.425821
C	-0.0448580843	 0.0794948397	-0.0391421735	 0.363036
O	 0.6993235375	-0.5257877667	 1.0164362661	-0.476028
C	-1.46197876	-0.5157570219	-0.0228021927	-0.112461
O	-1.9835181865	-0.2995179744	 1.2862554646	-0.434999
C	 0.657834599	-0.3161020421	-1.3471414619	-0.221142
C	 2.1273155226	 0.1349834625	-1.4196072471	-0.284416
C	 2.8613383575	-0.5460890589	-2.5489628798	 0.158007
O	 3.4655333567	 0.0159919301	-3.4258388889	-0.241658
H	 0.8987324682	 2.0107876638	 0.2864962705	 0.125088
H	-0.5780409454	 2.0971647485	-0.6971923892	 0.109131
H	-0.6899856515	 1.840006529	 1.0520830693	 0.129636
H	 0.1158693016	-0.5177523058	 1.7859072752	 0.28628
H	-2.091824367	-0.0354693411	-0.786146895	 0.09285
H	-1.4010198913	-1.5901703168	-0.2449456931	 0.094467
H	-2.7643378865	-0.8469526797	 1.4031604216	 0.296713
H	 0.6194369773	-1.4097220069	-1.4290064819	 0.102494
H	 0.099507546	 0.0918616127	-2.1977998233	 0.106061
H	 2.227154908	 1.2157431954	-1.5444035299	 0.119684
H	 2.6158681379	-0.156115018	-0.4802096297	 0.145213
H	 2.8057612683	-1.661185043	-2.5189602363	 0.067866
51.5965	67.7724	97.6525	139.8555	152.2289	227.4994	239.3024	266.0309	295.3856	336.7626	361.5057	405.2219	446.7336	456.1868	533.0942	623.478	766.8165	776.1274	843.4551	915.5635	956.0663	966.6381	1000.843	1053.4689	1064.9377	1086.0539	1143.8326	1170.8762	1187.57	1223.1794	1238.3688	1273.5532	1291.4293	1341.1117	1369.5215	1398.8154	1415.4987	1431.4989	1446.4934	1463.4984	1481.2403	1492.8032	1502.6303	1510.452	1836.1204	2842.0323	2987.3789	3022.7561	3031.9044	3036.5217	3042.103	3068.3646	3113.1268	3115.1204	3134.2288	3776.1653	3847.3926
CC(O)(CO)CCC=O	C[C@@](O)(CO)CCC=O	
InChI=1S/C6H12O3/c1-6(9,5-8)3-2-4-7/h4,8-9H,2-3,5H2,1H3	InChI=1S/C6H12O3/c1-6(9,5-8)3-2-4-7/h4,8-9H,2-3,5H2,1H3/t6-/m0/s1
