20
gdb 74002	2.77845	1.86838	1.43499	1.4582	85.33	-0.1999	0.0022	0.2021	982.0497	0.173	-365.946393	-365.93911	-365.938166	-365.977685	29.931	
C	-0.1375754332	 1.4282222501	-0.0381431582	-0.488208
C	 0.0058075378	-0.0355196115	 0.2286116894	 0.241437
C	-0.9778607848	-0.9139280807	 0.4807241021	 0.003431
C	-2.2507847005	-1.2069671108	-0.3107547574	-0.221023
N	-1.5227847214	-2.4173868109	-0.8715422961	-0.14471
C	-0.3428765244	-2.0666006465	-1.7632237015	-0.182181
C	 0.7021462274	-2.1538547799	-0.585099436	-0.035775
C	 1.2941233421	-0.8093167306	-0.1006214569	-0.307803
C	-0.5421405489	-2.3505602498	 0.2915807396	-0.003148
H	 0.4414235584	 2.0232677215	 0.6809354405	 0.128552
H	 0.2402082444	 1.6982517645	-1.0335005068	 0.118492
H	-1.180764803	 1.7494403979	 0.0364974862	 0.122482
H	-3.1150449696	-1.5652830894	 0.2560913419	 0.114281
H	-2.5749322661	-0.4572091261	-1.0398414882	 0.106409
H	-0.2165893007	-2.8386750533	-2.5254325257	 0.111034
H	-0.4218200017	-1.092967401	-2.2587386076	 0.101024
H	 1.4199423435	-2.9714014478	-0.6815039177	 0.063476
H	 1.8595803291	-0.290074119	-0.8844459638	 0.100976
H	 1.9851658341	-0.945807743	 0.7436714439	 0.101996
H	-0.6315876127	-3.0936696135	 1.0866249024	 0.06926
148.0202	174.5864	226.9553	340.0993	359.7726	393.3265	477.868	571.4757	591.0597	702.4011	737.1666	784.7954	798.2482	862.8501	893.2811	900.3821	944.4822	950.7702	962.272	973.662	1009.5867	1024.2614	1077.2313	1078.3147	1105.7895	1152.5061	1172.4897	1178.8122	1199.5943	1219.8133	1248.5195	1262.9824	1283.3506	1289.6751	1308.3377	1335.1208	1410.7038	1471.8428	1481.4556	1485.8133	1491.1931	1496.5894	1694.8456	2999.9157	3007.397	3041.8508	3044.7671	3047.8383	3050.269	3078.6159	3090.2391	3096.2956	3101.9468	3106.9072
CC1=C2CN3CC(C1)C23	C[C]1[C]2CN3C[C@@H](C1)[C@@H]23	
InChI=1S/C8H11N/c1-5-2-6-3-9-4-7(5)8(6)9/h6,8H,2-4H2,1H3	InChI=1S/C8H11N/c1-5-2-6-3-9-4-7(5)8(6)9/h6,8H,2-4H2,1H3/t6-,8+/m1/s1
