19
gdb 56169	3.20114	1.00819	0.89862	1.5024	72.28	-0.2545	0.0095	0.2641	1361.5265	0.156536	-460.185159	-460.175267	-460.174322	-460.221189	35.4	
C	 0.2323936564	 1.2970680388	-0.1972142762	-0.475252
C	 0.2600224975	-0.2123865383	-0.2004398217	 0.436162
O	 1.0219229351	-0.8967297907	 0.4339248089	-0.349593
O	-0.7071097583	-0.699010601	-1.0140331049	-0.259936
C	-0.8133207836	-2.1408488207	-1.1221536666	-0.147114
C	-0.1590010269	-2.6059895493	-2.3942126182	 0.411672
O	-0.7628840342	-2.1088606872	-3.5578440502	-0.471534
C	 1.3293817483	-2.8646563864	-2.4176505933	-0.321562
C	 0.3411430712	-4.0127511495	-2.4920891295	-0.309801
H	 1.0081999334	 1.6729453787	 0.4683917871	 0.150263
H	 0.3935979412	 1.6774533439	-1.2099373816	 0.147142
H	-0.7483361335	 1.6528125122	 0.1306455259	 0.152395
H	-0.3594155038	-2.6001724356	-0.2432812771	 0.13492
H	-1.8869132024	-2.3444959289	-1.149643247	 0.119107
H	-0.6988995518	-1.1475259774	-3.5174226951	 0.284205
H	 1.8482655583	-2.6035763574	-3.3327781085	 0.11621
H	 1.8911471679	-2.7183204705	-1.5024373192	 0.137419
H	 0.2360204412	-4.6667710478	-1.6333499186	 0.117424
H	 0.2075924342	-4.4953846129	-3.4531819941	 0.127872
48.1372	64.9858	71.4411	91.9307	232.268	253.8956	308.0425	350.4232	376.4162	420.4761	441.5931	540.0426	606.4767	650.5658	748.2588	783.2212	840.3727	918.5125	926.9321	941.1399	976.8423	989.0826	1037.2145	1058.2211	1061.0322	1066.0207	1084.0207	1191.3087	1233.1012	1259.8386	1303.945	1326.5733	1379.3336	1394.795	1423.1965	1455.9249	1468.3902	1476.5323	1478.168	1505.4873	1823.4461	3057.7273	3071.7925	3122.4959	3138.2771	3140.6592	3143.7088	3170.5431	3225.4619	3240.1953	3792.8782
CC(=O)OCC1(O)CC1	CC(=O)OCC1(O)CC1	
InChI=1S/C6H10O3/c1-5(7)9-4-6(8)2-3-6/h8H,2-4H2,1H3	InChI=1S/C6H10O3/c1-5(7)9-4-6(8)2-3-6/h8H,2-4H2,1H3
