17
gdb 67202	2.86834	1.51132	1.22351	3.5402	76.6	-0.2401	0.0308	0.2709	1044.0753	0.137253	-380.821442	-380.813831	-380.812887	-380.853534	29.353	
C	-0.0054426148	 1.588376426	-0.1820613014	-0.535055
C	 0.0190545404	 0.1040872507	-0.0422961013	 0.355528
C	 0.0568394832	-1.0369175842	-1.0083436309	-0.102873
N	 1.2635019494	-1.6097042548	-0.4143415816	-0.303544
C	 0.8990476789	-0.8894684459	 0.826343354	-0.07778
C	-0.4404792478	-1.5554837826	 1.3325756553	-0.188767
C	-0.9422334996	-0.9491376884	 2.5552163604	 0.273403
N	-1.3225315573	-0.4639441154	 3.5339937979	-0.333042
C	-1.0618442748	-0.960065198	 0.0665470946	-0.126563
H	 0.9689904548	 1.9728900389	-0.501718817	 0.134283
H	-0.7465412679	 1.8898377242	-0.9297708098	 0.12907
H	-0.2703522088	 2.0729009364	 0.7635886788	 0.141749
H	-0.1588871245	-1.0603137969	-2.0692833652	 0.105982
H	 1.2586571337	-2.6270456353	-0.3175213681	 0.213574
H	 1.6902508197	-0.6488893406	 1.5331295474	 0.101282
H	-0.4213178146	-2.6467250471	 1.4439441453	 0.10701
H	-2.1132187301	-0.880406507	-0.1766544082	 0.105743
99.7579	156.7516	209.2301	239.9346	277.1547	399.2943	484.4492	530.0752	546.0391	612.8393	765.086	783.6	826.1038	856.9739	882.8142	910.4966	958.3453	972.1231	995.5136	1018.1351	1036.3402	1065.5164	1095.9783	1120.1683	1152.0294	1167.9197	1204.7434	1218.7981	1228.6714	1289.4205	1340.6016	1358.3308	1413.1876	1469.5708	1483.6578	1497.6021	2350.2024	3030.4373	3032.3327	3097.0518	3100.5859	3145.0186	3195.0325	3209.5094	3419.6455
CC12C3NC1C(C#N)C23	C[C@@]12[C@H]3N[C@@H]1[C@@H](C#N)[C@@H]23	
InChI=1S/C7H8N2/c1-7-4-3(2-8)5(7)9-6(4)7/h3-6,9H,1H3	InChI=1S/C7H8N2/c1-7-4-3(2-8)5(7)9-6(4)7/h3-6,9H,1H3/t3-,4+,5+,6-,7-/m0/s1
