19
gdb 78658	2.65387	1.55127	1.20867	2.3455	74.99	-0.2365	0.0736	0.3101	1079.8674	0.158586	-422.973341	-422.964917	-422.963973	-423.005707	33.241	
C	 0.0104450942	 1.4443525262	 0.073718188	-0.51337
C	 0.0062236459	-0.0529006875	-0.0174233306	 0.330945
C	-0.9329069217	-0.9270515404	 0.8190503785	-0.160128
C	 0.5744029772	-1.0789861214	 0.9457127241	-0.168041
C	 0.4434545662	-2.1146011689	-0.2440107408	-0.176768
C	-1.0571820289	-2.2859121594	 0.1293772118	 0.167993
O	-1.3272735424	-3.3581984932	 1.0054622381	-0.451112
C	 0.4539385566	-0.8939276355	-1.2030662756	 0.08074
O	-0.4013882938	-0.8795232539	-2.3252964151	-0.439417
H	 0.978011888	 1.855536116	-0.2358832573	 0.116999
H	-0.7603797679	 1.8785694254	-0.5721196022	 0.13391
H	-0.1834825679	 1.7810223151	 1.0975269044	 0.118234
H	-1.6223016273	-0.476222986	 1.5230097536	 0.085887
H	 1.2637267255	-0.9597931287	 1.7684241676	 0.091866
H	 1.0642229586	-2.9919834803	-0.4188577765	 0.066871
H	-1.7595339405	-2.3854978376	-0.7011278418	 0.093597
H	-0.7656019663	-3.2448155143	 1.7819853541	 0.275733
H	 1.4833607521	-0.6228475304	-1.4816673052	 0.063426
H	 0.0004504225	-1.4054759953	-3.0241845751	 0.282634
175.9846	187.7289	199.9887	231.164	249.1902	256.1683	341.4487	381.6251	419.7876	508.3627	593.2012	660.8571	748.8373	798.0187	827.3652	845.758	885.666	897.0577	924.8235	966.5239	973.5007	1020.9678	1027.1359	1085.9072	1101.58	1110.1848	1137.0677	1151.9969	1164.8401	1217.9638	1236.8877	1249.1021	1288.378	1295.6958	1331.1589	1386.4956	1417.3088	1433.9558	1456.7005	1485.7429	1500.4207	2990.136	3026.3874	3089.2997	3095.9694	3097.677	3130.4388	3188.2628	3225.9769	3778.8148	3815.5826
CC12C3C1C(C3O)C2O	C[C@]12[C@@H]3[C@H]1[C@@H]([C@H]3O)[C@H]2O	
InChI=1S/C7H10O2/c1-7-3-2(6(7)9)5(8)4(3)7/h2-6,8-9H,1H3	InChI=1S/C7H10O2/c1-7-3-2(6(7)9)5(8)4(3)7/h2-6,8-9H,1H3/t2-,3+,4+,5+,6+,7+/m0/s1
