25
gdb 116453	2.42684	1.26955	0.9793	1.1311	88.73	-0.2412	0.0809	0.3221	1359.0582	0.230074	-389.516508	-389.506829	-389.505885	-389.550576	37.521	
C	-0.0219260044	 1.6035749202	-0.05799246	-0.386165
C	 0.0466195612	 0.0755773961	 0.0123863984	-0.198655
C	 0.7470860815	-0.543324283	-1.1951007468	 0.151921
O	 2.1069434945	-0.1120382829	-1.1631463648	-0.262968
C	 2.8172794808	-0.4488150469	-2.3429513174	-0.06346
C	 2.8597658502	-1.9615141669	-2.5678132786	-0.199299
C	 1.4352048323	-2.5352615104	-2.5400398673	-0.221042
C	 0.6659910434	-2.0835549426	-1.2797920359	 0.01256
C	 1.1722474266	-2.7798877052	-0.0072715518	-0.395407
H	 0.9821351528	 2.0269080526	-0.1416617581	 0.13309
H	-0.5998195551	 1.9340979043	-0.9286509721	 0.107371
H	-0.4978667371	 2.0199365474	 0.8350449035	 0.106547
H	 0.577005943	-0.2282244393	 0.921466777	 0.106878
H	-0.9642633285	-0.3461541097	 0.0782270318	 0.090668
H	 0.2770868638	-0.1393898714	-2.1122863605	 0.051198
H	 2.349205058	 0.0440553166	-3.2137527439	 0.08071
H	 3.8223982131	-0.0323005081	-2.2246587694	 0.100728
H	 3.3467411008	-2.1787467957	-3.5256608695	 0.091388
H	 3.473019034	-2.4231205152	-1.7856065996	 0.104843
H	 0.8944959555	-2.1833598749	-3.429167685	 0.089382
H	 1.4579754462	-3.6292354037	-2.5999362602	 0.089941
H	-0.3917419734	-2.3454867083	-1.4172050045	 0.063633
H	 2.168429985	-2.4251421869	 0.2710813488	 0.127279
H	 0.5070720846	-2.5972624413	 0.841419242	 0.11388
H	 1.2259383712	-3.8635595547	-0.1554102461	 0.104978
98.5707	120.0571	159.4746	200.5379	220.3759	234.8632	298.5523	322.7059	350.7342	394.9503	452.4369	500.3077	558.2468	662.7961	755.6207	797.1485	852.2156	869.3718	891.874	904.8704	961.3886	964.4581	1014.2758	1032.8724	1036.7817	1064.5259	1098.6972	1118.2708	1131.0854	1161.4826	1186.7987	1227.3238	1240.186	1289.5981	1310.8996	1314.4794	1339.0615	1354.6134	1367.264	1375.5093	1388.8223	1404.5293	1407.0982	1415.2161	1423.5419	1475.5346	1478.1505	1488.0194	1496.423	1498.2225	1502.7885	1510.1944	1511.0893	2913.9294	2948.9233	3006.2264	3020.0786	3030.0015	3032.9257	3035.0942	3039.4217	3059.3533	3071.5607	3073.3112	3080.2265	3099.6894	3103.1618	3117.6068	3124.5077
CCC1OCCCC1C	CC[C@H]1OCCC[C@H]1C	
InChI=1S/C8H16O/c1-3-8-7(2)5-4-6-9-8/h7-8H,3-6H2,1-2H3	InChI=1S/C8H16O/c1-3-8-7(2)5-4-6-9-8/h7-8H,3-6H2,1-2H3/t7-,8-/m1/s1
