18
gdb 32210	2.74987	1.41815	1.0109	3.8436	81.39	-0.2286	-0.0174	0.2112	1184.7426	0.149172	-402.01522	-402.006943	-402.005999	-402.048125	31.477	
C	 0.0323855785	 1.593294381	 0.0760185271	-0.37547
C	-0.0000457415	 0.0556946332	-0.0193578525	-0.332934
C	 0.704468012	-0.4790446225	-1.2444358482	 0.186527
C	 0.0018481607	-0.8945935935	-2.3759556298	-0.18577
C	 0.6852912717	-1.3522277217	-3.496272848	-0.009969
N	 2.0181466173	-1.4249708784	-3.5575264176	-0.270059
C	 2.701251706	-1.0369998966	-2.4837591069	-0.045766
C	 2.1014492172	-0.5592893749	-1.315843507	 0.261614
O	 2.9317423323	-0.1922129268	-0.2978244371	-0.43755
H	 1.0585817833	 1.9742741755	 0.0993684025	 0.124708
H	-0.4615951319	 2.0417970066	-0.790572986	 0.133561
H	-0.4788958075	 1.9386210148	 0.9795625981	 0.121551
H	 0.4364926933	-0.3795562227	 0.8918653019	 0.102866
H	-1.0399688516	-0.2854121709	-0.0329863758	 0.118137
H	-1.0836614844	-0.8609106074	-2.3781030825	 0.092613
H	 0.1413219661	-1.6766979157	-4.3793125848	 0.103113
H	 3.7860478451	-1.0975492606	-2.5254030744	 0.113256
H	 2.4104479036	 0.0583269007	 0.4709630609	 0.299573
80.1821	126.1462	212.6334	228.7535	310.541	324.88	345.2472	425.6616	483.9837	537.6755	602.4193	617.7239	750.9296	777.9503	793.4541	853.1805	859.1221	947.3584	971.4991	974.1779	1048.6409	1081.0851	1099.6268	1151.4486	1227.8914	1232.1939	1261.1458	1304.6534	1324.0492	1346.8595	1354.7088	1412.8408	1464.967	1493.9565	1499.0932	1512.5894	1524.339	1605.798	1644.6652	2997.8851	3039.2941	3070.9197	3109.655	3118.1998	3157.228	3160.6188	3177.8146	3833.2487
CCC1=CC=NC=C1O	CCc1ccncc1O	
InChI=1S/C7H9NO/c1-2-6-3-4-8-5-7(6)9/h3-5,9H,2H2,1H3	InChI=1S/C7H9NO/c1-2-6-3-4-8-5-7(6)9/h3-5,9H,2H2,1H3
