21
gdb 53351	3.34074	0.9484	0.80106	0.2205	92.84	-0.2374	0.0249	0.2623	1504.8984	0.181907	-349.950165	-349.940314	-349.93937	-349.98655	35.597	
C	 0.3824814518	 1.5645280239	-0.5810246601	-0.499455
C	 0.2194951895	 0.1453147844	-0.297100979	 0.074286
C	 0.0887187227	-1.0295206588	-0.0628884089	 0.062602
C	-0.0591937493	-2.4481854973	 0.2272899911	-0.183734
C	 0.2772946832	-2.8508451083	 1.696388753	-0.258457
C	-0.5839667525	-4.071829451	 1.9056253492	-0.073554
C	-1.5134991868	-4.1959372169	 0.960497806	-0.066712
C	-1.4801322206	-3.0643337259	-0.0444050727	-0.031736
C	-2.6547733316	-2.0931685827	 0.1529766201	-0.386288
H	 1.1944291413	 1.9990970482	 0.0130006618	 0.145614
H	 0.6186056957	 1.7369248618	-1.6371592455	 0.14513
H	-0.5301208003	 2.1259088436	-0.3512178114	 0.145346
H	 0.6375322297	-3.0047272434	-0.4123855927	 0.10276
H	 1.3480726767	-3.0404698534	 1.8258642466	 0.107086
H	 0.0150801786	-2.051315445	 2.4015697695	 0.11435
H	-0.4597436569	-4.734961624	 2.7548667596	 0.091064
H	-2.2694622399	-4.9734922966	 0.9226808136	 0.089028
H	-1.5219694246	-3.4384424763	-1.0746515523	 0.076406
H	-2.6515203193	-1.6692673106	 1.162228535	 0.117726
H	-2.6036715068	-1.2670541911	-0.5613945878	 0.122532
H	-3.6081495408	-2.6131149607	 0.0115321148	 0.106007
16.9204	70.5767	89.9172	148.0724	230.1335	260.7286	269.4383	303.7773	367.8413	438.1652	482.8568	519.8812	652.136	728.7157	753.1317	773.0202	855.4241	899.046	961.116	974.1924	985.1179	986.2531	1053.2743	1053.9923	1074.558	1086.0536	1113.1944	1137.6885	1169.5161	1182.5008	1277.9853	1299.287	1303.1665	1352.185	1352.6756	1365.7639	1406.8231	1415.2886	1479.2783	1479.7539	1488.7862	1493.4589	1495.7932	1686.5186	2366.0163	3009.8408	3023.4661	3023.9387	3028.486	3034.7023	3067.2576	3082.8312	3083.2621	3101.9788	3116.4338	3174.813	3200.9052
CC#CC1CC=CC1C	CC#C[C@H]1CC=C[C@H]1C	
InChI=1S/C9H12/c1-3-5-9-7-4-6-8(9)2/h4,6,8-9H,7H2,1-2H3	InChI=1S/C9H12/c1-3-5-9-7-4-6-8(9)2/h4,6,8-9H,7H2,1-2H3/t8-,9+/m1/s1
