13
gdb 132033	2.3266	1.83516	1.02593	6.06	67.	-0.2028	-0.0149	0.188	1033.2925	0.089048	-502.012889	-502.005418	-502.004474	-502.04486	28.005	
F	 0.0719263352	 0.0332475418	 0.0026277246	-0.042671
C	-0.0299030395	 1.353629663	 0.0110671986	 0.267661
C	-1.2092688565	 2.0092864042	 0.0307565503	 0.041976
F	-2.3388537132	 1.311286574	 0.0425182475	-0.043998
C	-1.2765385917	 3.4688670054	 0.0395340299	 0.206071
N	-2.4246830687	 4.0523253316	 0.0584612614	-0.556891
C	 0.0477395245	 4.0953638571	 0.0246075525	-0.214619
C	 1.1936678518	 3.3832718943	 0.0050754875	 0.018472
N	 1.1738842587	 2.0097464617	-0.0019949411	-0.404825
H	-2.297605217	 5.0660950657	 0.0620999468	 0.202979
H	 0.0998796663	 5.177843631	 0.0296107351	 0.108543
H	 2.1773603243	 3.8341361034	-0.0060426198	 0.1402
H	 2.016746906	 1.4606616368	-0.0162377433	 0.277102
121.0662	185.6105	256.9036	282.8451	296.207	326.4181	488.0497	508.884	521.9131	560.5856	587.4823	695.2676	707.0766	788.6165	860.3837	862.967	933.35	1031.729	1090.9189	1176.2414	1228.0639	1286.142	1307.7932	1401.5142	1431.5592	1547.2477	1627.2301	1684.8374	1748.8966	3197.6862	3224.7937	3449.2561	3670.0673
FC1=C(F)C(=N)C=CN1	F[C@@H]1C(=C([NH])C=CN1)F	
InChI=1S/C5H4F2N2/c6-4-3(8)1-2-9-5(4)7/h1-2H,(H2,8,9)	InChI=1S/C5H5F2N2/c6-4-3(8)1-2-9-5(4)7/h1-2,5,8-9H/t5-/m0/s1
