14
gdb 35077	4.07014	1.38336	1.31765	4.0216	70.67	-0.2666	-0.0725	0.1941	957.298	0.102236	-395.629927	-395.623425	-395.622481	-395.660969	25.336	
N	-0.1117378118	-1.1873044119	 0.0473388633	-0.316244
C	-0.0737602125	-0.0331757132	 0.0691385133	 0.306397
C	 0.0170203749	 1.4289849637	 0.0537703458	-0.145385
N	-0.4603274929	 1.9671576684	 1.3624259225	-0.18844
C	 0.3737804452	 2.8947162446	 1.6261166424	 0.158278
C	 1.4718497239	 2.6668133111	 2.6399381887	-0.256747
C	 2.2306106225	 2.4263519118	 1.278034906	-0.058446
C	 1.4525283921	 1.9959402248	 0.0192956109	-0.062132
N	 1.3066365997	 3.3503391863	 0.5490088554	-0.130315
H	-0.5363532982	 1.8006208383	-0.8209731859	 0.146187
H	 1.9170760685	 3.5434839402	 3.1158412146	 0.143082
H	 1.2973975149	 1.8536778618	 3.3415986268	 0.149982
H	 3.3062042135	 2.5727584763	 1.1971626367	 0.128071
H	 2.0460566202	 1.876243068	-0.8836386504	 0.125712
101.0389	167.2019	326.1968	411.38	449.8319	512.435	547.3072	653.224	706.1729	717.128	780.2273	845.1364	866.266	913.0836	921.5028	980.337	1006.5681	1030.2783	1053.198	1071.1886	1103.0436	1135.3534	1149.4944	1209.0162	1230.8761	1290.8818	1328.8727	1333.9198	1483.0883	1632.9934	2366.6649	3007.0512	3081.6004	3132.5642	3159.5743	3171.6782
N#CC1N=C2CC3C1N23	N#C[C@H]1[N][C]2C[C@H]3[C@@H]1N23	
InChI=1S/C6H5N3/c7-2-3-6-4-1-5(8-3)9(4)6/h3-4,6H,1H2	InChI=1S/C6H5N3/c7-2-3-6-4-1-5(8-3)9(4)6/h3-4,6H,1H2/t3-,4+,6-,9?/m1/s1
