19
gdb 109566	2.68493	1.25967	0.99408	1.5904	71.87	-0.2518	-0.0327	0.2191	1240.6668	0.157217	-460.165971	-460.156353	-460.155408	-460.200525	35.137	
C	 0.1483001608	 1.4824104499	 0.2369648958	-0.390155
C	 0.0656784825	-0.016036293	-0.0746751926	-0.1925
C	-1.354432748	-0.5590712263	 0.0320166431	-0.113082
C	-1.6242927289	-2.1032217315	-0.0676641704	 0.056818
O	-0.5350524107	-2.846991566	 0.4134447354	-0.432898
C	-2.7193309519	-1.9702221396	 1.0504520487	 0.018929
O	-2.7275475775	-2.9707054533	 2.0336987032	-0.440001
C	-2.0157415441	-0.6568634463	 1.4119975399	 0.331523
O	-1.8269057121	-0.1542385557	 2.4860251323	-0.313717
H	 1.179480905	 1.8394110888	 0.1571919943	 0.114503
H	-0.4613219847	 2.0695288116	-0.4593529154	 0.108879
H	-0.2060672756	 1.6876917669	 1.2507605475	 0.143021
H	 0.4421759577	-0.213394398	-1.0857397171	 0.102912
H	 0.7042023251	-0.5826622794	 0.608945625	 0.12224
H	-2.0315557097	-0.0372561163	-0.6575956937	 0.100919
H	-1.9669068568	-2.4671469901	-1.0424532048	 0.075532
H	-0.8984564848	-3.4481052859	 1.0806162555	 0.292182
H	-3.7184566297	-1.8179167167	 0.624330329	 0.108715
H	-2.4731335865	-2.5467024092	 2.8646194743	 0.306181
77.0005	96.456	137.7395	174.7577	203.2686	251.7805	261.0672	311.1775	319.2472	459.7514	510.8567	538.7202	573.3462	632.5678	762.3555	799.0497	820.9912	855.7569	924.2366	947.024	991.5152	1044.4532	1058.3041	1107.7004	1147.5036	1150.0828	1176.8222	1225.3332	1245.3152	1269.055	1327.691	1338.8613	1363.8511	1371.1637	1382.5942	1401.3579	1412.4671	1491.3704	1500.19	1512.2283	1866.1238	3024.8136	3034.0583	3034.3587	3036.761	3049.9135	3086.7121	3105.3864	3122.5322	3717.2934	3757.2778
CCC1C(O)C(O)C1=O	CC[C@H]1[C@@H](O)[C@@H](O)C1=O	
InChI=1S/C6H10O3/c1-2-3-4(7)6(9)5(3)8/h3-4,6-7,9H,2H2,1H3	InChI=1S/C6H10O3/c1-2-3-4(7)6(9)5(3)8/h3-4,6-7,9H,2H2,1H3/t3-,4+,6+/m0/s1
