13
gdb 133141	2.37457	1.86842	1.05247	2.2653	67.69	-0.2617	-0.0932	0.1685	1036.6963	0.086527	-493.98621	-493.978224	-493.977279	-494.019127	28.631	
C	-0.0029636722	 1.511172881	-0.0538532079	-0.47386
C	-0.0511711241	 0.0186281708	-0.103848596	 0.196561
C	-1.1247596295	-0.739490326	 0.1778711413	 0.161917
F	-2.2729206636	-0.2038661759	 0.5375657246	-0.024969
C	-1.082424885	-2.1945303344	 0.1029876929	 0.35288
N	-2.0832662582	-2.9227380868	 0.3678286332	-0.517797
O	 0.1378137418	-2.6972423058	-0.2799385632	-0.295968
N	 1.2849857692	-1.8340826746	-0.5758302537	 0.039312
N	 1.1397730838	-0.6220865099	-0.4794912411	-0.144232
H	 0.7623715673	 1.842927185	 0.6551938909	 0.157413
H	 0.2668974155	 1.9153123568	-1.0348705696	 0.157401
H	-0.9676684041	 1.9204592499	 0.2466673338	 0.151745
H	-1.8512422608	-3.9108345801	 0.2573165248	 0.239597
96.2716	113.8137	132.7703	273.1638	286.3083	299.1889	442.7339	493.9926	495.1637	527.3622	623.5335	630.6054	736.3111	764.522	869.0788	886.6403	953.4864	1024.2091	1064.313	1123.0961	1237.461	1258.5239	1392.638	1432.4157	1478.0295	1481.0206	1621.2285	1704.9774	1742.429	3046.9571	3103.4019	3156.5112	3488.9648
CC1=C(F)C(=N)ON=N1	CC1=N[N]OC(=C1F)[NH]	
InChI=1S/C4H4FN3O/c1-2-3(5)4(6)9-8-7-2/h6H,1H3	InChI=1S/C4H4FN3O/c1-2-3(5)4(6)9-8-7-2/h6H,1H3
