20
gdb 19149	3.53982	1.49317	1.21953	1.6268	74.54	-0.2589	0.0864	0.3453	1065.2534	0.176234	-348.968779	-348.960211	-348.959267	-349.002346	31.949	
C	-0.3228360714	 1.7425295987	 0.1180823661	-0.409239
C	-0.3822634439	 0.2145125285	 0.1841212077	-0.239426
C	 0.6349383736	-0.4921179168	 1.0814817494	 0.334998
C	 2.0175033022	 0.0749934917	 1.2814220505	-0.309301
C	 1.0278204234	 0.0900302246	 2.421317249	-0.301177
C	 0.4370125175	-1.9797845751	 1.0416404289	 0.017344
O	 0.7983086365	-2.6674475377	-0.1650739822	-0.242012
C	 1.5035251386	-2.9888117114	 1.0324401424	-0.182721
H	 0.6256210776	 2.0993246676	-0.2945474984	 0.121678
H	-1.1194192244	 2.1173701292	-0.531676891	 0.117799
H	-0.4607751059	 2.2059868867	 1.1001716798	 0.11773
H	-1.3868381163	-0.0861943774	 0.5135180717	 0.095405
H	-0.2648067333	-0.1929032977	-0.827660027	 0.118853
H	 2.8635253744	-0.5986953799	 1.3452671609	 0.110917
H	 2.2513031288	 1.0192432753	 0.8037007401	 0.114103
H	 0.6037320078	 1.0411998903	 2.7224980299	 0.113
H	 1.1902217528	-0.6011271302	 3.2420146755	 0.109721
H	-0.5323102984	-2.2997780087	 1.4336631889	 0.088674
H	 2.549075294	-2.6892687037	 1.0511260961	 0.113871
H	 1.3043683161	-3.9780726438	 1.4447135317	 0.109784
49.5541	69.0335	178.85	239.7202	265.475	290.4586	329.002	403.18	461.1631	533.4048	663.9779	771.7508	780.4621	834.0367	858.388	903.4092	927.3436	946.985	960.7413	1031.583	1045.5509	1054.5539	1082.2756	1088.1874	1103.3654	1147.1106	1161.4216	1173.4613	1186.6729	1244.6511	1296.8662	1316.9095	1343.2372	1390.2368	1417.0134	1440.7843	1461.5689	1489.7642	1501.0016	1509.2871	1515.9934	1531.8017	3008.9615	3040.397	3050.1012	3069.1121	3083.6039	3105.1378	3110.393	3132.9854	3146.9471	3168.5467	3212.1594	3229.1412
CCC1(CC1)C1OC1	CCC1(CC1)[C@H]1OC1	
InChI=1S/C7H12O/c1-2-7(3-4-7)6-5-8-6/h6H,2-5H2,1H3	InChI=1S/C7H12O/c1-2-7(3-4-7)6-5-8-6/h6H,2-5H2,1H3/t6-/m0/s1
