17
gdb 99012	5.28875	0.702	0.62655	4.0034	67.8	-0.2519	-0.0354	0.2165	1713.2529	0.134255	-492.322625	-492.312354	-492.31141	-492.359607	34.726	
N	 0.3355263041	 1.3295354397	 0.0068773182	-0.482978
C	-0.0214706445	-0.0728192056	 0.0409620055	-0.280161
C	-1.5323594439	-0.3579921249	-0.0234706992	 0.393724
O	-2.3626576477	 0.5084384152	-0.0960489675	-0.297251
N	-1.8297839894	-1.7315992425	 0.0119104426	-0.389487
C	-3.0783865591	-2.3381148713	-0.0275467245	 0.401652
O	-4.1339974032	-1.755378444	-0.1007158597	-0.321946
C	-3.0411413351	-3.8690735789	 0.0299451788	-0.149002
O	-4.33498397	-4.3817379812	-0.0152018754	-0.414764
H	-0.0508977741	 1.7485496942	-0.8347352064	 0.24152
H	-0.1333894734	 1.8085061305	 0.7710305071	 0.241569
H	 0.4648341341	-0.5954662773	-0.794280326	 0.13286
H	 0.3778149951	-0.5308187277	 0.9564532689	 0.132912
H	-1.037902133	-2.3568083235	 0.0736836089	 0.261236
H	-2.4341893398	-4.2384494563	-0.8138482663	 0.115131
H	-2.5213162238	-4.1741567307	 0.9538094323	 0.115124
H	-4.9126249062	-3.6020390057	-0.0718076172	 0.299864
42.2039	54.5991	73.6686	110.5803	119.4644	194.742	260.9916	300.6333	349.7482	404.7554	421.0012	537.602	558.8178	636.8406	672.4881	729.2967	853.3356	922.259	933.2075	976.7025	1031.6998	1118.7764	1149.7339	1166.8834	1174.5035	1200.5289	1250.0399	1313.2377	1362.5672	1396.6871	1454.5931	1462.515	1504.7615	1520.6252	1679.2115	1801.8221	1861.5286	2964.2999	2982.0239	3013.3587	3049.7287	3495.8876	3562.7146	3593.9837	3666.3369
NCC(=O)NC(=O)CO	NCC(=O)NC(=O)CO	
InChI=1S/C4H8N2O3/c5-1-3(8)6-4(9)2-7/h7H,1-2,5H2,(H,6,8,9)	InChI=1S/C4H8N2O3/c5-1-3(8)6-4(9)2-7/h7H,1-2,5H2,(H,6,8,9)
