19
gdb 71991	1.91615	1.80118	1.68715	2.266	75.6	-0.2147	0.052	0.2668	997.7888	0.158003	-422.967545	-422.958845	-422.957901	-423.000124	33.988	
C	-0.1344352549	 1.4286321326	 0.0278785667	-0.501869
C	 0.012546822	-0.062089859	-0.0241399243	 0.24508
C	 0.9273858593	-0.8962812018	-0.9213424147	-0.273139
C	 0.1005433468	-2.126309771	-0.456498151	-0.142268
C	 0.4520246764	-2.2602544833	 1.0558650908	-0.290481
C	-0.2834794263	-0.9377224599	 1.2325070868	 0.26238
O	-0.6103183788	-0.2866722543	 2.4056660264	-0.464526
C	-1.0703011226	-1.1137362131	-0.0562085483	 0.255588
O	-2.3831202644	-0.970961316	-0.4250500142	-0.455004
H	 0.7934658349	 1.9045624167	 0.3655043534	 0.117383
H	-0.38068542	 1.8348877154	-0.959277893	 0.115723
H	-0.9259658738	 1.7177982824	 0.7238683932	 0.133038
H	 0.7642629962	-0.6621559685	-1.9778684226	 0.098323
H	 2.0035996201	-0.9113845726	-0.7100708788	 0.084789
H	-0.0014125679	-3.0133562098	-1.0776091829	 0.071444
H	-0.0820620514	-3.0910399121	 1.5309102651	 0.080886
H	 1.5158908494	-2.3105128764	 1.313992114	 0.092972
H	-1.2589567851	-0.8172312546	 2.8807997869	 0.283126
H	-2.90687665	-1.6547633444	 0.0083087866	 0.286555
149.7911	160.226	186.9815	240.9341	253.1403	261.964	352.9128	375.0193	411.4268	458.8704	556.6531	611.8566	638.7133	687.7841	710.4639	797.2254	848.1843	907.6325	930.5305	960.953	987.178	1030.1152	1056.4365	1095.4769	1099.4705	1144.1808	1161.4352	1204.1937	1213.687	1248.8613	1252.1713	1278.0736	1284.0785	1360.6661	1383.3528	1418.2333	1476.4115	1487.2823	1492.6642	1497.2217	1527.8155	3022.4015	3027.6405	3030.3963	3078.6898	3084.5569	3086.91	3118.4007	3139.7548	3774.3784	3791.9064
CC12CC3CC1(O)C23O	C[C@@]12C[C@H]3C[C@]1(O)[C@@]23O	
InChI=1S/C7H10O2/c1-5-2-4-3-6(5,8)7(4,5)9/h4,8-9H,2-3H2,1H3	InChI=1S/C7H10O2/c1-5-2-4-3-6(5,8)7(4,5)9/h4,8-9H,2-3H2,1H3/t4-,5+,6+,7-/m0/s1
