17
gdb 97832	3.92308	0.70855	0.64109	1.2735	80.59	-0.244	-0.0357	0.2083	1766.9761	0.133191	-421.792253	-421.782718	-421.781774	-421.829102	32.734	
C	-0.2590582995	 1.619024871	-0.0363018244	-0.366808
C	-0.018609925	 0.0994674709	 0.0226627606	-0.318362
C	 0.7479917363	-0.4080312893	-1.1087177391	 0.102155
C	 1.3853297636	-0.8014475561	-2.0529540942	 0.077168
C	 2.1332648836	-1.3131463125	-3.1781078524	-0.17997
O	 3.5485183935	-1.5513795466	-2.9213351941	-0.275073
C	 3.4840203027	-2.9589188416	-3.2178936546	-0.187135
C	 1.9863306304	-2.8316636516	-3.5028366479	 0.34217
O	 1.0985206617	-3.551760959	-3.8261958789	-0.256039
H	 0.6895704805	 2.1621701866	-0.0458978988	 0.132357
H	-0.8131484327	 1.8900914158	-0.9388501428	 0.13085
H	-0.8356545358	 1.94568136	 0.8339569973	 0.117995
H	 0.5052177536	-0.1571388169	 0.9522727101	 0.136844
H	-0.9809059685	-0.426633313	 0.0657101544	 0.137823
H	 2.0001394389	-0.6833267495	-4.069322576	 0.1304
H	 4.0971141781	-3.2495083246	-4.0805965942	 0.134905
H	 3.7416086386	-3.5910046635	-2.3584283252	 0.140721
15.7596	72.0478	74.8091	130.4621	159.4893	225.4483	317.9895	370.1094	417.451	476.0823	519.93	570.9329	703.2606	719.8164	782.6172	843.4629	928.5172	984.4566	1003.6286	1017.0104	1061.4905	1080.2788	1102.3544	1135.6169	1174.4704	1215.2454	1285.3737	1295.4092	1321.597	1350.3303	1409.6066	1468.8603	1480.1308	1494.9907	1505.0194	1935.5843	2357.4978	3005.1807	3018.934	3023.3708	3046.5267	3051.7428	3063.7919	3120.7107	3126.4957
CCC#CC1OCC1=O	CCC#C[C@H]1OCC1=O	
InChI=1S/C7H8O2/c1-2-3-4-7-6(8)5-9-7/h7H,2,5H2,1H3	InChI=1S/C7H8O2/c1-2-3-4-7-6(8)5-9-7/h7H,2,5H2,1H3/t7-/m1/s1
