16
gdb 127335	5.66889	0.98313	0.89144	4.057	72.79	-0.2513	0.0032	0.2545	1292.9969	0.12573	-434.067084	-434.05908	-434.058135	-434.100549	28.269	
C	 0.3818836091	 1.3537326516	 0.0258747274	-0.321021
N	 0.0623892985	-0.0567322183	-0.0175010967	 0.058069
C	-0.3853648053	-0.8069442298	-1.0458067192	 0.00482
N	-0.5523747978	-2.0587498274	-0.6704637283	-0.317438
C	-0.1765513753	-2.0287560236	 0.6408228521	 0.364451
N	 0.2039615869	-0.8354456084	 1.0805505205	-0.318853
C	-0.1818466254	-3.2090901817	 1.5268771406	-0.02299
C	-0.9756022499	-4.4038701495	 1.2034565628	-0.175815
O	 0.4363905928	-4.3994893898	 1.0183973596	-0.228551
H	 1.433856693	 1.4942932188	 0.286158575	 0.15893
H	 0.1910809478	 1.786816305	-0.957575085	 0.145296
H	-0.2391142554	 1.8574697819	 0.7706409118	 0.157384
H	-0.5720867033	-0.3997344106	-2.0286647525	 0.143263
H	 0.047308312	-2.9838455871	 2.5663439321	 0.105432
H	-1.3443685292	-5.0322460329	 2.0134906609	 0.11265
H	-1.5629993184	-4.4039234683	 0.287937779	 0.134373
58.7755	97.8812	148.35	168.4417	234.2232	316.7909	441.048	460.1853	649.9395	671.2541	728.8572	785.5391	851.7437	858.0769	909.3337	1003.396	1026.8575	1048.6483	1075.307	1101.4265	1153.9037	1160.9584	1171.7355	1232.1522	1276.231	1322.0725	1359.2263	1384.9157	1448.6612	1460.2863	1473.5348	1504.3906	1513.3431	1528.891	1570.1202	3055.0192	3085.9418	3126.1864	3140.6336	3148.0796	3184.4426	3252.1465
CN1C=NC(=N1)C1CO1	Cn1cnc(n1)[C@H]1CO1	
InChI=1S/C5H7N3O/c1-8-3-6-5(7-8)4-2-9-4/h3-4H,2H2,1H3	InChI=1S/C5H7N3O/c1-8-3-6-5(7-8)4-2-9-4/h3-4H,2H2,1H3/t4-/m1/s1
