20
gdb 76505	2.9933	1.27852	1.1362	2.9258	79.27	-0.221	0.0657	0.2867	1165.4422	0.170395	-403.07754	-403.06881	-403.067866	-403.110648	33.6	
C	-0.0960556324	 1.5384794639	 0.0297000311	-0.418122
C	 0.0104727867	 0.0291664289	 0.0362660539	-0.135865
C	 1.3586832758	-0.6532187597	-0.1258305262	-0.003268
O	 2.5311367221	 0.1092389207	-0.1697887977	-0.417194
C	 0.6637828006	-0.690404532	 1.1941280515	 0.338992
C	 1.2582722829	-0.1510710559	 2.500082777	-0.243336
N	 0.8890519945	-1.4188269068	 3.2349669983	-0.125774
C	-0.5775369149	-1.526304161	 3.1377443159	-0.23815
C	 0.2235352092	-1.9126114299	 1.9577979864	-0.127475
H	 0.8161478693	 1.9958954402	 0.4211500261	 0.131163
H	-0.2525433994	 1.9196753606	-0.9859605857	 0.112351
H	-0.9367956976	 1.8804357668	 0.6425690708	 0.118685
H	-0.82512261	-0.4935549542	-0.4256667639	 0.081397
H	 1.3921797092	-1.5761791439	-0.7071163632	 0.084531
H	 2.6040713411	 0.5006020295	-1.0467761156	 0.290654
H	 2.3423418862	-0.0331308835	 2.4625940895	 0.130887
H	 0.8066955174	 0.7490167962	 2.9320979008	 0.099596
H	-0.9836705148	-2.3212113335	 3.7562788788	 0.118535
H	-1.1759817528	-0.6172783429	 3.1098690669	 0.108287
H	 0.3242203669	-2.9405778335	 1.6213920652	 0.094105
114.2643	142.7938	165.3965	173.6827	235.0954	296.3107	319.7694	398.4196	456.979	530.9493	577.4233	589.9772	742.5513	780.3809	798.6612	838.5206	881.0319	931.6872	967.5818	990.5041	1025.7437	1042.1407	1057.8785	1091.8971	1103.2952	1110.5641	1128.955	1149.1547	1165.4953	1195.6041	1211.937	1231.5813	1267.6989	1284.4477	1307.9105	1359.7576	1382.6064	1414.701	1481.592	1490.9682	1498.2052	1505.3436	1508.7631	3030.4319	3040.8378	3082.8107	3086.1254	3097.349	3113.3306	3120.4526	3128.8874	3149.5298	3192.5811	3804.4152
CC1C(O)C11CN2CC12	C[C@H]1[C@@H](O)[C@]21CN1C[C@@H]21	
InChI=1S/C7H11NO/c1-4-6(9)7(4)3-8-2-5(7)8/h4-6,9H,2-3H2,1H3	InChI=1S/C7H11NO/c1-4-6(9)7(4)3-8-2-5(7)8/h4-6,9H,2-3H2,1H3/t4-,5-,6+,7-,8?/m0/s1
