17
gdb 56014	4.41751	0.97975	0.82817	7.8735	70.14	-0.2427	-0.0028	0.24	1320.4728	0.13824	-455.198721	-455.190728	-455.189783	-455.232019	29.439	
O	 0.1025642286	 0.1050989272	-0.8342123062	-0.369627
C	 0.0670722146	 1.1929545283	-0.0543325757	 0.398748
O	 1.0330707571	 1.5716004832	 0.5548766662	-0.332793
C	-1.2684266631	 1.9511383316	-0.0210023868	-0.347068
C	-2.5168286358	 1.0643970342	-0.0243920948	 0.037504
C	-3.8668870946	 1.8352057988	-0.0588720769	-0.202229
N	-4.6402112462	 1.0074469538	-0.998369812	-0.301322
C	-3.7346945615	 0.2435075226	-1.6916244562	 0.063844
N	-2.5443692978	 0.1963505181	-1.2278533603	-0.266424
H	-0.7934045854	-0.0642548276	-1.2148115684	 0.312348
H	-1.2478716211	 2.594561636	 0.8613602827	 0.132171
H	-1.296589698	 2.6039770626	-0.9035709147	 0.126208
H	-2.4894054797	 0.4064464561	 0.8548441806	 0.108342
H	-4.3517458869	 1.8889192317	 0.9180295022	 0.128288
H	-3.7378439421	 2.8573151054	-0.4417502789	 0.112186
H	-5.4337074042	 1.3991376349	-1.4822533765	 0.254768
H	-4.0584108941	-0.3120939069	-2.5668295842	 0.145056
74.6544	100.3614	131.4453	201.102	326.3034	352.456	424.4415	495.3148	560.1915	618.3049	673.0019	740.8655	838.3717	862.4061	883.8814	890.5925	935.3146	969.0601	999.3877	1042.1194	1071.8535	1105.9642	1147.1823	1193.1433	1224.4747	1276.6307	1285.9752	1308.7377	1331.9734	1351.5142	1381.4321	1458.033	1463.7185	1478.8672	1520.9736	1693.347	1856.9912	3003.6248	3011.2254	3034.4982	3100.7087	3113.7728	3190.2166	3332.2676	3623.4422
[O-]C(=O)CC1CNC=[NH+]1	OC(=O)C[C@H]1CN[CH][N]1	
InChI=1S/C5H8N2O2/c8-5(9)1-4-2-6-3-7-4/h3-4H,1-2H2,(H,6,7)(H,8,9)	InChI=1S/C5H8N2O2/c8-5(9)1-4-2-6-3-7-4/h3-4H,1-2H2,(H,6,7)(H,8,9)/t4-/m0/s1
