15
gdb 26542	2.409	1.84913	1.05299	3.3332	72.74	-0.2256	-0.0414	0.1842	1067.7797	0.113032	-457.825402	-457.817624	-457.81668	-457.857736	29.197	
C	 0.0860355552	 1.5274799114	 0.039259021	-0.483091
C	-0.0369046482	 0.0431799795	 0.025865841	 0.26782
C	-1.1793434631	-0.6733990318	-0.0858882718	 0.146789
O	-2.3949967499	-0.1066443231	-0.2034466204	-0.434502
C	-1.1818133931	-2.1392558279	-0.0876176038	 0.324975
O	-2.261261262	-2.7283131031	-0.1930934645	-0.421392
C	 0.128056871	-2.735145608	 0.0390576577	-0.282037
C	 1.2135381661	-1.9408170475	 0.1453662557	 0.070487
O	 1.1664463579	-0.602162892	 0.1421584178	-0.217323
H	 0.7154235734	 1.8764117581	-0.7870170614	 0.143906
H	-0.9030273638	 1.9764511509	-0.0564611273	 0.161697
H	 0.5444249122	 1.8746934271	 0.971960756	 0.143906
H	-2.9922162923	-0.8812484826	-0.2623497014	 0.305468
H	 0.2341653373	-3.8122959906	 0.0482723041	 0.127353
H	 2.2316018392	-2.2970568201	 0.2439442274	 0.145945
111.3721	131.949	194.3696	274.2071	314.6706	331.7708	491.0222	513.8213	524.8689	532.322	570.6323	669.1038	695.1199	768.7369	852.6588	855.6459	932.7734	952.8573	1044.9684	1061.4167	1094.5482	1208.1824	1244.3662	1301.4952	1350.0913	1413.7802	1425.3012	1467.1666	1477.287	1487.7293	1623.7242	1706.535	1730.2257	3035.2523	3087.5661	3153.7662	3210.0552	3228.365	3545.5052
CC1=C(O)C(=O)C=CO1	Cc1c(O)c(=O)cco1	
InChI=1S/C6H6O3/c1-4-6(8)5(7)2-3-9-4/h2-3,8H,1H3	InChI=1S/C6H6O3/c1-4-6(8)5(7)2-3-9-4/h2-3,8H,1H3
