17
gdb 75052	3.02558	1.3358	0.93725	5.327	81.18	-0.2106	-0.0579	0.1527	1217.4826	0.136137	-418.044804	-418.036188	-418.035244	-418.079779	31.853	
C	-0.1119467309	 1.5669087519	 0.0348598556	-0.473108
C	-0.0102334246	 0.0709345105	-0.0272770348	 0.246254
C	 0.1040390068	-0.5928912238	-1.1794232152	-0.069944
N	 0.2006971427	-1.9838557277	-1.2706379759	-0.383532
C	 0.1921745041	-2.861813466	-0.2025952319	 0.27805
N	 0.2792030054	-4.1339597391	-0.2640539092	-0.479466
C	 0.0642454984	-2.2114047818	 1.1791047213	 0.354252
O	 0.0469178479	-2.8920766086	 2.171094874	-0.27623
C	-0.0400160293	-0.689718864	 1.2682494236	-0.424421
H	 0.7064702919	 2.000746882	 0.6246637665	 0.125387
H	-0.0798451477	 2.0142221493	-0.9626058936	 0.121617
H	-1.0455806587	 1.886103043	 0.5168669497	 0.125393
H	 0.1298765839	-0.0871381574	-2.1379267761	 0.109266
H	 0.2838861445	-2.3890804344	-2.1897214743	 0.245874
H	 0.3601520629	-4.457678415	-1.2316335668	 0.20503
H	 0.7696034873	-0.3605754792	 1.9364126572	 0.147797
H	-0.9601699248	-0.4728622698	 1.83083751	 0.147781
11.6935	76.8943	197.468	287.5796	287.8601	363.8834	372.9899	433.3471	461.9361	476.3014	486.2172	580.4118	653.3942	667.211	776.061	845.024	875.458	934.6571	950.937	991.5389	1066.232	1077.9212	1141.217	1193.7412	1205.6282	1211.1033	1312.0016	1376.9282	1408.4038	1421.6753	1428.2334	1476.1228	1476.2159	1498.1162	1700.7573	1759.7533	1824.065	3002.4447	3010.2274	3023.3348	3052.0234	3106.4959	3195.4544	3433.053	3625.2379
CC1=CNC(=N)C(=O)C1	CC1=CN[C]([NH])C(=O)C1	
InChI=1S/C6H8N2O/c1-4-2-5(9)6(7)8-3-4/h3H,2H2,1H3,(H2,7,8)	InChI=1S/C6H8N2O/c1-4-2-5(9)6(7)8-3-4/h3H,2H2,1H3,(H2,7,8)
