19
gdb 97768	6.12697	0.53335	0.53095	1.0409	82.39	-0.2462	0.0304	0.2766	2069.5552	0.157937	-422.975687	-422.965793	-422.964849	-423.012488	35.273	
O	-0.0067085456	 1.7033341058	 1.0487988379	-0.402469
C	 0.1336960105	 0.514480007	 0.2816138505	-0.192111
C	-1.1253667479	-0.1995877881	 0.0742577126	 0.104676
C	-2.1900892762	-0.7386588016	-0.1009542509	 0.016348
C	-3.4505910149	-1.4161452752	-0.3187461118	-0.163917
C	-3.9620755643	-1.6277327147	-1.7816937427	-0.270835
C	-4.4918467163	-3.015792192	-1.3360340238	 0.163586
O	-4.4614669317	-4.1009229403	-2.2227796693	-0.430981
C	-3.5203603255	-2.9672678091	-0.1276148862	-0.269347
H	-0.7208140143	 2.2148979435	 0.6545686034	 0.286345
H	 0.5998365217	 0.7232399243	-0.6951708909	 0.114692
H	 0.8387961613	-0.1142368229	 0.8372131861	 0.138153
H	-4.2342184864	-0.9381941159	 0.2791356751	 0.105821
H	-4.6660765754	-0.9012155574	-2.1920708418	 0.108561
H	-3.1161509583	-1.7362619182	-2.4683001572	 0.102815
H	-5.5307882044	-2.9431856366	-0.9993634408	 0.096492
H	-3.5589472736	-4.1994040163	-2.5446026684	 0.277557
H	-2.5594005368	-3.4258895676	-0.3821840916	 0.103937
H	-3.8570492821	-3.3519134148	 0.8368617596	 0.110678
16.8906	58.6566	99.1802	128.2741	216.0647	258.1693	299.7595	327.2128	392.9859	435.8421	466.6578	520.675	529.1089	589.3667	733.7267	806.956	872.8294	910.2258	960.7201	990.5413	1010.6967	1046.7566	1047.8839	1075.1125	1128.1242	1157.2257	1193.9684	1212.418	1214.8258	1235.1407	1257.432	1284.9828	1337.3981	1355.2963	1360.1085	1418.9456	1441.3236	1470.7693	1493.886	1499.286	2353.7457	2970.2077	3044.6908	3052.842	3057.7025	3057.9752	3067.5928	3119.5617	3124.6631	3804.9894	3816.8685
OCC#CC1CC(O)C1	OCC#C[C@H]1C[C@@H](O)C1	
InChI=1S/C7H10O2/c8-3-1-2-6-4-7(9)5-6/h6-9H,3-5H2	InChI=1S/C7H10O2/c8-3-1-2-6-4-7(9)5-6/h6-9H,3-5H2/t6-,7+
