19
gdb 94408	2.53161	1.35742	1.202	3.0942	75.94	-0.2427	-0.0318	0.2109	1137.5496	0.157766	-423.017905	-423.009044	-423.008099	-423.05262	32.393	
C	-0.279554216	 1.4357348796	-0.163461405	-0.405605
C	 0.2079210832	 0.0029550562	-0.1303347349	 0.106838
O	 1.506634151	-0.1540173119	-0.7480953279	-0.292774
C	 2.0390171496	-0.7845481408	 0.42759328	-0.122259
C	 0.723341107	-0.5879554699	 1.2133466366	 0.153124
C	 0.6598032896	 0.1298162461	 2.5910163537	-0.326237
C	 0.0011061942	-1.1280128525	 3.2409705283	-0.346673
C	 0.0226492541	-1.7901399644	 1.8540435206	 0.34278
O	-0.3692385873	-2.8323976913	 1.413117522	-0.2972
H	 0.4245473491	 2.1073633496	 0.336320519	 0.122398
H	-0.3828637123	 1.7617242247	-1.2031796534	 0.134544
H	-1.2588126878	 1.5259428288	 0.3191559926	 0.117919
H	-0.5223278085	-0.6666928829	-0.6054881403	 0.093304
H	 2.3093288316	-1.8329386482	 0.2487910879	 0.11641
H	 2.9049336029	-0.2459903389	 0.83309386	 0.105058
H	 1.6359183918	 0.3980158254	 3.0011060367	 0.112098
H	 0.0246860237	 1.0178123486	 2.6019189979	 0.11614
H	 0.6130891749	-1.6523941655	 3.9810822043	 0.135661
H	-1.0000143008	-0.9938054328	 3.6605546018	 0.134473
30.583	69.8525	135.6803	204.1148	238.7759	260.2109	345.5219	424.6316	479.8928	508.0376	587.3114	700.1752	731.8457	775.5786	856.4103	876.7337	886.7179	933.4977	1001.4151	1023.2991	1040.5269	1078.8946	1089.3908	1105.3969	1157.5902	1161.6062	1179.898	1209.7386	1223.0376	1227.4083	1286.2788	1294.3387	1353.4276	1376.3089	1405.2786	1436.8351	1478.9492	1487.1271	1493.2365	1515.1539	1882.6485	3004.451	3011.781	3035.5199	3054.9142	3059.5178	3073.8987	3106.334	3107.4897	3116.6487	3127.3878
CC1OCC11CCC1=O	C[C@H]1OC[C@]21CCC2=O	
InChI=1S/C7H10O2/c1-5-7(4-9-5)3-2-6(7)8/h5H,2-4H2,1H3	InChI=1S/C7H10O2/c1-5-7(4-9-5)3-2-6(7)8/h5H,2-4H2,1H3/t5-,7+/m1/s1
