17
gdb 64530	4.30027	1.28478	1.129	2.4541	73.75	-0.2609	-0.0388	0.2221	1074.1188	0.135536	-421.756825	-421.749556	-421.748612	-421.788422	28.991	
O	 0.057129329	 1.4383262825	-0.0259762841	-0.498907
C	 0.042798199	 0.0477728383	-0.035046521	 0.36053
C	 1.0138715957	-0.4842197274	-1.0500715102	 0.090463
O	 1.6877913705	 0.2527444372	-1.7346032447	-0.283116
C	 0.0144718133	-0.6631877283	 1.3486194551	-0.109424
C	-1.4999473633	-0.3067518425	 1.5576221014	-0.038692
C	-1.8635799513	-1.7614396286	 1.9091137716	-0.272176
C	-0.7981977941	-1.8891685329	 0.8028827341	-0.061212
C	-1.3510015349	-0.6402391504	 0.0309455	-0.10938
H	 0.7094103784	 1.6978658965	-0.6959126045	 0.292471
H	 1.0861471304	-1.5848989668	-1.1445119268	 0.09591
H	 0.7914827888	-0.6803081863	 2.1140718168	 0.081944
H	-1.882382177	 0.6247281304	 1.970149135	 0.094599
H	-1.5815755347	-2.1137557133	 2.9063390178	 0.098412
H	-2.8761544359	-2.0919975268	 1.6570453926	 0.098413
H	-0.3853071156	-2.7953388261	 0.3592277622	 0.078224
H	-2.1437393884	-0.6310109957	-0.7183494052	 0.081937
104.2557	178.0256	265.8799	320.9944	326.7717	443.824	457.3753	520.7317	537.8906	736.2222	793.2584	843.1909	843.8766	853.0144	880.0267	892.1719	924.062	969.497	986.1485	1025.39	1032.1569	1066.6628	1069.5011	1129.9151	1145.5038	1155.1822	1161.7119	1163.0301	1198.9758	1219.9249	1247.3255	1303.7468	1311.6264	1383.8365	1450.1619	1510.7568	1796.5324	2950.7442	3040.6895	3097.7615	3102.5477	3106.4415	3115.7383	3140.1276	3690.0938
OC1(C=O)C2C3CC2C13	O[C@@]1(C=O)[C@H]2[C@@H]3C[C@H]2[C@H]13	
InChI=1S/C7H8O2/c8-2-7(9)5-3-1-4(5)6(3)7/h2-6,9H,1H2	InChI=1S/C7H8O2/c8-2-7(9)5-3-1-4(5)6(3)7/h2-6,9H,1H2/t3-,4+,5-,6+,7-
