19
gdb 39691	4.37352	1.01507	0.87648	2.6718	71.45	-0.2441	0.0794	0.3235	1322.5791	0.160125	-460.134466	-460.12601	-460.125066	-460.169589	29.612	
C	 0.8336528269	 1.6086890563	 0.8193007012	-0.08599
O	 1.9176334734	 0.7562700127	 0.3949709151	-0.274256
C	 1.0138846293	-0.1058715201	-0.3280535216	-0.084661
C	-0.2158482645	 0.6770737633	 0.1776428287	-0.059417
C	-1.0959076468	-0.0719398954	 1.1508655067	 0.214311
O	-2.0543308188	 0.7944607493	 1.709359506	-0.254357
C	-3.1173055445	-0.052105411	 2.1187420958	-0.111517
C	-3.1325615732	-1.1406494484	 1.0292408186	-0.088846
O	-1.8166048208	-1.0968780458	 0.4820387767	-0.275949
H	 0.7849444405	 1.7071938288	 1.9105796543	 0.108954
H	 0.8970869526	 2.6094438116	 0.3748508127	 0.101839
H	 1.1779233938	-0.0596055338	-1.4114996773	 0.101897
H	 1.0853549214	-1.150435387	-0.0021101101	 0.11114
H	-0.8458116047	 1.1246556581	-0.5922419095	 0.08853
H	-0.4861303543	-0.5274023551	 1.9563390294	 0.065357
H	-2.9134648123	-0.4837849718	 3.1100785321	 0.10259
H	-4.0341101042	 0.5384462798	 2.169229539	 0.121522
H	-3.3440215132	-2.1363264131	 1.4353839742	 0.107921
H	-3.8582746705	-0.9219174685	 0.2370573179	 0.110933
39.9883	60.2724	66.8634	151.761	189.2528	317.1182	408.625	435.7762	686.3196	733.5626	838.63	869.0057	882.5974	888.8862	944.7716	953.0116	974.9172	1016.4078	1039.6739	1063.9841	1068.3536	1089.2052	1130.6177	1154.0859	1159.9584	1161.54	1214.3156	1224.3115	1241.6823	1251.1253	1308.977	1317.5555	1339.7879	1378.2998	1381.999	1392.634	1449.9113	1513.3613	1514.8459	1531.7978	1538.8652	2905.9375	2994.035	3011.6372	3022.0535	3025.9046	3057.6448	3059.9449	3065.4746	3106.6384	3112.9376
C1OCC1C1OCCO1	C1OCC1C1OCCO1	
InChI=1S/C6H10O3/c1-2-9-6(8-1)5-3-7-4-5/h5-6H,1-4H2	InChI=1S/C6H10O3/c1-2-9-6(8-1)5-3-7-4-5/h5-6H,1-4H2
