18
gdb 8348	4.8735	1.26316	1.23529	2.6635	73.04	-0.2478	-0.0215	0.2263	1035.6673	0.153766	-347.765305	-347.75788	-347.756935	-347.798003	27.803	
O	-0.6619236318	 0.8714100245	 0.7468665178	-0.238583
C	 0.0797388422	 1.0081859173	-0.1915287325	 0.161589
C	 1.3285665025	 1.8629298012	-0.191628135	-0.405831
C	 1.2868381929	 2.9416721566	-1.2572244961	 0.333944
C	 0.2830616382	 4.1340077717	-1.3613078898	-0.243526
C	 1.2529368245	 4.2961581348	-2.5647926326	-0.040175
C	 2.4149936831	 3.9665778646	-1.5852521587	-0.258076
C	 1.1106149207	 2.7668315873	-2.8017220614	-0.252042
H	-0.1226878807	 0.4930633784	-1.1593050725	 0.07491
H	 1.4537422935	 2.2985890392	 0.8045668573	 0.121643
H	 2.1851563075	 1.2018479669	-0.3898322157	 0.117678
H	-0.7555779857	 3.8833211228	-1.5953787621	 0.094852
H	 0.3430902716	 4.890403309	-0.573663749	 0.093403
H	 1.2349965873	 5.0805179514	-3.3210889934	 0.075906
H	 2.6364057068	 4.7104799654	-0.8144669498	 0.09208
H	 3.3307675087	 3.5600439497	-2.0246998635	 0.089292
H	 1.9289565423	 2.2721995708	-3.3334773578	 0.089995
H	 0.1361989363	 2.4146125282	-3.1521722954	 0.092942
51.8569	63.7055	181.7922	291.8604	359.7683	466.5521	541.4292	546.535	642.8709	771.1299	793.998	839.7898	887.0294	920.8869	943.6871	961.0953	968.8812	998.0119	1025.336	1048.9086	1102.3633	1103.3563	1142.3389	1145.9379	1159.8092	1164.4777	1222.6344	1228.5043	1237.0097	1265.3544	1292.2551	1320.4763	1429.7363	1455.4792	1498.0003	1498.5456	1554.6587	1834.1593	2861.786	3008.5542	3040.7679	3042.7163	3050.3122	3089.1813	3104.7502	3109.703	3112.2415	3115.0658
O=CCC12CC(C1)C2	O=CC[C@@]12C[C@@H](C1)C2	
InChI=1S/C7H10O/c8-2-1-7-3-6(4-7)5-7/h2,6H,1,3-5H2	InChI=1S/C7H10O/c8-2-1-7-3-6(4-7)5-7/h2,6H,1,3-5H2/t6-,7+
