23
gdb 90615	3.77841	1.16526	1.08718	0.228	89.55	-0.225	0.0901	0.3151	1256.7631	0.206141	-351.11347	-351.104877	-351.103932	-351.146026	34.837	
C	-0.091707752	 1.5425624317	 0.007130845	-0.414215
C	-0.0178062412	 0.0201619378	-0.002554836	 0.029318
C	 1.0705038955	-0.5852625388	-0.9580927422	-0.271537
C	 1.8068154868	-1.202004764	 0.2668191665	-0.070484
C	 0.7303226046	-0.60981605	 1.2182824602	-0.012518
C	 0.3727973641	-2.0369725199	 1.6863661062	-0.118104
C	-0.0064480042	-2.9388503096	 0.5401170908	-0.345307
C	 1.4477553346	-2.6314569467	 0.7578246993	 0.366363
C	 2.476031222	-3.6980255184	 1.007605551	-0.500649
H	 0.8955263032	 1.9852403398	 0.1856718292	 0.110266
H	-0.4585726424	 1.9291544898	-0.9504671026	 0.110798
H	-0.7638604371	 1.9023922444	 0.7944739778	 0.111247
H	-1.0201350268	-0.391234076	-0.1579197281	 0.067785
H	 0.7152285602	-1.292285568	-1.7129401993	 0.09525
H	 1.6576770403	 0.185811277	-1.4659063918	 0.092441
H	 2.8621834854	-0.9539060351	 0.3902614659	 0.059658
H	 1.0071367288	 0.0733734203	 2.0231975952	 0.057485
H	 0.1266963046	-2.305792808	 2.7081326396	 0.076511
H	-0.2995542324	-3.9409912101	 0.8405406144	 0.103683
H	-0.5587389247	-2.5747848776	-0.3209165974	 0.107567
H	 2.8678520853	-4.1015539469	 0.0650994163	 0.116918
H	 3.3276780408	-3.3098775645	 1.5787136118	 0.113345
H	 2.0498516646	-4.5350204372	 1.5711302182	 0.114179
114.1468	175.0426	206.9563	245.6037	260.6673	295.3751	335.8345	360.7227	461.5351	500.5273	608.0675	688.8208	756.8914	765.5479	839.7626	843.9888	855.2956	902.1288	907.5652	932.6604	975.1757	982.7458	985.046	1021.2946	1053.6834	1058.6472	1082.1298	1092.9409	1107.6975	1136.8101	1150.3525	1185.5537	1214.1727	1236.3143	1250.7206	1256.1919	1273.0046	1286.4696	1312.9171	1361.3967	1397.3692	1407.8782	1420.5765	1479.4501	1484.9178	1495.5564	1498.1928	1499.0393	1506.1445	3014.0584	3018.6932	3046.145	3049.0039	3070.4545	3083.3515	3087.0438	3088.2822	3090.5275	3093.9085	3102.6064	3118.0576	3161.2624	3192.4235
CC1CC2C1C1CC21C	C[C@H]1C[C@H]2[C@@H]1[C@H]1C[C@@]21C	
InChI=1S/C9H14/c1-5-3-6-8(5)7-4-9(6,7)2/h5-8H,3-4H2,1-2H3	InChI=1S/C9H14/c1-5-3-6-8(5)7-4-9(6,7)2/h5-8H,3-4H2,1-2H3/t5-,6-,7+,8+,9-/m0/s1
