19
gdb 76943	1.97112	1.23809	1.06263	4.0556	79.05	-0.2534	-0.0497	0.2037	1264.098	0.155596	-423.041174	-423.031063	-423.030118	-423.076416	35.642	
C	-0.2765266018	 0.8094434593	-1.7968238037	-0.427622
C	 0.0293915938	-0.2765199678	-0.7881211089	-0.048608
C	 1.4203769123	-0.5990638915	-0.2875353936	-0.149901
C	 2.6144199651	 0.183792683	-0.6851993926	 0.157185
O	 3.713688122	-0.3016458546	-0.8021573296	-0.262565
C	 0.3576033521	 0.0064712818	 0.6656052526	 0.175605
C	 0.481188733	 1.4111729583	 1.2248562944	-0.491255
C	-0.1939488939	-0.9974699404	 1.6305620947	 0.108414
O	-0.3481168743	-2.169948552	 1.3901177664	-0.262013
H	 0.3118817351	 1.7175190039	-1.6523667855	 0.124383
H	-0.0781743443	 0.447248918	-2.8107712815	 0.138264
H	-1.3341728343	 1.0872668898	-1.745149754	 0.131506
H	-0.5730356038	-1.1731946432	-0.908257587	 0.124615
H	 1.6309768681	-1.648521276	-0.1099719985	 0.13011
H	 2.4520017799	 1.26471174	-0.8841771329	 0.069897
H	 0.8074526144	 2.1381755917	 0.4806862446	 0.131042
H	-0.4866794278	 1.751743519	 1.6092009492	 0.131373
H	 1.1977325898	 1.4440621851	 2.0523331298	 0.137452
H	-0.4718793555	-0.5758939445	 2.6223769561	 0.082118
82.9111	91.6277	123.3281	161.926	187.1753	209.8805	222.6084	246.1526	290.1304	388.0105	430.7122	460.7544	518.7774	621.2589	700.9477	741.5404	898.5403	939.8824	976.5059	994.9832	1026.8533	1047.9514	1088.1949	1108.9846	1126.7574	1144.6304	1185.002	1238.6563	1298.5135	1342.0141	1405.7516	1420.514	1423.5685	1438.1746	1452.7115	1487.8153	1492.2	1501.1663	1512.6404	1807.2527	1811.6943	2883.8238	2895.2485	3038.1766	3043.957	3094.8358	3102.4148	3122.9184	3139.9124	3151.6908	3177.0383
CC1C(C=O)C1(C)C=O	C[C@H]1[C@@H](C=O)[C@]1(C)C=O	
InChI=1S/C7H10O2/c1-5-6(3-8)7(5,2)4-9/h3-6H,1-2H3	InChI=1S/C7H10O2/c1-5-6(3-8)7(5,2)4-9/h3-6H,1-2H3/t5-,6+,7+/m0/s1
