17
gdb 84564	2.97384	1.88091	1.43614	2.5584	72.	-0.2284	0.0074	0.2359	915.9846	0.138082	-421.789332	-421.78265	-421.781706	-421.820101	27.836	
O	-0.0473782827	 1.4201853628	 0.0676463486	-0.441782
C	 0.0732666456	 0.0034037652	-0.037109545	 0.091419
C	 0.9240876161	-0.5466947982	 1.0833013697	-0.130164
C	 0.5541553338	-1.5796788157	 1.8431486171	-0.0357
C	-0.7067148916	-2.3191774833	 1.6062797607	-0.120848
C	-2.0742598711	-1.6303242931	 1.587939505	 0.091334
O	-1.9709108915	-0.253696449	 1.2534718519	-0.304162
C	-1.3208429206	-0.6115090993	-0.0145825695	 0.063733
C	-1.4561439378	-2.107733755	 0.3083548761	-0.183655
H	-0.5218153407	 1.5774205932	 0.8947895103	 0.288324
H	 0.5459801986	-0.1712922627	-1.013299204	 0.090411
H	 1.854355872	-0.0171914207	 1.2675930841	 0.098227
H	 1.1806755782	-1.9074929633	 2.6680274505	 0.093371
H	-0.7589589535	-3.3344905697	 1.9886274239	 0.094863
H	-2.9324279369	-1.9512671769	 2.1669220838	 0.110334
H	-1.9307178144	-0.2611529875	-0.8516027679	 0.09315
H	-1.7352000435	-2.8941974467	-0.3791603651	 0.101144
134.4187	253.8624	328.8445	397.5432	423.2189	455.1163	514.0236	609.0499	645.4304	736.6343	755.0484	783.2608	804.6277	861.3797	902.5843	931.3503	945.7796	981.8768	987.7489	1013.5136	1033.295	1055.1219	1069.4433	1080.9313	1097.8307	1138.1005	1186.2516	1232.0918	1257.42	1281.5179	1307.032	1328.2261	1367.5936	1400.2966	1426.7809	1430.3917	1703.7719	3018.5087	3078.2713	3151.9519	3161.68	3181.081	3182.6625	3206.2958	3769.0789
OC1C=CC2C3OC1C23	O[C@H]1C=C[C@H]2[C@H]3O[C@@H]1[C@@H]23	
InChI=1S/C7H8O2/c8-4-2-1-3-5-6(3)9-7(4)5/h1-8H	InChI=1S/C7H8O2/c8-4-2-1-3-5-6(3)9-7(4)5/h1-8H/t3-,4+,5+,6-,7+/m1/s1
