17
gdb 14339	4.56833	1.78166	1.52497	1.2155	68.48	-0.2362	0.0275	0.2638	877.6177	0.143626	-363.881134	-363.874096	-363.873151	-363.91258	26.594	
C	-0.1416665604	 1.4925989526	-0.0180048398	-0.471654
C	-0.0097659862	 0.0095616589	-0.078455798	 0.398021
N	-0.2045496914	-0.7266199631	-1.0983247746	-0.307581
C	 0.0380337676	-2.1087472789	-0.676958393	-0.010191
C	 1.4411285576	-2.6629719275	-1.0531678448	-0.222982
C	 1.9238279034	-2.4169445264	 0.4127431653	-0.243773
C	 0.4920258423	-1.9812227172	 0.8093039981	 0.085953
O	 0.349755325	-0.5802274608	 1.1044191245	-0.262902
H	 0.814976151	 1.9477490532	 0.2576042022	 0.143502
H	-0.4629156308	 1.872946494	-0.9868860574	 0.151315
H	-0.8681580625	 1.7753949363	 0.7502037212	 0.145024
H	-0.816347461	-2.7421646842	-0.929024032	 0.077535
H	 1.4320151042	-3.7171002323	-1.3410254147	 0.103011
H	 1.9515773333	-2.0902286319	-1.8296641589	 0.111763
H	 2.2945577445	-3.3008148469	 0.9369068114	 0.105839
H	 2.6537707497	-1.612953036	 0.5303057506	 0.112194
H	-0.0043692163	-2.5503298498	 1.59641315	 0.084927
88.1933	135.4446	166.7268	313.8554	402.3014	412.1382	624.681	651.3764	669.4516	738.9936	771.8427	854.2265	903.5569	918.1476	925.4486	950.9124	991.9411	1039.5417	1065.572	1069.3075	1120.0837	1132.77	1198.3554	1223.36	1238.8635	1259.6299	1281.3268	1295.2651	1317.6843	1361.593	1412.7984	1468.0546	1475.1117	1476.1399	1485.6852	1725.2431	3050.5361	3063.6124	3067.8333	3073.7369	3101.1503	3107.4354	3115.3937	3132.8494	3166.4692
CC1=NC2CCC2O1	CC1=N[C@H]2CC[C@H]2O1	
InChI=1S/C6H9NO/c1-4-7-5-2-3-6(5)8-4/h5-6H,2-3H2,1H3	InChI=1S/C6H9NO/c1-4-7-5-2-3-6(5)8-4/h5-6H,2-3H2,1H3/t5-,6+/m0/s1
