19
gdb 38478	3.56631	1.67482	1.53956	1.2322	78.56	-0.2366	0.0846	0.3212	931.125	0.162226	-385.791066	-385.784818	-385.783874	-385.82117	27.72	
C	 0.0363809685	 1.5254957892	-0.1475170898	-0.328422
C	 1.3360185278	 0.8023432081	 0.0398052895	 0.097387
O	 1.8643867732	 0.6736535562	 1.3584272135	-0.307082
C	 0.8857795625	-0.0205637515	 2.0728414646	 0.398748
C	 0.8196860195	-1.167620491	 3.1166387354	-0.295259
C	-0.6458474373	-0.9467408407	 2.5588184701	-0.115036
C	-0.4115969123	 0.5652500322	 2.7464439797	-0.280261
C	 0.033899671	-0.8592104611	 1.1322363379	 0.013669
C	 0.0212920283	 0.0011543075	-0.1177846597	-0.159027
H	-0.3525423015	 2.136294001	 0.6538623481	 0.12664
H	-0.1303345475	 1.9494049524	-1.1333694469	 0.114453
H	 2.1230485607	 0.8393196586	-0.7036022785	 0.099488
H	 1.3144033172	-2.1037590039	 2.8478307468	 0.099899
H	 0.9684640936	-0.907466497	 4.1670806491	 0.097653
H	-1.5245519399	-1.5166039882	 2.8525465391	 0.083412
H	-0.301506567	 0.9147727921	 3.776050633	 0.090075
H	-1.0555674723	 1.2246953689	 2.1717981926	 0.100543
H	 0.4869406031	-1.8168838303	 0.8502038296	 0.070212
H	-0.1882167477	-0.4886241827	-1.0622127441	 0.09291
246.8608	272.897	399.9172	419.1574	475.4593	518.6298	580.762	698.1855	705.1342	736.7904	785.3601	805.7771	830.2546	880.4048	893.6958	931.3864	941.3285	952.318	981.1922	997.1002	1041.3051	1057.433	1073.8242	1086.674	1092.038	1118.2027	1126.9398	1131.0428	1159.0842	1164.6414	1188.3816	1201.0202	1222.1134	1247.8933	1258.1923	1339.3891	1363.4136	1414.9796	1478.548	1497.19	1539.8317	3030.8995	3059.9157	3074.5232	3131.9378	3140.3521	3140.3969	3168.613	3172.2859	3189.0803	3246.3578
C1C2OC34CC(C3)C4C12	C1[C@H]2O[C@@]34C[C@@H](C3)[C@H]4[C@@H]12	
InChI=1S/C8H10O/c1-5-6(1)9-8-2-4(3-8)7(5)8/h4-7H,1-3H2	InChI=1S/C8H10O/c1-5-6(1)9-8-2-4(3-8)7(5)8/h4-7H,1-3H2/t4-,5-,6+,7-,8-/m0/s1
