19
gdb 66096	2.54263	1.55015	1.35418	4.7136	78.36	-0.2524	0.036	0.2884	1046.1065	0.160558	-382.07324	-382.065099	-382.064154	-382.105519	31.941	
C	-0.0664287835	 1.5473014973	-0.0182831426	-0.426309
C	 0.0322158301	 0.0171767666	-0.0309000777	 0.116915
C	 0.7948222786	-0.5611819245	-1.2643489177	-0.273869
C	 1.3988507213	-1.8763670622	-0.7357963933	-0.236275
C	 1.5738722605	-1.6226297877	 0.7544554457	-0.003554
C	 2.1813753175	-0.33083954	 1.1636618952	-0.259561
N	 0.7176669549	-0.4979929076	 1.1835393582	-0.101446
C	-1.3303769542	-0.5555353456	-0.0016385553	 0.298529
N	-2.3962288047	-1.0014018649	-0.015634147	-0.347068
H	 0.9362557236	 1.9829129198	-0.0309170496	 0.122474
H	-0.6119397287	 1.9048841454	-0.8953988786	 0.136563
H	-0.585664188	 1.8891076098	 0.8796564137	 0.147946
H	 0.1371093623	-0.7060124191	-2.1227543009	 0.129119
H	 1.5730466385	 0.1445344141	-1.5672982677	 0.111887
H	 0.7009319718	-2.7070741392	-0.8816367444	 0.129296
H	 2.3343975285	-2.1398664979	-1.2375430238	 0.11309
H	 1.6131933301	-2.476134173	 1.4241608223	 0.101524
H	 2.622696884	-0.2240171941	 2.1495837776	 0.126452
H	 2.6409424574	 0.2914104229	 0.4002957657	 0.114287
117.2171	159.9644	219.6505	234.8835	274.7403	318.9339	388.6217	448.9873	491.0653	553.769	624.7791	664.9387	702.9205	779.5516	837.9781	848.7896	900.126	924.8712	959.6892	974.4132	1022.992	1040.815	1077.1102	1109.4621	1127.589	1150.1365	1172.2832	1173.1993	1226.1342	1257.9118	1273.5851	1319.55	1333.8493	1386.4621	1408.8106	1484.6804	1488.4597	1493.4122	1494.5177	1519.457	2357.3859	3051.1649	3054.8601	3067.6382	3096.68	3115.0931	3124.4432	3127.8893	3137.2869	3159.2838	3198.8039
CC1(CCC2CN12)C#N	C[C@]1(CC[C@H]2CN12)C#N	
InChI=1S/C7H10N2/c1-7(5-8)3-2-6-4-9(6)7/h6H,2-4H2,1H3	InChI=1S/C7H10N2/c1-7(5-8)3-2-6-4-9(6)7/h6H,2-4H2,1H3/t6-,7-,9?/m0/s1
