19
gdb 117479	6.43427	0.50741	0.4812	3.1078	74.79	-0.2527	-0.0253	0.2274	2179.7573	0.15494	-460.185858	-460.175048	-460.174104	-460.224138	35.994	
O	-0.1721304064	 1.4921072959	-0.021418526	-0.423366
C	 0.0174979405	 0.0954199965	 0.1449036056	-0.074742
C	-1.3261312099	-0.569607139	-0.1162520486	-0.283103
C	-1.2881253452	-2.0803903492	 0.008084955	 0.373875
O	-0.2550852152	-2.6890416397	 0.1738583113	-0.300514
C	-2.6372588841	-2.7945119288	-0.0659554682	-0.317754
C	-2.5057135507	-4.2997232759	-0.3226965205	-0.268914
C	-3.7670015357	-5.0456803193	 0.0385213844	 0.158538
O	-4.3681068071	-5.7905476796	-0.6906435038	-0.237637
H	 0.6726124084	 1.9278217109	 0.1237844065	 0.289477
H	 0.7660459706	-0.3034243215	-0.5533488049	 0.107118
H	 0.3610338265	-0.1516643854	 1.1600509509	 0.100721
H	-2.088408516	-0.1666002131	 0.5631227323	 0.130699
H	-1.6760820252	-0.3138218822	-1.1258249987	 0.13829
H	-3.1374504925	-2.6114385868	 0.8978470597	 0.133128
H	-3.2701944833	-2.3096460173	-0.8179517955	 0.13114
H	-2.2490387927	-4.5124101453	-1.3633291159	 0.128423
H	-1.6886398718	-4.6770735628	 0.3068590673	 0.146796
H	-4.1232960103	-4.8539002874	 1.0800731992	 0.067823
36.6356	55.4941	56.7916	83.9683	108.4511	127.7147	229.8779	273.0131	274.613	360.8728	409.7798	470.0768	524.1889	681.7515	723.4361	799.3766	846.0555	870.3033	987.2112	1002.0051	1031.0395	1053.6324	1087.6605	1113.4323	1122.0557	1185.1698	1217.6711	1248.1434	1259.7383	1299.1149	1313.8653	1345.7723	1376.9117	1430.9106	1445.5035	1452.8987	1467.3152	1470.2481	1523.2564	1803.3508	1838.9535	2836.9546	2995.2001	3004.3936	3026.0088	3028.3267	3035.3408	3061.9838	3068.6082	3113.2369	3832.5045
OCCC(=O)CCC=O	OCCC(=O)CCC=O	
InChI=1S/C6H10O3/c7-4-1-2-6(9)3-5-8/h4,8H,1-3,5H2	InChI=1S/C6H10O3/c7-4-1-2-6(9)3-5-8/h4,8H,1-3,5H2
