19
gdb 82367	2.15017	1.75186	1.34193	2.1228	73.59	-0.2494	-0.0229	0.2264	1033.1596	0.159879	-423.03074	-423.022428	-423.021484	-423.064125	31.728	
O	 0.4237706939	 0.8250081823	 0.8986309851	-0.435332
C	-0.0363383463	-0.3209757584	 0.1935449618	 0.112343
C	-1.4874655777	-0.2531831146	-0.2384095377	-0.067489
C	-1.8315941699	 0.6806045247	-1.3844651742	-0.313945
C	-1.6173687556	-0.7866295908	-1.642574759	-0.027691
C	-0.237072412	-1.2035621716	-2.1405368256	-0.24181
C	 0.775817792	-0.6295167875	-1.1259303474	-0.153805
C	 1.5266246863	 0.6020038574	-1.5993895147	 0.147432
O	 1.2893850685	 1.2167069184	-2.6104880214	-0.251147
H	-0.0476779426	 1.5870645945	 0.5436036622	 0.287804
H	 0.0968594592	-1.1550499669	 0.8902909152	 0.093982
H	-2.2438338676	-0.4407320853	 0.5153920933	 0.089882
H	-2.8503619562	 1.0506611016	-1.4129944656	 0.115037
H	-1.0950988875	 1.3810305676	-1.7641929596	 0.136938
H	-2.4706206046	-1.3908489855	-1.9290712564	 0.085746
H	-0.1686922039	-2.2958733628	-2.1595496656	 0.100399
H	-0.0291061178	-0.838008988	-3.1504294491	 0.126091
H	 1.5585883991	-1.3590087738	-0.8840562419	 0.096713
H	 2.3510963429	 0.9141265087	-0.9259660191	 0.098853
47.426	96.0962	191.889	261.4552	281.8263	334.6935	350.5182	449.8879	512.8898	595.5573	644.8535	716.3623	764.6272	792.579	835.247	883.2226	905.3346	941.8169	978.9456	1018.2112	1045.7351	1052.2051	1073.8121	1087.0628	1099.1936	1113.0497	1126.4922	1202.4818	1212.2389	1235.8397	1269.8516	1312.0445	1327.4426	1351.7656	1357.6326	1394.8725	1426.3827	1430.1979	1484.9661	1499.3557	1816.5521	2921.1456	3029.0214	3049.697	3057.0229	3095.6375	3135.9958	3168.1729	3177.2374	3220.9589	3801.3622
OC1C2CC2CC1C=O	O[C@H]1[C@H]2C[C@H]2C[C@H]1C=O	
InChI=1S/C7H10O2/c8-3-5-1-4-2-6(4)7(5)9/h3-7,9H,1-2H2	InChI=1S/C7H10O2/c8-3-5-1-4-2-6(4)7(5)9/h3-7,9H,1-2H2/t4-,5+,6+,7-/m1/s1
