19
gdb 35139	4.36153	0.84319	0.84188	4.5046	82.03	-0.2336	0.0302	0.2638	1438.7348	0.159917	-382.042926	-382.034373	-382.033429	-382.07692	31.641	
N	 0.1186504269	-1.2692833661	 0.0382541458	-0.324709
C	 0.0694136623	-0.1144966106	 0.0681343602	 0.285503
C	-0.0021112748	 1.3366959051	 0.0967444631	-0.183858
C	-0.0596846835	 1.9619759558	 1.5255509199	-0.171444
N	 1.3867619604	 2.2289396705	 1.4355681688	-0.05786
C	 1.3734426819	 2.0632608606	-0.0286485275	-0.171453
C	 1.9148263694	 3.4251825094	 2.0004769752	 0.049252
C	 2.3629855344	 3.3900731888	 3.4387595969	-0.274883
C	 3.3844370738	 3.4621190457	 2.3315798928	-0.274878
H	-0.7754998637	 1.6737031424	-0.5944325814	 0.128449
H	-0.6803278393	 2.8717065686	 1.5294802375	 0.096496
H	-0.3647563257	 1.3113424961	 2.3490635413	 0.127847
H	 2.2092135378	 1.4932599331	-0.4423571933	 0.127849
H	 1.2668728013	 3.0093293658	-0.5822127972	 0.096494
H	 1.4680763069	 4.3627149593	 1.6492745408	 0.067199
H	 2.1925027384	 4.2705681432	 4.0475811456	 0.115159
H	 2.2603934313	 2.4454264522	 3.9596455165	 0.124841
H	 3.9551230604	 2.5649798061	 2.1226337814	 0.124841
H	 3.9188321518	 4.392351674	 2.1763645234	 0.115156
55.615	86.9059	135.7262	206.5563	230.3838	276.6741	363.0138	460.9762	501.8036	571.407	656.1652	782.4505	794.9458	833.2279	868.9926	886.5565	923.3209	957.6987	1013.6567	1020.6747	1055.3768	1076.7367	1088.8484	1116.2181	1121.084	1131.3955	1137.1788	1181.9732	1195.8272	1210.6864	1218.955	1278.9841	1292.0087	1342.8347	1354.9339	1404.3501	1457.0959	1495.7991	1502.1747	1526.1257	2356.9602	2976.9492	2984.8391	3022.8552	3089.3478	3089.9447	3109.4585	3140.681	3145.1663	3225.2913	3238.7535
N#CC1CN(C1)C1CC1	N#C[C@H]1CN(C1)C1CC1	
InChI=1S/C7H10N2/c8-3-6-4-9(5-6)7-1-2-7/h6-7H,1-2,4-5H2	InChI=1S/C7H10N2/c8-3-6-4-9(5-6)7-1-2-7/h6-7H,1-2,4-5H2
