21
gdb 84850	2.46198	1.69433	1.26581	1.8378	83.06	-0.2422	0.0181	0.2603	1071.315	0.185288	-387.08948	-387.081663	-387.080719	-387.12133	32.01	
O	 0.4593639467	 0.6965588098	-1.0597094892	-0.439526
C	 0.0577179597	-0.2194479201	-0.0332123205	 0.077388
C	 0.7613942828	 0.1363614993	 1.2542347268	-0.091582
C	 0.2811822853	 0.3633130393	 2.4792265511	-0.051054
C	-1.1290446035	 0.3088403816	 3.0050986511	-0.263485
C	-2.2431475109	-0.0139448667	 2.0126972015	 0.004089
C	-1.975813448	-1.2790259799	 1.147054305	-0.248827
C	-1.4630981242	-0.3480788127	 0.0136297257	-0.013061
C	-2.1924353533	 0.8355105229	 0.7109028597	-0.244237
H	 0.2362786833	 1.5816852826	-0.7505530986	 0.277316
H	 0.4580201682	-1.1847483826	-0.3758265152	 0.091187
H	 1.8358233566	 0.2397889793	 1.1103793962	 0.091246
H	 1.0119851666	 0.6248436878	 3.2444039182	 0.087145
H	-1.156126081	-0.4253154897	 3.8251039026	 0.108571
H	-1.3457650272	 1.2749154478	 3.4866050609	 0.106048
H	-3.1992629403	-0.003172295	 2.5439954102	 0.062657
H	-1.2762773129	-2.0216042199	 1.5426683939	 0.097166
H	-2.9030127077	-1.7865247485	 0.8687018491	 0.096489
H	-1.8013977185	-0.5840902994	-0.9982141728	 0.071368
H	-3.1869730044	 1.0037688751	 0.2900138373	 0.098063
H	-1.6735685171	 1.7985236491	 0.7629182971	 0.083039
113.0517	217.9241	269.1614	299.2017	314.062	342.204	365.1672	425.6429	495.5684	585.0266	707.2644	770.5163	796.5103	806.3221	816.0561	865.9421	891.332	903.0439	955.1631	968.3656	1021.9447	1024.7672	1046.2378	1071.1277	1089.3355	1106.2335	1137.4834	1172.6695	1179.8197	1231.5037	1243.3951	1253.794	1268.289	1283.1699	1308.0975	1351.7801	1360.5165	1375.5431	1397.5176	1408.8208	1437.9941	1463.4562	1472.5629	1498.9834	1727.6316	2987.2922	3003.1223	3008.5027	3042.3711	3048.5597	3059.0454	3074.2253	3099.1521	3104.6425	3118.2709	3145.7842	3800.6968
OC1C=CCC2CC1C2	O[C@H]1C=CC[C@@H]2C[C@H]1C2	
InChI=1S/C8H12O/c9-8-3-1-2-6-4-7(8)5-6/h1,3,6-9H,2,4-5H2	InChI=1S/C8H12O/c9-8-3-1-2-6-4-7(8)5-6/h1,3,6-9H,2,4-5H2/t6-,7+,8-/m0/s1
