20
gdb 107282	3.27269	1.33594	1.16517	2.9449	78.51	-0.2232	0.0628	0.286	1141.9972	0.17149	-403.07158	-403.063495	-403.062551	-403.104292	31.56	
C	-0.2872657194	 1.5021115636	-0.1092521835	-0.371453
C	 0.1179660998	 0.0327754491	 0.0801745543	-0.329422
C	 0.8529325784	-0.5226216198	-1.103723079	 0.362442
N	 0.1615225914	-0.8675977995	-2.3684171709	-0.366492
C	 0.966010918	-1.902240075	-1.678096811	-0.147722
C	 2.4422971531	-1.6741692288	-2.0751773869	-0.091848
C	 2.7250851922	-0.9260932773	-3.4007504058	-0.08517
O	 2.6175548685	 0.3656536482	-2.7434603222	-0.29108
C	 2.3455012014	-0.2552010544	-1.4792479001	 0.072405
H	 0.5908781012	 2.1311002377	-0.2866199988	 0.130291
H	-0.9530165844	 1.6184945799	-0.9697742544	 0.126945
H	-0.8028111465	 1.8840762237	 0.7769081933	 0.112102
H	 0.7499192776	-0.0627295228	 0.9727805606	 0.103476
H	-0.7730359251	-0.5808827868	 0.2707001498	 0.09408
H	-0.8148982911	-1.0402372529	-2.1281069195	 0.225409
H	 0.5113084184	-2.8323941875	-1.357304469	 0.091086
H	 3.1610637815	-2.4112029435	-1.7224894825	 0.080448
H	 3.735552429	-1.078317571	-3.7979678602	 0.093329
H	 1.9801434534	-1.0451019686	-4.1914994217	 0.118641
H	 2.9707179028	 0.1167073257	-0.6616402925	 0.072535
83.5479	117.2511	192.7899	238.5076	290.2148	340.7881	361.3643	479.9344	569.4716	661.968	703.8153	778.272	807.1971	835.15	855.2983	889.2324	921.4012	936.4658	961.2061	983.5673	995.7997	1015.9719	1039.5041	1049.4741	1094.3854	1105.5754	1136.4165	1167.8705	1186.5738	1207.6121	1239.5824	1259.0095	1282.192	1317.0581	1341.2219	1350.9376	1369.5231	1411.3662	1434.6891	1477.2487	1497.2658	1499.7163	1505.7513	3010.5998	3027.8992	3039.4513	3043.9653	3062.4127	3099.7914	3109.9709	3113.1783	3132.8332	3179.3667	3463.8797
CCC12NC1C1COC21	CC[C@]12N[C@H]1[C@H]1CO[C@@H]21	
InChI=1S/C7H11NO/c1-2-7-5(8-7)4-3-9-6(4)7/h4-6,8H,2-3H2,1H3	InChI=1S/C7H11NO/c1-2-7-5(8-7)4-3-9-6(4)7/h4-6,8H,2-3H2,1H3/t4-,5+,6-,7+/m1/s1
