18
gdb 23074	3.60857	1.04293	0.96292	0.6462	75.78	-0.2435	0.0032	0.2468	1253.6934	0.146892	-439.010285	-439.001807	-439.000863	-439.043858	32.406	
O	 0.0387056997	 1.2845562542	 0.7260262242	-0.395249
N	 0.067057161	-0.1241926469	 0.7563047496	-0.246144
C	-0.9302924755	-0.6071610877	 0.1434209544	 0.437912
C	-2.1771599006	-0.046287226	-0.5183585349	-0.351607
C	-2.7226175233	-1.5030736968	-0.6254842754	-0.059272
C	-2.4390870646	-2.2424268952	-1.9600975608	 0.152548
O	-2.62471893	-1.5839903539	-3.1856908363	-0.427595
C	-0.9981998964	-2.5900906811	-1.4778331671	-0.290241
C	-1.3449006782	-2.0413057261	-0.052938719	-0.128895
H	 0.8188124531	 1.5129705685	 1.2426335536	 0.306716
H	-2.753262001	 0.6117602596	 0.1381503741	 0.136737
H	-2.0252565112	 0.4921907239	-1.460394163	 0.107748
H	-3.6829543346	-1.6812382944	-0.1428047679	 0.0752
H	-3.0550880122	-3.1442199084	-2.0229792593	 0.095319
H	-2.0279935053	-0.8292254989	-3.2199751237	 0.28193
H	-0.7393587612	-3.6500723845	-1.517488785	 0.113104
H	-0.2076471052	-2.0277862974	-1.9836971073	 0.105983
H	-1.2476650543	-2.7342023291	 0.781579244	 0.085806
41.2017	131.2099	191.6181	250.6452	274.8128	346.4645	386.8016	399.2555	462.5628	534.1152	536.5775	634.9798	742.9989	762.2455	783.7051	855.9597	908.8103	932.571	960.9737	980.8265	1040.265	1046.0623	1057.1133	1105.7744	1122.2791	1142.36	1166.3759	1204.4036	1224.4181	1248.9812	1274.6493	1285.7927	1306.8425	1324.9865	1404.8053	1434.2227	1463.287	1479.5317	1777.4036	3044.5206	3058.0219	3066.5486	3092.2391	3113.227	3115.2058	3129.0566	3812.7312	3818.8018
ON=C1CC2C(O)CC12	ON=C1C[C@H]2[C@@H](O)C[C@@H]12	
InChI=1S/C6H9NO2/c8-6-2-3-4(6)1-5(3)7-9/h3-4,6,8-9H,1-2H2	InChI=1S/C6H9NO2/c8-6-2-3-4(6)1-5(3)7-9/h3-4,6,8-9H,1-2H2/t3-,4-,6+/m1/s1
