18
gdb 102445	1.96026	1.20597	0.99868	2.9802	75.57	-0.2279	-0.0599	0.168	1296.8746	0.144383	-439.037733	-439.027175	-439.026231	-439.074254	36.658	
C	 0.584258733	-2.4394527546	-0.1029301916	-0.323518
N	 0.4440198863	-0.9953923731	-0.2451689701	-0.295212
C	 0.5496890526	-0.5223161656	-1.6098418483	-0.049818
C	-0.0202943504	 0.900174786	-1.7031916288	-0.108988
O	-1.3755132249	 0.8357268244	-1.2815885628	-0.422605
C	 1.9993551182	-0.4720068944	-2.1075317303	 0.217884
O	 2.2710295067	-0.5855647691	-3.2832513774	-0.290819
C	 3.0325749459	-0.2272285251	-1.1146907058	 0.331733
C	 3.9336982595	-0.014976358	-0.3449414088	-0.463474
H	-0.1070238508	-3.0194823194	-0.7390082813	 0.10178
H	 1.6055196152	-2.7435274199	-0.3572811851	 0.127167
H	 0.4096419933	-2.7191113798	 0.9396578975	 0.12091
H	-0.4548905079	-0.692867909	 0.1136506176	 0.233578
H	 0.0061784182	-1.1473498649	-2.3404742401	 0.09006
H	 0.5666357546	 1.566059537	-1.0540915994	 0.107421
H	 0.0655424489	 1.2506203266	-2.7404621332	 0.11426
H	-1.6938850134	 1.7327555141	-1.1463180924	 0.294912
H	 4.7234156049	 0.1717899346	 0.3415184703	 0.21473
25.6369	104.2507	115.8717	158.4259	164.7983	198.5628	227.0946	256.4934	268.1757	314.6767	362.8571	475.1055	525.4378	638.0881	666.7663	706.8128	720.9174	765.4767	805.9115	916.3064	1031.6633	1057.4535	1083.8556	1131.089	1162.3313	1178.653	1230.0517	1238.1302	1280.6934	1312.0024	1369.7359	1444.8383	1464.5101	1487.1226	1496.6235	1514.0167	1519.665	1762.2346	2208.3554	2949.113	2954.9181	2995.5969	3043.6393	3061.9285	3108.7323	3495.5263	3539.0811	3837.3931
CNC(CO)C(=O)C#C	CN[C@@H](CO)C(=O)C#C	
InChI=1S/C6H9NO2/c1-3-6(9)5(4-8)7-2/h1,5,7-8H,4H2,2H3	InChI=1S/C6H9NO2/c1-3-6(9)5(4-8)7-2/h1,5,7-8H,4H2,2H3/t5-/m0/s1
