17
gdb 34090	3.43948	1.51757	1.30702	1.2218	77.32	-0.2344	0.0396	0.274	990.8278	0.136654	-384.622334	-384.6152	-384.614256	-384.653592	29.132	
C	 0.0596752374	-1.1705632281	 0.0260772274	-0.33357
C	 0.0163204322	 0.0309747557	-0.0025494591	 0.068574
C	-0.0177127308	 1.4708577239	-0.0273984578	 0.1818
C	-0.978299943	 2.2097696668	 0.9815899815	-0.271772
C	-1.4156383946	 3.1277291899	-0.1571198498	-0.110031
C	-0.1886347529	 3.5722555026	-0.9273136827	 0.104197
O	 1.0664914703	 3.5388027744	-0.2819520519	-0.272863
C	 1.3564256416	 2.1673300263	-0.0067854141	-0.121149
C	-0.7448232835	 2.2207561151	-1.1958808046	-0.167266
H	 0.0927561567	-2.2316032118	 0.0509913551	 0.184645
H	-1.7827638148	 1.5473747484	 1.304686801	 0.119111
H	-0.5004532551	 2.6674062909	 1.8538663933	 0.104949
H	-2.36076265	 3.6535143796	-0.2267346408	 0.089688
H	-0.2854222498	 4.3779206785	-1.6448468066	 0.106382
H	 1.8454514515	 2.1016132846	 0.9695781847	 0.116075
H	 2.0212829712	 1.7454880628	-0.7742229388	 0.10177
H	-1.0791503562	 1.8036008602	-2.1357133069	 0.099457
142.5602	152.1358	246.2964	363.5916	446.3575	501.1252	505.3032	543.9249	630.0879	634.3956	643.5259	722.5759	760.1892	790.7548	845.6228	891.1158	936.9075	960.6929	974.3945	1018.0345	1024.2334	1037.7899	1068.4978	1104.3974	1111.2037	1138.6198	1171.9851	1198.1552	1225.1107	1250.7066	1276.5016	1307.6669	1371.4803	1403.1699	1488.5029	1512.8991	2237.9372	3001.4771	3049.7174	3087.705	3123.5031	3176.81	3193.2033	3211.2355	3502.0644
C#CC12CC3C(OC1)C23	C#C[C@@]12C[C@H]3[C@@H](OC1)[C@@H]23	
InChI=1S/C8H8O/c1-2-8-3-5-6(8)7(5)9-4-8/h1,5-7H,3-4H2	InChI=1S/C8H8O/c1-2-8-3-5-6(8)7(5)9-4-8/h1,5-7H,3-4H2/t5-,6+,7-,8-/m1/s1
