17
gdb 15411	4.97007	1.00677	0.93143	2.7698	66.74	-0.2538	-0.0309	0.2229	1242.788	0.140465	-400.961811	-400.953053	-400.952109	-400.996106	30.176	
C	 0.196877117	 0.7677414886	 0.4767651978	-0.232893
O	-0.3268809401	 0.3171220086	-0.7573092268	-0.231674
C	-1.5183169496	-0.4309522464	-0.641264086	-0.083837
C	-1.2625242217	-1.8480092772	-0.1691329837	-0.024781
N	-1.3701958171	-2.1386101964	 1.2554019368	-0.327075
C	-2.3427372509	-2.7669931987	 0.3369915385	-0.133092
C	-3.7580644175	-2.3258267768	 0.4911263057	 0.173025
O	-4.7011591267	-2.9663954168	 0.0997923729	-0.256432
H	 1.0653339285	 1.3884260395	 0.2435200195	 0.127577
H	-0.538280807	 1.3736195841	 1.0276545293	 0.109581
H	 0.5123464742	-0.0586945384	 1.1268960563	 0.115066
H	-2.2322113001	 0.0670734904	 0.0314846023	 0.096397
H	-1.9532961559	-0.4590868673	-1.6465105121	 0.118473
H	-0.4726097001	-2.3465017564	-0.7305132709	 0.106943
H	-0.6781738303	-2.82221518	 1.549864847	 0.245472
H	-2.2375237436	-3.818871858	 0.082714647	 0.110197
H	-3.8806911291	-1.3525794789	 1.0136523465	 0.087052
54.1679	78.9547	106.1257	169.2193	210.1134	275.0751	325.9705	371.5107	444.4808	471.2444	538.1304	833.0593	844.4962	907.6142	954.1641	968.3537	1012.7314	1027.9733	1055.9586	1128.8563	1152.9723	1181.1596	1197.71	1222.404	1232.6829	1246.8363	1326.4881	1354.3578	1386.6533	1418.0274	1469.9302	1472.7106	1486.9127	1490.5581	1509.7664	1822.333	2902.1093	2988.8951	3000.0091	3048.2748	3072.0041	3116.9649	3117.5967	3149.0857	3512.1945
COCC1NC1C=O	COC[C@H]1N[C@H]1C=O	
InChI=1S/C5H9NO2/c1-8-3-5-4(2-7)6-5/h2,4-6H,3H2,1H3	InChI=1S/C5H9NO2/c1-8-3-5-4(2-7)6-5/h2,4-6H,3H2,1H3/t4-,5+/m0/s1
