23
gdb 115586	2.5003	1.11262	1.01828	1.9609	82.46	-0.2421	0.0759	0.318	1367.3569	0.203027	-425.407603	-425.396971	-425.396026	-425.443514	38.412	
C	 0.1590398767	 1.4742221256	 0.2555607524	-0.397185
C	-0.2748895928	 0.0824766656	-0.2164124932	-0.198533
C	 0.5891021158	-0.467320141	-1.3558183613	 0.387902
C	 0.4869174724	 0.3354273837	-2.6445242561	-0.444723
O	 1.9874402349	-0.5819647645	-0.935455549	-0.325625
C	 1.9256088975	-2.0189903409	-0.9002391553	-0.106738
C	 0.5160779025	-2.0105591194	-1.5309907571	 0.029769
O	-0.5264736391	-2.634662619	-0.8362478093	-0.237974
C	-0.5352578403	-4.0373589118	-0.9853287953	-0.239243
H	 1.223448514	 1.474617865	 0.5072453475	 0.134473
H	-0.0102466	 2.2418101491	-0.5058946376	 0.112008
H	-0.4024035797	 1.7687441803	 1.1472219257	 0.108917
H	-0.2255272154	-0.6202102634	 0.620192194	 0.105249
H	-1.3217206344	 0.0924282062	-0.5425904454	 0.097579
H	 0.8193329138	 1.3656455211	-2.4914661143	 0.128881
H	 1.1161081325	-0.1072771982	-3.4219006087	 0.114667
H	-0.5481968825	 0.35658955	-3.0026379988	 0.117558
H	 2.7355617424	-2.4796512689	-1.4774707375	 0.098489
H	 1.9377433171	-2.4149919648	 0.1245747271	 0.098414
H	 0.5120347077	-2.3207694776	-2.5865045188	 0.067344
H	-0.6309377509	-4.3311911515	-2.0423399049	 0.107457
H	 0.3769167121	-4.5009674251	-0.5803592311	 0.110229
H	-1.3969958842	-4.4173298302	-0.431890973	 0.131085
63.0523	80.8621	97.8616	145.4019	199.4826	209.5326	228.0222	266.4453	300.8128	332.8896	354.2217	426.3681	486.8931	551.7657	653.5361	777.1664	786.4825	870.4771	897.1187	959.6493	996.5038	1016.0076	1019.7934	1058.306	1063.5654	1075.0428	1157.9846	1171.029	1176.3439	1185.0009	1197.2992	1232.3184	1254.1873	1276.2947	1318.2937	1335.6332	1372.0845	1402.0384	1406.9275	1408.8628	1472.8088	1483.9101	1487.4077	1490.2816	1493.9773	1507.8618	1509.1265	1512.4711	1515.2785	2975.0387	2988.5574	3003.6098	3024.4756	3036.5516	3041.6266	3044.1855	3058.5732	3084.9429	3107.8453	3109.4419	3118.4837	3118.7271	3121.6637
CCC1(C)OCC1OC	CC[C@@]1(C)OC[C@H]1OC	
InChI=1S/C7H14O2/c1-4-7(2)6(8-3)5-9-7/h6H,4-5H2,1-3H3	InChI=1S/C7H14O2/c1-4-7(2)6(8-3)5-9-7/h6H,4-5H2,1-3H3/t6-,7-/m1/s1
