17
gdb 56994	2.99252	1.2264	0.98105	2.8129	73.6	-0.2513	0.0298	0.2812	1198.3834	0.133819	-421.738905	-421.730258	-421.729314	-421.772499	32.454	
O	 0.81812429	 0.0364854388	-1.0984047315	-0.420139
C	-0.0750558779	-0.0122279809	 0.0119382146	-0.054379
C	-1.3022666741	-0.7482985552	-0.3048488368	 0.286981
C	-2.2775638322	-1.4031009939	-0.5623050195	-0.447543
C	 0.6062045864	-0.592961647	 1.2562049784	-0.032955
C	 1.869557459	 0.1656550064	 1.8036468508	-0.282629
C	 1.110305661	 0.3718370877	 3.1205605419	 0.035909
O	-0.0900972887	 1.0898666982	 2.8068568866	-0.241949
C	-0.0797221283	-0.3289948934	 2.6102969771	 0.01406
H	 0.9260756316	-0.8641014818	-1.4240547487	 0.283413
H	-0.3217308549	 1.033160584	 0.225214516	 0.133934
H	-3.1532037485	-1.9562470841	-0.7979570396	 0.200309
H	 0.8108987842	-1.658086971	 1.1093925643	 0.079862
H	 2.7399705069	-0.4874053431	 1.8948751157	 0.106919
H	 2.151767107	 1.0803483948	 1.2783857104	 0.123692
H	 1.4925152392	 0.4684464477	 4.1298306701	 0.106915
H	-0.8459488606	-0.9062967673	 3.1134959301	 0.1076
65.226	120.4489	137.9398	208.4684	248.5494	300.3678	373.453	428.0639	472.7871	550.9571	609.1335	631.91	673.0235	746.8957	822.3671	847.2907	865.8983	924.9336	934.1236	951.4745	1003.2288	1019.4438	1054.5875	1071.5035	1110.3168	1151.1027	1204.0114	1237.9342	1238.5892	1251.9948	1278.3617	1291.5145	1368.6603	1389.4809	1422.7287	1474.3488	2229.6635	3057.015	3071.706	3075.8878	3131.9913	3185.092	3200.3801	3502.3098	3804.6623
OC(C#C)C1CC2OC12	O[C@@H](C#C)[C@H]1C[C@H]2O[C@@H]12	
InChI=1S/C7H8O2/c1-2-5(8)4-3-6-7(4)9-6/h1,4-8H,3H2	InChI=1S/C7H8O2/c1-2-5(8)4-3-6-7(4)9-6/h1,4-8H,3H2/t4-,5+,6-,7+/m1/s1
