18
gdb 19009	5.14743	1.78921	1.58761	0.3013	77.33	-0.2087	0.0164	0.2251	866.584	0.155386	-310.620142	-310.613702	-310.612758	-310.650329	26.449	
C	-0.0448615754	 1.5024217144	 0.0206426887	-0.506742
C	-0.0079196906	 0.0134308356	-0.032324254	 0.318166
C	-0.0486802954	-0.8372202605	-1.063698316	-0.225792
C	 0.0285274977	-2.2110480947	-0.4203417671	-0.043608
C	-0.8347862601	-2.1534398773	 0.8955250057	-0.033471
C	 0.1777597916	-3.078852094	 1.6083759978	-0.253075
C	 1.0431266165	-2.1024269309	 0.7792045553	-0.033484
C	 0.0922495145	-0.9129603582	 1.1778378995	-0.103178
H	 0.8557590948	 1.9096464548	 0.4986757086	 0.125001
H	-0.1214097349	 1.9371516379	-0.9800143781	 0.123782
H	-0.8969243301	 1.8621333998	 0.6122529705	 0.124942
H	-0.1201134297	-0.623226641	-2.1214849265	 0.093383
H	 0.0150158709	-3.1131170396	-1.0339729311	 0.057039
H	-1.9267658493	-2.1706341589	 0.9546543032	 0.064121
H	 0.2428265531	-2.9919118407	 2.6969494919	 0.08684
H	 0.1871556442	-4.1284278686	 1.2998090663	 0.08758
H	 2.1333846907	-2.0603498995	 0.7031822219	 0.064116
H	 0.1432322314	-0.4936820286	 2.1848915033	 0.054381
174.9162	185.3218	267.166	424.6715	441.3558	536.7161	569.5118	722.8349	747.9635	792.0321	819.0225	864.4737	878.1784	898.0899	911.0808	959.6996	968.0252	1009.4348	1009.7562	1057.8941	1060.9775	1075.351	1095.5638	1126.3706	1154.4193	1187.1732	1192.2107	1213.0524	1229.2955	1248.8321	1261.324	1318.7226	1323.6568	1413.4744	1477.7372	1487.587	1517.6298	1695.1983	3011.7907	3042.3934	3054.35	3070.6193	3074.9207	3097.453	3101.3321	3105.9269	3108.3244	3222.8641
CC1=CC2C3CC2C13	CC1=C[C@@H]2[C@H]3C[C@@H]2[C@@H]13	
InChI=1S/C8H10/c1-4-2-5-6-3-7(5)8(4)6/h2,5-8H,3H2,1H3	InChI=1S/C8H10/c1-4-2-5-6-3-7(5)8(4)6/h2,5-8H,3H2,1H3/t5-,6-,7+,8+
