17
gdb 18025	4.29517	1.55136	1.41687	3.6354	63.66	-0.2264	0.0632	0.2896	921.0302	0.143357	-400.937407	-400.930125	-400.929181	-400.969208	27.535	
O	 0.0336600881	 1.2574236072	-0.4182152619	-0.425594
C	 0.0707103185	-0.0976554132	 0.0007671529	-0.080242
C	-1.3375237063	-0.6207683862	 0.2008940758	 0.137069
O	-2.1266370129	-0.4797358363	-1.0255176827	-0.332992
C	-2.5636281836	-1.851096981	-0.9619259621	 0.119149
C	-1.7004255046	-2.8332198412	-1.7804013792	-0.185843
N	-0.7241049859	-2.9184854606	-0.6526254546	-0.31485
C	-1.6246106654	-2.1377549808	 0.233937012	-0.097449
H	-0.5316932732	 1.2768729448	-1.1996039963	 0.291852
H	 0.5976569517	-0.7385631798	-0.7170150301	 0.107847
H	 0.6191231999	-0.1241313904	 0.9492885953	 0.101758
H	-1.8356337696	-0.0752665399	 1.0139085138	 0.080366
H	-3.6510584281	-1.9465645531	-0.9884870929	 0.084695
H	-2.2232025081	-3.7740563095	-1.9941361511	 0.099143
H	-1.2798799016	-2.4345211968	-2.7090207954	 0.114058
H	-0.561140965	-3.863286365	-0.3284924587	 0.224533
H	-1.907389834	-2.5946063783	 1.1829058152	 0.0765
85.0897	124.1966	180.5657	293.7828	372.7364	429.183	470.447	525.9041	675.3791	717.1152	793.6295	814.27	861.6113	914.6152	969.4488	986.6066	1017.6048	1029.4955	1064.0239	1070.0281	1092.2488	1116.5521	1153.5202	1191.8122	1206.477	1220.3454	1263.4325	1292.5493	1313.9226	1348.6984	1351.6339	1382.8529	1404.2368	1434.37	1493.3943	1504.0052	3014.2313	3018.9919	3027.8168	3077.4512	3080.0555	3086.1206	3105.2257	3558.002	3792.9847
OCC1OC2CNC12	OC[C@H]1O[C@H]2CN[C@@H]12	
InChI=1S/C5H9NO2/c7-2-4-5-3(8-4)1-6-5/h3-7H,1-2H2	InChI=1S/C5H9NO2/c7-2-4-5-3(8-4)1-6-5/h3-7H,1-2H2/t3-,4+,5+/m0/s1
