18
gdb 81560	2.7054	1.51222	1.33455	3.0468	73.24	-0.2371	0.0073	0.2444	1038.3217	0.1467	-439.04278	-439.034365	-439.033421	-439.076001	31.789	
C	-0.0919041264	 1.4337451603	 0.1322295804	-0.480949
C	-0.1053119862	-0.0819765096	 0.1724278841	 0.345255
O	 0.7808230871	-0.7410220053	 0.6984387271	-0.380703
N	-1.1618070209	-0.6750411494	-0.4862634039	-0.093074
C	-2.6350712243	-0.4550250013	-0.2067621302	-0.08908
C	-2.8906175332	-1.7255996852	-1.0540420572	-0.227646
C	-1.6839661054	-2.0514657314	-0.1334940786	-0.089301
C	-2.4883359259	-1.412538862	 1.0400115935	 0.18536
O	-1.8362248555	-0.9736709811	 2.1855834523	-0.448268
H	 0.9393354599	 1.7825679427	 0.1985664449	 0.14971
H	-0.5682213639	 1.8268552834	-0.7682959562	 0.133851
H	-0.6373229839	 1.8121611091	 1.0042089005	 0.152618
H	-3.0986771936	 0.5279290946	-0.2816226696	 0.099107
H	-3.8160018907	-2.2702011389	-0.8641087393	 0.109951
H	-2.6561075819	-1.6346217072	-2.1131922323	 0.121252
H	-1.0325536772	-2.9229020303	-0.129280853	 0.113562
H	-3.4081984474	-1.9309406318	 1.3301644568	 0.089856
H	-0.8818362108	-1.0714120866	 2.0675419407	 0.308497
82.94	98.426	147.3816	173.0249	309.4861	347.3077	385.9196	454.6382	505.1936	570.2763	603.1635	664.4381	719.7483	756.8343	845.9658	886.07	901.141	904.6527	987.2399	1015.5042	1038.5751	1054.8549	1071.9887	1114.7052	1123.9782	1141.7727	1171.826	1192.5271	1214.117	1240.5073	1274.397	1331.8433	1363.7185	1394.7763	1436.0831	1473.4205	1479.9211	1498.3202	1736.4451	3047.3848	3058.7809	3093.1103	3119.0647	3131.0533	3149.4833	3156.8168	3172.8359	3752.1075
CC(=O)N1C2CC1C2O	CC(=O)N1[C@H]2C[C@@H]1[C@H]2O	
InChI=1S/C6H9NO2/c1-3(8)7-4-2-5(7)6(4)9/h4-6,9H,2H2,1H3	InChI=1S/C6H9NO2/c1-3(8)7-4-2-5(7)6(4)9/h4-6,9H,2H2,1H3/t4-,5+,6-
