20
gdb 89901	3.27607	1.38364	1.22193	3.0024	78.64	-0.2412	0.0738	0.315	1086.5814	0.171804	-403.087437	-403.079691	-403.078747	-403.11937	31.677	
O	-0.7873471952	 1.0896871608	 1.0576434928	-0.443316
C	-0.0785247547	 0.2396674664	 0.1849716109	 0.15158
C	 0.7387236221	-0.875986803	 0.908021682	-0.309939
C	-0.4894045206	-1.7983664331	 0.7267720497	 0.368894
C	-0.5655152993	-3.3406826723	 0.660786395	-0.369096
C	-1.5353310619	-3.2536113804	 1.8363094631	-0.01548
C	-0.9157790881	-2.5380035581	 2.9661588291	-0.238591
N	-1.4879384401	-1.7346834138	 1.8671941203	-0.171987
C	-0.9510839594	-0.8902637297	-0.4340089239	-0.308337
H	-1.3557864535	 0.5282308973	 1.6037066449	 0.289741
H	 0.4695345213	 0.8876864862	-0.5023952203	 0.077945
H	 1.5910982225	-1.2126941392	 0.3096904062	 0.101235
H	 1.0695374255	-0.660090738	 1.9273321594	 0.102914
H	-1.023038684	-3.6895352166	-0.2677716553	 0.113738
H	 0.3522284221	-3.9098243801	 0.8386233484	 0.10498
H	-2.4718222006	-3.7936835722	 1.929013684	 0.099246
H	-1.4837477908	-2.4506458302	 3.8871250127	 0.123426
H	 0.163946764	-2.5636706775	 3.0983277595	 0.117096
H	-2.023764017	-0.6997824826	-0.5179417666	 0.108112
H	-0.5564181623	-1.2366768137	-1.3942632717	 0.09784
104.454	180.9548	198.4107	319.6886	391.5037	403.6104	411.779	490.2023	503.7613	523.964	751.7444	771.4245	777.9128	789.4263	849.221	858.9389	893.1819	920.7372	940.9687	966.5991	984.4089	1005.7662	1059.5477	1071.5992	1104.8287	1121.0942	1129.103	1145.4231	1177.0156	1189.314	1215.9774	1220.6461	1243.6812	1269.2179	1274.781	1301.0178	1338.7314	1362.7719	1449.6404	1455.3777	1478.9397	1481.705	1501.8499	3048.422	3050.1573	3054.7464	3088.0812	3105.5698	3108.1939	3111.6862	3117.5288	3166.1995	3199.6542	3732.2618
OC1CC2(CC3CN23)C1	O[C@H]1C[C@]2(C[C@H]3CN23)C1	
InChI=1S/C7H11NO/c9-6-2-7(3-6)1-5-4-8(5)7/h5-6,9H,1-4H2	InChI=1S/C7H11NO/c9-6-2-7(3-6)1-5-4-8(5)7/h5-6,9H,1-4H2/t5-,6-,7+,8?/m0/s1
