16
gdb 53218	3.20264	0.93675	0.8408	3.5993	74.5	-0.242	0.0035	0.2455	1408.4045	0.122985	-437.876162	-437.866641	-437.865697	-437.912275	32.634	
C	 0.1367164644	 1.5480514652	-0.1660652769	-0.500352
C	 0.0783273361	 0.099318113	-0.0512795904	 0.063012
C	 0.041023427	-1.1006052722	 0.0443135898	 0.136968
C	-0.0228168528	-2.5398018324	 0.1472860821	-0.098144
O	 0.0424749518	-3.0148458596	 1.5463767037	-0.241543
C	-1.2373613926	-3.5129075073	 1.5052154049	 0.42103
O	-1.8629006868	-3.983586705	 2.3997450681	-0.323272
C	-1.4335593529	-3.1995945785	 0.0053453441	-0.158666
N	-2.5173341041	-2.3850997122	-0.4727293764	-0.510595
H	 1.1433214401	 1.8843036778	-0.436069129	 0.157502
H	-0.5556559179	 1.9099542571	-0.9336854291	 0.157931
H	-0.1338560178	 2.0273751298	 0.7807992716	 0.159042
H	 0.7670242846	-3.0250070712	-0.4312088851	 0.122021
H	-1.3855803329	-4.1209028607	-0.5829934828	 0.125257
H	-3.388741575	-2.9036463805	-0.441668902	 0.246994
H	-2.6289514411	-1.5582123232	 0.1053260272	 0.242816
26.4084	60.7225	87.6265	156.5709	212.68	227.1732	269.8805	329.4586	378.9746	466.9762	474.7083	601.6641	696.7817	741.9343	792.8311	837.2668	889.3133	914.7718	955.4329	1051.0723	1052.4048	1111.4431	1131.2567	1198.0079	1219.0408	1240.0804	1272.1886	1366.7702	1412.3889	1420.0453	1473.9607	1476.1767	1653.9857	1933.4618	2370.4413	3032.3368	3070.8295	3085.056	3096.3533	3097.017	3507.4461	3591.2975
CC#CC1OC(=O)C1N	CC#C[C@H]1OC(=O)[C@H]1N	
InChI=1S/C6H7NO2/c1-2-3-4-5(7)6(8)9-4/h4-5H,7H2,1H3	InChI=1S/C6H7NO2/c1-2-3-4-5(7)6(8)9-4/h4-5H,7H2,1H3/t4-,5+/m1/s1
