14
gdb 21250	3.45245	1.90299	1.23644	2.1703	59.84	-0.1941	0.0371	0.2312	919.8855	0.107894	-415.85376	-415.846061	-415.845116	-415.886296	27.426	
C	-0.2244183201	 1.2911768839	-0.0289937302	-0.249608
O	-0.0599459717	-0.1139573391	-0.0459198583	-0.288193
C	 0.5758207172	-0.6348868572	 1.0444786702	 0.154865
C	 0.8146749346	-1.9891545283	 1.1795437577	 0.335553
O	 0.5280068305	-3.0412829954	 0.3829341254	-0.435423
N	 1.45268638	-2.1509005352	 2.3588518373	-0.244282
N	 1.651225058	-0.9825633893	 3.0150503855	-0.247699
C	 1.1171379055	-0.0590129636	 2.2143794791	-0.112315
H	 0.7449585496	 1.8064483116	 0.0067148069	 0.123988
H	-0.740799991	 1.5584217129	-0.9525197208	 0.132813
H	-0.8284805558	 1.6123641518	 0.8303293631	 0.123983
H	 0.076898872	-2.6951607319	-0.3963463425	 0.316763
H	 1.7700214599	-3.015824249	 2.7613688966	 0.27866
H	 1.1411838113	 0.9796860288	 2.5064531801	 0.110897
42.4416	177.8948	203.0021	279.0643	290.6791	314.3243	352.7146	448.781	542.5156	625.4409	673.5653	685.5939	763.5487	845.2821	939.3027	1081.9787	1107.8209	1181.7042	1181.7351	1208.1555	1237.1911	1262.9188	1369.8881	1413.2286	1442.706	1485.3039	1487.5971	1509.5285	1602.5206	1677.2556	2998.6983	3054.3577	3132.9346	3249.9861	3681.1322	3809.2016
COC1=C(O)NN=C1	COc1c(O)[nH]nc1	
InChI=1S/C4H6N2O2/c1-8-3-2-5-6-4(3)7/h2H,1H3,(H2,5,6,7)	InChI=1S/C4H6N2O2/c1-8-3-2-5-6-4(3)7/h2H,1H3,(H2,5,6,7)
