20
gdb 9670	4.59262	1.04428	0.97304	1.8314	72.12	-0.2577	0.072	0.3297	1247.9902	0.17491	-386.115297	-386.105537	-386.104593	-386.149704	35.122	
C	-0.0352798022	 1.6094478993	-0.0550393956	-0.468456
C	-0.0267456442	 0.0941707244	 0.0433354123	 0.341535
C	-1.2927846574	-0.5508212792	-0.478511069	-0.138624
O	-1.4266696793	-0.2375704578	-1.8603124425	-0.421668
C	 1.2638036441	-0.6589045093	-0.1804202115	-0.308672
C	 0.6449162249	-0.6248690707	 1.1958959452	-0.033807
C	 1.3138709495	 0.0949747281	 2.3369093886	-0.108916
O	 2.2615912709	-0.7972255348	 2.9133838282	-0.418369
H	 0.9279766438	 2.0479556284	 0.2158705926	 0.111135
H	-0.2635377835	 1.9061086814	-1.082405161	 0.137638
H	-0.8009116306	 2.048490049	 0.5968444326	 0.1064
H	-1.2436212757	-1.6403748105	-0.325586836	 0.081359
H	-2.1590993627	-0.1762710487	 0.0920774115	 0.081602
H	-2.2974371777	-0.525140149	-2.1492095341	 0.285992
H	 1.2353615793	-1.5868029591	-0.741102713	 0.111473
H	 2.1648201055	-0.0740771322	-0.336320244	 0.108146
H	 0.1627825121	-1.5444639795	 1.5200061756	 0.083555
H	 1.804931676	 1.01268111	 1.9810016161	 0.082827
H	 0.5595008463	 0.3976208863	 3.0818970615	 0.083257
H	 2.6459434806	-0.3649977063	 3.6819365923	 0.283592
70.7817	96.5906	149.156	174.7131	216.5865	237.916	261.8306	283.8294	341.3554	363.5099	376.7285	434.8728	605.7997	706.1425	849.2344	877.0971	910.7944	940.3649	975.5866	1003.0182	1030.5446	1063.1157	1067.5927	1089.6612	1111.9596	1134.6126	1171.1639	1238.707	1244.757	1256.6806	1260.3549	1301.1698	1352.8926	1408.2213	1415.2519	1459.003	1471.4039	1486.3179	1494.9158	1514.5839	1517.2031	1521.6454	2957.0114	2962.4807	2991.3784	3001.2234	3028.0974	3096.6192	3122.4561	3129.3357	3130.7723	3213.0608	3824.4388	3832.1119
CC1(CO)CC1CO	C[C@@]1(CO)C[C@H]1CO	
InChI=1S/C6H12O2/c1-6(4-8)2-5(6)3-7/h5,7-8H,2-4H2,1H3	InChI=1S/C6H12O2/c1-6(4-8)2-5(6)3-7/h5,7-8H,2-4H2,1H3/t5-,6-/m0/s1
