16
gdb 7092	5.39871	0.82346	0.72421	4.4623	73.37	-0.2549	-0.0458	0.2091	1548.4183	0.126504	-383.714219	-383.704362	-383.703418	-383.751845	31.717	
C	 0.0396695269	 1.4006297486	-0.0933158518	-0.226007
O	 0.0023707527	-0.0045516795	 0.0015016384	-0.21211
C	 0.617200216	-0.6357391903	-1.076592166	-0.158152
C	 0.5439115871	-2.1507715822	-0.9164585923	 0.207146
O	 0.0195379043	-2.6969533009	 0.025061738	-0.262757
C	 1.1659410699	-2.8799517314	-2.0057459812	 0.015067
C	 1.6830988649	-3.4879246671	-2.9110950617	 0.080949
C	 2.3025975015	-4.2318596298	-3.9941406312	-0.502648
H	 1.0728181477	 1.7820518841	-0.1171339692	 0.105655
H	-0.4812903951	 1.7641778432	-0.9932484571	 0.105656
H	-0.4636182756	 1.7965115369	 0.7913732746	 0.135319
H	 0.1444772183	-0.3728752293	-2.041372232	 0.112293
H	 1.6827892361	-0.3557283851	-1.1741157814	 0.112299
H	 2.2103506355	-5.3114439885	-3.8379700184	 0.164181
H	 1.834752245	-3.9860500474	-4.9536108769	 0.161467
H	 3.3680474148	-3.9900146814	-4.0733158618	 0.161639
9.0433	72.2589	73.872	84.9867	158.8051	198.6373	237.8135	310.7864	373.1316	386.3118	422.8302	581.3984	587.1253	810.6437	959.818	1014.2344	1035.3493	1046.9371	1052.473	1173.9725	1183.4873	1190.6079	1244.8791	1248.3002	1403.6442	1410.4072	1465.4003	1469.815	1473.5105	1487.6406	1490.9392	1514.7211	1785.7883	2340.4924	2934.4307	2955.1528	2971.5001	3015.5858	3032.8454	3095.7213	3101.6285	3121.9128
COCC(=O)C#CC	COCC(=O)C#CC	
InChI=1S/C6H8O2/c1-3-4-6(7)5-8-2/h5H2,1-2H3	InChI=1S/C6H8O2/c1-3-4-6(7)5-8-2/h5H2,1-2H3
