18
gdb 76591	2.99925	0.82238	0.80484	2.791	87.87	-0.2367	-0.0631	0.1736	1516.2295	0.144741	-401.89623	-401.886199	-401.885254	-401.93212	34.666	
C	 1.6357071837	-0.7719691336	 2.7407662174	-0.425191
C	 1.0405688853	-1.0905770258	 1.3882352432	 0.014832
C	 0.2567803938	-0.0686470754	 0.5825323711	-0.232699
C	 0.1189063255	 1.2644497003	 1.074312419	 0.15331
C	 0.008281671	 2.4046720713	 1.4681774742	 0.002195
C	-0.153037828	 3.7509803173	 1.9408406076	 0.016825
O	 0.7352647597	 4.4238539995	 2.4163282811	-0.237665
N	 1.5650385466	-0.5942375725	 0.132357633	-0.094629
C	 2.7260605499	 0.2895467042	 0.1124535881	-0.321352
H	 2.5514716403	-1.3516848789	 2.8981899808	 0.130055
H	 1.8698737849	 0.2865133586	 2.8606633744	 0.145563
H	 0.9284247926	-1.0497191385	 3.5284120799	 0.131923
H	 0.6616083367	-2.10922575	 1.3049755145	 0.104195
H	-0.5819271273	-0.42179259	-0.0133924133	 0.12132
H	-1.1845988063	 4.1453984054	 1.8372005385	 0.098199
H	 2.7486708896	 0.8059067	-0.8513836894	 0.134349
H	 2.7511166061	 1.0470959525	 0.904878172	 0.129587
H	 3.6250895558	-0.3291731644	 0.1882677682	 0.129184
57.2004	70.7748	98.3647	160.6775	175.7345	199.1737	213.7083	267.8349	358.5634	372.062	461.3514	492.0039	610.0516	670.9164	706.0158	787.5842	822.0321	918.4005	994.4146	1018.4843	1042.1434	1075.0691	1131.6094	1150.9968	1161.3708	1189.9544	1210.9278	1336.1933	1365.345	1397.9023	1421.4215	1421.9573	1456.7759	1486.6045	1487.8793	1500.6047	1511.7127	1756.8786	2302.327	2916.2455	3023.1452	3045.0326	3091.972	3101.3132	3103.9652	3114.6094	3127.929	3146.5863
CC1C(C#CC=O)N1C	C[C@H]1[C@@H](C#CC=O)N1C	
InChI=1S/C7H9NO/c1-6-7(8(6)2)4-3-5-9/h5-7H,1-2H3	InChI=1S/C7H9NO/c1-6-7(8(6)2)4-3-5-9/h5-7H,1-2H3/t6-,7+,8?/m0/s1
