17
gdb 123774	4.32444	1.32557	1.1121	3.1689	80.63	-0.2267	0.032	0.2587	1090.7426	0.138686	-380.836777	-380.829669	-380.828725	-380.868615	27.603	
C	 0.0474996069	 1.5597707314	-0.0093773912	-0.316042
C	 1.3188575863	 0.7420560653	-0.0473078919	-0.316082
C	-0.0173614672	 0.0603954485	-0.000940907	 0.153134
C	-0.5840581844	-0.8724092735	 1.1255032992	-0.240015
N	-1.1228581637	-1.6585397284	 0.0051465147	 0.063105
N	-1.8252777307	-2.7308980763	-0.3785611623	-0.306068
C	-1.7843214655	-2.6041818929	-1.717048097	 0.019675
C	-1.063508107	-1.4632606615	-2.1710983832	-0.422628
C	-0.653305382	-0.8823604038	-0.9848007185	 0.38118
H	-0.1950946391	 2.0825583803	 0.9098888606	 0.122486
H	-0.2643689636	 2.0726787691	-0.9123835596	 0.128418
H	 1.8763031255	 0.6958647961	-0.9762237737	 0.128417
H	 1.9334698134	 0.7135410244	 0.8463681157	 0.122487
H	 0.1598834468	-1.4044482567	 1.7248503751	 0.134186
H	-1.350789785	-0.4323959807	 1.769149629	 0.134206
H	-2.2802805862	-3.3455956497	-2.3272971209	 0.109443
H	-0.8957883745	-1.1545245417	-3.188896299	 0.104098
78.1699	139.9228	219.467	272.1005	436.3714	501.8713	505.1971	647.6447	707.0105	724.2512	774.3426	780.4543	856.8647	859.5562	869.7791	938.8191	941.6059	986.1212	1028.151	1058.7538	1066.7852	1068.0531	1082.7872	1135.4218	1183.7323	1189.407	1200.0593	1259.2497	1307.0588	1314.9627	1376.0363	1431.5971	1463.1649	1478.4986	1503.6574	1516.7529	1577.3607	3055.0835	3112.3248	3132.4166	3135.5221	3213.1565	3227.4535	3240.0628	3279.2248
C1CC11CN2N=CC=C12	C1CC21Cn1nccc21	
InChI=1S/C7H8N2/c1-4-8-9-5-7(2-3-7)6(1)9/h1,4H,2-3,5H2	InChI=1S/C7H8N2/c1-4-8-9-5-7(2-3-7)6(1)9/h1,4H,2-3,5H2
