14
gdb 131132	3.92965	1.07471	0.96248	2.0763	63.58	-0.264	-0.0463	0.2177	1176.9034	0.101964	-470.008953	-470.001198	-470.000254	-470.042388	27.552	
O	-0.1730015166	 1.4118052268	 0.11112136	-0.425738
C	 0.0009814983	 0.0255639761	 0.0468578958	-0.046364
C	 0.7941694202	-0.3479055529	-1.2048675372	 0.132368
O	 1.1425996585	 0.4938988958	-1.9941808629	-0.252755
C	 0.7177572755	-0.4879164444	 1.2660656414	 0.268612
N	 0.7872713407	-1.7884001351	 1.560303057	-0.28454
N	 1.5132696732	-1.8033804317	 2.67108381	-0.067598
N	 1.9192366957	-0.6302523382	 3.1329006178	-0.192816
C	 1.4249306007	 0.2325732216	 2.2442519916	-0.113961
H	 0.2311199345	 1.7595360035	-0.7010147222	 0.299
H	-0.9686890624	-0.4961675238	-0.0366211476	 0.119819
H	 1.0262292299	-1.4220293137	-1.3313349591	 0.123007
H	 1.7296683577	-2.6637914409	 3.1483704372	 0.296914
H	 1.573203724	 1.2944355968	 2.339784048	 0.144052
43.5482	91.1037	169.3987	238.3224	310.6838	372.9719	440.9812	496.4934	530.9147	670.4664	722.2705	736.2409	788.0142	875.1983	894.8873	995.549	1025.4398	1031.1431	1144.3199	1162.5846	1208.8116	1234.6698	1253.2729	1311.9866	1362.5271	1381.9574	1412.6455	1427.1986	1488.0393	1554.2823	1816.9516	2953.8739	2971.89	3296.2126	3666.804	3675.3597
OC(C=O)C1=NNN=C1	O[C@@H](C=O)c1n[nH]nc1	
InChI=1S/C4H5N3O2/c8-2-4(9)3-1-5-7-6-3/h1-2,4,9H,(H,5,6,7)	InChI=1S/C4H5N3O2/c8-2-4(9)3-1-5-7-6-3/h1-2,4,9H,(H,5,6,7)/t4-/m0/s1
