23
gdb 94677	2.38014	1.57957	1.16236	1.1416	85.23	-0.2454	0.0734	0.3188	1177.1719	0.205454	-388.30462	-388.29517	-388.294226	-388.33783	37.437	
C	-0.051404197	 1.5728811145	-0.0046547195	-0.415131
C	 0.0345705381	 0.0461454848	 0.0035004794	-0.006106
C	 0.7844487366	-0.5616792927	-1.2030590677	-0.244004
C	 1.2971847264	-1.9377268599	-0.7184399539	-0.270246
C	 1.5055921951	-1.7842167902	 0.7857969715	 0.302474
C	 1.5723938858	-3.0215272759	 1.6464221524	-0.477599
C	 2.2644277565	-0.5358042429	 1.2185699718	-0.413222
C	 0.7522794112	-0.5488821635	 1.2120511267	 0.377942
O	 0.0682442851	-0.5497244416	 2.431875541	-0.482011
H	 0.9476767773	 2.0236155961	-0.0045434465	 0.111782
H	-0.5834884405	 1.9382910857	-0.8891648577	 0.113424
H	-0.5887115119	 1.9423516393	 0.8761976505	 0.105271
H	-0.9858853919	-0.3607411949	 0.0325271138	 0.076301
H	 0.1485611769	-0.6400266554	-2.0891896512	 0.096278
H	 1.6258103733	 0.0839437529	-1.4792918262	 0.098552
H	 0.5378453228	-2.7113972191	-0.8907705285	 0.095876
H	 2.2024676841	-2.2555647561	-1.248303329	 0.092635
H	 2.4935622514	-3.5868935046	 1.4638583691	 0.110161
H	 1.5351957118	-2.7585365079	 2.7069178192	 0.124763
H	 0.7267416311	-3.6880509335	 1.4404746261	 0.112357
H	 2.7277803165	-0.5866864957	 2.1986390564	 0.105343
H	 2.8165722643	 0.0533733003	 0.4927226042	 0.102923
H	 0.198963337	 0.3081731002	 2.8489384181	 0.282238
123.8282	191.2781	205.1344	225.6219	228.9908	241.782	266.1399	332.5187	354.0496	432.0749	452.9696	506.5663	559.204	591.3443	664.7581	723.6727	837.9976	854.2528	895.2704	927.2121	940.5508	961.2043	974.0729	1001.151	1033.1952	1049.8366	1067.5075	1118.4367	1126.5328	1150.9806	1212.0223	1228.0548	1246.5587	1273.041	1307.4138	1318.8851	1329.2328	1353.4844	1382.0166	1405.8074	1407.0187	1417.8865	1482.7272	1487.8579	1492.0852	1496.7623	1500.3757	1504.3235	1515.2655	3008.5036	3020.3096	3024.0675	3025.9774	3041.1481	3062.0493	3080.9331	3088.2006	3091.6463	3096.9655	3113.9306	3120.6267	3206.4063	3803.9999
CC1CCC2(C)CC12O	C[C@H]1CC[C@@]2(C)C[C@@]12O	
InChI=1S/C8H14O/c1-6-3-4-7(2)5-8(6,7)9/h6,9H,3-5H2,1-2H3	InChI=1S/C8H14O/c1-6-3-4-7(2)5-8(6,7)9/h6,9H,3-5H2,1-2H3/t6-,7-,8+/m0/s1
