20
gdb 22137	5.77314	0.51419	0.49182	0.6356	89.19	-0.2374	0.0121	0.2495	2235.0649	0.16699	-403.095329	-403.083878	-403.082933	-403.134835	38.611	
C	-0.0326226537	 1.4910065897	-0.0285275612	-0.496721
C	-0.0106770654	 0.0359145622	 0.0231926008	 0.099964
C	 0.0191250835	-1.1670039833	 0.0690666874	 0.033764
C	 0.0169695203	-2.6241616358	 0.1203545097	-0.352777
C	-1.4028701094	-3.224420546	-0.048317299	-0.261493
C	-1.3952562931	-4.7300847748	-0.0531119436	 0.352184
C	-0.7699693567	-5.479400262	-1.2004207739	-0.471527
N	-1.9367666926	-5.2994139552	 0.9559483064	-0.163365
O	-1.8625731195	-6.7001615677	 0.8609925151	-0.401038
H	 0.5616693085	 1.8704552576	-0.8672831498	 0.145636
H	-1.0536328637	 1.8698339276	-0.1497856591	 0.146536
H	 0.3744153586	 1.9290823973	 0.8896384824	 0.146757
H	 0.680407915	-3.0212997668	-0.6589313095	 0.126477
H	 0.4313743719	-2.9676028231	 1.0765672272	 0.135659
H	-2.042435707	-2.8739901157	 0.7646155355	 0.126125
H	-1.8269462236	-2.8565027208	-0.9906397115	 0.113583
H	 0.1202342711	-6.0252535808	-0.8692079924	 0.146525
H	-1.4670024505	-6.2305247359	-1.5836753531	 0.149304
H	-0.4860119958	-4.805388475	-2.0112505086	 0.118857
H	-2.3234875279	-6.9797332015	 1.658717967	 0.30555
16.3667	43.3237	60.6871	68.2745	95.7431	169.0225	214.7755	272.8856	304.2561	346.737	372.6609	396.067	416.6691	474.3184	553.5926	643.546	770.8705	774.0674	833.4492	971.3367	986.0133	1001.2399	1047.7694	1051.9441	1054.8983	1075.3171	1169.3562	1186.7681	1266.7017	1286.9846	1309.7531	1365.2036	1398.4527	1400.5469	1415.5055	1471.2088	1474.9124	1479.1379	1479.5316	1484.1028	1487.82	1727.6329	2373.8488	3017.2693	3025.0059	3035.1992	3041.548	3050.8605	3084.7422	3085.089	3099.8555	3113.9924	3131.1188	3821.9745
CC#CCCC(C)=NO	CC#CCCC(=NO)C	
InChI=1S/C7H11NO/c1-3-4-5-6-7(2)8-9/h9H,5-6H2,1-2H3	InChI=1S/C7H11NO/c1-3-4-5-6-7(2)8-9/h9H,5-6H2,1-2H3
