20
gdb 126584	5.31726	0.63924	0.61448	3.3964	81.27	-0.2527	-0.0077	0.2451	1854.6119	0.171115	-403.153513	-403.144337	-403.143392	-403.18904	32.795	
C	 0.0572939158	 1.576734075	-0.1157688845	-0.383102
C	 0.017445725	 0.0525473083	 0.022594633	-0.162024
C	-1.4044307655	-0.5158386492	-0.0135902715	-0.151748
C	-1.4452299999	-2.0492373289	 0.1250701302	-0.343
C	-2.8322602048	-2.6153811557	 0.0775626532	 0.155008
C	-3.5797195388	-3.1540699401	 1.0777513118	-0.01209
O	-4.788544697	-3.5313630786	 0.6323367028	-0.163661
N	-4.8750537555	-3.2416169216	-0.7246036837	-0.133245
C	-3.7223018446	-2.7046476719	-1.0354274543	-0.036872
H	 1.0844436741	 1.9531381287	-0.0868092403	 0.113975
H	-0.3893843566	 1.9002909138	-1.0624441592	 0.115804
H	-0.498545311	 2.0625144847	 0.6937586448	 0.116197
H	 0.6109832863	-0.4050778981	-0.7801148242	 0.09615
H	 0.5017914743	-0.243770691	 0.9626309636	 0.09598
H	-2.0041640481	-0.0684461872	 0.7894267639	 0.101022
H	-1.8923723551	-0.2237018234	-0.9529624045	 0.09871
H	-0.8380400033	-2.4963549041	-0.6727140819	 0.111723
H	-0.9686830715	-2.3402661637	 1.068487083	 0.10623
H	-3.3885822869	-3.3335021832	 2.124847274	 0.146891
H	-3.550193537	-2.3951933039	-2.0575412663	 0.128051
37.9771	76.9906	89.1483	120.6026	238.2929	241.7849	315.6351	324.3234	436.7449	620.0397	663.0838	725.1158	734.5868	791.729	842.0432	902.6232	904.3818	917.2635	931.4335	939.1129	1005.955	1029.5208	1062.5354	1100.3278	1123.8951	1150.6803	1206.8272	1237.4526	1273.0208	1293.1675	1311.9164	1330.4924	1366.1733	1397.1781	1400.7126	1414.3731	1475.9156	1483.4421	1487.2457	1499.5436	1500.0783	1512.6432	1652.536	3011.4027	3016.2045	3025.5079	3031.3521	3035.7439	3052.1667	3073.5386	3097.7028	3103.616	3234.9599	3260.1876
CCCCC1=CON=C1	CCCCc1conc1	
InChI=1S/C7H11NO/c1-2-3-4-7-5-8-9-6-7/h5-6H,2-4H2,1H3	InChI=1S/C7H11NO/c1-2-3-4-7-5-8-9-6-7/h5-6H,2-4H2,1H3
