17
gdb 91603	2.26234	2.03068	1.47115	1.1677	66.58	-0.2441	-0.0285	0.2156	939.6073	0.136648	-458.988326	-458.980991	-458.980047	-459.020083	28.729	
C	-0.2299228806	 1.5555321572	-0.0322053607	-0.412772
C	 0.0196878095	 0.0580956535	 0.0129066774	 0.124766
O	 0.8667185036	-0.3689814938	-1.0800702053	-0.294354
C	 1.8840131514	-1.1640930002	-0.4791992514	 0.185609
C	 2.9451091808	-0.2416204896	 0.14310152	-0.357844
C	 2.1256850457	 0.280439675	 1.3377612691	 0.432623
O	 2.4284943801	 1.1074852169	 2.152491398	-0.317976
C	 0.8062142254	-0.5060248486	 1.2238430011	-0.095266
O	 1.2728032799	-1.7457802628	 0.6660318183	-0.251933
H	 0.6961389021	 2.1271714279	 0.0695324407	 0.135352
H	-0.6972953234	 1.8242575233	-0.983087362	 0.135547
H	-0.906563972	 1.8505102861	 0.7763559023	 0.126874
H	-0.9304706999	-0.4865047878	-0.0592039885	 0.095635
H	 2.2215566255	-1.9329918118	-1.1726212678	 0.104063
H	 3.8170527804	-0.8059737679	 0.4885987766	 0.139305
H	 3.2764709909	 0.5727034671	-0.5037355069	 0.139827
H	 0.2520455006	-0.6552036545	 2.1469987291	 0.110545
113.4471	142.2992	217.1154	303.074	390.6263	428.7485	459.0636	523.8844	620.1924	622.3583	678.4734	801.2258	825.5716	837.8179	871.3703	908.9341	952.0062	970.6226	991.7628	1030.3053	1076.0761	1102.247	1126.7612	1145.1079	1173.4297	1233.6611	1239.2105	1263.4896	1326.1757	1337.4079	1358.558	1379.9522	1419.4828	1438.7924	1485.1628	1499.6193	1871.1293	3021.8067	3046.2533	3065.7135	3117.6197	3128.7316	3130.4114	3139.0425	3166.6289
CC1OC2CC(=O)C1O2	C[C@H]1O[C@H]2CC(=O)[C@@H]1O2	
InChI=1S/C6H8O3/c1-3-6-4(7)2-5(8-3)9-6/h3,5-6H,2H2,1H3	InChI=1S/C6H8O3/c1-3-6-4(7)2-5(8-3)9-6/h3,5-6H,2H2,1H3/t3-,5-,6-/m1/s1
