19
gdb 40344	3.73535	1.28354	1.20746	1.6364	79.29	-0.2389	0.0849	0.3238	1098.5354	0.160643	-385.812836	-385.805508	-385.804564	-385.845071	28.928	
C	 0.5358123668	 1.4778041343	 0.0695368346	-0.174336
O	 1.1092563328	 0.2481211942	-0.3751669938	-0.231407
C	-0.2551064635	 0.2355029974	 0.0627812312	-0.130794
C	-0.5287495986	-0.5332036346	 1.2900901794	 0.415836
C	 0.315304127	-0.8542094265	 2.4982668027	-0.124332
C	-0.7689822282	-0.3646008954	 3.455911734	-0.226143
C	-1.7662263755	-0.6182986339	 2.2914622218	-0.127297
C	-1.7471537047	-2.1601865985	 2.1074840419	-0.22707
C	-0.3006663473	-1.9849338801	 1.6517322138	-0.117022
H	 0.920849881	 1.8560383281	 1.0150034585	 0.112136
H	 0.3748285587	 2.225268528	-0.7064415657	 0.112628
H	-0.9738161524	 0.1076714812	-0.749563216	 0.089494
H	 1.3898287731	-0.7573536414	 2.5843693665	 0.094207
H	-0.9414537328	-0.9112321627	 4.390627343	 0.088037
H	-0.6581577302	 0.702092781	 3.6704599012	 0.09701
H	-2.6950104383	-0.055933477	 2.2175799403	 0.070448
H	-1.9576950544	-2.7731290028	 2.9918773251	 0.087383
H	-2.3870819825	-2.4794925421	 1.2800249739	 0.098226
H	 0.3362732489	-2.6913577793	 1.1351272878	 0.092997
64.5895	137.7766	162.7429	324.718	389.2289	460.1616	496.4711	634.2002	727.041	730.5491	818.9286	837.0262	865.1927	900.3422	914.4231	921.05	962.9084	965.7973	985.1247	1012.9954	1021.3682	1035.5016	1078.4512	1086.4336	1107.7734	1126.7844	1134.4888	1151.2816	1170.4458	1182.3028	1221.1784	1226.2364	1250.8105	1281.3622	1288.6082	1315.8451	1398.9577	1481.2732	1492.6374	1510.227	1522.4261	3027.2287	3033.3197	3079.2206	3084.3903	3091.1191	3093.3894	3134.0253	3172.672	3196.9414	3206.3606
C1OC1C12C3CC1CC23	C1O[C@H]1[C@@]12[C@H]3C[C@@H]1C[C@@H]23	
InChI=1S/C8H10O/c1-4-2-6-5(1)8(4,6)7-3-9-7/h4-7H,1-3H2	InChI=1S/C8H10O/c1-4-2-6-5(1)8(4,6)7-3-9-7/h4-7H,1-3H2/t4-,5+,6-,7-,8-/m1/s1
