15
gdb 14284	3.7867	1.8653	1.77923	4.7459	60.15	-0.2494	0.0486	0.298	799.4153	0.120068	-399.83216	-399.825188	-399.824244	-399.863421	26.084	
C	-0.070936309	 1.5674678681	 0.0003447498	-0.428102
C	 0.0401047081	 0.0618313546	-0.0495200074	-0.067914
C	 0.6699597867	-0.7084452873	-1.2076992639	-0.057899
N	 1.6273737846	-0.0311266615	-2.024128522	-0.35876
C	 2.6845937306	 0.4685952991	-1.291486034	 0.468059
O	 3.5783040077	 1.17606849	-1.6593070029	-0.388447
O	 2.5503428875	 0.0218260859	 0.0055989745	-0.234316
C	 1.3371637316	-0.6883325535	 0.1431749252	 0.066469
H	 0.7869340718	 2.0636513674	-0.458349933	 0.147512
H	-0.971655529	 1.9051960221	-0.5224181376	 0.123233
H	-0.1325961582	 1.9137334142	 1.0366950604	 0.132833
H	-0.8025628935	-0.4713540278	 0.3855887376	 0.099336
H	 0.1959315644	-1.586557692	-1.6308619725	 0.113439
H	 1.4119115111	 0.4009232989	-2.9068955028	 0.26591
H	 1.4255016056	-1.5405652382	 0.8045627585	 0.118645
116.152	124.4578	199.4871	272.6637	418.294	471.4821	525.3681	609.7587	705.5699	750.2701	759.3937	783.0158	801.5281	896.1238	921.254	1010.0254	1024.0463	1055.6377	1092.1629	1133.1454	1137.2505	1151.843	1201.4902	1226.0656	1360.833	1375.5919	1389.0429	1424.8622	1434.6039	1491.3391	1500.8193	1895.2429	3043.2609	3103.0347	3124.6887	3140.0434	3171.8131	3197.347	3664.7374
CC1C2NC(=O)OC12	C[C@H]1[C@H]2NC(=O)O[C@@H]12	
InChI=1S/C5H7NO2/c1-2-3-4(2)8-5(7)6-3/h2-4H,1H3,(H,6,7)	InChI=1S/C5H7NO2/c1-2-3-4(2)8-5(7)6-3/h2-4H,1H3,(H,6,7)/t2-,3+,4-/m0/s1
