19
gdb 51618	5.57736	0.74458	0.71355	2.1005	78.11	-0.2285	-0.0269	0.2016	1577.4674	0.157961	-419.150341	-419.141425	-419.140481	-419.185132	32.275	
O	-0.3233715356	 0.0398522779	 0.3334189984	-0.235854
C	-0.0899745713	 1.1756980066	 0.0138933182	 0.157786
C	 1.3060140172	 1.7626070605	-0.1306464897	-0.239865
N	 1.3576776817	 2.7262988298	-1.2028974861	-0.092908
C	 1.4731050211	 2.2329422377	-2.5961791478	-0.254621
C	 2.4885875109	 3.3482033596	-2.8595533222	 0.340602
C	 3.4960640133	 3.4735667138	-3.926675529	-0.30691
N	 2.369708533	 4.4291219362	-3.8268342901	-0.352174
C	 2.5622347664	 3.5801631497	-1.3495740408	-0.225306
H	-0.899326058	 1.9109634262	-0.1961661071	 0.085362
H	 1.5173638811	 2.286360026	 0.8137401738	 0.131771
H	 2.0330479882	 0.9349931682	-0.2180821208	 0.103201
H	 1.9079834906	 1.2229033707	-2.6712204393	 0.099711
H	 0.5374449896	 2.2574479677	-3.168402594	 0.108163
H	 4.473591113	 3.8981975529	-3.7130667569	 0.122532
H	 3.489706954	 2.7341153507	-4.7244045892	 0.114655
H	 1.658299354	 4.2079388077	-4.5201333695	 0.232272
H	 2.4331494783	 4.6115735765	-1.0064428807	 0.118515
H	 3.4666270424	 3.1505687314	-0.8917196772	 0.093068
50.5537	62.6376	95.267	183.1747	280.0269	295.1694	330.5498	392.4723	413.347	462.8396	569.5095	726.2183	806.7522	825.1929	873.6187	912.4377	933.0674	973.2719	992.5067	1014.96	1044.2185	1068.3241	1103.7626	1126.8407	1131.7904	1147.5502	1178.9974	1214.6214	1247.3614	1262.974	1272.3743	1297.9841	1325.1023	1350.1253	1404.6314	1441.9877	1455.3733	1494.3113	1516.2042	1523.507	1838.6139	2884.9216	2945.55	2969.3839	2985.3792	3024.1353	3039.6167	3072.2362	3101.0203	3184.6783	3489.8197
O=CCN1CC2(CN2)C1	O=CCN1CC2(CN2)C1	
InChI=1S/C6H10N2O/c9-2-1-8-4-6(5-8)3-7-6/h2,7H,1,3-5H2	InChI=1S/C6H10N2O/c9-2-1-8-4-6(5-8)3-7-6/h2,7H,1,3-5H2
