18
gdb 84938	2.6162	1.59227	1.05056	3.4289	77.18	-0.2193	-0.0068	0.2125	1132.8444	0.148732	-439.10974	-439.101295	-439.100351	-439.143124	31.096	
C	 0.3041894688	 1.5011735494	-0.0485402656	-0.359501
N	 0.0060511731	 0.0706024742	 0.0303445462	-0.124756
C	-0.2667926347	-0.5621752082	-1.1919382818	 0.034645
C	-0.2831048779	-1.8531787359	-1.5358930701	-0.129682
C	 0.0528437575	-3.0579323186	-0.7127975835	-0.139497
O	 0.528807381	-2.7703964508	 0.581569809	-0.236828
C	-0.3618215787	-1.999275764	 1.360698167	-0.205181
C	-0.0755362459	-0.4997069479	 1.2899127172	 0.405579
O	 0.0691226037	 0.1515554816	 2.307411198	-0.363867
H	 1.214957788	 1.6707784413	-0.6313013114	 0.133606
H	-0.523888192	 2.0393119708	-0.5234166888	 0.128597
H	 0.4418844522	 1.8716811017	 0.9648128403	 0.174273
H	-0.5146436524	 0.1648625657	-1.9599656174	 0.106993
H	-0.577746366	-2.0671068114	-2.559705286	 0.097766
H	-0.8244936318	-3.7300276022	-0.662498772	 0.099528
H	 0.8523771604	-3.6296684178	-1.2007513429	 0.125722
H	-1.4097772174	-2.1919393586	 1.0831364953	 0.113135
H	-0.2228146682	-2.2774792292	 2.4069856464	 0.139469
85.5216	105.7855	116.4789	224.0122	281.3605	341.6569	364.0876	414.3714	445.6979	515.486	571.6943	679.9071	734.464	740.4843	843.7878	902.727	970.171	977.4412	997.5699	1032.9838	1056.412	1152.0991	1156.5391	1175.2081	1235.6339	1249.9138	1294.8519	1324.158	1372.2804	1397.2723	1418.5498	1429.4175	1472.5075	1475.0114	1489.1094	1504.8169	1511.9888	1742.8003	1766.5399	2926.3545	2991.5113	3032.7866	3041.9687	3090.2255	3118.6857	3156.157	3176.5369	3180.6624
CN1C=CCOCC1=O	CN1C=CCOCC1=O	
InChI=1S/C6H9NO2/c1-7-3-2-4-9-5-6(7)8/h2-3H,4-5H2,1H3	InChI=1S/C6H9NO2/c1-7-3-2-4-9-5-6(7)8/h2-3H,4-5H2,1H3
