16
gdb 16189	4.48151	1.5919	1.37754	2.1644	60.14	-0.257	0.0688	0.3258	905.9613	0.130704	-420.850637	-420.843312	-420.842368	-420.882511	27.092	
O	 0.0586620477	 1.3505623338	-0.3319557198	-0.414589
C	 0.0349793864	 0.0214600268	 0.163631099	-0.162212
C	-1.3655014498	-0.521080416	 0.2085410694	 0.364606
C	-2.4266948527	 0.0737139265	 1.1159532826	-0.131213
O	-3.5140618231	-0.8446020263	 1.098229708	-0.255194
C	-3.0421564115	-2.1397522117	 0.7483422406	-0.101458
C	-1.7676882373	-1.9094623588	-0.0339052458	-0.05508
O	-1.9203097208	-0.9244361307	-1.0622307248	-0.296306
H	-0.3117447884	 1.3252992014	-1.2216134757	 0.295121
H	 0.6638690552	-0.6496732024	-0.4389411828	 0.09945
H	 0.4569828812	 0.0663127252	 1.1734014956	 0.116104
H	-2.0121402056	 0.1963281885	 2.1301036588	 0.094906
H	-2.7969186546	 1.0436759336	 0.7726030735	 0.125708
H	-2.8191885482	-2.7525848336	 1.6378672426	 0.095653
H	-3.8266658425	-2.6377115395	 0.1695079558	 0.122149
H	-1.0715285461	-2.7198829868	-0.233729217	 0.102357
69.1367	151.8056	208.1961	283.8872	314.1519	408.1545	428.3992	463.1658	669.5181	701.2126	779.3421	874.5951	905.345	928.6421	947.2216	985.5024	1011.0415	1067.5677	1070.5383	1112.2832	1124.9301	1186.4962	1220.3219	1242.9796	1273.8071	1279.654	1355.9763	1371.4376	1393.0817	1422.164	1477.6362	1488.0009	1499.9127	1511.6082	2968.5219	2977.1408	3002.1476	3074.9686	3076.7183	3089.5975	3154.0599	3801.559
OCC12COCC1O2	OC[C@]12COC[C@H]1O2	
InChI=1S/C5H8O3/c6-2-5-3-7-1-4(5)8-5/h4,6H,1-3H2	InChI=1S/C5H8O3/c6-2-5-3-7-1-4(5)8-5/h4,6H,1-3H2/t4-,5+/m1/s1
