17
gdb 85375	1.992	1.78816	0.97496	2.2721	72.16	-0.2652	-0.0071	0.2581	1175.0422	0.137474	-455.217361	-455.20921	-455.208265	-455.250249	30.716	
C	-0.0016690779	 1.5040273733	 0.0712752059	-0.403325
C	 0.0275925553	-0.0106028404	-0.0229022568	 0.115485
C	 0.7321696405	-0.5407995404	-1.2660261001	-0.268104
C	 0.8235145571	-2.0434705858	-1.2139903633	 0.375968
N	 0.7818417426	-2.7502643387	-2.2694976758	-0.516139
N	 0.9657299073	-2.5262198309	 0.0876473484	-0.411043
C	 1.04185662	-1.7838633946	 1.2650590638	 0.470899
O	 1.3790709812	-2.2739499278	 2.3088081406	-0.372838
O	 0.715381687	-0.4814024774	 1.1623840982	-0.249218
H	 1.0136199517	 1.9103635526	 0.0429585674	 0.133757
H	-0.569557753	 1.9215840858	-0.7650810937	 0.127835
H	-0.4739205812	 1.8177949158	 1.0052124073	 0.140197
H	-0.9963454575	-0.4069279971	 0.0147592175	 0.102985
H	 0.2091529536	-0.2527601659	-2.1789609406	 0.143988
H	 1.7452534068	-0.1208526756	-1.3093875671	 0.136204
H	 0.8770064255	-3.7477227743	-2.0656403508	 0.210175
H	 1.165751971	-3.5069601487	 0.224676689	 0.263175
113.6206	131.8133	139.1254	231.181	274.7946	362.2901	444.0325	456.2104	481.7657	570.1976	591.1235	615.3033	659.8546	769.8686	870.0739	888.074	906.0759	919.0544	944.6499	1031.7008	1074.9621	1129.9161	1146.2715	1159.144	1226.0573	1277.546	1306.2895	1383.17	1392.0642	1412.5895	1416.9869	1420.1136	1461.5769	1484.7648	1498.4838	1746.5318	1857.2059	3015.004	3040.303	3048.5026	3122.7321	3131.7352	3132.9213	3445.4192	3613.0248
CC1CC(=N)NC(=O)O1	C[C@H]1C[C]([NH])NC(=O)O1	
InChI=1S/C5H8N2O2/c1-3-2-4(6)7-5(8)9-3/h3H,2H2,1H3,(H2,6,7,8)	InChI=1S/C5H8N2O2/c1-3-2-4(6)7-5(8)9-3/h3H,2H2,1H3,(H2,6,7,8)/t3-/m0/s1
