15
gdb 51858	2.9591	1.14721	0.92678	4.0622	63.5	-0.2641	-0.0496	0.2145	1228.0134	0.111358	-494.938701	-494.930413	-494.929469	-494.973105	28.722	
O	-0.0872086724	 0.1153542596	 0.442376727	-0.261761
C	-0.0234374441	 1.2362530819	 0.0459140902	 0.183283
O	 1.0142673136	 2.0565323812	 0.3450679577	-0.204724
C	 0.9268934905	 3.4147576729	-0.1013264838	 0.08497
O	 0.3593236869	 4.2371088869	 0.8541756813	-0.235865
C	 1.3845931046	 4.6219565388	 1.7999433806	-0.098026
C	 2.6601510082	 4.7786391321	 0.9672842002	-0.348965
C	 2.3864868606	 3.9042262915	-0.2561237436	 0.38383
O	 3.1147236748	 3.653995027	-1.1727774178	-0.281096
H	-0.7756980224	 1.7213497593	-0.6044798228	 0.088969
H	 0.3446370403	 3.4743619409	-1.0256375269	 0.121084
H	 1.0446815158	 5.5432467912	 2.2734696898	 0.130211
H	 1.4899906365	 3.844672571	 2.5647990533	 0.131671
H	 2.8052227514	 5.8098266664	 0.6288112324	 0.152974
H	 3.5750022457	 4.4591552893	 1.4705177124	 0.153445
42.5268	77.4833	145.1219	152.1126	206.1392	299.7913	430.849	479.266	551.3374	611.4449	676.3515	709.0707	844.0281	853.0352	925.9402	989.7456	1001.8587	1041.562	1051.0584	1125.1693	1140.0686	1176.0701	1206.9633	1241.569	1272.768	1306.7236	1358.8089	1396.386	1434.0576	1447.8876	1519.0827	1876.1687	1879.6559	2962.6408	3049.1327	3065.1101	3077.9628	3121.2314	3134.2256
O=COC1OCCC1=O	O=CO[C@H]1OCCC1=O	
InChI=1S/C5H6O4/c6-3-9-5-4(7)1-2-8-5/h3,5H,1-2H2	InChI=1S/C5H6O4/c6-3-9-5-4(7)1-2-8-5/h3,5H,1-2H2/t5-/m1/s1
