19
gdb 79522	3.15393	1.56468	1.30528	1.2775	74.53	-0.2504	0.0612	0.3116	1012.2462	0.161443	-422.98288	-422.975491	-422.974547	-423.014641	29.92	
O	 0.0792594024	 1.3977538914	 0.2092252416	-0.447721
C	-0.0171425201	-0.0028792891	 0.0556297283	 0.087993
C	-1.4259207799	-0.530919128	-0.1990796478	-0.033115
C	-1.3106042919	-1.9683228531	-0.8028026382	-0.076639
C	-2.5913397215	-1.7054155781	-1.6304265514	-0.238054
C	-1.7737962534	-0.3947405047	-1.7202179911	-0.060875
C	-0.4736613003	-1.244598939	-1.9081005073	-0.000181
C	 0.6883077991	-0.5200418948	-1.2544195546	 0.034433
O	 1.1009143428	 0.557972386	-2.0907009303	-0.439058
H	 0.0652885054	 1.7608227957	-0.686604893	 0.278991
H	 0.4203886167	-0.4437872905	 0.9580980594	 0.077203
H	-2.1971322723	-0.3203067856	 0.543618809	 0.067595
H	-1.0312584846	-2.8791673216	-0.2690001631	 0.067636
H	-2.7055519941	-2.2789151011	-2.5551169027	 0.089826
H	-3.5331420771	-1.6625872083	-1.0760629002	 0.090898
H	-2.0340016658	 0.5188371178	-2.255672691	 0.074921
H	-0.2971605636	-1.74391217	-2.8619399818	 0.068781
H	 1.5362513219	-1.1844856214	-1.044110807	 0.067127
H	 1.8903649361	 0.9465229644	-1.6983167286	 0.290241
101.561	159.3174	213.5311	314.6615	344.6838	458.8816	499.6275	567.8492	584.0689	682.0381	737.985	809.4644	822.4852	859.1198	885.9781	899.9507	915.7834	953.1073	974.035	1009.3566	1043.4909	1066.6368	1075.3704	1093.4359	1099.5677	1116.8584	1137.7916	1155.0148	1190.6901	1216.2107	1228.9566	1237.5304	1258.2678	1267.0397	1288.7291	1312.9781	1332.998	1366.3428	1425.9589	1446.4653	1520.3916	3015.6169	3045.1142	3050.4733	3086.3795	3102.1774	3104.4824	3107.8362	3115.8856	3752.7399	3810.3142
OC1C2C3CC2C3C1O	O[C@H]1[C@@H]2[C@H]3C[C@@H]2[C@H]3[C@H]1O	
InChI=1S/C7H10O2/c8-6-4-2-1-3(4)5(2)7(6)9/h2-9H,1H2	InChI=1S/C7H10O2/c8-6-4-2-1-3(4)5(2)7(6)9/h2-9H,1H2/t2-,3+,4-,5+,6-,7+
