20
gdb 75350	3.34962	1.34661	1.05925	1.9178	80.04	-0.229	0.0276	0.2566	1177.0081	0.17268	-403.149316	-403.1411	-403.140156	-403.181914	32.002	
C	 0.213844759	 1.5372876847	 0.0324638261	-0.430937
C	-0.0403080575	 0.0546104614	-0.0563990425	 0.392448
N	 0.0450616173	-0.5412241508	-1.1706756279	-0.305483
C	-0.2138218699	-1.9628674745	-1.3894109917	-0.196057
C	-1.5079498187	-2.4815862662	-0.782770753	-0.007651
C	-1.5210733653	-3.7470833403	 0.0376024901	-0.317588
C	-1.6492078258	-2.4023543454	 0.7161598089	-0.013601
C	-0.4848443639	-1.8073783715	 1.4578800969	-0.10352
O	-0.3434080774	-0.3998588403	 1.2009154449	-0.266823
H	 1.0507965439	 1.7387655913	 0.7088861555	 0.131376
H	 0.434542579	 1.9321147364	-0.9577875681	 0.138638
H	-0.662736772	 2.0449701886	 0.4479450912	 0.132733
H	-0.2441852134	-2.1164219257	-2.4737802441	 0.105812
H	 0.6399346946	-2.5577632458	-1.0397902585	 0.102631
H	-2.4008341609	-2.2626291982	-1.3602412775	 0.092996
H	-2.3996178898	-4.3813932671	 0.0017953276	 0.116334
H	-0.5874250067	-4.2896806133	 0.1509996609	 0.113535
H	-2.625339753	-2.1353500084	 1.1093623691	 0.091863
H	-0.6196664589	-1.8717688858	 2.5410878929	 0.114168
H	 0.4520475794	-2.318619299	 1.2135969891	 0.109127
98.1871	142.6023	195.4981	262.2962	288.0067	306.4806	382.3126	411.7489	436.3291	598.7459	631.2851	697.5873	760.8203	814.5767	831.3301	862.6309	924.3903	950.5239	975.2889	1016.2287	1036.5496	1059.3549	1061.1037	1079.3727	1105.592	1135.6606	1161.8398	1185.71	1217.8553	1229.6025	1268.4225	1293.4552	1354.2723	1380.98	1399.8846	1405.9869	1436.4738	1475.4305	1478.6611	1491.0936	1496.2837	1523.7818	1753.3533	3013.698	3046.1065	3047.9505	3054.2921	3094.7268	3102.1476	3128.815	3149.0695	3158.9994	3169.5667	3214.8629
CC1=NCC2CC2CO1	CC1=NC[C@H]2C[C@H]2CO1	
InChI=1S/C7H11NO/c1-5-8-3-6-2-7(6)4-9-5/h6-7H,2-4H2,1H3	InChI=1S/C7H11NO/c1-5-8-3-6-2-7(6)4-9-5/h6-7H,2-4H2,1H3/t6-,7+/m1/s1
