15
gdb 125121	3.23893	1.23821	0.90078	5.9317	71.04	-0.231	-0.0457	0.1853	1206.1367	0.112035	-453.974761	-453.965922	-453.964978	-454.009055	30.892	
C	 0.0427502553	 1.5251005452	 0.0110833324	-0.521555
C	 0.0382999612	 0.0264142123	 0.0097320937	-0.011081
C	 0.0369628095	-0.8089882487	-1.087665302	 0.399959
O	 0.0388957231	-0.6054281242	-2.4211930515	-0.427381
N	 0.0327648667	-2.0854874874	-0.627945839	-0.246387
N	 0.0312445922	-2.1628126684	 0.7113886701	-0.271496
C	 0.0345333169	-0.8868393302	 1.108845197	 0.182481
C	 0.0341371566	-0.5308581113	 2.5362978378	 0.102913
O	 0.0309203722	-1.3097888606	 3.4591383359	-0.2623
H	 0.9274704599	 1.935801147	 0.5092081415	 0.146144
H	 0.0422078783	 1.9258798272	-1.0097864721	 0.101873
H	-0.8379431636	 1.9409102784	 0.5120489735	 0.146175
H	 0.0416360608	 0.342210739	-2.5927502212	 0.313686
H	 0.0308705266	-2.9259747228	-1.1832740403	 0.285944
H	 0.0371726444	 0.5684627145	 2.716694344	 0.061024
42.2345	104.2672	175.2842	179.8125	230.0148	259.065	294.4324	361.8031	394.6459	511.9243	541.9467	651.7272	695.1631	713.3225	769.0865	823.9302	965.0275	1031.0692	1061.5015	1103.9827	1151.6858	1208.0038	1253.1022	1363.4561	1396.4736	1426.7975	1459.5648	1470.171	1477.7976	1504.3222	1559.2478	1646.0804	1808.4356	2866.8731	3023.0277	3079.0086	3087.2826	3657.6393	3828.3944
CC1=C(O)NN=C1C=O	Cc1c(O)[nH]nc1C=O	
InChI=1S/C5H6N2O2/c1-3-4(2-8)6-7-5(3)9/h2H,1H3,(H2,6,7,9)	InChI=1S/C5H6N2O2/c1-3-4(2-8)6-7-5(3)9/h2H,1H3,(H2,6,7,9)
