21
gdb 32572	1.87729	1.86864	1.01603	1.5799	87.03	-0.1746	0.0534	0.2281	1229.6262	0.182936	-383.31266	-383.30276	-383.301816	-383.347348	36.552	
C	 0.0180678521	 1.6076030719	-0.0152911267	-0.375966
C	 0.0091714087	 0.0752238348	-0.0422554453	-0.152105
N	 0.6684968169	-0.48969426	-1.2068201018	-0.058725
C	 0.0803214856	-0.7767247532	-2.4281938141	 0.280447
C	-1.3633045319	-0.5183932999	-2.7100252509	-0.507432
C	 1.0508211281	-1.3224212052	-3.2364656293	-0.225058
C	 2.2697856024	-1.3543784626	-2.5039493743	-0.221404
C	 2.0072178253	-0.8334559827	-1.2577480248	 0.24308
N	 2.8076557053	-0.6873620817	-0.1011627033	-0.611618
H	 1.0424689684	 1.9924088585	-0.0040328932	 0.118046
H	-0.4871109687	 2.0246274978	-0.8913561182	 0.12745
H	-0.4919199277	 1.9745670092	 0.8813842516	 0.116579
H	 0.5255522418	-0.3158810119	 0.8381847578	 0.135245
H	-1.0201899019	-0.294317139	-0.0172294979	 0.11172
H	-1.6361902693	 0.5404754278	-2.6142745974	 0.121475
H	-1.5875883891	-0.8219217462	-3.73557264	 0.130896
H	-2.0343088506	-1.0835345868	-2.0494983319	 0.123078
H	 0.8970753945	-1.6560128876	-4.2521144715	 0.082353
H	 3.2298374992	-1.7102547897	-2.8466947396	 0.07717
H	 3.2013697472	 0.245729117	-0.0135079154	 0.239928
H	 3.5814796237	-1.3401981003	-0.1264787839	 0.24484
74.3126	100.8836	139.7566	160.296	187.2491	207.2731	281.315	300.7932	326.2225	396.5039	496.7904	585.4309	633.1797	655.2192	708.8393	727.4	744.3067	786.9486	792.0504	833.1259	966.0682	977.2262	1015.9473	1044.5542	1061.1956	1097.622	1152.2103	1178.6749	1231.9365	1252.061	1310.5193	1332.2639	1393.3275	1407.9921	1419.1997	1430.0843	1461.0667	1477.4022	1481.3323	1491.0342	1501.0803	1506.4205	1553.6466	1612.992	1656.5613	3007.3921	3038.647	3047.1493	3058.9302	3099.227	3110.6433	3115.5126	3123.8389	3231.6604	3247.4322	3481.126	3587.8668
CCN1C(C)=CC=C1N	CCn1c(C)ccc1N	
InChI=1S/C7H12N2/c1-3-9-6(2)4-5-7(9)8/h4-5H,3,8H2,1-2H3	InChI=1S/C7H12N2/c1-3-9-6(2)4-5-7(9)8/h4-5H,3,8H2,1-2H3
