21
gdb 95377	2.68899	1.5329	1.1851	0.2035	76.23	-0.2466	0.0654	0.312	1104.2358	0.185614	-424.233933	-424.225989	-424.225045	-424.267238	30.967	
C	 0.1735048004	 1.6099239588	-0.2085782844	-0.404486
C	 0.0440255979	 0.1001369379	 0.0065832723	 0.103126
O	 0.4804468941	-0.6123815871	-1.1561050872	-0.256579
C	 1.8710091639	-0.8738453493	-1.01902557	-0.11164
C	 2.1114999629	-1.142616171	 0.4765433456	-0.029694
C	 3.2899395333	-0.4240174947	 1.1568488603	-0.105035
O	 2.8185095653	-0.0544526062	 2.4429591429	-0.242774
C	 1.4762723568	 0.3872490056	 2.2670964209	-0.108452
C	 0.8645901304	-0.5189413574	 1.174122768	-0.049011
H	 1.2151826329	 1.9273425524	-0.3198719939	 0.118875
H	-0.3612368339	 1.8821748485	-1.122607045	 0.125517
H	-0.2635446399	 2.1721720929	 0.6229203997	 0.116143
H	-1.0185324103	-0.1406029245	 0.1170815988	 0.081177
H	 2.1072208021	-1.7254530695	-1.6624728752	 0.109064
H	 2.4716295707	-0.0157968647	-1.3631772467	 0.086932
H	 2.1625736097	-2.2151101171	 0.6735879701	 0.085729
H	 4.1774262265	-1.0469965483	 1.2942264247	 0.110053
H	 3.5827011103	 0.4685242681	 0.5758065278	 0.083485
H	 0.972975886	 0.3000396046	 3.2333566454	 0.107764
H	 1.4631828521	 1.4454735518	 1.970823679	 0.093326
H	 0.2672312389	-1.3049964308	 1.6393031968	 0.086479
26.7344	165.6403	216.3476	277.9737	287.1458	367.7666	412.0637	451.3278	571.8637	597.383	670.146	739.6674	783.7134	856.5529	898.6086	952.8181	961.6508	976.1268	1002.8339	1040.2625	1055.3481	1064.4065	1084.3892	1106.1682	1123.4458	1141.432	1157.5782	1225.6022	1237.563	1259.1991	1288.3299	1309.115	1319.63	1336.2819	1341.2451	1369.6358	1384.8849	1391.345	1407.1372	1408.4805	1490.0221	1495.149	1508.9998	1521.6058	1526.7875	2945.2208	2967.538	3009.6534	3037.9793	3044.3342	3070.7713	3080.0749	3087.8648	3093.7748	3102.786	3107.5494	3117.287
CC1OCC2COCC12	C[C@H]1OC[C@H]2COC[C@@H]12	
InChI=1S/C7H12O2/c1-5-7-4-8-2-6(7)3-9-5/h5-7H,2-4H2,1H3	InChI=1S/C7H12O2/c1-5-7-4-8-2-6(7)3-9-5/h5-7H,2-4H2,1H3/t5-,6-,7+/m1/s1
