19
gdb 69962	2.49503	1.86489	1.36278	0.9739	74.53	-0.2315	0.0589	0.2904	998.0148	0.158445	-422.964625	-422.956549	-422.955605	-422.996556	32.409	
C	-0.0056370824	 1.5508173213	 0.0269974957	-0.494082
C	 0.0473340599	 0.0495653205	 0.0013321202	 0.304126
C	-0.8429255711	-0.8230222326	 0.840732022	-0.348239
C	 0.6448874182	-0.9527167528	 1.0144820927	-0.108128
C	 1.2428530425	-1.7668414645	-0.1488292916	 0.024685
O	 0.4091394723	-2.8187172813	-0.7085137715	-0.295747
C	-0.0689380628	-1.9572303934	-1.7719121998	-0.16549
C	 0.6881008991	-0.7495496503	-1.1691630145	 0.309316
O	 1.4517631378	 0.0790329456	-1.9851025314	-0.473832
H	 0.9381957938	 1.9849418474	-0.3130203185	 0.134245
H	-0.8018920694	 1.9326810994	-0.6230874424	 0.120406
H	-0.206722492	 1.9089399334	 1.0419094908	 0.114036
H	-1.350619233	-0.2960185369	 1.642817891	 0.109987
H	-1.4080407696	-1.6517090671	 0.4283400564	 0.128341
H	 1.1379707449	-0.7646697624	 1.9611204648	 0.084053
H	 2.2966640756	-2.0457208132	-0.0734664465	 0.076871
H	 0.3288886171	-2.2684224481	-2.7495709626	 0.087633
H	-1.1625262611	-1.9167177482	-1.8261045802	 0.107551
H	 1.98222201	-0.471835017	-2.5711587346	 0.284267
145.4793	191.5449	249.9407	258.3089	280.0482	334.6026	371.5554	404.9367	452.2264	529.3721	600.5175	646.83	755.0827	780.8025	857.5435	882.3126	892.8406	932.8279	978.7464	981.4467	990.8162	1025.8914	1062.4369	1069.7347	1073.549	1091.2573	1110.5178	1146.2365	1172.1196	1243.9933	1261.8528	1267.3835	1290.3701	1337.2403	1374.0193	1402.0021	1420.1671	1480.8906	1496.4184	1502.3779	1514.7217	2988.4138	3028.3269	3061.8276	3083.646	3088.7321	3116.1913	3130.4144	3176.0151	3211.5327	3803.1232
CC12CC1C1OCC21O	C[C@]12C[C@H]1[C@H]1OC[C@@]21O	
InChI=1S/C7H10O2/c1-6-2-4(6)5-7(6,8)3-9-5/h4-5,8H,2-3H2,1H3	InChI=1S/C7H10O2/c1-6-2-4(6)5-7(6,8)3-9-5/h4-5,8H,2-3H2,1H3/t4-,5+,6-,7-/m0/s1
