21
gdb 38583	3.34815	1.63696	1.4586	0.2761	85.67	-0.2488	0.0872	0.336	988.7346	0.186274	-349.875715	-349.869202	-349.868257	-349.906056	29.095	
C	-0.0152176634	 1.5102194406	 0.1032447464	-0.291566
C	 1.3002504947	 0.7824604321	-0.0396333949	-0.009375
C	 2.1625980571	 0.473799234	 1.2232554246	-0.322889
C	 1.5631564861	-0.8625627129	 1.7074516432	 0.055988
C	 0.7840185876	-1.30036813	 2.9967103228	-0.095205
C	-0.1698060171	-0.1033815875	 2.7770977084	-0.25842
C	 0.0708977448	-0.7230456553	 1.3527132645	 0.364002
C	-0.1513163676	-2.1122162399	 2.0230582354	-0.309801
C	-0.021118106	 0.0033816456	 0.0289583002	-0.195846
H	-0.2568471317	 1.9802612455	 1.0508807893	 0.110609
H	-0.376698812	 2.0578551149	-0.7618562119	 0.106133
H	 1.8201397129	 0.8852517538	-0.9861177172	 0.080917
H	 3.2181785465	 0.3792692507	 0.9556812107	 0.0958
H	 2.0937630968	 1.2827375166	 1.9567206346	 0.104381
H	 2.0568321634	-1.6984280534	 1.1976437034	 0.05895
H	 1.1849308688	-1.6559449762	 3.9469117696	 0.067941
H	-1.1814246026	-0.2019302106	 3.1806559126	 0.085022
H	 0.2320078073	 0.889472325	 2.982870941	 0.091045
H	 0.2945190035	-2.9742352985	 1.5186128385	 0.091227
H	-1.153276935	-2.3376452187	 2.3985776119	 0.0891
H	-0.431549474	-0.4869288756	-0.8465473532	 0.081987
207.411	259.7816	361.7622	415.0761	467.6851	513.1807	568.2382	634.216	686.8109	757.4636	782.5014	794.4401	820.263	867.3891	884.1811	896.2387	930.0546	956.4224	966.0593	972.8123	1007.1002	1024.5509	1064.546	1078.2739	1080.0238	1099.6295	1107.5801	1113.6136	1136.6785	1153.5314	1153.8757	1187.2301	1198.234	1213.0761	1214.0896	1237.3107	1253.4397	1288.5006	1342.549	1360.9325	1406.9649	1480.5589	1488.8925	1505.9992	1542.2092	3028.1938	3046.09	3053.3333	3060.7541	3095.6227	3100.3921	3113.1873	3121.0033	3126.2694	3160.6316	3170.9873	3206.8594
C1C2CC3C4CC3(C4)C12	C1[C@H]2C[C@H]3[C@H]4C[C@@]3(C4)[C@@H]12	
InChI=1S/C9H12/c1-5-2-8-6-3-9(8,4-6)7(1)5/h5-8H,1-4H2	InChI=1S/C9H12/c1-5-2-8-6-3-9(8,4-6)7(1)5/h5-8H,1-4H2/t5-,6-,7-,8-,9+/m0/s1
