15
gdb 125492	4.26514	1.15739	0.91551	2.9101	69.29	-0.2694	-0.0293	0.24	1212.7943	0.113875	-450.204178	-450.195802	-450.194858	-450.237621	29.807	
C	-0.0277589827	 1.4367698601	-0.0660833979	-0.480717
C	 0.0081137775	-0.0520004392	-0.0148281299	 0.36298
N	-0.0139562628	-0.8075361691	-1.0979554342	-0.314178
N	 0.0339889915	-2.0724202459	-0.5848338298	-0.045339
C	 0.0824158696	-2.0073013065	 0.7691487287	 0.040172
N	 0.0678280027	-0.7567672108	 1.164811554	-0.320288
C	 0.0308187256	-3.2510206743	-1.3954014625	 0.517538
N	-0.023002011	-2.9617577158	-2.7112924691	-0.564573
O	 0.0749241595	-4.3448657959	-0.8836503139	-0.371534
H	 0.8682174451	 1.8571249665	 0.4010317832	 0.147334
H	-0.0863435982	 1.7808870107	-1.099700583	 0.139205
H	-0.8908283361	 1.817338018	 0.4885601312	 0.14741
H	 0.1253156304	-2.8932245673	 1.3821041549	 0.175783
H	-0.0573310365	-2.0021134845	-3.0149445238	 0.288508
H	-0.0307258246	-3.723293326	-3.3660027679	 0.2777
82.9706	103.224	135.8016	185.4612	236.0287	307.4556	353.4918	412.7005	526.8052	597.8447	642.5218	668.0253	716.5639	726.1916	768.9929	904.1684	983.0992	1026.6097	1049.1075	1069.1416	1102.5978	1171.9024	1276.1752	1335.3923	1341.1077	1409.4588	1435.7187	1475.3143	1478.0592	1496.8659	1577.7523	1594.8353	1849.0896	3049.8048	3107.5953	3148.1146	3284.365	3602.9031	3751.8995
CC1=NN(C=N1)C(N)=O	Cc1nn(cn1)C(=O)N	
InChI=1S/C4H6N4O/c1-3-6-2-8(7-3)4(5)9/h2H,1H3,(H2,5,9)	InChI=1S/C4H6N4O/c1-3-6-2-8(7-3)4(5)9/h2H,1H3,(H2,5,9)
