18
gdb 16207	3.00977	2.20784	1.47492	2.8413	72.16	-0.2351	-0.0119	0.2231	888.7878	0.155098	-347.83516	-347.827929	-347.826984	-347.86661	28.144	
O	 0.0785123747	 0.0245074313	-0.1033421829	-0.341781
C	 0.0216519165	 1.2288322413	-0.0243491722	 0.352967
C	-1.2472587276	 2.0743472611	 0.1182405605	-0.317617
C	-0.744317459	 3.4389346303	 0.6188092388	-0.217738
C	 0.6569623287	 3.587283053	-0.0230884703	-0.311778
C	 1.1963619085	 2.165105443	-0.0376436904	 0.262718
C	 2.417083659	 1.7223281309	 0.7616801548	-0.291821
C	 2.4637324895	 1.7221144471	-0.7310090175	-0.308544
H	-1.6937824312	 2.1632986376	-0.8818275183	 0.128479
H	-1.9833099597	 1.5817784814	 0.757079893	 0.125391
H	-1.4127890777	 4.2643436995	 0.3632206152	 0.102814
H	-0.649398052	 3.4193296238	 1.7102594259	 0.109511
H	 0.5589415162	 3.9672483954	-1.0481826132	 0.103993
H	 1.2966619118	 4.2867729119	 0.5219549704	 0.101976
H	 2.9547914391	 2.4949823674	 1.3010226692	 0.116273
H	 2.3426774226	 0.7646650063	 1.2651213232	 0.134541
H	 2.4197400254	 0.7622360693	-1.2347927782	 0.134913
H	 3.0448526354	 2.4887219494	-1.2326881779	 0.115703
81.9007	180.1407	235.8114	250.0936	351.9799	438.6243	529.7568	554.9058	647.8136	670.3362	789.034	813.468	828.358	882.3806	914.2951	926.0118	940.4406	983.7444	1018.6666	1054.676	1074.1577	1088.4459	1096.4163	1161.6183	1188.0351	1203.0541	1241.9282	1288.1093	1304.6494	1306.5243	1338.7561	1376.0325	1452.8062	1453.8569	1484.11	1493.7722	1505.2705	1824.8893	3024.3079	3026.6413	3046.83	3086.4168	3102.7111	3112.8915	3128.9226	3131.0799	3215.357	3230.1758
O=C1CCCC11CC1	O=C1CCCC21CC2	
InChI=1S/C7H10O/c8-6-2-1-3-7(6)4-5-7/h1-5H2	InChI=1S/C7H10O/c8-6-2-1-3-7(6)4-5-7/h1-5H2
