25
gdb 103836	2.5839	0.93863	0.88337	1.3264	89.7	-0.2481	0.0737	0.3218	1544.1282	0.226055	-389.490107	-389.478898	-389.477954	-389.526086	42.043	
C	-0.0131935046	 1.6000460365	 0.1170614243	-0.398627
C	-0.0219224007	 0.0802746072	 0.3269052315	-0.22822
C	-1.3747372738	-0.5467483519	 0.0427733131	 0.39734
O	-2.4047336361	-0.0798020115	 0.8852192226	-0.478387
C	-1.7707430379	-0.9062706542	-1.3737578482	-0.375118
C	-1.5432566666	-1.9909498749	-0.3341360789	-0.016986
C	-0.4110405753	-2.9965344159	-0.4532798651	 0.010448
C	-0.0309941413	-3.5643255922	 0.9225771644	-0.387318
C	-0.7924127306	-4.1204250994	-1.4289877541	-0.383698
H	 0.9778165429	 2.018798561	 0.3147881209	 0.115484
H	-0.2892807973	 1.8601195402	-0.910812759	 0.116734
H	-0.7155484343	 2.0976103703	 0.7944990497	 0.112103
H	 0.7365539502	-0.3774059964	-0.3161966881	 0.097379
H	 0.2598063333	-0.1450934286	 1.3628476981	 0.104455
H	-2.6200299153	 0.8199322781	 0.6170889483	 0.280045
H	-2.789779241	-0.6999831477	-1.6825300335	 0.106393
H	-1.0256383446	-0.7919375348	-2.1564129855	 0.103309
H	-2.4604489823	-2.4152198405	 0.0699627116	 0.089341
H	 0.4685774689	-2.4856118207	-0.8663973817	 0.066862
H	-0.8838749987	-4.081897035	 1.3771977143	 0.113834
H	 0.7896335503	-4.2851789642	 0.8409226083	 0.106343
H	 0.2797499923	-2.7722263819	 1.6103736771	 0.117676
H	-1.0477073444	-3.7202128542	-2.4151365418	 0.113179
H	 0.0302748816	-4.8325904776	-1.5526927858	 0.105906
H	-1.6619279345	-4.6773764321	-1.0601362125	 0.111523
66.1769	85.75	127.1261	144.2742	223.5208	226.3441	242.3776	264.5826	291.1768	311.5736	333.8426	385.6374	425.5489	431.0989	470.7199	597.0082	697.9728	775.7458	787.7327	888.7259	908.0967	924.38	927.6066	952.1253	977.2446	990.2845	1014.0503	1049.0971	1062.7677	1085.7122	1123.7771	1141.7372	1184.1785	1210.1947	1232.7074	1290.5959	1309.467	1310.9985	1342.5559	1346.0621	1383.94	1396.9989	1405.038	1417.3028	1429.2807	1475.2791	1487.1307	1487.8531	1490.2486	1500.7842	1503.4291	1511.2139	1511.9958	3013.4213	3024.7807	3029.2424	3030.7758	3032.9881	3075.021	3089.0509	3095.2562	3101.4689	3102.8943	3106.4442	3106.7975	3118.3064	3129.553	3208.9642	3800.4887
CCC1(O)CC1C(C)C	CC[C@@]1(O)C[C@H]1C(C)C	
InChI=1S/C8H16O/c1-4-8(9)5-7(8)6(2)3/h6-7,9H,4-5H2,1-3H3	InChI=1S/C8H16O/c1-4-8(9)5-7(8)6(2)3/h6-7,9H,4-5H2,1-3H3/t7-,8+/m0/s1
