20
gdb 72441	2.31857	2.22763	1.54443	1.8894	77.06	-0.2358	0.0858	0.3216	941.0846	0.173582	-403.125902	-403.118806	-403.117861	-403.156789	30.07	
C	-0.0327560082	 1.4933138691	 0.0038636555	-0.481645
C	 0.0470320402	-0.0166750331	 0.0470685519	 0.285991
C	 0.7792471932	-0.6975112748	-1.1323450731	-0.077367
O	 1.0412105702	-2.0384941585	-0.6655582497	-0.284174
C	 0.4794895522	-2.0967306664	 0.6617188649	 0.083331
C	 0.8079734583	-0.7036433807	 1.2071236426	-0.295595
C	-1.0328671063	-2.0521118574	 0.459022688	-0.021802
C	-1.8693151587	-1.1278494313	 1.2669559062	-0.27891
N	-1.3054468082	-0.6646011264	-0.0099693868	-0.120391
H	 0.9676291412	 1.9377621203	-0.0043070043	 0.115602
H	-0.567589923	 1.8248836644	-0.8912673619	 0.129542
H	-0.5698960387	 1.8808488064	 0.8755153043	 0.120128
H	 0.1472275662	-0.7265639888	-2.0259795305	 0.109115
H	 1.7289684082	-0.2022105396	-1.370437716	 0.092295
H	 0.8866595557	-2.9705865264	 1.1693835237	 0.077947
H	 1.8816908878	-0.5090609803	 1.1775752066	 0.109004
H	 0.4369232702	-0.4805216154	 2.2065396849	 0.10284
H	-1.4833989231	-2.8613273622	-0.1078529704	 0.100686
H	-2.947599826	-1.2527468558	 1.2296425921	 0.119698
H	-1.5076073314	-0.7363489532	 2.2116730718	 0.113705
209.4284	222.3729	274.7749	320.2298	386.4018	396.8087	520.8436	531.7666	588.0801	610.065	712.2316	782.9744	803.9064	846.6847	880.0521	901.3214	913.7004	955.2766	970.2298	982.7659	1014.6531	1037.2045	1053.1952	1075.8005	1101.2342	1110.8332	1142.3865	1171.2639	1204.6123	1229.2624	1234.2782	1259.4072	1280.394	1295.771	1309.0679	1361.3464	1386.4971	1414.6486	1482.9259	1485.5311	1496.8554	1512.941	1531.9616	3018.9527	3036.2871	3075.6615	3090.5938	3104.194	3110.7539	3122.7097	3127.3764	3144.8054	3156.9546	3203.1999
CC12COC(C1)C1CN21	C[C@@]12CO[C@@H](C1)[C@H]1CN21	
InChI=1S/C7H11NO/c1-7-2-6(9-4-7)5-3-8(5)7/h5-6H,2-4H2,1H3	InChI=1S/C7H11NO/c1-7-2-6(9-4-7)5-3-8(5)7/h5-6H,2-4H2,1H3/t5-,6+,7+,8?/m1/s1
