25
gdb 110314	1.87496	1.4566	0.99763	0.2238	93.6	-0.2368	0.0854	0.3222	1369.5699	0.228135	-352.340786	-352.33056	-352.329616	-352.37555	39.076	
C	-0.5288960471	 1.3244393524	-0.9535840012	-0.377271
C	 0.6882048843	 0.6787740212	-0.2783570453	-0.212269
C	 1.5440819257	-0.0876040099	-1.2718146326	-0.023893
C	 2.6678620002	-1.0627709599	-1.0023562063	-0.168028
C	 2.4197451399	-2.0328722805	 0.1627262055	 0.055986
C	 2.5268929995	-1.5674579375	 1.6119182243	-0.414995
C	 1.0369464904	-2.405751555	-0.4720775395	-0.325432
C	 1.3666007617	-1.5225903704	-1.6919623444	 0.347978
C	 1.1254858876	-1.9493289808	-3.1129681835	-0.496931
H	-0.2214375527	 2.0186486455	-1.7437503388	 0.111769
H	-1.1710956341	 0.5658460494	-1.4137041052	 0.116922
H	-1.1334677211	 1.8858410485	-0.234239486	 0.108294
H	 1.296601283	 1.4568320689	 0.2011998242	 0.093881
H	 0.3426218336	 0.024766103	 0.5266659691	 0.100649
H	 1.7985733928	 0.5327896685	-2.1334419559	 0.073282
H	 3.6428098144	-0.9008550728	-1.4525222387	 0.070884
H	 3.0883856395	-2.8911931797	 0.0322123405	 0.072387
H	 1.8800794731	-0.7137258699	 1.8275009851	 0.117929
H	 2.2549119009	-2.3755247058	 2.3009470468	 0.108894
H	 3.5552221248	-1.2684389194	 1.8453038885	 0.111379
H	 0.9594212132	-3.4672428755	-0.7213273489	 0.09542
H	 0.1433044285	-2.127651342	 0.0970035231	 0.0916
H	 0.0556840497	-1.9421918714	-3.3579978243	 0.116056
H	 1.627425043	-1.2789984819	-3.8188202725	 0.114262
H	 1.4956816693	-2.9654679752	-3.2955510138	 0.111247
67.0238	137.9231	157.2071	187.1876	201.6971	213.0585	225.5575	291.3003	320.3065	360.4915	390.235	478.9416	544.3785	629.1742	692.3111	734.2725	817.9002	848.1368	861.731	887.433	928.4292	946.0298	979.4535	997.3968	1010.0615	1055.1272	1071.2808	1080.5073	1113.4602	1127.024	1141.9248	1175.8918	1187.6854	1233.6623	1254.3869	1269.3757	1299.5865	1309.3099	1333.1447	1368.8301	1381.1858	1406.8731	1411.1408	1415.0613	1472.9328	1482.7361	1485.6878	1496.1057	1497.287	1498.4138	1500.751	1503.9318	1509.7352	3012.9297	3022.9704	3027.3323	3029.0358	3033.5577	3039.7691	3067.7131	3078.3037	3085.8596	3086.5915	3090.6627	3093.5614	3102.0286	3105.6946	3123.3218	3149.6337
CCC1C2C(C)CC12C	CC[C@H]1[C@H]2[C@@H](C)C[C@@]12C	
InChI=1S/C9H16/c1-4-7-8-6(2)5-9(7,8)3/h6-8H,4-5H2,1-3H3	InChI=1S/C9H16/c1-4-7-8-6(2)5-9(7,8)3/h6-8H,4-5H2,1-3H3/t6-,7-,8+,9-/m0/s1
