14
gdb 24944	4.92526	1.32295	1.04959	3.4429	67.97	-0.1997	-0.0041	0.1956	1048.7211	0.103292	-436.748066	-436.741336	-436.740392	-436.779192	26.325	
O	 0.0768153785	 0.0530831433	 0.0022822713	-0.300369
C	-0.029258206	 1.236262088	 0.0103608896	 0.411756
C	-1.3053786531	 2.1141888866	 0.0330277639	-0.513895
C	-0.7277485029	 3.4941951085	 0.0325633445	 0.207827
C	 0.6220781856	 3.3397751203	 0.0128121145	 0.424312
N	 1.2586057686	 4.533014305	 0.0103121654	-0.39154
C	 0.2661961768	 5.513132181	 0.0290862313	-0.076797
C	-0.9678398337	 4.8995575721	 0.0435555453	-0.322744
O	 1.1120181267	 2.0645834507	-0.0010479285	-0.251193
H	-1.9147728603	 1.8519272888	-0.839582621	 0.153771
H	-1.8901681743	 1.8422055141	 0.9193879838	 0.153764
H	 2.2507920596	 4.6901410687	-0.0026228622	 0.275268
H	 0.5358395759	 6.5557213546	 0.0306728793	 0.12603
H	-1.9170491914	 5.4121115985	 0.0597144828	 0.103809
109.2029	206.016	305.1494	348.5244	416.8047	548.8952	554.0624	570.4668	614.3423	637.4908	707.9271	722.1249	782.2091	817.8118	843.9279	938.9209	968.7525	1008.4577	1065.0605	1098.2742	1158.8137	1200.6858	1223.3021	1286.2379	1351.7343	1438.4959	1460.6341	1494.002	1568.1886	1637.6074	1919.2	3040.5389	3070.383	3252.6015	3282.8457	3690.2858
O=C1CC2=C(NC=C2)O1	O=C1Cc2c([nH]cc2)O1	
InChI=1S/C6H5NO2/c8-5-3-4-1-2-7-6(4)9-5/h1-2,7H,3H2	InChI=1S/C6H5NO2/c8-5-3-4-1-2-7-6(4)9-5/h1-2,7H,3H2
