19
gdb 115960	2.83234	1.48992	1.1984	1.5816	70.7	-0.2484	0.0761	0.3246	1089.5002	0.160249	-460.137497	-460.129314	-460.12837	-460.170903	30.128	
C	 0.2929331793	 1.3851074536	 0.0354079132	-0.24316
O	 0.2555053936	-0.0309108254	 0.0221023616	-0.238842
C	 0.4590591882	-0.5854189715	-1.2482023424	 0.208419
O	 1.7499515502	-0.3129069384	-1.7575040126	-0.260255
C	 2.6632455895	-1.3089340082	-1.2857847172	-0.11063
C	 1.8301901708	-2.5880299477	-1.1152703156	 0.10676
O	 1.6853561768	-3.045267877	 0.2459798486	-0.29312
C	 0.2631023768	-2.7775496971	 0.2267651174	-0.077068
C	 0.3606427728	-2.1211596702	-1.1648779048	-0.139281
H	 1.2647499199	 1.7635033771	-0.3002647292	 0.128938
H	-0.4913267048	 1.8087465762	-0.6103506079	 0.106197
H	 0.1136221793	 1.6989689829	 1.0657351843	 0.127542
H	-0.2428842867	-0.1362806077	-1.9654031435	 0.070018
H	 3.4567313152	-1.3954783093	-2.0324724998	 0.10694
H	 3.1014546482	-1.0318141656	-0.3190544699	 0.115647
H	 2.1380089791	-3.4015479288	-1.7805605433	 0.081321
H	-0.3173135718	-3.7079888074	 0.237353951	 0.095729
H	-0.0498645684	-2.1286978151	 1.0466505815	 0.127119
H	-0.2804687081	-2.5240448601	-1.9476773812	 0.087724
74.7684	100.717	123.7608	191.4186	226.8444	341.6302	393.2577	492.1217	542.0822	675.1495	716.9875	773.767	868.2872	911.0931	918.2091	934.4715	968.0578	1007.6979	1023.2682	1065.2186	1082.265	1090.8708	1104.3623	1150.8241	1171.8665	1180.4849	1212.2679	1218.5319	1233.906	1260.0131	1320.8954	1337.3769	1346.5833	1357.6945	1392.8209	1400.0788	1475.0487	1483.0051	1504.1631	1511.5896	1518.7519	2990.7179	3005.3686	3027.3393	3030.9176	3048.2335	3069.9382	3099.9612	3115.1959	3123.0493	3128.1608
COC1OCC2OCC12	CO[C@H]1OC[C@H]2OC[C@@H]12	
InChI=1S/C6H10O3/c1-7-6-4-2-8-5(4)3-9-6/h4-6H,2-3H2,1H3	InChI=1S/C6H10O3/c1-7-6-4-2-8-5(4)3-9-6/h4-6H,2-3H2,1H3/t4-,5-,6+/m1/s1
