18
gdb 39926	3.16047	1.60593	1.25841	1.4402	77.79	-0.2331	0.0097	0.2428	1017.4192	0.149852	-401.907949	-401.90081	-401.899866	-401.939554	28.424	
C	-0.2025999156	 1.451767887	-0.0234954064	-0.27938
N	 1.1529886934	 0.8872426061	 0.0608369382	-0.373085
C	-0.0176072185	-0.0206910851	 0.0316904152	 0.318633
C	-0.2767895117	-0.8810313799	 1.2176485492	-0.109701
C	-0.6192237138	-2.1243713902	 0.8710060429	-0.105887
C	-0.6711727958	-2.3071177435	-0.6218998406	-0.136161
C	-2.0526668764	-2.0936311284	-1.2913118664	-0.075886
O	-1.7171873756	-0.7335048279	-1.6394091168	-0.286673
C	-0.3571242173	-0.889960663	-1.1728938136	 0.011003
H	-0.5310493361	 1.9883390577	 0.8626770043	 0.118946
H	-0.5479187428	 1.8752812938	-0.9630416237	 0.124624
H	 1.5926902708	 0.9034854041	-0.8575553528	 0.228897
H	-0.1741751649	-0.5070753217	 2.2295199228	 0.10559
H	-0.8532303871	-2.9241965626	 1.5647614938	 0.100017
H	-0.0956848448	-3.1595680395	-0.9896742395	 0.085404
H	-2.2271405937	-2.7077931221	-2.1842232685	 0.098276
H	-2.9276518823	-2.1487159745	-0.6340092009	 0.105699
H	 0.3603936523	-0.7902058404	-1.9974593971	 0.069681
92.2295	201.779	215.4367	305.2564	341.0951	442.8385	501.3486	591.0615	703.3952	773.7088	825.9696	831.8104	864.8814	882.2776	894.1114	929.8932	954.3733	970.2239	982.7411	991.6425	1026.1432	1054.944	1066.3424	1081.6454	1114.316	1136.7709	1164.834	1224.7582	1232.9205	1260.8216	1293.3634	1306.7152	1333.7918	1338.1781	1354.2899	1425.5195	1512.2384	1522.6994	1665.36	3011.0662	3022.7675	3064.9861	3084.9255	3106.9159	3188.0917	3192.4642	3214.6875	3479.827
C1NC11C=CC2COC12	C1N[C@]21C=C[C@H]1CO[C@@H]21	
InChI=1S/C7H9NO/c1-2-7(4-8-7)6-5(1)3-9-6/h1-2,5-6,8H,3-4H2	InChI=1S/C7H9NO/c1-2-7(4-8-7)6-5(1)3-9-6/h1-2,5-6,8H,3-4H2/t5-,6+,7-/m0/s1
