18
gdb 41604	4.1047	1.30451	1.17903	1.4675	76.52	-0.2272	0.0219	0.2491	1074.0036	0.149893	-401.92887	-401.921708	-401.920764	-401.960637	28.154	
C	 0.0083276988	 1.5006431856	-0.0337392989	-0.244741
C	 1.5709748468	 1.4573788358	-0.1224235421	-0.24474
C	 1.522843864	-0.0679177659	 0.0172049867	-0.106611
C	-0.0122609196	-0.0254141471	 0.1043367381	-0.10661
C	 0.6739309182	-0.6748231918	-1.066184182	 0.334936
C	 0.6028067191	-0.2304396928	-2.5360040363	-0.181746
O	 0.527114188	-1.4838413045	-3.2584862544	-0.227673
C	 0.5543628647	-2.4492919701	-2.3073559918	 0.09908
N	 0.6327381291	-2.1254527428	-1.0842741076	-0.313065
H	-0.3352160859	 2.0081463008	 0.8698455455	 0.111318
H	-0.5322848516	 1.9235995565	-0.887417981	 0.096081
H	 2.034103869	 1.8525444595	-1.0330697881	 0.09608
H	 2.0419385522	 1.9423316272	 0.7349334348	 0.111319
H	 2.2212649673	-0.6874538016	 0.5656309521	 0.096365
H	-0.6772974324	-0.6071940607	 0.7301536851	 0.096365
H	-0.2873244991	 0.3579918381	-2.7797484157	 0.121483
H	 1.4907458021	 0.3087873525	-2.8806691529	 0.121484
H	 0.5045604694	-3.4615191988	-2.6911559015	 0.140674
85.0871	186.7789	194.9059	271.5858	390.7586	433.7939	522.9432	580.1969	714.3267	776.7542	793.0388	858.9204	877.0763	882.6118	934.491	948.2948	963.8187	968.0662	992.004	997.2021	1026.2245	1075.999	1090.6812	1101.6429	1118.4778	1171.7915	1211.3379	1223.4478	1241.564	1246.7727	1258.1737	1286.6418	1322.7737	1372.2916	1432.5556	1483.7391	1504.131	1517.658	1700.3657	3039.9523	3040.7422	3050.1513	3083.0063	3097.6543	3115.412	3188.2588	3198.0151	3223.4121
C1CC2C1C21COC=N1	C1C[C@H]2[C@@H]1[C@]12COC=N1	
InChI=1S/C7H9NO/c1-2-6-5(1)7(6)3-9-4-8-7/h4-6H,1-3H2	InChI=1S/C7H9NO/c1-2-6-5(1)7(6)3-9-4-8-7/h4-6H,1-3H2/t5-,6+,7+
