14
gdb 27829	2.09843	1.94722	1.01635	1.773	68.39	-0.2488	-0.0563	0.1925	1094.4342	0.101839	-470.067526	-470.059796	-470.058852	-470.100284	28.163	
C	-0.0182684146	 1.4466122244	 0.0736309291	-0.471692
C	-0.0064239309	-0.0391868373	-0.0532971567	 0.431245
N	-0.1028129252	-0.6303641483	-1.1959479618	-0.342266
C	-0.0730722923	-2.0032752731	-1.1094784546	 0.435251
O	-0.173342375	-2.5988647079	-2.293634334	-0.370232
N	 0.0373680814	-2.7277238252	-0.0408928844	-0.410471
C	 0.1387487036	-2.0728276634	 1.165048224	 0.426101
N	 0.2539270242	-2.5557752889	 2.3239846382	-0.527862
O	 0.1121504349	-0.657381148	 1.1217628471	-0.209231
H	 0.9051269693	 1.7842254568	 0.5542580914	 0.164352
H	-0.1167920959	 1.8991853938	-0.911549521	 0.161963
H	-0.8477450622	 1.7563737707	 0.7167913359	 0.16435
H	-0.1427108971	-3.5524084399	-2.1257908474	 0.314148
H	 0.2635143599	-3.5716893336	 2.2527418541	 0.234344
92.1181	111.0655	177.8141	192.4861	299.1271	379.6101	542.2834	556.5592	577.012	597.9467	634.9365	659.7018	732.3874	806.0933	856.6419	857.8002	962.7203	1024.4918	1048.6261	1067.1695	1120.6184	1238.2517	1277.5215	1352.3686	1411.2192	1460.7864	1471.1291	1486.6879	1622.2724	1683.7363	1768.3374	3055.089	3115.3168	3177.1114	3522.4144	3762.4934
CC1=NC(O)=NC(=N)O1	CC1=N[C@H](O)N=C([NH])O1	
InChI=1S/C4H5N3O2/c1-2-6-4(8)7-3(5)9-2/h1H3,(H2,5,7,8)	InChI=1S/C4H6N3O2/c1-2-6-4(8)7-3(5)9-2/h4-5,8H,1H3/t4-/m0/s1
