22
gdb 40691	3.26119	0.99243	0.83683	1.0884	88.6	-0.2296	0.0837	0.3132	1458.2208	0.194302	-367.147974	-367.139051	-367.138107	-367.182364	34.182	
C	-0.4222046531	 1.2992114586	-0.4542778871	-0.273413
C	 0.927154832	 1.5737663957	 0.1642024101	-0.271027
C	 0.3995066295	 0.1611094172	 0.0993182211	 0.031031
C	-0.0317681108	-0.5383285841	 1.3485952109	-0.035954
C	-0.647592411	-1.9208902629	 1.292343141	-0.330585
C	 0.7257295964	-1.7317904984	 1.8828430489	 0.045569
N	 1.8415416056	-2.2239196599	 1.1230553534	-0.0587
C	 3.1627706397	-2.0573899312	 1.7196676859	-0.21987
C	 2.5231288163	-3.4010013612	 1.6515175085	-0.222403
H	-1.3041338608	 1.6037661874	 0.1003312314	 0.106125
H	-0.5260504889	 1.3863152662	-1.5304171353	 0.107073
H	 1.7495898808	 1.84917159	-0.486937409	 0.107717
H	 0.9482403927	 2.0630327697	 1.1330058071	 0.104851
H	 0.8742090701	-0.4902995089	-0.6261349168	 0.094786
H	-0.4366954503	 0.1257255803	 2.1093049417	 0.075655
H	-1.4733976873	-2.160637754	 1.953180845	 0.105579
H	-0.6866783561	-2.401148899	 0.3205317262	 0.118952
H	 0.8151374018	-1.8119845947	 2.9707115117	 0.064745
H	 3.9620381414	-1.7888411118	 1.0348131453	 0.115687
H	 3.222964072	-1.5835759426	 2.698083816	 0.109672
H	 2.1548788788	-3.8254884824	 2.5841043893	 0.109411
H	 2.847045761	-4.1316651939	 0.9156310846	 0.115101
50.538	86.3491	117.1252	180.9331	273.0378	288.8694	309.3724	383.031	488.096	593.0261	725.1546	738.4726	798.6267	821.3968	826.2475	835.2782	898.6265	900.8334	925.0048	953.2835	996.9064	1016.9487	1030.2176	1054.6899	1058.9783	1067.6197	1074.6351	1112.807	1117.5667	1122.7765	1131.876	1144.3987	1174.8558	1198.503	1203.2495	1218.6683	1223.6565	1246.1742	1312.1794	1329.9358	1403.1127	1447.3199	1470.2596	1487.2776	1492.1558	1509.448	1519.5595	3039.8599	3094.3487	3098.8361	3125.1114	3125.1936	3130.4487	3133.5193	3173.0305	3175.8579	3190.6257	3202.2922	3218.5549	3221.7951
C1CC1C1CC1N1CC1	C1CC1[C@H]1C[C@H]1N1CC1	
InChI=1S/C8H13N/c1-2-6(1)7-5-8(7)9-3-4-9/h6-8H,1-5H2	InChI=1S/C8H13N/c1-2-6(1)7-5-8(7)9-3-4-9/h6-8H,1-5H2/t7-,8-/m1/s1
