14
gdb 12159	3.85425	1.49362	1.16115	3.5163	65.32	-0.2536	0.0071	0.2607	981.6638	0.108236	-374.894672	-374.88677	-374.885826	-374.927222	28.225	
N	 0.0973093579	 1.2708257282	 0.3034673296	-0.509789
C	 0.0776029751	-0.1050790588	-0.1015599228	-0.057829
C	-1.3403766335	-0.792968704	-0.2824575411	-0.113328
N	-0.8422716189	-1.3129337864	-1.5634037693	-0.324302
C	 0.2853345044	-0.4905652981	-1.5779660573	 0.352489
N	 1.1338687659	-0.0976489292	-2.4243311127	-0.540395
C	-1.7458368166	-1.8027882774	 0.6904640427	 0.283971
N	-2.0612264731	-2.5948252424	 1.4708662804	-0.31922
H	 0.9890338259	 1.5100980369	 0.7195065559	 0.251615
H	-0.0299704575	 1.8842861764	-0.4950821894	 0.243793
H	 0.6997315993	-0.7051576997	 0.5651955137	 0.132826
H	-2.1245832037	-0.033298972	-0.3732186731	 0.13005
H	-1.4173684984	-1.5724309103	-2.3525754468	 0.251704
H	 0.964116333	-0.4778533232	-3.3567892099	 0.218418
83.9869	120.581	144.5573	236.796	252.6628	345.3343	435.9897	457.3673	512.5524	580.8414	683.3566	745.9633	774.0913	844.8694	892.3487	930.3198	978.3708	1037.951	1065.6582	1145.2461	1171.4306	1207.1627	1241.4505	1300.9935	1340.4566	1376.6081	1425.8376	1674.017	1806.0604	2357.6198	3050.7681	3104.602	3465.8532	3518.5357	3598.093	3601.7355
NC1C(NC1=N)C#N	N[C@H]1[C@@H](N[C]1[NH])C#N	
InChI=1S/C4H6N4/c5-1-2-3(6)4(7)8-2/h2-3H,6H2,(H2,7,8)	InChI=1S/C4H6N4/c5-1-2-3(6)4(7)8-2/h2-3H,6H2,(H2,7,8)/t2-,3-/m0/s1
