16
gdb 11249	4.95797	1.21895	1.07765	1.7262	67.26	-0.2481	-0.0347	0.2134	1069.7981	0.130059	-383.754152	-383.746411	-383.745467	-383.787273	28.075	
O	 0.0294546145	 1.4528230044	 0.0421309587	-0.428518
C	 0.0838984841	 0.0340055465	 0.0318478109	 0.11301
C	-1.3087663786	-0.6567381351	 0.0700963635	-0.282638
C	-1.2381214915	-1.8593528272	-0.9095227299	-0.104357
C	-2.4683717304	-1.9578929643	-1.7937222511	 0.158528
O	-3.1394721569	-2.9439050773	-1.9449150189	-0.244439
C	 0.014279294	-1.5593063844	-1.7163289959	-0.088606
C	 0.7211944037	-0.5545251153	-1.2047334856	-0.12058
H	-0.3929310645	 1.7329674291	-0.7779956637	 0.275081
H	 0.6716592909	-0.2134266125	 0.9244118066	 0.101768
H	-1.6105983979	-0.9572859646	 1.0749214976	 0.120322
H	-2.0505395055	 0.0718149683	-0.2816865869	 0.103696
H	-1.1437244304	-2.8175352678	-0.3857147683	 0.104149
H	-2.7116410909	-1.0045882323	-2.322967151	 0.068626
H	 0.289048924	-2.1504222248	-2.5832224253	 0.114199
H	 1.6695781357	-0.1887054127	-1.5826633906	 0.10976
42.6935	66.1612	196.9966	301.711	341.5412	373.4515	391.8228	441.043	558.6526	634.8956	773.9497	792.9689	853.7408	887.4504	947.2331	977.9321	988.4532	1028.2062	1062.1076	1095.6904	1113.8188	1143.3632	1179.9555	1244.1431	1272.0119	1284.926	1303.7976	1324.8238	1367.6797	1420.5209	1430.3393	1482.1388	1679.0015	1836.097	2839.0871	3029.111	3036.0295	3045.5889	3114.8671	3184.0605	3209.1959	3791.9588
OC1CC(C=O)C=C1	O[C@H]1C[C@@H](C=O)C=C1	
InChI=1S/C6H8O2/c7-4-5-1-2-6(8)3-5/h1-2,4-6,8H,3H2	InChI=1S/C6H8O2/c7-4-5-1-2-6(8)3-5/h1-2,4-6,8H,3H2/t5-,6+/m0/s1
