17
gdb 75967	2.2487	1.93023	1.08365	2.7847	72.02	-0.2502	-0.0088	0.2414	1076.7024	0.137733	-455.203762	-455.195554	-455.19461	-455.236837	30.301	
C	-0.1783365749	 1.4318653395	-0.019281464	-0.332027
N	-0.0749158216	-0.0302811946	 0.0020544303	-0.17542
C	 0.0553539841	-0.6692547164	-1.2393017825	 0.464064
N	 0.196332095	 0.0190589484	-2.2942206103	-0.558019
O	 0.041006031	-2.0263968396	-1.2493942048	-0.251762
C	-0.4885846527	-2.7012549062	-0.1035707659	-0.104091
C	 0.1870321838	-2.1794082478	 1.1488764469	-0.326574
C	 0.0390231812	-0.6724546623	 1.2320918622	 0.414509
O	 0.0172216109	-0.0703523118	 2.283394911	-0.358309
H	 0.7391088347	 1.8710619548	-0.4170924596	 0.148824
H	-1.0053202991	 1.7291978106	-0.6652270127	 0.146027
H	-0.3433907449	 1.7592441991	 1.0046025191	 0.16067
H	 0.2333287419	-0.5989837587	-3.102637757	 0.228973
H	-1.575318153	-2.5512745367	-0.0588708105	 0.123455
H	-0.2926046	-3.7613504929	-0.2732746316	 0.131394
H	-0.2372877751	-2.609227175	 2.0583980989	 0.142748
H	 1.2555996188	-2.4243083207	 1.1282111106	 0.145539
90.9627	108.8378	141.1298	206.6644	284.1979	359.3526	392.7539	471.9929	486.2877	562.2324	600.0437	684.9499	712.2274	724.3257	841.263	897.5943	935.3315	968.9115	1048.7066	1082.5155	1118.7918	1154.0227	1162.7705	1212.3243	1223.3589	1274.4551	1334.9409	1351.9733	1392.3599	1428.8025	1455.816	1462.795	1490.6146	1509.5142	1515.3795	1731.7754	1800.1075	3025.6272	3052.16	3071.1129	3117.2276	3124.1694	3138.3605	3189.1103	3519.7602
CN1C(=N)OCCC1=O	CN1[C]([NH])OCCC1=O	
InChI=1S/C5H8N2O2/c1-7-4(8)2-3-9-5(7)6/h6H,2-3H2,1H3	InChI=1S/C5H8N2O2/c1-7-4(8)2-3-9-5(7)6/h6H,2-3H2,1H3
