18
gdb 86764	2.7523	1.07293	0.92618	3.2937	79.56	-0.2472	0.0243	0.2715	1330.6748	0.145981	-401.937482	-401.927969	-401.927025	-401.972795	33.794	
C	-0.090582365	 1.5909630185	 0.1296263398	-0.401782
C	 0.0269846255	 0.0898489415	-0.0987058984	-0.134859
C	 1.0061164041	-0.4088109792	-1.2084302091	-0.188833
N	 1.7384617547	-1.1154455155	-0.1532094388	-0.072187
C	 2.9878738591	-1.8442894143	-0.1470627742	-0.318861
C	 4.1080791633	-1.067384646	-0.6790569893	 0.304902
C	 5.0112425347	-0.4239651604	-1.1411874248	-0.451639
C	 0.95246571	-0.6698964466	 0.8843301257	 0.408265
O	 1.0250249798	-0.8308808198	 2.074817376	-0.37686
H	 0.8969306278	 2.0617596395	 0.1760992144	 0.126538
H	-0.6594983064	 2.0708976254	-0.6728678709	 0.120166
H	-0.6009519177	 1.7906430104	 1.0762845339	 0.139921
H	-0.9600492659	-0.3766172676	-0.1663521933	 0.103099
H	 0.5760849773	-1.0665636891	-1.9713447039	 0.108862
H	 1.5895790727	 0.38264461	-1.6907481455	 0.119028
H	 3.1722015419	-2.1185227697	 0.8982185072	 0.169743
H	 2.8901900634	-2.7806231912	-0.7141092427	 0.139494
H	 5.8195288305	 0.141282534	-1.5351327361	 0.205003
42.1679	63.6925	122.7765	184.9939	211.2116	231.7097	254.051	330.0708	368.4922	442.2322	552.2365	623.6282	664.1578	689.7608	734.916	777.9154	843.3311	920.3447	931.8003	953.4999	996.7896	1082.1395	1106.2791	1141.3397	1158.0765	1175.2252	1224.9553	1260.7666	1308.5408	1353.593	1377.3924	1400.9411	1420.7814	1466.6708	1495.5252	1496.4023	1526.4005	1873.747	2240.0934	3006.7767	3033.9822	3037.2677	3069.7998	3070.6719	3084.6072	3106.9635	3115.0957	3504.6354
CC1CN(CC#C)C1=O	C[C@H]1CN(CC#C)C1=O	
InChI=1S/C7H9NO/c1-3-4-8-5-6(2)7(8)9/h1,6H,4-5H2,2H3	InChI=1S/C7H9NO/c1-3-4-8-5-6(2)7(8)9/h1,6H,4-5H2,2H3/t6-/m0/s1
