18
gdb 97236	2.96268	1.42238	0.99275	4.5074	78.37	-0.2224	-0.0286	0.1938	1184.4101	0.149873	-435.304621	-435.296014	-435.29507	-435.338185	31.871	
C	 0.1222925054	 1.424816221	 0.1613461757	-0.296764
N	-0.0224194362	-0.0132332314	 0.029746568	-0.305261
C	-1.1443307516	-0.6035755294	-0.0587516757	 0.271119
N	-1.1622824141	-1.9975670185	-0.0743370731	-0.335198
C	-2.2485282937	-2.6996095811	-0.7338827691	-0.168465
C	-3.557719652	-2.2171212685	-0.1265434574	-0.143483
N	-3.5944344767	-0.7656245666	-0.1946112915	-0.332236
C	-2.5141034752	 0.0679905372	-0.0954709185	 0.360359
O	-2.6430468213	 1.2783372452	-0.0585659802	-0.367625
H	 1.1862620496	 1.6471199264	 0.2878831194	 0.102732
H	-0.2437270427	 1.959308051	-0.7222436465	 0.128886
H	-0.4284335262	 1.8294755882	 1.0170350976	 0.129549
H	-0.2322087389	-2.3737125522	-0.2045150331	 0.240743
H	-2.2664399727	-2.5351905204	-1.8239065259	 0.108671
H	-2.1332732525	-3.7724862419	-0.5581382206	 0.118729
H	-4.407032493	-2.6203813882	-0.6864863486	 0.117348
H	-3.6350055623	-2.5699522841	 0.911574923	 0.120434
H	-4.4836520862	-0.2898537067	-0.1381735035	 0.250465
55.1977	127.2565	146.8393	242.3176	255.4996	310.7667	392.5213	402.7364	434.7968	494.3945	578.4005	605.2555	637.2048	685.5801	739.4564	817.7318	909.4491	973.6859	1037.0805	1071.0956	1103.2065	1110.8855	1140.0999	1152.012	1255.0657	1262.9223	1274.3152	1369.2019	1392.137	1400.4887	1437.5661	1459.4528	1477.8721	1482.6983	1496.1325	1508.4525	1514.2004	1726.6162	1782.7464	2966.3787	3006.4548	3021.762	3079.5102	3082.838	3091.3566	3091.994	3578.3599	3604.7825
CN=C1NCCNC1=O	CN=C1NCCNC1=O	
InChI=1S/C5H9N3O/c1-6-4-5(9)8-3-2-7-4/h2-3H2,1H3,(H,6,7)(H,8,9)	InChI=1S/C5H9N3O/c1-6-4-5(9)8-3-2-7-4/h2-3H2,1H3,(H,6,7)(H,8,9)
