20
gdb 66932	2.22951	1.95438	1.49105	2.6347	77.9	-0.2351	0.0711	0.3062	998.4372	0.169847	-403.097041	-403.088376	-403.087432	-403.129451	34.147	
C	 0.1382057005	 1.4711194677	-0.0191867731	-0.513101
C	-0.0461834347	-0.0140146326	 0.0070090743	 0.320415
C	-0.0201489044	-0.8453011416	 1.2533057113	-0.095596
C	-0.525992687	-2.2474475309	 0.958943192	-0.260267
C	 0.1490951266	-2.0218425311	-0.4036340057	-0.077471
N	 1.0975322012	-0.9627279981	 0.2478988611	-0.189767
C	-0.61325304	-0.8749253523	-1.1168385652	 0.374284
C	-2.114356899	-0.9562320686	-1.35979369	-0.478171
O	 0.060487874	-0.4821198194	-2.3070238562	-0.480091
H	 0.8297300136	 1.7856059832	 0.7682064336	 0.127092
H	 0.5497744799	 1.7805463905	-0.9835972731	 0.146108
H	-0.813789947	 1.9913909104	 0.1359330311	 0.116729
H	 0.1510546984	-0.3916671067	 2.2240211746	 0.092438
H	 0.0258528196	-2.9808823505	 1.5534485749	 0.113187
H	-1.5957551322	-2.4750227418	 0.9987805561	 0.094027
H	 0.5769006153	-2.8369271386	-0.9868409051	 0.07356
H	-2.6745450046	-1.1522151753	-0.4425558941	 0.123233
H	-2.4690106405	-0.0127171203	-1.7854110546	 0.129877
H	-2.3499198199	-1.7554632452	-2.0742737958	 0.1072
H	-0.1440727699	-1.1305972788	-2.989044596	 0.276314
174.4702	183.9805	198.2608	225.9867	237.2189	248.6458	305.4896	386.1415	413.7551	476.7934	557.5604	624.9161	646.3288	751.5387	805.4347	810.6049	834.8806	931.4419	942.7496	958.6637	987.0185	998.1696	1020.7591	1053.4238	1078.2065	1108.6292	1125.6509	1173.7213	1181.539	1204.3908	1242.0459	1249.295	1273.2985	1299.2083	1379.355	1404.2051	1407.2476	1441.6893	1480.2538	1487.3046	1491.0144	1496.6335	1509.382	3025.729	3034.4583	3046.8632	3094.7624	3098.8798	3100.7078	3121.2847	3122.0094	3125.6987	3169.1617	3807.391
CC12C3CC(N13)C2(C)O	C[C@]12[C@H]3C[C@H](N13)[C@]2(C)O	
InChI=1S/C7H11NO/c1-6-4-3-5(8(4)6)7(6,2)9/h4-5,9H,3H2,1-2H3	InChI=1S/C7H11NO/c1-6-4-3-5(8(4)6)7(6,2)9/h4-5,9H,3H2,1-2H3/t4-,5+,6-,7+,8?/m1/s1
