16
gdb 45968	2.98326	1.57053	1.14295	0.7411	69.48	-0.255	-0.0446	0.2104	1028.8045	0.125269	-437.911986	-437.904554	-437.903609	-437.944189	28.281	
O	-0.0253431254	 0.0103357151	 0.3379199638	-0.304308
C	-0.062165858	 1.1849142695	 0.0596216972	 0.390484
C	-1.360811229	 1.9344731801	-0.2246825173	-0.32688
C	-1.1574736598	 2.9988435647	-1.3283297414	-0.315032
C	-0.1087652205	 3.9700331239	-0.8185861262	 0.36354
O	-0.3040140188	 5.1357865409	-0.5830947357	-0.314614
N	 1.1418569399	 3.3609963277	-0.5757084417	-0.092199
C	 1.5680996293	 3.1313075581	 0.787661302	-0.23948
C	 1.2077651361	 1.9772149607	-0.1174930305	-0.131745
H	-2.1236878015	 1.1987429587	-0.4887233792	 0.141208
H	-1.6958960242	 2.4250557631	 0.6992672966	 0.143119
H	-0.8135814982	 2.5176347231	-2.2509874891	 0.133736
H	-2.077223557	 3.5452212104	-1.5401989974	 0.137719
H	 2.6167714408	 3.3084578304	 1.0065207853	 0.143359
H	 0.8783114664	 3.4065732013	 1.581362121	 0.141663
H	 2.02809497	 1.3870310224	-0.5182563573	 0.129429
70.0965	160.6363	219.8814	261.386	388.493	407.0548	442.4759	507.3749	587.4021	660.5648	690.9425	721.4766	778.7454	855.388	934.1059	940.2333	970.5067	996.5945	1046.7968	1072.2398	1114.5809	1125.7193	1149.5637	1171.9939	1207.6344	1249.2524	1308.8505	1333.4278	1345.2128	1384.1975	1461.3371	1477.9021	1513.075	1814.6896	1823.9564	3029.1116	3052.0756	3110.7812	3114.7024	3132.8077	3147.937	3205.6197
O=C1CCC(=O)N2CC12	O=C1CCC(=O)N2C[C@@H]12	
InChI=1S/C6H7NO2/c8-5-1-2-6(9)7-3-4(5)7/h4H,1-3H2	InChI=1S/C6H7NO2/c8-5-1-2-6(9)7-3-4(5)7/h4H,1-3H2/t4-,7?/m0/s1
