20
gdb 101801	3.56782	0.74534	0.73463	2.363	73.04	-0.255	0.0583	0.3133	1651.48	0.168456	-477.458176	-477.447361	-477.446417	-477.496105	37.482	
C	 0.0265282358	 1.3515385281	-0.1475955565	-0.233448
O	 0.0172143246	-0.0289908793	 0.1278423471	-0.246968
C	-1.2576685927	-0.646738406	 0.0360596437	 0.123076
C	-1.7324632969	-0.8123300629	-1.4107424651	-0.402631
C	-1.1637917251	-1.9719258634	 0.7780008233	-0.070412
O	-0.3009326909	-2.8523501589	 0.0477045798	-0.257254
C	-0.3578951837	-4.156480454	 0.4128513672	 0.50084
N	 0.4990651616	-4.8898191022	-0.3618078354	-0.563366
O	-1.0835459645	-4.604478054	 1.2693623575	-0.398497
H	 1.0323584114	 1.71605102	 0.0760998552	 0.127821
H	-0.1973546906	 1.5786463489	-1.1999045214	 0.107227
H	-0.6944053484	 1.8969411297	 0.4826162077	 0.101764
H	-1.9946065024	-0.0383155221	 0.5902978046	 0.065844
H	-2.7067828561	-1.3107797791	-1.4358952722	 0.118352
H	-1.8434409415	 0.1558901976	-1.9055087373	 0.115834
H	-1.0181868322	-1.416369686	-1.9741109607	 0.136546
H	-0.7503997364	-1.8085049157	 1.7781489311	 0.118506
H	-2.1509426086	-2.4302478387	 0.8810498725	 0.124566
H	 1.2243846131	-4.4041910831	-0.8622741172	 0.264813
H	 0.6990124733	-5.8189744488	-0.0334346539	 0.267388
15.438	61.4765	71.2568	124.1585	185.7761	207.5183	236.8108	239.7251	315.7197	359.212	381.5279	437.3074	474.9644	518.6949	622.0565	678.7125	784.4211	815.8723	898.3478	924.8124	948.7723	1060.8066	1097.3562	1117.4899	1127.7232	1143.1271	1178.7119	1182.0874	1226.1894	1283.3597	1342.281	1372.0401	1385.4812	1398.5421	1425.7405	1477.8915	1482.9181	1494.0912	1499.618	1507.1747	1513.0214	1613.2026	1833.942	2946.7346	2973.7531	3025.5106	3049.4383	3057.0171	3109.1539	3110.2993	3116.0385	3139.2906	3611.3097	3739.7166
COC(C)COC(N)=O	CO[C@@H](C)COC(=O)N	
InChI=1S/C5H11NO3/c1-4(8-2)3-9-5(6)7/h4H,3H2,1-2H3,(H2,6,7)	InChI=1S/C5H11NO3/c1-4(8-2)3-9-5(6)7/h4H,3H2,1-2H3,(H2,6,7)/t4-/m0/s1
