14
gdb 32402	6.723	0.87344	0.77676	1.2041	76.18	-0.2313	-0.0347	0.1966	1377.0771	0.099896	-436.673965	-436.665604	-436.66466	-436.707529	29.836	
O	-0.0472611119	 1.4349061578	 0.0058846878	-0.419729
C	-0.0019491662	 0.0188649641	 0.001724032	-0.200623
C	-1.4066048441	-0.483424932	 0.0130914861	 0.248872
C	-2.566538907	 0.2215815853	 0.0246537666	-0.096057
O	-3.6014184681	-0.6652569355	 0.031926587	-0.167776
C	-3.0028526392	-1.888109667	 0.0243547543	 0.212791
N	-1.700406405	-1.8339864866	 0.0127509434	-0.358241
C	-3.8309112956	-3.0295071972	 0.0291922861	 0.259813
C	-4.5416449912	-3.9996712693	 0.0333534197	-0.369925
H	 0.855233331	 1.7648233095	 0.0008348899	 0.295686
H	 0.5152567178	-0.3736939825	-0.888281037	 0.114316
H	 0.5312723205	-0.3785172344	 0.8800314138	 0.114328
H	-2.8144779427	 1.2672794859	 0.029023903	 0.163211
H	-5.1642563282	-4.8602108982	 0.0369757272	 0.203334
51.9996	127.6989	135.7404	214.9632	220.6471	281.0086	405.6242	453.0567	547.4767	599.5809	636.4036	641.3664	691.9228	714.8998	748.2949	782.1972	971.0808	1016.4163	1049.5594	1093.344	1137.9344	1197.6275	1227.5296	1235.692	1291.1257	1336.8945	1465.3147	1513.1616	1555.9676	1629.849	2244.6833	2972.8676	2994.6836	3314.0707	3502.2916	3846.2488
OCC1=COC(=N1)C#C	OCc1coc(n1)C#C	
InChI=1S/C6H5NO2/c1-2-6-7-5(3-8)4-9-6/h1,4,8H,3H2	InChI=1S/C6H5NO2/c1-2-6-7-5(3-8)4-9-6/h1,4,8H,3H2
