19
gdb 31254	2.4977	1.24401	0.86638	0.7646	81.	-0.173	0.0361	0.2092	1341.4848	0.160416	-419.224858	-419.215449	-419.214505	-419.259662	34.53	
C	-0.1959991891	 1.3700069169	 0.0698889452	-0.319123
N	-0.1043028632	-0.0777708215	 0.0026670855	-0.392842
C	 0.6273616653	-0.7298250646	 1.0107058755	 0.215172
C	 0.9177931333	-2.0856564394	 1.0465402202	 0.166383
C	 0.5859305509	-3.1995954828	 0.117023508	-0.183648
O	 0.0574097931	-4.3425441732	 0.7981347621	-0.420996
N	 1.6347028015	-2.315183171	 2.2067870805	-0.276967
C	 1.7720424303	-1.1578630202	 2.9123557608	-0.087741
C	 1.1713306398	-0.1456446897	 2.1938936636	-0.233348
H	 0.7802206238	 1.8832504736	 0.0817765369	 0.105298
H	-0.7646255753	 1.7308256468	-0.7912577874	 0.116279
H	-0.739025133	 1.6658141597	 0.9737510941	 0.130197
H	 0.1554096239	-0.3903523135	-0.9218554104	 0.229035
H	-0.1095034855	-2.8277733781	-0.650474023	 0.095128
H	 1.4685997937	-3.5875733919	-0.4086762027	 0.110197
H	-0.7002153751	-4.0336240133	 1.3077354146	 0.280183
H	 1.8938230184	-3.2353364035	 2.5176809095	 0.262497
H	 2.2808866183	-1.1373449385	 3.8626980394	 0.114442
H	 1.1325349489	 0.892835044	 2.4808257575	 0.089853
58.9784	62.0886	148.8623	187.8222	208.6634	270.7504	308.0282	364.5869	379.6622	472.7445	537.1217	569.3361	627.326	657.9026	697.2766	738.8676	774.223	801.317	915.9261	965.3536	1012.2284	1055.1836	1100.4348	1113.4917	1151.6543	1156.0624	1191.0305	1220.8044	1271.7245	1327.9685	1368.3018	1414.4926	1440.3477	1458.8075	1477.7035	1488.2187	1497.4985	1502.5611	1518.1625	1528.7046	1635.1552	2961.8891	2990.5228	3028.4703	3062.8244	3111.0865	3252.5523	3271.2939	3580.5059	3680.9897	3796.9306
CNC1=C(CO)NC=C1	CNc1c(CO)[nH]cc1	
InChI=1S/C6H10N2O/c1-7-5-2-3-8-6(5)4-9/h2-3,7-9H,4H2,1H3	InChI=1S/C6H10N2O/c1-7-5-2-3-8-6(5)4-9/h2-3,7-9H,4H2,1H3
