18
gdb 74859	2.27626	1.75637	1.13337	3.9719	81.4	-0.2411	0.0026	0.2438	1095.7234	0.148622	-364.832779	-364.824689	-364.823745	-364.865373	31.04	
C	 0.0691916118	 1.4777808683	 0.0368124614	-0.495936
C	-0.0014858163	-0.0133498149	-0.0236000678	 0.304799
C	-0.1068521807	-0.8001449432	-1.0984176894	-0.17943
C	-0.0579201933	-2.2514056899	-0.7675744233	-0.075807
C	 1.2408671907	-2.72414061	-0.1431845808	-0.279976
C	 0.0946928615	-2.3130138585	 0.7409950026	-0.049066
C	 0.0497454682	-0.8666575814	 1.2546864932	-0.25192
C	 1.1792448916	-0.5194024739	 2.1232119464	 0.284705
N	 2.0724994873	-0.2310759368	 2.7982279081	-0.341148
H	 1.0073938654	 1.8126788178	 0.4949770668	 0.15191
H	-0.0003797824	 1.9167793349	-0.9615029207	 0.129095
H	-0.7424494319	 1.8901818185	 0.6500556284	 0.128406
H	-0.1841086951	-0.4330053063	-2.1160303741	 0.101309
H	-0.6732189593	-2.95877521	-1.3119173912	 0.095227
H	 1.4617718816	-3.7855522378	-0.1791829651	 0.118957
H	 2.106816876	-2.075306713	-0.2197668676	 0.129834
H	-0.400209675	-3.0721359673	 1.3328995852	 0.102093
H	-0.8644177503	-0.7021469066	 1.8436028179	 0.12695
99.6833	135.9136	178.9381	194.3541	316.9983	350.3999	403.5918	466.3148	505.0597	582.4956	638.2017	693.5478	790.0939	816.956	837.1968	877.433	932.3089	936.9691	992.8073	1020.1303	1032.4026	1061.9506	1070.0778	1071.0618	1093.2984	1104.3796	1185.8945	1211.1912	1260.6196	1287.6585	1307.6892	1350.4945	1375.3202	1418.4864	1476.9915	1479.5327	1489.6975	1713.1271	2352.7774	3001.6641	3021.3847	3071.0707	3118.9226	3131.2864	3172.7764	3191.414	3194.6336	3222.2278
CC1=CC2CC2C1C#N	CC1=C[C@H]2C[C@H]2[C@H]1C#N	
InChI=1S/C8H9N/c1-5-2-6-3-7(6)8(5)4-9/h2,6-8H,3H2,1H3	InChI=1S/C8H9N/c1-5-2-6-3-7(6)8(5)4-9/h2,6-8H,3H2,1H3/t6-,7+,8-/m0/s1
