15
gdb 57229	3.05732	0.82191	0.74835	2.6678	88.32	-0.263	-0.0372	0.2257	1527.3492	0.110087	-379.616867	-379.607099	-379.606155	-379.651537	35.276	
C	-0.0234792738	 1.5465003101	 0.0228326122	-0.384621
C	 0.0154733042	 0.0001604284	 0.0127686609	-0.195678
N	 0.7557264871	-0.4571992111	 1.1993898326	-0.501263
C	-1.3845686815	-0.5139025028	 0.0017478745	 0.274846
N	-2.4669645893	-0.9161849039	 0.0589574073	-0.337794
C	 0.695035223	-0.4852282389	-1.1929996417	 0.635816
C	 1.2584269337	-0.8703963719	-2.1904038434	-0.372393
C	 1.8932727582	-1.3061116484	-3.3121930153	 0.310736
C	 2.4567589845	-1.692451285	-4.3070704052	-0.560486
H	 1.0022086005	 1.9184005684	 0.0318237642	 0.15113
H	-0.5470871055	 1.925130937	-0.8564350487	 0.148701
H	-0.5433266953	 1.8954697067	 0.9196203507	 0.133984
H	 0.2482143981	-0.1794841494	 2.0357995443	 0.244724
H	 0.8072518645	-1.4718818045	 1.2049391362	 0.251167
H	 2.9516239916	-2.0328297247	-5.1829802686	 0.201132
70.1274	88.3173	177.9732	189.1865	237.1757	242.8456	275.2936	292.6264	372.2533	445.2182	477.7141	504.9277	553.1587	565.7377	597.8311	609.2291	621.554	656.0452	820.5164	887.9953	949.5963	1033.0899	1097.6434	1159.2529	1209.9369	1345.1456	1402.58	1484.3305	1486.2628	1653.7599	2186.7342	2343.8331	2371.02	3054.9167	3136.2813	3158.1774	3487.7155	3502.4634	3574.0701
CC(N)(C#N)C#CC#C	C[C@@](N)(C#N)C#CC#C	
InChI=1S/C7H6N2/c1-3-4-5-7(2,9)6-8/h1H,9H2,2H3	InChI=1S/C7H6N2/c1-3-4-5-7(2,9)6-8/h1H,9H2,2H3/t7-/m0/s1
