17
gdb 44420	3.48174	1.45536	1.41945	1.8009	73.59	-0.2456	-0.02	0.2256	962.1539	0.137282	-421.743975	-421.737306	-421.736362	-421.774921	27.467	
O	-0.0470690736	-0.0236471432	-0.1771585091	-0.28393
C	-0.0816173738	 1.1614052471	-0.0759898525	 0.313808
C	-1.2698459379	 2.2030310494	 0.1748587147	-0.409986
C	-0.1915077782	 2.9708099013	 0.9874819736	 0.011617
C	 0.8178465902	 4.1843368665	 0.9233363081	 0.047244
C	 1.9500867761	 3.0822212532	 1.0887884542	-0.333868
C	 0.9262945558	 2.3166739679	 0.1638303228	 0.085864
C	 0.9945354472	 3.2598685258	-1.0700516162	-0.098199
O	 0.8996213499	 4.5511908113	-0.4414144229	-0.254506
H	-1.6288493447	 2.6771629006	-0.7380870613	 0.140541
H	-2.1181185277	 1.8006263614	 0.7311119522	 0.12877
H	-0.1714180778	 2.5684334868	 2.0036987293	 0.099954
H	 0.7434447857	 5.0685844014	 1.5554608297	 0.094653
H	 2.9297856694	 3.344367468	 0.682811689	 0.112927
H	 2.0306211801	 2.6671896659	 2.0925334369	 0.120224
H	 1.9547884134	 3.1501057053	-1.5861677214	 0.114795
H	 0.1917273956	 3.1367746214	-1.8023389069	 0.110091
114.9935	220.8325	332.6825	394.2671	458.9811	493.5438	528.8676	602.0459	645.9592	683.2386	749.9363	819.8533	831.7075	875.5195	932.8308	938.0023	957.8507	969.2573	1003.8884	1023.6403	1064.9577	1075.2445	1103.8388	1127.0774	1132.8623	1164.2809	1178.6981	1191.941	1200.3338	1222.7914	1286.3011	1360.6186	1385.0075	1465.7189	1484.5779	1535.0138	1886.2935	3041.2317	3068.7304	3077.4062	3083.9767	3095.9559	3134.0791	3155.4386	3159.6057
O=C1CC2C3CC12CO3	O=C1C[C@@H]2[C@H]3C[C@@]12CO3	
InChI=1S/C7H8O2/c8-6-1-4-5-2-7(4,6)3-9-5/h4-5H,1-3H2	InChI=1S/C7H8O2/c8-6-1-4-5-2-7(4,6)3-9-5/h4-5H,1-3H2/t4-,5-,7+/m1/s1
