19
gdb 60038	2.13086	1.14809	0.83288	1.3456	73.31	-0.2661	-0.056	0.2101	1399.665	0.155151	-460.181623	-460.171442	-460.170497	-460.217444	35.97	
C	-0.4187758156	 1.7107259937	 0.117724252	-0.396353
C	-0.1042382665	 0.2355011806	-0.1327993487	 0.129624
O	 0.960055865	-0.2194632384	 0.6955127577	-0.441038
C	-1.3566126732	-0.6427823194	 0.008904406	-0.241754
C	-1.0545482009	-2.141448528	-0.044757633	-0.178154
C	-0.696126664	-2.7582344114	 1.2996293737	 0.156046
O	-0.5099624792	-2.1342129355	 2.3134456106	-0.248389
C	-2.1401767939	-2.9818431402	-0.7128186445	 0.141129
O	-3.1034398981	-2.533548608	-1.273723568	-0.228066
H	 0.4874981109	 2.3114364569	 0.0060871343	 0.124661
H	-1.1729519246	 2.0821120837	-0.5844254403	 0.113667
H	-0.8015641046	 1.8562975215	 1.1345645431	 0.114064
H	 0.2810098879	 0.1272850051	-1.156407466	 0.083005
H	 0.5959115411	-0.3919311482	 1.5734000173	 0.289848
H	-1.8499669853	-0.4195364316	 0.962425684	 0.115102
H	-2.0730434914	-0.4014123423	-0.7812637139	 0.130677
H	-0.1540588848	-2.3386003572	-0.6575552066	 0.146776
H	-0.6077144067	-3.8668450504	 1.2953121528	 0.098535
H	-1.9666254063	-4.0806164611	-0.6623699506	 0.09062
55.5371	78.4776	116.7644	154.8707	166.493	228.7816	234.1466	258.861	357.542	377.218	453.6253	467.7462	484.0253	598.9078	680.3347	807.9592	850.8971	864.0368	880.0755	951.3915	972.0757	1036.5408	1089.1413	1112.1915	1138.853	1171.2248	1191.9523	1239.2178	1283.0399	1338.1943	1355.6585	1391.1668	1404.6019	1414.8137	1436.754	1444.9209	1478.7431	1493.3145	1495.403	1805.8181	1848.3997	2869.5731	2896.5338	2952.6637	3010.3538	3029.7912	3045.874	3095.0906	3103.8306	3120.7884	3769.3548
CC(O)CC(C=O)C=O	C[C@@H](O)CC(C=O)C=O	
InChI=1S/C6H10O3/c1-5(9)2-6(3-7)4-8/h3-6,9H,2H2,1H3	InChI=1S/C6H10O3/c1-5(9)2-6(3-7)4-8/h3-6,9H,2H2,1H3/t5-/m1/s1
