16
gdb 51513	5.07646	0.83746	0.75042	3.5334	75.6	-0.25	-0.0606	0.1893	1446.6524	0.123933	-437.911714	-437.903423	-437.902479	-437.946255	29.612	
N	 0.1082524989	 1.2540630493	 0.1053930519	-0.437893
C	 0.0128227277	 0.0029898667	 0.220438237	 0.127337
O	-0.842929498	-0.6830793762	-0.5670064284	-0.191391
C	-0.9899051693	-2.0838639237	-0.325386987	 0.064806
C	-2.269042292	-2.4383927848	 0.453065763	-0.35659
C	-2.9417577662	-3.5457240486	-0.3754771598	 0.377388
O	-3.8816455659	-4.2199773412	-0.0335000804	-0.315122
C	-2.2057017257	-3.6190356178	-1.6647098297	-0.181005
C	-1.1507647487	-2.8002578453	-1.646213731	-0.061824
H	 0.8050903813	 1.6133717936	 0.754226895	 0.233034
H	 0.5775007821	-0.6380393082	 0.9128365755	 0.087695
H	-0.0912501283	-2.4500223269	 0.191821564	 0.101881
H	-2.1009883771	-2.7654983374	 1.4813827702	 0.131407
H	-2.9284649628	-1.5655264833	 0.4797601406	 0.15939
H	-2.5178632764	-4.2662786878	-2.4741329757	 0.128494
H	-0.4449374696	-2.6359511683	-2.4523070453	 0.132392
33.8878	62.3741	114.8662	190.4604	307.2815	343.4963	401.0306	489.9945	500.786	644.6295	669.423	762.6025	813.651	816.8744	827.4286	886.4139	974.82	1003.1455	1026.7839	1041.0889	1059.1458	1102.8412	1133.9959	1164.2384	1190.0367	1246.5244	1285.3391	1309.0316	1350.0131	1376.9112	1426.6687	1448.0487	1655.8629	1748.5408	1827.1428	2997.4974	3013.5773	3071.2218	3123.8888	3203.8087	3232.8089	3522.0688
N=COC1CC(=O)C=C1	[NH][CH]O[C@H]1CC(=O)C=C1	
InChI=1S/C6H7NO2/c7-4-9-6-2-1-5(8)3-6/h1-2,4,6-7H,3H2	InChI=1S/C6H7NO2/c7-4-9-6-2-1-5(8)3-6/h1-2,4,6-7H,3H2/t6-/m1/s1
