16
gdb 98256	2.31896	1.2732	0.97438	1.7925	62.67	-0.2516	-0.0466	0.205	1213.3428	0.122463	-512.198346	-512.1887	-512.187756	-512.234023	34.228	
N	 0.633803565	 0.0803129591	-0.8528318877	-0.502724
C	-0.3432277886	 0.6043257026	-0.0829836874	 0.347524
O	-0.3143357657	 1.7037409529	 0.4384858156	-0.36191
C	-1.5530952272	-0.3527242092	 0.097181764	-0.049397
O	-1.4220463414	-1.5353270694	-0.6470107599	-0.442689
C	-1.719400622	-0.694050914	 1.5829035327	 0.338506
O	-1.5507189072	-1.8439544708	 1.9319443049	-0.325875
C	-2.1897819222	 0.4054917346	 2.5229978429	-0.158479
O	-3.5451970191	 0.7123354113	 2.2103462955	-0.410528
H	 1.433635745	 0.6459559486	-1.0817897561	 0.267207
H	 0.4730871342	-0.8062802595	-1.3024304444	 0.277636
H	-2.4373392596	 0.2159622065	-0.2179198485	 0.143953
H	-1.3526461077	-2.2404120958	 0.0213916162	 0.296158
H	-2.0613701193	 0.0689118039	 3.5585179359	 0.113074
H	-1.613149776	 1.314575082	 2.3406886939	 0.171256
H	-4.0862780982	-0.0367382828	 2.4832459822	 0.296289
35.0426	61.8755	91.2056	182.0443	212.4181	309.9441	320.8081	361.0123	381.6999	418.1602	476.388	530.6337	561.1658	601.7924	629.2643	699.7607	713.8097	891.1327	900.815	979.7527	1052.3302	1097.9487	1115.592	1158.9608	1195.9164	1258.4304	1318.192	1358.5627	1367.2052	1416.2883	1422.5446	1485.9866	1583.7974	1789.5459	1798.8561	3036.6612	3043.0396	3129.8555	3593.6762	3629.929	3735.9671	3806.9795
NC(=O)C(O)C(=O)CO	NC(=O)[C@@H](O)C(=O)CO	
InChI=1S/C4H7NO4/c5-4(9)3(8)2(7)1-6/h3,6,8H,1H2,(H2,5,9)	InChI=1S/C4H7NO4/c5-4(9)3(8)2(7)1-6/h3,6,8H,1H2,(H2,5,9)/t3-/m0/s1
