16
gdb 66866	3.72644	1.81111	1.5985	4.0338	71.44	-0.2078	-0.0541	0.1537	861.4711	0.123794	-400.618675	-400.612107	-400.611163	-400.649133	27.302	
C	 0.0947529488	 1.558049614	 0.0125007272	-0.519548
C	-0.0328349148	 0.0654494615	-0.0078072731	 0.327719
C	 0.9909583264	-0.9225706518	-0.5567373976	-0.064047
N	 0.4801351636	-2.0569939298	-1.2874008744	-0.20157
C	-0.735993824	-2.0491490923	-0.8908941403	 0.220122
O	-1.1444979009	-2.9543596121	 0.1023568485	-0.284824
C	-0.8990938839	-1.7203992378	 0.9557123679	 0.103437
C	 0.5170548762	-1.0186539817	 0.9316550752	-0.190102
C	-1.2871663497	-0.7771548279	-0.1797509445	-0.206361
H	 1.1279287099	 1.8613395696	 0.207928428	 0.128473
H	-0.2021232077	 1.9896164016	-0.9500601217	 0.132494
H	-0.5359107224	 2.0048659151	 0.7889573343	 0.126111
H	 2.0086148781	-0.6000902421	-0.7473016215	 0.106237
H	-1.4228466799	-1.8085614924	 1.9051833001	 0.120234
H	 1.2071545358	-0.9409159094	 1.7602421928	 0.101018
H	-2.2999130255	-0.4335754746	-0.3626899309	 0.10061
193.8912	220.0294	257.2712	380.4884	504.6612	549.5938	563.6919	635.0283	664.2643	690.3864	716.2142	750.7772	837.8303	864.4958	873.7317	885.0849	932.49	951.7902	973.4422	1020.4684	1023.4394	1058.0677	1064.2131	1112.3626	1165.3348	1189.5148	1198.5661	1226.1077	1250.5877	1270.0643	1411.9597	1432.3564	1487.5056	1495.3304	1546.5576	3027.8308	3088.8283	3102.333	3148.7343	3175.4852	3182.5273	3215.7544
CC12C3N=C4OC(C13)C24	C[C@@]12[C@@H]3[N][C]4O[C@@H]([C@H]13)[C@@H]24	
InChI=1S/C7H7NO/c1-7-2-4-3(7)6(9-4)8-5(2)7/h2-5H,1H3	InChI=1S/C7H7NO/c1-7-2-4-3(7)6(9-4)8-5(2)7/h2-5H,1H3/t2-,3+,4-,5+,7+/m0/s1
