21
gdb 66170	3.66778	0.85594	0.81161	4.0073	80.29	-0.2767	0.0095	0.2862	1490.4093	0.180965	-424.243404	-424.233681	-424.232736	-424.279105	35.11	
C	-0.4432432706	 1.5786957855	-0.0086301888	-0.476164
C	-0.0077513623	 0.1179484821	-0.0158729121	 0.338782
C	-1.1914361647	-0.8157946953	-0.2538598858	-0.129441
O	-1.7515845406	-0.606804607	-1.5591871265	-0.183328
C	-3.0491700566	-0.2687560077	-1.6591391973	 0.173234
O	-3.5921261708	-0.0822591486	-2.7062442483	-0.276937
C	 1.2099513781	-0.2513178099	-0.9234474474	-0.249762
C	 1.8135448902	-1.0759345263	 0.2448395455	-0.212112
C	 0.8173807679	-0.3842721627	 1.2146064976	-0.264029
H	 0.4105047025	 2.2356240678	 0.1839730027	 0.116173
H	-0.8757843503	 1.8690769518	-0.9715351615	 0.135265
H	-1.1916978214	 1.7688807004	 0.7707313647	 0.109339
H	-0.8785413511	-1.8642926079	-0.2079530873	 0.116539
H	-1.9636989233	-0.6576923333	 0.511861263	 0.106023
H	-3.5473833133	-0.1862432561	-0.672652795	 0.075328
H	 0.9839725931	-0.7743760714	-1.8552725543	 0.114356
H	 1.8107909563	 0.6306598803	-1.1610577607	 0.10087
H	 1.6261756107	-2.1483279346	 0.1450889987	 0.105585
H	 2.8768479471	-0.9378833124	 0.4507068983	 0.102635
H	 1.2703928136	 0.4504232939	 1.7560472589	 0.10333
H	 0.2951289754	-1.0171537286	 1.9393382357	 0.094314
35.452	66.1859	126.2303	141.3704	214.7819	232.7019	292.4198	299.1691	371.2281	394.901	458.4754	630.043	680.7749	725.399	785.2936	866.1896	890.8678	914.6896	942.3055	962.3405	980.4459	1003.9475	1034.4506	1045.888	1078.3576	1142.8959	1165.942	1206.7312	1217.0551	1234.6234	1257.2813	1276.252	1286.6959	1308.832	1349.9384	1394.2806	1412.0023	1433.5277	1477.2144	1485.1099	1490.2849	1496.618	1502.6346	1512.2767	1864.4161	2939.2955	3009.6969	3023.2422	3046.8316	3062.321	3065.8553	3073.5306	3089.5124	3095.1367	3105.7447	3110.303	3124.4621
CC1(COC=O)CCC1	CC1(COC=O)CCC1	
InChI=1S/C7H12O2/c1-7(3-2-4-7)5-9-6-8/h6H,2-5H2,1H3	InChI=1S/C7H12O2/c1-7(3-2-4-7)5-9-6-8/h6H,2-5H2,1H3
