18
gdb 106900	3.0055	1.23076	1.03473	4.1262	73.	-0.2358	0.0115	0.2473	1188.4649	0.146573	-439.069891	-439.060778	-439.059834	-439.103936	33.058	
C	-0.0703182471	 1.391989119	-0.4794550958	-0.355543
N	-0.37877413	 0.0149112218	-0.1491954636	-0.147699
C	-0.0589698442	-1.1098710109	-0.925441865	 0.422064
O	-0.0063463376	-1.2554639621	-2.1153501222	-0.361639
C	 0.2115178543	-1.9474769503	 0.3171405562	-0.27257
C	 1.300474199	-1.223735436	 1.1208132847	-0.339277
C	-0.1027582924	-0.6942684461	 1.1090916918	 0.343397
C	-1.0107874669	-0.5157309411	 2.2987097258	-0.181917
O	-0.7118211915	-1.4198062255	 3.3478410138	-0.401814
H	 0.9255186779	 1.6933420483	-0.1249189395	 0.117216
H	-0.0956868059	 1.4830092939	-1.5681067761	 0.159625
H	-0.8135931534	 2.0749011419	-0.056657145	 0.128929
H	-0.0723893249	-2.9709621977	 0.514107862	 0.124979
H	 1.6099246746	-1.7582751768	 2.0142719121	 0.12147
H	 2.0975243111	-0.6945693414	 0.6065039019	 0.123915
H	-0.9741888356	 0.5293437182	 2.6447747795	 0.09839
H	-2.043182492	-0.7165568252	 1.9930305063	 0.129502
H	 0.0737602547	-1.0992993401	 3.801371673	 0.290971
70.6451	135.5863	151.1129	155.8886	203.1341	236.4815	294.8199	339.4421	376.1188	472.3823	543.8671	661.1724	704.8443	748.5477	780.9071	867.8633	917.5553	942.5236	972.1846	1007.6016	1038.9807	1053.6002	1080.2253	1097.613	1148.815	1155.4072	1207.6472	1236.778	1256.2852	1328.4013	1383.173	1395.1577	1417.1963	1443.148	1482.7311	1486.3781	1503.5042	1512.5632	1885.4234	2979.8753	3003.2022	3072.0133	3077.5578	3117.0794	3128.376	3205.9186	3231.5597	3827.0235
CN1C(=O)C2CC12CO	CN1C(=O)[C@H]2C[C@@]12CO	
InChI=1S/C6H9NO2/c1-7-5(9)4-2-6(4,7)3-8/h4,8H,2-3H2,1H3	InChI=1S/C6H9NO2/c1-7-5(9)4-2-6(4,7)3-8/h4,8H,2-3H2,1H3/t4-,6+/m1/s1
