21
gdb 92555	2.51076	1.75993	1.68194	1.5745	79.81	-0.2286	0.079	0.3076	971.0392	0.186016	-387.092715	-387.085441	-387.084497	-387.124126	30.121	
C	-0.511343304	 1.4888452713	 0.0740428137	-0.401904
C	-0.0367088564	 0.0299265825	 0.0173664824	 0.017591
C	 0.7371966654	-0.3561024207	-1.2805653473	-0.226107
C	 2.2116503258	-0.6075472027	-0.8814229227	-0.056129
C	 3.0258632906	 0.694155454	-0.8166790074	-0.076311
O	 2.6254871772	 1.3303982893	 0.4027000867	-0.258638
C	 2.2560858708	 0.3101479972	 1.3026682787	 0.095673
C	 0.9047732523	-0.3647245776	 1.1569299373	-0.085608
C	 2.1635152642	-1.0136902168	 0.6100457801	-0.133192
H	 0.335079947	 2.1761066624	 0.008946322	 0.140129
H	-1.2061165464	 1.7056668926	-0.7446723951	 0.102269
H	-1.0362517088	 1.6893398281	 1.0144275582	 0.105892
H	-0.9239816314	-0.6100098118	 0.091419085	 0.068736
H	 0.3167419469	-1.2775399184	-1.6957297235	 0.094891
H	 0.6500459277	 0.4110281154	-2.0574706137	 0.093013
H	 2.6954303402	-1.3520013514	-1.5177692168	 0.070665
H	 4.1057506014	 0.4823566511	-0.7914702921	 0.089637
H	 2.8230444034	 1.3856280684	-1.6401221972	 0.104053
H	 2.683080704	 0.4308995995	 2.2930733751	 0.092881
H	 0.4643028327	-0.7338409726	 2.0786664279	 0.077878
H	 2.6011258074	-1.9339026198	 0.9758096686	 0.08458
110.3929	199.627	245.0466	304.6956	373.1035	382.8721	522.0491	584.7038	700.8436	722.9453	747.306	771.8668	793.2373	821.8704	864.6397	917.654	923.1472	958.428	978.2435	1001.145	1006.926	1041.2592	1049.8536	1070.2839	1090.2371	1096.6604	1135.7092	1149.2561	1171.5637	1211.8945	1226.1702	1266.7996	1281.9457	1283.7906	1320.0453	1328.7402	1351.0121	1374.9359	1382.2946	1409.1159	1412.997	1491.363	1496.7309	1510.4209	1516.1589	2986.7678	3020.2524	3032.3586	3043.6898	3077.5963	3083.9733	3088.7729	3092.1446	3131.8165	3147.0119	3159.9117	3187.3879
CC1CC2COC3C1C23	C[C@H]1C[C@H]2CO[C@H]3[C@@H]1[C@@H]23	
InChI=1S/C8H12O/c1-4-2-5-3-9-8-6(4)7(5)8/h4-8H,2-3H2,1H3	InChI=1S/C8H12O/c1-4-2-5-3-9-8-6(4)7(5)8/h4-8H,2-3H2,1H3/t4-,5-,6-,7+,8-/m0/s1
