23
gdb 76628	2.63647	1.1905	0.95497	2.7142	86.7	-0.2222	0.0845	0.3067	1359.1436	0.204534	-384.424245	-384.414011	-384.413067	-384.459091	38.134	
C	-0.0171664855	 1.2054408131	 1.0149570709	-0.421098
C	 0.2234115754	-0.1680428661	 0.4279421769	 0.00833
C	 0.1910977584	-0.4146232021	-1.0462171813	-0.102114
N	 1.4432983048	-0.5236037295	-0.312480511	-0.109748
C	 2.4823800969	 0.4703330066	-0.5410676125	-0.317634
C	-0.3743987128	-1.6735905479	-1.6524037318	 0.325146
C	-1.8614635965	-1.6261106275	-1.9306782058	-0.449884
C	 0.5250616891	-2.4932908159	-2.5048130452	-0.274233
N	 0.1415973125	-2.9574112764	-1.1568763481	-0.359138
H	 0.221470891	 2.0101561772	 0.3156625244	 0.120882
H	-1.0722801181	 1.309044724	 1.2888286521	 0.127619
H	 0.5747242315	 1.3580049455	 1.9244020903	 0.124128
H	-0.1118242733	-0.9828290805	 1.0693071495	 0.094819
H	 0.0593636315	 0.4809794563	-1.6585745527	 0.074792
H	 2.1094658649	 1.47639889	-0.7827509016	 0.103891
H	 3.1170714478	 0.54416146	 0.347872051	 0.124538
H	 3.1091893612	 0.137308414	-1.374276066	 0.126259
H	-2.1043532093	-0.8330088346	-2.6475186071	 0.109027
H	-2.2021618175	-2.5795918848	-2.3410879291	 0.127662
H	-2.4249310493	-1.4331837458	-1.0108374861	 0.116047
H	 0.115524797	-3.0727221887	-3.3283734108	 0.108268
H	 1.5442171347	-2.1447265171	-2.6516907333	 0.106271
H	 0.9216857055	-2.7515346499	-0.5308577229	 0.236169
71.6678	130.6457	153.9547	175.8033	179.0463	203.4656	258.9871	288.956	313.6695	350.1955	382.6204	439.3334	514.4053	545.8481	744.0298	769.4163	829.1304	851.2364	888.91	930.6601	990.4641	1009.1539	1029.1152	1033.3031	1057.0858	1101.0278	1107.6435	1122.6582	1124.9495	1154.8362	1168.6746	1190.4611	1197.8826	1286.56	1299.6563	1330.0024	1378.0207	1379.7382	1410.7839	1418.3412	1442.5828	1470.499	1485.4004	1487.9862	1490.2384	1496.6879	1503.3902	1508.06	1510.1613	2991.2595	3028.3139	3036.5861	3069.7343	3073.5813	3088.135	3094.6554	3101.0528	3101.8134	3102.198	3122.4052	3126.5761	3186.9758	3449.3568
CC1C(N1C)C1(C)CN1	C[C@H]1[C@@H](N1C)[C@@]1(C)CN1	
InChI=1S/C7H14N2/c1-5-6(9(5)3)7(2)4-8-7/h5-6,8H,4H2,1-3H3	InChI=1S/C7H14N2/c1-5-6(9(5)3)7(2)4-8-7/h5-6,8H,4H2,1-3H3/t5-,6+,7+,9?/m0/s1
