21
gdb 115612	2.82855	1.06611	0.95948	2.1904	79.2	-0.2222	0.0676	0.2899	1344.2675	0.180772	-424.186616	-424.17682	-424.175875	-424.221865	35.675	
C	-0.121834237	 1.474284124	-0.0444180951	-0.401944
C	 0.1069403041	-0.0206953493	-0.0818643393	-0.083826
C	 1.5258454432	-0.5817307717	-0.0672363466	-0.366908
C	 0.6424187521	-0.7236125908	 1.1296315347	 0.44261
O	 0.9195357274	-0.0141226749	 2.3395981802	-0.310798
C	 0.5027610693	-1.1522785339	 3.1333178276	-0.07878
C	 0.1522227505	-1.9669893112	 1.8695730741	-0.125131
C	-1.3097384554	-2.3309310651	 1.6992714956	-0.092523
O	-1.6107190052	-3.3329326671	 2.659512275	-0.422606
H	 0.564863043	 1.9528205313	 0.6588917289	 0.135057
H	 0.0268086032	 1.9239586015	-1.032012414	 0.113565
H	-1.1406882633	 1.7090703206	 0.2825831151	 0.114233
H	-0.6091979163	-0.5810345821	-0.6797031911	 0.081119
H	 1.7514923156	-1.4603786085	-0.6638329722	 0.108733
H	 2.3391084184	 0.1326742214	 0.017497695	 0.119259
H	 1.3255300205	-1.5432313332	 3.7412261666	 0.105635
H	-0.3461003836	-0.9107299877	 3.7830198084	 0.106601
H	 0.7714723431	-2.8561358604	 1.7265644145	 0.087996
H	-1.9309522839	-1.4329122431	 1.8451841795	 0.092163
H	-1.4892703991	-2.69171396	 0.673386824	 0.086776
H	-2.5455729767	-3.5473763897	 2.591120149	 0.288769
51.4687	91.9543	105.7916	171.0979	190.841	214.1951	263.9673	291.2043	368.9765	430.7999	486.3554	529.0804	579.2592	789.2474	817.63	871.4543	878.6823	903.7643	926.5982	979.2867	995.6937	1012.5038	1039.0049	1077.6332	1088.3059	1112.8155	1131.1786	1145.2153	1166.3252	1180.3542	1209.9134	1215.3199	1259.533	1272.0535	1306.1587	1340.7459	1371.5615	1409.0357	1425.9859	1459.8045	1482.8069	1492.4305	1503.7062	1518.23	1530.7968	2963.0451	2993.8092	3028.8462	3032.0985	3070.2556	3085.364	3090.5366	3110.8848	3119.3217	3128.0357	3208.4747	3830.3854
CC1CC11OCC1CO	C[C@H]1C[C@]21OC[C@H]2CO	
InChI=1S/C7H12O2/c1-5-2-7(5)6(3-8)4-9-7/h5-6,8H,2-4H2,1H3	InChI=1S/C7H12O2/c1-5-2-7(5)6(3-8)4-9-7/h5-6,8H,2-4H2,1H3/t5-,6+,7+/m0/s1
