19
gdb 83166	2.50655	1.56654	1.44353	2.8587	76.63	-0.2285	0.0241	0.2526	1023.5606	0.160745	-419.188893	-419.180623	-419.179678	-419.221775	31.394	
C	-0.3220122262	 1.5375106665	 0.1352137727	-0.437312
C	-0.0441554041	 0.0530276358	 0.0123061371	 0.006853
C	 0.5313357067	-0.6506627009	-1.1728981164	-0.050821
C	 1.122581221	 0.0500605961	-2.3754356289	-0.115517
O	 1.8266660584	 1.2596201401	-2.0788823871	-0.247356
C	 2.5956696226	 1.334297978	-0.9534373758	 0.374594
N	 3.3445357301	 2.3289329256	-0.7294002146	-0.515476
C	 2.5089799382	 0.1893160983	 0.0388754915	-0.238467
N	 1.2790885153	-0.5976116914	 0.0817171576	-0.121712
H	 0.2706174707	 2.1630064685	-0.5288113089	 0.15257
H	-1.3780613166	 1.7163591366	-0.0948229295	 0.123288
H	-0.1554242311	 1.8701642695	 1.1655460741	 0.131006
H	-0.7701923358	-0.5366622505	 0.5723516033	 0.09701
H	 0.138694973	-1.6346198241	-1.4344635192	 0.093571
H	 1.8055385143	-0.6425526376	-2.8884579636	 0.118992
H	 0.3453829212	 0.3337461655	-3.0918194131	 0.128233
H	 3.3083286439	 2.9837223425	-1.513936267	 0.217378
H	 3.3209778201	-0.5133379844	-0.1904241474	 0.135997
H	 2.7249669084	 0.599199686	 1.0275770451	 0.14717
84.427	141.1647	156.1617	184.1075	250.6863	396.4034	415.4988	428.3086	506.5845	534.4634	617.0171	726.7645	743.3676	776.3879	814.6832	861.1783	908.596	976.7743	1002.4303	1020.4796	1041.7561	1057.0621	1104.9933	1134.5964	1156.7109	1179.499	1188.2652	1268.3565	1281.7282	1322.4891	1335.1426	1347.5697	1392.8925	1414.7717	1425.4937	1459.7142	1469.6606	1494.8836	1505.3254	1514.6512	1750.0488	3002.0626	3026.4473	3041.4371	3076.3166	3086.1219	3091.9916	3099.5238	3112.3701	3174.4857	3457.0301
CC1C2COC(=N)CN12	C[C@H]1[C@H]2CO[C]([NH])CN12	
InChI=1S/C6H10N2O/c1-4-5-3-9-6(7)2-8(4)5/h4-5,7H,2-3H2,1H3	InChI=1S/C6H10N2O/c1-4-5-3-9-6(7)2-8(4)5/h4-5,7H,2-3H2,1H3/t4-,5+,8?/m0/s1
