15
gdb 42792	2.57073	1.69959	1.4397	4.4479	65.76	-0.2607	-0.0382	0.2225	936.8906	0.114086	-457.802995	-457.79604	-457.795096	-457.834579	26.579	
O	-0.0347759046	 0.0257466027	 0.0127838253	-0.303244
C	-0.0411877574	 1.218209737	-0.0106116442	 0.431741
C	-1.1093337173	 2.3140554166	 0.0933059715	-0.170225
C	-0.0139244398	 3.1511112057	 0.8189562914	-0.254471
C	 1.0417342181	 2.3173230718	 0.0206540452	-0.269207
C	 1.1344375739	 2.905043962	-1.3850876625	 0.436439
O	 2.1560670775	 3.1061744895	-1.9717093693	-0.319397
O	-0.0605965106	 3.2269790833	-1.9546741382	-0.235539
C	-1.3055346147	 2.8979051685	-1.3107430253	-0.081969
H	-2.0661548193	 2.0972674394	 0.5697627584	 0.108112
H	-0.0204459186	 4.2278139869	 0.6389883767	 0.129697
H	 0.0333201927	 2.9461655723	 1.8889545783	 0.132134
H	 2.0354970967	 2.114221493	 0.4116213952	 0.122972
H	-1.8320832667	 2.1871495722	-1.9558576058	 0.140449
H	-1.88590426	 3.8248715592	-1.2620561167	 0.132507
122.2525	137.2312	198.9424	355.5036	411.4536	474.2724	498.4271	535.9013	685.1353	709.6294	762.9826	804.1321	849.9324	898.3686	905.5768	979.4303	1001.165	1029.0562	1059.6425	1090.8617	1119.8152	1133.4033	1178.1798	1203.5043	1249.2448	1273.1068	1286.2246	1288.9763	1413.8364	1497.2943	1515.4156	1863.0852	1908.1817	3044.9374	3079.9452	3091.1856	3117.3272	3143.674	3160.681
O=C1C2CC1C(=O)OC2	O=C1[C@H]2C[C@@H]1C(=O)OC2	
InChI=1S/C6H6O3/c7-5-3-1-4(5)6(8)9-2-3/h3-4H,1-2H2	InChI=1S/C6H6O3/c7-5-3-1-4(5)6(8)9-2-3/h3-4H,1-2H2/t3-,4-/m0/s1
