18
gdb 39776	3.01892	1.83658	1.48563	1.3947	74.16	-0.2431	0.0662	0.3093	926.4396	0.150009	-401.856103	-401.849524	-401.84858	-401.886657	27.975	
C	-0.0245113105	 1.5378441951	-0.0278977147	-0.307704
C	 1.3004691701	 0.8203203433	-0.0662806359	-0.044845
C	 0.0008400605	 0.0262396232	-0.0713220929	-0.057976
C	 0.1809788339	-0.6899070807	-1.4245692434	-0.026565
O	 1.5948323453	-1.1010594906	-1.3652198129	-0.302318
C	 1.8503339972	 0.3531585838	-1.4259579803	-0.004202
C	 0.6576072056	 0.3996790845	-2.3905133548	 0.394848
C	 0.6457902437	 0.3700303294	-3.8569821998	-0.342394
N	 0.0276100249	 1.4933753177	-3.1000049911	-0.391354
H	-0.2963926499	 1.9684281087	 0.9313660087	 0.109877
H	-0.346659789	 2.1223866871	-0.8784709416	 0.137563
H	 1.9647161411	 0.8337878468	 0.7887740035	 0.097453
H	-0.3240393637	-0.5506798832	 0.7855384062	 0.097012
H	-0.5037100759	-1.4922837824	-1.6994492902	 0.079311
H	 2.8688568308	 0.6121709331	-1.7101318797	 0.084165
H	 1.532861279	 0.640544232	-4.4227679691	 0.125387
H	-0.0078950986	-0.3436162365	-4.3521874084	 0.117141
H	-0.9856271945	 1.3955402489	-3.0868207135	 0.234602
198.4273	237.5045	278.2452	384.5085	419.6287	486.001	606.828	655.9213	690.6906	763.8376	805.7849	826.4729	847.2119	861.4534	890.0263	913.1683	917.0559	965.3691	972.9133	990.9129	1010.3568	1044.2011	1061.7077	1090.22	1095.0303	1098.9273	1132.1324	1180.615	1184.6301	1234.97	1242.9361	1256.0338	1264.6826	1277.3083	1317.2871	1360.7885	1454.5373	1490.8048	1529.0036	3107.6131	3123.5703	3138.8998	3141.0072	3185.6545	3192.6069	3194.2173	3237.3404	3487.4676
C1C2C1C1OC2C11CN1	C1[C@H]2[C@@H]1[C@@H]1O[C@H]2[C@]21CN2	
InChI=1S/C7H9NO/c1-3-4(1)6-7(2-8-7)5(3)9-6/h3-6,8H,1-2H2	InChI=1S/C7H9NO/c1-3-4(1)6-7(2-8-7)5(3)9-6/h3-6,8H,1-2H2/t3-,4+,5+,6-,7-
