19
gdb 112049	2.31756	1.59947	1.05666	1.7261	77.35	-0.2444	0.0108	0.2552	1168.707	0.158405	-423.000074	-422.991446	-422.990502	-423.034284	32.026	
C	 0.0527276373	 1.5265869692	-0.1622629771	-0.235762
O	-0.2315770958	 0.1475913837	-0.2258195938	-0.246117
C	 0.6186455644	-0.5751385079	-1.107089835	 0.010055
C	 1.9791240957	-0.9045368775	-0.5360675153	-0.09199
C	 2.2313546709	-2.2125876978	-0.5500773459	-0.073711
C	 1.0995237048	-3.0211412447	-1.1288670084	-0.354827
C	 0.0240735287	-1.9633159442	-1.3926670047	 0.404213
C	-1.4144288564	-2.2192773262	-1.2826186218	-0.227048
O	-0.7835440008	-2.0991826042	-2.5629056392	-0.284142
H	 1.0428776638	 1.7329422537	 0.2706953582	 0.105876
H	 0.0081010713	 1.9963366886	-1.1574149469	 0.107712
H	-0.7062208808	 1.9826894584	 0.4782292827	 0.127956
H	 0.7021195232	-0.0150927051	-2.0540221393	 0.082399
H	 2.6598950725	-0.1401720775	-0.1802392344	 0.099218
H	 3.149980918	-2.672926331	-0.2022308236	 0.100646
H	 1.3795279598	-3.5117575259	-2.0696888059	 0.127517
H	 0.7595368585	-3.8132997437	-0.4508100934	 0.114258
H	-1.7576253033	-3.220792077	-1.0238411353	 0.106642
H	-2.0774404117	-1.403573191	-1.0073954107	 0.127104
31.2349	90.517	185.5219	200.3018	275.2515	313.2514	327.8555	412.0134	474.884	499.7681	562.347	717.2682	771.2652	817.627	854.3581	931.8234	941.3093	971.1396	981.1326	988.7107	1014.3872	1054.1929	1122.3978	1133.2668	1152.1063	1161.5844	1177.1483	1183.303	1219.4888	1222.1802	1288.3104	1294.8367	1360.314	1388.3689	1420.1208	1477.6968	1478.6376	1491.8338	1509.7202	1527.6156	1686.833	2957.401	2976.601	3023.45	3026.2046	3055.1505	3087.2299	3112.5111	3182.9388	3188.6378	3209.8122
COC1C=CCC11CO1	CO[C@H]1C=CC[C@]21CO2	
InChI=1S/C7H10O2/c1-8-6-3-2-4-7(6)5-9-7/h2-3,6H,4-5H2,1H3	InChI=1S/C7H10O2/c1-8-6-3-2-4-7(6)5-9-7/h2-3,6H,4-5H2,1H3/t6-,7+/m0/s1
