20
gdb 87913	3.75307	1.05382	0.95664	3.916	80.64	-0.2283	0.0378	0.2661	1298.4417	0.171689	-403.190256	-403.181543	-403.180599	-403.223642	33.496	
C	-0.0653816518	 1.5355214431	-0.0738919692	-0.407683
C	 0.006046772	 0.0286686414	 0.0413351632	-0.065395
C	 1.3083287351	-0.720168839	-0.1987558646	-0.345292
C	 0.703226629	-0.6491285944	 1.1852376325	 0.38234
C	 1.370775037	 0.0876827474	 2.3507930494	-0.285974
C	 1.6478205982	-1.0255612613	 3.3778931054	-0.339554
C	 0.6400360374	-2.12936633	 3.0361803325	 0.400239
O	 0.3452203883	-3.0951173713	 3.7051421735	-0.381013
N	 0.137365714	-1.8209321199	 1.799533963	-0.361481
H	 0.8495902795	 2.0097251666	 0.2940190144	 0.118246
H	-0.1972345279	 1.8406909483	-1.1175112965	 0.12205
H	-0.9046971594	 1.9415556658	 0.5013845828	 0.122435
H	-0.8853753535	-0.4848675334	-0.3146932898	 0.083869
H	 1.2671136876	-1.665959305	-0.7291813867	 0.11085
H	 2.2014832894	-0.1336882444	-0.3943431267	 0.112719
H	 2.2699860029	 0.6230485527	 2.0411412365	 0.109596
H	 0.6736266955	 0.8210778729	 2.7705747261	 0.115352
H	 2.6529048961	-1.4478151123	 3.2670261889	 0.131102
H	 1.5371240535	-0.7145516549	 4.4177859877	 0.129508
H	-0.4851037229	-2.4558930524	 1.3253115077	 0.248086
75.8897	119.5292	175.0262	197.9874	232.6732	324.2078	411.6663	443.4443	465.7365	495.1595	541.9231	568.6948	648.1187	752.1243	822.3616	831.8483	873.1697	908.7185	931.1218	942.2151	992.8749	1018.3226	1034.0679	1063.1212	1092.6337	1130.0947	1173.2185	1191.2956	1202.7525	1247.2736	1275.7864	1302.4094	1317.3228	1343.9907	1396.1064	1420.6413	1446.0552	1469.709	1490.753	1492.463	1501.7709	1510.1716	1831.4488	3030.7301	3047.8597	3055.873	3092.3458	3100.2342	3111.0486	3119.1358	3124.7826	3125.503	3208.2751	3640.9554
CC1CC11CCC(=O)N1	C[C@H]1C[C@]21CCC(=O)N2	
InChI=1S/C7H11NO/c1-5-4-7(5)3-2-6(9)8-7/h5H,2-4H2,1H3,(H,8,9)	InChI=1S/C7H11NO/c1-5-4-7(5)3-2-6(9)8-7/h5H,2-4H2,1H3,(H,8,9)/t5-,7-/m0/s1
