24
gdb 116804	3.63726	0.56773	0.51889	2.8181	90.62	-0.241	0.0281	0.2691	2219.1854	0.214391	-405.54786	-405.536114	-405.53517	-405.586493	40.553	
C	 0.2193460542	 0.8212964343	-0.691305763	-0.250378
O	-0.4489548594	 0.1710866068	 0.380065403	-0.196518
C	-1.2576059872	-0.8536998343	 0.022193253	 0.131287
N	-1.8931518199	-1.4842879778	 0.9027179797	-0.231897
C	-2.7643597211	-2.5935621497	 0.5523618017	-0.139132
C	-2.9647338832	-2.9427506133	-0.9292661643	-0.186136
C	-3.9767051133	-4.0799922585	-1.1697076731	 0.034963
C	-4.3172503496	-4.188335701	-2.6624032943	-0.390267
C	-3.4829944852	-5.4320232828	-0.6337272586	-0.382445
H	 0.8257323878	 1.6096997801	-0.2434437792	 0.144124
H	 0.8767548671	 0.1323469015	-1.2367727439	 0.123146
H	-0.4895523588	 1.2738311391	-1.3963412172	 0.123218
H	-1.2779136313	-1.041956599	-1.059109491	 0.073322
H	-2.386750108	-3.4697147013	 1.0947388222	 0.113356
H	-3.7451334742	-2.381535274	 1.0013279355	 0.109
H	-3.3149996708	-2.0480295592	-1.4613666193	 0.091288
H	-2.0038576219	-3.2202426529	-1.3859474718	 0.091252
H	-4.9017652856	-3.8205745399	-0.6339595533	 0.07355
H	-3.4266783631	-4.4412240687	-3.2506386882	 0.110156
H	-5.063974909	-4.9687951275	-2.8425594832	 0.109839
H	-4.7158273003	-3.2454185711	-3.0513734762	 0.108513
H	-2.544802176	-5.7241493754	-1.1213346202	 0.110882
H	-3.3056764272	-5.4126213366	 0.4451980341	 0.118155
H	-4.2170622542	-6.2202110986	-0.8312701826	 0.110723
33.4696	46.4286	91.3719	107.6762	128.5581	156.8574	204.5303	226.4045	251.1606	283.7412	290.2289	376.971	411.2351	436.6788	498.7276	610.1696	762.9687	836.9642	927.9886	945.7311	961.8515	972.7575	1005.3312	1009.9443	1041.1052	1081.8097	1143.7827	1169.2542	1177.7224	1178.6008	1193.8405	1256.1796	1272.2106	1296.3761	1330.0702	1364.3142	1373.0678	1396.2663	1401.8451	1418.8946	1422.4603	1476.0893	1484.596	1489.0298	1491.8889	1494.1525	1499.5284	1502.0325	1505.1397	1511.6294	1782.0127	2993.6259	2998.7829	3005.9661	3011.6416	3022.3208	3028.2323	3029.564	3035.4878	3051.9222	3068.1398	3086.666	3093.0552	3098.4026	3110.211	3140.8923
COC=NCCC(C)C	COC=NCCC(C)C	
InChI=1S/C7H15NO/c1-7(2)4-5-8-6-9-3/h6-7H,4-5H2,1-3H3	InChI=1S/C7H15NO/c1-7(2)4-5-8-6-9-3/h6-7H,4-5H2,1-3H3
