14
gdb 129699	3.44968	1.19284	0.91545	1.9651	66.94	-0.2234	-0.0104	0.213	1191.3219	0.102009	-466.163477	-466.15518	-466.154236	-466.197566	29.105	
N	-0.5918153231	 1.1900417576	 0.470154132	-0.610159
C	-0.2548708457	-0.126982551	 0.1362365112	 0.22216
C	-1.0697349525	-1.1461072741	-0.3097990341	 0.333679
N	-0.2431667954	-2.2163336215	-0.4151507247	-0.229296
N	 1.0076214742	-1.9014334782	-0.0467972107	-0.122247
N	 0.9976281748	-0.6362214126	 0.2880778387	-0.244459
O	-2.3741052094	-1.2261486429	-0.6730139694	-0.219617
C	-3.297118402	-0.7788346918	 0.2428484306	 0.104891
N	-4.5059436799	-0.7563376801	-0.0928865128	-0.421148
H	 0.2349915456	 1.6778713127	 0.7962807229	 0.259537
H	-0.9877806007	 1.7018060357	-0.3108137869	 0.255386
H	-0.4657602066	-3.1442010268	-0.7403950473	 0.29116
H	-2.841139058	-0.4846542852	 1.1924425814	 0.13587
H	-5.0784127813	-0.4168488719	 0.6773906591	 0.244244
41.8981	82.5763	134.9163	198.5824	277.7491	292.1975	411.9673	433.4649	518.6587	552.9992	689.058	721.1132	731.3247	821.0563	829.5464	839.4943	998.5318	1024.1701	1042.1572	1093.5615	1119.9429	1234.9927	1261.3127	1286.3853	1365.5624	1380.4069	1406.8438	1529.7665	1644.9508	1669.6034	1754.0467	3093.2864	3514.8204	3524.5834	3603.3386	3651.8783
NC1=C(NN=N1)OC=N	Nc1c([nH]nn1)O[CH][NH]	
InChI=1S/C3H5N5O/c4-1-9-3-2(5)6-8-7-3/h1,4H,(H3,5,6,7,8)	InChI=1S/C3H5N5O/c4-1-9-3-2(5)6-8-7-3/h1,4H,(H3,5,6,7,8)
