25
gdb 119259	1.8637	1.08178	0.77392	0.9157	89.94	-0.2431	0.0826	0.3257	1639.7414	0.226548	-389.482105	-389.471069	-389.470125	-389.518886	40.37	
C	-1.8752367968	 1.4731706156	-1.43758801	-0.383714
C	-1.8273711739	-0.0535755129	-1.3435094156	-0.154915
C	-1.6728915227	-0.5604686908	 0.0962894132	-0.25354
C	-1.5970371796	-2.0738416333	 0.1902903322	 0.456816
C	-2.0164237955	-2.777767015	 1.4588637425	-0.334161
C	-2.8622695667	-2.8782145392	 0.2033639726	-0.312809
O	-0.5642891887	-2.6739197774	-0.5485139597	-0.295917
C	 0.7431966063	-2.4728255082	-0.0312881708	-0.049981
C	 1.70285377	-3.338731128	-0.8308951789	-0.38397
H	-1.9807982736	 1.8061569198	-2.4749183382	 0.11084
H	-2.7196129037	 1.8811701653	-0.8701694586	 0.110647
H	-0.9612498284	 1.9251308999	-1.0354361499	 0.110836
H	-2.7400371534	-0.4816580011	-1.7769258235	 0.096833
H	-0.9985191765	-0.4412345853	-1.9462409352	 0.107919
H	-0.777659005	-0.112300538	 0.549082839	 0.092552
H	-2.5184033246	-0.2170867767	 0.7053890116	 0.09201
H	-1.4550910164	-3.6604709774	 1.7441886298	 0.114117
H	-2.384532926	-2.1855982856	 2.2900178468	 0.108662
H	-3.8095209658	-2.350631341	 0.1708109967	 0.108134
H	-2.8440938115	-3.8200624261	-0.332266038	 0.120303
H	 1.034146482	-1.4141782082	-0.1083819888	 0.089144
H	 0.7721959782	-2.7412441189	 1.0357462914	 0.088119
H	 2.7280024545	-3.2039942505	-0.4727415894	 0.112482
H	 1.4364817201	-4.395453288	-0.7371129533	 0.12345
H	 1.6679987076	-3.0716187891	-1.8910233457	 0.126142
55.0019	72.0128	86.4589	134.6704	157.4112	195.9326	241.2157	246.424	304.5166	318.7129	348.1099	425.4736	442.3209	557.8861	738.6732	758.761	781.0641	821.3601	856.851	875.7434	889.0753	922.7422	958.1518	973.3271	992.0218	1044.5879	1051.6598	1075.4356	1087.3823	1110.5093	1128.5635	1149.3894	1188.8718	1189.8874	1241.8078	1285.3607	1298.4296	1300.6332	1328.9963	1355.1	1394.4521	1401.2549	1413.7473	1426.7348	1453.2906	1481.7957	1483.6424	1493.7291	1496.4732	1500.1664	1500.9481	1511.6599	1530.423	2980.3588	3007.8199	3014.4697	3026.2883	3031.8001	3043.5	3046.9295	3068.9844	3094.9259	3099.7151	3117.608	3119.8236	3130.3343	3136.3738	3214.7945	3230.4124
CCCC1(CC1)OCC	CCCC1(CC1)OCC	
InChI=1S/C8H16O/c1-3-5-8(6-7-8)9-4-2/h3-7H2,1-2H3	InChI=1S/C8H16O/c1-3-5-8(6-7-8)9-4-2/h3-7H2,1-2H3
