15
gdb 5020	3.33122	2.31228	1.37631	5.6235	72.26	-0.2059	-0.0127	0.1932	860.0381	0.121708	-358.888898	-358.881887	-358.880943	-358.919945	26.599	
C	 0.0061122971	 1.5042024523	-0.0539170088	-0.472777
C	-0.004194358	 0.0086280113	 0.0111535406	 0.251214
C	-1.131897742	-0.7050596195	 0.187142945	-0.093414
N	-1.0858419063	-2.0894151798	 0.240562495	-0.310056
C	 0.117723706	-2.7192826165	 0.1113302781	 0.093838
N	 1.2422120089	-2.1255871043	-0.0592326657	-0.318803
C	 1.2731430991	-0.7135657537	-0.1226747984	 0.263454
N	 2.362066282	-0.0567638662	-0.2903595743	-0.535348
H	 0.6553331635	 1.9142775719	 0.7264452902	 0.146226
H	 0.4325478142	 1.840405076	-1.004478985	 0.146207
H	-0.9991191076	 1.9210620069	 0.0579585215	 0.101783
H	-2.1130228728	-0.2587484482	 0.2945911624	 0.12492
H	-1.9268313058	-2.6255608042	 0.3713241022	 0.266801
H	 0.0780138582	-3.8063489502	 0.1623913817	 0.126144
H	 3.1346650534	-0.7220503259	-0.3617770145	 0.209809
108.8047	181.9431	272.4911	297.3257	392.4647	435.7145	474.2867	520.4317	556.0539	594.9175	741.4505	783.6634	871.9373	905.465	909.0243	961.158	1017.4488	1021.6955	1068.458	1085.6273	1212.5098	1225.751	1307.6713	1404.9965	1415.0687	1428.5229	1462.1544	1485.2894	1516.3934	1653.2718	1671.5089	1723.4381	3035.6379	3096.7253	3114.3945	3143.6282	3205.9615	3459.8757	3660.4125
CC1=CNC=NC1=N	CC1=CNCN=C1[NH]	
InChI=1S/C5H7N3/c1-4-2-7-3-8-5(4)6/h2-3H,1H3,(H2,6,7,8)	InChI=1S/C5H8N3/c1-4-2-7-3-8-5(4)6/h2,6-7H,3H2,1H3
