15
gdb 56095	4.30011	0.76994	0.65836	1.5239	69.38	-0.2869	-0.1003	0.1866	1598.1149	0.109476	-453.960626	-453.950994	-453.95005	-453.996713	32.283	
C	 0.0060637275	 1.4246446899	-0.1234698756	-0.443753
C	-0.0515429442	-0.0571508344	 0.0983575943	 0.416857
N	-0.1760394431	-0.5724293464	 1.2468522885	-0.507683
O	 0.0507820887	-0.702478385	-1.1116039979	-0.226038
C	 0.0169309117	-2.0998247082	-1.1143875714	-0.204534
C	 0.1444110904	-2.5916904422	-2.544752239	 0.28673
O	 0.2566136698	-1.901899498	-3.5187203688	-0.229121
C	 0.1177847574	-4.0683731122	-2.6453732913	 0.211722
N	 0.0954185315	-5.2225155766	-2.708630084	-0.286213
H	 0.9455159558	 1.6958196449	-0.6145300439	 0.148077
H	-0.8070246084	 1.7384443881	-0.7850092514	 0.148076
H	-0.0744144072	 1.9387179466	 0.8327946943	 0.153642
H	-0.200642963	-1.5906238927	 1.2463033048	 0.222526
H	 0.837787238	-2.5420422612	-0.526590117	 0.154855
H	-0.9222222347	-2.4990413726	-0.6979705617	 0.154857
43.5528	56.8037	95.7779	141.6304	168.3817	187.6614	278.042	283.6598	371.2862	500.4817	554.8363	584.2231	586.4156	621.0282	813.4482	866.9618	925.2964	996.5871	1017.4724	1072.2526	1076.5749	1103.4278	1164.831	1249.8302	1303.6416	1397.043	1415.9359	1472.5669	1476.3217	1476.6004	1745.8388	1826.6541	2340.4904	2978.2559	3010.4839	3054.827	3113.9055	3174.5196	3506.8862
CC(=N)OCC(=O)C#N	C[C]([NH])OCC(=O)C#N	
InChI=1S/C5H6N2O2/c1-4(7)9-3-5(8)2-6/h7H,3H2,1H3	InChI=1S/C5H6N2O2/c1-4(7)9-3-5(8)2-6/h7H,3H2,1H3
