20
gdb 92467	2.6566	1.69267	1.68102	1.7376	78.67	-0.2059	0.0079	0.2138	959.8751	0.173758	-403.135895	-403.128491	-403.127547	-403.167331	30.245	
C	 0.0507573278	 1.4595998212	-0.1197572667	-0.326011
N	-0.0232562304	 0.0167097288	 0.0337495197	-0.049266
C	-1.4005557678	-0.5067389522	-0.0310583218	-0.165301
C	-1.6033050786	-1.49010263	 1.1407785626	 0.046337
O	-0.627746143	-2.5400138951	 1.0030728836	-0.276597
C	 0.7033223736	-2.0291610416	 1.0726800631	-0.055974
C	 0.6592479446	-0.4984298429	 1.243557077	-0.078326
C	-0.1485952795	-0.2093658707	 2.4938983362	-0.074177
C	-1.3718169921	-0.7403286792	 2.4308950779	-0.071093
H	 1.0983998932	 1.7790891471	-0.1088107587	 0.113555
H	-0.3728968756	 1.7427629518	-1.0890490102	 0.120178
H	-0.4911454783	 2.0219473067	 0.6620673659	 0.09619
H	-2.1412738133	 0.3025993272	 0.0445401802	 0.088125
H	-1.565609269	-1.0311448769	-0.9806921979	 0.104577
H	-2.5774689197	-1.9774197409	 1.0854938769	 0.076598
H	 1.2285263229	-2.4961628747	 1.9161203639	 0.092334
H	 1.2249395709	-2.2765967099	 0.1398518493	 0.100952
H	 1.671925922	-0.090883533	 1.2751308599	 0.067232
H	 0.2437642781	 0.3562474134	 3.3321230886	 0.094439
H	-2.133728226	-0.6623862789	 3.1979918403	 0.096231
109.6502	234.4766	259.0762	313.2995	375.8815	387.6375	417.3867	449.9024	585.937	652.2195	696.8511	725.511	772.0292	840.6672	872.248	905.3198	954.8968	961.7961	992.7246	1013.299	1041.6485	1051.8239	1075.5914	1083.0118	1138.4476	1150.8192	1173.3044	1217.6845	1234.3072	1247.013	1298.6371	1315.6384	1332.7777	1335.4644	1377.8086	1388.6256	1398.5364	1455.9043	1483.9904	1504.5577	1508.0104	1509.7125	1671.7323	2941.2136	2992.686	3008.2594	3036.5616	3052.7741	3054.5482	3088.9639	3096.0217	3107.4805	3175.2237	3201.306
CN1CC2OCC1C=C2	CN1C[C@H]2OC[C@@H]1C=C2	
InChI=1S/C7H11NO/c1-8-4-7-3-2-6(8)5-9-7/h2-3,6-7H,4-5H2,1H3	InChI=1S/C7H11NO/c1-8-4-7-3-2-6(8)5-9-7/h2-3,6-7H,4-5H2,1H3/t6-,7-/m0/s1
