17
gdb 74249	3.19327	1.27731	1.04955	5.4939	78.63	-0.249	-0.003	0.246	1160.3949	0.137116	-380.869552	-380.861552	-380.860608	-380.902165	30.279	
C	-0.0745881951	 1.5208515721	 0.095498655	-0.500786
C	-0.0271853225	 0.0295133573	 0.013998514	 0.367551
C	 0.0614115609	-0.7271636186	-1.0830345676	-0.192348
C	 0.0665909371	-2.2209322293	-0.7676963391	-0.187768
C	 1.1889225162	-2.9450574846	-1.3708847986	 0.285874
N	 2.0555709025	-3.5284353967	-1.8646880288	-0.332402
C	 0.0753203286	-2.2456367063	 0.7681214255	-0.05759
N	 1.2520697779	-1.598186106	 1.3666984312	-0.314539
C	-0.023396094	-0.8403137668	 1.2352412284	-0.154202
H	 0.7876908323	 1.9064143231	 0.6529918067	 0.142782
H	-0.0747721746	 1.9789738212	-0.8965128561	 0.131898
H	-0.9719201408	 1.8596300058	 0.6281364487	 0.128938
H	 0.1533847755	-0.3647367467	-2.0996156246	 0.114654
H	-0.8546831247	-2.6931640985	-1.1374195804	 0.129649
H	-0.3989210005	-3.0733606909	 1.2819608785	 0.105047
H	 1.3493433682	-1.933877938	 2.3235393928	 0.237074
H	-0.5642241569	-0.5552167572	 2.1317741743	 0.096168
98.9664	133.0778	180.3623	203.7359	308.5812	338.3037	379.7799	491.9623	562.3269	587.3455	603.1998	757.2337	815.6123	832.9866	849.0769	875.1924	907.2243	941.6482	1004.566	1009.92	1053.4241	1059.723	1075.1227	1133.271	1163.0225	1195.2163	1239.7424	1270.9876	1286.3993	1317.7097	1379.3816	1412.3969	1416.8789	1478.0826	1486.5329	1710.3278	2359.7787	3009.6881	3023.1234	3072.3087	3119.5111	3165.6439	3183.8119	3209.7194	3484.1987
CC1=CC(C#N)C2NC12	CC1=C[C@@H](C#N)[C@H]2N[C@@H]12	
InChI=1S/C7H8N2/c1-4-2-5(3-8)7-6(4)9-7/h2,5-7,9H,1H3	InChI=1S/C7H8N2/c1-4-2-5(3-8)7-6(4)9-7/h2,5-7,9H,1H3/t5-,6-,7+/m0/s1
