21
gdb 106624	2.68348	1.36281	1.22025	1.6098	77.2	-0.2405	0.0774	0.3178	1145.1743	0.183424	-424.210347	-424.201898	-424.200954	-424.243212	33.449	
C	 0.0551178838	 1.5558077542	 0.0335659683	-0.387199
C	-0.0219815336	 0.0250956915	-0.0474964499	-0.30068
C	-1.4254016905	-0.537133206	 0.0119298339	 0.256715
C	-2.3500646818	-0.4712239955	 1.2733115146	-0.285664
C	-3.0933016637	-1.5913406885	 0.5205158831	 0.037783
O	-3.5861931026	-0.9495818747	-0.6765386563	-0.301027
C	-2.4438748403	-0.1393614284	-1.0662774576	-0.134173
C	-1.7115873157	-2.0933095553	 0.0502126369	 0.13242
O	-1.6413974383	-2.8580071736	-1.1148299771	-0.453958
H	 1.0956709677	 1.893893589	 0.0265909014	 0.11612
H	-0.4512948247	 2.0323526205	-0.8120138697	 0.11922
H	-0.4098145946	 1.9286619495	 0.9523610452	 0.119331
H	 0.4531372098	-0.3198311831	-0.975526759	 0.108453
H	 0.5638185806	-0.4104878136	 0.7718589172	 0.097745
H	-1.8555207628	-0.8172543003	 2.1834767485	 0.103488
H	-2.9061446998	 0.4499001517	 1.4578611422	 0.105666
H	-3.8746199074	-2.2203675599	 0.9439983328	 0.081054
H	-2.7192573276	 0.9200286324	-1.0487666247	 0.105537
H	-2.1208753418	-0.4099595665	-2.0783965088	 0.10049
H	-1.1273949085	-2.587814582	 0.8295841543	 0.085888
H	-2.4335978281	-2.6413679015	-1.6244635451	 0.292789
79.1303	151.5491	210.356	237.2297	277.797	313.5196	345.8283	471.089	472.3553	506.8727	587.531	645.5111	743.1576	783.7582	811.3556	846.9174	868.4478	898.3371	942.1399	946.7277	989.0084	992.1527	1017.9325	1060.72	1087.1504	1115.7775	1134.0886	1178.2249	1197.1463	1215.1736	1224.0374	1226.3395	1268.8718	1299.3501	1302.7999	1331.9612	1369.5271	1392.7181	1413.4068	1434.7331	1483.4045	1490.3739	1501.4514	1506.3818	1526.9967	3017.3972	3028.9531	3035.8696	3048.9223	3070.4972	3074.563	3094.9297	3103.4773	3106.6365	3135.2073	3139.0413	3759.0387
CCC12CC(OC1)C2O	CC[C@@]12C[C@@H](OC1)[C@H]2O	
InChI=1S/C7H12O2/c1-2-7-3-5(6(7)8)9-4-7/h5-6,8H,2-4H2,1H3	InChI=1S/C7H12O2/c1-2-7-3-5(6(7)8)9-4-7/h5-6,8H,2-4H2,1H3/t5-,6-,7-/m1/s1
