16
gdb 37021	3.23726	1.89891	1.63685	1.4616	71.62	-0.2376	0.0019	0.2395	856.4031	0.126907	-400.743063	-400.736853	-400.735909	-400.773232	26.06	
C	 0.0405332156	 1.4400428992	 0.0383981054	-0.368104
C	 1.3712024161	 0.7312437092	 0.0019362721	 0.337113
O	 1.9748633679	 0.461991255	 1.2627566557	-0.25462
C	 1.0999793354	-0.3927691491	 1.8743887683	 0.07141
N	 0.0448542931	-0.7618119006	 1.2611615004	-0.314825
C	 0.0814184476	-0.0707700677	-0.0112876906	 0.277758
C	-0.0052285956	-0.7894054244	-1.3512624955	-0.355199
C	 1.2769282987	-0.3412243378	-2.0443158271	-0.059675
C	 2.0455897662	 0.457418796	-1.2903410116	-0.183841
H	-0.2680169054	 1.8949119175	 0.9736389549	 0.12598
H	-0.2486196069	 1.9722539049	-0.8609991419	 0.123134
H	 1.390035296	-0.6910508339	 2.8749580105	 0.143153
H	-0.0353423433	-1.8768551367	-1.2155923398	 0.128976
H	-0.89619765	-0.5162672616	-1.9292198245	 0.117016
H	 1.5027630668	-0.6230631555	-3.067643412	 0.103362
H	 2.996484308	 0.8844095155	-1.5850633943	 0.108366
210.6555	262.2037	355.9347	406.2281	467.7669	548.6239	587.3489	615.03	672.2323	758.7616	807.3046	841.204	860.1613	915.9258	920.9	934.4326	936.7705	952.791	960.2859	989.2839	1049.3625	1088.8395	1099.3951	1134.5406	1172.161	1233.1418	1249.8679	1312.009	1333.7237	1351.405	1383.0317	1456.3256	1472.8469	1632.5198	1648.8621	3034.2817	3068.6975	3130.0738	3184.9384	3213.4276	3225.3738	3227.2713
C1C23OC=NC12CC=C3	C1[C@@]23OC=N[C@@]12CC=C3	
InChI=1S/C7H7NO/c1-2-6-4-7(6,3-1)9-5-8-6/h1,3,5H,2,4H2	InChI=1S/C7H7NO/c1-2-6-4-7(6,3-1)9-5-8-6/h1,3,5H,2,4H2/t6-,7+/m0/s1
