18
gdb 98332	1.84575	1.45653	0.85675	3.7426	74.8	-0.2567	0.0166	0.2733	1329.4315	0.145288	-439.086719	-439.076511	-439.075567	-439.122793	36.105	
C	 0.6409250841	 0.6180104759	 0.0033848868	-0.338366
N	-0.0175473164	-0.6755448459	 0.0432567882	-0.305129
C	-1.3535359331	-0.8187118605	-0.0762198269	 0.38718
O	-2.1425811642	 0.1132861701	-0.1810330334	-0.400125
C	-1.908376044	-2.2601452435	-0.0565671305	 0.017665
O	-3.3024905944	-2.1892026852	-0.118737284	-0.427067
C	-1.3962396058	-3.1217778503	-1.2447300747	-0.36159
C	-0.0036393711	-3.5352458842	-1.1307019315	 0.285018
C	 1.1453292026	-3.8685312167	-0.9974175267	-0.448647
H	 1.2448475928	 0.7310336059	-0.9039605218	 0.132517
H	-0.1323393761	 1.3861670365	 0.0119973733	 0.172033
H	 1.289845539	 0.7492824068	 0.8750746628	 0.131089
H	 0.548284335	-1.5120595295	 0.0406847161	 0.257998
H	-1.5891603446	-2.7456145726	 0.8783778484	 0.100073
H	-3.4908173232	-1.234421802	-0.1828356686	 0.296108
H	-2.0409282196	-4.0067112519	-1.2811027583	 0.154593
H	-1.5620178991	-2.5750774963	-2.1804512634	 0.142042
H	 2.1536548281	-4.1900366965	-0.9062014859	 0.204609
53.4897	60.1578	100.8243	122.891	153.6782	215.9224	288.5671	359.7545	379.6916	384.142	458.8243	493.5171	558.3027	574.4328	628.4411	654.8701	682.2939	746.0021	851.8783	965.8182	983.405	1037.6389	1058.6922	1149.3248	1152.6078	1178.3437	1188.3002	1270.8713	1286.9439	1318.1491	1371.114	1442.0948	1458.9664	1466.987	1497.8004	1501.8574	1593.1893	1762.2769	2227.2048	2988.6752	3033.2823	3040.5313	3080.8659	3088.6374	3160.0322	3501.4171	3595.2475	3606.0727
CNC(=O)C(O)CC#C	CNC(=O)[C@@H](O)CC#C	
InChI=1S/C6H9NO2/c1-3-4-5(8)6(9)7-2/h1,5,8H,4H2,2H3,(H,7,9)	InChI=1S/C6H9NO2/c1-3-4-5(8)6(9)7-2/h1,5,8H,4H2,2H3,(H,7,9)/t5-/m0/s1
