23
gdb 88683	3.14443	0.93198	0.85311	0.1045	87.73	-0.2311	0.0762	0.3073	1508.3888	0.204666	-384.430546	-384.420261	-384.419317	-384.466395	38.348	
C	-0.1362744099	 1.5824748113	-0.0981801954	-0.395565
C	-0.0461154597	 0.0828001113	 0.0525670616	 0.003734
N	 1.2667665421	-0.542265225	-0.178061372	-0.351981
C	 0.658709145	-0.6189403644	 1.1646259453	-0.016925
C	 1.3813554931	 0.0849781514	 2.267010769	-0.046256
N	 0.7892887672	-0.016241659	 3.6179777084	-0.383282
C	 2.1211998708	-0.6028364528	 3.3675452182	 0.326856
C	 2.1871713078	-2.1139998465	 3.4649430244	-0.43924
C	 3.3316499307	 0.1071627615	 3.9427204156	-0.454938
H	 0.7756471815	 2.0741407282	 0.2474138663	 0.125087
H	-0.2771065868	 1.8527675674	-1.1503538456	 0.117752
H	-0.9844741773	 1.9814041784	 0.4687484175	 0.117804
H	-0.9138474108	-0.4498522728	-0.3369387986	 0.079467
H	 1.1697050679	-1.4281091915	-0.665906842	 0.228888
H	 0.2182659168	-1.5670397742	 1.4631960251	 0.082204
H	 1.7949320977	 1.0473078235	 1.9734488026	 0.076912
H	 0.8751832692	 0.8715535924	 4.1071082838	 0.222956
H	 1.2548568285	-2.5790985997	 3.1409329353	 0.124389
H	 3.007067366	-2.5094875551	 2.8551060479	 0.115655
H	 2.3640384647	-2.4194927637	 4.5026320835	 0.11417
H	 3.4389599656	-0.111807245	 5.0120714873	 0.117362
H	 4.2529261938	-0.2166448368	 3.4458579523	 0.124698
H	 3.2518115763	 1.1928028012	 3.8243495195	 0.110254
25.0628	107.6236	145.9626	164.2673	184.8368	222.0046	241.3402	350.1729	364.0975	385.4002	411.377	438.3872	463.0246	557.6075	711.8229	779.9033	824.9028	846.9115	910.9254	930.8565	957.6726	972.994	981.8156	1002.6399	1009.3885	1041.4146	1077.4502	1083.7122	1121.2137	1142.3161	1158.8007	1170.6234	1241.5148	1259.1649	1283.4181	1302.7586	1344.983	1379.1461	1407.171	1412.7271	1422.0821	1443.9992	1477.1332	1481.7064	1489.2345	1493.7239	1499.6554	1505.063	1523.9921	3020.5214	3032.5566	3035.443	3083.6286	3090.2144	3094.4271	3097.4953	3097.7593	3124.6022	3129.4161	3133.9285	3144.3563	3491.476	3508.1687
CC1NC1C1NC1(C)C	C[C@H]1N[C@H]1[C@H]1NC1(C)C	
InChI=1S/C7H14N2/c1-4-5(8-4)6-7(2,3)9-6/h4-6,8-9H,1-3H3	InChI=1S/C7H14N2/c1-4-5(8-4)6-7(2,3)9-6/h4-6,8-9H,1-3H3/t4-,5-,6-/m1/s1
