18
gdb 116946	5.88335	0.49671	0.48223	2.4975	79.53	-0.2405	0.0259	0.2664	2272.1873	0.1444	-439.071864	-439.060859	-439.059915	-439.111637	36.439	
C	 0.3845514279	 1.3154988762	 0.2219719441	-0.217785
O	 0.3380509782	-0.0897043141	 0.1443364199	-0.229433
C	 0.2691030188	-0.5435454943	-1.1948819356	-0.204293
C	 0.2343988612	-1.9985379238	-1.2328987745	 0.024168
C	 0.2156616487	-3.1985081815	-1.3008143775	 0.16946
C	 0.1870179539	-4.6500886341	-1.3552202752	-0.489628
C	 1.3966333134	-5.263504026	-2.0910385978	 0.422785
N	 1.6752853233	-6.5462133868	-1.7081393584	-0.524694
O	 2.002470626	-4.6906125757	-2.9675315718	-0.33705
H	 1.2690010195	 1.7260540358	-0.2912560157	 0.105263
H	-0.5121848164	 1.7811652985	-0.2180329632	 0.103455
H	 0.436115166	 1.5794643607	 1.2806249028	 0.129325
H	-0.6274371505	-0.1326869495	-1.6920171525	 0.112119
H	 1.1391836106	-0.180236439	-1.7692883879	 0.120403
H	 0.1095226454	-5.061850811	-0.3409747845	 0.133161
H	-0.7106519546	-4.9936849906	-1.8882575243	 0.160244
H	 1.2811584046	-6.9549300432	-0.8790953496	 0.258766
H	 2.478022164	-6.9913737517	-2.1228612582	 0.263735
13.2737	19.0679	63.9702	92.7123	113.268	215.3857	230.0224	244.6963	306.7775	334.0837	379.8554	438.2918	498.3724	522.4004	607.8787	674.0253	821.0637	860.5015	943.1224	978.0315	1028.248	1090.2547	1138.9931	1182.459	1184.0911	1219.3074	1221.8682	1253.5717	1278.0101	1376.2469	1412.2393	1445.832	1477.9319	1484.1445	1495.9024	1516.717	1619.0343	1819.9063	2385.7902	2943.5561	2962.3678	2967.1635	3008.9085	3013.955	3047.8367	3118.5098	3600.3848	3734.3845
COCC#CCC(N)=O	COCC#CCC(=O)N	
InChI=1S/C6H9NO2/c1-9-5-3-2-4-6(7)8/h4-5H2,1H3,(H2,7,8)	InChI=1S/C6H9NO2/c1-9-5-3-2-4-6(7)8/h4-5H2,1H3,(H2,7,8)
