22
gdb 109430	2.17673	1.34114	1.03498	2.8263	83.7	-0.256	0.032	0.288	1298.0532	0.192356	-404.372701	-404.362601	-404.361657	-404.407454	37.722	
C	 0.1076631361	 1.6602754444	-0.0694180099	-0.388749
C	-0.1555947885	 0.1548652746	-0.1900187973	-0.203314
C	 0.7083917586	-0.4906541258	-1.2731172054	-0.174369
C	 2.1761469718	-0.7054439045	-0.9672885854	 0.434462
N	 3.1139682339	 0.0400920511	-0.5871678163	-0.553973
O	 2.1607627923	-2.0548092235	-1.2242711594	-0.294794
C	 0.7030836618	-2.0360978889	-1.5087166133	 0.390205
C	-0.0253552562	-2.9005751542	-0.4936611682	-0.432626
C	 0.4506824641	-2.4750516811	-2.9410201911	-0.43317
H	 1.162880239	 1.8491293478	 0.1451979969	 0.158568
H	-0.1440101182	 2.1801876105	-1.0005656288	 0.11138
H	-0.4952453916	 2.0982970792	 0.7316695398	 0.109084
H	 0.0366527719	-0.3258640972	 0.7752891565	 0.104803
H	-1.2129678346	-0.0238558101	-0.4239595029	 0.096645
H	 0.5750620511	 0.0511173037	-2.2160028885	 0.096525
H	 3.9792968645	-0.4898521891	-0.46566407	 0.222746
H	 0.2301828408	-2.6186198937	 0.5299548606	 0.129518
H	-1.1092842167	-2.8109466233	-0.6182306012	 0.122967
H	 0.2467339349	-3.9512369969	-0.6341478082	 0.126955
H	 0.7270366438	-3.5251234601	-3.0780431971	 0.127689
H	-0.6102626252	-2.3662790294	-3.1901864255	 0.122477
H	 1.0338787264	-1.8716524637	-3.6420365152	 0.126974
73.4584	102.0119	154.015	183.8455	209.67	230.3941	265.7742	304.0839	324.6899	347.9274	393.424	450.5027	537.0043	617.8246	659.1771	770.9705	816.1619	843.0241	869.2825	882.0354	937.6297	968.6219	988.2716	1006.0289	1033.5137	1066.0927	1103.5243	1140.8689	1152.7979	1200.5924	1259.0231	1271.9932	1301.8957	1310.8933	1348.5333	1387.3438	1405.049	1415.2668	1418.4883	1472.3409	1483.342	1487.1772	1494.9721	1498.7031	1506.0862	1513.1698	1811.3926	3023.1111	3035.5128	3036.1298	3043.3359	3048.118	3068.5495	3102.331	3105.7432	3112.1835	3118.3562	3125.8156	3129.8321	3466.5633
CCC1C(=N)OC1(C)C	CC[C@H]1[C]([NH])OC1(C)C	
InChI=1S/C7H13NO/c1-4-5-6(8)9-7(5,2)3/h5,8H,4H2,1-3H3	InChI=1S/C7H13NO/c1-4-5-6(8)9-7(5,2)3/h5,8H,4H2,1-3H3/t5-/m0/s1
