16
gdb 51056	4.66905	1.09434	1.06445	3.053	71.59	-0.224	-0.0225	0.2015	1136.7666	0.12275	-400.628143	-400.620646	-400.619702	-400.661248	27.909	
O	-0.3549265992	 0.8042214494	 0.9777758808	-0.240702
C	 0.0512569474	 1.105646807	-0.1143555581	 0.160297
C	 1.4268637115	 1.693963702	-0.3824514557	-0.426025
C	 1.367600977	 2.8706079115	-1.3013887037	 0.389113
C	 0.8543081352	 4.2855617413	-1.1618129398	-0.164246
C	 0.4324375692	 4.2114152188	-2.648932988	-0.048473
C	 1.8353397343	 3.9495396153	-3.0617980632	-0.047289
C	 2.3077349248	 4.0137394707	-1.5880910388	-0.184756
N	 0.9195999143	 2.7894293852	-2.7677533342	-0.213965
H	-0.5712229232	 0.9641669433	-1.0247431828	 0.09966
H	 1.8892936363	 1.9602801214	 0.5730187648	 0.129722
H	 2.0411587016	 0.9098043332	-0.8504480266	 0.136199
H	 0.486181716	 4.8276564137	-0.3025355707	 0.105328
H	-0.4280256694	 4.5725655557	-3.198937115	 0.102226
H	 2.3425640004	 4.0571608992	-4.0129744055	 0.101782
H	 3.2273402839	 4.3125450323	-1.1055005736	 0.101128
54.075	65.9263	144.7416	261.9156	347.0128	439.5809	619.9834	672.1746	743.447	774.1385	776.2856	807.2723	851.4461	852.1648	866.2143	892.5416	914.4399	953.894	985.6881	993.1484	1014.6063	1062.6564	1071.4977	1097.6515	1167.8197	1168.9479	1206.3913	1237.3418	1264.134	1299.9679	1321.4046	1421.4612	1434.8978	1452.547	1834.7957	2899.774	3005.1473	3093.5515	3177.6614	3191.873	3215.3996	3225.2818
O=CCC12C3C4C(C13)N24	O=CC[C@@]12[C@@H]3[C@H]4[C@@H]([C@H]13)N24	
InChI=1S/C7H7NO/c9-2-1-7-3-4(7)6-5(3)8(6)7/h2-6H,1H2	InChI=1S/C7H7NO/c9-2-1-7-3-4(7)6-5(3)8(6)7/h2-6H,1H2/t3-,4+,5-,6+,7+,8?
