21
gdb 109319	1.85425	1.59852	0.9603	0.5572	90.95	-0.2333	0.0251	0.2583	1300.871	0.181902	-349.944912	-349.935411	-349.934467	-349.979516	35.686	
C	 0.1908427484	 1.4483104124	-0.1966974545	-0.378264
C	-0.1295940185	-0.0251805221	 0.1117243881	-0.293175
C	 0.6132168389	-0.5618169528	 1.2974936864	 0.352221
C	 0.1043394733	-0.9931629714	 2.4522040495	-0.185929
C	 1.1562936362	-1.4232619316	 3.4440091568	-0.260871
C	 2.4256160294	-1.5333681748	 2.5687894695	-0.218648
C	 2.1468991559	-0.6170692218	 1.3398279485	-0.254948
C	 2.776196727	-1.0770348471	 0.1068487027	 0.328961
C	 3.2917622185	-1.4612548066	-0.9097563056	-0.476098
H	 1.2508726401	 1.5820780075	-0.4337458609	 0.126835
H	-0.3870596154	 1.7963548961	-1.0581780187	 0.113407
H	-0.0503322522	 2.0909869563	 0.6561949708	 0.11581
H	-1.2057243235	-0.1421626745	 0.2806571749	 0.09841
H	 0.1220169113	-0.6279204911	-0.7706809716	 0.116982
H	-0.956039526	-1.0007839609	 2.6839277577	 0.086528
H	 1.2733766633	-0.6728378897	 4.2393874526	 0.104733
H	 0.9155795566	-2.3666600253	 3.9467145196	 0.10393
H	 3.3449619006	-1.2574605824	 3.0903515413	 0.102625
H	 2.54115643	-2.5611258233	 2.2138902179	 0.117269
H	 2.5238081969	 0.3969396393	 1.5460270445	 0.107321
H	 3.751341629	-1.799695986	-1.8050230795	 0.1929
55.8483	93.697	136.2031	157.887	224.4351	233.5492	302.7174	350.4669	454.7199	496.0068	543.8218	615.1163	622.8861	632.2393	644.9807	793.2662	802.4164	839.2758	876.5827	927.3827	936.2202	976.3764	1007.9958	1046.1579	1055.8586	1079.8138	1098.5309	1154.2828	1196.8191	1230.9597	1259.1545	1274.5517	1295.9184	1317.8301	1332.6336	1352.5986	1362.0521	1406.2836	1477.7983	1484.5041	1498.8849	1500.1459	1507.4836	1719.9772	2230.7905	2975.9746	3001.9382	3022.2993	3036.4686	3052.0338	3065.1042	3067.645	3107.4399	3110.5903	3113.4438	3181.127	3504.4364
CCC1=CCCC1C#C	CCC1=CCC[C@H]1C#C	
InChI=1S/C9H12/c1-3-8-6-5-7-9(8)4-2/h1,7-8H,4-6H2,2H3	InChI=1S/C9H12/c1-3-8-6-5-7-9(8)4-2/h1,7-8H,4-6H2,2H3/t8-/m1/s1
