16
gdb 48645	2.59884	1.56493	1.30619	4.1221	70.13	-0.251	-0.0445	0.2064	1006.6981	0.124638	-437.87624	-437.868612	-437.867668	-437.908674	28.615	
O	-0.7737401829	 0.9575982077	 0.4885551193	-0.248991
C	 0.2596857008	 0.7902853404	-0.1114109881	 0.055573
C	 1.4085868846	 1.7385205456	-0.0512198091	 0.104065
C	 1.5825777377	 2.6951167783	 1.1564231984	-0.270914
C	 2.9244129035	 3.3867049688	 0.7289964489	-0.24308
C	 3.1506471272	 2.6694149259	-0.6279623346	-0.121595
N	 2.7829111661	 1.235048202	-0.373971113	-0.354393
C	 1.7319229395	 2.7531561209	-1.2190412373	 0.453841
O	 1.162221902	 3.2623070838	-2.1238794433	-0.290409
H	 0.4205936338	-0.0809110089	-0.7815051524	 0.094545
H	 0.7469908586	 3.3897525923	 1.2603904339	 0.137933
H	 1.6688822933	 2.1331857509	 2.0898267544	 0.117337
H	 2.8370365768	 4.4714487265	 0.625141519	 0.12506
H	 3.744785164	 3.1783752565	 1.4211783731	 0.113827
H	 4.0519987809	 2.8784302339	-1.2015498351	 0.102165
H	 3.2572331041	 0.8567056152	 0.447505366	 0.225038
77.3693	153.8454	195.3266	223.7898	249.2578	448.917	453.5652	499.7631	625.6326	654.9378	752.2773	771.7762	812.3185	847.5509	857.2735	897.5733	950.9574	1000.5852	1034.4862	1045.9618	1067.8278	1084.5585	1121.5441	1174.3801	1223.1196	1249.6015	1269.0614	1297.6046	1319.8257	1329.5231	1411.7112	1490.0981	1505.4068	1807.233	1944.8968	2910.6066	3059.3845	3073.576	3104.3531	3126.804	3142.0866	3443.4446
O=CC12CCC(N1)C2=O	O=C[C@@]12CC[C@@H](N1)C2=O	
InChI=1S/C6H7NO2/c8-3-6-2-1-4(7-6)5(6)9/h3-4,7H,1-2H2	InChI=1S/C6H7NO2/c8-3-6-2-1-4(7-6)5(6)9/h3-4,7H,1-2H2/t4-,6-/m1/s1
