16
gdb 86503	7.11143	0.61493	0.60713	5.4795	85.17	-0.2749	-0.0526	0.2223	1796.3673	0.123506	-400.720063	-400.71121	-400.710266	-400.754801	31.225	
C	-0.5913014847	 1.1798594127	 0.2349509704	-0.401598
C	 0.2667489237	-0.0515587053	 0.0470269559	 0.170701
C	 0.9138478413	-0.2982206534	-1.3344785033	-0.309921
C	 2.2582519542	-0.2504835944	-0.5568906544	-0.070481
O	 1.5776989053	 0.0889062164	 0.6694088134	-0.289117
C	 2.9952331916	-1.5026095622	-0.4712354782	 0.175966
C	 3.6067005209	-2.5430061754	-0.4034136827	-0.009775
C	 4.2930885997	-3.7206622672	-0.3315674466	 0.213134
N	 4.8763308526	-4.7238029499	-0.2744950982	-0.333554
H	-0.0993121	 2.0656895949	-0.1783932068	 0.123059
H	-1.5574846253	 1.0495794104	-0.2646336504	 0.124002
H	-0.7784504487	 1.3543126496	 1.2988901865	 0.137092
H	-0.2406146769	-0.9388448142	 0.4468081617	 0.092664
H	 0.6815992965	-1.2441447918	-1.8220130112	 0.130874
H	 0.7953276999	 0.5232440524	-2.0426674993	 0.123166
H	 2.9449511798	 0.5481827475	-0.8641481267	 0.123787
38.081	80.8959	114.7724	212.2996	235.7047	241.2107	334.1168	388.4505	479.17	521.4043	573.6447	594.6509	696.1276	741.3103	874.3847	887.0476	912.5962	960.5512	1004.7207	1058.8719	1087.113	1135.8461	1177.7002	1202.8822	1246.3633	1259.0071	1317.494	1353.4571	1392.224	1411.9997	1482.2736	1488.4065	1494.686	2261.6878	2397.0979	3021.9326	3027.2894	3035.5548	3090.142	3108.974	3116.3629	3154.571
CC1CC(O1)C#CC#N	C[C@H]1C[C@@H](O1)C#CC#N	
InChI=1S/C7H7NO/c1-6-5-7(9-6)3-2-4-8/h6-7H,5H2,1H3	InChI=1S/C7H7NO/c1-6-5-7(9-6)3-2-4-8/h6-7H,5H2,1H3/t6-,7-/m0/s1
