14
gdb 16779	3.60493	2.14109	1.47215	0.9822	64.45	-0.257	-0.0173	0.2397	814.7906	0.10995	-378.766469	-378.760198	-378.759254	-378.796834	24.534	
N	-0.1164958042	 1.300113334	-0.0715217578	-0.539242
C	-0.0348047552	 0.0369577299	 0.0135491207	 0.393263
N	 1.0997427427	-0.7755366944	 0.1293279842	-0.373372
C	 0.8570380814	-2.1424784433	-0.0234091809	 0.419262
O	 1.7069020802	-2.9924118437	-0.1139047782	-0.357829
C	-0.6381850734	-2.2973531737	-0.0579825796	-0.165613
C	-1.3511403187	-1.7973827789	 1.1794545832	-0.28473
C	-1.20709206	-0.8920373744	-0.0194114413	-0.085807
H	 0.8024248139	 1.7449368316	-0.039598976	 0.21289
H	 2.0409136276	-0.4200399252	 0.2040016152	 0.260716
H	-1.053641732	-3.1087837848	-0.6391641812	 0.12357
H	-2.3388880586	-2.2044079697	 1.3623642239	 0.135067
H	-0.7715658687	-1.5885446993	 2.0717983478	 0.137385
H	-2.081888105	-0.5836389181	-0.5741902999	 0.124441
136.2401	207.5573	316.6692	375.8076	495.4879	558.5932	598.9801	631.9213	718.3511	760.7331	813.1088	818.9575	862.3808	874.098	941.9656	967.4168	1001.7351	1061.0312	1077.0879	1097.765	1115.3065	1188.7758	1217.6441	1325.3607	1339.7195	1357.5786	1387.9432	1488.7703	1764.0289	1853.1747	3140.8603	3217.1906	3222.0296	3233.949	3460.5881	3633.4679
N=C1NC(=O)C2CC12	[NH][C]1NC(=O)[C@H]2C[C@@H]12	
InChI=1S/C5H6N2O/c6-4-2-1-3(2)5(8)7-4/h2-3H,1H2,(H2,6,7,8)	InChI=1S/C5H6N2O/c6-4-2-1-3(2)5(8)7-4/h2-3H,1H2,(H2,6,7,8)/t2-,3+/m1/s1
