17
gdb 17409	4.66176	1.51227	1.47613	2.5749	68.28	-0.2346	0.0788	0.3134	924.3077	0.141615	-363.794034	-363.786767	-363.785822	-363.825375	27.896	
C	-0.0512023727	 1.5384337082	-0.0652130661	-0.417083
C	-0.0650273451	 0.0389348671	 0.0771801864	-0.032599
O	 1.2045811079	-0.6353693284	-0.0523554512	-0.296424
C	 0.5596480475	-0.6550511265	 1.2063782252	 0.442505
C	 1.2678868045	-0.1838407539	 2.4814912005	-0.259286
N	 0.9796948062	-1.5018937046	 3.1636020784	-0.124188
C	-0.4869102603	-1.6261677011	 3.1860164586	-0.239155
C	 0.2145734191	-1.9387746992	 1.9213295253	-0.133999
H	 0.7659521216	 1.9785572376	 0.5124078331	 0.127849
H	 0.0775319317	 1.8259571764	-1.1138253812	 0.133035
H	-0.9971077172	 1.9647645384	 0.28635262	 0.122811
H	-0.8801920003	-0.4740795785	-0.4371546834	 0.090801
H	 2.3429154701	-0.0662689103	 2.330174211	 0.131068
H	 0.8692277409	 0.6879588799	 3.011470821	 0.106249
H	-0.8345125792	-2.459164007	 3.7896198073	 0.126394
H	-1.0967408785	-0.7270918506	 3.2578949802	 0.111519
H	 0.3007956541	-2.9368038273	 1.5053631652	 0.110504
118.9656	170.2193	189.9321	242.8838	400.6846	426.2517	454.6655	505.4087	560.0583	744.8441	786.1142	794.0395	835.3169	914.1962	935.2203	968.4	995.7922	1034.6419	1047.4769	1091.5962	1105.297	1114.3646	1132.3824	1145.3763	1195.0594	1201.7903	1227.6274	1272.7195	1320.4435	1362.245	1408.512	1473.9132	1483.5156	1490.5023	1501.4365	1530.3947	3036.181	3045.1461	3087.6408	3097.9978	3100.9838	3118.4172	3123.7187	3174.5979	3194.7415
CC1OC11CN2CC12	C[C@H]1O[C@]21CN1C[C@@H]21	
InChI=1S/C6H9NO/c1-4-6(8-4)3-7-2-5(6)7/h4-5H,2-3H2,1H3	InChI=1S/C6H9NO/c1-4-6(8-4)3-7-2-5(6)7/h4-5H,2-3H2,1H3/t4-,5+,6+,7?/m1/s1
