13
gdb 129850	3.25902	1.43118	0.99451	4.517	66.2	-0.2298	-0.0552	0.1746	1078.4268	0.089238	-489.905257	-489.897435	-489.896491	-489.93768	29.168	
N	 0.0275094684	 1.3220782788	-0.0571272745	-0.573553
C	-0.060106461	-0.0219666529	-0.0271362294	 0.23889
C	-1.1826516315	-0.7900332844	-0.0254515734	-0.308928
C	-1.0057004327	-2.2016890443	 0.0307334047	 0.465691
O	-2.1280638493	-2.9494883975	 0.0359094071	-0.410898
N	 0.1188558022	-2.8454113072	 0.0782222728	-0.232652
O	 1.2758955262	-2.0417069283	 0.0691494633	-0.253143
C	 1.2624232233	-0.6930036898	 0.0180385847	 0.457009
O	 2.3036873128	-0.0765674333	 0.0070747383	-0.365486
H	 0.9544214189	 1.7147127274	-0.1135566815	 0.285775
H	-0.7791524103	 1.9082835637	-0.1719544481	 0.27035
H	-2.1857649147	-0.3836097102	-0.0606312504	 0.116732
H	-1.8504328523	-3.876236802	 0.0763726463	 0.310213
92.826	140.2517	187.4422	315.9605	342.764	379.238	441.3787	481.1587	502.1081	513.8376	566.4157	605.3097	686.0897	698.2253	792.3585	811.2114	849.7893	964.4694	1043.0345	1101.8772	1195.9512	1218.7286	1297.9286	1419.3053	1487.0514	1596.0976	1637.818	1703.3978	1797.5401	3205.9633	3596.2658	3741.0308	3757.9496
NC1=CC(O)=NOC1=O	Nc1cc(O)noc1=O	
InChI=1S/C4H4N2O3/c5-2-1-3(7)6-9-4(2)8/h1H,5H2,(H,6,7)	InChI=1S/C4H4N2O3/c5-2-1-3(7)6-9-4(2)8/h1H,5H2,(H,6,7)
