17
gdb 18256	4.25202	1.60409	1.3256	2.0189	68.6	-0.2357	0.0064	0.242	934.7658	0.143923	-363.831	-363.823798	-363.822853	-363.862479	27.739	
O	 0.1045958459	 1.4311403588	 0.0564038547	-0.423307
C	 0.0413718073	 0.0140747933	 0.1410447974	-0.079802
C	-1.3960034594	-0.5256791297	 0.0281424775	-0.03864
C	-2.0823269446	-0.2044302938	-1.288972076	-0.098255
C	-2.5429429766	-1.2926313685	-1.9105115892	-0.054965
C	-2.1969903659	-2.5214713382	-1.1377379375	-0.084952
N	-0.7211117833	-2.7207775329	-1.022223351	-0.331012
C	-1.4669262221	-2.0540593763	 0.0713192315	-0.070475
H	 0.0093196546	 1.6733200428	-0.8692872534	 0.284135
H	 0.666062845	-0.4704563438	-0.6189755573	 0.114222
H	 0.4487358714	-0.2453515165	 1.1243604284	 0.103076
H	-1.9705541528	-0.0980261719	 0.8616849685	 0.085288
H	-2.1642136788	 0.8102084523	-1.6634910793	 0.09211
H	-3.0686521383	-1.3109367817	-2.8576834015	 0.098044
H	-2.8387542479	-3.3958743229	-1.1394546781	 0.089557
H	-0.5465963345	-3.6842527017	-0.7396515848	 0.227211
H	-1.54894815	-2.5624807293	 1.02596687	 0.087766
95.5494	162.1101	194.1553	299.8105	344.7016	422.4422	469.9843	580.4867	704.179	756.5637	791.5537	802.9063	854.6238	864.8508	913.0912	948.2249	971.2098	975.885	1037.6798	1065.2604	1085.3043	1093.1923	1117.1208	1152.5282	1164.262	1191.775	1241.4695	1294.0975	1315.9181	1336.197	1386.5304	1394.1655	1403.6814	1419.6152	1508.0378	1662.8426	3009.4807	3029.1522	3079.3196	3162.1221	3172.5845	3184.5594	3212.9516	3472.262	3830.5958
OCC1C=CC2NC12	OC[C@H]1C=C[C@H]2N[C@@H]12	
InChI=1S/C6H9NO/c8-3-4-1-2-5-6(4)7-5/h1-2,4-8H,3H2	InChI=1S/C6H9NO/c8-3-4-1-2-5-6(4)7-5/h1-2,4-8H,3H2/t4-,5-,6+/m1/s1
