17
gdb 7970	3.88544	1.65352	1.18563	4.4373	72.86	-0.2322	-0.0208	0.2114	1013.1957	0.1422	-363.922029	-363.913821	-363.912877	-363.954641	29.349	
C	-0.0612920238	 1.3913339643	 0.0202243015	-0.340577
N	-0.0167772603	-0.0479013467	 0.0213887816	-0.097141
C	-1.1798184175	-0.8992316955	 0.0029251044	-0.25498
C	-0.5939846287	-2.2947927862	 0.0128554504	 0.316719
C	-1.4591249722	-3.5110394488	-0.0009306746	-0.489054
C	 0.7395443917	-2.2040579875	 0.0342996917	-0.319101
C	 1.1596975236	-0.7753704313	 0.0405634356	 0.427202
O	 2.2823929074	-0.3092633965	 0.0584824918	-0.406461
H	 0.9717094613	 1.7449573841	 0.0375032816	 0.165383
H	-0.5576613708	 1.7816857162	-0.8778271563	 0.118001
H	-0.5876232772	 1.7821177834	 0.900845234	 0.117995
H	-1.8299638176	-0.7299655247	 0.8760612693	 0.118258
H	-1.8014322909	-0.7306498161	-0.8908939895	 0.118257
H	-2.098488949	-3.5323769831	-0.8921484912	 0.135736
H	-0.8603816447	-4.4246795501	 0.0110752212	 0.137633
H	-2.1302020876	-3.5299088966	 0.8666911634	 0.135659
H	 1.4582291163	-3.0115869549	 0.046172025	 0.116471
101.2055	140.8357	156.5758	204.9987	217.5613	257.952	314.9626	446.4319	504.7394	547.1496	685.463	729.9121	799.0211	873.0086	895.1607	976.0637	1001.288	1044.0165	1077.3029	1140.5539	1151.1434	1165.7095	1199.7621	1251.4816	1317.3311	1339.1775	1411.7129	1423.1634	1445.6564	1479.8732	1484.3335	1493.0393	1493.0809	1527.6638	1698.8836	1801.2655	2977.2703	2996.1454	3006.2394	3023.8814	3050.6058	3071.2213	3123.067	3135.5959	3237.1875
CN1CC(C)=CC1=O	CN1CC(=CC1=O)C	
InChI=1S/C6H9NO/c1-5-3-6(8)7(2)4-5/h3H,4H2,1-2H3	InChI=1S/C6H9NO/c1-5-3-6(8)7(2)4-5/h3H,4H2,1-2H3
