16
gdb 50403	2.68754	1.38543	1.18258	4.2086	72.93	-0.2267	-0.044	0.1827	1071.4824	0.125025	-437.927737	-437.919825	-437.91888	-437.960677	29.403	
O	-0.1759527431	 0.0021737453	-0.345797742	-0.244041
C	-0.0642883509	 1.1653959172	-0.0648477561	 0.169552
C	 1.2804493368	 1.8900326889	 0.0630226551	-0.119345
C	 1.355700577	 2.7615742689	 1.3268056125	-0.339146
C	 1.6382914387	 1.9630261021	 2.6096503462	 0.369199
O	 1.2658483098	 2.3802519444	 3.6912344265	-0.352091
C	 2.4248198501	 0.7575295939	 2.4135692711	-0.212844
C	 2.7573547045	 0.3334825352	 1.1702502977	 0.028186
N	 2.3932787763	 0.9592804172	 0.006180402	-0.271722
H	-0.9508312349	 1.8235887013	 0.0804525876	 0.093264
H	 1.3239904945	 2.5530810792	-0.8146972126	 0.119095
H	 2.1691376632	 3.4879101125	 1.2120458658	 0.139944
H	 0.4325648262	 3.3319041125	 1.4604325805	 0.130554
H	 2.7659397451	 0.2172544151	 3.2869728789	 0.103808
H	 3.3767999377	-0.5470197408	 1.0273583214	 0.128391
H	 2.3812816491	 0.3572281971	-0.8044749543	 0.257195
70.4522	111.5508	147.0108	252.9425	325.9014	411.8402	434.2579	475.4107	548.1513	576.0356	623.2356	696.0836	755.1491	799.5752	819.632	874.4394	934.0597	987.4356	1033.6553	1042.1792	1048.3375	1128.8197	1209.7164	1220.131	1253.3634	1295.534	1337.9474	1353.9773	1405.4061	1430.9928	1457.0869	1522.9371	1664.8563	1765.3173	1835.7611	2881.5145	2994.5676	3044.5188	3104.3597	3179.2722	3221.8575	3604.2265
O=CC1CC(=O)C=CN1	O=C[C@H]1CC(=O)C=CN1	
InChI=1S/C6H7NO2/c8-4-5-3-6(9)1-2-7-5/h1-2,4-5,7H,3H2	InChI=1S/C6H7NO2/c8-4-5-3-6(9)1-2-7-5/h1-2,4-5,7H,3H2/t5-/m1/s1
