16
gdb 72216	3.47834	1.66771	1.38813	1.236	67.53	-0.2349	0.0158	0.2506	918.3627	0.126339	-437.860475	-437.853742	-437.852797	-437.891208	27.459	
O	-0.1146302737	 1.4183081884	-0.0288878169	-0.456304
C	 0.0239555348	 0.047426557	-0.0556892692	 0.370593
C	 0.7748380023	-0.7359804356	-1.1329114368	-0.329382
C	-0.2996987463	-1.8613374746	-0.9831145931	 0.095411
O	 0.2027313048	-3.066474133	-0.3891477286	-0.232317
C	 0.7089158741	-2.9052983883	 0.8576990672	 0.120187
N	 0.6116737802	-1.8951993268	 1.618504085	-0.273142
C	-0.220660576	-0.8175075999	 1.1711389456	-0.066009
C	-1.1117742147	-0.9697843461	-0.0396846893	-0.180533
H	 0.6290481513	 1.7913344161	 0.4579826503	 0.292139
H	 0.7062680124	-0.2425285024	-2.1053629911	 0.117265
H	 1.8113710553	-1.026031932	-0.9373956152	 0.109676
H	-0.7878049645	-2.1711798439	-1.9047223478	 0.102109
H	 1.2467433986	-3.7972891434	 1.1712265319	 0.124963
H	-0.6551829708	-0.2460631023	 1.9850084722	 0.10463
H	-2.1861540076	-0.849462103	-0.0202528841	 0.100714
204.3466	228.7422	284.5912	325.7421	411.0696	436.8971	517.9512	564.2632	602.1789	652.5403	751.7944	803.3203	835.6337	912.8946	936.1286	945.0094	960.6176	977.7227	986.3731	1030.0638	1061.3856	1080.2108	1148.6913	1167.0563	1203.5065	1206.317	1233.8174	1296.5393	1306.2428	1329.8637	1361.3507	1411.2335	1442.747	1490.6888	1703.9648	3055.8699	3115.2516	3137.1742	3165.0828	3169.3303	3210.1518	3791.9078
OC12CC3OC=NC1C23	O[C@@]12C[C@H]3OC=N[C@@H]1[C@@H]23	
InChI=1S/C6H7NO2/c8-6-1-3-4(6)5(6)7-2-9-3/h2-5,8H,1H2	InChI=1S/C6H7NO2/c8-6-1-3-4(6)5(6)7-2-9-3/h2-5,8H,1H2/t3-,4+,5-,6-/m1/s1
