18
gdb 108777	2.84453	1.2281	0.8844	7.3376	78.62	-0.2163	-0.0103	0.206	1291.4105	0.148672	-439.13793	-439.12909	-439.128146	-439.171713	32.185	
C	-0.1049559178	 1.4443329764	 0.1204409724	-0.325488
N	-0.0425198602	 0.0072688706	-0.0351539109	-0.351052
C	 0.6245261049	-0.6097617765	-1.0439859563	 0.391545
C	 1.2699685126	 0.0324968856	-2.0517484172	-0.365472
C	 1.8374672683	-0.6754762375	-3.1937786627	 0.42027
O	 2.2155677628	-0.1440503627	-4.2087333579	-0.360944
O	 1.9095687634	-2.0495697739	-3.1123162908	-0.241169
C	 1.7969827219	-2.6374677999	-1.8211935923	-0.074901
C	 0.5845154186	-2.1166935179	-1.0578182213	-0.324949
H	 0.889844119	 1.885097697	 0.2689875608	 0.137619
H	-0.5534974835	 1.9109077784	-0.7641829063	 0.146965
H	-0.7242754237	 1.682613315	 0.9867817011	 0.131731
H	-0.3734286018	-0.5623783613	 0.7235064331	 0.247725
H	 1.3068341721	 1.1108542237	-2.124112946	 0.097581
H	 1.7288414303	-3.7154115921	-1.9864888164	 0.118265
H	 2.7101809498	-2.4343561085	-1.2445798891	 0.108779
H	 0.5935637716	-2.5189271046	-0.0372791961	 0.106428
H	-0.3440752084	-2.4568140719	-1.5336322743	 0.137065
86.7772	123.5521	143.6151	187.0111	216.7363	253.1241	296.2049	390.5134	475.3893	502.7904	531.0628	584.7995	685.7369	748.4428	802.6631	848.1762	885.7514	932.8939	1006.3675	1065.0865	1083.1915	1114.556	1156.789	1178.5978	1222.7007	1230.4598	1283.923	1315.0902	1329.3632	1385.5773	1427.5662	1461.9199	1463.897	1479.1592	1504.9165	1516.7925	1551.9136	1672.2741	1814.3086	3010.603	3011.8308	3024.463	3065.15	3066.4047	3099.1397	3133.2599	3223.5406	3665.1725
CNC1=CC(=O)OCC1	CNC1=CC(=O)OCC1	
InChI=1S/C6H9NO2/c1-7-5-2-3-9-6(8)4-5/h4,7H,2-3H2,1H3	InChI=1S/C6H9NO2/c1-7-5-2-3-9-6(8)4-5/h4,7H,2-3H2,1H3
