14
gdb 27455	2.58767	1.67633	1.06888	2.1197	78.5	-0.2307	-0.0891	0.1416	1053.0992	0.102639	-432.879765	-432.872519	-432.871574	-432.911608	27.571	
O	 0.0321196193	 1.2909468578	-0.3271530194	-0.398579
C	-0.0279381812	-0.0322533881	-0.0647757912	 0.415065
C	-1.2582817093	-0.6193788003	-0.032825962	-0.190883
C	-1.5205468687	-2.0327751881	 0.1432204111	 0.237578
N	-2.6521053213	-2.4584579929	 0.5782809458	-0.506541
C	-0.4809485443	-2.9458581182	-0.407791059	-0.029619
N	 0.7937828392	-2.8797351631	-0.3022104235	-0.209524
C	 1.480716882	-1.8240806626	 0.2405765449	 0.085317
N	 1.1941033974	-0.5667262321	 0.2572621731	-0.324173
H	 0.9521761179	 1.5529235777	-0.1876697206	 0.302178
H	-2.1253377785	 0.0236093135	-0.1378275871	 0.130719
H	-2.6958677802	-3.4799456586	 0.5291309682	 0.213486
H	-0.8770210952	-3.8022729718	-0.9630437041	 0.138386
H	 2.4678717831	-2.0972193531	 0.6102798938	 0.136589
92.7055	166.9084	274.2524	309.1601	384.7916	424.9707	477.615	500.1266	508.9399	575.434	658.4622	728.6407	823.9128	842.0253	875.4784	893.0484	949.0725	974.3988	1004.0693	1094.6168	1158.5702	1210.903	1271.2961	1364.1463	1401.7408	1415.2542	1459.6175	1573.9733	1639.7453	1680.9298	1690.2135	3081.0953	3147.3846	3195.4647	3428.5949	3775.937
OC1=CC(=N)C=NC=N1	OC1=C[C]([NH])C=NC=N1	
InChI=1S/C5H5N3O/c6-4-1-5(9)8-3-7-2-4/h1-3,6,9H	InChI=1S/C5H5N3O/c6-4-1-5(9)8-3-7-2-4/h1-3,6,9H
