16
gdb 50859	5.67943	0.69951	0.666	1.8908	68.93	-0.2769	-0.027	0.2499	1647.8834	0.122142	-475.026856	-475.017729	-475.016784	-475.062738	30.987	
N	-0.3702985345	 1.2783926855	-0.2205903687	-0.416196
C	-0.1110386325	 0.0497450198	-0.1669568664	 0.116021
O	-1.1589312074	-0.8171811782	 0.037239591	-0.208364
C	-0.8792545392	-2.1578965633	 0.1298023083	 0.478857
O	 0.2234191165	-2.6236758629	 0.0513649101	-0.331709
C	-2.1578550592	-2.9283070006	 0.3768048892	-0.376059
C	-1.9966232756	-4.4064071131	 0.122354554	 0.10958
C	-3.1482421997	-5.245746394	-0.2247040792	-0.185189
O	-2.2086874015	-4.8394472161	-1.2210209667	-0.227963
H	 0.4876239939	 1.8051141676	-0.3792249557	 0.241858
H	 0.847998741	-0.4593240592	-0.2618904371	 0.14617
H	-2.4444414108	-2.7470701984	 1.4218275934	 0.149419
H	-2.9559372644	-2.510398697	-0.2428627997	 0.150889
H	-1.140234643	-4.8686486773	 0.6104291764	 0.115219
H	-3.1389602727	-6.3050127263	 0.0268195347	 0.121388
H	-4.1379600607	-4.7971970366	-0.3047518336	 0.116079
32.0396	60.7381	107.0951	122.6197	137.4922	246.9492	330.062	375.6777	438.2667	538.1814	572.2987	739.4966	807.0631	855.4482	866.0092	934.5081	956.3877	974.7708	1017.6969	1072.8193	1092.9735	1121.9871	1156.5007	1164.3544	1169.6002	1238.3778	1263.3081	1299.3154	1341.203	1390.7085	1434.0066	1455.1157	1533.4901	1748.0726	1844.1242	3033.7634	3083.8718	3103.1683	3134.071	3142.0448	3171.0943	3507.2708
N=COC(=O)CC1CO1	[NH][CH]OC(=O)C[C@H]1CO1	
InChI=1S/C5H7NO3/c6-3-9-5(7)1-4-2-8-4/h3-4,6H,1-2H2	InChI=1S/C5H7NO3/c6-3-9-5(7)1-4-2-8-4/h3-4,6H,1-2H2/t4-/m0/s1
