16
gdb 11805	3.50227	1.85002	1.38792	1.5016	66.83	-0.2477	0.0206	0.2683	904.7923	0.131019	-379.894601	-379.88705	-379.886105	-379.926309	28.643	
N	 0.0711827216	 1.3253870199	-0.4064861954	-0.514079
C	 0.0500167397	-0.0860380629	-0.0977366142	-0.200751
C	 0.1451316184	-0.5947239358	 1.3441462384	 0.404691
N	 0.9618650955	-0.4489856424	 2.2836627061	-0.550934
O	-1.0591040871	-1.2745295434	 1.2873612766	-0.276756
C	-1.3170287136	-0.7702270907	-0.0471944605	 0.460421
C	-2.6500298081	-0.2464442379	-0.446907218	-0.332175
C	-2.0974412255	-1.5356180375	-1.0497401937	-0.341129
H	-0.4346898421	 1.847356245	 0.3033906104	 0.237833
H	 1.0267204204	 1.6678799973	-0.3908944372	 0.245633
H	 0.7576163139	-0.6043504776	-0.7519095739	 0.116101
H	 0.6520128872	-0.9294356826	 3.1305045882	 0.22832
H	-3.4613126349	-0.3392446758	 0.2666299069	 0.129493
H	-2.6690492372	 0.6467753853	-1.0624112578	 0.135097
H	-1.759696182	-1.5281007169	-2.0808866507	 0.126771
H	-2.5469976663	-2.4670315439	-0.7232551752	 0.131464
94.2943	189.6506	213.0111	240.9431	264.1841	365.3082	446.3002	521.2101	554.2083	675.93	763.1862	783.8612	835.3405	859.4261	872.1626	902.1267	957.4918	971.674	993.4528	1013.679	1050.9832	1076.9476	1154.5807	1182.8299	1187.6849	1218.7423	1231.5381	1308.7041	1370.569	1437.5455	1448.2379	1502.6716	1663.096	1825.6674	3071.6423	3132.5651	3135.0467	3217.161	3231.1094	3470.3127	3498.1096	3577.4244
NC1C(=N)OC11CC1	N[C@H]1[C]([NH])OC21CC2	
InChI=1S/C5H8N2O/c6-3-4(7)8-5(3)1-2-5/h3,7H,1-2,6H2	InChI=1S/C5H8N2O/c6-3-4(7)8-5(3)1-2-5/h3,7H,1-2,6H2/t3-/m0/s1
