16
gdb 15559	3.36703	1.83571	1.28934	3.7836	68.01	-0.2445	-0.0217	0.2228	933.607	0.131673	-379.964194	-379.956638	-379.955694	-379.99646	27.1	
C	 0.0044696453	 1.5820617197	 0.0079115384	-0.397744
C	-0.0000125601	 0.0534868903	 0.0101376716	 0.002801
C	 0.8094468448	-0.5739444595	-1.1694949983	-0.181825
N	 1.9819768033	-1.2470754582	-0.5875100111	-0.254192
C	 1.8625284732	-1.1799266016	 0.6759336165	 0.085686
N	 0.7369476388	-0.5072093901	 1.161384301	-0.076308
C	 0.3842600367	-0.4224994169	 2.4839390884	 0.147576
O	 1.0240937974	-0.8914775894	 3.3980443758	-0.314755
H	 1.030192674	 1.9637318123	-0.0079098101	 0.136498
H	-0.5158744075	 1.9556560179	-0.8797136201	 0.128987
H	-0.4999839425	 1.988750736	 0.8898839381	 0.125412
H	-1.0307108341	-0.3146386606	 0.0244803053	 0.102191
H	 0.2205620702	-1.3055710782	-1.7330648884	 0.123867
H	 1.1366684865	 0.1919711764	-1.8807299601	 0.121213
H	 2.5543133275	-1.599286727	 1.395668595	 0.166684
H	-0.5663529035	 0.126048959	 2.6255453981	 0.083911
71.7473	118.2478	212.0723	254.6447	259.5774	324.9733	417.9085	512.1429	546.5917	720.7224	803.0027	868.8883	892.9	928.6035	966.1212	977.8329	1029.8739	1052.1398	1108.7462	1135.4017	1213.9097	1236.2066	1280.198	1302.031	1326.5848	1375.2296	1406.9729	1411.9986	1440.5913	1490.0213	1494.2024	1498.8704	1701.4784	1797.8688	2951.5486	3036.449	3040.6958	3052.2518	3077.7092	3110.5054	3116.3485	3233.9676
CC1CN=CN1C=O	C[C@H]1CN=CN1C=O	
InChI=1S/C5H8N2O/c1-5-2-6-3-7(5)4-8/h3-5H,2H2,1H3	InChI=1S/C5H8N2O/c1-5-2-6-3-7(5)4-8/h3-5H,2H2,1H3/t5-/m0/s1
