15
gdb 7865	4.17529	1.27224	1.1755	2.8575	58.37	-0.2462	0.0443	0.2905	1038.7633	0.117379	-436.951175	-436.942741	-436.941796	-436.985293	30.144	
N	-0.3304765021	 1.2330566196	-0.0605110928	-0.564349
C	-0.0590260478	-0.1042646628	-0.088281236	 0.499415
O	 0.9918471405	-0.6044969903	-0.4011423272	-0.382693
O	-1.1825149151	-0.798027118	 0.273416013	-0.282927
C	-1.0832950711	-2.2117245584	 0.2190740423	 0.081737
C	-2.2299157369	-2.9528375459	 0.8462690713	-0.361108
C	-2.1011734022	-2.8762779074	-0.6644701433	 0.116858
O	-2.9862719246	-2.0828300254	-1.3904278572	-0.430436
H	 0.4656493955	 1.8458435159	-0.105589409	 0.273622
H	-1.1441608874	 1.5536981498	 0.4366376997	 0.267372
H	-0.0642708454	-2.5689066075	 0.2788730406	 0.137268
H	-2.0200873181	-3.8841761307	 1.3609289638	 0.120596
H	-3.0177657462	-2.3479512123	 1.2819798749	 0.126624
H	-1.806365564	-3.7696603587	-1.2074102558	 0.107359
H	-2.715351885	-1.1653947381	-1.2642626844	 0.290661
22.8146	83.6857	179.3448	224.113	247.6967	338.7087	368.565	422.8122	469.2909	515.6363	624.5838	660.9093	774.7415	778.693	800.3323	847.3236	950.9702	1026.8621	1051.7699	1090.6739	1111.094	1119.837	1134.1929	1166.0322	1232.5136	1327.0967	1344.0555	1394.5049	1417.1357	1476.5198	1612.6866	1849.1774	3134.1543	3150.5818	3210.7287	3229.083	3612.5124	3740.9761	3780.94
NC(=O)OC1CC1O	NC(=O)O[C@H]1C[C@H]1O	
InChI=1S/C4H7NO3/c5-4(7)8-3-1-2(3)6/h2-3,6H,1H2,(H2,5,7)	InChI=1S/C4H7NO3/c5-4(7)8-3-1-2(3)6/h2-3,6H,1H2,(H2,5,7)/t2-,3+/m1/s1
