15
gdb 123959	3.48919	1.62465	1.15165	5.4285	66.28	-0.2615	-0.0373	0.2242	996.6979	0.115358	-453.915018	-453.908496	-453.907552	-453.94604	25.476	
C	-0.0136449769	 1.5118815382	 0.0023963015	-0.235805
C	 1.4107143385	 2.0712307528	 0.0385972172	-0.081711
O	 2.133875226	 1.6951731782	 1.2311193442	-0.254093
C	 1.964251271	 0.4138719013	 1.5708635243	 0.392055
N	 2.6747961756	-0.2035325272	 2.472793521	-0.201325
O	 2.1330753819	-1.4715497127	 2.5182211519	-0.157511
N	 1.0918591288	-1.6162635108	 1.6380208698	-0.173166
C	 0.9713608274	-0.4656284473	 1.0424987912	 0.258238
C	-0.010796246	-0.0316621983	 0.0035358982	-0.33127
H	-0.5630417356	 1.885922515	 0.8734812254	 0.130841
H	-0.5166965698	 1.8955755046	-0.8900449362	 0.120553
H	 1.982420283	 1.7308644375	-0.835434445	 0.120808
H	 1.4098974388	 3.1621512226	 0.0462286131	 0.134489
H	-1.0059839275	-0.4355396594	 0.2065638108	 0.141896
H	 0.2924087445	-0.4093027345	-0.9805878775	 0.136001
117.1868	219.8465	315.3136	374.6527	416.9181	456.2789	540.5137	613.8216	674.4228	715.8034	745.9042	863.5575	877.329	901.4121	916.2267	957.4648	1008.4181	1046.9708	1084.9941	1101.3094	1207.9195	1225.9581	1257.8848	1298.4623	1351.9172	1373.53	1398.8585	1450.8481	1475.7012	1483.9259	1502.2744	1570.6775	1655.9349	3020.9678	3037.4851	3050.804	3096.6852	3103.7232	3124.4208
C1COC2=NON=C2C1	C1COc2nonc2C1	
InChI=1S/C5H6N2O2/c1-2-4-5(8-3-1)7-9-6-4/h1-3H2	InChI=1S/C5H6N2O2/c1-2-4-5(8-3-1)7-9-6-4/h1-3H2
