18
gdb 84585	2.3696	1.93425	1.24512	2.6548	77.3	-0.2568	-0.0044	0.2525	1022.7751	0.149239	-401.963273	-401.955631	-401.954687	-401.995462	29.78	
C	 0.0492773119	 1.6066420699	-0.1502074201	-0.389954
C	 0.0028075286	 0.0788649902	-0.0117287723	-0.047647
C	 0.6022475669	-0.6654484386	-1.1883440621	-0.054057
C	 1.4833741532	-1.6066005479	-0.8463863284	-0.10218
C	 1.666126677	-1.6641369128	 0.6382447626	 0.068598
O	 2.8844720501	-0.9599222066	 1.1037980092	-0.274511
C	 2.1303611673	 0.0995373538	 1.5605297747	 0.436043
N	 2.4865758043	 1.169931011	 2.1111126534	-0.546387
C	 0.7900318021	-0.5123446278	 1.18886092	-0.191395
H	 1.0748334765	 1.9646823552	-0.2663655178	 0.137037
H	-0.5326648108	 1.9279387922	-1.020272305	 0.108863
H	-0.3688529345	 2.0905487056	 0.7369468001	 0.129547
H	-1.0521262714	-0.2124342238	 0.0909296174	 0.089667
H	 0.3172813269	-0.4260454587	-2.208440817	 0.104013
H	 2.0237604552	-2.2499308792	-1.5304165302	 0.106652
H	 1.6241151479	-2.6545333037	 1.0954858899	 0.094544
H	 3.5035039381	 1.2167653082	 2.200631918	 0.225776
H	 0.1647112405	-0.7273002667	 2.0554847477	 0.10539
80.6575	166.6685	206.4915	235.6149	330.9382	361.0779	465.8524	529.542	607.1177	671.8723	729.984	781.3785	815.1612	848.9951	870.6839	879.9732	917.0016	931.4555	981.9267	989.7286	1009.1104	1031.1204	1060.6657	1104.6631	1125.1714	1152.7108	1208.8001	1222.9823	1260.3521	1295.4784	1323.128	1336.9257	1352.6706	1378.8822	1417.6278	1491.1634	1495.1137	1673.9984	1811.8569	2999.1878	3041.8771	3096.0868	3110.4804	3116.2974	3129.2691	3178.6776	3212.9377	3469.0894
CC1C=CC2OC(=N)C12	C[C@H]1C=C[C@H]2O[C]([NH])[C@@H]12	
InChI=1S/C7H9NO/c1-4-2-3-5-6(4)7(8)9-5/h2-6,8H,1H3	InChI=1S/C7H9NO/c1-4-2-3-5-6(4)7(8)9-5/h2-6,8H,1H3/t4-,5+,6-/m0/s1
