25
gdb 118287	4.06281	0.51899	0.48053	2.9279	91.7	-0.2469	-0.0176	0.2293	2332.1372	0.225867	-389.515891	-389.504144	-389.5032	-389.554579	40.907	
C	-0.0345054114	 1.6275252303	-0.0845638929	-0.378856
C	 0.0315145422	 0.1057773182	 0.0769829775	-0.178516
C	-1.3535216499	-0.5523128054	 0.0426857818	-0.163009
C	-1.3548048887	-2.0926901998	 0.0968179778	 0.028459
C	-0.7849074312	-2.6216251417	 1.4209439368	-0.393323
C	-2.7805586489	-2.618470629	-0.1660630221	-0.19557
C	-2.8779498302	-4.1408562314	-0.3767350893	-0.285027
C	-4.3070168566	-4.5770028698	-0.5983302007	 0.161784
O	-4.7105873427	-5.1737268378	-1.5630862403	-0.239377
H	 0.9636970442	 2.0755676271	-0.058914281	 0.11176
H	-0.5004043852	 1.9052855082	-1.0366072699	 0.114332
H	-0.6252039377	 2.0854387503	 0.7167401771	 0.114036
H	 0.6530742572	-0.3202581991	-0.7221291828	 0.094717
H	 0.5399579008	-0.1328375874	 1.0183937396	 0.099334
H	-1.9614682995	-0.1631676156	 0.8726988546	 0.089673
H	-1.8641751011	-0.235874268	-0.8770716237	 0.090127
H	-0.712584393	-2.4543083737	-0.7202553952	 0.073141
H	-0.7597283959	-3.7148940452	 1.4485090274	 0.114202
H	 0.239254551	-2.2758211377	 1.5837631544	 0.120214
H	-1.3907362122	-2.27933354	 2.2690740865	 0.111771
H	-3.431683263	-2.3234953867	 0.6692061122	 0.098031
H	-3.1812870477	-2.119411859	-1.0571203081	 0.106459
H	-2.2770169793	-4.4670937793	-1.231108931	 0.119463
H	-2.5151617921	-4.6654287403	 0.517752616	 0.118798
H	-5.0027323789	-4.289751907	 0.2265768454	 0.067378
46.8121	51.7648	77.7169	79.9314	110.4551	130.8778	222.2897	233.3365	248.7783	278.9654	321.317	371.7223	436.5847	504.3997	531.9513	742.5121	764.8906	827.6205	854.773	876.476	903.8603	948.5439	984.7241	1009.6637	1036.4007	1044.8838	1067.3364	1084.9642	1150.1107	1161.0976	1184.2599	1219.606	1251.9635	1277.384	1304.3015	1317.1694	1332.0404	1350.6728	1381.5121	1384.3751	1396.402	1412.2347	1417.6992	1430.9345	1464.0821	1478.5608	1490.95	1494.7183	1497.9351	1499.6542	1506.6239	1512.5931	1836.1739	2843.1946	2990.3158	2998.2904	3010.4916	3018.857	3022.2955	3029.2599	3031.4356	3031.6139	3052.3888	3061.2535	3096.204	3096.8587	3098.9605	3101.9952	3114.1632
CCCC(C)CCC=O	CCC[C@@H](C)CCC=O	
InChI=1S/C8H16O/c1-3-5-8(2)6-4-7-9/h7-8H,3-6H2,1-2H3	InChI=1S/C8H16O/c1-3-5-8(2)6-4-7-9/h7-8H,3-6H2,1-2H3/t8-/m1/s1
