18
gdb 93808	2.90897	1.37347	1.00229	2.679	68.31	-0.2519	0.0072	0.259	1182.2928	0.148	-476.257101	-476.24822	-476.247275	-476.290801	32.547	
C	-0.6004026428	 1.34538847	 0.1342706645	-0.405015
C	-0.0487955502	-0.051033242	-0.0317748693	 0.214503
O	 0.8450920513	-0.0705696267	-1.0973802394	-0.24402
C	 1.3600005139	-1.3677510405	-1.3868888984	-0.067067
C	 1.3679530185	-2.2895127848	-0.1472348854	-0.166165
N	 2.3881815109	-3.3113592725	-0.2952490239	-0.512425
C	 1.4641024823	-1.4612878734	 1.1414045505	 0.404373
O	 2.1858885378	-1.7310914845	 2.0617605222	-0.333908
O	 0.6373640572	-0.3907078332	 1.1945726438	-0.230074
H	 0.2250671002	 2.048648615	 0.2658017974	 0.145444
H	-1.1716936696	 1.6244544928	-0.7538713512	 0.132559
H	-1.2506023304	 1.3883243691	 1.0104816211	 0.137022
H	-0.856900306	-0.7863324829	-0.1789479438	 0.080864
H	 0.7877335914	-1.8364916082	-2.1972901635	 0.114985
H	 2.3857099982	-1.2229023374	-1.7385842353	 0.125858
H	 0.3944156906	-2.7960225948	-0.0941210986	 0.121291
H	 3.3001406938	-2.8851969143	-0.1453312761	 0.238264
H	 2.292877613	-3.9860470615	 0.4584615157	 0.243512
80.3245	112.444	171.0164	203.1396	217.1186	278.6722	288.7559	373.1276	427.8989	474.9613	526.8982	596.8261	659.4556	734.0141	782.2067	873.2616	921.2998	949.6113	1010.0934	1040.9165	1058.2581	1107.7101	1128.5747	1160.3822	1177.0601	1217.7538	1253.2731	1275.8539	1325.0563	1378.0699	1387.7503	1402.5062	1424.091	1433.1407	1481.5897	1488.6852	1513.5659	1674.1683	1852.736	2968.889	3015.5865	3027.7691	3061.1916	3089.9366	3143.9309	3146.7547	3488.3332	3559.8566
CC1OCC(N)C(=O)O1	C[C@H]1OC[C@@H](N)C(=O)O1	
InChI=1S/C5H9NO3/c1-3-8-2-4(6)5(7)9-3/h3-4H,2,6H2,1H3	InChI=1S/C5H9NO3/c1-3-8-2-4(6)5(7)9-3/h3-4H,2,6H2,1H3/t3-,4+/m0/s1
