17
gdb 34144	2.78239	1.66525	1.35256	2.2795	78.54	-0.2312	0.015	0.2462	990.7743	0.136322	-384.601192	-384.594026	-384.593082	-384.632632	29.051	
C	-0.0482877111	-1.1576358235	 0.1206027206	-0.358668
C	-0.0434720643	 0.044491008	 0.0842963404	 0.06414
C	-0.0139667764	 1.4710103157	-0.0007423602	 0.387006
O	-0.6221312962	 2.296638639	 1.0620077815	-0.351
C	-0.0871804539	 3.2586349438	 0.0885778231	 0.013162
C	 1.2223583951	 2.436333795	-0.0727803217	-0.071095
C	 1.7175089854	 2.5151841407	-1.5100336766	-0.251869
C	 0.35568971	 2.4976798238	-2.2757355987	-0.25187
C	-0.6134403457	 2.4127256851	-1.1049866515	-0.071083
H	-0.0578318025	-2.218947774	 0.1617381181	 0.186565
H	-0.2196481786	 4.3189340292	 0.2999207156	 0.09322
H	 1.9245258755	 2.4128331422	 0.75933606	 0.086388
H	 2.2931845497	 3.4268377129	-1.6963159696	 0.106156
H	 2.3550172043	 1.6652431476	-1.7702186132	 0.113203
H	 0.1980159348	 3.3999203001	-2.8743325174	 0.106156
H	 0.2634456514	 1.6383728854	-2.9462537037	 0.113202
H	-1.6885711977	 2.3663576088	-1.2721763468	 0.086387
123.4875	144.51	241.9691	329.8771	454.3147	504.495	528.5914	562.9649	617.5516	684.7945	689.4007	723.1635	757.4646	788.7697	834.0925	907.826	921.1706	922.558	959.9555	968.421	1007.4644	1037.8346	1045.5965	1104.0333	1134.1634	1198.7193	1213.8145	1234.9469	1250.4163	1252.1173	1268.9591	1283.8841	1321.9133	1384.0176	1485.235	1506.8681	2234.9895	3050.2719	3059.5177	3085.3557	3104.2066	3126.2524	3137.9619	3143.937	3500.4679
C#CC12OC3C1CCC23	C#C[C@@]12O[C@H]3[C@@H]1CC[C@@H]23	
InChI=1S/C8H8O/c1-2-8-5-3-4-6(8)7(5)9-8/h1,5-7H,3-4H2	InChI=1S/C8H8O/c1-2-8-5-3-4-6(8)7(5)9-8/h1,5-7H,3-4H2/t5-,6+,7-,8+
