18
gdb 87535	2.59972	1.5987	1.18367	2.367	77.78	-0.2422	-0.0211	0.2211	1080.5861	0.146906	-401.909133	-401.900937	-401.899993	-401.941813	31.254	
C	-0.0103427177	 1.560465223	-0.0198287421	-0.412904
C	-0.0034669694	 0.0474404365	 0.0083540345	-0.069788
C	 1.2848353019	-0.7125344279	-0.1771565118	-0.359451
C	 0.6191301186	-0.6809819291	 1.170065614	 0.220713
N	 1.2441992865	-0.0516070905	 2.3733902361	-0.160934
C	 0.1334758308	 0.147844266	 3.3050316316	-0.236004
C	 0.7212691808	-1.2213596378	 3.2113744137	-0.171726
C	 0.2000043606	-1.8923869565	 1.9633599844	 0.373153
O	-0.1992864159	-2.9888814145	 1.6904189646	-0.327431
H	 0.8796208215	 1.965918584	 0.4699669835	 0.136201
H	-0.0272882196	 1.9272164789	-1.051395619	 0.126296
H	-0.8891969232	 1.9654907333	 0.492771824	 0.120763
H	-0.8931030929	-0.4303209902	-0.3951371155	 0.105324
H	 1.271958367	-1.6583915453	-0.708186796	 0.135838
H	 2.2002648931	-0.136795394	-0.2667856434	 0.132544
H	 0.3959672388	 0.7243264226	 4.1873423329	 0.133767
H	-0.8618026419	 0.3359515425	 2.9100371224	 0.128637
H	 1.293249201	-1.672767771	 4.013176016	 0.125001
118.212	127.1632	172.5029	203.0993	254.8133	292.8844	390.9067	439.2186	565.5247	610.4309	663.037	715.0902	789.464	808.8128	830.6659	892.3882	918.7065	936.6343	960.5544	994.3302	1030.9523	1060.7003	1075.661	1096.4499	1120.7365	1131.2721	1146.9174	1188.7137	1210.5411	1213.4049	1290.996	1306.8737	1404.0172	1422.7873	1474.7689	1493.5695	1498.124	1502.806	1886.2127	3034.995	3096.7915	3109.3738	3111.2521	3131.1378	3140.2823	3192.5454	3203.3684	3224.6305
CC1CC11N2CC2C1=O	C[C@H]1C[C@]21N1C[C@H]1C2=O	
InChI=1S/C7H9NO/c1-4-2-7(4)6(9)5-3-8(5)7/h4-5H,2-3H2,1H3	InChI=1S/C7H9NO/c1-4-2-7(4)6(9)5-3-8(5)7/h4-5H,2-3H2,1H3/t4-,5-,7+,8?/m0/s1
