18
gdb 13079	4.30309	1.25085	1.04912	1.4047	73.43	-0.2444	0.0503	0.2948	1132.116	0.152098	-347.75396	-347.745313	-347.744369	-347.787618	31.309	
C	-0.3335573011	 1.5339417855	-0.0762840089	-0.404555
C	 0.1551587741	 0.0999378444	-0.0496626445	 0.139876
O	 1.4558745225	-0.0610969043	-0.664023507	-0.291549
C	 1.9046896738	-0.9092728134	 0.4134255351	-0.076141
C	 0.6621624756	-0.5676994025	 1.2608059807	-0.046949
C	 0.9314159833	 0.3560690032	 2.4577622661	-0.381096
C	 1.6218305813	-0.3401379996	 3.5376747747	 0.289556
C	 2.1939190724	-0.9404492121	 4.4079254096	-0.427324
H	 0.3645535422	 2.2118428241	 0.4214650844	 0.1217
H	-0.4395184267	 1.8641468958	-1.1143732922	 0.129002
H	-1.3136005099	 1.6179187812	 0.4059573885	 0.116978
H	-0.581713595	-0.5432107079	-0.5551967768	 0.07085
H	 1.9752073652	-1.9607862916	 0.1058581484	 0.098752
H	 2.8728738325	-0.5903826996	 0.8162078807	 0.109289
H	 0.0734378965	-1.4260210131	 1.5904511833	 0.085965
H	 1.536172647	 1.212930326	 2.1361098376	 0.138376
H	-0.0146314386	 0.7687496952	 2.8307996532	 0.13128
H	 2.6989380549	-1.4578659113	 5.1854355471	 0.195989
66.713	72.7844	123.7821	201.8799	235.703	332.488	355.5367	369.0496	495.4575	506.5205	622.2898	640.0386	739.4038	841.7721	868.0918	885.9186	919.6337	954.0532	1015.0086	1018.2488	1075.5292	1100.8324	1143.9825	1155.9996	1171.4792	1230.9454	1249.7277	1293.9156	1322.1356	1357.9123	1383.3616	1390.7833	1411.4652	1470.342	1483.0656	1499.5502	1525.7719	2238.1697	2976.9462	3011.8265	3022.1304	3038.8691	3055.2531	3060.9128	3092.0044	3106.3845	3122.7312	3506.7101
CC1OCC1CC#C	C[C@H]1OC[C@H]1CC#C	
InChI=1S/C7H10O/c1-3-4-7-5-8-6(7)2/h1,6-7H,4-5H2,2H3	InChI=1S/C7H10O/c1-3-4-7-5-8-6(7)2/h1,6-7H,4-5H2,2H3/t6-,7-/m1/s1
