18
gdb 86286	1.87698	1.65656	1.16216	4.753	73.07	-0.2397	0.0263	0.266	1127.3918	0.148651	-435.257819	-435.248774	-435.24783	-435.29122	34.491	
N	-0.0770450075	 1.4920339378	 0.0446452812	-0.5228
C	-0.0149812132	 0.0415558338	-0.0067010725	-0.048752
C	 0.3022630626	-0.6871017756	 1.320388177	-0.259778
C	-0.8674365607	-1.6712261625	 1.0577204259	 0.003584
N	-1.6577284244	-2.0578296639	 2.1929757055	-0.507647
C	-1.447760824	-0.619813849	 0.0236635466	 0.237515
O	-2.3567777751	 0.2402689146	 0.6524131923	-0.469203
C	-1.9727802032	-1.1382282574	-1.2405211042	 0.230363
N	-2.3460787366	-1.5851359808	-2.2402315316	-0.346145
H	 0.6122501815	 1.8717625589	 0.6827421931	 0.249514
H	 0.0670465366	 1.9160417948	-0.8648424772	 0.250755
H	 0.5761540374	-0.3480562647	-0.8411398791	 0.091692
H	 1.3016689941	-1.1081655869	 1.4391000831	 0.113851
H	 0.0781668611	-0.0487612042	 2.1803689479	 0.112656
H	-0.5186310217	-2.5609659739	 0.5271522913	 0.096208
H	-2.1902366889	-1.2495705152	 2.5067351812	 0.240405
H	-2.335237888	-2.7685112016	 1.933036575	 0.236735
H	-1.9398911501	 1.1235116957	 0.5792711143	 0.291048
103.0333	119.7638	171.4813	232.8661	257.6449	297.4252	320.9705	343.7633	404.4375	488.9489	518.001	542.7536	594.0854	624.3916	675.5182	738.6247	832.2746	871.0238	893.4941	923.7926	935.8309	982.4472	1061.0835	1097.9691	1121.3689	1165.3813	1180.6023	1220.82	1242.5271	1266.6315	1294.7871	1313.0336	1380.7948	1426.1681	1435.1197	1482.4459	1648.8488	1669.8044	2339.872	3055.2064	3064.7567	3082.8441	3129.8254	3485.2986	3516.9991	3526.2746	3564.8054	3604.2963
NC1CC(N)C1(O)C#N	N[C@H]1C[C@@H](N)[C@]1(O)C#N	
InChI=1S/C5H9N3O/c6-2-5(9)3(7)1-4(5)8/h3-4,9H,1,7-8H2	InChI=1S/C5H9N3O/c6-2-5(9)3(7)1-4(5)8/h3-4,9H,1,7-8H2/t3-,4+,5-
