13
gdb 25866	4.28717	1.13871	0.89973	0.4044	63.91	-0.237	-0.042	0.195	1181.914	0.089352	-489.932771	-489.924899	-489.923955	-489.9656	28.596	
N	-0.1628308659	 1.3173623549	 0.0178109749	-0.540569
C	 0.0276992963	-0.0280889225	 0.0080245908	 0.319271
O	 1.1142642454	-0.5773517004	-0.0040738303	-0.36302
C	-1.2180425704	-0.8201581413	 0.0138812396	 0.234838
C	-1.4076368099	-2.1392897053	 0.0101545198	-0.108467
O	-2.7545731177	-2.4028757016	 0.019945943	-0.210237
C	-3.406550474	-1.1837420057	 0.0295793589	 0.494143
N	-4.6385129601	-0.9586757725	 0.0397252427	-0.573305
O	-2.4612428117	-0.1988710721	 0.02564127	-0.244124
H	 0.6465169136	 1.9149533598	 0.0099225596	 0.272075
H	-1.0838819001	 1.7213574447	 0.0221146145	 0.281825
H	-0.7252799796	-2.9699017033	 0.0014198229	 0.19302
H	-5.1685936858	-1.8257449247	 0.0405991537	 0.244549
83.7901	129.2623	157.8075	218.9477	270.6181	383.8274	418.3557	537.3581	545.2861	608.6369	656.4162	725.532	758.9571	762.7402	778.1366	830.7515	901.8367	980.589	1002.0597	1078.6882	1108.3136	1176.7283	1214.0063	1332.5096	1406.0671	1613.172	1713.2212	1788.3474	1820.3664	3314.7371	3553.8558	3606.154	3743.9699
NC(=O)C1=COC(=N)O1	NC(=O)C1=CO[C@H]([NH])O1	
InChI=1S/C4H4N2O3/c5-3(7)2-1-8-4(6)9-2/h1,6H,(H2,5,7)	InChI=1S/C4H5N2O3/c5-3(7)2-1-8-4(6)9-2/h1,4,6H,(H2,5,7)/t4-/m0/s1
