19
gdb 59272	2.92496	1.26453	1.13283	2.2738	70.83	-0.2451	0.0725	0.3176	1157.0335	0.158686	-460.128943	-460.120284	-460.11934	-460.162678	32.429	
C	 0.1323768996	 1.2735174461	-0.3776458115	-0.405513
C	 0.0837014212	-0.1232816897	 0.2421807867	 0.1258
O	 0.5635760466	-0.1231166782	 1.5847880228	-0.432602
C	-1.3078535059	-0.7257020547	 0.1711278816	-0.103751
C	-1.9224169763	-1.2320295523	-1.1189456133	 0.029992
O	-1.0260612377	-1.4582231412	-2.1883612404	-0.254225
C	-0.5064565966	-2.758660343	-1.9637375611	 0.021871
O	-0.4549799662	-2.943741394	-0.5605011033	-0.248835
C	-1.5448704922	-2.2080952466	-0.0473137754	 0.026472
H	 1.1347200334	 1.6974805852	-0.2703947884	 0.121661
H	-0.122631078	 1.2299149266	-1.440334245	 0.13316
H	-0.5802027441	 1.9480716003	 0.1146023416	 0.099221
H	 0.7738918399	-0.7795947221	-0.2922005509	 0.104645
H	 0.0428853981	 0.5176277906	 2.0815691421	 0.272349
H	-2.0283748679	-0.2554857228	 0.8407306057	 0.080717
H	-2.9374581727	-0.9895148535	-1.415092747	 0.104245
H	-1.1602471775	-3.5166678411	-2.4279895847	 0.0942
H	 0.5059004022	-2.817376925	-2.3720238223	 0.124501
H	-2.2444830757	-2.7803030647	 0.5519470329	 0.106092
51.2803	130.5329	142.5769	243.1957	254.5291	286.7175	292.5198	375.0465	448.4628	581.4453	606.9582	724.8003	755.8888	775.7209	795.9883	884.9157	931.0269	960.6824	981.9555	1046.9865	1057.127	1061.8108	1084.2414	1096.6573	1107.2447	1115.3197	1156.2775	1177.414	1200.6599	1225.5894	1280.097	1301.1576	1320.1299	1366.6846	1398.3804	1418.5386	1423.0641	1432.3787	1493.886	1496.0359	1536.3496	2958.442	3022.7013	3086.0391	3099.2589	3102.7249	3112.5804	3123.3967	3159.9407	3171.4438	3798.4145
CC(O)C1C2OCOC12	C[C@@H](O)[C@H]1[C@H]2OCO[C@@H]12	
InChI=1S/C6H10O3/c1-3(7)4-5-6(4)9-2-8-5/h3-7H,2H2,1H3	InChI=1S/C6H10O3/c1-3(7)4-5-6(4)9-2-8-5/h3-7H,2H2,1H3/t3-,4-,5+,6-/m1/s1
