14
gdb 52355	11.9072	0.43732	0.43282	1.2161	78.7	-0.2973	-0.0543	0.243	2290.264	0.099262	-436.69136	-436.682077	-436.681133	-436.727448	30.558	
O	 0.2001641449	 0.0167750059	-0.2655835999	-0.258133
C	 0.1872582275	 1.2075573227	-0.2714756001	 0.171367
O	 0.9147357212	 1.9474316464	 0.5969843812	-0.170212
C	 0.8575994848	 3.3661005801	 0.4874982172	-0.085847
C	 2.2276002187	 3.8889628445	 0.0175847568	-0.366876
C	 2.2630949061	 5.3389357351	-0.0447350862	 0.0738
C	 2.2601011532	 6.5459310262	-0.0874613229	 0.050934
C	 2.2636629952	 7.9105143934	-0.1388905868	 0.215158
N	 2.2641604813	 9.0711742093	-0.1825204824	-0.32976
H	-0.4104094282	 1.8306471453	-0.9655519328	 0.08634
H	 0.0696707768	 3.6728120206	-0.2105175852	 0.131955
H	 0.6160977245	 3.7642217619	 1.4760410924	 0.148738
H	 3.0000705323	 3.5235283294	 0.7044051944	 0.171941
H	 2.4581939517	 3.4685374492	-0.9690215958	 0.160593
42.2265	45.0579	76.5809	153.4832	159.9158	218.6692	329.4827	359.8429	388.2547	463.6732	580.3659	582.9102	655.6089	759.3583	780.0076	1026.8741	1037.893	1044.9314	1079.6131	1150.8798	1174.6106	1260.7849	1307.5547	1326.7523	1403.6575	1430.9804	1464.4375	1507.0372	1877.0618	2269.576	2405.3365	2947.0921	3033.8077	3042.0045	3073.4726	3111.2886
O=COCCC#CC#N	O=COCCC#CC#N	
InChI=1S/C6H5NO2/c7-4-2-1-3-5-9-6-8/h6H,3,5H2	InChI=1S/C6H5NO2/c7-4-2-1-3-5-9-6-8/h6H,3,5H2
