17
gdb 57622	4.38996	0.85301	0.83864	4.3897	73.07	-0.3064	-0.0062	0.3002	1371.1067	0.133443	-418.038642	-418.028756	-418.027811	-418.073623	35.245	
C	 0.0108479365	 1.6160285166	 0.0122644862	-0.411593
C	 0.0066306867	 0.0880672004	 0.0118028575	 0.327428
O	 0.6802637482	-0.3039168342	 1.1904828496	-0.434277
C	-1.4440352969	-0.4747834657	-0.0008394007	-0.387078
C	-2.2218580422	-0.0635045317	 1.1642654791	 0.283494
N	-2.8473789731	 0.2614755507	 2.0792520285	-0.301436
C	 0.7281504761	-0.4803813507	-1.2442470273	-0.387161
C	 2.1285008194	-0.0753440411	-1.3254385653	 0.283489
N	 3.235682651	 0.2446538791	-1.4018520599	-0.301424
H	 1.0391382429	 1.9834653066	 0.022244071	 0.159706
H	-0.4960850246	 2.0101040268	-0.8733556873	 0.119361
H	-0.4984298733	 1.98730647	 0.9040460858	 0.159748
H	 0.7101352602	-1.2659262876	 1.2454449369	 0.28851
H	-1.9684859661	-0.1515186423	-0.9071427008	 0.157026
H	-1.4139004625	-1.5715665833	-0.0276737936	 0.143573
H	 0.6849714321	-1.5769642659	-1.2298024458	 0.143579
H	 0.2138158956	-0.1566078577	-2.156147834	 0.157054
62.0112	83.6269	104.6718	175.9543	232.8131	284.4902	312.7634	326.8419	390.8005	392.0891	399.8209	400.4016	427.6505	485.1872	678.3395	787.2731	861.4032	902.0381	917.5236	975.3043	984.2482	992.2737	1095.7314	1158.7771	1168.5517	1215.3583	1263.6402	1334.4424	1341.8579	1390.5789	1429.4658	1454.9222	1469.5325	1485.6778	1503.177	2367.7939	2368.0251	3029.7174	3034.7694	3054.8375	3074.5879	3081.5216	3131.8111	3144.9215	3797.6964
CC(O)(CC#N)CC#N	CC(O)(CC#N)CC#N	
InChI=1S/C6H8N2O/c1-6(9,2-4-7)3-5-8/h9H,2-3H2,1H3	InChI=1S/C6H8N2O/c1-6(9,2-4-7)3-5-8/h9H,2-3H2,1H3
