20
gdb 106139	2.51407	1.52987	1.22837	2.0974	78.88	-0.2258	0.0703	0.2961	1108.5917	0.171317	-403.072337	-403.063812	-403.062868	-403.10554	32.769	
C	-0.0716118486	 1.4675442592	 0.0609870244	-0.508898
C	 0.0236086214	-0.0283153525	 0.00348374	 0.245624
C	 0.9034953594	-0.9011278922	-0.8794138456	-0.224001
N	 0.0280334573	-2.0935546996	-0.5462619843	-0.221898
C	 0.3260694405	-2.274272111	 0.9313828683	-0.181806
C	-0.3491405818	-0.9437360475	 1.200031797	-0.174537
C	-1.058463773	-1.0663977341	-0.1207677174	 0.334022
C	-2.4682999468	-1.1582680751	-0.5873344115	-0.221321
O	-3.0409518435	-2.418878882	-0.2694684203	-0.413105
H	 0.8251370516	 1.9029935848	 0.516848138	 0.125011
H	-0.1786366968	 1.8985925424	-0.9408825727	 0.121866
H	-0.9322988656	 1.7920220592	 0.655328388	 0.122603
H	 0.8010565275	-0.6582811994	-1.9414312239	 0.103693
H	 1.9647934463	-1.0330604636	-0.6357392188	 0.093927
H	-0.2456373612	-3.1226636727	 1.3158094347	 0.111626
H	 1.388752343	-2.4077511484	 1.1650612125	 0.095186
H	-0.7292369862	-0.5242136077	 2.1238952862	 0.089989
H	-3.0815544216	-0.3974250558	-0.0922354543	 0.11485
H	-2.5190020564	-0.9670740751	-1.6717451472	 0.093913
H	-2.4590283853	-3.0827067289	-0.6583188632	 0.293258
67.0696	117.2984	205.0682	213.5431	254.8436	297.5833	379.5871	414.4209	474.4632	533.4345	594.6273	663.578	710.2831	813.3916	847.2574	883.3573	926.9977	932.1583	947.2658	963.5995	998.3392	1026.1747	1047.9315	1084.9756	1094.6738	1131.2976	1159.7513	1186.0496	1217.4592	1224.0318	1237.1758	1251.8603	1301.4441	1342.4814	1373.9013	1412.0715	1419.0664	1478.2504	1488.8011	1491.2658	1501.0458	1505.1123	1524.2834	2969.0781	3022.4273	3024.7622	3035.069	3068.816	3083.4002	3086.3986	3094.0794	3099.9551	3186.3864	3791.8354
CC12CN3CC1C23CO	C[C@@]12CN3C[C@@H]1[C@@]23CO	
InChI=1S/C7H11NO/c1-6-3-8-2-5(6)7(6,8)4-9/h5,9H,2-4H2,1H3	InChI=1S/C7H11NO/c1-6-3-8-2-5(6)7(6,8)4-9/h5,9H,2-4H2,1H3/t5-,6+,7-/m0/s1
