20
gdb 82743	2.28787	2.11757	1.54175	1.4138	77.64	-0.2201	0.0647	0.2848	954.1175	0.172594	-403.095194	-403.087567	-403.086622	-403.126619	31.356	
C	-0.0869729703	 1.5014376774	 0.1078598864	-0.513522
C	 0.0152922374	-0.0027405071	 0.056943383	 0.288747
C	 0.867117753	-0.7908063669	-0.9590075213	-0.208833
N	 0.8533157674	-1.9366566382	 0.01546484	-0.155634
C	-0.6228264289	-2.1519423887	 0.4216918345	-0.058297
C	-0.2284122416	-1.8121327625	 1.8733189423	-0.2343
C	 0.7574999348	-0.9035739974	 1.1402419711	-0.035596
C	-1.2847435963	-0.8291117728	-0.052347527	 0.105502
O	-2.3014558051	-0.3109055637	 0.7871108493	-0.444968
H	 0.8966890221	 1.961795764	 0.2484757546	 0.111132
H	-0.5114859159	 1.8974600526	-0.8221551573	 0.115398
H	-0.7377904333	 1.8185959466	 0.9278722842	 0.13536
H	 0.4582097569	-0.9867889493	-1.9568294871	 0.092625
H	 1.8967264234	-0.4315649543	-1.0504945385	 0.103762
H	-1.0766798297	-3.1010303221	 0.1337923716	 0.064215
H	-0.9868848646	-1.3776784391	 2.5221860398	 0.109994
H	 0.2960441171	-2.6382021941	 2.3576184687	 0.107813
H	 1.6864454416	-0.5231964953	 1.5691437663	 0.070872
H	-1.6445602812	-0.8787987859	-1.0892889577	 0.061486
H	-3.0702218167	-0.8863431434	 0.7224505573	 0.284245
193.1167	209.4948	231.3052	240.3175	305.347	363.8354	439.6189	476.1547	527.5473	615.6906	691.8296	739.1285	786.1093	832.0034	847.2332	876.7888	898.0777	948.2469	971.8656	980.241	1007.9258	1020.8252	1038.3449	1077.7322	1123.6519	1140.0783	1149.4607	1180.5798	1201.2391	1218.7513	1226.2318	1244.8341	1267.7007	1280.2134	1293.4716	1304.1744	1369.8269	1411.7758	1435.2907	1475.8545	1490.0854	1494.2051	1511.5314	3001.5462	3028.1479	3033.7347	3083.3222	3089.1853	3091.4783	3099.6357	3107.8514	3110.8315	3158.6193	3818.1278
CC12CN3C(CC13)C2O	C[C@@]12CN3[C@@H](C[C@H]13)[C@H]2O	
InChI=1S/C7H11NO/c1-7-3-8-4(6(7)9)2-5(7)8/h4-6,9H,2-3H2,1H3	InChI=1S/C7H11NO/c1-7-3-8-4(6(7)9)2-5(7)8/h4-6,9H,2-3H2,1H3/t4-,5+,6+,7+/m0/s1
