20
gdb 61771	2.5042	0.96152	0.73066	3.7221	80.37	-0.2583	-0.0302	0.2281	1531.0669	0.167988	-403.182056	-403.171492	-403.170547	-403.218671	36.87	
C	-0.0521770444	 1.6089180103	-0.0172576167	-0.417965
C	-0.0132872155	 0.0744086006	 0.0215112295	 0.014162
C	 0.7430988767	-0.4176696261	 1.2750373453	-0.294358
C	 2.2181428605	-0.0910567871	 1.207580532	 0.158814
O	 2.8246005283	 0.5510124342	 2.0249858859	-0.238519
C	-1.4446261702	-0.534566897	-0.0412733821	-0.134539
C	-2.2622826096	-0.0833988272	-1.2691704248	-0.408566
C	-1.3753777046	-2.0007552622	-0.0183440958	 0.2754
N	-1.3104142322	-3.1550614304	-0.0157467145	-0.331329
H	 0.9525260382	 2.0223206251	 0.1096115517	 0.139573
H	-0.4467260432	 1.9874075184	-0.9627987859	 0.127149
H	-0.6715065916	 2.005587463	 0.7957632415	 0.125638
H	 0.5265400157	-0.286299428	-0.8651750311	 0.097163
H	 0.3271391864	 0.0211806644	 2.1877529107	 0.120056
H	 0.6601554356	-1.5106860229	 1.3464080664	 0.14698
H	 2.7325969848	-0.5043306525	 0.3074199683	 0.077239
H	-1.9815737291	-0.227368811	 0.8666695799	 0.12844
H	-2.4573731518	 0.9896330266	-1.2277809375	 0.13366
H	-1.7255471928	-0.3063060062	-2.1960263682	 0.138026
H	-3.222929131	-0.6026893423	-1.3005840648	 0.142974
52.6104	62.7946	72.2272	139.7818	199.1659	208.0694	218.2899	275.2818	308.9549	341.752	400.9247	417.8011	513.406	565.868	587.0086	780.4959	814.995	881.9429	934.8001	965.76	976.2213	1028.1851	1054.23	1103.0855	1131.733	1158.5218	1164.7103	1224.7075	1273.6656	1313.86	1326.5661	1363.6911	1370.3341	1411.2108	1421.6544	1430.5036	1465.2611	1491.3618	1495.315	1498.6588	1512.0534	1836.3168	2353.0211	2850.9471	3008.7014	3024.6554	3026.2999	3037.8312	3053.5263	3093.1959	3104.787	3123.0291	3126.9537	3141.3694
CC(CC=O)C(C)C#N	C[C@@H](CC=O)[C@@H](C)C#N	
InChI=1S/C7H11NO/c1-6(3-4-9)7(2)5-8/h4,6-7H,3H2,1-2H3	InChI=1S/C7H11NO/c1-6(3-4-9)7(2)5-8/h4,6-7H,3H2,1-2H3/t6-,7-/m0/s1
