18
gdb 7558	3.5167	1.27558	1.098	1.6598	65.42	-0.2394	0.0762	0.3156	1134.0756	0.151094	-422.037588	-422.028409	-422.027465	-422.071392	33.22	
C	 0.0261773624	 1.3337999515	 0.0843134421	-0.225282
O	-0.0646877859	-0.0614509017	 0.2501757937	-0.253828
C	-1.3242679866	-0.5877846281	-0.1395610807	-0.123442
C	-1.1989754742	-2.087015369	-0.071045527	 0.393643
O	-0.1787916836	-2.5933128259	-0.8818691101	-0.476588
C	-1.4982410046	-2.8035563636	 1.2377911079	-0.382743
C	-2.4117020117	-2.9438844249	 0.0348011572	 0.044829
O	-3.6558436968	-2.303795746	 0.0169608461	-0.423738
H	 1.0295750578	 1.6366845554	 0.3936487713	 0.126951
H	-0.1297621596	 1.631142468	-0.9645147063	 0.108146
H	-0.7121495011	 1.8656586722	 0.7042791809	 0.106999
H	-2.1294434171	-0.2249997711	 0.5127028516	 0.100205
H	-1.5572219629	-0.2805929153	-1.1719331071	 0.097153
H	 0.6068588954	-2.0776055766	-0.6594064428	 0.288094
H	-0.8742638603	-3.6507400915	 1.4983219982	 0.116373
H	-1.8525113844	-2.2019247025	 2.0682042377	 0.112879
H	-2.3611272544	-3.8863204444	-0.5100032469	 0.101044
H	-4.2332477322	-2.7651476664	 0.6341837341	 0.289304
77.8995	103.0783	133.3531	226.178	239.6253	241.962	299.1042	350.1271	398.8984	429.3488	454.5991	476.7299	569.6782	751.7832	849.0436	922.6935	927.1549	975.9631	1004.3159	1016.4869	1046.0107	1099.4528	1153.6542	1163.1706	1186.2997	1223.6006	1226.0622	1272.0459	1281.2406	1321.3363	1367.624	1417.7314	1430.4947	1480.023	1485.6897	1501.2836	1517.6265	1520.3474	2970.7766	2981.0776	3019.6414	3039.797	3109.746	3113.3302	3133.4429	3230.722	3776.57	3805.7554
COCC1(O)CC1O	COC[C@@]1(O)C[C@H]1O	
InChI=1S/C5H10O3/c1-8-3-5(7)2-4(5)6/h4,6-7H,2-3H2,1H3	InChI=1S/C5H10O3/c1-8-3-5(7)2-4(5)6/h4,6-7H,2-3H2,1H3/t4-,5+/m1/s1
