13
gdb 33329	3.1342	0.87255	0.71167	1.6874	87.49	-0.2479	-0.0367	0.2112	1495.9488	0.085303	-382.167868	-382.15905	-382.158106	-382.202002	31.874	
C	-0.1473902795	-3.8219720174	-0.0120855798	-0.557573
C	-0.0912369379	-2.6157807699	-0.0031622665	 0.289772
C	-0.0305102383	-1.2581055718	 0.0052837349	-0.135764
C	 0.0309267669	-0.0493194016	 0.0171229505	 0.430841
C	 0.0553540734	 1.3821313231	-0.0001227344	-0.255137
O	 0.523709181	 2.0629164092	 1.1703316178	-0.219523
C	 1.331152821	 2.158255235	-0.006399411	-0.155258
C	 2.6169120376	 1.5206561135	 0.0015021844	 0.342026
C	 3.7071098238	 1.0163441272	-0.0175993859	-0.398754
H	-0.1949291671	-4.8828044371	-0.0187002381	 0.197289
H	-0.804166335	 1.8568028212	-0.4740899595	 0.12749
H	 1.2980147991	 3.1358095337	-0.4876179128	 0.126522
H	 4.6665222552	 0.560283285	-0.0264454996	 0.208069
55.5704	96.715	147.7935	204.3555	255.8802	260.651	406.1706	470.5171	522.6853	526.0314	544.9654	587.2376	603.376	612.8107	639.1339	676.2751	725.6757	834.0699	863.573	971.3657	1070.8744	1112.231	1188.7414	1272.0557	1371.9944	1411.2685	2183.8586	2245.1972	2359.3318	3104.1045	3114.2046	3501.7864	3503.3081
C#CC#CC1OC1C#C	C#CC#C[C@H]1O[C@H]1C#C	
InChI=1S/C8H4O/c1-3-5-6-8-7(4-2)9-8/h1-2,7-8H	InChI=1S/C8H4O/c1-3-5-6-8-7(4-2)9-8/h1-2,7-8H/t7-,8+/m0/s1
