15
gdb 30605	4.56426	1.08931	0.88432	1.7926	72.35	-0.2399	-0.0376	0.2023	1256.9522	0.112845	-457.823193	-457.815113	-457.814169	-457.856603	28.516	
C	 0.0865966404	 1.2878173346	 0.0079482117	-0.240202
O	-0.0290934658	-0.1393896621	 0.0012014946	-0.231367
C	-1.2921008613	-0.605388806	 0.0086642424	 0.358855
O	-2.2793044682	 0.093567468	 0.02013571	-0.381917
C	-1.3449560133	-2.0685677899	 0.0013532583	 0.250944
C	-2.4282606209	-2.9016631995	 0.0050618801	-0.231881
C	-1.9121276342	-4.228805001	-0.0059351404	-0.174855
C	-0.5544922304	-4.0995260756	-0.0154635458	-0.010581
O	-0.1923328448	-2.7988975892	-0.0111731459	-0.161233
H	 1.1562382911	 1.4969271789	 0.0011589317	 0.134417
H	-0.3939849659	 1.7186984569	-0.874198805	 0.141507
H	-0.3808986513	 1.7092534408	 0.9016094934	 0.141528
H	-3.4584539431	-2.5847626766	 0.0145196403	 0.138375
H	-2.4695124635	-5.1519174486	-0.0067062942	 0.122326
H	 0.2558092212	-4.8104782008	-0.0253320612	 0.144083
77.4324	110.4522	135.3291	149.4081	229.6684	314.3445	401.8599	490.4381	610.807	636.3339	773.2863	780.4637	807.1426	842.1987	893.527	901.9992	930.4117	1013.4554	1036.6338	1109.3342	1158.1713	1179.0108	1200.1631	1218.5049	1254.3135	1327.7443	1422.9316	1471.6796	1481.8368	1496.3559	1510.0651	1620.2483	1791.6556	3051.0302	3124.593	3159.7393	3258.9545	3276.2262	3285.4668
COC(=O)C1=CC=CO1	COC(=O)c1ccco1	
InChI=1S/C6H6O3/c1-8-6(7)5-3-2-4-9-5/h2-4H,1H3	InChI=1S/C6H6O3/c1-8-6(7)5-3-2-4-9-5/h2-4H,1H3
