16
gdb 125603	3.39685	1.26928	0.93045	1.9179	84.35	-0.1959	-0.008	0.1879	1212.9736	0.124221	-396.925658	-396.916531	-396.915587	-396.959203	33.656	
C	-0.0422732164	 1.4855940408	-0.0720537946	-0.511795
C	-0.0162036887	-0.0050147906	 0.028512955	 0.315592
N	-0.0130259665	-0.7796869163	-1.0593729723	-0.268204
N	 0.002975574	-2.0339097571	-0.6055769205	-0.310683
C	 0.02016707	-2.1106298916	 0.7672235008	 0.221421
C	 0.0485370901	-3.3144583136	 1.4895488324	 0.241493
C	 0.0822995555	-4.3373651629	 2.1284932441	-0.438028
C	 0.0036502314	-0.7897578846	 1.2083425287	 0.011358
N	-0.0632211406	-0.3347303656	 2.5251708213	-0.623299
H	 0.8584790326	 1.9409600264	 0.3592811544	 0.119678
H	-0.1007438269	 1.7845097117	-1.1205016088	 0.144626
H	-0.9038856721	 1.9068659008	 0.458681162	 0.133431
H	 0.001126857	-2.8032006848	-1.2525542852	 0.274459
H	 0.1016614784	-5.2403660653	 2.6864491524	 0.192047
H	 0.2031234854	-1.0401068063	 3.2001685559	 0.250467
H	 0.4613868668	 0.515377469	 2.6842132944	 0.247438
109.371	113.7577	124.936	230.6284	242.5275	269.4373	318.0934	389.3091	406.0141	464.9087	511.8354	517.7974	572.8081	681.6182	683.9092	691.0872	722.3716	763.2995	774.3268	995.4625	1000.615	1065.5348	1213.315	1227.2956	1256.622	1275.9579	1410.5785	1426.3354	1481.6508	1482.3421	1500.6762	1544.2371	1611.1717	1655.3236	2218.5107	3020.4348	3069.7416	3132.7649	3501.6725	3536.3666	3629.7669	3682.1909
CC1=NNC(C#C)=C1N	Cc1n[nH]c(C#C)c1N	
InChI=1S/C6H7N3/c1-3-5-6(7)4(2)8-9-5/h1H,7H2,2H3,(H,8,9)	InChI=1S/C6H7N3/c1-3-5-6(7)4(2)8-9-5/h1H,7H2,2H3,(H,8,9)
