17
gdb 123546	4.08145	1.64956	1.43142	3.1467	78.08	-0.2207	0.0265	0.2472	924.2779	0.140789	-380.852702	-380.846574	-380.84563	-380.883631	25.24	
C	-0.0291140821	 1.5839129655	-0.0637829849	-0.216498
C	 1.515459262	 1.3381493034	-0.0320778082	-0.007932
C	 1.2033424644	 0.1733540881	 0.9643596057	-0.216484
C	-0.0546263977	 0.0065867011	 0.0231748023	-0.189286
C	 0.6446482911	-0.3328097152	-1.2808030026	 0.433352
C	 0.7809182752	-1.0606258121	-2.4437387124	-0.447766
C	 1.9363120971	-0.4953506296	-3.0536139826	 0.003657
N	 2.4751868808	 0.498667481	-2.3347612221	-0.304588
N	 1.6616231018	 0.5602773293	-1.2742876784	 0.093355
H	-0.4037781097	 2.0640844192	 0.8430329109	 0.108139
H	-0.4401114741	 2.052215772	-0.9600795053	 0.117964
H	 2.269406407	 2.1058158734	 0.1173802416	 0.103123
H	 1.9199435753	-0.6488900265	 1.0087570641	 0.117955
H	 0.9402786706	 0.5258245531	 1.9642640695	 0.108135
H	-0.9393056751	-0.5502022153	 0.319775856	 0.087729
H	 0.1674078428	-1.8654831997	-2.8130204235	 0.102234
H	 2.3936058707	-0.7782252175	-3.9905888302	 0.106909
51.5573	300.8708	416.0185	484.2394	503.9694	646.5288	684.3193	692.8578	735.0753	784.6001	806.0759	825.6594	858.198	865.3839	902.6164	953.7917	997.502	1008.7723	1020.4067	1050.0869	1062.7818	1085.3181	1102.0485	1158.3651	1193.5705	1219.8365	1227.0754	1233.5693	1261.4763	1278.0887	1324.5912	1352.7038	1417.5046	1459.8415	1476.1167	1511.4929	1581.6734	3064.972	3073.3528	3136.8197	3141.7973	3159.5544	3170.8097	3243.6827	3273.8577
C1C2CC1C1=CC=NN21	C1[C@H]2C[C@@H]1c1ccnn21	
InChI=1S/C7H8N2/c1-2-8-9-6-3-5(4-6)7(1)9/h1-2,5-6H,3-4H2	InChI=1S/C7H8N2/c1-2-8-9-6-3-5(4-6)7(1)9/h1-2,5-6H,3-4H2/t5-,6+
