14
gdb 56739	2.43775	1.34191	1.13052	3.1649	62.56	-0.2829	-0.062	0.221	1090.7639	0.098176	-473.804103	-473.795335	-473.794391	-473.838226	30.741	
O	 0.8942845067	 1.484433898	-0.2310289484	-0.402416
C	 0.2166164143	 0.268757166	-0.0096447236	-0.098014
C	 0.2981642275	-0.620707005	-1.1856470697	 0.278082
N	 0.383180106	-1.3197249027	-2.1017188347	-0.325557
C	 0.7427214819	-0.4003751098	 1.2596042986	 0.246419
C	 1.368288822	-1.7408041313	 1.2864205644	-0.207863
O	 2.1661895522	-0.5623096833	 1.3022517193	-0.262672
C	 0.1497636886	 0.1030026197	 2.5466654213	 0.127745
O	-0.9040947366	 0.6767332393	 2.6159483149	-0.243659
H	 1.8400799669	 1.2848030878	-0.2379656968	 0.306939
H	-0.8328251254	 0.5265614371	 0.1660378056	 0.16834
H	 1.36479273	-2.3116475678	 2.2137936219	 0.136314
H	 1.3904336558	-2.3182732465	 0.3656354616	 0.167125
H	 0.77974606	-0.1169029712	 3.4349663856	 0.109215
45.6123	127.5875	150.1146	176.6001	223.6796	264.8867	347.3032	363.5715	442.983	499.504	504.5462	597.658	638.961	769.4912	879.1096	895.9106	945.5661	979.9907	1045.7619	1078.9577	1135.586	1177.5735	1215.2895	1284.3636	1335.3895	1353.4594	1415.0619	1429.1946	1518.4519	1831.8637	2356.8343	2915.7415	3081.3633	3096.6009	3198.0272	3771.6552
OC(C#N)C1(CO1)C=O	O[C@@H](C#N)[C@]1(CO1)C=O	
InChI=1S/C5H5NO3/c6-1-4(8)5(2-7)3-9-5/h2,4,8H,3H2	InChI=1S/C5H5NO3/c6-1-4(8)5(2-7)3-9-5/h2,4,8H,3H2/t4-,5+/m0/s1
