23
gdb 89014	3.85481	0.67342	0.6087	2.504	87.14	-0.2398	-0.0067	0.2331	1906.7252	0.202894	-388.308681	-388.297788	-388.296844	-388.346372	38.605	
C	 0.1181315724	 1.5205260696	-0.3223184691	-0.404052
C	 0.0377129223	 0.037496721	-0.0311995974	-0.005075
C	 1.2819088609	-0.817607329	 0.0319391016	-0.293902
C	 0.4689295039	-0.5717549385	 1.284574023	 0.004252
C	 1.0297780778	 0.2431111488	 2.4316060626	-0.206373
C	 1.8907444145	-0.6018613146	 3.3738623878	-0.29137
C	 2.5335138623	 0.1926413101	 4.5033731395	 0.37575
C	 3.2831018536	-0.614959817	 5.5502558736	-0.472777
O	 2.4559604307	 1.3986826978	 4.5652349667	-0.291749
H	 1.0169232547	 1.9749978948	 0.1033470854	 0.119593
H	 0.1423921639	 1.7007613585	-1.4028431074	 0.114732
H	-0.7474343163	 2.0562258048	 0.0836568148	 0.116676
H	-0.8264256421	-0.4434386345	-0.4836603553	 0.079843
H	 1.2718321811	-1.8022121368	-0.4231717388	 0.104918
H	 2.2366340194	-0.3045094131	-0.0467751711	 0.105057
H	-0.138100581	-1.4143690057	 1.6114047934	 0.074538
H	 1.6345087452	 1.0761911486	 2.0625716839	 0.113426
H	 0.2157892068	 0.7012860262	 3.0063297061	 0.106335
H	 1.3097283323	-1.4246570399	 3.8139399573	 0.111968
H	 2.6981930339	-1.0973476437	 2.8148965059	 0.123883
H	 4.0164878139	-1.2787645573	 5.0795871252	 0.134137
H	 3.7835958901	 0.0562022197	 6.2492522482	 0.141354
H	 2.5832324797	-1.2553469196	 6.099742874	 0.138835
29.7819	60.1087	89.2365	94.3709	116.6788	177.592	219.3204	243.7443	331.6908	380.8488	422.4016	480.636	520.6245	591.8424	731.794	765.0902	797.9771	844.5414	882.1455	887.007	924.4964	940.9503	968.8321	1017.1886	1054.1944	1076.5382	1091.5131	1112.8857	1150.59	1153.1376	1177.9888	1199.9659	1219.9006	1249.0771	1294.1207	1319.5767	1374.3229	1384.2207	1398.5024	1419.278	1430.9149	1448.057	1465.1526	1477.1772	1481.3525	1493.4759	1497.1891	1505.7026	1810.3378	3009.1387	3029.5268	3033.3569	3036.5513	3043.1281	3086.1635	3089.3334	3096.6242	3107.8838	3115.0719	3119.9456	3134.4024	3151.1342	3204.0441
CC1CC1CCC(C)=O	C[C@H]1C[C@H]1CCC(=O)C	
InChI=1S/C8H14O/c1-6-5-8(6)4-3-7(2)9/h6,8H,3-5H2,1-2H3	InChI=1S/C8H14O/c1-6-5-8(6)4-3-7(2)9/h6,8H,3-5H2,1-2H3/t6-,8+/m0/s1
