18
gdb 14766	8.05623	0.684	0.65509	1.657	71.42	-0.2644	0.0493	0.3137	1667.6737	0.151293	-384.89206	-384.882507	-384.881563	-384.927433	33.131	
O	-0.0716844472	 1.452489089	-0.1278964304	-0.420316
C	 0.0037510844	 0.0456854339	-0.0164676891	-0.058906
C	-1.3804124765	-0.5812925493	 0.0392523841	-0.072217
O	-2.038921557	-0.2223553559	-1.1634703061	-0.258321
C	-3.3925197076	-0.615858428	-1.2139862046	-0.046618
C	-3.9627562953	-0.1481047791	-2.5574267712	-0.351483
C	-5.3640931094	-0.5113169359	-2.7157281096	 0.285992
C	-6.5197852811	-0.8238146423	-2.8190407408	-0.445031
H	-0.6888836991	 1.6232404523	-0.8489814543	 0.28781
H	 0.5632454811	-0.3969495915	-0.8561688614	 0.093762
H	 0.548268731	-0.1795544932	 0.9062863036	 0.109455
H	-1.3119893511	-1.676975093	 0.1372437113	 0.090281
H	-1.9358095576	-0.1911441054	 0.9068248192	 0.098331
H	-3.4842441212	-1.7093897426	-1.1262945412	 0.103871
H	-3.9616934808	-0.1690948578	-0.3841657483	 0.105261
H	-3.8412807495	 0.9392821279	-2.631194054	 0.138111
H	-3.3619975061	-0.5847993389	-3.364002778	 0.141624
H	-7.5413864669	-1.0934741303	-2.9236599192	 0.198395
44.1533	70.0114	100.0549	124.0384	168.0516	222.1137	335.3257	355.1751	384.0132	442.8666	485.0094	575.5767	626.3059	651.9962	797.5351	864.3306	907.1501	973.0052	1045.1102	1069.2843	1090.1153	1090.5882	1139.0617	1158.706	1228.4101	1237.7455	1265.2719	1301.3189	1308.1509	1383.0611	1387.6844	1434.3576	1445.7493	1477.6367	1498.9336	1503.2001	1531.7175	2243.0253	2967.5797	2978.4911	2982.0063	3011.3193	3013.7007	3033.9805	3071.8676	3080.6239	3506.7425	3797.6582
OCCOCCC#C	OCCOCCC#C	
InChI=1S/C6H10O2/c1-2-3-5-8-6-4-7/h1,7H,3-6H2	InChI=1S/C6H10O2/c1-2-3-5-8-6-4-7/h1,7H,3-6H2
