17
gdb 94033	3.67502	0.9448	0.91369	4.0371	73.94	-0.2621	-0.0009	0.2612	1341.5677	0.136401	-418.045499	-418.036743	-418.035799	-418.080316	30.88	
C	-0.4132291895	 1.373061685	-0.0253763595	-0.38952
C	-0.0084476938	-0.0682520518	-0.325902932	 0.023343
C	 1.4297538628	-0.2152154351	-0.9010785394	-0.122622
O	 2.0737922554	-1.1588804361	-0.0115756041	-0.2498
C	 1.1668003934	-1.4113441909	 0.9629219006	 0.415968
C	 1.6372707191	-2.3497212049	 2.0408922451	-0.418581
C	 2.8326610619	-1.865014932	 2.7324560273	 0.268673
N	 3.7711341118	-1.4891983155	 3.2902617034	-0.300413
N	 0.015350312	-0.8873454674	 0.9041342776	-0.310632
H	 0.2967079283	 1.8361476501	 0.6674791809	 0.126531
H	-0.4374002468	 1.9680779245	-0.9443881127	 0.117368
H	-1.4053152005	 1.4024094733	 0.4318954218	 0.135259
H	-0.7456256022	-0.5085925245	-1.0081718729	 0.094628
H	 1.4654077377	-0.6237847566	-1.9133376504	 0.124714
H	 1.9969417107	 0.7205937491	-0.8711165138	 0.124392
H	 0.8228426853	-2.4821914757	 2.7561096234	 0.185289
H	 1.8651868342	-3.3260273515	 1.5967938947	 0.175401
33.2519	80.1865	98.9188	206.9744	229.7947	293.096	371.003	381.4321	434.452	463.047	640.2224	697.7078	772.0988	848.1131	888.303	937.078	937.308	949.2174	988.6205	1016.3036	1088.4097	1121.3324	1161.1833	1210.6336	1227.356	1271.1097	1308.7917	1341.43	1368.293	1390.7094	1410.1419	1446.9434	1487.9972	1496.1813	1519.8947	1744.7394	2372.1982	3027.3272	3037.3259	3051.8054	3053.2811	3107.0236	3110.4931	3124.9622	3126.2317
CC1COC(CC#N)=N1	C[C@H]1COC(=N1)CC#N	
InChI=1S/C6H8N2O/c1-5-4-9-6(8-5)2-3-7/h5H,2,4H2,1H3	InChI=1S/C6H8N2O/c1-5-4-9-6(8-5)2-3-7/h5H,2,4H2,1H3/t5-/m0/s1
