21
gdb 103736	2.65754	1.22771	0.97772	3.4484	80.4	-0.2507	-0.0359	0.2148	1297.3761	0.177991	-424.229277	-424.218602	-424.217658	-424.264978	38.344	
C	 0.0379829351	 1.3008761373	-0.5750225357	-0.375976
C	-0.1111922843	 0.1534284601	 0.4348742381	-0.254516
C	-1.4617030774	-0.5459067685	 0.3217571886	 0.341151
C	-2.6163127301	 0.2187422904	 0.9397342914	-0.47773
O	-1.7443378015	-1.1451344377	-0.947268194	-0.303861
C	-1.5364811787	-2.0384919944	 0.1463756996	 0.224646
C	-0.3131141257	-2.9346445934	 0.0801712772	-0.485282
C	-2.7580090908	-2.7740863317	 0.6359911051	 0.109657
O	-3.8981788758	-2.5279644381	 0.3385100803	-0.251255
H	 1.0275562944	 1.7591182432	-0.4902928153	 0.114766
H	-0.0816858943	 0.9262175614	-1.5953083471	 0.137782
H	-0.7056902957	 2.0871576201	-0.4151271151	 0.122104
H	 0.7064282298	-0.5549529477	 0.2870272094	 0.101016
H	-0.0094175794	 0.5369722475	 1.4571524465	 0.103079
H	-2.649852021	 1.233303247	 0.5306537441	 0.127467
H	-3.5681523522	-0.2657631804	 0.7287153095	 0.16526
H	-2.4839239904	 0.3031398575	 2.0237595327	 0.117177
H	 0.5052838384	-2.4466087901	-0.447392627	 0.144079
H	 0.0289173728	-3.2153452325	 1.0820812927	 0.12915
H	-0.5498067217	-3.8569730108	-0.4617637534	 0.134798
H	-2.5136486416	-3.6146032494	 1.3263140125	 0.076489
60.1132	99.896	117.4083	135.7915	178.1478	217.5014	236.9978	274.2354	301.1484	316.1806	376.1278	392.4532	480.429	516.2345	652.994	693.0138	749.2331	785.1592	850.8805	898.8624	952.1644	995.9565	1005.6689	1023.0272	1054.9303	1102.4368	1134.7255	1168.206	1186.5937	1238.4221	1300.032	1358.4737	1397.2897	1405.8292	1407.1881	1421.9918	1439.8417	1478.3989	1480.9163	1492.7251	1498.2147	1503.7403	1509.0749	1514.5366	1827.2717	2862.6914	3039.1386	3040.9081	3044.6464	3047.3672	3096.2649	3097.2094	3103.3952	3116.2398	3125.0851	3157.2684	3168.2496
CCC1(C)OC1(C)C=O	CC[C@@]1(C)O[C@]1(C)C=O	
InChI=1S/C7H12O2/c1-4-6(2)7(3,5-8)9-6/h5H,4H2,1-3H3	InChI=1S/C7H12O2/c1-4-6(2)7(3,5-8)9-6/h5H,4H2,1-3H3/t6-,7-/m1/s1
