20
gdb 14801	6.98872	0.64622	0.61308	1.7712	69.85	-0.2587	0.0758	0.3345	1825.5896	0.174774	-423.246864	-423.236712	-423.235768	-423.283364	34.005	
C	 0.7673394	 1.6018002678	-0.2887715931	-0.225995
O	 0.8606732789	 0.2033520238	-0.1608448612	-0.232011
C	-0.2541224536	-0.471908566	-0.6919206382	-0.068093
C	-0.028040659	-1.9620593306	-0.4873763366	-0.067439
O	-1.1440722276	-2.6442540776	-1.0161800931	-0.263462
C	-1.0629217635	-4.0535162625	-0.9004909731	-0.067266
C	-2.2588532145	-4.6228414552	-1.6469491203	-0.058727
O	-2.2457387921	-4.2409834118	-3.0078486151	-0.421207
H	 0.7013913377	 1.9119204998	-1.3436887919	 0.105769
H	-0.1111845309	 2.0026154293	 0.2412156123	 0.105699
H	 1.6710210841	 2.0315804881	 0.1498648256	 0.128568
H	-1.1855045785	-0.1647601061	-0.1885073985	 0.095757
H	-0.3760577285	-0.2584106333	-1.7669126205	 0.092021
H	 0.9008686588	-2.2708287543	-0.9916781553	 0.101624
H	 0.0915319831	-2.1740313432	 0.5864780635	 0.100137
H	-0.127571224	-4.4184099089	-1.3538135201	 0.097092
H	-1.0764895106	-4.362203027	 0.1576434991	 0.088961
H	-2.2285529387	-5.7168727252	-1.6145377264	 0.108179
H	-3.1832151176	-4.2950094599	-1.1446838469	 0.092687
H	-2.0973434934	-3.287961797	-3.0074566603	 0.287704
49.8729	55.977	91.5604	114.0889	130.9776	177.0704	235.8833	258.3916	315.3331	390.2377	443.1052	476.4389	566.4358	833.8073	867.5628	907.8773	995.7774	1052.5334	1081.0297	1099.2087	1136.1894	1164.353	1165.1487	1176.4782	1192.6754	1229.5933	1234.0992	1243.6949	1265.6675	1292.2655	1354.9432	1385.7563	1405.9734	1438.8876	1455.9823	1484.1255	1486.3225	1499.2069	1503.4729	1505.3965	1530.0395	1537.1209	2960.1287	2966.188	2974.3417	2977.5299	2981.9738	2988.6038	3010.8058	3015.3668	3021.7418	3079.5535	3115.9004	3794.4137
COCCOCCO	COCCOCCO	
InChI=1S/C5H12O3/c1-7-4-5-8-3-2-6/h6H,2-5H2,1H3	InChI=1S/C5H12O3/c1-7-4-5-8-3-2-6/h6H,2-5H2,1H3
