19
gdb 104131	2.86312	1.23602	1.16358	2.6679	71.61	-0.2438	-0.0208	0.223	1162.8108	0.156907	-460.189046	-460.179871	-460.178927	-460.222999	34.084	
C	 0.2018418143	 1.3948606641	 0.0424234335	-0.257888
O	 0.2111035133	-0.0240899246	 0.0492919036	-0.280373
C	 0.6310877231	-0.6407783651	 1.2527551931	 0.457731
C	-0.2379549353	-0.2841064198	 2.4495159816	-0.452849
C	 0.7267794931	-2.1294474712	 0.9064352328	-0.372667
C	 2.131494245	-2.243469053	 0.3198376533	 0.375691
O	 2.5869354607	-3.1416317321	-0.3341688429	-0.299517
C	 2.8675049792	-0.9655848143	 0.7347383806	-0.190128
O	 1.971664236	-0.255713789	 1.5746033438	-0.28419
H	 1.1370465126	 1.8024808718	 0.4421323882	 0.127651
H	 0.0924010335	 1.6984276796	-1.0010274597	 0.129069
H	-0.640958747	 1.8034590801	 0.6153563946	 0.112616
H	-1.2867311094	-0.4981881564	 2.2283220841	 0.129704
H	 0.0696251237	-0.8640648386	 3.3223308191	 0.127652
H	-0.1366477802	 0.7748783986	 2.698240128	 0.132083
H	 0.6678343029	-2.7471706096	 1.8089339719	 0.133062
H	-0.0344416426	-2.4577193427	 0.1992144554	 0.145792
H	 3.7809531878	-1.1951114258	 1.2917453648	 0.135556
H	 3.1416983294	-0.3943743318	-0.1629248257	 0.131007
66.2166	114.8183	157.2404	192.7639	235.7677	268.4956	311.4367	372.6711	404.3138	460.8543	469.414	550.3807	631.8735	657.2589	772.9303	791.6748	828.8915	871.2835	927.1542	995.1949	1068.6594	1091.4435	1093.3924	1130.0671	1178.7454	1179.7879	1194.8346	1217.171	1229.9798	1250.0228	1318.7234	1340.2767	1411.2078	1437.3103	1466.4585	1477.8369	1482.8951	1488.2335	1505.7934	1514.5484	1865.3875	3010.8664	3016.4866	3055.6627	3063.6269	3077.1787	3087.141	3123.6356	3133.8183	3135.7393	3146.7725
COC1(C)CC(=O)CO1	CO[C@@]1(C)CC(=O)CO1	
InChI=1S/C6H10O3/c1-6(8-2)3-5(7)4-9-6/h3-4H2,1-2H3	InChI=1S/C6H10O3/c1-6(8-2)3-5(7)4-9-6/h3-4H2,1-2H3/t6-/m1/s1
