15
gdb 31692	4.96484	0.9226	0.78181	2.9795	70.97	-0.2393	-0.0488	0.1905	1366.8604	0.112966	-453.990907	-453.982581	-453.981637	-454.024606	29.232	
O	 0.0033746503	 1.4223306768	 0.007701613	-0.418951
C	 0.0091640993	 0.0053178769	 0.002487781	-0.181311
C	-1.4068348374	-0.4650906263	 0.0121419378	 0.270733
C	-2.5429148843	 0.2808411249	 0.0229418389	-0.175911
N	-3.5924376111	-0.6392679974	 0.0284508602	-0.054643
C	-4.9581867579	-0.3562928915	 0.0397923677	 0.181504
O	-5.8169758216	-1.1960395496	 0.0441743396	-0.278607
C	-3.0100183627	-1.8946457409	 0.0204376219	 0.027081
N	-1.7107954567	-1.8229889866	 0.0107248423	-0.32155
H	 0.9148369184	 1.7266091389	 0.0016593413	 0.294671
H	 0.5185555053	-0.3997339511	-0.8867848398	 0.11234
H	 0.5327385715	-0.4062783602	 0.8804301099	 0.112359
H	-2.7104389873	 1.3433781862	 0.0272577796	 0.159517
H	-5.1513278527	 0.7310715511	 0.044459494	 0.108116
H	-3.614456483	-2.787628101	 0.0225914625	 0.16465
63.5378	107.1002	142.8357	218.3604	244.0323	247.0883	290.1385	460.9364	504.1371	623.9241	677.0316	721.7156	750.7777	806.4214	862.2464	988.1803	1035.3803	1035.8982	1047.904	1089.7348	1165.3899	1218.3379	1234.8631	1250.708	1276.736	1310.7817	1420.627	1441.9255	1466.7202	1511.7721	1538.0004	1635.4058	1831.2307	2969.8373	2985.359	2990.491	3277.3474	3298.2126	3845.2398
OCC1=CN(C=O)C=N1	OCc1cn(C=O)cn1	
InChI=1S/C5H6N2O2/c8-2-5-1-7(4-9)3-6-5/h1,3-4,8H,2H2	InChI=1S/C5H6N2O2/c8-2-5-1-7(4-9)3-6-5/h1,3-4,8H,2H2
