15
gdb 131056	3.86736	1.05951	0.89352	4.463	66.64	-0.2574	-0.0157	0.2417	1237.7517	0.11374	-453.958245	-453.950259	-453.949315	-453.992145	28.108	
O	 0.7988763523	 1.0396457615	-1.4266992318	-0.32843
C	 0.3686194579	 1.4402335085	-0.3630815134	 0.160465
N	 1.0761731253	 1.4499457259	 0.7948401699	-0.255649
C	 2.4752567823	 1.0246615997	 0.8267935301	-0.315517
C	 3.4393800336	 2.0411299636	 0.282744282	 0.146378
C	 3.6414991708	 2.4060020006	-1.0145498178	 0.00746
O	 4.5820308779	 3.3537786781	-1.0973672374	-0.157704
N	 5.0474570074	 3.6488501163	 0.1811914973	-0.132103
C	 4.3631331049	 2.8693197198	 0.9809096734	-0.05148
H	-0.6607532409	 1.8260475719	-0.2325282879	 0.087353
H	 0.6816691683	 1.9099356509	 1.5995215661	 0.254415
H	 2.7272621394	 0.7840687373	 1.8625126282	 0.120551
H	 2.5405346939	 0.1011684204	 0.2458715459	 0.15419
H	 3.1829672289	 2.0881655551	-1.9373975949	 0.181884
H	 4.5540798381	 2.9151632704	 2.0448612004	 0.128187
44.7398	75.8911	132.5187	223.3856	261.0556	322.3011	425.0566	492.1735	619.3207	655.4477	728.9022	768.3181	885.2403	897.1041	911.5324	938.344	948.8723	1003.0062	1030.361	1038.2097	1149.5643	1198.1945	1201.2528	1283.8575	1288.4965	1386.0201	1413.3366	1426.2447	1465.3984	1471.7788	1519.6102	1636.8533	1792.0781	2951.4003	3068.9022	3116.3622	3233.6295	3281.3071	3640.1716
O=CNCC1=CON=C1	O=CNCc1conc1	
InChI=1S/C5H6N2O2/c8-4-6-1-5-2-7-9-3-5/h2-4H,1H2,(H,6,8)	InChI=1S/C5H6N2O2/c8-4-6-1-5-2-7-9-3-5/h2-4H,1H2,(H,6,8)
