20
gdb 48849	2.79226	1.33536	1.10852	3.4333	79.18	-0.2409	-0.0209	0.22	1163.3983	0.172967	-403.157273	-403.149171	-403.148227	-403.189954	31.558	
O	-0.4595666283	 0.6475934225	 0.7580300724	-0.270221
C	 0.2039003763	 0.9699676259	-0.1960935726	 0.140052
C	 1.4038274796	 1.8575818775	-0.1343924128	 0.195675
C	 1.9543996998	 2.140493191	 1.2505209669	-0.278952
C	 2.95298202	 3.3046352846	 1.2932868303	-0.22896
C	 2.3924865428	 4.5280366289	 0.563004534	-0.187541
C	 2.1729903478	 4.246244119	-0.9319380207	-0.232012
C	 1.5132350729	 2.9003467439	-1.2222228165	-0.040937
N	 2.2946625978	 1.6667122514	-1.3033626622	-0.365175
H	-0.0370995545	 0.627066711	-1.2269680123	 0.082054
H	 1.0990216439	 2.3621662708	 1.8983033183	 0.127391
H	 2.4051723685	 1.2256344389	 1.6534904487	 0.109482
H	 3.172089754	 3.5478503147	 2.337885929	 0.105487
H	 3.912812063	 3.011191792	 0.8453040154	 0.092458
H	 1.4364155422	 4.8059854987	 1.0251930812	 0.105173
H	 3.0585041618	 5.3894477106	 0.6787239824	 0.098497
H	 1.5590940101	 5.0388292276	-1.371396538	 0.1099
H	 3.1343748674	 4.2828995971	-1.4619661811	 0.108641
H	 0.7175452119	 2.9313553189	-1.9643833976	 0.097457
H	 3.258199983	 1.8414361949	-1.0240813047	 0.23153
86.8299	128.5208	221.0402	238.218	302.6786	362.5508	380.9442	444.679	496.0281	531.3635	639.233	720.0515	762.5652	816.2005	827.4922	889.7535	919.6451	936.953	969.8562	1015.5756	1035.5444	1063.3005	1084.0003	1113.0637	1118.2969	1167.7074	1204.0696	1208.6664	1273.4242	1297.3615	1309.3658	1332.7634	1365.6751	1368.1556	1382.4766	1390.7797	1416.1176	1431.5802	1484.8894	1487.4317	1492.4148	1502.6413	1819.16	2891.4276	3007.7502	3016.4306	3026.7711	3036.4566	3068.723	3071.6776	3076.8252	3080.4982	3118.254	3490.0613
O=CC12CCCCC1N2	O=C[C@]12CCCC[C@H]1N2	
InChI=1S/C7H11NO/c9-5-7-4-2-1-3-6(7)8-7/h5-6,8H,1-4H2	InChI=1S/C7H11NO/c9-5-7-4-2-1-3-6(7)8-7/h5-6,8H,1-4H2/t6-,7-/m1/s1
