20
gdb 72442	2.34626	2.14164	1.50848	1.5435	76.77	-0.2338	0.0775	0.3112	951.8083	0.173947	-403.129139	-403.122025	-403.12108	-403.160066	30.088	
C	-0.0463377297	 1.4935773192	 0.0168435879	-0.497347
C	 0.0057390647	-0.0226581277	 0.0303631217	 0.283233
C	 0.7962565239	-0.6817789093	-1.1303559713	-0.09011
O	 1.0628000382	-2.0251160569	-0.6836991584	-0.283488
C	 0.4862413565	-2.1237706311	 0.6373587123	 0.08899
C	 0.7213637	-0.7231248861	 1.2125521273	-0.274337
C	-1.0272396922	-2.1588866917	 0.4113301166	-0.046475
N	-1.813716008	-1.2777353275	 1.3080189005	-0.358911
C	-1.3404444521	-0.7678044666	 0.0020711259	-0.063992
H	 0.9597611698	 1.9256261122	 0.0516265254	 0.11523
H	-0.5377861944	 1.8688073176	-0.8885500402	 0.111882
H	-0.6061410203	 1.8704833154	 0.878593633	 0.128025
H	 0.2255895914	-0.7091000857	-2.0676832248	 0.091193
H	 1.746536453	-0.163672866	-1.3180846772	 0.092438
H	 0.9401582048	-2.9756373498	 1.1431528643	 0.072275
H	 1.7856079515	-0.4813633315	 1.2612683075	 0.094164
H	 0.2417419258	-0.5481294135	 2.1733702	 0.128549
H	-1.4887630923	-3.0252383096	-0.048185499	 0.092891
H	-2.796030415	-1.5264027636	 1.2173214719	 0.231802
H	-2.0612898255	-0.538427868	-0.7768087535	 0.083987
218.6132	220.5354	267.9135	315.1771	363.7932	400.3661	485.1495	549.6491	590.7311	604.0219	767.2956	794.7025	858.4422	871.8794	893.1791	898.8148	907.9168	926.8375	946.0945	967.0007	984.9145	1014.0095	1038.7429	1066.9747	1097.2112	1126.5549	1146.4992	1181.4776	1202.1834	1227.3742	1237.2064	1265.2379	1278.8141	1297.3432	1319.1595	1361.5909	1375.0978	1412.2309	1416.4699	1479.696	1493.7791	1497.1285	1523.5194	3002.1644	3025.3665	3040.6966	3082.3588	3087.1295	3101.6776	3122.4874	3155.6734	3160.7099	3183.6833	3500.4369
CC12COC(C1)C1NC21	C[C@@]12CO[C@@H](C1)[C@H]1N[C@@H]21	
InChI=1S/C7H11NO/c1-7-2-4(9-3-7)5-6(7)8-5/h4-6,8H,2-3H2,1H3	InChI=1S/C7H11NO/c1-7-2-4(9-3-7)5-6(7)8-5/h4-6,8H,2-3H2,1H3/t4-,5+,6+,7-/m0/s1
