20
gdb 90063	2.55341	1.71768	1.47051	3.1121	80.43	-0.2003	0.0466	0.2469	1001.1283	0.170282	-402.983198	-402.974999	-402.974055	-403.015207	33.193	
C	-0.1383944987	 1.457361375	-0.1796209991	-0.486212
C	 0.0465436836	-0.0392773556	-0.0017813463	 0.356878
C	-1.2548551382	-0.6826150575	 0.6847464899	 0.018252
O	-1.8335176521	-1.8281274155	 0.1118208832	-0.412488
C	-0.3651364947	-0.8873217361	 2.0118827776	-0.385306
C	 0.8469214928	-0.7488380056	 1.0647345026	 0.217182
C	 2.1205279915	-0.1362972992	 0.4028446973	-0.265804
N	 1.2776917253	-0.6211865684	-0.8348828515	-0.221983
C	 1.0547754819	-1.8728902135	 0.0173057886	-0.194889
H	 0.7594076748	 1.9495613086	-0.5578669958	 0.129033
H	-0.9377187781	 1.6348616905	-0.9087165179	 0.127176
H	-0.4335537292	 1.95450414	 0.7522832682	 0.115366
H	-2.0161237704	 0.0992708065	 0.8119955488	 0.076781
H	-2.5806262513	-2.0922910719	 0.6591871939	 0.288938
H	-0.5098974412	-0.0574310655	 2.7092388392	 0.106243
H	-0.4875620047	-1.8374148929	 2.5402117196	 0.100063
H	 2.2693900958	 0.9420025157	 0.4615016922	 0.105723
H	 3.0712133649	-0.6723595771	 0.4754384787	 0.102637
H	 1.9542165669	-2.4856576743	 0.1299975626	 0.085138
H	 0.202494581	-2.469211363	-0.2979917016	 0.13727
150.3166	176.3681	220.2908	239.0611	286.2779	344.6225	382.817	438.328	467.5728	550.8439	586.4191	623.0963	736.8271	753.2813	773.9784	838.7662	865.4623	876.3095	908.6962	948.2198	990.4479	1030.1491	1054.6011	1065.9614	1100.1327	1143.9727	1155.4144	1172.7389	1178.214	1191.3836	1195.1191	1210.6801	1243.64	1259.8594	1286.8342	1309.5196	1407.3773	1426.9971	1467.3204	1486.5323	1490.2004	1521.557	1558.144	2997.9009	3025.4522	3050.5079	3054.6885	3063.1785	3078.7725	3112.3925	3124.205	3142.8043	3176.5974	3804.4766
CC12C(O)CC11CN2C1	C[C@]12[C@@H](O)C[C@@]31CN2C3	
InChI=1S/C7H11NO/c1-6-5(9)2-7(6)3-8(6)4-7/h5,9H,2-4H2,1H3	InChI=1S/C7H11NO/c1-6-5(9)2-7(6)3-8(6)4-7/h5,9H,2-4H2,1H3/t5-,6-/m0/s1
