21
gdb 90486	2.90934	1.23098	1.04721	1.4837	82.97	-0.2277	0.0872	0.3149	1243.7464	0.182432	-387.031651	-387.023119	-387.022175	-387.06506	33.177	
C	-0.2561697515	 1.5424876483	 0.010932315	-0.413518
C	 0.0756955418	 0.0640559195	 0.0274209548	 0.154308
O	 1.0794611572	-0.3528726812	-0.9520692622	-0.306849
C	 1.7433497293	-1.1373154832	 0.0459117233	 0.06041
C	 2.3612169044	-0.2646065087	 1.0896868018	-0.033789
C	 2.9978931624	 1.0565977871	 0.7876047813	 0.008456
C	 3.2857147607	 2.047677099	 1.8903030745	-0.268801
C	 4.4209287917	 1.3143402564	 1.2205056414	-0.282442
C	 0.8694407642	-0.5919352685	 1.1572873178	-0.184883
H	-0.6118645598	 1.8360807713	-0.982302193	 0.125069
H	-1.0592901907	 1.7447356772	 0.7281758387	 0.116756
H	 0.602846799	 2.1611020948	 0.2734725749	 0.130846
H	-0.8365246419	-0.5188541567	-0.1625605649	 0.0813
H	 2.0513126663	-2.1405264705	-0.2278476622	 0.098548
H	 2.8920484995	-0.8482118519	 1.841952357	 0.084755
H	 2.7140979401	 1.4676633523	-0.1744465104	 0.101428
H	 3.158764554	 3.1050257511	 1.683395742	 0.109127
H	 3.0270953158	 1.7611373215	 2.9046013129	 0.108737
H	 4.9265856532	 0.5386938391	 1.7873421276	 0.107624
H	 5.0706996407	 1.8664233829	 0.5504715061	 0.111662
H	 0.4322145835	-1.0935558396	 2.0107207638	 0.091254
59.3724	148.1329	150.4215	215.8505	235.9261	303.0519	333.6399	433.8391	569.425	582.8991	720.677	741.0028	784.088	797.6313	831.9513	857.9216	878.7581	915.6003	933.4301	957.6241	990.2117	1022.8142	1046.9983	1054.3558	1059.8785	1076.7359	1082.9259	1093.6483	1137.0062	1151.9218	1159.7129	1201.8079	1221.9762	1234.056	1261.7592	1301.546	1316.6641	1364.4931	1394.2691	1409.5274	1467.3216	1469.815	1486.2644	1496.3797	1506.2088	3000.7074	3041.1077	3101.7175	3111.3666	3125.1176	3129.9115	3147.482	3168.6127	3175.9483	3195.0011	3202.8752	3219.17
CC1OC2C(C3CC3)C12	C[C@H]1O[C@H]2[C@@H](C3CC3)[C@@H]12	
InChI=1S/C8H12O/c1-4-6-7(5-2-3-5)8(6)9-4/h4-8H,2-3H2,1H3	InChI=1S/C8H12O/c1-4-6-7(5-2-3-5)8(6)9-4/h4-8H,2-3H2,1H3/t4-,6-,7+,8-/m1/s1
