15
gdb 28398	3.27745	1.44871	1.00644	1.8645	76.9	-0.1834	-0.0215	0.1619	1108.2071	0.114875	-450.17248	-450.164556	-450.163612	-450.20454	30.921	
N	 0.0984573464	 1.3323837717	 0.1660405531	-0.565013
C	-0.0540989858	-0.0244642448	 0.0558597338	 0.467604
N	-1.1946537933	-0.6059588372	 0.0478123495	-0.348583
C	-1.1823888457	-1.9892171819	-0.0000972721	-0.105141
C	-0.0481596332	-2.7332144619	-0.0505054803	 0.216413
N	 0.0238824342	-4.1174612661	-0.1711220752	-0.590814
C	 1.2284026566	-2.0360942251	-0.0258315889	 0.364104
N	 2.3495365736	-2.6338464709	-0.0315835344	-0.558933
O	 1.1539142272	-0.6492010266	 0.0137390807	-0.2502
H	 0.9550751273	 1.7138330592	-0.2037914865	 0.265276
H	-0.737562612	 1.8548792917	-0.0439393604	 0.272245
H	-2.1593448724	-2.4629057359	-0.0047371169	 0.099385
H	-0.7377449663	-4.6234828081	 0.2564902166	 0.245214
H	 0.9336723736	-4.4722703936	 0.0941991987	 0.265571
H	 3.1267150797	-1.9760826306	 0.0025669424	 0.222872
119.5027	155.5545	297.1327	319.8451	329.0389	377.158	393.6419	408.6818	482.9644	529.3906	546.3321	574.9428	652.7484	724.9751	748.1379	767.8907	809.1395	827.7657	909.2675	972.8835	1025.3067	1107.9859	1138.2676	1244.4833	1295.6959	1301.9396	1402.0743	1456.8851	1607.845	1622.0807	1661.7871	1682.3546	1749.4468	3172.8386	3508.4802	3545.5898	3589.9537	3655.9748	3708.3824
NC1=NC=C(N)C(=N)O1	NC1=NCC(=C([NH])O1)N	
InChI=1S/C4H6N4O/c5-2-1-8-4(7)9-3(2)6/h1,6H,5H2,(H2,7,8)	InChI=1S/C4H7N4O/c5-2-1-8-4(7)9-3(2)6/h6H,1,5H2,(H2,7,8)
