18
gdb 67719	3.66859	1.8201	1.59828	0.5345	81.54	-0.2081	-0.0307	0.1775	893.8745	0.148409	-364.699522	-364.692801	-364.691856	-364.730027	28.459	
C	-0.0175634244	 1.4647458735	-0.0635504529	-0.488416
C	-0.0920378691	-0.0301726987	 0.0713230875	 0.334052
C	-1.1373607053	-0.8682395584	-0.5148032644	-0.175825
C	-0.9062496069	-2.1616210795	-0.1613841797	-0.004366
C	-0.0548028831	-2.90886518	-1.1996791052	-0.265237
C	 1.0955038738	-2.2536729638	-0.3315683247	 0.040281
C	 0.1950385699	-2.21116517	 0.9203416146	-0.094326
C	 0.6313511769	-0.7702004219	 1.1278231998	-0.086213
N	 1.312041622	-0.7394403764	-0.2181625579	-0.229894
H	 0.9571906181	 1.8365855072	 0.2599119196	 0.134007
H	-0.1684597443	 1.7724342854	-1.1030473652	 0.126061
H	-0.7932077967	 1.9392102854	 0.5473312717	 0.123373
H	-1.5743725517	-0.5968739562	-1.4722249568	 0.094623
H	 0.0181468536	-3.9986538827	-1.1043711326	 0.105717
H	-0.1802727934	-2.6238431579	-2.2452007867	 0.113799
H	 2.0743518385	-2.7376476897	-0.329057204	 0.102054
H	 0.1851916465	-2.9806159584	 1.6878432757	 0.077886
H	 1.0688706558	-0.313552828	 2.0085077112	 0.092426
172.3072	224.5927	297.3565	377.5081	449.1503	519.0888	546.4648	580.9004	651.3712	696.7975	760.4689	784.5725	819.0653	854.0624	868.7927	889.4241	913.7371	938.879	966.5761	991.5376	1016.8351	1032.5714	1049.7028	1070.2291	1075.5892	1116.0151	1159.5326	1186.2524	1227.5025	1237.0018	1249.3457	1272.4047	1332.6639	1382.7177	1418.6085	1485.4757	1487.4485	1491.9965	1548.7171	3034.3549	3038.185	3096.6974	3100.59	3124.7517	3126.9331	3144.7844	3158.9262	3175.3914
CC12C=C3CC4C3C1N24	C[C@]12[CH][C]3C[C@@H]4[C@H]3[C@H]1N24	
InChI=1S/C8H9N/c1-8-3-4-2-5-6(4)7(8)9(5)8/h3,5-7H,2H2,1H3	InChI=1S/C8H9N/c1-8-3-4-2-5-6(4)7(8)9(5)8/h3,5-7H,2H2,1H3/t5-,6+,7-,8+,9?/m1/s1
