21
gdb 98561	3.92198	0.92428	0.76799	2.8793	87.3	-0.2376	-0.0423	0.1952	1530.9496	0.182161	-387.136535	-387.12704	-387.126096	-387.171725	34.414	
C	-0.0757725854	 1.5445245248	 0.049261168	-0.380038
C	 0.0515341618	 0.0256639251	-0.0219406186	-0.28639
C	 0.7931271763	-0.4627091722	-1.2600756108	 0.272858
O	 1.2640159493	 0.3184688062	-2.0650869244	-0.322806
C	 0.9174312343	-1.935063044	-1.4400725371	 0.253137
C	 1.4998639374	-2.4908314031	-2.5115250621	-0.12095
C	 1.4532866094	-3.9925553825	-2.4824784443	-0.256208
C	 1.018268437	-4.3045495463	-1.0264906699	-0.214253
C	 0.3697638984	-2.9971990595	-0.5012200479	-0.326011
H	 0.9093683139	 2.0174361137	 0.0457891406	 0.131782
H	-0.6205991025	 1.9306225995	-0.8161570913	 0.129552
H	-0.6053754316	 1.8476513198	 0.9568770366	 0.105012
H	 0.5757730591	-0.368998704	 0.8601863586	 0.121066
H	-0.9344899103	-0.4595114506	-0.0006803965	 0.118651
H	 1.9231024907	-1.9128610345	-3.3248275463	 0.119442
H	 0.7246523454	-4.3604157185	-3.2199363321	 0.116066
H	 2.410394946	-4.4540267308	-2.7502847767	 0.112245
H	 0.3491926401	-5.1654997674	-0.9579168675	 0.101662
H	 1.9041901331	-4.5363043928	-0.4271286532	 0.110037
H	 0.6102053143	-2.8122977993	 0.5509790299	 0.106102
H	-0.7269578966	-3.0374876335	-0.561426775	 0.109043
52.1696	72.2507	119.6528	147.9204	177.3861	210.0671	286.0686	356.3472	405.2086	470.8215	571.6236	639.3037	698.1341	799.4201	817.3387	831.4272	875.8032	912.0692	922.1714	954.0778	975.978	1021.2095	1043.3082	1066.5137	1087.3566	1090.9769	1152.8879	1189.3307	1230.5712	1251.7762	1270.329	1277.9435	1318.9122	1327.5608	1356.0854	1377.4646	1411.7285	1449.0783	1476.5598	1486.6305	1489.9279	1496.4649	1504.9136	1666.6388	1767.8614	3003.4834	3007.6028	3012.9249	3038.1673	3048.3943	3050.2909	3059.0374	3067.9161	3105.5949	3120.6708	3126.9516	3211.2839
CCC(=O)C1=CCCC1	CCC(=O)C1=CCCC1	
InChI=1S/C8H12O/c1-2-8(9)7-5-3-4-6-7/h5H,2-4,6H2,1H3	InChI=1S/C8H12O/c1-2-8(9)7-5-3-4-6-7/h5H,2-4,6H2,1H3
