18
gdb 74867	2.89239	1.527	1.08467	3.1778	81.19	-0.2078	-0.0042	0.2036	1112.5503	0.148301	-401.975734	-401.967708	-401.966764	-402.008249	30.896	
C	 0.0344063917	 1.5226808143	-0.0226980361	-0.468948
C	-0.0124038487	 0.0305718057	-0.0498928355	 0.341737
C	-0.0854533173	-0.7828315857	-1.1172484645	-0.220503
C	-0.0201290798	-2.2123522786	-0.7134272328	-0.096171
C	 1.256148012	-2.6457393057	-0.0072833735	-0.305191
C	 0.086261917	-2.1482555218	 0.80029013	-0.011095
N	 0.0447350118	-0.7423926199	 1.1423949059	-0.098644
C	-0.0177707047	-0.3032651107	 2.436087939	 0.141586
O	-0.0728673903	 0.8510481124	 2.802668692	-0.334523
H	 0.9557431307	 1.886146123	 0.4417089922	 0.145667
H	-0.0185025445	 1.9012214287	-1.0465129856	 0.117764
H	-0.7885017392	 1.9398842236	 0.5620997991	 0.154343
H	-0.1571417686	-0.4396259145	-2.1394114715	 0.103728
H	-0.6195544962	-2.9591829279	-1.222105069	 0.09837
H	 1.4526947595	-3.7105564725	 0.0545539443	 0.118859
H	 2.1335666004	-2.0161816685	-0.103908774	 0.122322
H	-0.4401905542	-2.8129502368	 1.473931597	 0.11326
H	-0.0080067398	-1.1574241853	 3.1416898328	 0.077438
80.0955	182.9354	200.4978	242.6034	260.0481	354.0242	384.0604	441.7468	486.0735	619.6091	658.1614	719.7293	773.5999	790.4621	801.6968	843.0683	933.9725	991.918	1006.5065	1022.4209	1045.0232	1053.8507	1062.5602	1071.6868	1094.0084	1178.1504	1194.0123	1250.3342	1285.8064	1329.6253	1355.4905	1422.2623	1432.867	1448.1492	1466.907	1469.4161	1478.5046	1690.0251	1793.1682	2936.4703	3050.5852	3114.2359	3132.8293	3132.9385	3167.2012	3186.0439	3226.8691	3234.3467
CC1=CC2CC2N1C=O	CC1=C[C@H]2C[C@H]2N1C=O	
InChI=1S/C7H9NO/c1-5-2-6-3-7(6)8(5)4-9/h2,4,6-7H,3H2,1H3	InChI=1S/C7H9NO/c1-5-2-6-3-7(6)8(5)4-9/h2,4,6-7H,3H2,1H3/t6-,7+/m0/s1
