22
gdb 115675	2.08237	1.44585	0.92203	3.6374	84.26	-0.2336	0.0306	0.2642	1342.0925	0.192985	-404.380052	-404.36976	-404.368816	-404.416175	36.512	
C	 0.3325378869	 1.4462312615	 0.0928845797	-0.384307
C	 0.0556582004	-0.0396182141	-0.1523129306	-0.180573
C	-1.3865315982	-0.4757556412	 0.093108413	 0.066865
C	-1.6941065538	-1.9837696731	-0.1554071288	-0.272397
C	-2.1804559204	-2.0851231959	 1.3142323222	-0.175169
N	-1.7953621392	-0.6794645313	 1.5018068046	-0.074709
C	-2.2570261231	 0.249501936	 2.3863535324	 0.365804
C	-2.939932972	-0.3229742945	 3.6197529693	-0.48475
O	-2.1246245424	 1.4483192624	 2.2011369825	-0.371348
H	 1.3847019876	 1.6787526715	-0.1001533028	 0.100952
H	-0.275767984	 2.0700566415	-0.5708553633	 0.11327
H	 0.0853713079	 1.7325424507	 1.116372528	 0.154361
H	 0.2911257235	-0.2912449295	-1.1960244932	 0.095232
H	 0.7139598038	-0.6590754468	 0.4704712544	 0.091883
H	-2.0758264528	 0.2056026471	-0.4216754069	 0.08761
H	-2.4545843036	-2.1877930427	-0.9095235014	 0.114333
H	-0.8054523935	-2.5788977599	-0.3738748541	 0.112513
H	-3.2549649871	-2.2696058739	 1.4289051955	 0.111899
H	-1.636634107	-2.7910049767	 1.9517136525	 0.113305
H	-2.3747349289	-1.154926182	 4.0503365009	 0.13139
H	-3.0466241533	 0.4727738713	 4.3565190472	 0.14665
H	-3.9370657909	-0.6991175603	 3.363426219	 0.137185
43.7138	97.3332	111.9282	113.4166	141.3574	178.202	218.6842	244.7715	342.7131	401.7313	473.6261	550.8904	603.2592	651.7952	738.546	793.3073	831.4849	899.3045	945.8759	960.3199	979.2465	1017.8563	1046.8337	1054.3703	1103.8985	1119.864	1152.2335	1172.383	1189.6687	1226.0251	1256.9045	1279.0658	1298.9243	1320.283	1353.3808	1376.4324	1399.2403	1417.6727	1423.5105	1470.071	1474.212	1483.3426	1491.1421	1494.3409	1503.3865	1523.4092	1760.8443	3009.1986	3021.6022	3025.2334	3038.9487	3040.1457	3051.0617	3062.1059	3083.837	3099.8612	3103.3397	3139.4646	3145.1495	3159.9627
CCC1CCN1C(C)=O	CC[C@H]1CCN1C(=O)C	
InChI=1S/C7H13NO/c1-3-7-4-5-8(7)6(2)9/h7H,3-5H2,1-2H3	InChI=1S/C7H13NO/c1-3-7-4-5-8(7)6(2)9/h7H,3-5H2,1-2H3/t7-/m0/s1
