17
gdb 61127	5.70484	0.59875	0.55431	0.5649	98.61	-0.2444	-0.0149	0.2295	1914.7689	0.132048	-347.472758	-347.462595	-347.46165	-347.508213	36.777	
C	-0.0303473162	 1.5928554896	-0.0359586939	-0.386169
C	-0.0306081476	 0.0523047476	 0.0043654863	-0.215945
C	 0.7579743012	-0.4976921448	 1.2330285137	-0.347754
C	 2.1675494698	-0.1304844797	 1.2102512283	 0.302389
C	 3.3294020928	 0.1751455922	 1.1672179488	-0.442821
C	-1.387775827	-0.4801545605	 0.0076773822	 0.423811
C	-2.5142783427	-0.9235717463	 0.0250762396	-0.259217
C	-3.7825821472	-1.4165518959	 0.0434199394	 0.293575
C	-4.9075166777	-1.8554215345	 0.0596576635	-0.563726
H	 0.9978329545	 1.962702118	-0.0514988034	 0.13668
H	-0.5503953489	 1.9554431231	-0.9257234125	 0.129916
H	-0.5359431315	 2.0008907223	 0.8444988561	 0.127513
H	 0.4793404897	-0.3150990133	-0.8961169918	 0.12533
H	 0.2856479652	-0.1239915975	 2.1496430795	 0.141782
H	 0.6603517062	-1.5886326618	 1.2567301278	 0.144734
H	 4.35795157	 0.4381619722	 1.1440430626	 0.198964
H	-5.8972099904	-2.2392076307	 0.0740421339	 0.190939
56.7697	65.7804	122.9589	159.2691	225.5257	237.5596	268.5402	328.3397	352.0299	441.5054	485.5537	498.848	537.719	545.2916	595.5372	602.6074	620.7922	652.3048	729.4551	852.059	894.5983	976.1878	1018.11	1089.8296	1102.1757	1185.9758	1242.2471	1290.4438	1329.6806	1361.7585	1407.4182	1469.6651	1496.1246	1498.4685	2180.915	2237.3892	2360.8461	3018.407	3036.0514	3047.3032	3073.424	3122.3071	3133.1824	3505.442	3505.812
CC(CC#C)C#CC#C	C[C@@H](CC#C)C#CC#C	
InChI=1S/C9H8/c1-4-6-8-9(3)7-5-2/h1-2,9H,7H2,3H3	InChI=1S/C9H8/c1-4-6-8-9(3)7-5-2/h1-2,9H,7H2,3H3/t9-/m0/s1
