16
gdb 41447	3.0039	2.13548	1.66742	0.4834	67.72	-0.2225	0.0426	0.2651	827.0738	0.12545	-437.727829	-437.721617	-437.720673	-437.758012	26.153	
C	 0.0390898629	 1.4822250198	-0.2292382627	-0.264603
N	 1.5193092036	 1.5035709001	 0.118976037	-0.391842
C	 1.3620095399	 0.2132646059	 0.859356696	 0.189037
C	 1.163112195	 0.1839808847	 2.3590118614	-0.126935
O	 0.1559697943	-0.86007107	 2.4756007597	-0.26041
C	-0.0778633504	-1.2431469839	 1.1587398199	 0.023462
C	 1.280165518	-1.2519568572	 0.3203241158	-0.027693
O	 0.5999558676	-0.8317364099	-0.878903969	-0.330907
C	-0.008138885	-0.002303385	 0.1847209297	 0.258511
H	-0.5151879579	 2.1600886131	 0.4242671095	 0.12813
H	-0.2093862728	 1.6810838328	-1.2745129486	 0.13025
H	 2.078267624	 1.3771985261	-0.7191155448	 0.240371
H	 2.0450853443	-0.1068275809	 2.9397225634	 0.114138
H	 0.7681186139	 1.1246416696	 2.7568039408	 0.119569
H	-0.814195346	-2.0426077438	 1.0877346231	 0.108769
H	 2.0232624086	-2.0513990212	 0.2452518187	 0.090154
224.8138	251.475	327.642	445.5773	449.6358	501.9319	644.4781	675.0428	698.9517	728.2204	762.4104	839.1111	849.5872	852.8027	909.5979	928.4698	960.488	980.0505	1024.2691	1062.1845	1078.2282	1111.7086	1131.1655	1137.3587	1162.245	1195.492	1232.4678	1252.1485	1254.8437	1280.2351	1303.7246	1374.0925	1379.2327	1480.4919	1520.9094	3038.9959	3062.46	3069.8967	3083.0533	3124.0455	3142.9752	3533.4962
C1NC23COC4C2OC134	C1N[C@]23CO[C@@H]4[C@H]2O[C@]134	
InChI=1S/C6H7NO2/c1-6-4-3(9-6)5(6,7-1)2-8-4/h3-4,7H,1-2H2	InChI=1S/C6H7NO2/c1-6-4-3(9-6)5(6,7-1)2-8-4/h3-4,7H,1-2H2/t3-,4-,5-,6+/m1/s1
