15
gdb 27240	2.20593	1.93588	1.05443	4.074	68.92	-0.1853	0.0377	0.223	1066.0142	0.113595	-453.955232	-453.947209	-453.946265	-453.988117	29.239	
O	 0.1338088595	 1.3897183025	 0.0273668036	-0.415538
C	 0.0262514612	 0.0370944046	 0.0203711802	 0.163422
C	-1.0213021669	-0.8052126125	-0.0152923295	 0.202861
C	-2.4418947503	-1.2405262665	-0.3146813157	-0.376747
C	-1.8118410893	-2.6612860771	-0.5962335835	-0.165716
N	-0.5260155331	-2.1073719161	-0.1310332435	-0.114208
C	 0.8519985299	-2.1371124646	-0.2936107367	 0.431589
O	 1.6058456535	-3.0582639137	-0.5251410748	-0.428345
N	 1.1719896576	-0.7852090934	-0.0695523481	-0.403034
H	 0.2615060801	 1.7028371483	 0.9308316947	 0.308122
H	-3.1329989041	-1.2197786785	 0.5313880648	 0.1291
H	-2.914489788	-0.7637075661	-1.1752931839	 0.135213
H	-2.1853568808	-3.4892789223	 0.0099421579	 0.130579
H	-1.8045351188	-2.94732209	-1.6513550143	 0.136535
H	 2.1152830296	-0.4441033547	-0.1401140214	 0.266167
84.0622	129.3714	171.0725	213.3092	277.246	325.3254	348.6545	447.4876	600.1611	631.2386	673.1848	688.7855	729.8633	735.8792	793.0732	902.3045	971.4855	1041.4373	1068.4549	1143.352	1187.4851	1194.4253	1217.9895	1235.9263	1264.9925	1277.0613	1321.5172	1362.4343	1401.5322	1483.3916	1517.5539	1757.6742	1837.3611	3063.2985	3071.8865	3113.2186	3128.3925	3683.503	3767.1353
OC1=C2CCN2C(=O)N1	O[C]1[C]2CCN2C(=O)N1	
InChI=1S/C5H6N2O2/c8-4-3-1-2-7(3)5(9)6-4/h8H,1-2H2,(H,6,9)	InChI=1S/C5H6N2O2/c8-4-3-1-2-7(3)5(9)6-4/h8H,1-2H2,(H,6,9)
