16
gdb 123766	4.90062	1.05564	0.96904	1.7745	70.12	-0.2508	-0.0066	0.2441	1203.5475	0.127381	-434.047164	-434.039755	-434.038811	-434.080448	26.653	
C	-0.2143461647	 1.0308386004	 0.4233184552	-0.06368
C	 0.940244844	 1.1834784554	-0.5836357708	-0.286268
C	 1.779559494	 0.4419341655	 0.4933731658	 0.041963
O	 0.5913976421	 0.191169536	 1.2810517558	-0.289978
C	 2.4760651671	-0.8194443194	 0.1194742077	 0.301444
N	 3.7817526595	-0.8629145261	-0.1603201558	-0.285556
N	 3.9832250784	-2.1387705211	-0.4615167159	-0.071003
N	 2.9310012052	-2.9422362886	-0.3914642993	-0.195756
C	 1.9504893942	-2.1177008669	-0.0226862729	-0.120233
H	-0.5106600142	 1.9588613921	 0.928534002	 0.104676
H	-1.1143831412	 0.5128370307	 0.074937174	 0.109089
H	 0.8130392138	 0.6130308172	-1.5047729894	 0.117807
H	 1.2584096356	 2.198455852	-0.8233836208	 0.116926
H	 2.4797448498	 1.1045240534	 1.0179037873	 0.093158
H	 4.8956179372	-2.4835977645	-0.7128310727	 0.293445
H	 0.9469555092	-2.473464356	 0.1395631697	 0.133965
40.7787	86.0651	147.5736	206.2741	387.7807	427.3866	528.0812	655.0799	723.1571	735.0164	788.6563	853.2987	892.2944	932.2795	955.5513	994.1459	1018.459	1031.0812	1048.892	1095.7763	1161.0393	1167.9216	1210.2999	1212.7568	1237.1551	1255.6218	1267.1652	1325.4113	1353.7444	1381.5367	1425.401	1486.3603	1489.6759	1531.4205	1565.9861	3017.3707	3025.5301	3065.9161	3086.4482	3144.9726	3286.3877	3667.9778
C1CC(O1)C1=NNN=C1	C1C[C@@H](O1)c1n[nH]nc1	
InChI=1S/C5H7N3O/c1-2-9-5(1)4-3-6-8-7-4/h3,5H,1-2H2,(H,6,7,8)	InChI=1S/C5H7N3O/c1-2-9-5(1)4-3-6-8-7-4/h3,5H,1-2H2,(H,6,7,8)/t5-/m1/s1
