21
gdb 83521	2.37464	2.00789	1.62336	1.7333	81.14	-0.193	0.0825	0.2755	959.7262	0.186431	-383.237277	-383.229956	-383.229011	-383.268536	30.535	
C	 0.121886032	 1.4345501988	-0.338990178	-0.329934
N	-0.0159329889	 0.0591215548	 0.1156632701	-0.051424
C	-1.3172226123	-0.4894148864	 0.5138677789	-0.027862
C	-0.9597130305	-2.0017085078	 0.5296936034	-0.196084
C	 0.515876601	-1.9743395535	 1.0597968693	-0.196084
C	 0.7518612069	-0.4510372575	 1.2571735714	-0.027862
C	-0.0813500153	-0.0909259884	 2.5025090179	-0.03019
N	-0.8527149767	 1.164982832	 2.387849521	-0.353042
C	-1.4790071786	-0.1168540619	 2.000409843	-0.03019
H	 1.1639906956	 1.5929406683	-0.6408517521	 0.105578
H	-0.4945730498	 1.5621712846	-1.2366990711	 0.105578
H	-0.1548702252	 2.2004828897	 0.3918210423	 0.13141
H	-2.1279708898	-0.2000734701	-0.1565808829	 0.06403
H	-1.6274946791	-2.583256642	 1.1722343532	 0.087738
H	-1.0123642411	-2.4166212075	-0.4788096158	 0.100276
H	 0.6409672316	-2.5411785445	 1.9871779228	 0.087738
H	 1.2116725156	-2.3753742984	 0.3201738025	 0.100276
H	 1.7938420194	-0.127332485	 1.2523049365	 0.06403
H	 0.1923188056	-0.4714658884	 3.4816132708	 0.083541
H	-1.1898263191	 1.4203266209	 3.3130556344	 0.228936
H	-2.3003371313	-0.5177081676	 2.5861430924	 0.083541
136.9232	238.121	252.3554	279.8044	327.4517	391.6157	456.7698	605.4028	611.91	677.0705	776.0401	788.7146	823.7456	867.4946	872.2524	888.9423	906.956	911.3642	955.8059	962.7154	1011.94	1014.4673	1040.9329	1099.5201	1109.9995	1130.5516	1141.2656	1144.6442	1191.6029	1210.6319	1225.5181	1230.1887	1261.7335	1274.3151	1283.2706	1308.8456	1320.0813	1348.0633	1361.9691	1400.5122	1453.1934	1475.8093	1482.3198	1504.2734	1529.7207	3015.7969	3053.879	3064.5744	3077.5861	3090.6881	3098.1413	3104.9844	3105.3196	3119.7179	3153.315	3164.2231	3498.7606
CN1C2CCC1C1NC21	CN1[C@H]2CC[C@@H]1[C@H]1N[C@@H]21	
InChI=1S/C7H12N2/c1-9-4-2-3-5(9)7-6(4)8-7/h4-8H,2-3H2,1H3	InChI=1S/C7H12N2/c1-9-4-2-3-5(9)7-6(4)8-7/h4-8H,2-3H2,1H3/t4-,5+,6-,7+
