14
gdb 8979	7.07831	0.89716	0.80045	3.3258	67.59	-0.246	-0.0728	0.1732	1319.0336	0.104746	-378.690857	-378.68207	-378.681126	-378.725088	30.09	
N	-0.0422812881	 1.3905334297	-0.0840040043	-0.516815
C	-0.0246072233	 0.1123566753	-0.0516412157	 0.298603
N	-1.1645286012	-0.6391103793	-0.0607021899	-0.331729
C	-2.4656618583	 0.0088178065	 0.040560974	-0.270798
C	-3.540624482	-0.9736610659	 0.0298137575	 0.253227
C	-4.4152558493	-1.7967671801	 0.0323592052	-0.405211
C	 1.2515730738	-0.7020324565	-0.0361119267	 0.108653
O	 2.3411506393	-0.1949836045	-0.0409889612	-0.232102
H	 0.9227063777	 1.7246975662	-0.1137208547	 0.236922
H	-1.1147430518	-1.6120973325	 0.1932477796	 0.253837
H	-2.5169041422	 0.6259769746	 0.9498197422	 0.151957
H	-2.5693339845	 0.7102967313	-0.7961893151	 0.164433
H	-5.2003678072	-2.5121765421	 0.0301451669	 0.205729
H	 1.1244869871	-1.8083868328	-0.0201180877	 0.083292
36.7802	98.8814	114.3397	196.5279	229.583	288.7945	309.3875	335.6888	419.804	534.9444	576.4231	618.9724	681.2084	745.9559	867.621	918.3985	999.0664	1003.3203	1026.1077	1083.9859	1174.8965	1240.6642	1300.2599	1379.1189	1433.4704	1494.9168	1537.9275	1698.4779	1835.4037	2248.0524	2876.0223	3001.999	3048.6215	3471.0598	3504.4669	3647.1033
N=C(NCC#C)C=O	N=C(NCC#C)C=O	
InChI=1S/C5H6N2O/c1-2-3-7-5(6)4-8/h1,4H,3H2,(H2,6,7)	InChI=1S/C5H6N2O/c1-2-3-7-5(6)4-8/h1,4H,3H2,(H2,6,7)
