18
gdb 40537	4.61454	1.04173	0.96607	2.9938	78.73	-0.2284	0.001	0.2294	1242.6785	0.149067	-401.906062	-401.898544	-401.8976	-401.938514	29.287	
C	 0.2409144314	 1.5042120538	 0.0139988733	-0.242307
N	 1.2797362108	 0.4804048194	-0.1152323906	-0.310455
C	-0.1298061728	 0.0559092668	 0.0525834374	-0.128637
C	-0.479467497	-0.6527114835	 1.2977137217	 0.381089
C	-1.4272160268	-1.5929670452	 1.42675951	-0.231544
C	-1.4226214931	-2.1575344162	 2.8059676957	 0.01196
O	-0.1715599796	-2.8047130548	 3.1515655061	-0.259766
C	-0.3666103003	-1.4466745409	 3.5471715747	 0.035787
C	 0.2545738972	-0.4185616945	 2.6100892844	-0.344215
H	 0.278495581	 2.0796697425	 0.9343591798	 0.121886
H	-0.0592142073	 2.0734703435	-0.862197002	 0.115459
H	 1.5571340899	 0.3754063665	-1.087206788	 0.23757
H	-0.642620681	-0.3159520658	-0.8322143232	 0.082914
H	-2.077834043	-1.9440541675	 0.6346638677	 0.092682
H	-2.3048527786	-2.5932995941	 3.2647114443	 0.093124
H	-0.3988164711	-1.2720481954	 4.6193708174	 0.092622
H	 1.3342610335	-0.5546979036	 2.4923790976	 0.145249
H	 0.0991471067	 0.600069949	 2.9886663337	 0.106582
65.0511	134.7063	182.814	282.2779	360.6169	411.6619	516.819	535.1762	621.9428	717.9547	800.3132	829.5612	841.2736	850.7176	875.3595	909.2471	916.4413	931.1945	964.1738	972.9365	1018.2913	1029.3838	1081.7329	1108.773	1118.1298	1149.6464	1180.4923	1212.4596	1239.6622	1261.5654	1281.4273	1289.0782	1312.4034	1368.3635	1406.1672	1431.2777	1459.9579	1512.1339	1683.5773	3029.7046	3087.0777	3108.3622	3126.038	3145.6071	3164.3444	3194.3941	3202.0461	3510.581
C1NC1C1=CC2OC2C1	C1N[C@H]1C1=C[C@H]2O[C@H]2C1	
InChI=1S/C7H9NO/c1-4(5-3-8-5)2-7-6(1)9-7/h1,5-8H,2-3H2	InChI=1S/C7H9NO/c1-4(5-3-8-5)2-7-6(1)9-7/h1,5-8H,2-3H2/t5-,6-,7+/m1/s1
