21
gdb 90437	2.25678	1.59969	1.33364	0.8362	77.72	-0.2391	0.0567	0.2958	1094.5566	0.181764	-424.192758	-424.183556	-424.182612	-424.226984	34.863	
C	 0.1902069658	 1.519773592	-0.4021153406	-0.40465
C	 0.1249804117	 0.0639860246	 0.0142597856	 0.156879
O	 0.8356352298	-0.8456436751	-0.8736966661	-0.318973
C	 1.3052012299	-1.631593785	 0.2467866404	 0.105511
C	 2.7913846622	-1.37226356	 0.5775622231	-0.036878
C	 3.7301971785	-1.0585680461	-0.5790156265	-0.423254
C	 2.3389922989	-0.1946737086	 1.5206945972	 0.095763
O	 2.8448703601	 1.0970159792	 1.2871664064	-0.423798
C	 0.8325043364	-0.5330414447	 1.2440076309	-0.145854
H	 1.2101550276	 1.8909644738	-0.4996888336	 0.106693
H	-0.315381814	 1.6480295708	-1.3648708272	 0.125248
H	-0.3254623611	 2.1414633832	 0.3371430307	 0.125522
H	-0.9355932205	-0.2340370024	 0.044780046	 0.075316
H	 0.932741605	-2.6596836486	 0.2181128525	 0.069602
H	 3.2004798403	-2.1918555875	 1.1782908348	 0.073081
H	 3.274887724	-0.3474763921	-1.2749030049	 0.124768
H	 4.6764175491	-0.645548803	-0.2153967977	 0.122313
H	 3.9562202349	-1.9633459634	-1.1522796464	 0.120984
H	 2.5751516625	-0.4083458892	 2.5671058432	 0.09128
H	 2.9601733919	 1.2107137585	 0.3392051654	 0.289112
H	 0.2177911871	-0.7151893365	 2.1253474769	 0.071336
32.6765	145.2143	189.3196	202.2835	233.2336	254.1939	276.1295	327.5923	408.9859	482.7856	524.8237	617.1396	626.574	720.8725	777.0219	841.4818	875.5833	886.2572	912.0939	957.146	986.5077	1034.7277	1063.6301	1083.7337	1106.7833	1116.9224	1158.4195	1168.1647	1170.8832	1209.5828	1236.2666	1262.2129	1294.6036	1307.261	1329.2344	1344.4436	1358.1851	1401.7567	1404.0997	1415.4664	1440.9954	1478.6153	1490.068	1494.3246	1511.7366	2962.4147	3036.5412	3040.0485	3045.9075	3061.1098	3067.3454	3103.1575	3107.1471	3110.1686	3111.839	3149.4901	3829.7669
CC1OC2C(C)C(O)C12	C[C@H]1O[C@H]2[C@@H](C)[C@@H](O)[C@@H]12	
InChI=1S/C7H12O2/c1-3-6(8)5-4(2)9-7(3)5/h3-8H,1-2H3	InChI=1S/C7H12O2/c1-3-6(8)5-4(2)9-7(3)5/h3-8H,1-2H3/t3-,4+,5+,6+,7-/m0/s1
