17
gdb 47021	3.57907	1.37341	1.04376	3.7747	77.43	-0.2301	-0.052	0.1781	1114.4993	0.137092	-421.833317	-421.825997	-421.825053	-421.865162	28.546	
O	-0.0092810354	-0.0406194037	 0.1162730433	-0.325073
C	 0.0002843989	 1.1732417433	 0.1179222156	 0.360117
C	-1.3361448846	 1.9479218351	 0.1173870884	-0.194004
O	-1.2708353268	 3.2783546626	 0.6179476369	-0.257835
C	-0.2627353997	 3.9930444432	-0.0441761039	 0.083722
C	 0.4487073369	 5.1613973578	 0.6980351854	-0.262524
C	 1.8151894958	 4.594554677	 0.1691505324	-0.326844
C	 1.0724178229	 3.2993833538	-0.0606634306	 0.321721
C	 1.2307278047	 1.9864377016	 0.1122431981	-0.350281
H	-1.7254301292	 1.937121862	-0.9162923819	 0.113377
H	-2.041208429	 1.3992325807	 0.7443073622	 0.14088
H	-0.591088716	 4.3079056375	-1.050340548	 0.08127
H	 0.175439676	 6.1781711895	 0.4134105429	 0.113607
H	 0.3544134515	 5.0332233697	 1.7776205973	 0.131567
H	 2.1241633862	 5.0813459252	-0.7614623976	 0.129117
H	 2.6667535318	 4.568534369	 0.8515227498	 0.129979
H	 2.180535816	 1.4878377057	 0.2779220598	 0.111204
95.6848	190.0507	201.4775	318.4054	349.0404	437.9168	461.9644	509.0884	563.7765	661.2973	693.3789	764.1532	828.3696	837.5221	888.8164	912.4523	958.2875	1014.6987	1026.7184	1058.3451	1097.122	1116.4307	1153.3483	1184.8411	1222.2797	1233.7175	1254.709	1264.2221	1274.3397	1322.122	1349.3753	1387.2631	1466.1833	1468.1231	1484.944	1729.1657	1781.6249	2947.269	2955.8051	3056.9521	3083.8705	3117.2366	3120.8274	3149.5262	3183.6913
O=C1COC2CCC2=C1	O=C1CO[C@H]2CC[C]2[CH]1	
InChI=1S/C7H8O2/c8-6-3-5-1-2-7(5)9-4-6/h3,7H,1-2,4H2	InChI=1S/C7H8O2/c8-6-3-5-1-2-7(5)9-4-6/h3,7H,1-2,4H2/t7-/m0/s1
