21
gdb 92749	3.037	1.16668	0.90023	1.574	86.29	-0.2295	0.0155	0.245	1336.3542	0.182482	-387.098953	-387.089779	-387.088834	-387.133051	35.185	
C	-0.1695994033	 1.5560145667	 0.0302730808	-0.463618
C	 0.0367942536	 0.060678661	-0.0247211541	 0.302959
C	 0.0124675091	-0.5729824569	-1.2023781843	-0.13761
C	 0.1277332518	-2.0362873641	-1.5407474917	-0.236306
C	-0.1403325727	-3.0056765485	-0.3890275263	 0.072189
O	-0.1798828988	-4.3106565478	-0.9571115539	-0.44172
C	 0.9102382933	-2.8934114552	 0.6877564005	-0.095243
C	 1.0741772152	-1.8142801729	 1.4462321785	-0.061777
C	 0.2360048625	-0.5604839066	 1.3523534045	-0.351888
H	 0.7104713285	 2.0635103453	 0.4470341973	 0.119878
H	-0.3700932566	 1.9767800606	-0.9582859654	 0.118123
H	-1.0129003524	 1.8142055301	 0.684972949	 0.118979
H	-0.1295356275	 0.0562961608	-2.0802952857	 0.074666
H	-0.5883807934	-2.2680401519	-2.3394300117	 0.109121
H	 1.1201235065	-2.2571236054	-1.9588890354	 0.114163
H	-1.1264189424	-2.7518917833	 0.0379974321	 0.07374
H	-0.3747972976	-4.9339526174	-0.2502140214	 0.279721
H	 1.5703763409	-3.7515047773	 0.7937574847	 0.087614
H	 1.8611461425	-1.8102960312	 2.195923815	 0.091132
H	 0.6846853348	 0.2043288089	 1.9963387065	 0.103508
H	-0.7559112338	-0.7438819048	 1.799766521	 0.122368
42.1225	105.6782	200.9709	274.8224	286.1701	293.5549	315.6676	320.1979	392.812	415.0011	468.2854	528.7387	660.3452	668.3092	698.09	806.8659	860.2779	888.4392	926.2059	955.2863	986.4662	1010.1612	1040.6323	1066.915	1082.5	1090.4325	1107.0083	1159.515	1189.2823	1226.5284	1230.4299	1273.0094	1338.5583	1352.9596	1369.804	1392.7194	1409.0301	1413.08	1424.3113	1468.1407	1479.0602	1481.596	1493.0884	1728.8444	1742.4461	2939.559	2963.6661	3009.4213	3009.7442	3044.6326	3048.7892	3053.5065	3110.8254	3126.5468	3143.7555	3167.8813	3817.6946
CC1=CCC(O)C=CC1	CC1=CC[C@@H](O)C=CC1	
InChI=1S/C8H12O/c1-7-3-2-4-8(9)6-5-7/h2,4-5,8-9H,3,6H2,1H3	InChI=1S/C8H12O/c1-7-3-2-4-8(9)6-5-7/h2,4-5,8-9H,3,6H2,1H3/t8-/m0/s1
