20
gdb 60241	2.98088	0.95262	0.86393	2.3019	76.38	-0.2425	0.0389	0.2814	1428.044	0.169871	-440.310505	-440.300619	-440.299675	-440.345915	35.663	
C	-0.0459916121	 1.5683617394	-0.0295192057	-0.40108
C	-0.0101481458	 0.0412943146	 0.0221819781	 0.122308
O	 0.5847136072	-0.4973334235	-1.1617574255	-0.437734
C	 0.8296620336	-0.480674579	 1.1913397637	-0.205705
C	 0.7536437628	-1.9997238926	 1.3139314208	-0.140262
C	 1.4204661021	-2.6793813711	 2.5493842963	-0.192938
N	 0.0891980804	-3.1752322397	 2.9116555932	-0.323152
C	-0.5766569165	-2.5631225906	 1.8785918192	 0.429631
O	-1.74208671	-2.4921894814	 1.5830144038	-0.37158
H	 0.9671876553	 1.9728820475	-0.1231000549	 0.119526
H	-0.6293064931	 1.9125799493	-0.8907287002	 0.105275
H	-0.5083067198	 1.9835953377	 0.872184336	 0.115046
H	-1.0322710347	-0.3470589697	 0.1370966204	 0.10371
H	-0.0195522804	-0.3425811551	-1.8938367707	 0.283748
H	 1.8712768642	-0.1715020495	 1.0365583092	 0.104905
H	 0.4839682204	-0.0101188989	 2.1197018775	 0.097954
H	 1.0258228787	-2.4628542222	 0.363449027	 0.120129
H	 2.1478937923	-3.4653952293	 2.3242889938	 0.112537
H	 1.8486697223	-1.9806334923	 3.2765239742	 0.109392
H	-0.2465744069	-3.6921464732	 3.7107062739	 0.248289
57.1688	82.8334	95.2217	158.2541	214.8549	239.0663	266.4969	301.5517	336.3412	445.5989	458.8538	481.7427	507.3073	715.3676	761.3074	815.3387	843.8225	885.8157	941.5277	949.6328	987.5386	1035.7135	1078.792	1109.2058	1113.9802	1150.2816	1168.6903	1175.7479	1187.2404	1235.1191	1282.0946	1301.0156	1327.9229	1356.9969	1394.6152	1398.4427	1406.6169	1429.4979	1473.5374	1492.2456	1498.3421	1527.1394	1878.72	3008.3362	3023.3017	3029.2818	3035.5275	3066.7038	3081.3937	3096.3855	3107.977	3109.7659	3609.9161	3828.7228
CC(O)CC1CNC1=O	C[C@@H](O)C[C@H]1CNC1=O	
InChI=1S/C6H11NO2/c1-4(8)2-5-3-7-6(5)9/h4-5,8H,2-3H2,1H3,(H,7,9)	InChI=1S/C6H11NO2/c1-4(8)2-5-3-7-6(5)9/h4-5,8H,2-3H2,1H3,(H,7,9)/t4-,5+/m1/s1
