14
gdb 9325	4.23045	1.09154	0.9083	1.8604	61.99	-0.2779	-0.0481	0.2297	1211.0984	0.104619	-419.659326	-419.650697	-419.649753	-419.693603	29.603	
O	-0.0295067669	 1.4361721938	-0.1069340282	-0.41628
C	-0.0137289515	 0.0248640225	-0.0535329705	-0.07164
C	-1.4099820637	-0.5618412251	 0.0466331389	-0.080555
O	-2.0973768402	-0.1669218274	-1.1627222892	-0.248443
C	-3.3724606291	-0.5834269485	-1.2750126044	 0.305722
O	-3.9473401381	-1.2600088015	-0.4609866318	-0.34667
C	-3.9602165401	-0.1112158082	-2.5097033132	 0.220986
C	-4.4968876746	 0.2554804324	-3.5200093629	-0.355867
H	-0.5683560673	 1.6805197859	-0.8674720477	 0.293142
H	 0.5020529169	-0.4107338851	-0.9234627351	 0.100905
H	 0.5505999619	-0.2537837539	 0.842324497	 0.120177
H	-1.3938413698	-1.6538794209	 0.1178769009	 0.126779
H	-1.9507492832	-0.1607490707	 0.9085785099	 0.135831
H	-4.9735092244	 0.5786699968	-4.4135302738	 0.215914
42.9384	77.0414	123.2428	177.2692	250.0218	282.451	314.0949	394.0031	491.6322	534.2212	611.0408	661.8207	701.0838	774.1335	845.716	894.5627	957.9851	1030.8135	1094.2423	1125.583	1230.9711	1248.9829	1264.0707	1388.0286	1397.9581	1432.5478	1493.9012	1497.3183	1797.7711	2237.8575	2989.8813	3056.3398	3084.5091	3112.4057	3496.5944	3809.1802
OCCOC(=O)C#C	OCCOC(=O)C#C	
InChI=1S/C5H6O3/c1-2-5(7)8-4-3-6/h1,6H,3-4H2	InChI=1S/C5H6O3/c1-2-5(7)8-4-3-6/h1,6H,3-4H2
