14
gdb 127324	3.53194	1.33612	0.97539	3.9228	79.64	-0.1978	-0.0665	0.1313	1125.4754	0.100906	-432.889581	-432.881448	-432.880504	-432.922653	28.95	
C	-0.0208852468	 1.5677451364	-0.1299178091	-0.349484
N	 0.0096746088	 0.1280577528	 0.0084663061	-0.100754
C	 0.0615480817	-0.7996959373	-1.031138096	-0.027745
C	 0.077096238	-2.0661613194	-0.5593795181	-0.301367
C	 0.0322644193	-1.9421626213	 0.883058435	 0.236966
C	-0.012238588	-0.5057220142	 1.2520813912	 0.354339
O	-0.0569032234	 0.0325711119	 2.341037334	-0.407561
N	 0.022775144	-3.6741396361	 2.5915510064	-0.22026
N	 0.0272597708	-2.8833195087	 1.7794351211	 0.11396
H	 0.8773420973	 1.9372159521	-0.636431876	 0.133912
H	-0.9038685535	 1.8941697279	-0.689963554	 0.133906
H	-0.0612073703	 1.9859447495	 0.877211882	 0.172792
H	 0.0837437756	-0.4573192554	-2.0542821633	 0.135751
H	 0.1151367565	-2.9809914182	-1.1258839694	 0.125544
94.8501	111.7906	141.4379	182.0678	265.1061	297.262	442.5559	508.7201	518.4448	554.5374	602.8911	665.137	745.1489	752.5507	773.319	818.9677	994.0811	1044.2197	1111.0225	1154.7782	1202.8425	1278.3769	1314.7454	1390.1465	1444.1395	1466.7467	1494.9725	1510.0598	1608.0869	1788.1578	2217.9386	3029.0241	3085.404	3146.8073	3253.3493	3282.8599
CN1C=CC2=C1ON=N2	CN1[CH]C=C(C1=O)[N][N]	
InChI=1S/C5H5N3O/c1-8-3-2-4-5(8)9-7-6-4/h2-3H,1H3	InChI=1S/C5H5N3O/c1-8-3-2-4(7-6)5(8)9/h2-3H,1H3
