13
gdb 16274	3.13766	2.15534	1.45442	4.2454	60.82	-0.2559	-0.0459	0.21	824.9705	0.094142	-398.57133	-398.56438	-398.563436	-398.602816	25.034	
O	-0.2278455941	 0.009451868	 0.1570137464	-0.232919
C	-0.0083825485	 1.1347635821	-0.2067305591	 0.0677
C	 1.2765204672	 1.8437554318	-0.0016761041	 0.099856
C	 1.3213579098	 3.3111201223	 0.3452623405	-0.260616
N	 1.7803038113	 2.9419300076	-0.9709780524	-0.142395
C	 3.1913387339	 2.4417531356	-0.7816070455	-0.285295
C	 2.6786771675	 1.2938529028	 0.1150285716	 0.354526
O	 3.1549932169	 0.2913931604	 0.5490714591	-0.27499
H	-0.7659600503	 1.7477009684	-0.7460440697	 0.090591
H	 0.3641088801	 3.8255260878	 0.3588996986	 0.148327
H	 2.0311414705	 3.641705969	 1.1015134205	 0.139846
H	 3.5992851756	 2.0640580901	-1.7222342171	 0.155919
H	 3.8721953403	 3.1793941041	-0.3483927786	 0.139451
94.6598	131.2713	199.1361	270.246	433.0084	444.4546	477.3324	550.5937	657.5928	726.3089	775.4125	848.406	906.096	986.3559	997.4564	1027.6062	1044.4684	1099.5798	1137.8356	1195.6751	1232.7876	1269.8565	1337.4077	1418.5002	1460.5364	1504.7299	1816.3851	1913.4679	2876.4793	3066.3703	3100.1178	3130.1018	3193.3717
O=CC12CN1CC2=O	O=C[C@]12CN1CC2=O	
InChI=1S/C5H5NO2/c7-3-5-2-6(5)1-4(5)8/h3H,1-2H2	InChI=1S/C5H5NO2/c7-3-5-2-6(5)1-4(5)8/h3H,1-2H2/t5-,6?/m0/s1
