18
gdb 95793	2.22837	1.66624	1.02668	1.7967	68.46	-0.2357	-0.0391	0.1966	1131.8821	0.148657	-476.238614	-476.230243	-476.229299	-476.271307	32.45	
O	 0.0847161753	 1.3888083511	 0.1161061742	-0.433344
C	 0.0458987665	-0.0055619544	 0.0121148829	 0.042002
C	-1.422412213	-0.5443229423	-0.0128804425	-0.20226
N	-1.5157026643	-1.9716405801	-0.2594363273	-0.273809
C	-0.852494749	-2.3858575915	-1.482264028	-0.202262
C	 0.6530803485	-1.9675011218	-1.5533299917	 0.042002
O	 1.2154429619	-2.2647789273	-2.799108386	-0.433344
C	 0.7226532758	-0.4873421508	-1.2514942973	 0.324368
O	 1.2105066422	 0.2974565714	-2.0458452808	-0.361163
H	 0.5469641872	 1.7006919495	-0.6774021177	 0.296193
H	 0.5554404405	-0.4673972412	 0.8739918591	 0.093047
H	-1.9053856511	-0.2939086064	 0.93495257	 0.123577
H	-1.9575834276	-0.0045128864	-0.8037094943	 0.123268
H	-1.1823973744	-2.5037751725	 0.5367474817	 0.225641
H	-0.9223973827	-3.4701746214	-1.5994315133	 0.123577
H	-1.3610739595	-1.9319611352	-2.3416469837	 0.123267
H	 1.1869691152	-2.5080379396	-0.7542443686	 0.093048
H	 1.5117609885	-1.4168589212	-3.1649325966	 0.296193
106.7014	137.3397	241.9522	301.4677	325.1688	338.8997	381.7513	398.383	410.8257	425.2847	447.1718	574.8705	663.503	699.1905	737.0312	844.7323	924.8684	977.3874	979.2192	1018.4419	1042.8272	1106.4429	1127.8084	1152.7006	1162.8988	1194.21	1269.7997	1274.7739	1315.4295	1316.9507	1343.4363	1359.2249	1369.3052	1434.0595	1436.6064	1481.4826	1493.1586	1495.8653	1770.0754	2965.8947	2977.4684	3039.103	3041.93	3104.8058	3105.7794	3533.7217	3697.6841	3705.3371
OC1CNCC(O)C1=O	O[C@H]1CNC[C@@H](O)C1=O	
InChI=1S/C5H9NO3/c7-3-1-6-2-4(8)5(3)9/h3-4,6-8H,1-2H2	InChI=1S/C5H9NO3/c7-3-1-6-2-4(8)5(3)9/h3-4,6-8H,1-2H2/t3-,4+
