16
gdb 128577	5.31735	0.88463	0.77922	1.3425	69.43	-0.2255	0.0088	0.2343	1427.0759	0.123172	-475.000678	-474.991731	-474.990787	-475.03526	31.154	
C	 0.0618407278	 1.4246054288	 0.0679267834	-0.250395
O	-0.1501599772	 0.0082227248	 0.1170238875	-0.265589
C	 0.5205416749	-0.6745458591	 1.0355648771	 0.561727
C	 0.5326274916	-2.0123255363	 1.3001164586	-0.490412
C	 1.4409368529	-2.1048542448	 2.3850440161	 0.427854
C	 1.8362477066	-3.3355761127	 3.1407673197	-0.185972
O	 2.0224944749	-4.3873779484	 2.2058553562	-0.415205
N	 1.9371855684	-0.9416810839	 2.7414389937	-0.236403
O	 1.3314444055	-0.0093960244	 1.8679304784	-0.229288
H	 1.110765955	 1.6545821797	-0.1392887805	 0.146966
H	-0.569328173	 1.7846424578	-0.7440686162	 0.1437
H	-0.2311496337	 1.8956409909	 1.0104588857	 0.146118
H	 0.0007591058	-2.7982528062	 0.7959091717	 0.128139
H	 2.7462097974	-3.1180028474	 3.7168439219	 0.118327
H	 1.0384448473	-3.5830567987	 3.8594942899	 0.107399
H	 2.1901592158	-5.1951062199	 2.7002373367	 0.293034
55.3319	74.9564	141.4776	167.5929	204.0586	247.0318	262.7236	370.3995	453.9668	499.5696	623.4517	676.6554	715.3671	754.8241	780.5647	910.9769	989.5975	1010.3762	1029.7731	1054.4666	1086.2816	1176.5999	1178.2683	1205.8022	1244.0589	1246.1885	1336.7931	1436.3168	1464.5349	1486.428	1498.6826	1502.496	1510.6009	1552.213	1662.0697	2972.4593	3026.3511	3044.3088	3117.8614	3160.0848	3303.1355	3831.498
COC1=CC(CO)=NO1	COc1cc(CO)no1	
InChI=1S/C5H7NO3/c1-8-5-2-4(3-7)6-9-5/h2,7H,3H2,1H3	InChI=1S/C5H7NO3/c1-8-5-2-4(3-7)6-9-5/h2,7H,3H2,1H3
