21
gdb 58902	3.00834	1.18621	1.13904	1.4896	77.42	-0.2504	0.0698	0.3202	1212.2297	0.182342	-424.229264	-424.220197	-424.219253	-424.263002	34.72	
C	 0.0651668131	 1.4013227871	-0.3477447832	-0.420317
C	 0.0058327716	-0.0217549579	 0.2061762072	 0.020702
O	 0.6504666301	-0.1323454251	 1.4733388601	-0.427904
C	-1.4155401573	-0.5498459046	 0.27663821	 0.43877
C	-2.4264682733	-0.0085453305	 1.2786176189	-0.302395
C	-3.6308745378	-0.9740692433	 1.1593262125	-0.215237
C	-3.0324955092	-2.3288468669	 0.7072462464	-0.241611
C	-1.7872038196	-1.9309180399	-0.0566608103	-0.010701
O	-2.0070428279	-0.8634113012	-0.9987671234	-0.315062
H	 1.1038886287	 1.7322588025	-0.4309650648	 0.123196
H	-0.4016634649	 1.444970502	-1.3356886421	 0.140808
H	-0.4675023071	 2.1020934064	 0.3072011655	 0.107964
H	 0.5670268537	-0.6840680432	-0.4623366276	 0.093567
H	 0.3725253083	 0.6159518965	 2.0118671514	 0.281201
H	-1.9797944348	-0.0534053094	 2.2793135692	 0.101898
H	-2.7098564124	 1.03095978	 1.085179513	 0.103416
H	-4.1960711079	-1.054537705	 2.0907532069	 0.09751
H	-4.3130204679	-0.6053800756	 0.3906602188	 0.119986
H	-2.7350319875	-2.9454701189	 1.5645420795	 0.105615
H	-3.7325742133	-2.9173451061	 0.1062678986	 0.108031
H	-1.0534552746	-2.6733415868	-0.3621442166	 0.090564
56.5904	137.158	197.9681	217.6284	252.3933	260.8723	284.8106	326.7449	416.854	490.2552	516.2233	604.3185	659.459	699.9481	816.1641	870.2499	889.6403	901.3424	902.5058	947.5439	953.7134	1010.5133	1029.689	1038.0663	1076.5332	1112.2323	1125.4631	1165.1871	1200.4944	1250.1628	1256.9712	1275.298	1299.8178	1322.7202	1337.0275	1342.0906	1374.7061	1399.3916	1408.2455	1462.0065	1479.4773	1487.076	1494.28	1497.7164	1500.6027	3027.5097	3034.9272	3036.4672	3051.9815	3071.479	3081.2286	3084.467	3101.6023	3120.6611	3126.6152	3142.4552	3811.3059
CC(O)C12CCCC1O2	C[C@@H](O)[C@]12CCC[C@H]1O2	
InChI=1S/C7H12O2/c1-5(8)7-4-2-3-6(7)9-7/h5-6,8H,2-4H2,1H3	InChI=1S/C7H12O2/c1-5(8)7-4-2-3-6(7)9-7/h5-6,8H,2-4H2,1H3/t5-,6-,7-/m1/s1
