16
gdb 35202	3.61525	1.16261	1.08234	6.2546	74.5	-0.2487	0.0175	0.2662	1133.1699	0.125369	-396.858283	-396.850754	-396.84981	-396.890562	28.898	
N	-0.12327929	-1.1146455309	-0.0882394367	-0.337727
C	-0.0592135713	 0.0387431552	-0.0383485229	 0.339618
C	 0.0281741685	 1.4774725085	-0.0139522676	-0.275952
N	 0.6080135429	 2.0815871075	 1.2161951868	-0.367995
C	 1.3460642758	 2.1730842527	-0.0271475484	 0.399123
C	 2.7816806639	 1.6258794826	-0.1901477702	-0.300597
C	 3.1144184243	 2.9274096751	-0.9402951716	-0.038959
N	 2.2050435285	 2.9794969605	-2.1073771982	-0.324855
C	 1.7218899111	 3.4367633798	-0.7768123197	-0.172377
H	-0.8027088199	 1.9822357522	-0.4992031776	 0.132463
H	 0.1204295818	 2.9512584446	 1.4234182395	 0.243261
H	 3.276812285	 1.5397484522	 0.7791168049	 0.127288
H	 2.8981978879	 0.7043526127	-0.7634102893	 0.13315
H	 4.0493183169	 3.4722143579	-0.9321008525	 0.106643
H	 2.4407734931	 3.8186633597	-2.6381701952	 0.234796
H	 1.3431965315	 4.4403900096	-0.6219385712	 0.102121
90.7778	119.363	190.1452	298.1949	351.6565	401.2836	476.579	512.825	569.4105	631.3853	765.6374	818.7361	829.5171	836.4063	895.707	907.956	932.8878	958.8078	977.3363	1010.9083	1041.5196	1058.0831	1105.1765	1121.2433	1162.4562	1191.6514	1202.1519	1237.98	1300.0838	1322.3163	1331.2564	1377.9592	1456.3448	1476.4589	2359.2179	3078.2032	3141.0871	3150.995	3182.1468	3205.3958	3465.5485	3488.0146
N#CC1NC11CC2NC12	N#C[C@H]1N[C@]21C[C@H]1N[C@@H]21	
InChI=1S/C6H7N3/c7-2-4-6(9-4)1-3-5(6)8-3/h3-5,8-9H,1H2	InChI=1S/C6H7N3/c7-2-4-6(9-4)1-3-5(6)8-3/h3-5,8-9H,1H2/t3-,4-,5-,6+/m1/s1
