21
gdb 90934	2.93997	1.44786	1.40107	1.5917	81.67	-0.221	0.0912	0.3122	1076.9341	0.183342	-387.072982	-387.064873	-387.063929	-387.105064	32.535	
C	-0.113537896	 1.5626871794	-0.0396626196	-0.408329
C	 0.0468062	 0.0541835737	 0.0351884928	 0.147927
O	 0.826251407	-0.4027389518	-1.0886693985	-0.286351
C	 1.5167668374	-1.5546695222	-0.6546188722	 0.064057
C	 2.5870980994	-1.4102276125	 0.4153177529	-0.15232
C	 2.3159820558	-0.133039984	 1.2058815827	-0.237697
C	 0.8004900046	-0.5221527778	 1.2397344899	-0.129819
C	 1.1845329216	-1.9513095071	 0.7418943992	 0.301662
C	 0.6977580497	-3.2737237112	 1.2509156593	-0.520232
H	 0.8506524758	 2.0719805041	 0.0362660597	 0.123383
H	-0.5733078979	 1.8457644188	-0.990764029	 0.127108
H	-0.7604617377	 1.9153057557	 0.7701443698	 0.111418
H	-0.9515583207	-0.415515895	-0.0132992493	 0.061732
H	 1.6595033198	-2.2966859673	-1.4322541238	 0.094583
H	 3.5274868734	-1.9487037189	 0.3581115591	 0.076869
H	 2.7583320472	-0.1734313033	 2.2042450389	 0.099494
H	 2.5828142895	 0.8187765774	 0.7359963002	 0.098647
H	 0.280239626	-0.4230504439	 2.1928209813	 0.068056
H	-0.3869829036	-3.3760756553	 1.1257281212	 0.121093
H	 1.1704295512	-4.0998208957	 0.7090828425	 0.120928
H	 0.9232056475	-3.405839913	 2.3157403929	 0.11779
145.073	194.0846	208.2503	231.2142	252.5484	282.1849	379.6636	483.1862	511.238	588.6721	613.4462	730.2275	778.5412	800.8712	840.4671	863.0228	903.8564	921.6874	953.4534	979.7149	1006.3801	1027.4321	1040.1592	1073.6046	1084.8159	1108.304	1128.6174	1139.6975	1166.0977	1175.6596	1216.4436	1247.1123	1287.8948	1293.4367	1313.8138	1358.2329	1386.0783	1412.5555	1415.0215	1457.9267	1484.3969	1487.225	1492.0271	1498.2915	1503.5678	2941.9579	3018.2652	3042.9392	3049.0671	3075.7471	3091.6464	3099.5236	3111.4829	3114.074	3124.3375	3160.858	3181.6854
CC1OC2C3CC1C23C	C[C@H]1O[C@H]2[C@H]3C[C@@H]1[C@@]23C	
InChI=1S/C8H12O/c1-4-5-3-6-7(9-4)8(5,6)2/h4-7H,3H2,1-2H3	InChI=1S/C8H12O/c1-4-5-3-6-7(9-4)8(5,6)2/h4-7H,3H2,1-2H3/t4-,5+,6-,7+,8-/m1/s1
