18
gdb 16994	3.69279	2.25841	2.02099	0.2899	75.71	-0.2143	0.0203	0.2345	769.0071	0.156314	-310.637962	-310.63172	-310.630776	-310.667773	26.262	
C	 0.0307297082	 1.4138668367	 0.0315651277	-0.352386
C	 1.3457394718	 0.6977541039	-0.0548741544	 0.262274
C	 1.7475027704	 0.1109261764	 1.3129806943	-0.280617
C	 0.3996119448	-0.689693165	 1.3644107345	-0.282977
C	 0.0270367305	-0.0956358748	-0.0099499096	 0.238826
C	-0.0792944615	-0.751992953	-1.3376003328	-0.176028
C	 0.9634638766	-0.4264157748	-2.1165903939	-0.060922
C	 1.9929062972	 0.4576457895	-1.4124694654	-0.355835
H	-0.2369846093	 1.9228368934	 0.9550380955	 0.104262
H	-0.313438731	 1.9082454261	-0.8701370205	 0.114578
H	 2.6166390017	-0.5482825227	 1.2462428213	 0.102482
H	 1.9257906404	 0.835156336	 2.115283905	 0.094361
H	 0.5543871289	-1.770070828	 1.3340162992	 0.10512
H	-0.2827225795	-0.4592715837	 2.1889852974	 0.094405
H	-0.9051163706	-1.3844457801	-1.6468739942	 0.090747
H	 1.0713221728	-0.7181507849	-3.1572670666	 0.08895
H	 2.1921956535	 1.3786543225	-1.9756894071	 0.107722
H	 2.9597724351	-0.0557423573	-1.3172849903	 0.105038
198.4324	240.765	328.7921	404.0174	473.0907	549.9614	634.7206	689.0831	745.3834	763.7881	775.5431	796.2742	865.5927	909.3281	931.2391	940.4636	945.9522	963.6486	972.1951	979.8159	1076.9045	1095.8644	1119.7203	1131.708	1188.4639	1213.6679	1238.2541	1242.1334	1266.0164	1283.3862	1326.1924	1364.5225	1378.6572	1473.2653	1476.1539	1480.6508	1500.8836	1636.3328	3009.5358	3036.353	3037.8167	3047.9845	3093.2191	3106.523	3115.421	3167.07	3192.1919	3207.0796
C1C23CCC12C=CC3	C1[C@@]23CC[C@@]12C=CC3	
InChI=1S/C8H10/c1-2-7-4-5-8(7,3-1)6-7/h1-2H,3-6H2	InChI=1S/C8H10/c1-2-7-4-5-8(7,3-1)6-7/h1-2H,3-6H2/t7-,8+/m0/s1
