21
gdb 119888	4.23244	0.8963	0.76843	0.4956	81.73	-0.2105	0.034	0.2445	1536.3642	0.184372	-420.41968	-420.410568	-420.409624	-420.454011	33.78	
C	 0.0197467872	 1.545159397	-0.1210670216	-0.389918
C	-0.0076857252	 0.0337926694	 0.0109195374	-0.029303
O	 0.6893105746	-0.5112989122	-1.1196395391	-0.263871
C	 0.7579619213	-1.8555186059	-1.2047832581	 0.404487
N	 0.2621074806	-2.6098066466	-0.315188116	-0.318783
C	 0.3537118241	-4.0556418485	-0.5056072443	-0.151517
C	 0.6839348262	-4.4838012423	-1.9406996857	-0.175019
N	 1.7855671601	-3.7068595612	-2.516471177	-0.284928
C	 1.4741985359	-2.2805746882	-2.473602916	-0.27075
H	 1.0480588205	 1.9180142427	-0.1322911784	 0.125412
H	-0.470722451	 1.8658732642	-1.0446915579	 0.12579
H	-0.5033355035	 2.0028957808	 0.7239853474	 0.118601
H	 0.4790200517	-0.3065599215	 0.9311292359	 0.114289
H	-1.029765877	-0.3598184226	 0.0258918324	 0.113756
H	 1.1157915507	-4.445370204	 0.1861768904	 0.098109
H	-0.5962631473	-4.5022060624	-0.1846325324	 0.102693
H	 0.9365851843	-5.548689961	-1.9782296313	 0.101173
H	-0.1948908577	-4.3374516941	-2.5825532576	 0.107675
H	 2.6238896505	-3.8753781209	-1.9675704397	 0.217738
H	 0.8406610923	-2.0143940321	-3.3317840369	 0.128685
H	 2.3917623217	-1.6940974305	-2.5797842415	 0.12568
58.1235	99.316	154.3831	160.5139	246.8107	261.5999	327.9543	337.4059	414.4057	487.4454	542.8748	561.3506	711.7883	801.4127	808.5147	848.6775	891.1306	899.3917	930.5959	984.2348	1004.6453	1059.4779	1101.5854	1131.6361	1152.2571	1161.191	1183.2862	1203.5283	1261.4867	1277.5085	1284.2253	1326.9502	1357.9971	1371.0121	1387.9329	1405.0052	1425.3305	1465.8211	1480.9821	1486.0411	1487.9887	1495.2271	1496.6542	1520.8005	1743.9611	2992.6456	3011.3859	3019.1875	3037.3051	3043.4107	3044.0686	3076.3494	3078.3587	3085.6795	3118.1204	3122.0091	3500.7793
CCOC1=NCCNC1	CCOC1=NCCNC1	
InChI=1S/C6H12N2O/c1-2-9-6-5-7-3-4-8-6/h7H,2-5H2,1H3	InChI=1S/C6H12N2O/c1-2-9-6-5-7-3-4-8-6/h7H,2-5H2,1H3
