19
gdb 83748	2.84236	1.54496	1.38978	2.113	74.83	-0.2318	0.0723	0.3041	1017.9485	0.160321	-422.99507	-422.987484	-422.98654	-423.026844	30.937	
O	 0.0663150644	 1.3849082771	-0.1075288965	-0.43597
C	-0.0156441648	-0.0007469382	 0.0128187007	 0.130025
C	-0.4296991041	-0.69984364	 1.2838611368	-0.131023
C	-1.2009582511	 0.1509279214	 2.2758914376	-0.121474
O	-2.1674186154	 0.8716615918	 1.4935684494	-0.315247
C	-2.533353801	 0.0445840272	 0.3977701443	 0.452245
C	-3.9307827153	-0.5104694731	 0.353682667	-0.335195
C	-3.5131931454	 0.6312720049	-0.5628633654	-0.331334
C	-1.3201495652	-0.7625580339	 0.0410503083	-0.204308
H	-0.6988160486	 1.7574935767	 0.3522833106	 0.297808
H	 0.79126593	-0.4658379817	-0.54445454	 0.105206
H	 0.1202677075	-1.5579138041	 1.6531820261	 0.091322
H	-1.6994663161	-0.4798629652	 3.0258041801	 0.105474
H	-0.5936724335	 0.8999422762	 2.7937018753	 0.118256
H	-4.0928978696	-1.4933150941	-0.0764595937	 0.112774
H	-4.5810043534	-0.2600447276	 1.1843359849	 0.122417
H	-3.9000110044	 1.6179163818	-0.3336458747	 0.125681
H	-3.3766408652	 0.4292146655	-1.6193175444	 0.12197
H	-1.4496524087	-1.6666705547	-0.5424408266	 0.091373
104.9823	203.6928	223.3284	283.6124	303.2151	436.8586	503.5123	520.9621	532.7938	632.6923	734.6037	753.2919	761.5545	784.3517	821.5821	880.5043	904.0169	955.7441	960.1961	993.4938	1000.2779	1020.2906	1049.675	1059.9478	1068.308	1077.5851	1094.2416	1113.3977	1186.0813	1188.4533	1224.323	1256.3043	1265.7554	1331.005	1337.3793	1395.3365	1413.9297	1449.6627	1470.9343	1500.2396	1517.3802	3002.0965	3079.1546	3130.299	3137.6683	3163.1772	3172.2975	3183.0031	3216.8538	3231.4266	3741.3515
OC1C2COC3(CC3)C12	O[C@H]1[C@H]2COC3(CC3)[C@@H]12	
InChI=1S/C7H10O2/c8-6-4-3-9-7(1-2-7)5(4)6/h4-6,8H,1-3H2	InChI=1S/C7H10O2/c8-6-4-3-9-7(1-2-7)5(4)6/h4-6,8H,1-3H2/t4-,5+,6-/m0/s1
