18
gdb 77106	3.314	1.10988	0.93146	3.2102	78.16	-0.2714	0.0273	0.2986	1261.2866	0.147419	-401.9374	-401.928762	-401.927817	-401.970806	32.604	
O	 0.2895669974	 0.8251504634	-0.6196425152	-0.421539
C	-0.0273085701	-0.445879268	-0.1318179076	 0.054899
C	-0.0142563334	-0.6682204472	 1.4290837408	-0.170546
C	-1.3785554283	-1.4216463244	 1.2821848889	-0.325096
C	-1.5173602331	-0.7789236848	-0.1018499774	 0.337403
C	-2.5862287731	 0.1915281505	-0.5138602907	-0.307234
C	-2.417100849	-1.1202943853	-1.2463495854	-0.342857
C	 1.1148553383	-1.3644359884	 2.0134815218	 0.250877
N	 2.0254876865	-1.9337807157	 2.4438864639	-0.329155
H	 1.2374270845	 0.8727573845	-0.7795454785	 0.296624
H	 0.5567333781	-1.2319378804	-0.6293739579	 0.091474
H	-0.156723008	 0.2992098745	 1.9168233495	 0.131494
H	-1.2413381943	-2.505440243	 1.2434515808	 0.125328
H	-2.1359250363	-1.182387248	 2.030584461	 0.121669
H	-3.4457050492	 0.3070232267	 0.138620085	 0.114077
H	-2.2654361139	 1.0988091382	-1.0126842542	 0.136369
H	-1.9975739432	-1.0938376465	-2.2471759126	 0.119446
H	-3.162360453	-1.8942784762	-1.0936350622	 0.116767
64.7718	135.2852	197.8121	220.3894	248.4639	280.1864	335.0709	379.3574	468.5333	512.7864	561.2585	583.513	733.6401	782.8444	827.543	879.3086	901.6966	930.4798	974.9731	989.0154	1049.2134	1057.1612	1057.6986	1082.5553	1121.2396	1143.3661	1191.6565	1195.6056	1225.9462	1246.8906	1254.9691	1271.9432	1348.2506	1387.3519	1446.0265	1463.1137	1495.5607	1505.9176	2348.1212	3011.5703	3067.4291	3089.043	3125.3003	3125.4664	3134.2018	3207.008	3227.4152	3822.4893
OC1C(CC11CC1)C#N	O[C@H]1[C@@H](CC21CC2)C#N	
InChI=1S/C7H9NO/c8-4-5-3-7(1-2-7)6(5)9/h5-6,9H,1-3H2	InChI=1S/C7H9NO/c8-4-5-3-7(1-2-7)6(5)9/h5-6,9H,1-3H2/t5-,6-/m0/s1
