21
gdb 42028	3.08666	1.47343	1.06962	0.1833	78.13	-0.2292	0.0853	0.3145	1153.9455	0.186265	-424.236578	-424.229042	-424.228098	-424.268588	30.313	
C	 0.0069554343	 1.5282716961	-0.0704141596	-0.212242
C	 1.4999069293	 1.9944357644	-0.0087382606	-0.268137
C	 2.2060353764	 0.7801616217	 0.5780137797	 0.149644
O	 3.5998522076	 0.6971694692	 0.3531754878	-0.271892
C	 4.066140341	-0.5460760565	 0.8678183717	-0.089837
C	 3.3018043855	-1.7399006477	 0.2805855524	-0.089837
O	 1.8948847763	-1.6223078167	 0.4668379825	-0.271892
C	 1.4732467633	-0.3864172725	-0.0762629598	 0.149646
C	 0.0091699709	-0.0240933917	 0.1300283782	-0.268138
H	-0.5906151167	 2.0151738127	 0.7039906644	 0.1079
H	-0.4420354122	 1.8016685637	-1.0282911632	 0.1079
H	 1.8947756453	 2.1904890546	-1.0108787228	 0.11071
H	 1.6380531512	 2.9022254738	 0.5822480705	 0.103468
H	 2.0119767356	 0.7226135937	 1.6650634002	 0.063148
H	 5.1280484136	-0.6190926298	 0.6141003707	 0.107001
H	 3.966619004	-0.5560704872	 1.9657335484	 0.094116
H	 3.5299284712	-1.8233328166	-0.7947843967	 0.094116
H	 3.6136205144	-2.6648597341	 0.7751300239	 0.107001
H	 1.7164822466	-0.3645879128	-1.1546915896	 0.063147
H	-0.2872001546	-0.2917020053	 1.1494371526	 0.110709
H	-0.6650476829	-0.542441219	-0.5549367207	 0.103468
95.5633	169.651	211.7296	350.0199	355.8211	386.3974	443.0476	507.2105	538.8748	622.3462	632.8314	767.9515	824.4723	874.3686	897.3787	910.0994	957.5727	966.461	993.1221	1033.1714	1062.2647	1117.6341	1124.0641	1149.6327	1156.0131	1158.8142	1186.7648	1207.8027	1259.7099	1267.0037	1284.4468	1298.2006	1311.1218	1317.7145	1330.8076	1365.4417	1386.2529	1395.5884	1427.3458	1430.4623	1485.9664	1489.8914	1493.2212	1501.7762	1517.8189	2928.2148	2942.7139	2969.4576	2980.0264	3055.4871	3056.8649	3069.0928	3086.7349	3086.7587	3093.9232	3108.4239	3119.4929
C1CC2OCCOC2C1	C1C[C@@H]2OCCO[C@H]2C1	
InChI=1S/C7H12O2/c1-2-6-7(3-1)9-5-4-8-6/h6-7H,1-5H2	InChI=1S/C7H12O2/c1-2-6-7(3-1)9-5-4-8-6/h6-7H,1-5H2/t6-,7-/m0/s1
