22
gdb 103147	1.96112	1.48614	1.18449	2.6084	83.18	-0.2578	0.0344	0.2921	1219.9952	0.192822	-404.367005	-404.356941	-404.355997	-404.401581	37.562	
C	 0.0234669715	 1.661370425	-0.0190997289	-0.3987
C	-0.115409896	 0.1387840155	 0.1045914697	-0.231356
C	 0.6581154669	-0.4699330153	 1.2863735637	 0.145929
C	 0.2299525882	 0.1097111774	 2.6371138461	-0.453104
C	 0.8117994747	-2.028980398	 1.293862195	 0.105506
C	 0.184986207	-2.8990431313	 0.2273494307	-0.41351
O	 2.2624504263	-1.8784061084	 1.0944459888	-0.27734
C	 2.1672380748	-0.5069333246	 1.0943341327	 0.423315
N	 3.058250479	 0.3706748854	 0.9761573066	-0.556634
H	 1.0774613313	 1.9508271367	-0.0498431952	 0.156378
H	-0.4584443923	 2.0113277384	-0.9370241088	 0.109865
H	-0.4479093972	 2.1838539513	 0.8183735298	 0.115681
H	-1.1745857059	-0.1339080769	 0.2046335577	 0.094235
H	 0.2350086395	-0.3183003767	-0.8267399978	 0.103035
H	-0.8477683428	-0.0192011789	 2.7889933694	 0.114031
H	 0.7522253991	-0.3851080446	 3.4616113892	 0.121729
H	 0.4601961118	 1.1758336839	 2.6953015775	 0.142646
H	 0.6360392677	-2.4574656785	 2.2866252534	 0.087427
H	 0.3976917974	-2.5291866703	-0.778054975	 0.130933
H	 0.5749938967	-3.9185402851	 0.3042304819	 0.131544
H	-0.9008883659	-2.9419923527	 0.362142385	 0.124974
H	 3.9825112879	-0.0505496527	 0.8645135087	 0.223416
79.5073	109.9725	153.2218	196.4548	220.1551	236.3217	241.517	288.8651	312.4546	325.5431	398.762	481.8375	532.7004	673.1779	691.7676	724.5899	789.1634	842.0809	868.3426	871.979	930.4458	1015.2223	1019.3423	1028.1852	1046.2326	1069.3107	1082.7617	1133.1763	1186.6659	1213.8501	1228.5101	1261.0278	1306.6766	1361.4326	1373.1299	1389.5335	1409.9412	1413.8473	1416.6864	1477.11	1484.7061	1493.3611	1497.4073	1500.7215	1509.558	1515.4409	1811.5584	3017.2954	3033.8836	3042.0212	3043.7369	3047.6512	3066.6307	3101.0108	3108.691	3109.9398	3125.1398	3129.0101	3131.8693	3467.8877
CCC1(C)C(C)OC1=N	CC[C@@]1(C)[C@@H](C)O[C]1[NH]	
InChI=1S/C7H13NO/c1-4-7(3)5(2)9-6(7)8/h5,8H,4H2,1-3H3	InChI=1S/C7H13NO/c1-4-7(3)5(2)9-6(7)8/h5,8H,4H2,1-3H3/t5-,7+/m1/s1
