12
gdb 23777	3.34396	2.36041	1.3837	6.3859	61.72	-0.2145	-0.0203	0.1941	795.5532	0.085899	-418.83137	-418.825096	-418.824152	-418.861855	23.666	
F	 0.0159131234	 0.0341575565	 0.0040636195	-0.049766
C	-0.0056687674	 1.3594935075	 0.0107830327	 0.211325
C	-1.1803320767	 2.0107823162	 0.0295570076	-0.122948
N	-1.1700025284	 3.3981013955	 0.0361428434	-0.306718
C	 0.026692179	 4.0511606897	 0.0234177049	 0.098759
N	 1.1783116866	 3.4829886589	 0.0053440749	-0.32009
C	 1.2735363226	 2.0739511173	-0.0027605676	 0.25206
N	 2.3783958106	 1.4319188245	-0.0204906724	-0.532725
H	-2.1375618347	 1.5091488992	 0.0398324035	 0.14639
H	-2.0338507698	 3.9137810761	 0.050215783	 0.273086
H	-0.0416925735	 5.1374560461	 0.0295997553	 0.132988
H	 3.1442633682	 2.1089827724	-0.0273649248	 0.217639
110.0388	311.7312	312.5354	375.0463	424.1939	479.4413	530.8166	571.417	589.0487	760.344	783.0391	857.914	899.0544	935.9799	958.3084	1017.8505	1071.3313	1207.9243	1276.638	1294.17	1401.4822	1427.8623	1522.9702	1659.9294	1687.6393	1727.4386	3152.6542	3238.8397	3461.2693	3658.3911
FC1=CNC=NC1=N	FC1=CNCN=C1[NH]	
InChI=1S/C4H4FN3/c5-3-1-7-2-8-4(3)6/h1-2H,(H2,6,7,8)	InChI=1S/C4H5FN3/c5-3-1-7-2-8-4(3)6/h1,6-7H,2H2
