18
gdb 62297	3.39901	1.48652	1.18777	2.0327	82.84	-0.2328	0.0447	0.2775	1064.4148	0.146472	-364.675332	-364.667479	-364.666535	-364.707231	31.354	
C	-0.1502363088	 1.5719178512	-0.0144809396	-0.475521
C	-0.0445356976	 0.0457575681	-0.0098668363	 0.127857
C	-1.3164218008	-0.5816469699	-0.3360550231	 0.275775
C	-2.3937788549	-1.0394937289	-0.610926252	-0.434055
C	 1.2143558128	-0.5891778872	-0.6524751612	-0.042921
C	 2.1549673367	-0.2219380025	 0.5348029487	-0.089246
C	 2.5794052286	-1.6830131274	 0.6198063164	-0.194628
N	 1.1087185302	-1.8460864305	 0.2507548509	-0.146981
C	 0.7695651575	-0.6146040171	 1.13122182	-0.042931
H	 0.8074588774	 2.039342537	 0.2311335218	 0.118705
H	-0.4666289121	 1.9301312244	-0.9984639741	 0.131301
H	-0.8941097596	 1.9057222124	 0.7148111099	 0.131301
H	-3.334291041	-1.4700262839	-0.8505753345	 0.190073
H	 1.4672663465	-0.686437665	-1.7100625194	 0.086848
H	 2.7311060177	 0.695136649	 0.6915407011	 0.070572
H	 3.2649176003	-2.0682257575	-0.1420745872	 0.103503
H	 2.8296042888	-2.0931147413	 1.6036733366	 0.103501
H	 0.4970339883	-0.7418981408	 2.1807149821	 0.086846
139.0414	153.5074	211.6868	253.89	264.307	407.6115	451.2083	519.8347	541.604	621.1607	630.4464	630.7143	746.2446	805.2531	843.6261	845.1176	885.4898	885.7489	928.8626	945.3342	1022.5369	1028.5145	1074.4121	1100.2775	1100.808	1142.213	1150.5928	1184.2047	1185.2487	1186.9005	1208.9415	1274.9495	1289.3588	1319.3293	1412.7969	1486.5423	1498.4649	1520.4622	2231.9473	3036.1315	3042.2024	3054.6502	3096.538	3096.8218	3103.1277	3113.4813	3118.1224	3503.3016
CC1(C#C)C2C3CN2C13	C[C@@]1(C#C)[C@H]2[C@@H]3CN2[C@H]13	
InChI=1S/C8H9N/c1-3-8(2)6-5-4-9(6)7(5)8/h1,5-7H,4H2,2H3	InChI=1S/C8H9N/c1-3-8(2)6-5-4-9(6)7(5)8/h1,5-7H,4H2,2H3/t5-,6+,7-,8+
