19
gdb 68046	2.08326	1.9098	1.29508	0.0551	76.49	-0.2407	0.086	0.3267	1064.1592	0.156304	-422.947714	-422.938915	-422.937971	-422.980546	33.798	
C	 0.0588584156	 1.461193483	 0.1137444558	-0.519976
C	-0.0309535802	-0.0211355182	-0.0475590615	 0.303264
C	 0.5556929415	-0.9528049651	-1.1444761474	-0.305526
C	 0.0227337706	-1.8595903529	-0.0003248952	 0.303263
C	 0.1986092943	-3.3239262409	 0.2366807812	-0.519975
O	 0.6107586307	-0.8967627714	 0.9741547811	-0.37745
C	-1.2358873227	-0.9747511131	 0.0376366277	 0.450047
C	-2.5215894647	-0.9951804019	 0.7037977727	-0.305554
O	-2.395521423	-1.0287849535	-0.7475493575	-0.292966
H	 1.0992384272	 1.7953839313	 0.063398653	 0.135233
H	-0.5044072914	 1.9579211856	-0.6823790287	 0.136157
H	-0.35829322	 1.7676190772	 1.0778630398	 0.133744
H	 0.0457061388	-0.9925205455	-2.1105752069	 0.109952
H	 1.6439956401	-0.9231270835	-1.2264009187	 0.099892
H	 1.2568043588	-3.5989590524	 0.202195367	 0.135236
H	-0.2015901265	-3.6043438575	 1.2157840367	 0.13374
H	-0.3333482561	-3.8928506672	-0.5321916917	 0.136157
H	-2.8940627906	-1.914758678	 1.1516223455	 0.122381
H	-2.9477206124	-0.0771236758	 1.1044118672	 0.122381
166.1003	169.6355	189.5926	194.9072	222.6595	230.9115	247.3074	398.0434	477.5323	478.6472	592.0677	602.8744	672.0643	681.8219	713.1321	800.4566	843.5175	898.3125	935.5926	987.5733	1009.1964	1058.459	1058.9149	1075.8047	1106.1488	1146.9411	1157.4503	1159.5365	1168.1706	1205.0851	1294.5697	1362.406	1409.7689	1418.7011	1456.1601	1476.7722	1479.4816	1488.5594	1489.251	1500.0892	1573.7758	3040.6991	3040.7092	3059.882	3090.0361	3114.9073	3114.9405	3116.4793	3116.6621	3140.8505	3176.5255
CC12CC(C)(O1)C21CO1	C[C@@]12C[C@@](C)(O1)[C@]12CO1	
InChI=1S/C7H10O2/c1-5-3-6(2,9-5)7(5)4-8-7/h3-4H2,1-2H3	InChI=1S/C7H10O2/c1-5-3-6(2,9-5)7(5)4-8-7/h3-4H2,1-2H3/t5-,6+,7+
