16
gdb 124139	3.67844	0.96292	0.76741	1.6698	85.23	-0.1946	0.0127	0.2073	1446.5247	0.125437	-396.935522	-396.926453	-396.925509	-396.970544	32.479	
C	-0.0603703488	 1.4935112409	 0.0036376283	-0.51064
C	-0.0012447901	 0.0398074278	-0.0037449838	 0.228968
C	 0.0618526682	-1.1665524649	-0.0014634714	-0.173856
C	 0.0797785879	-2.5768311775	-0.0030371608	 0.090398
C	 1.1600683276	-3.4453797296	-0.0767949865	-0.157236
N	 0.6580071839	-4.6933269979	-0.0539730659	-0.194725
N	-0.70025166	-4.7281887567	 0.0285775868	-0.295955
C	-1.0534681096	-3.4499896079	 0.0655082537	 0.258445
N	-2.3728606521	-3.0564910584	 0.2138948552	-0.600701
H	 0.9104920216	 1.9251376594	 0.2721235012	 0.149149
H	-0.3384587339	 1.8950124903	-0.9780404326	 0.144471
H	-0.7939892773	 1.8597947766	 0.7309614323	 0.147874
H	 2.2177762278	-3.2473849723	-0.1439710798	 0.135433
H	 1.1613167419	-5.5617285503	-0.0887905486	 0.275001
H	-3.0341946836	-3.7578751578	-0.0887356001	 0.251607
H	-2.5666531135	-2.1484387518	-0.184342578	 0.251766
26.4965	82.043	107.3105	250.5417	259.0556	294.9052	330.8587	393.1531	412.0028	469.6165	503.5975	558.4069	636.0834	643.9185	735.8403	764.8083	793.8298	937.2154	984.1522	1052.1107	1053.0046	1057.3777	1109.8824	1213.0885	1245.9776	1351.1768	1413.0851	1420.1784	1475.5051	1479.7009	1494.7128	1540.5888	1613.9993	1645.1286	2351.8737	3020.4968	3076.2962	3083.9585	3266.175	3557.216	3660.6155	3694.5799
CC#CC1=CNN=C1N	CC#Cc1c[nH]nc1N	
InChI=1S/C6H7N3/c1-2-3-5-4-8-9-6(5)7/h4H,1H3,(H3,7,8,9)	InChI=1S/C6H7N3/c1-2-3-5-4-8-9-6(5)7/h4H,1H3,(H3,7,8,9)
