23
gdb 122434	3.09814	0.86699	0.82218	1.9582	83.18	-0.2422	0.0767	0.3189	1550.173	0.203297	-425.406275	-425.395664	-425.39472	-425.442199	39.151	
C	-0.3297032005	 1.4238820728	 0.6281035393	-0.456668
C	 0.0036513181	 0.0020086509	 0.2200694247	 0.313742
C	-1.1393437441	-0.7669991439	-0.4134436231	-0.450084
C	 1.4070787794	-0.2758173547	-0.2968123081	-0.35941
C	 0.9986592682	-0.7893705922	 1.0496237691	 0.090823
O	 1.637449836	-0.2158760873	 2.1485361455	-0.263785
C	 0.9046891831	-0.3162640192	 3.3634241317	-0.072093
C	 1.6974368571	 0.4545626482	 4.407834657	-0.065452
O	 1.8859198964	 1.8025973526	 4.0222183511	-0.420418
H	 0.4679012264	 1.8673671773	 1.2284677711	 0.124168
H	-0.4883638516	 2.0563716003	-0.2529306247	 0.113785
H	-1.2495395042	 1.4559357214	 1.223803391	 0.113426
H	-1.4655292232	-0.2901985708	-1.3455775835	 0.116929
H	-0.848528732	-1.7947370979	-0.6545475509	 0.111385
H	-2.0058659704	-0.812286103	 0.2568830246	 0.113849
H	 1.5443010703	-0.9847439902	-1.106528727	 0.109191
H	 2.1090425333	 0.5515305477	-0.2956849522	 0.115542
H	 0.8148045316	-1.8597108188	 1.161839393	 0.078794
H	-0.0948893229	 0.1234527948	 3.2423326753	 0.101897
H	 0.7879983545	-1.3705761196	 3.6612832235	 0.089044
H	 1.1503651458	 0.4620798707	 5.3560432244	 0.108686
H	 2.6604105143	-0.0529376121	 4.5761897157	 0.094189
H	 2.2806093944	 1.7676362832	 3.1432458923	 0.292461
49.0343	75.3864	119.1892	169.1518	210.1711	225.6114	248.7952	267.7503	339.2688	347.9338	381.8291	431.5558	457.9935	498.3003	581.8082	713.7068	788.2926	851.7382	905.879	907.1541	916.9385	973.685	987.368	1033.6441	1049.9935	1073.6859	1086.4061	1108.703	1133.7437	1137.0704	1156.1024	1210.1059	1240.3237	1258.2328	1284.0309	1333.5688	1379.5014	1390.3663	1408.7465	1423.7738	1428.4231	1438.5401	1483.0234	1484.5086	1492.7519	1497.3526	1501.42	1510.5374	1512.9453	2977.8555	2985.4483	3018.0636	3027.0691	3035.3433	3077.6628	3078.0261	3080.9991	3083.0202	3093.8267	3123.8322	3129.8073	3217.106	3803.116
CC1(C)CC1OCCO	CC1(C)C[C@H]1OCCO	
InChI=1S/C7H14O2/c1-7(2)5-6(7)9-4-3-8/h6,8H,3-5H2,1-2H3	InChI=1S/C7H14O2/c1-7(2)5-6(7)9-4-3-8/h6,8H,3-5H2,1-2H3/t6-/m1/s1
