21
gdb 63391	2.50734	1.36586	1.06756	2.0921	79.2	-0.2388	-0.0266	0.2122	1221.6695	0.178271	-424.239789	-424.229595	-424.228651	-424.274838	37.629	
C	-0.4727085459	 1.416008756	 0.8357018	-0.429956
C	 0.1383106744	 0.0940547419	 0.3964526648	 0.43002
C	-0.6837510889	-1.1030682587	 0.8544933607	-0.431704
C	 0.6382491222	 0.0336175941	-1.0706942744	-0.39032
C	 2.0348996858	-0.1600816437	-0.4592271554	 0.340265
C	 3.1235854315	 0.8526005744	-0.7785879807	-0.460664
O	 1.519523892	-0.0113369228	 0.891796128	-0.369505
C	 2.5825620475	-1.5788265436	-0.5652925782	 0.126897
O	 2.2464257617	-2.3972682529	-1.3813275348	-0.254159
H	 0.1496536819	 2.2577862682	 0.5200444042	 0.1162
H	-1.4708591403	 1.5408720296	 0.4020671718	 0.117881
H	-0.5662122573	 1.4501108775	 1.9259469995	 0.125074
H	-1.6952655102	-1.0568147039	 0.4366652157	 0.117103
H	-0.223415022	-2.0411278275	 0.533107421	 0.12952
H	-0.7634460283	-1.1145273252	 1.9462886535	 0.123106
H	 0.2882684896	-0.8100843788	-1.6663283581	 0.128816
H	 0.514371061	 0.9622727122	-1.6305334833	 0.102903
H	 2.7550256066	 1.8668886753	-0.6030248629	 0.129622
H	 4.0000013089	 0.693561839	-0.1410804183	 0.129394
H	 3.4351821624	 0.765765615	-1.8250993437	 0.131937
H	 3.3283669671	-1.8120187962	 0.2286510706	 0.087569
51.766	82.2198	166.8677	205.1282	210.7205	236.5906	280.9935	292.4945	324.1935	354.571	369.2399	425.5189	480.0507	552.4575	644.613	738.1087	849.998	885.725	900.8122	909.6768	938.7882	951.8256	983.4176	1003.7721	1007.3577	1040.4667	1108.9387	1192.5094	1200.1954	1251.5682	1276.394	1284.6982	1309.8237	1396.0586	1403.4156	1408.1154	1416.0324	1473.8503	1479.3651	1481.6035	1485.8229	1490.9649	1496.5888	1506.854	1830.4933	2878.7349	3032.2425	3032.5923	3037.8953	3080.0513	3102.2139	3104.4075	3109.1858	3114.847	3117.9394	3119.8147	3141.4465
CC1(C)CC(C)(O1)C=O	CC1(C)C[C@@](C)(O1)C=O	
InChI=1S/C7H12O2/c1-6(2)4-7(3,5-8)9-6/h5H,4H2,1-3H3	InChI=1S/C7H12O2/c1-6(2)4-7(3,5-8)9-6/h5H,4H2,1-3H3/t7-/m1/s1
