23
gdb 110203	2.10565	1.46376	1.03214	1.8001	86.64	-0.2252	0.0823	0.3075	1295.0387	0.203228	-388.248142	-388.238146	-388.237202	-388.282655	38.028	
C	 0.0295360103	 1.642654654	 0.052152112	-0.37554
C	 0.0783624324	 0.1172454096	 0.2135219722	-0.236475
C	-1.2898968224	-0.5323189051	 0.0514929566	-0.019906
C	-1.9600647603	-0.8369738166	-1.3275906739	 0.396555
C	-2.5760083861	 0.0894805661	-2.3300105144	-0.513302
C	-0.9867003333	-2.0232774436	-1.5479840089	-0.312413
C	-1.5023924383	-2.0704471947	-0.086308229	 0.382302
C	-1.3630496725	-3.1492439626	 0.942214927	-0.515132
O	-2.8636738282	-1.778958583	-0.6127321983	-0.376303
H	 1.0149200689	 2.0900799044	 0.2146090568	 0.112543
H	-0.3040027027	 1.9272471508	-0.9512923047	 0.118087
H	-0.6645067993	 2.0933303871	 0.7698404131	 0.11765
H	 0.8038155608	-0.3001394232	-0.4930294696	 0.096368
H	 0.458914775	-0.1251068433	 1.2148872907	 0.099165
H	-2.0182178727	-0.1009480175	 0.7474750478	 0.069347
H	-1.8071045367	 0.7097030634	-2.8016134139	 0.124416
H	-3.0868652012	-0.4796472065	-3.1130110176	 0.130293
H	-3.3052849429	 0.7482744268	-1.8486620909	 0.130298
H	-1.3776575457	-2.8142560529	-2.1908610892	 0.097736
H	 0.0699060175	-1.8190818514	-1.7344308186	 0.08897
H	-0.3161677765	-3.2536663858	 1.2452472748	 0.123853
H	-1.958162467	-2.912751031	 1.8297473831	 0.130366
H	-1.703380339	-4.1093582248	 0.5422416049	 0.131123
67.9261	131.7606	178.1816	184.5334	210.3994	221.3502	227.4545	284.8688	336.8495	373.0844	466.5242	547.88	592.0302	598.8896	659.6846	692.9878	752.2799	824.9694	858.9723	881.2111	926.2231	974.1413	1006.8155	1018.6912	1040.972	1087.059	1107.3607	1126.8387	1143.4032	1145.9715	1182.6244	1183.5667	1235.9634	1274.4568	1291.71	1332.0399	1359.3979	1400.251	1406.3825	1412.5788	1433.7114	1475.5751	1477.3115	1484.0678	1488.5347	1488.8991	1500.1198	1504.9028	1513.3994	3019.2358	3032.9769	3036.2356	3036.6447	3046.8961	3062.2188	3071.5023	3101.9247	3104.4772	3109.0176	3109.91	3111.6701	3111.8173	3137.2698
CCC1C2(C)CC1(C)O2	CC[C@H]1[C@@]2(C)C[C@]1(C)O2	
InChI=1S/C8H14O/c1-4-6-7(2)5-8(6,3)9-7/h6H,4-5H2,1-3H3	InChI=1S/C8H14O/c1-4-6-7(2)5-8(6,3)9-7/h6H,4-5H2,1-3H3/t6-,7+,8-
