18
gdb 19975	3.24049	1.84045	1.48314	2.1828	66.7	-0.2529	0.0773	0.3303	905.6326	0.154071	-384.901208	-384.893505	-384.892561	-384.93356	29.05	
O	 0.222838114	 1.2131058668	-0.4842967824	-0.433403
C	 0.0283216491	-0.0645259465	 0.063153827	 0.156107
C	-0.2057964939	-0.2094722809	 1.5889668351	-0.247521
C	-1.3192787396	-1.2500780048	 1.2958825467	-0.24428
C	-1.3379997425	-0.8048225955	-0.1950850807	-0.087639
C	-2.4224493554	 0.1512519772	-0.6161247733	 0.078142
C	-3.7765370856	 0.1903829519	-0.0545945992	-0.186701
O	-2.8028431786	 1.1661849153	 0.3324791315	-0.252038
H	-0.4665070893	 1.7892040503	-0.1334224276	 0.295143
H	 0.8724697336	-0.6682046835	-0.2818522961	 0.08842
H	 0.6435396841	-0.5218058422	 2.2009555285	 0.096808
H	-0.6244520497	 0.7115401291	 2.0038930158	 0.111839
H	-0.9797538491	-2.2826730271	 1.4036593875	 0.103291
H	-2.2451062109	-1.1325618673	 1.8616928654	 0.106556
H	-1.2918591077	-1.6121158965	-0.933658115	 0.074075
H	-2.297287519	 0.5412189441	-1.6272463138	 0.1044
H	-4.5977084632	 0.5709416812	-0.6602925474	 0.118333
H	-4.0641019164	-0.5136072216	 0.7236941779	 0.118468
67.7469	107.2491	175.7247	237.7967	337.4655	398.6516	449.2577	515.7446	560.4746	694.3187	736.5507	757.1688	836.8546	888.6348	918.4567	945.3785	963.639	982.0691	1044.5282	1080.6268	1098.1708	1116.4397	1137.6377	1158.9115	1172.9972	1193.1749	1231.0536	1258.7973	1264.8148	1277.0194	1301.4129	1327.8407	1369.2566	1430.0833	1442.1101	1471.3019	1492.2493	1529.3157	3047.7295	3060.7602	3070.3295	3075.5821	3089.5838	3104.4855	3111.8841	3127.9995	3176.7154	3793.5125
OC1CCC1C1CO1	O[C@H]1CC[C@H]1[C@H]1CO1	
InChI=1S/C6H10O2/c7-5-2-1-4(5)6-3-8-6/h4-7H,1-3H2	InChI=1S/C6H10O2/c7-5-2-1-4(5)6-3-8-6/h4-7H,1-3H2/t4-,5+,6-/m1/s1
