15
gdb 123564	4.01929	1.6464	1.2755	4.0413	70.29	-0.2281	0.0022	0.2303	933.9804	0.116742	-412.949053	-412.942894	-412.941949	-412.97946	24.892	
C	 0.0383854834	 1.4733592062	-0.0111809938	-0.246063
C	 1.2732601972	 0.6561765082	 0.0411758053	-0.016181
C	 1.9544661339	 0.3624117403	 1.401551162	-0.373017
C	 0.8408059542	-0.3708957266	 2.0979653211	 0.276292
C	-0.2120927335	-0.5313769015	 1.2435499689	 0.395155
N	-1.1314615258	-1.2128768751	 1.9447119794	-0.334753
N	-0.6535294124	-1.4628465583	 3.2065050704	-0.131238
N	 0.5445616261	-0.9433633045	 3.2887561931	-0.285084
N	-0.0855592907	-0.0127157494	-0.0591704606	-0.207494
H	-0.2967250956	 1.9657323727	 0.8977558041	 0.134177
H	-0.2352719745	 1.9700766825	-0.9368023456	 0.130624
H	 1.875414982	 0.5762903083	-0.8570864698	 0.111368
H	 2.8474972272	-0.2553299687	 1.2569822848	 0.130883
H	 2.2722122473	 1.2797327352	 1.9082493586	 0.132437
H	-2.0485388889	-1.5416971293	 1.690547632	 0.282894
163.9542	240.7412	347.9486	431.0953	446.2737	556.7668	605.6996	700.9089	710.4447	733.5874	758.8605	779.574	829.7147	912.7514	959.9153	976.8627	1026.8864	1056.6006	1091.1981	1118.6748	1127.2623	1171.0119	1191.086	1222.2034	1252.3904	1284.1945	1358.0652	1365.912	1408.2163	1486.3019	1496.531	1534.8957	1610.8384	3043.0255	3076.4387	3115.1567	3175.2782	3209.2955	3667.1098
C1C2CC3=C(NN=N3)N12	C1[C@H]2Cc3c([nH]nn3)N12	
InChI=1S/C5H6N4/c1-3-2-9(3)5-4(1)6-8-7-5/h3H,1-2H2,(H,6,7,8)	InChI=1S/C5H6N4/c1-3-2-9(3)5-4(1)6-8-7-5/h3H,1-2H2,(H,6,7,8)/t3-,9?/m1/s1
