15
gdb 53219	3.15065	0.95654	0.86524	4.4937	70.95	-0.262	-0.0076	0.2544	1368.4055	0.11035	-457.754155	-457.744912	-457.743968	-457.789848	31.65	
C	-0.0592489777	 1.4564357819	-0.1673000967	-0.501304
C	-0.0457484354	 0.0055340341	-0.0623008396	 0.09037
C	-0.0014302902	-1.1955188198	 0.0284175837	 0.094587
C	-0.0179226625	-2.6372976086	 0.1233335014	-0.138172
O	 0.02428079	-3.1211628724	 1.5146997778	-0.236115
C	-1.2770514969	-3.5728051534	 1.4758927149	 0.392906
O	-1.9201985426	-4.00678304	 2.3729672824	-0.309091
C	-1.4376137458	-3.287902868	-0.037131618	-0.029068
O	-2.502201429	-2.5433366488	-0.5119933597	-0.405092
H	 0.9557509508	 1.8517558572	-0.278721187	 0.162357
H	-0.644227154	 1.7831451171	-1.033509037	 0.160363
H	-0.5006177965	 1.9104134805	 0.726111962	 0.1625
H	 0.7846822003	-3.1058761667	-0.4504469974	 0.12382
H	-1.4011958933	-4.2165774835	-0.6128335732	 0.138902
H	-2.4513659974	-1.6599127296	-0.1241490034	 0.293038
32.1796	62.4719	84.8361	160.598	219.5751	255.9405	330.6323	354.3564	389.3068	472.8123	482.307	615.7484	696.5547	738.1394	812.979	890.9286	914.9204	938.1331	1051.2783	1051.7367	1101.4075	1170.4327	1190.4438	1191.8697	1265.4197	1303.7838	1363.8314	1412.7267	1442.0628	1473.3881	1475.2699	1944.9822	2364.0166	3034.4281	3084.9613	3095.1282	3099.2227	3100.4246	3768.8949
CC#CC1OC(=O)C1O	CC#C[C@H]1OC(=O)[C@H]1O	
InChI=1S/C6H6O3/c1-2-3-4-5(7)6(8)9-4/h4-5,7H,1H3	InChI=1S/C6H6O3/c1-2-3-4-5(7)6(8)9-4/h4-5,7H,1H3/t4-,5+/m1/s1
