19
gdb 110361	3.12435	1.08028	0.9608	2.4907	71.6	-0.2446	0.0605	0.305	1268.7953	0.15861	-460.109566	-460.100523	-460.099579	-460.143597	34.137	
O	 0.252845719	 0.5130974214	 0.9577786748	-0.418548
C	-0.0901518654	 0.2005117976	-0.386253905	-0.110864
C	-1.4436139169	-0.4679356186	-0.3690441908	-0.012816
C	-1.9496650407	-1.4417685771	-1.3980895228	-0.100061
C	-1.7045349822	-1.8877397504	 0.0519870632	-0.10678
C	-0.5716965769	-2.8241697812	-0.4015514563	 0.113059
O	-0.8016233917	-4.1929337779	-0.1985935936	-0.444118
C	-0.849064055	-2.3758018012	-1.8974525157	 0.058465
O	-1.4443941774	-3.4254322777	-2.6441626205	-0.437504
H	 1.0778180154	 1.0077399254	 0.9482968892	 0.286135
H	-0.1481563634	 1.1112223678	-1.0036059956	 0.087261
H	 0.6699893803	-0.4481713555	-0.8450967753	 0.087619
H	-2.2246511028	 0.2067468326	-0.0243780383	 0.098448
H	-2.878156288	-1.2869743968	-1.9347871152	 0.094011
H	-2.4174847011	-2.1334913376	 0.8298894775	 0.091397
H	 0.4186081838	-2.6076067629	 0.0098824345	 0.083677
H	-1.5222283028	-4.4300521228	-0.7998711671	 0.277998
H	-0.0187435139	-1.929910856	-2.4614987222	 0.061599
H	-0.7414719703	-4.032209039	-2.9020982507	 0.291023
50.4038	119.1026	196.3024	221.5267	235.806	273.1164	308.6729	333.8913	376.6755	511.913	572.412	576.4701	604.6571	747.7804	801.0184	813.4395	891.3267	907.1397	972.0843	978.5677	1011.8666	1038.217	1065.8778	1077.7985	1079.7336	1126.3464	1141.9273	1183.7662	1203.9903	1232.5445	1251.2501	1261.3936	1280.5311	1305.5896	1315.0191	1335.3234	1418.5679	1427.1728	1452.2967	1481.1447	1524.2649	2972.8307	2998.787	3009.2352	3065.3947	3134.2717	3179.0672	3190.2878	3733.0847	3807.0011	3824.6739
OCC1C2C1C(O)C2O	OC[C@H]1[C@@H]2[C@H]1[C@@H](O)[C@H]2O	
InChI=1S/C6H10O3/c7-1-2-3-4(2)6(9)5(3)8/h2-9H,1H2	InChI=1S/C6H10O3/c7-1-2-3-4(2)6(9)5(3)8/h2-9H,1H2/t2-,3+,4-,5-,6+
