18
gdb 39968	3.97007	1.33089	1.13867	3.6844	77.26	-0.2417	0.0195	0.2611	1099.9992	0.14894	-401.908729	-401.901463	-401.900519	-401.94033	29.108	
C	 0.1627968917	 1.5576324276	 0.1048961801	-0.322934
C	 1.3703933928	 0.6241579298	 0.1759757621	-0.338587
C	 0.0090658014	 0.0888374404	-0.0666466256	 0.403713
O	-0.6867245409	-0.7036070844	 0.9693748835	-0.291591
C	-1.4184497227	-1.2640395707	-0.0419803126	 0.425787
N	-2.6042355183	-1.6655402056	-0.1866540802	-0.311407
C	-2.7916279735	-1.5690582179	-1.6693723845	-0.15395
C	-1.7457189916	-0.4988972613	-2.1725232741	-0.265109
C	-0.5981540405	-0.7746014748	-1.1877690391	-0.228455
H	-0.1875763164	 1.9872135751	 1.0365362076	 0.139097
H	 0.0449267031	 2.1931999279	-0.7661615601	 0.127286
H	 2.0779755654	 0.6207354056	-0.6465129179	 0.125592
H	 1.8050343789	 0.4488277703	 1.1537792633	 0.138195
H	-2.6321346284	-2.5436681269	-2.149697375	 0.108062
H	-3.8213916221	-1.2669186116	-1.8755887407	 0.11647
H	-1.4787911895	-0.6148943233	-3.2255859492	 0.10397
H	-2.158534865	 0.5044489928	-2.0259838159	 0.115792
H	 0.1290806556	-1.497732233	-1.5685552017	 0.10807
105.2811	196.3734	233.2976	269.77	373.0414	426.7191	503.949	537.2076	657.1809	685.2968	756.369	774.4579	798.3113	850.7026	886.7862	902.7712	920.9437	956.2709	984.0273	992.501	1046.4162	1052.205	1076.9458	1094.8842	1146.6111	1150.6873	1176.5802	1184.4254	1228.7872	1276.7003	1295.9186	1322.6388	1330.9055	1388.1199	1449.1438	1482.8926	1498.2237	1503.6261	1778.9606	3021.6218	3055.2358	3067.7118	3096.2352	3115.1325	3135.0252	3137.951	3219.6517	3232.7898
C1CC11OC2=NCCC12	C1CC21O[C]1[N]CC[C@@H]21	
InChI=1S/C7H9NO/c1-4-8-6-5(1)7(9-6)2-3-7/h5H,1-4H2	InChI=1S/C7H9NO/c1-4-8-6-5(1)7(9-6)2-3-7/h5H,1-4H2/t5-/m1/s1
