16
gdb 28375	3.20368	1.39166	0.97611	1.6015	78.19	-0.2	-0.0232	0.1768	1159.9696	0.126108	-434.120982	-434.112852	-434.111908	-434.153592	30.815	
C	 0.081193375	 1.4993867433	 0.034273696	-0.490851
C	-0.0409745037	 0.0071679355	-0.0726457288	 0.399603
N	 0.1119521618	-0.5920032292	-1.2113420121	-0.318444
C	-0.019021181	-1.9666810643	-1.2093400782	-0.146877
C	-0.2925357499	-2.7063763719	-0.1065690449	 0.265309
O	-0.4280546776	-4.0589997282	-0.0685036378	-0.438379
C	-0.4689689393	-2.0549729613	 1.1865056303	 0.331256
N	-0.728423291	-2.5708773082	 2.3283440908	-0.570297
N	-0.3180948253	-0.6695467477	 1.0820470083	-0.361762
H	 0.8839339028	 1.7817420665	 0.7250264899	 0.140161
H	 0.3008367416	 1.9061496594	-0.9518962373	 0.159328
H	-0.8474270075	 1.9462972019	 0.4073439883	 0.140122
H	 0.1133788024	-2.4490387649	-2.176409711	 0.094224
H	-0.2990030652	-4.4169882277	-0.9536864001	 0.303643
H	-0.8072738583	-3.5814688553	 2.2352390459	 0.230561
H	-0.4311729748	-0.1691558679	 1.9534892508	 0.262404
104.2384	138.3156	158.7099	302.8911	320.5483	346.5301	386.3222	422.1316	466.3554	541.9917	582.8151	632.7885	699.9875	742.5439	762.8207	776.6144	827.2009	907.9053	984.6108	1017.0906	1062.3908	1127.349	1185.8432	1217.4134	1289.261	1314.0572	1360.1895	1406.053	1453.45	1479.7959	1482.6399	1505.6422	1620.5922	1655.9979	1715.5688	3034.6951	3088.0814	3137.6162	3165.2843	3518.9792	3595.7716	3816.0256
CC1=NC=C(O)C(=N)N1	CC1=NCC(=C([NH])N1)O	
InChI=1S/C5H7N3O/c1-3-7-2-4(9)5(6)8-3/h2,9H,1H3,(H2,6,7,8)	InChI=1S/C5H8N3O/c1-3-7-2-4(9)5(6)8-3/h6,9H,2H2,1H3,(H,7,8)
