13
gdb 131354	6.16387	0.93288	0.81431	2.9729	63.5	-0.248	-0.0063	0.2418	1279.4808	0.091192	-448.969162	-448.961453	-448.960509	-449.002433	27.484	
O	-0.6092789206	 1.1169603328	-0.7183102605	-0.403619
C	-0.1338172833	-0.0214177377	-0.2043370436	 0.422451
N	 0.8437314137	-0.6866150012	-0.7935266201	-0.279129
N	 0.9899019466	-1.7416434137	 0.0582800237	-0.239015
C	 0.1212766846	-1.6537990032	 1.0768294264	 0.402627
C	 0.0063415055	-2.6456742301	 2.198938903	-0.458578
C	 0.9599501663	-3.7450920616	 2.0673167219	 0.26918
N	 1.7281056943	-4.5961587012	 1.9273524727	-0.298217
N	-0.6186294395	-0.564894608	 0.9469436116	-0.410648
H	-1.308849563	 1.4208202348	-0.1277359749	 0.314306
H	 1.6826258499	-2.4505193187	-0.1258990809	 0.298683
H	 0.1678017841	-2.1382195782	 3.1568414987	 0.190981
H	-1.0117109286	-3.0504104039	 2.2296779021	 0.190978
33.3394	112.2444	196.7563	284.8854	361.8608	377.669	400.5913	447.6904	525.5283	554.2363	688.1767	713.9014	767.6998	787.4033	951.9638	951.9975	1028.2206	1073.5655	1157.4743	1211.4808	1217.5212	1303.0482	1316.402	1426.5368	1453.182	1498.991	1577.1123	1639.098	2370.113	3048.8092	3081.5665	3652.083	3817.4874
OC1=NNC(CC#N)=N1	Oc1n[nH]c(CC#N)n1	
InChI=1S/C4H4N4O/c5-2-1-3-6-4(9)8-7-3/h1H2,(H2,6,7,8,9)	InChI=1S/C4H4N4O/c5-2-1-3-6-4(9)8-7-3/h1H2,(H2,6,7,8,9)
