15
gdb 5591	3.3532	1.90248	1.27965	0.7926	64.53	-0.1809	0.0345	0.2154	927.8844	0.118897	-399.803698	-399.795793	-399.794849	-399.836366	28.419	
C	 0.1462587158	 1.1303878669	 0.3745309704	-0.247764
O	-0.4178493323	 0.0480430599	-0.3554438268	-0.284171
C	 0.4378752558	-0.5453333188	-1.2435563892	 0.203486
C	 0.813754946	-1.856334022	-1.1879896025	 0.28613
N	 0.5903018314	-2.8579206797	-0.250817317	-0.599978
O	 1.5976243124	-2.1611979263	-2.2493570429	-0.171087
C	 1.7288008093	-1.0177540672	-2.998661089	-0.022556
C	 1.0462133802	 0.0031464413	-2.4265502353	-0.276481
H	 1.0214398472	 0.8076307512	 0.9535006428	 0.116942
H	 0.4478870349	 1.9507235834	-0.2896636898	 0.116985
H	-0.6295648692	 1.4907647928	 1.0540032971	 0.12715
H	-0.1100595199	-2.5548412387	 0.4154056726	 0.257393
H	 0.302113245	-3.7331413615	-0.6751475967	 0.252623
H	 2.326548228	-1.114949491	-3.8881984452	 0.130995
H	 0.9632099355	 1.0121989497	-2.7985391384	 0.110332
50.0572	166.7706	177.1318	208.3676	265.4792	279.3041	416.1667	499.5807	609.9141	630.3756	664.3227	700.8722	752.6573	807.3373	814.8505	903.0107	1016.0121	1048.0126	1085.5326	1170.7711	1179.7773	1198.8747	1218.7552	1295.0329	1337.2185	1457.3698	1485.5897	1492.639	1505.3804	1559.0439	1629.0433	1700.7365	3002.487	3061.6432	3122.0833	3255.9888	3294.72	3513.4745	3613.5374
COC1=C(N)OC=C1	COc1c(N)occ1	
InChI=1S/C5H7NO2/c1-7-4-2-3-8-5(4)6/h2-3H,6H2,1H3	InChI=1S/C5H7NO2/c1-7-4-2-3-8-5(4)6/h2-3H,6H2,1H3
