21
gdb 116615	2.72748	1.01	0.7955	2.0482	83.81	-0.2188	0.0292	0.248	1514.5259	0.181103	-420.383179	-420.372814	-420.37187	-420.419654	36.285	
C	-0.0177345625	 1.4468728479	-0.3511326741	-0.358251
C	-0.2876897094	 0.0510944779	 0.2213255472	-0.150245
N	-1.6653738169	-0.362006861	-0.0201361022	-0.329718
C	-1.8914586781	-1.1915435719	-0.9455790016	 0.398271
N	-1.1295535994	-1.9112824632	-1.8669347238	-0.352004
C	-2.2895386142	-2.5187249859	-2.5361350943	-0.19116
C	-3.1906119798	-1.82411489	-1.477473987	 0.01924
O	-3.8576638939	-2.7314947681	-0.6507908529	-0.241198
C	-4.5968362163	-2.0987861283	 0.3815524044	-0.245393
H	 0.9928850146	 1.7838586171	-0.0980216406	 0.107852
H	-0.1164202126	 1.4508468546	-1.441878207	 0.106217
H	-0.7355911522	 2.1675125104	 0.0509303654	 0.127665
H	 0.4476047504	-0.6654120311	-0.1805118236	 0.077016
H	-0.1337182934	 0.0771031259	 1.3068039639	 0.103844
H	-0.2514698326	-1.6529957251	-2.2882203243	 0.246177
H	-2.4559063704	-2.1877276413	-3.5667570998	 0.107077
H	-2.312840324	-3.6105852395	-2.4833978063	 0.121784
H	-3.8831219373	-1.0766134468	-1.8932709944	 0.08269
H	-5.0637040332	-2.8931784215	 0.9681737383	 0.123319
H	-3.9490583613	-1.4930340496	 1.0253999872	 0.144773
H	-5.3842914776	-1.4507944407	-0.0344456245	 0.102045
33.2989	93.1454	103.7521	114.51	173.1859	196.5339	234.4192	268.5762	292.245	329.3709	433.0801	486.5854	531.4956	706.7829	732.3536	811.5587	844.8725	906.5887	944.3606	997.0823	1036.3596	1062.8344	1091.4361	1112.0553	1154.8101	1160.8791	1169.0222	1184.8533	1194.6168	1229.9684	1243.4165	1295.5818	1309.1454	1362.4083	1369.3015	1389.3864	1403.1258	1480.6376	1484.1699	1488.9007	1496.3192	1513.2973	1516.2383	1519.6367	1801.5567	2964.8961	2983.0527	2992.4626	3033.0552	3040.5847	3041.3375	3067.1124	3097.5441	3101.936	3115.3603	3124.8071	3629.1613
CCN=C1NCC1OC	CCN=C1NC[C@H]1OC	
InChI=1S/C6H12N2O/c1-3-7-6-5(9-2)4-8-6/h5H,3-4H2,1-2H3,(H,7,8)	InChI=1S/C6H12N2O/c1-3-7-6-5(9-2)4-8-6/h5H,3-4H2,1-2H3,(H,7,8)/t5-/m1/s1
