15
gdb 23096	2.35303	1.62491	0.97263	4.5695	79.39	-0.2392	-0.0631	0.176	1142.8162	0.112958	-416.799583	-416.791343	-416.790399	-416.833239	29.85	
O	-0.0114800928	 1.3209455987	 0.008159846	-0.382777
N	 0.0614848775	-0.0707576932	 0.0036932103	-0.235245
C	-1.0883119887	-0.6232372062	 0.0111787746	 0.306452
C	-1.2259160378	-2.1388390243	 0.0080613962	-0.295605
C	-2.7531229324	-2.4028366982	 0.0185858684	-0.274061
C	-3.366229775	-1.0339264216	 0.027501701	-0.13523
C	-2.4487201502	-0.0452754248	 0.0234192132	 0.150477
C	-2.7966293643	 1.336652252	 0.030265728	 0.227851
N	-3.1533026373	 2.4376871898	 0.0363578785	-0.353628
H	 0.9154900638	 1.5828008069	 0.0016142445	 0.313642
H	-0.7432727104	-2.5653406708	-0.8748341548	 0.138652
H	-0.7304893414	-2.570023621	 0.8815631235	 0.138655
H	-3.088138197	-2.9740342185	-0.8558425879	 0.133033
H	-3.0751272319	-2.979695313	 0.8941755932	 0.133019
H	-4.4365658122	-0.8649146457	 0.0362380455	 0.134765
34.165	154.3795	156.7219	244.7341	255.3655	289.87	404.5145	431.5305	510.548	543.3612	598.7708	702.1315	733.5304	779.1049	792.2156	894.5915	932.908	1006.283	1028.3679	1028.6344	1091.0733	1164.569	1234.3095	1238.632	1289.5529	1327.0372	1340.6258	1401.7148	1466.7348	1487.9392	1641.2585	1730.8581	2348.0762	3031.9751	3055.1387	3071.2025	3109.4471	3213.0053	3817.9866
ON=C1CCC=C1C#N	ON=C1CCC=C1C#N	
InChI=1S/C6H6N2O/c7-4-5-2-1-3-6(5)8-9/h2,9H,1,3H2	InChI=1S/C6H6N2O/c7-4-5-2-1-3-6(5)8-9/h2,9H,1,3H2
