15
gdb 28715	6.52221	0.8784	0.7779	2.6878	72.68	-0.2274	-0.0071	0.2203	1413.7249	0.112519	-453.97998	-453.97163	-453.970686	-454.014059	29.068	
C	 0.1812230438	 1.4331944022	 0.0740609805	-0.492761
C	-0.0561329729	-0.0262834846	-0.0201650844	 0.321509
C	-1.1226205125	-0.8225627371	-0.2534283678	-0.190953
N	-0.736676544	-2.1666565633	-0.2224967726	-0.379335
C	 0.5267632568	-2.0966578479	 0.0248380756	 0.506574
O	 1.4334960908	-3.0711194902	 0.1689295029	-0.210261
C	 0.9939332641	-4.3683548276	 0.0349389545	 0.115212
N	 1.8400077474	-5.2856313618	 0.1724456019	-0.41904
O	 1.0362729752	-0.8649344342	 0.1641540883	-0.212869
H	 0.9049707878	 1.7737734095	-0.6748155177	 0.145617
H	-0.7582185696	 1.9655246301	-0.0914250962	 0.143253
H	 0.5671562048	 1.7168796242	 1.0595342566	 0.145633
H	-2.1450133758	-0.5366576963	-0.4424369886	 0.127726
H	-0.0732921676	-4.4310353244	-0.1816516965	 0.156535
H	 1.3903285218	-6.1911211986	 0.0496618836	 0.243159
43.5539	85.8864	159.2988	159.797	213.0901	301.8591	344.9533	453.7644	529.0241	633.6576	677.6831	740.4869	825.4057	840.2957	841.8922	965.5314	984.1053	1031.6703	1060.6493	1068.9865	1079.9158	1175.996	1235.3747	1257.7436	1267.9814	1395.9714	1412.6347	1420.8496	1470.8948	1492.7925	1632.6913	1664.7928	1754.3545	3033.1093	3085.3922	3130.0668	3132.7078	3266.6041	3518.8308
CC1=CN=C(OC=N)O1	Cc1cnc(O[CH][NH])o1	
InChI=1S/C5H6N2O2/c1-4-2-7-5(9-4)8-3-6/h2-3,6H,1H3	InChI=1S/C5H6N2O2/c1-4-2-7-5(9-4)8-3-6/h2-3,6H,1H3
