19
gdb 51750	2.63037	1.05566	0.83414	2.4208	82.68	-0.2491	-0.0227	0.2265	1385.8507	0.157109	-385.855423	-385.846028	-385.845084	-385.890764	34.031	
O	-0.9579585639	 1.271788444	 0.5772749803	-0.241342
C	 0.0454795632	 1.1688906123	-0.0812210306	 0.158893
C	 1.2426382606	 2.0844744204	 0.0140452245	-0.283016
C	 1.3918489969	 2.9000221367	-1.277112848	-0.020161
C	 0.3922178873	 4.0879517691	-1.3947883415	-0.234674
C	 1.5089204101	 5.0548567121	-0.9223822475	-0.225871
C	 2.5650407825	 3.9519639555	-1.2555015703	-0.175177
C	 3.6873445467	 3.751116706	-0.3646342671	 0.317558
C	 4.6059607886	 3.5758356215	 0.3926642266	-0.455145
H	 0.1417684141	 0.3673448501	-0.8520569407	 0.071402
H	 1.1229148647	 2.7334002933	 0.8861845943	 0.123426
H	 2.1439846771	 1.474269713	 0.1586339125	 0.124739
H	 1.4243449305	 2.2215799296	-2.1354257878	 0.078338
H	 0.0933465646	 4.2725751343	-2.4298113117	 0.106295
H	-0.5071217621	 4.025576322	-0.7785545092	 0.121554
H	 1.6179543515	 6.0049938136	-1.4484044203	 0.108785
H	 1.4656710879	 5.2521847605	 0.1506518739	 0.120092
H	 2.9302119112	 4.0907164434	-2.2788722469	 0.106981
H	 5.4222714186	 3.4296274124	 1.0559060299	 0.197323
43.0582	77.6425	104.3085	118.7971	200.8576	251.8258	328.0706	368.4364	503.2915	508.5568	547.7851	620.0496	638.526	670.8507	756.0409	781.9386	887.9376	903.5276	923.529	952.8272	965.5012	1028.8875	1047.1364	1098.0139	1102.6192	1136.2933	1201.8637	1218.322	1234.23	1262.0582	1267.8149	1281.4009	1299.5693	1344.4158	1377.2002	1429.1961	1463.8995	1483.6341	1499.8501	1831.1628	2229.1752	2848.3131	3029.5983	3041.0961	3053.4703	3067.6564	3076.1288	3103.9811	3115.3648	3134.0404	3503.0744
O=CCC1CCC1C#C	O=CC[C@H]1CC[C@H]1C#C	
InChI=1S/C8H10O/c1-2-7-3-4-8(7)5-6-9/h1,6-8H,3-5H2	InChI=1S/C8H10O/c1-2-7-3-4-8(7)5-6-9/h1,6-8H,3-5H2/t7-,8-/m1/s1
