25
gdb 104412	2.28053	1.37993	1.17046	1.0674	87.7	-0.2435	0.0724	0.3158	1250.8437	0.228514	-389.503811	-389.493457	-389.492513	-389.539224	39.105	
C	-0.3712508928	 1.5108265289	-0.2118214345	-0.247599
O	-0.3680599069	 0.1022289609	-0.2420713183	-0.292334
C	 0.6290689099	-0.5284052296	-1.0430504163	 0.412561
C	 0.4342605171	-0.1745661141	-2.5263204586	-0.442265
C	 2.0734295612	-0.233046939	-0.5722905976	-0.25352
C	 2.9053623482	-1.4534769036	-1.0273743981	-0.211672
C	 1.8846847442	-2.6061822032	-1.2692249539	-0.2221
C	 0.5010131285	-2.0642171685	-0.8351107681	-0.00843
C	 0.1600893575	-2.4519551257	 0.6095896868	-0.401765
H	 0.5922767508	 1.9260396035	 0.1162967253	 0.104326
H	-0.6264801211	 1.9572753766	-1.1834069997	 0.104618
H	-1.1374022332	 1.8055417045	 0.5104256251	 0.123318
H	 0.641688422	 0.8814613708	-2.7233347616	 0.111308
H	 1.1050526719	-0.7594372959	-3.1620077838	 0.118507
H	-0.5952377945	-0.3871191608	-2.8304501123	 0.119313
H	 2.4673397993	 0.708517226	-0.9655905587	 0.089028
H	 2.0669850963	-0.151061729	 0.5195547444	 0.104733
H	 3.4563858288	-1.229386798	-1.9454449657	 0.098765
H	 3.6549291497	-1.7212208768	-0.2780747334	 0.10034
H	 1.877047447	-2.8923333577	-2.3251531973	 0.095949
H	 2.1444883423	-3.5087878334	-0.7087614752	 0.094763
H	-0.2899509001	-2.454473063	-1.4854405823	 0.063268
H	 0.9355336551	-2.1273966588	 1.3122228817	 0.107804
H	-0.7833249752	-2.0046227177	 0.926382903	 0.128984
H	 0.0776827039	-3.5409479466	 0.691824469	 0.102099
37.3992	88.2939	137.8563	191.7464	206.4235	241.9591	251.0556	314.4739	328.0751	357.2695	398.4871	461.0135	475.8618	595.3199	675.6532	723.6083	768.4458	858.0059	866.8481	894.2751	922.7551	960.6412	977.4621	1010.601	1030.2085	1059.2963	1081.3847	1111.6626	1155.1932	1168.2198	1182.5383	1206.3687	1222.134	1236.5156	1256.4705	1274.7282	1278.1787	1310.7179	1338.802	1351.2114	1375.2096	1405.8338	1408.2341	1477.2357	1483.2063	1487.7447	1491.2523	1495.691	1502.3025	1503.8884	1513.0696	1513.2272	1518.0604	2991.215	3032.5012	3035.8393	3036.4232	3043.3567	3047.0611	3048.9355	3060.9924	3075.3442	3087.0028	3094.3062	3103.4224	3104.7236	3109.9627	3116.1742	3136.5202
COC1(C)CCCC1C	CO[C@@]1(C)CCC[C@H]1C	
InChI=1S/C8H16O/c1-7-5-4-6-8(7,2)9-3/h7H,4-6H2,1-3H3	InChI=1S/C8H16O/c1-7-5-4-6-8(7,2)9-3/h7H,4-6H2,1-3H3/t7-,8+/m1/s1
