20
gdb 39630	3.94567	1.14886	1.08825	2.5123	78.7	-0.2223	0.0732	0.2955	1187.8576	0.172767	-403.04306	-403.035308	-403.034364	-403.076306	29.637	
C	-0.0571466821	 1.2391401369	-0.195001253	-0.055775
C	 1.451751357	 1.4856846956	-0.0008312103	-0.302674
C	 1.4285498399	 0.1296149787	 0.7449274344	-0.009793
O	 0.029875568	-0.0673401047	 0.4125531237	-0.294806
C	 2.2879077784	-0.9856502663	 0.2235323625	 0.328952
C	 3.8207425604	-1.1797444648	 0.3205643053	-0.218006
N	 3.3884235947	-2.4465821477	-0.4421452699	-0.146072
C	 2.2331417946	-2.492170364	 0.575516515	-0.20827
C	 2.4701022027	-1.4922696466	-1.2284357326	-0.20839
H	-0.7131883082	 1.9096490575	 0.3746276104	 0.102134
H	-0.4168729282	 1.1863701755	-1.2289009789	 0.106516
H	 2.03711277	 1.4756860815	-0.9224067043	 0.110612
H	 1.7288172923	 2.3568380438	 0.593555717	 0.112587
H	 1.5592957397	 0.2220859755	 1.833651728	 0.070611
H	 4.4647262355	-0.5175425438	-0.2654676326	 0.099179
H	 4.2539105899	-1.3892131059	 1.3028300658	 0.100406
H	 2.5473769709	-2.7993146943	 1.5771133676	 0.098048
H	 1.3684811794	-3.0651369279	 0.2326822442	 0.110299
H	 1.6246854584	-1.9937990422	-1.7052690516	 0.10847
H	 3.0124814467	-0.8588471667	-1.9365150305	 0.09597
59.605	70.0646	151.1559	198.4724	356.6966	414.7475	576.1241	594.8159	646.7329	774.1936	791.494	796.758	830.413	879.05	928.5407	944.8612	956.2878	975.8904	977.2767	1008.2519	1023.89	1031.3535	1043.088	1087.9559	1151.4675	1155.9266	1165.4261	1169.6274	1175.5	1197.5908	1200.6703	1218.7797	1258.2909	1270.3525	1280.1388	1327.3847	1357.0521	1397.4724	1492.1103	1510.7408	1512.4097	1530.8877	1565.2288	2986.7167	3015.7551	3043.1206	3048.6195	3057.2597	3058.4574	3080.1294	3110.1564	3119.7229	3124.3432	3136.8417
C1CC(O1)C12CN(C1)C2	C1C[C@@H](O1)[C@@]12CN(C1)C2	
InChI=1S/C7H11NO/c1-2-9-6(1)7-3-8(4-7)5-7/h6H,1-5H2	InChI=1S/C7H11NO/c1-2-9-6(1)7-3-8(4-7)5-7/h6H,1-5H2/t6-/m1/s1
