20
gdb 10231	2.76268	1.35522	1.14917	2.1676	68.	-0.25	0.0717	0.3216	1155.0927	0.175873	-423.26334	-423.253808	-423.252863	-423.29787	34.124	
C	 0.1692934837	 1.4744771644	-0.1769732625	-0.386188
C	-0.185734761	 0.0157993773	-0.4115862881	-0.043667
O	 0.8930445572	-0.5912071093	-1.106984909	-0.273672
C	 0.8397320589	-2.0029212929	-1.2550823162	 0.087883
C	-0.4852711824	-2.5216676661	-1.8423390531	-0.080355
O	-0.8746036412	-1.8641974524	-3.0277700919	-0.427059
C	 2.0334144286	-2.3200261167	-2.159354879	-0.080598
O	 1.9229473731	-1.6304793578	-3.4034486211	-0.424006
H	 1.0815055864	 1.560916603	 0.4202750962	 0.123702
H	 0.3329404938	 1.9864468887	-1.1298343719	 0.125422
H	-0.643025265	 1.9827272932	 0.3509744015	 0.117827
H	-0.3500479797	-0.498744983	 0.5489933487	 0.086024
H	-1.108142154	-0.0646992353	-1.0012217943	 0.118813
H	 0.9886995469	-2.4977914064	-0.2783468731	 0.064374
H	-0.3746335918	-3.611030166	-1.9850981257	 0.084439
H	-1.2988072312	-2.3838374228	-1.1222317537	 0.105482
H	-0.0851695004	-1.8262056474	-3.587013227	 0.286483
H	 2.9650691846	-2.0437966932	-1.6464637406	 0.103874
H	 2.0700414152	-3.3888558761	-2.3886805741	 0.1144
H	 1.8058726082	-0.7022208214	-3.1601055748	 0.296821
72.0172	90.1696	112.3357	170.964	203.6642	242.5213	272.5864	309.5866	342.3017	426.8497	442.1244	543.878	674.4555	765.534	804.2592	831.8312	902.958	919.8218	977.7273	989.1892	1061.8895	1088.746	1118.1861	1135.4747	1157.5893	1186.7931	1225.6018	1243.4403	1303.2581	1327.5631	1346.9347	1389.7166	1396.8212	1403.642	1428.6771	1441.4783	1469.9252	1484.1225	1497.255	1500.5748	1513.6327	1527.7582	2942.7798	2957.2771	2974.512	3012.7331	3037.2599	3043.7797	3066.5776	3095.8914	3118.0898	3120.5011	3717.0242	3769.0675
CCOC(CO)CO	CCOC(CO)CO	
InChI=1S/C5H12O3/c1-2-8-5(3-6)4-7/h5-7H,2-4H2,1H3	InChI=1S/C5H12O3/c1-2-8-5(3-6)4-7/h5-7H,2-4H2,1H3
