23
gdb 77466	1.929	1.46605	1.3656	1.3486	86.79	-0.2356	0.0738	0.3094	1185.9462	0.203737	-388.275107	-388.264847	-388.263903	-388.309251	39.021	
C	-0.023874694	 1.5751445326	-0.0286033297	-0.420364
C	 0.1224752249	 0.0676576733	 0.0560724302	-0.096797
C	 1.3661696505	-0.734074413	-0.228564875	 0.292291
C	 1.4263917509	-1.8319244889	-1.2531533181	-0.495816
C	 2.599160235	 0.0135381832	 0.2977619338	-0.342856
C	 1.9899038529	-0.0647196127	 1.7375150277	 0.067085
O	 1.7683133494	 1.1210096916	 2.4790616841	-0.433478
C	 0.7319118397	-0.7291666839	 1.1890645343	 0.284408
C	-0.0301999346	-1.7909313716	 1.9336848963	-0.504918
H	 0.8100799389	 2.1015187431	 0.4351543364	 0.133416
H	-0.1071100295	 1.8979740834	-1.0732904583	 0.102956
H	-0.9332825471	 1.8975198951	 0.4904275746	 0.113209
H	-0.7586699616	-0.4509483367	-0.3240636858	 0.073423
H	 1.6304713901	-1.4305812268	-2.2538500122	 0.11897
H	 2.218020539	-2.5552904217	-1.0235329594	 0.110986
H	 0.4791893586	-2.3790142619	-1.3087798727	 0.115288
H	 3.5271485508	-0.5575107273	 0.2023812888	 0.091705
H	 2.7645305514	 1.0197193022	-0.0997793837	 0.094291
H	 2.5559084003	-0.7876963497	 2.3428648952	 0.065846
H	 2.6157960368	 1.4239964016	 2.8204542167	 0.280888
H	-0.6246137301	-1.3545914134	 2.7455282518	 0.126701
H	-0.7219822053	-2.3237948858	 1.2727142939	 0.11376
H	 0.6427663931	-2.5329882226	 2.379945481	 0.109005
136.7693	167.7678	170.5006	180.3805	197.3776	221.7366	224.5962	273.0828	291.0974	317.4401	362.3723	446.2651	516.8258	570.5417	598.3947	693.6329	717.4832	753.8897	849.3401	928.2591	950.4034	976.3681	1007.5636	1037.7132	1069.833	1084.8484	1102.8736	1128.9497	1137.0468	1152.7124	1181.407	1228.8815	1243.3176	1260.9516	1286.563	1338.0654	1349.7087	1410.1961	1411.2049	1417.4532	1427.061	1471.0592	1483.8569	1488.3348	1490.7126	1495.6728	1499.2892	1508.1464	1517.336	2986.5204	3014.4071	3017.8637	3028.9498	3045.876	3069.8455	3074.8596	3082.9257	3088.9544	3089.9388	3095.2333	3098.6928	3148.9657	3811.7735
CC1C2(C)CC(O)C12C	C[C@H]1[C@@]2(C)C[C@@H](O)[C@@]12C	
InChI=1S/C8H14O/c1-5-7(2)4-6(9)8(5,7)3/h5-6,9H,4H2,1-3H3	InChI=1S/C8H14O/c1-5-7(2)4-6(9)8(5,7)3/h5-6,9H,4H2,1-3H3/t5-,6+,7+,8+/m0/s1
