17
gdb 77749	2.00134	1.53718	1.43316	2.5831	69.39	-0.2325	-0.0182	0.2143	1046.041	0.133153	-458.941877	-458.932644	-458.9317	-458.97551	33.94	
C	-0.0258349585	 1.5480916417	-0.0287515497	-0.413195
C	 0.0846878271	 0.0450533814	 0.129585468	-0.081269
C	 1.349530174	-0.7775167255	-0.177880813	-0.27537
C	 2.5411108917	-0.0365430682	 0.336088083	 0.392106
O	 3.5780770426	 0.34783932	-0.1312804806	-0.329106
C	 1.9866816217	-0.0366047327	 1.7888284212	-0.081477
O	 1.8357499358	 1.162630878	 2.5099354458	-0.432654
C	 0.7194377638	-0.7025024231	 1.2499773068	 0.37113
O	 0.0979547772	-1.7471547048	 1.9012597133	-0.458173
H	 0.8215447776	 2.0677932325	 0.4192076684	 0.144279
H	-0.0829870378	 1.8166889076	-1.0886657827	 0.123297
H	-0.9345435773	 1.9163537252	 0.4597591996	 0.11936
H	-0.7839084636	-0.5009755556	-0.2385344962	 0.102102
H	 1.3286351012	-1.5730819477	-0.912167685	 0.118805
H	 2.5547434897	-0.7909122614	 2.3578611642	 0.106882
H	 2.7107539378	 1.5554968162	 2.6072500407	 0.296914
H	-0.6839825128	-1.4076569636	 2.349661716	 0.29637
101.0996	159.479	169.5118	171.1301	199.8792	259.3424	276.9171	317.0907	345.9848	428.3616	524.3866	581.5432	599.7449	677.9093	729.5812	750.9478	851.2086	908.8489	940.9335	1006.5107	1017.7351	1089.5914	1117.6147	1131.4397	1139.8473	1157.1122	1216.17	1257.1759	1292.4833	1318.3199	1339.8191	1401.1942	1425.6999	1477.0541	1488.1894	1507.7136	1878.7145	2980.6427	3039.4319	3096.9491	3114.5034	3151.3842	3199.762	3802.3513	3806.1892
CC1C2C(=O)C(O)C12O	C[C@H]1[C@H]2C(=O)[C@@H](O)[C@@]12O	
InChI=1S/C6H8O3/c1-2-3-4(7)5(8)6(2,3)9/h2-3,5,8-9H,1H3	InChI=1S/C6H8O3/c1-2-3-4(7)5(8)6(2,3)9/h2-3,5,8-9H,1H3/t2-,3-,5+,6+/m0/s1
