21
gdb 58465	2.35069	1.24214	1.15183	1.5313	74.19	-0.2485	0.0606	0.3091	1211.046	0.180208	-461.348704	-461.338823	-461.337878	-461.382838	38.177	
C	 0.3288414596	 1.2641964378	 0.3957439723	-0.425381
C	 0.1874962977	-0.2005787083	-0.0325802656	 0.100691
O	-1.153550554	-0.6459797953	 0.1266061619	-0.446207
C	 0.6279290742	-0.458737661	-1.4830045616	 0.390615
O	-0.2429954738	 0.2267167894	-2.378093972	-0.496008
C	 2.1580921724	-0.3387335473	-1.7514939259	-0.302573
C	 2.2619126417	-1.880091384	-1.6831483449	 0.121715
O	 2.7437819234	-2.2512297378	-0.4013939163	-0.430625
C	 0.7165521414	-1.9645992899	-1.8294318476	-0.302209
H	 1.3672510307	 1.6074926342	 0.350176701	 0.117282
H	-0.2828159517	 1.9241698155	-0.2318415342	 0.097198
H	-0.025573576	 1.3781793889	 1.4229890753	 0.131058
H	 0.801612704	-0.8271850415	 0.6219018724	 0.099949
H	-1.6282877552	-0.3165807894	-0.6479613929	 0.279216
H	-0.0842211035	 1.1730806073	-2.2870190418	 0.280079
H	 2.3462070603	 0.041797806	-2.7583300546	 0.103762
H	 2.7722362947	 0.2015281378	-1.0280625821	 0.109366
H	 2.8489800736	-2.3621812752	-2.4745402764	 0.069377
H	 2.5576529825	-3.1876074386	-0.2755002699	 0.284075
H	 0.1860649481	-2.649263173	-1.1640322136	 0.111422
H	 0.4087187098	-2.1395333655	-2.8630580235	 0.1072
91.0937	94.5132	195.1239	229.1613	267.229	276.3727	304.2557	322.8708	352.131	364.6555	417.8398	453.0364	479.1166	507.7969	533.9583	715.3859	782.8367	826.0107	848.9194	903.8948	939.5571	948.718	986.0404	1014.6237	1031.6257	1067.9819	1105.7701	1112.4832	1146.0518	1179.4042	1195.894	1242.6079	1269.3041	1285.6216	1299.7502	1317.7238	1346.3833	1381.8952	1400.5635	1411.536	1434.4176	1450.777	1474.84	1490.0506	1501.3857	3017.0607	3026.6083	3064.9769	3068.7439	3071.1825	3097.3142	3123.2248	3129.2227	3129.6156	3762.9358	3799.7907	3810.2249
CC(O)C1(O)CC(O)C1	C[C@@H](O)[C@@]1(O)C[C@@H](O)C1	
InChI=1S/C6H12O3/c1-4(7)6(9)2-5(8)3-6/h4-5,7-9H,2-3H2,1H3	InChI=1S/C6H12O3/c1-4(7)6(9)2-5(8)3-6/h4-5,7-9H,2-3H2,1H3/t4-,5-,6-/m1/s1
