18
gdb 112362	2.28572	1.41264	0.92948	1.0982	75.65	-0.2346	-0.0001	0.2344	1258.646	0.148801	-435.334514	-435.325584	-435.32464	-435.368596	32.956	
C	 0.0463537902	 1.5585960679	-0.0050037219	-0.398196
C	-0.0034767188	 0.0289937773	-0.0131034247	-0.174635
C	-1.4344463577	-0.5322042708	 0.0193891705	-0.104266
N	-2.2293568176	-0.2958168524	-1.1721439722	-0.319146
C	-2.5091361511	-1.4456173037	-1.8752912021	 0.432475
N	-3.0601373757	-1.4819822857	-3.0201938004	-0.574803
N	-2.0663078136	-2.4967606333	-1.0496064659	-0.377365
C	-1.4203393632	-2.0669482897	 0.0888899386	 0.425293
O	-0.926267744	-2.7546988444	 0.9478991034	-0.367444
H	 1.080801731	 1.9135422305	-0.0003650726	 0.126967
H	-0.4381905733	 1.987885436	-0.88928051	 0.114263
H	-0.4520292623	 1.967025055	 0.88087827	 0.124074
H	 0.5107395802	-0.3624387914	-0.8992237991	 0.107699
H	 0.5170303554	-0.3730994002	 0.8626778758	 0.13036
H	-1.9425725396	-0.1539486631	 0.9177089195	 0.114612
H	-2.2402143905	 0.5802845009	-1.6656081175	 0.261026
H	-3.1835184845	-2.4359236668	-3.3492265208	 0.2121
H	-2.181973985	-3.4708252562	-1.2778635406	 0.266988
67.8039	99.3224	132.9517	171.6233	239.5162	304.9636	354.2358	394.9627	426.4875	523.9241	573.287	632.5196	667.3012	718.0596	723.8862	753.4754	790.773	874.9116	949.8633	982.2469	1015.0245	1070.1362	1100.1908	1120.1273	1158.0468	1229.0394	1272.8636	1287.2022	1342.8721	1352.2814	1379.4744	1407.7085	1417.8109	1438.4016	1481.4807	1500.0353	1505.5298	1780.1707	1854.928	3005.3322	3031.0672	3037.3565	3077.8356	3101.4735	3110.9448	3525.9247	3658.7	3672.0266
CCC1NC(=N)NC1=O	CC[C@H]1N[C]([NH])NC1=O	
InChI=1S/C5H9N3O/c1-2-3-4(9)8-5(6)7-3/h3H,2H2,1H3,(H3,6,7,8,9)	InChI=1S/C5H9N3O/c1-2-3-4(9)8-5(6)7-3/h3H,2H2,1H3,(H3,6,7,8,9)/t3-/m1/s1
