22
gdb 117542	2.09603	1.06558	0.7465	4.251	84.14	-0.2439	0.0403	0.2842	1582.1836	0.193116	-400.531836	-400.52061	-400.519666	-400.568751	39.75	
C	-0.003282116	 1.5333797229	-0.043312654	-0.3929
C	 0.1026048257	 0.0129007164	-0.0959779214	-0.118275
N	 0.5542242603	-0.5154215873	 1.194457299	-0.282845
C	 0.7123055567	-1.9634915449	 1.2470051924	-0.100067
C	 1.7843526561	-2.4410560773	 0.3395507489	 0.29375
N	 2.6306254895	-2.6955231571	-0.4063747941	-0.343376
C	 0.9626172054	-2.4594795939	 2.6945434424	 0.008657
C	-0.148621573	-1.9877690441	 3.6392065229	-0.391378
N	 1.1511126824	-3.9107134646	 2.6493970323	-0.50075
H	 0.9766240838	 1.9907023553	 0.1356581936	 0.117944
H	-0.3809315906	 1.9250738488	-0.9919919267	 0.122536
H	-0.6764578342	 1.8488476167	 0.7589946102	 0.126172
H	-0.8838776706	-0.4217070116	-0.3019967778	 0.105542
H	 0.7619548154	-0.2886347042	-0.926539726	 0.11087
H	 1.4362442756	-0.0763915922	 1.4461410457	 0.223478
H	-0.2298100867	-2.4102224793	 0.8992402098	 0.11703
H	 1.918171969	-2.028070806	 3.0207573582	 0.093737
H	-0.2576838232	-0.9015120885	 3.6208367787	 0.134388
H	-1.1103700249	-2.4272507246	 3.346419502	 0.107698
H	 0.0684064573	-2.3079329727	 4.6631839998	 0.10856
H	 1.5433795818	-4.2391836256	 3.5255636551	 0.234071
H	 0.2517277604	-4.3749672763	 2.548207499	 0.225159
52.2326	77.189	90.3535	141.6684	149.0786	200.7179	223.6899	248.511	266.0779	310.6178	325.764	408.8296	418.281	463.2258	542.3332	632.6134	765.7579	817.9273	845.9162	868.4059	914.1022	930.4362	985.768	1027.6146	1053.3735	1105.9838	1128.3293	1140.824	1170.955	1183.1393	1235.4226	1293.7835	1307.4557	1334.8267	1361.354	1395.5959	1400.0428	1408.3756	1418.2701	1483.8625	1484.8017	1497.6454	1500.4189	1505.2761	1523.3144	1661.2944	2343.1784	2971.4669	3012.4329	3025.226	3033.0946	3034.4173	3040.3428	3095.0925	3102.8314	3121.4949	3133.5249	3484.882	3496.8816	3571.7348
CCNC(C#N)C(C)N	CCN[C@@H](C#N)[C@@H](C)N	
InChI=1S/C6H13N3/c1-3-9-6(4-7)5(2)8/h5-6,9H,3,8H2,1-2H3	InChI=1S/C6H13N3/c1-3-9-6(4-7)5(2)8/h5-6,9H,3,8H2,1-2H3/t5-,6+/m1/s1
