14
gdb 132517	3.09026	1.3556	0.94777	3.0574	68.01	-0.2484	-0.0331	0.2153	1138.3147	0.099937	-486.002994	-485.99543	-485.994485	-486.035485	27.94	
C	 0.0021743875	 1.5001574325	 0.0389145346	-0.465815
C	 0.0195559718	-0.0030199182	-0.024137533	 0.319816
C	-0.1104690079	-0.7003670728	-1.2220746079	-0.162548
C	-0.0860139057	-2.0959073229	-1.2093996019	-0.20165
C	 0.0675291783	-2.7390302971	 0.0008839436	 0.117169
F	 0.0998560836	-4.0667739101	 0.0895912462	-0.056186
C	 0.1904273993	-1.953727009	 1.1506688152	 0.211417
F	 0.3384817528	-2.5680322971	 2.3184150308	-0.055375
N	 0.1686272509	-0.6491797591	 1.1478186743	-0.35603
H	 0.9335729433	 1.8751601471	 0.4749514118	 0.144906
H	-0.1226042756	 1.9423622142	-0.9520551192	 0.121502
H	-0.8132820598	 1.8461769101	 0.6819949643	 0.144913
H	-0.2296643089	-0.1651478272	-2.156657153	 0.107915
H	-0.1835679295	-2.6807887405	-2.1167939458	 0.129967
79.302	134.5499	232.9377	286.3238	303.7153	369.9549	470.2796	475.8547	536.9774	585.4818	638.522	729.325	760.6433	797.536	848.7744	961.6432	963.4975	1038.5195	1060.6815	1131.3201	1203.5247	1283.2005	1309.9349	1346.2732	1410.9486	1458.5714	1475.5637	1493.3476	1519.381	1630.7605	1651.2862	3042.673	3102.3013	3129.1745	3194.9549	3209.4624
CC1=CC=C(F)C(F)=N1	Cc1ccc(F)c(F)n1	
InChI=1S/C6H5F2N/c1-4-2-3-5(7)6(8)9-4/h2-3H,1H3	InChI=1S/C6H5F2N/c1-4-2-3-5(7)6(8)9-4/h2-3H,1H3
