18
gdb 83904	2.65816	1.44858	1.23087	4.9281	77.42	-0.236	0.0221	0.2581	1079.6275	0.149098	-398.107857	-398.099544	-398.0986	-398.140533	31.327	
C	-0.1485372709	 1.5437103845	 0.0416176102	-0.335986
N	 0.0952720641	 0.1037360489	 0.0578302282	-0.126067
C	 1.3400513171	-0.5247561892	-0.3240828671	-0.070108
C	 2.6454237994	 0.2529340885	-0.3291847886	-0.193065
N	 2.6429870355	 0.9821039392	 0.9441270126	-0.31326
C	 1.8786467426	 0.2216012074	 1.9376356869	-0.240026
C	 0.8606878686	-0.5592154941	 1.10694152	 0.179566
C	 0.2490370538	-1.7113014177	 1.7254717833	 0.238486
N	-0.2240238559	-2.6317283844	 2.241121501	-0.344969
H	 0.7106258702	 2.1528559776	 0.3410071225	 0.142439
H	-0.4509198407	 1.8181233477	-0.9735366951	 0.129458
H	-0.9926690931	 1.7519469636	 0.7054155618	 0.132929
H	 1.2534682557	-1.3839349093	-0.9832664492	 0.114297
H	 3.4686799978	-0.4734938923	-0.4353999956	 0.102357
H	 2.7172359623	 0.9554743101	-1.1690019499	 0.116185
H	 3.5729910132	 1.2158064105	 1.2655721282	 0.232469
H	 2.4738719397	-0.5061171706	 2.5123249264	 0.113263
H	 1.4021522508	 0.8994838396	 2.6560581145	 0.122032
132.6764	159.4412	171.872	200.5574	213.3816	263.5902	406.4605	456.76	501.7731	550.0018	576.665	602.1476	706.4494	739.9945	859.2126	881.1353	967.3478	981.0356	1018.2044	1044.9759	1095.4015	1115.3278	1131.6442	1147.918	1176.9034	1202.7458	1225.3622	1233.	1283.7129	1327.7312	1370.8092	1413.5671	1445.3238	1461.0026	1485.5618	1508.6379	1520.3699	1525.8176	2356.8002	2961.3576	2975.6058	3028.5933	3037.4567	3045.0227	3102.7462	3110.5847	3153.632	3570.278
CN1C2CNCC12C#N	CN1[C@H]2CNC[C@@]12C#N	
InChI=1S/C6H9N3/c1-9-5-2-8-4-6(5,9)3-7/h5,8H,2,4H2,1H3	InChI=1S/C6H9N3/c1-9-5-2-8-4-6(5,9)3-7/h5,8H,2,4H2,1H3/t5-,6+,9?/m0/s1
