22
gdb 116065	2.45954	1.27591	0.88921	3.1942	84.37	-0.2526	0.0246	0.2772	1366.197	0.195519	-404.385591	-404.37644	-404.375496	-404.419768	34.676	
C	-0.0152583635	 1.5538537244	 0.0251365966	-0.387606
C	-0.0170101252	 0.0236722362	 0.0665246769	-0.183881
C	-1.4088716769	-0.5910397177	-0.0458146777	 0.145032
C	-1.4036820543	-2.1157251783	-0.1050403211	-0.212452
C	-2.8376646308	-2.6478663907	-0.0671527129	-0.231372
C	-3.5331161918	-2.1352519506	 1.1990010277	-0.257
C	-3.3826120015	-0.6443838508	 1.3915882841	 0.376597
N	-4.3047273909	 0.0497840168	 1.9129308853	-0.499365
O	-2.1667570322	-0.0977918094	 1.0836049117	-0.270914
H	 1.0015556239	 1.9459673012	 0.1199976198	 0.112725
H	-0.4287126505	 1.9238527347	-0.919756302	 0.112693
H	-0.6180448584	 1.9641988736	 0.8386522362	 0.13519
H	 0.5920581241	-0.3754009995	-0.7538419265	 0.097597
H	 0.4386467037	-0.329097822	 0.9999068523	 0.105377
H	-1.8998458481	-0.2067508643	-0.9548717691	 0.077905
H	-0.8881403384	-2.4306871993	-1.018777734	 0.101949
H	-0.8318921516	-2.5112881585	 0.7446649749	 0.102779
H	-3.3806331728	-2.3053208807	-0.9575136241	 0.105909
H	-2.8524754364	-3.7418659255	-0.0888957511	 0.102174
H	-4.597802369	-2.3719292166	 1.2198139328	 0.129519
H	-3.076646334	-2.6191876853	 2.0736701756	 0.123083
H	-3.9980516952	 1.0224133821	 1.9927846747	 0.214061
83.2728	93.9929	114.5791	183.5815	227.6218	276.9811	356.2368	419.7186	436.9605	460.6597	514.8068	540.511	642.9128	747.1418	804.7479	869.3405	889.6648	908.736	913.5802	933.6384	978.7486	1020.9873	1041.0976	1062.5596	1098.3486	1118.2086	1133.2097	1155.833	1199.1988	1223.2245	1276.8637	1300.4516	1316.791	1320.6656	1359.5778	1373.948	1377.8295	1401.0906	1411.1225	1411.7616	1467.5396	1473.0796	1484.6289	1497.3898	1500.2662	1509.3685	1745.4942	2970.5428	3018.4668	3023.1112	3028.6008	3031.7761	3038.8498	3065.232	3077.5756	3082.0496	3104.0751	3123.5753	3128.5491	3452.7159
CCC1CCCC(=N)O1	CC[C@H]1CCC[C]([NH])O1	
InChI=1S/C7H13NO/c1-2-6-4-3-5-7(8)9-6/h6,8H,2-5H2,1H3	InChI=1S/C7H13NO/c1-2-6-4-3-5-7(8)9-6/h6,8H,2-5H2,1H3/t6-/m0/s1
