17
gdb 114947	2.59886	1.21561	0.90156	3.5566	71.65	-0.2326	-0.0678	0.1649	1266.4097	0.136585	-455.159188	-455.150606	-455.149662	-455.192956	31.107	
O	 0.2149610537	 1.1381026841	 0.7922715771	-0.41571
C	 0.0397890652	-0.1630269747	 0.2528852363	-0.073657
C	-1.4340802284	-0.4773788832	-0.0252399007	-0.022584
C	-1.6965730585	-1.984283444	-0.3235114913	-0.191864
N	-2.2308278779	-2.5592607155	 0.9241799249	-0.280811
C	-2.4830510802	-1.5547505877	 1.6840337948	 0.267902
N	-2.2540719739	-0.2924553223	 1.1785779787	-0.331716
C	-3.0129203353	-1.7316529396	 3.0612824698	 0.112809
O	-3.1810878245	-0.8098257723	 3.8222439484	-0.259187
H	 0.0172184659	 1.7789888819	 0.1010629354	 0.287586
H	 0.6293762441	-0.3112979208	-0.6649896643	 0.096493
H	 0.4245804737	-0.8546745608	 1.0105324117	 0.123528
H	-1.7943235039	 0.1687808644	-0.8347667208	 0.078199
H	-2.4380803925	-2.1153483711	-1.1209825767	 0.123651
H	-0.7926904214	-2.5194946165	-0.635386001	 0.116739
H	-1.9974437345	 0.4437315696	 1.8231115292	 0.259637
H	-3.2179726315	-2.7859846814	 3.3272586885	 0.108986
75.4266	110.4599	145.9921	199.7456	230.5481	291.9658	333.4743	368.5207	494.3898	497.3134	614.5763	647.8349	742.9562	796.5383	847.9235	923.6924	965.4126	1000.1202	1023.6582	1030.7473	1059.1219	1093.2647	1108.6268	1185.2928	1240.3789	1255.0919	1287.9745	1329.4991	1364.6337	1386.9819	1397.4685	1414.3285	1467.1282	1485.657	1497.9037	1674.6641	1806.7221	2964.468	2989.2404	3021.4333	3035.464	3064.6377	3078.1532	3595.4932	3808.9198
OCC1CN=C(N1)C=O	OC[C@H]1C[N][C](N1)C=O	
InChI=1S/C5H8N2O2/c8-2-4-1-6-5(3-9)7-4/h3-4,8H,1-2H2,(H,6,7)	InChI=1S/C5H8N2O2/c8-2-4-1-6-5(3-9)7-4/h3-4,8H,1-2H2,(H,6,7)/t4-/m1/s1
