20
gdb 58602	2.16808	1.28758	1.0338	3.3914	78.9	-0.2711	0.0322	0.3033	1249.7913	0.16936	-403.153027	-403.143174	-403.14223	-403.187957	36.473	
C	-1.6828891198	-0.9035138489	-0.7463178107	-0.410639
C	-0.3437308196	-0.4461699579	-0.1588137882	 0.043642
O	-0.0418401059	-1.1758238329	 1.0269121298	-0.438617
C	 0.8287527198	-0.6454420437	-1.1175449941	 0.375193
C	 0.7263261815	 0.1260022701	-2.4316265633	-0.436442
C	 0.6211415794	 1.5763000284	-2.2444721078	 0.275957
N	 0.5290916614	 2.7173887727	-2.0859963614	-0.318213
C	 2.21224029	-0.8292586563	-0.547375564	-0.30423
C	 1.4961189259	-1.9969481517	-1.1850162166	-0.318032
H	-1.9706785068	-0.3070372268	-1.6173524183	 0.12347
H	-1.6360331634	-1.9572790861	-1.0373082355	 0.127195
H	-2.4800406514	-0.7868643781	-0.0036577689	 0.109887
H	-0.4068739158	 0.6293217766	 0.0734122038	 0.093186
H	-0.7611060141	-1.0375972206	 1.6497902411	 0.287826
H	 1.6136291509	-0.0750095753	-3.041137587	 0.15003
H	-0.1358664543	-0.2052911801	-3.0220943043	 0.150416
H	 3.042519088	-0.3781126424	-1.0805411652	 0.110413
H	 2.3077603991	-0.8355608376	 0.5303412796	 0.13855
H	 1.1184826055	-2.7644552781	-0.5208304404	 0.134487
H	 1.8385954099	-2.3549552413	-2.1504168086	 0.105921
50.099	85.0951	129.1393	220.1889	243.2946	257.416	281.3362	332.4747	338.2374	401.5721	406.357	451.3642	494.4048	618.4837	697.6869	792.6487	854.4526	900.8158	909.1101	928.0818	956.2928	980.0926	1012.4765	1047.3393	1063.5263	1090.3982	1116.9196	1133.5062	1195.4586	1205.0109	1240.6523	1295.5875	1317.9325	1366.6692	1380.4798	1406.2266	1430.4196	1454.7821	1465.8552	1495.1941	1498.2036	1502.7133	2358.9593	2973.4505	3032.624	3043.2368	3081.8213	3097.7901	3118.6748	3135.8865	3142.1743	3228.142	3243.4447	3836.348
CC(O)C1(CC#N)CC1	C[C@@H](O)C1(CC#N)CC1	
InChI=1S/C7H11NO/c1-6(9)7(2-3-7)4-5-8/h6,9H,2-4H2,1H3	InChI=1S/C7H11NO/c1-6(9)7(2-3-7)4-5-8/h6,9H,2-4H2,1H3/t6-/m1/s1
