19
gdb 99153	4.27538	0.75543	0.70457	2.4957	73.35	-0.2631	0.0129	0.276	1654.4738	0.156374	-460.178929	-460.168753	-460.167809	-460.216046	34.779	
C	 0.34501223	 1.2967222665	 0.2627246754	-0.240896
O	 0.2052210946	-0.1065545814	-0.0000477472	-0.23054
C	 0.4759501368	-0.4843103807	-1.2635210743	 0.457138
O	 0.8213001163	 0.2760506565	-2.1324011957	-0.358083
C	 0.2532681401	-1.9761247542	-1.4441721057	-0.372467
C	 1.1947701356	-2.5579184545	-2.4737036023	 0.077152
O	 2.443007669	-3.0695690727	-1.9934316984	-0.26093
C	 1.5128042921	-3.9904072452	-2.5769699886	 0.070902
C	 0.9465144545	-5.0698543234	-1.6893085233	-0.41892
H	 1.3667537511	 1.6252396129	 0.0581512179	 0.145549
H	-0.3414458201	 1.8757272386	-0.3602530469	 0.14035
H	 0.1049558096	 1.4255880778	 1.3180078461	 0.134181
H	 0.3454680776	-2.4789931641	-0.4813787474	 0.136104
H	-0.7846480378	-2.0996258897	-1.7830432507	 0.138052
H	 1.28233066	-1.9476388586	-3.3721894158	 0.111689
H	 1.8194515725	-4.3429733057	-3.5644794454	 0.089736
H	 0.6300607377	-4.6804523901	-0.7197229544	 0.125948
H	 0.0864482126	-5.5466564941	-2.1722085202	 0.122786
H	 1.7003101777	-5.8440401879	-1.5123237531	 0.132249
27.0241	42.8757	108.2384	117.4659	161.1098	185.824	217.0252	285.0074	352.5484	393.6246	465.1791	502.9131	599.4705	717.6647	768.5646	843.96	896.3788	917.9538	975.3106	1004.1904	1029.2363	1092.5873	1108.3743	1175.326	1178.6177	1178.885	1190.0352	1213.012	1248.4128	1309.8525	1337.9526	1401.2905	1417.7853	1444.38	1470.6949	1473.4562	1481.2301	1490.1708	1496.9884	1514.2995	1821.1188	3029.6838	3039.3706	3053.4429	3079.6781	3099.9304	3120.6165	3129.0196	3129.8895	3141.62	3161.0746
COC(=O)CC1OC1C	COC(=O)C[C@H]1O[C@H]1C	
InChI=1S/C6H10O3/c1-4-5(9-4)3-6(7)8-2/h4-5H,3H2,1-2H3	InChI=1S/C6H10O3/c1-4-5(9-4)3-6(7)8-2/h4-5H,3H2,1-2H3/t4-,5+/m0/s1
