18
gdb 39028	3.09813	1.79351	1.31345	3.9676	76.2	-0.2373	0.0295	0.2668	978.892	0.151253	-401.956394	-401.949606	-401.948662	-401.987348	27.589	
C	-0.1415751241	 1.3787110655	 0.0815580343	-0.329314
C	 1.2835726639	 0.8878303996	 0.0342236335	-0.150485
C	 1.8922100825	 0.5023712729	 1.4035163019	-0.175239
N	 1.0925059699	-0.6046143402	 1.9742429631	-0.340675
C	 0.2309415168	-0.8942040297	 1.0897848848	 0.424122
O	-0.6023425212	-1.9523110538	 1.0518157655	-0.258176
C	-1.2836149378	-1.9381252877	-0.2282418081	-0.084656
C	-0.4521787126	-1.027998892	-1.1739616365	-0.366941
C	 0.1438511691	-0.0860471778	-0.1526935837	 0.250531
H	-0.5645014694	 1.6942150065	 1.0315473594	 0.122197
H	-0.4927233536	 1.9382957306	-0.7805131162	 0.11166
H	 1.9296686168	 1.2165028458	-0.7713747092	 0.094996
H	 2.9282273238	 0.158983834	 1.2929395155	 0.110332
H	 1.9133009837	 1.3561087652	 2.0917622746	 0.110599
H	-1.3573705462	-2.9728752033	-0.5681869105	 0.12525
H	-2.293924653	-1.5402164832	-0.0790185799	 0.119669
H	 0.3174284047	-1.6157017616	-1.6856882205	 0.12112
H	-1.0797270333	-0.5485723309	-1.9280115479	 0.11501
166.5489	195.4619	272.5175	303.0888	399.3839	427.8075	604.4241	641.8948	689.0196	716.8905	763.0444	825.3038	843.949	879.111	896.1832	937.5661	962.309	980.0509	1016.9168	1036.1138	1053.0555	1080.7919	1104.8909	1114.2027	1156.477	1206.1063	1216.7872	1233.6711	1269.7561	1295.3677	1320.3436	1338.3478	1388.9216	1422.5419	1480.4611	1491.3561	1498.6181	1518.6723	1754.4712	3025.617	3041.2754	3049.6369	3055.5246	3108.9929	3110.6967	3119.4967	3179.2571	3199.6729
C1C2CN=C3OCCC123	C1[C@H]2CN=C3OCC[C@]123	
InChI=1S/C7H9NO/c1-2-9-6-7(1)3-5(7)4-8-6/h5H,1-4H2	InChI=1S/C7H9NO/c1-2-9-6-7(1)3-5(7)4-8-6/h5H,1-4H2/t5-,7-/m0/s1
