15
gdb 62310	3.60744	1.49002	1.21009	4.3831	70.15	-0.2549	0.0068	0.2617	994.4578	0.112555	-416.705551	-416.698318	-416.697374	-416.737082	28.048	
O	 0.0053788402	 1.4305497297	-0.114325921	-0.471461
C	 0.0440712868	 0.0320025767	-0.0296079459	 0.300172
C	 0.9942965568	-0.5481467066	-0.9865968747	 0.236589
N	 1.781947426	-0.9405004896	-1.7356551489	-0.332307
C	-0.0126039881	-0.6206727797	 1.3692469128	-0.084456
C	-1.5081442514	-0.2358508194	 1.5798329394	-0.074686
C	-1.8097873129	-1.7000715422	 1.8842292346	-0.189175
N	-0.749282357	-1.8575883407	 0.7930827586	-0.15408
C	-1.3410808681	-0.61516169	 0.0773568105	-0.052892
H	 0.9063804274	 1.7714749543	-0.0810989125	 0.299514
H	 0.7769057709	-0.7339791945	 2.112845015	 0.099825
H	-1.9145037543	 0.6866189851	 1.9989278306	 0.090753
H	-1.4979225903	-2.1039954978	 2.8521107949	 0.112769
H	-2.7876933802	-2.0983056371	 1.5972077992	 0.113841
H	-2.1053335857	-0.7164756481	-0.6927176226	 0.105592
134.6091	158.6921	237.0774	291.6851	314.8737	429.2402	490.9022	518.0217	579.939	657.8579	748.98	809.8873	847.0927	851.1127	879.0422	930.8284	986.8572	1012.7392	1032.6253	1055.6959	1072.9145	1112.4595	1144.9996	1156.0388	1183.2769	1188.6054	1192.4791	1260.78	1274.6598	1292.5843	1384.1039	1521.6342	2354.2639	3046.9857	3090.3814	3108.1177	3118.1642	3129.6035	3805.9509
OC1(C#N)C2C3CN2C13	O[C@@]1(C#N)[C@H]2[C@@H]3CN2[C@H]13	
InChI=1S/C6H6N2O/c7-2-6(9)4-3-1-8(4)5(3)6/h3-5,9H,1H2	InChI=1S/C6H6N2O/c7-2-6(9)4-3-1-8(4)5(3)6/h3-5,9H,1H2/t3-,4+,5-,6-
