20
gdb 35034	2.96486	1.40802	1.37715	4.1459	81.25	-0.2993	0.0374	0.3367	1048.6758	0.175356	-366.058806	-366.051412	-366.050468	-366.090537	29.749	
N	-0.0665866089	-1.145485477	-0.11504303	-0.339568
C	-0.0317938339	 0.0082241046	-0.0425830537	 0.265728
C	 0.0127478364	 1.4616258298	 0.0496268476	-0.150459
C	-0.3722000774	 2.050711618	 1.4394775357	-0.00769
C	 0.7678861556	 1.5257991246	 2.3400085091	-0.217335
C	 2.0132140771	 1.5475736159	 1.3953488246	-0.217334
C	 1.4414961286	 2.0824110066	 0.063667715	-0.007688
C	 1.0958317367	 3.5780632148	 0.2321128974	-0.22321
C	-0.150113025	 3.5562901096	 1.1772676337	-0.22321
H	-0.6041718209	 1.8770199828	-0.7540745548	 0.11347
H	-1.3733659399	 1.7992223309	 1.7916970864	 0.077343
H	 0.8952369422	 2.1533658092	 3.2260776108	 0.099568
H	 0.5562000727	 0.5105617746	 2.6848802697	 0.120499
H	 2.818106052	 2.1870017849	 1.767447994	 0.099568
H	 2.4248020846	 0.5432378636	 1.2674497102	 0.120499
H	 2.0557647476	 1.859153566	-0.809527333	 0.077343
H	 1.9364899438	 4.1362917883	 0.6525926466	 0.104296
H	 0.8525903301	 4.0352418018	-0.7315824572	 0.101941
H	-1.0226228561	 4.0025047402	 0.6909512347	 0.101942
H	 0.0160388347	 4.1026984809	 2.109448443	 0.104297
135.7867	151.6559	161.8281	331.9604	373.5997	395.0608	512.8221	525.8541	592.7796	758.7765	768.9138	798.4737	835.4192	838.2441	883.0881	896.8078	910.7973	958.6407	961.1072	995.6359	1022.3632	1036.8049	1037.7525	1097.6962	1130.0475	1158.361	1168.5797	1210.3259	1230.2743	1240.1914	1285.5826	1286.9878	1308.8004	1315.8773	1323.811	1346.6666	1348.3172	1372.6066	1483.0863	1496.7067	1499.633	1518.6616	2351.3374	3049.1699	3057.8618	3058.899	3060.9351	3066.8704	3086.2806	3094.5749	3105.9792	3107.541	3110.6591	3115.8071
N#CC1C2CCC1CC2	N#C[C@H]1[C@H]2CC[C@@H]1CC2	
InChI=1S/C8H11N/c9-5-8-6-1-2-7(8)4-3-6/h6-8H,1-4H2	InChI=1S/C8H11N/c9-5-8-6-1-2-7(8)4-3-6/h6-8H,1-4H2/t6-,7+,8-
