15
gdb 36479	2.93465	1.10019	0.86	4.1357	69.99	-0.2901	-0.009	0.2811	1273.0525	0.11262	-416.810921	-416.802382	-416.801437	-416.845598	29.396	
N	 0.098179296	-1.1553693873	-0.2534494999	-0.291379
C	 0.0474609897	-0.0024860611	-0.2068225096	 0.271093
C	-0.0076579196	 1.4551283612	-0.1299367381	-0.367273
C	 1.3747753866	 2.0555581174	 0.1388390144	 0.13688
O	 2.2766644345	 1.8900389359	-0.9650476548	-0.26831
C	 2.4445206666	 3.3084624131	-1.1377213572	-0.074655
C	 1.505588365	 3.611461905	 0.0640151822	-0.244521
C	 0.3039671047	 4.3768616937	-0.212625406	 0.287362
N	-0.6610538202	 4.9704846139	-0.4431463388	-0.319446
H	-0.4144329149	 1.8540884921	-1.064635324	 0.172765
H	-0.6945336687	 1.7455220877	 0.673833844	 0.168581
H	 1.7912672461	 1.634443915	 1.0607902859	 0.11627
H	 3.4824171468	 3.6245331536	-0.9945276892	 0.13006
H	 2.0825762273	 3.6563668902	-2.1100740263	 0.136697
H	 2.0180973701	 4.0381471695	 0.9276833074	 0.145876
48.8884	67.5969	97.4038	159.9397	222.946	327.1209	383.2945	393.7058	517.7617	533.8004	586.016	754.2171	828.4048	885.6616	899.1691	959.4882	1005.335	1040.7828	1061.143	1089.7367	1128.0499	1165.3822	1199.907	1236.1339	1270.0615	1318.2661	1348.6328	1367.2146	1397.743	1447.2874	1526.5724	2356.6736	2369.0872	3041.9648	3047.5149	3050.5263	3093.8774	3098.6517	3108.3968
N#CCC1OCC1C#N	N#CC[C@H]1OC[C@H]1C#N	
InChI=1S/C6H6N2O/c7-2-1-6-5(3-8)4-9-6/h5-6H,1,4H2	InChI=1S/C6H6N2O/c7-2-1-6-5(3-8)4-9-6/h5-6H,1,4H2/t5-,6-/m1/s1
