15
gdb 35446	2.46012	1.43871	1.09588	3.4461	77.7	-0.2576	0.0006	0.2581	1107.9189	0.112372	-379.600698	-379.592713	-379.591769	-379.633371	30.108	
C	 0.0253105271	-1.2382900998	-0.120917939	-0.444095
C	 0.0188234095	-0.0402881373	-0.0283491258	 0.346239
C	-0.0078576651	 1.4023189347	 0.0818465131	-0.260836
C	-0.2185682863	 2.0667345836	 1.5026159127	-0.23131
C	 1.1052109005	 2.8118746891	 1.3215450744	-0.111727
N	 2.144553026	 1.7834482425	 1.1726234225	-0.34952
C	 1.3384854857	 2.1667772652	-0.0138174889	 0.241318
C	 1.9365400548	 2.6954186074	-1.1927084534	 0.18594
N	 2.4081557186	 3.1246629044	-2.1591583557	-0.341079
H	 0.0417312436	-2.2970060801	-0.203130315	 0.203348
H	-0.7180763761	 1.8294607128	-0.6312486551	 0.1271
H	-1.0940068619	 2.7166774875	 1.5204045389	 0.122451
H	-0.2398133477	 1.3759062081	 2.3457547587	 0.134014
H	 1.3505869069	 3.8205971307	 1.6279018185	 0.126203
H	 3.0478354044	 2.2504567611	 1.0909015842	 0.251954
92.32	127.3377	166.1056	211.3049	307.3813	424.7735	452.7946	495.0987	549.4478	570.1205	630.1094	647.6957	655.0494	705.8682	803.2738	875.3374	899.8519	946.8595	995.1254	1020.0192	1050.685	1078.1148	1110.2927	1165.705	1201.2446	1230.7193	1287.4265	1299.1251	1356.3418	1398.5016	1476.6979	2241.4657	2343.8693	3075.035	3090.2997	3154.1288	3206.1703	3480.8658	3502.9015
C#CC1CC2NC12C#N	C#C[C@H]1C[C@H]2N[C@@]12C#N	
InChI=1S/C7H6N2/c1-2-5-3-6-7(5,4-8)9-6/h1,5-6,9H,3H2	InChI=1S/C7H6N2/c1-2-5-3-6-7(5,4-8)9-6/h1,5-6,9H,3H2/t5-,6+,7-/m0/s1
