16
gdb 85472	2.991	1.31852	1.0329	4.9417	70.78	-0.2662	0.0118	0.278	1139.8308	0.123945	-437.90243	-437.894025	-437.893081	-437.935551	31.357	
C	 0.081392559	 1.5651685688	-0.2496178309	-0.402896
C	-0.0247132844	 0.0719534317	 0.0614573593	-0.000013
N	 0.4878034686	-0.7805062667	-1.0018763456	-0.368768
C	 1.806489095	-1.1263736996	-0.7826927847	 0.47097
O	 2.5929280648	-1.5886948652	-1.5584540806	-0.383769
O	 2.1020279003	-0.8667686056	 0.5313404787	-0.242737
C	 0.9036032274	-0.4357645261	 1.2082460906	-0.058541
C	 1.2171307207	 0.5290291776	 2.2472391684	 0.324069
C	 1.4505382799	 1.3107455146	 3.1282170546	-0.438287
H	 1.120484983	 1.8562259222	-0.4294481536	 0.141837
H	-0.5045395018	 1.8041754758	-1.1429194354	 0.117901
H	-0.3042800873	 2.1612969787	 0.581148148	 0.136959
H	-1.0611382779	-0.1874635935	 0.2988448649	 0.103151
H	 0.2165540767	-0.6337070234	-1.9618453208	 0.260692
H	 0.4459534885	-1.3241911094	 1.6629004926	 0.128507
H	 1.6683643674	 2.0010813301	 3.9059451944	 0.210924
86.3482	129.5745	144.4781	224.1143	247.5786	328.6713	419.2176	446.8112	504.285	529.9673	580.5522	640.8969	685.0949	719.417	740.1771	771.8283	803.0567	953.4595	955.9659	992.4175	1062.8764	1093.4833	1117.0413	1145.6659	1216.1519	1301.891	1344.294	1369.5906	1392.5925	1413.6231	1415.851	1490.1997	1492.7971	1897.6435	2247.6356	3018.2783	3042.1861	3057.3084	3113.8998	3129.8459	3501.0911	3637.6415
CC1NC(=O)OC1C#C	C[C@H]1NC(=O)O[C@H]1C#C	
InChI=1S/C6H7NO2/c1-3-5-4(2)7-6(8)9-5/h1,4-5H,2H3,(H,7,8)	InChI=1S/C6H7NO2/c1-3-5-4(2)7-6(8)9-5/h1,4-5H,2H3,(H,7,8)/t4-,5+/m1/s1
