14
gdb 10588	2.72066	1.85107	1.31029	4.9202	64.14	-0.275	-0.052	0.223	937.1145	0.105644	-378.715376	-378.707267	-378.706322	-378.748049	28.397	
C	-0.1530204536	 1.5622119578	 0.0652809193	-0.408513
C	-0.05735462	 0.0562730045	 0.1078868354	-0.018176
N	 1.1529488794	-0.5767497947	-0.3765117861	-0.346574
C	 0.846074061	-0.7043011694	 1.0710761054	 0.040616
C	 1.7914079867	 0.0306221911	 1.9818978038	 0.129933
O	 1.9284764192	-0.2206054172	 3.147657166	-0.230356
C	 0.3341089466	-1.9602281076	 1.5660661734	 0.241758
N	-0.0766671345	-2.9809479101	 1.9207438086	-0.326579
H	 0.8234101865	 2.0342758195	 0.1840608576	 0.139524
H	-0.5594148637	 1.8721296778	-0.9028293003	 0.140806
H	-0.8245535662	 1.9295510046	 0.8468837974	 0.142738
H	-0.9965971691	-0.4630024283	-0.0766361824	 0.126462
H	 0.96587453	-1.4568763945	-0.8504900605	 0.263788
H	 2.3601832778	 0.8292060066	 1.4650027723	 0.104572
90.0038	143.3304	157.7834	181.7016	233.2755	297.2083	355.5065	447.4555	474.2294	562.1042	597.7705	741.235	759.0738	860.6588	966.2057	1007.1534	1046.1694	1058.6399	1101.1667	1123.7804	1230.5622	1272.3977	1339.7253	1400.9597	1411.1427	1450.2074	1486.124	1499.2778	1833.4325	2357.3554	2939.494	3048.4966	3112.6836	3123.5079	3147.2545	3515.4436
CC1NC1(C=O)C#N	C[C@H]1N[C@]1(C=O)C#N	
InChI=1S/C5H6N2O/c1-4-5(2-6,3-8)7-4/h3-4,7H,1H3	InChI=1S/C5H6N2O/c1-4-5(2-6,3-8)7-4/h3-4,7H,1H3/t4-,5+/m1/s1
