22
gdb 86547	3.55626	1.07147	0.94554	2.1167	82.12	-0.2369	0.0771	0.314	1348.145	0.193681	-404.317738	-404.308291	-404.307347	-404.352092	35.641	
C	-0.3619864045	 1.4372417836	 0.1768693699	-0.397455
C	 0.2502371487	 0.0506307314	 0.2155241936	 0.160923
C	 0.6800339382	-0.5798879897	-1.1265294303	-0.314474
C	 2.122089799	-0.4235259114	-0.5856507591	 0.072882
O	 1.6298605563	 0.0735883968	 0.6810826877	-0.316896
C	 2.9654036334	-1.6738312806	-0.4429807323	 0.311227
C	 3.414089141	-2.2747088031	-1.7574204127	-0.456369
C	 3.8120774254	-1.7989269655	 0.7681247206	-0.279008
N	 2.6023335447	-2.6372238212	 0.6087842851	-0.358516
H	 0.2162600986	 2.1038956422	-0.4708603818	 0.120302
H	-1.3890528238	 1.3897829976	-0.2017957332	 0.117404
H	-0.387120225	 1.8718029687	 1.1809539948	 0.128257
H	-0.3515918447	-0.6091651374	 0.8536650345	 0.07876
H	 0.363996841	-1.6149477343	-1.2672375459	 0.118138
H	 0.4364834257	-0.0000918739	-2.0185075856	 0.107459
H	 2.7061203386	 0.3487571541	-1.1063593093	 0.077591
H	 4.0463995853	-1.5746710858	-2.3155199853	 0.113814
H	 3.9841507549	-3.1889747975	-1.5778410885	 0.131756
H	 2.5572043231	-2.5337910993	-2.3897232538	 0.117981
H	 4.7556013403	-2.3353294745	 0.7128760588	 0.109467
H	 3.7744065925	-0.9966311455	 1.4987585232	 0.124789
H	 1.8735069513	-2.2182201649	 1.1853515595	 0.231968
61.9951	90.7519	155.5441	195.5445	235.859	241.1104	309.2876	326.298	369.2712	421.2482	478.1701	540.7862	678.344	761.6269	824.0596	854.4221	899.818	912.0086	918.1989	934.7498	983.568	991.9915	1023.0647	1040.0617	1056.8748	1088.1921	1098.7454	1117.5215	1135.6319	1163.9664	1209.3262	1255.6254	1268.9576	1283.2407	1308.72	1329.6156	1376.7639	1381.5323	1401.077	1411.3442	1419.2382	1482.218	1485.6473	1490.4718	1495.4831	1496.9774	1507.2114	2996.4161	3015.9046	3029.9122	3032.9041	3077.0808	3088.9258	3105.1487	3111.0482	3112.2478	3124.7024	3133.4775	3201.9166	3474.3529
CC1CC(O1)C1(C)CN1	C[C@H]1C[C@@H](O1)[C@@]1(C)CN1	
InChI=1S/C7H13NO/c1-5-3-6(9-5)7(2)4-8-7/h5-6,8H,3-4H2,1-2H3	InChI=1S/C7H13NO/c1-5-3-6(9-5)7(2)4-8-7/h5-6,8H,3-4H2,1-2H3/t5-,6+,7+/m0/s1
