18
gdb 31537	3.32856	1.12519	0.86036	1.1139	78.84	-0.1597	0.0526	0.2122	1338.5467	0.148712	-435.278023	-435.268611	-435.267667	-435.312135	35.003	
C	-0.032952168	 1.4420422215	 0.2086868053	-0.327623
N	 0.3621488463	 0.0698589291	-0.0929972449	-0.387185
C	 0.7451177367	-0.7543609203	 0.9509061757	 0.433686
C	 0.6314401903	-2.102149636	 1.1436611499	-0.387739
C	 1.3326437035	-2.3788574344	 2.3693711651	 0.252679
N	 1.420390319	-3.6223199405	 3.009319857	-0.614716
C	 1.8127181639	-1.1956228071	 2.8374503102	 0.189859
N	 2.5227968741	-0.8922071021	 3.9940764926	-0.606999
O	 1.4322820611	-0.1694073691	 1.951767472	-0.213979
H	 0.7961523125	 1.9577139363	 0.6966324703	 0.148685
H	-0.2504896392	 1.9572254132	-0.7299135248	 0.121527
H	-0.9138207128	 1.51389465	 0.8650473467	 0.112323
H	-0.2781600129	-0.4020767129	-0.7152791471	 0.239875
H	 0.1102284259	-2.8057978995	 0.5139432443	 0.083823
H	 1.6555716932	-4.3728535522	 2.3713456161	 0.237126
H	 2.100485496	-3.5892542107	 3.7602925332	 0.243947
H	 3.3963593631	-0.4067374476	 3.8150924328	 0.237595
H	 1.9938008572	-0.3516243178	 4.6728515556	 0.237116
59.944	132.9948	184.8856	200.9807	233.3072	252.8017	296.378	319.5618	365.1111	392.8904	530.4461	557.9938	639.9212	661.0674	685.7101	702.2497	716.3073	766.6995	810.2282	836.6483	985.2254	1040.7905	1074.0266	1123.731	1152.6042	1157.4509	1210.7352	1215.7383	1309.2237	1380.3017	1436.7076	1455.635	1490.0606	1500.7209	1517.0437	1636.5004	1645.1862	1664.2656	1736.6666	2985.662	3093.5349	3137.4922	3251.1488	3472.3943	3517.2209	3533.0581	3598.4627	3609.2646
CNC1=CC(N)=C(N)O1	CNc1cc(N)c(N)o1	
InChI=1S/C5H9N3O/c1-8-4-2-3(6)5(7)9-4/h2,8H,6-7H2,1H3	InChI=1S/C5H9N3O/c1-8-4-2-3(6)5(7)9-4/h2,8H,6-7H2,1H3
