19
gdb 72587	2.20235	1.62469	1.43108	2.3812	75.96	-0.2412	-0.0228	0.2184	1042.0022	0.157475	-423.026512	-423.017582	-423.016638	-423.059957	33.911	
C	-0.331049624	 1.4526453846	 0.2596197244	-0.488259
C	 0.0660168611	 0.0231145656	-0.0214454132	 0.272341
C	 1.1588608709	-0.290479998	-1.0672840122	-0.273361
C	 1.8258646028	-1.3058191676	-0.0973473991	-0.284157
C	 0.8756843059	-0.8942326345	 1.0597315261	 0.293663
O	 1.5171171778	-0.4899212706	 2.2167878446	-0.470714
C	-0.4127569218	-1.669388724	 1.2225945471	 0.318754
O	-0.8514952165	-2.2291985996	 2.1936251376	-0.326119
C	-1.0746099295	-1.0453056639	-0.0147172204	-0.404703
H	 0.5477314125	 2.0639468501	 0.4888319341	 0.127578
H	-0.8366076217	 1.9007446725	-0.6042851143	 0.121934
H	-1.0147875767	 1.5192460054	 1.11340072	 0.118966
H	 0.8005806085	-0.6835819575	-2.0227041409	 0.099239
H	 1.8034586947	 0.5690421458	-1.2697890481	 0.106492
H	 1.7864222353	-2.3588548216	-0.3865829753	 0.111289
H	 2.8558655577	-1.05844591	 0.1651379444	 0.128128
H	 0.9354789378	-0.7038007973	 2.9585218226	 0.294454
H	-2.0795548631	-0.668498089	 0.1928513155	 0.131429
H	-1.1152437619	-1.6896225905	-0.8972846426	 0.123046
67.7762	141.2028	165.4039	186.2457	242.0575	317.1746	345.7215	373.1748	426.6702	478.5964	518.5863	609.9901	636.336	697.8385	740.6116	814.5443	839.9326	890.3856	947.9039	959.2713	993.1289	1021.6017	1034.721	1081.8186	1114.0795	1129.1731	1200.6325	1216.1528	1230.2623	1248.8033	1267.0521	1317.006	1338.8686	1381.1929	1413.9911	1447.1761	1471.2246	1488.0128	1490.8161	1496.6013	1846.3865	3022.1707	3053.8605	3060.5956	3069.0951	3084.4773	3097.2581	3101.4522	3116.2717	3130.2351	3760.1957
CC12CCC1(O)C(=O)C2	C[C@@]12CC[C@]1(O)C(=O)C2	
InChI=1S/C7H10O2/c1-6-2-3-7(6,9)5(8)4-6/h9H,2-4H2,1H3	InChI=1S/C7H10O2/c1-6-2-3-7(6,9)5(8)4-6/h9H,2-4H2,1H3/t6-,7-/m0/s1
