19
gdb 88533	3.37157	1.26851	1.14475	2.2468	76.41	-0.2411	0.0779	0.319	1142.6803	0.158122	-422.936314	-422.928136	-422.927192	-422.970092	31.327	
C	 0.5428350569	 1.4875944945	-0.5132126717	-0.43102
C	 0.1482912385	 0.1191087789	-0.0238217938	 0.083746
O	 1.1898216249	-0.8526556998	 0.1403820209	-0.257234
C	 0.4690974637	-0.439957867	 1.3034180264	-0.130198
C	 1.2278331673	 0.2397389177	 2.3888171511	 0.444155
C	 0.6895802794	 0.7782425258	 3.7445091064	-0.262256
C	 2.1727999728	 1.1827712844	 3.5875794265	 0.040772
C	 2.5156117963	-0.2465809942	 3.1142049522	-0.251636
O	 1.8935646926	 1.5549300457	 2.1800359324	-0.338824
H	 1.4548537514	 1.831129371	-0.0272707698	 0.164144
H	 0.6991426238	 1.4572251241	-1.5968922984	 0.120197
H	-0.2573616481	 2.2076211469	-0.3109881871	 0.118514
H	-0.7460667654	-0.293040044	-0.4982266244	 0.087028
H	-0.2036523501	-1.2045408549	 1.701733547	 0.090472
H	-0.0270718557	 1.5966157283	 3.6651068726	 0.109288
H	 0.4309996525	 0.0515484699	 4.5188909042	 0.097387
H	 2.7656282788	 1.8814753177	 4.1763883354	 0.099479
H	 2.4226160609	-1.0660905385	 3.8311786948	 0.096461
H	 3.3918339996	-0.3301352566	 2.4717472555	 0.119523
22.6404	139.6353	175.838	220.7028	278.9747	382.4418	406.8503	503.2841	521.5308	607.4062	671.9307	750.4518	784.6049	805.8872	855.921	908.4765	929.9631	947.7449	973.5873	986.8628	998.4769	1036.3324	1075.2771	1094.042	1104.8244	1128.6727	1159.8163	1170.5852	1175.4787	1214.774	1239.8512	1240.9793	1279.223	1318.3622	1400.1225	1424.8172	1466.0704	1468.7259	1492.6875	1503.536	1520.0062	3040.1169	3060.4692	3065.7795	3070.3409	3079.5863	3098.143	3130.2807	3147.0899	3158.4756	3169.7454
CC1OC1C12CC(C1)O2	C[C@H]1O[C@H]1[C@@]12C[C@@H](C1)O2	
InChI=1S/C7H10O2/c1-4-6(8-4)7-2-5(3-7)9-7/h4-6H,2-3H2,1H3	InChI=1S/C7H10O2/c1-4-6(8-4)7-2-5(3-7)9-7/h4-6H,2-3H2,1H3/t4-,5-,6-,7+/m1/s1
