15
gdb 50146	3.91615	1.13592	0.94644	6.7196	70.48	-0.2551	-0.0443	0.2107	1193.4684	0.112346	-453.945871	-453.937762	-453.936817	-453.979125	28.837	
O	-0.1526021608	-0.000599087	-0.0283575493	-0.267334
C	-0.0314088889	 1.1953677368	-0.0136155461	 0.156851
N	 1.1734810802	 1.8726281121	 0.0054181565	-0.15132
C	 1.4561256832	 3.3233812094	 0.0105018356	-0.263464
C	 2.950077169	 2.9491549782	-0.0251048344	 0.163562
C	 4.0638132975	 3.5898182876	-0.7633434463	-0.286735
N	 4.0696154965	 3.5224322289	 0.7052067824	-0.338391
C	 2.5447718822	 1.4827733667	 0.0091867315	 0.424847
O	 3.0843647567	 0.4223739519	 0.0128064519	-0.313404
H	-0.8866360247	 1.9018000293	-0.0132618019	 0.087296
H	 1.0750191582	 3.8511517851	-0.8680379667	 0.134306
H	 1.128595107	 3.8264993342	 0.9257468967	 0.132117
H	 4.8045128647	 2.9624158231	-1.2499808183	 0.151102
H	 3.860506212	 4.5392083832	-1.2524112069	 0.126581
H	 3.802812397	 4.4176306205	 1.1090008656	 0.243986
61.2913	160.5823	174.5874	197.6468	225.1221	246.1796	352.2575	424.9276	536.975	634.9072	722.1713	775.3216	847.5806	867.2717	943.1134	955.8399	986.2766	1008.5076	1031.8245	1093.9281	1125.4252	1140.5595	1156.8768	1239.8755	1261.2742	1271.4104	1361.0289	1424.5263	1440.5918	1509.7301	1513.5786	1810.7974	1926.581	2925.0722	3046.0171	3100.5254	3111.4339	3204.5509	3497.904
O=CN1CC2(CN2)C1=O	O=CN1C[C@]2(CN2)C1=O	
InChI=1S/C5H6N2O2/c8-3-7-2-5(1-6-5)4(7)9/h3,6H,1-2H2	InChI=1S/C5H6N2O2/c8-3-7-2-5(1-6-5)4(7)9/h3,6H,1-2H2/t5-/m1/s1
