21
gdb 62617	2.2471	1.82167	1.58468	1.4337	81.06	-0.2427	0.0685	0.3113	1002.6014	0.18169	-387.046907	-387.03843	-387.037486	-387.078933	34.83	
C	 0.026008459	 1.578782375	-0.0294332822	-0.466277
C	 0.0655223431	 0.0510208533	 0.0029507292	 0.26972
C	-1.3397247185	-0.5137321876	 0.2390682071	-0.467278
C	 0.7900317087	-0.7003295917	-1.1230020004	-0.083392
C	 2.2847674054	-0.7666364634	-0.7694429931	-0.083507
C	 2.4816185795	-0.0849219048	 0.5855756913	-0.287169
C	 1.1004989011	-0.6618816992	 0.9498737114	 0.36653
O	 0.8413542994	-0.8513590954	 2.2940173485	-0.479927
C	 1.3111686402	-1.7666586218	-0.1972813013	-0.180566
H	 0.9788386262	 2.0095221722	-0.343992783	 0.119212
H	-0.7393322542	 1.9304852983	-0.7308106073	 0.108518
H	-0.2223565985	 1.9849533354	 0.9581801861	 0.115966
H	-2.0215812315	-0.2220077406	-0.566718195	 0.116993
H	-1.3345371568	-1.6083920512	 0.2844002003	 0.113638
H	-1.7672554664	-0.1279002986	 1.1733221965	 0.109245
H	 0.4508926078	-0.8280907046	-2.1441217884	 0.077702
H	 3.0304642343	-0.9409194119	-1.5339122146	 0.085345
H	 3.2616437182	-0.589120924	 1.1627177009	 0.104431
H	 2.6234420012	 0.998877005	 0.645177508	 0.089641
H	-0.0624451119	-1.1714669217	 2.3908367344	 0.283507
H	 1.2805478437	-2.8459783329	-0.2284291784	 0.087668
174.5781	180.4986	240.5128	254.3806	288.3217	319.7166	347.5734	371.6461	426.8885	491.5202	544.1211	624.5823	648.5915	744.6897	788.6397	800.1552	812.532	886.7058	919.1666	942.9297	948.3502	983.0309	987.3451	999.8968	1018.2636	1023.6562	1056.2316	1092.685	1134.2654	1155.5557	1192.5427	1216.3627	1225.3199	1248.4807	1291.5401	1335.0937	1353.4041	1381.7075	1399.8097	1415.5605	1485.1536	1486.7534	1503.3437	1507.7454	1522.207	3016.5906	3028.3294	3046.6408	3078.927	3085.2882	3094.3546	3101.383	3122.4397	3182.2145	3199.8722	3223.5957	3800.8424
CC1(C)C2C3CC1(O)C23	CC1(C)[C@H]2[C@H]3C[C@]1(O)[C@@H]23	
InChI=1S/C8H12O/c1-7(2)5-4-3-8(7,9)6(4)5/h4-6,9H,3H2,1-2H3	InChI=1S/C8H12O/c1-7(2)5-4-3-8(7,9)6(4)5/h4-6,9H,3H2,1-2H3/t4-,5+,6-,8+/m1/s1
