14
gdb 8476	3.05699	2.05183	1.5403	3.8334	59.47	-0.2344	-0.0106	0.2237	825.7838	0.104709	-419.650666	-419.642917	-419.641973	-419.682505	28.679	
O	 0.0479535435	 1.3858134007	-0.1420664944	-0.444567
C	 0.0064272879	 0.0174465755	-0.0677310577	 0.38071
C	-0.2545710093	-0.8046191498	 1.140938175	-0.418636
C	-1.204224712	-0.9896965176	-0.0641871175	 0.189518
O	-2.551739304	-0.7467611089	 0.04834478	-0.446553
C	-0.5091741828	-1.7539788073	-1.1473397712	 0.362092
O	-0.8518539817	-2.620793803	-1.9011812129	-0.324144
C	 0.7339961427	-0.8144787677	-1.118937361	-0.396015
H	-0.4912782792	 1.7584181665	 0.5643154358	 0.295211
H	 0.4237820197	-1.586464364	 1.4765092807	 0.123068
H	-0.7697645066	-0.2827468025	 1.9449951923	 0.118534
H	-2.9591620408	-1.4597697273	 0.5538429081	 0.298751
H	 0.8216593083	-0.2934024452	-2.0766356605	 0.14288
H	 1.6995191643	-1.2444524993	-0.8381050368	 0.119151
109.9148	147.5328	209.5608	244.7102	276.1312	348.1836	419.9986	468.4814	535.2128	584.4883	634.5538	683.5953	710.2016	773.5406	869.8245	968.059	1002.0275	1007.342	1075.9708	1096.3937	1119.836	1144.649	1205.5055	1260.4022	1353.282	1408.2283	1415.5654	1458.1015	1512.442	1877.4202	3057.8997	3091.4932	3116.9214	3178.7991	3785.9508	3809.8262
OC12CC1(O)C(=O)C2	O[C@@]12C[C@]1(O)C(=O)C2	
InChI=1S/C5H6O3/c6-3-1-4(7)2-5(3,4)8/h7-8H,1-2H2	InChI=1S/C5H6O3/c6-3-1-4(7)2-5(3,4)8/h7-8H,1-2H2/t4-,5-/m0/s1
