18
gdb 69240	2.78758	1.55059	1.17289	3.2079	78.74	-0.2101	0.0008	0.2109	1079.135	0.149362	-401.995801	-401.987937	-401.986993	-402.02783	31.183	
C	-0.0019837839	 1.5185123029	 0.0291933423	-0.47223
C	-0.0124042556	 0.0036724385	-0.0127791952	 0.293468
C	-0.8591562317	-0.7467329166	 0.9867390992	-0.319712
C	 0.6496980025	-0.7698252647	 1.1378955379	-0.20121
C	 1.4313269236	-2.0081203798	 0.8587192429	 0.426721
O	 2.1435073194	-2.5514960612	 1.6812457972	-0.376239
N	 1.3115576087	-2.5049928689	-0.428287384	-0.358289
C	 0.7488327386	-1.8070589091	-1.4979125458	-0.001499
C	 0.1482768388	-0.6230341593	-1.348462	-0.183795
H	 0.9353537378	 1.9190559797	-0.3708539487	 0.126113
H	-0.8245452959	 1.9285413898	-0.5681665784	 0.121353
H	-0.1181887104	 1.8874243215	 1.0527570131	 0.118774
H	-1.4013229373	-0.1720110733	 1.7297827701	 0.121357
H	-1.3567024417	-1.651955983	 0.6578591899	 0.126723
H	 1.0613279205	-0.2065595361	 1.9674007045	 0.110232
H	 1.8642861856	-3.3293905195	-0.6084712921	 0.254029
H	 0.8405419423	-2.3015058309	-2.4574218953	 0.119762
H	-0.2519272815	-0.1112338199	-2.2157187175	 0.094441
123.2938	160.9089	217.5145	276.7827	317.0358	355.1609	439.1191	476.4545	545.0459	562.7388	615.4461	670.8019	733.0061	745.8577	771.4256	832.3137	901.752	929.6791	940.0928	958.1591	994.7824	1049.2951	1061.056	1097.1759	1105.0686	1119.772	1213.0276	1237.4003	1289.4222	1339.2877	1387.4396	1418.1755	1434.79	1464.3907	1480.5439	1488.8048	1501.5142	1719.0365	1790.6553	3028.0652	3091.6784	3106.2181	3133.4079	3182.4062	3191.2207	3212.0113	3224.9818	3628.0322
CC12CC1C(=O)NC=C2	C[C@]12C[C@H]1C(=O)NC=C2	
InChI=1S/C7H9NO/c1-7-2-3-8-6(9)5(7)4-7/h2-3,5H,4H2,1H3,(H,8,9)	InChI=1S/C7H9NO/c1-7-2-3-8-6(9)5(7)4-7/h2-3,5H,4H2,1H3,(H,8,9)/t5-,7-/m0/s1
