15
gdb 5235	7.4902	1.20372	1.05068	0.4631	63.39	-0.2204	0.0255	0.2458	1097.806	0.119519	-399.831195	-399.823807	-399.822863	-399.8636	26.234	
C	-0.1353928849	 1.4979393507	 0.0118444609	-0.392397
C	 0.0004706888	-0.0110904521	 0.003420844	-0.041334
O	-1.331561473	-0.5655356403	 0.0113715376	-0.25705
C	-1.3885908422	-1.8856346078	 0.0060080047	 0.504206
N	-0.4276784681	-2.7551365431	-0.0055124941	-0.38423
C	-1.105567843	-3.9765286744	-0.0054380967	-0.111553
C	-2.4357403478	-3.7577114812	 0.0060443142	-0.046311
O	-2.6361114787	-2.3901498371	 0.0137303013	-0.188553
H	 0.8580128898	 1.9558651081	 0.0060293653	 0.125822
H	-0.6818200156	 1.8453538356	-0.8691978679	 0.134007
H	-0.6674777435	 1.8367508213	 0.90493235	 0.134004
H	 0.5258731001	-0.3739635698	-0.8860766192	 0.127814
H	 0.5400155558	-0.3825864053	 0.8808025742	 0.127838
H	-0.5747814442	-4.9151322835	-0.0137794284	 0.123442
H	-3.3203179434	-4.368898411	 0.010352554	 0.144295
57.5272	102.6539	163.103	249.9318	320.3856	356.0238	486.1546	619.5878	706.7924	756.0593	762.4879	810.4888	858.5036	908.9222	935.178	991.4967	1073.6724	1091.2372	1127.9389	1146.0787	1184.3537	1187.9935	1284.543	1292.9786	1383.3908	1413.9818	1447.7443	1484.7291	1497.9244	1520.444	1583.4963	1645.4113	3047.2532	3048.9718	3087.1479	3124.384	3129.4979	3264.7927	3309.3783
CCOC1=NC=CO1	CCOc1ncco1	
InChI=1S/C5H7NO2/c1-2-7-5-6-3-4-8-5/h3-4H,2H2,1H3	InChI=1S/C5H7NO2/c1-2-7-5-6-3-4-8-5/h3-4H,2H2,1H3
