25
gdb 118155	3.40411	0.78195	0.66883	0.9855	90.44	-0.2501	0.0867	0.3368	1776.7709	0.227928	-389.47599	-389.465367	-389.464423	-389.512195	38.666	
C	-0.0274715009	 1.3875684302	-0.0332049063	-0.226582
O	 0.0208040944	-0.0150243239	 0.0428863128	-0.233449
C	-1.2572121395	-0.6147270124	-0.0120511657	-0.052757
C	-1.1066551163	-2.1316466816	 0.1037703036	-0.019852
C	-0.4686607912	-2.5245324351	 1.4426183356	-0.396986
C	-2.4538088238	-2.8203370507	-0.104959552	 0.068491
C	-3.156338186	-2.7396455776	-1.4927969398	-0.234435
C	-3.5920827067	-4.21860232	-1.3171963094	-0.217847
C	-2.4963673873	-4.3714661547	-0.2286365678	-0.236211
H	 1.0006613196	 1.7558220262	 0.0115029929	 0.124456
H	-0.4868036112	 1.7318718818	-0.9740635962	 0.100935
H	-0.5976010362	 1.8247111984	 0.8025561256	 0.101286
H	-1.892782456	-0.2337823373	 0.8084274373	 0.077422
H	-1.7583404111	-0.3486219862	-0.9582691983	 0.084557
H	-0.4341305757	-2.446944396	-0.7071734897	 0.073215
H	-0.2954525454	-3.6037570721	 1.4966595475	 0.111235
H	 0.4869115527	-2.0132189172	 1.5784117334	 0.129664
H	-1.1218352787	-2.2488207658	 2.2799278597	 0.104773
H	-3.1526187438	-2.4988952846	 0.679016824	 0.063116
H	-3.9386234338	-1.9890629611	-1.6314933868	 0.09269
H	-2.423624327	-2.6291196999	-2.2997489529	 0.098315
H	-4.597378921	-4.296655004	-0.8929810302	 0.100396
H	-3.5352997218	-4.872385413	-2.1906703347	 0.094944
H	-1.5618811865	-4.7579111947	-0.6498141587	 0.098096
H	-2.738567027	-4.9513915884	 0.6651960761	 0.094527
63.6152	90.7652	101.9082	119.8183	147.7058	221.5019	228.4047	243.2183	315.5546	337.9665	369.7273	440.8185	526.8224	644.9666	770.5946	785.002	885.7971	901.1673	931.0322	935.7312	953.9055	959.4985	990.4049	1005.1066	1032.19	1087.907	1135.7747	1160.2462	1170.4056	1189.29	1194.9653	1204.4243	1223.9441	1244.0478	1255.4438	1263.9348	1268.6262	1281.2234	1295.0556	1308.4074	1360.7682	1391.3932	1401.5661	1425.1721	1477.1163	1480.4666	1484.864	1486.7933	1494.0196	1503.6994	1505.6912	1509.5446	1527.9963	2935.709	2964.9241	2972.1513	3002.9248	3006.3278	3018.7378	3029.9519	3041.4488	3046.517	3056.8919	3093.1905	3094.1426	3098.6015	3109.7128	3114.9098	3126.5815
COCC(C)C1CCC1	COC[C@@H](C)C1CCC1	
InChI=1S/C8H16O/c1-7(6-9-2)8-4-3-5-8/h7-8H,3-6H2,1-2H3	InChI=1S/C8H16O/c1-7(6-9-2)8-4-3-5-8/h7-8H,3-6H2,1-2H3/t7-/m1/s1
