17
gdb 46489	4.04983	1.1776	1.0011	3.1858	77.11	-0.2441	-0.0609	0.1833	1164.0557	0.136644	-421.843037	-421.83545	-421.834506	-421.875306	29.39	
O	 0.0154179405	-0.0341516458	 0.2373697551	-0.32499
C	-0.0215818271	 1.1659021089	 0.0588770144	 0.369894
C	-1.3307245908	 1.9429393158	-0.0218116803	-0.327135
C	-1.2410669629	 3.1306267252	-0.989687796	-0.311393
C	-0.0409950338	 4.0056160989	-0.685955838	 0.39758
C	 0.0466232155	 5.3638080353	-1.2491502587	-0.239963
O	-0.2794846794	 5.1838934888	 0.1242098376	-0.273167
C	 1.202691119	 3.2821981402	-0.329354013	-0.083609
C	 1.216524797	 1.977041999	-0.0271701556	-0.173208
H	-2.1304963011	 1.2502199023	-0.2927201289	 0.124935
H	-1.5466081752	 2.3090237781	 0.9913621186	 0.138959
H	-1.1435137847	 2.7545611945	-2.0160174187	 0.118024
H	-2.1481103032	 3.7400562175	-0.9497548707	 0.118881
H	 1.0203565079	 5.8100888717	-1.4493830524	 0.117892
H	-0.7649442317	 5.7204341877	-1.8833171913	 0.119215
H	 2.1192131625	 3.8666729591	-0.3137029207	 0.113143
H	 2.1398089873	 1.4527708226	 0.1986902386	 0.114942
69.5543	157.6957	233.5824	311.3015	371.6359	398.7908	405.5257	469.47	535.3504	633.5073	682.0931	722.7843	753.8791	788.6484	867.2235	907.1187	943.1535	986.689	1006.1306	1020.8135	1047.5106	1125.8061	1131.9564	1161.165	1181.4982	1218.9587	1248.9828	1318.6259	1334.3086	1342.4465	1390.9494	1432.3548	1462.2307	1477.7535	1525.2598	1677.5103	1782.9761	3025.2083	3034.9093	3075.4931	3094.1498	3110.8236	3159.4643	3163.2448	3191.1982
O=C1CCC2(CO2)C=C1	O=C1CC[C@]2(CO2)C=C1	
InChI=1S/C7H8O2/c8-6-1-3-7(4-2-6)5-9-7/h1,3H,2,4-5H2	InChI=1S/C7H8O2/c8-6-1-3-7(4-2-6)5-9-7/h1,3H,2,4-5H2/t7-/m0/s1
