19
gdb 48842	2.84402	1.37283	1.13811	3.0815	76.3	-0.2479	-0.0199	0.2281	1122.6389	0.160622	-423.032608	-423.024663	-423.023719	-423.065154	30.639	
O	-0.1323392399	 0.054243778	 0.2776250366	-0.274603
C	 0.0000781247	 1.207199373	-0.0573010651	 0.10392
C	 1.272954475	 1.956938224	-0.0122555441	 0.210578
C	 1.1773421906	 3.4532779514	 0.2412271218	-0.32222
C	 1.4992715695	 2.9807660192	-1.1374413509	-0.0682
C	 2.9095358808	 3.1370231087	-1.7033735736	-0.23685
C	 3.8705423403	 2.0708526032	-1.161276352	-0.074942
O	 3.6975284639	 1.8725235037	 0.2314250812	-0.2462
C	 2.4827817444	 1.1979799684	 0.5072023417	-0.165108
H	-0.8663193649	 1.8001413589	-0.4373248423	 0.065815
H	 0.1963745056	 3.8746576987	 0.4354150315	 0.119524
H	 1.9859620532	 3.8747017441	 0.8288469495	 0.137354
H	 0.69338136	 3.0567518974	-1.8617354025	 0.096186
H	 2.8814241113	 3.0682635096	-2.7957848436	 0.106993
H	 3.2914227855	 4.1343524283	-1.4586303418	 0.114378
H	 3.7170651144	 1.1169850205	-1.6919446672	 0.093464
H	 4.9108230847	 2.3740981549	-1.3079245668	 0.109961
H	 2.4309259352	 1.0838054519	 1.5937659023	 0.119379
H	 2.4906765858	 0.1905951961	 0.0643542754	 0.110573
94.2326	127.4866	209.7883	236.1813	325.9124	384.6187	395.2207	432.5858	497.4542	537.8163	682.1246	751.4312	759.4103	846.7631	852.2141	926.2979	948.2592	967.3598	1006.2016	1045.6798	1069.4844	1074.9811	1111.4609	1119.8178	1138.2593	1149.649	1240.1713	1258.9503	1274.9513	1317.8288	1326.7289	1365.9567	1372.0576	1415.2403	1424.203	1438.0881	1476.3965	1488.6333	1495.5273	1505.3759	1807.622	2842.9412	2973.795	2997.9964	3038.6294	3079.1945	3085.5149	3091.5344	3130.1238	3145.0689	3221.6745
O=CC12CC1CCOC2	O=C[C@]12C[C@H]1CCOC2	
InChI=1S/C7H10O2/c8-4-7-3-6(7)1-2-9-5-7/h4,6H,1-3,5H2	InChI=1S/C7H10O2/c8-4-7-3-6(7)1-2-9-5-7/h4,6H,1-3,5H2/t6-,7+/m1/s1
