21
gdb 58359	1.7928	1.42021	0.9522	2.769	78.93	-0.2409	-0.0178	0.2231	1323.7911	0.179494	-424.219734	-424.209286	-424.208341	-424.256671	37.267	
C	-0.1296094182	 1.5586588603	 0.077677285	-0.4156
C	 0.0199356793	 0.0393649874	 0.0564892812	 0.127706
O	 0.6923203379	-0.404328727	-1.123591426	-0.443929
C	 0.8373008502	-0.5307126657	 1.2351483838	-0.099625
C	 0.7451628508	-2.0574215931	 1.1662753018	 0.169492
O	-0.278973453	-2.6676144659	 1.3352490179	-0.267383
C	 2.2782731631	-0.0643077323	 1.2687710653	 0.018209
C	 2.7003468123	 1.1119678266	 2.1131347499	-0.273545
C	 3.107503856	-0.2827586839	 2.5128707663	-0.28552
H	 0.8451135393	 2.0496384376	 0.0246677977	 0.134435
H	-0.7287447379	 1.8905671976	-0.7784554805	 0.106494
H	-0.642092717	 1.8912232389	 0.9862867184	 0.117373
H	-0.9758204884	-0.4245509038	 0.1161265899	 0.087188
H	 0.1823915815	-0.1163671999	-1.8868538633	 0.285825
H	 0.3231023005	-0.2354211724	 2.1589584395	 0.093997
H	 1.7008572211	-2.583267094	 0.9492529227	 0.081977
H	 2.7956409987	-0.1834447988	 0.3223247986	 0.106936
H	 3.460821544	 1.7787145752	 1.7219376127	 0.114851
H	 1.9427413286	 1.6086551557	 2.710486976	 0.111958
H	 2.6205494039	-0.7212621341	 3.3784261598	 0.114108
H	 4.1457353773	-0.5721512984	 2.3964190435	 0.115053
18.1238	78.7316	86.4202	154.0996	191.3628	205.174	252.6296	273.0478	304.7451	323.2702	433.0014	463.6125	567.2036	600.3791	768.1559	805.0066	832.5141	884.8427	920.7569	925.3281	970.162	991.996	1028.525	1055.7217	1063.1753	1082.8587	1129.5064	1143.4655	1149.4161	1168.6076	1200.3433	1224.6096	1239.5207	1267.1356	1306.6065	1385.9866	1400.9925	1407.5028	1419.1427	1429.206	1471.3854	1489.9235	1497.1842	1506.7511	1826.9412	2888.6399	2993.8597	3029.3728	3033.5047	3093.7041	3127.2873	3127.7399	3132.3883	3164.8306	3205.8678	3221.1775	3825.285
CC(O)C(C=O)C1CC1	C[C@@H](O)[C@@H](C=O)C1CC1	
InChI=1S/C7H12O2/c1-5(9)7(4-8)6-2-3-6/h4-7,9H,2-3H2,1H3	InChI=1S/C7H12O2/c1-5(9)7(4-8)6-2-3-6/h4-7,9H,2-3H2,1H3/t5-,7-/m1/s1
