20
gdb 38488	3.23617	1.69527	1.55593	1.3173	80.87	-0.2109	0.0722	0.2831	953.8385	0.173476	-365.943782	-365.936897	-365.935953	-365.974482	29.549	
C	 0.0741749647	 1.4923746319	-0.1410130856	-0.255614
C	 1.2882728002	 0.6443690903	-0.0222890446	-0.016325
C	 1.9970869681	 0.4932220482	 1.3474191114	-0.342068
C	 0.992653197	-0.2438266845	 2.2245800612	 0.249018
C	-0.3162577211	 0.4009539503	 2.60771856	-0.373999
C	-0.2558728199	-0.4537568252	 1.3734310065	 0.284183
C	-0.2789354514	-1.9515099062	 1.7098704732	-0.2768
C	 0.9931186196	-1.7385048716	 2.606524031	-0.28164
N	-0.078748817	 0.0419947636	 0.0229396313	-0.150183
H	-0.1826603981	 2.1565250762	 0.6787474612	 0.112951
H	-0.2308480826	 1.868753347	-1.1147636621	 0.114186
H	 1.8753324532	 0.4405847484	-0.9145355794	 0.090147
H	 2.9036564191	-0.1069826664	 1.2235245572	 0.109456
H	 2.3107972134	 1.462439835	 1.7503722311	 0.109683
H	-0.8554092534	 0.0313897075	 3.4775224417	 0.107164
H	-0.3887427062	 1.4741224674	 2.4855616721	 0.116466
H	-1.1831374416	-2.3323697209	 2.196165453	 0.093431
H	-0.0682337519	-2.5638301356	 0.8310924753	 0.112527
H	 1.866052247	-2.2770505268	 2.2297966431	 0.101314
H	 0.8867064007	-1.9579270687	 3.6740896222	 0.096106
182.2907	220.823	291.2044	345.2521	439.0617	450.5827	537.5744	628.8625	661.3841	721.0515	740.8881	767.4585	795.2625	818.4185	831.7836	875.4798	918.7656	923.8603	939.4772	954.5964	1003.2486	1018.1138	1069.7504	1082.3251	1100.7189	1121.7879	1136.3578	1161.6361	1190.6875	1219.2824	1232.1778	1241.2636	1263.1266	1266.5667	1304.2176	1320.4409	1359.5189	1376.0307	1470.8334	1475.4891	1484.6803	1498.2345	1518.584	3040.0296	3043.9243	3048.0792	3085.0303	3097.7061	3104.7698	3111.3045	3120.9386	3135.5396	3185.4758	3215.2036
C1C2CC34CC3(CC4)N12	C1[C@H]2C[C@@]34C[C@@]3(CC4)N12	
InChI=1S/C8H11N/c1-2-8-5-7(1,8)3-6-4-9(6)8/h6H,1-5H2	InChI=1S/C8H11N/c1-2-8-5-7(1,8)3-6-4-9(6)8/h6H,1-5H2/t6-,7+,8-,9?/m1/s1
