17
gdb 50984	2.05365	1.31383	0.9216	6.2325	74.85	-0.2766	0.0054	0.282	1280.3686	0.134526	-417.999433	-417.990332	-417.989388	-418.0342	32.56	
N	-2.3632137851	 0.5828705888	-1.8390576131	-0.429529
C	-2.165386885	-0.591639868	-1.4301093993	 0.109684
O	-1.468797177	-0.7937465631	-0.2834470705	-0.223373
C	-1.1975193703	-2.1308843468	 0.0647457792	 0.420428
C	-0.0132101552	-2.7275036718	-0.685408835	-0.404824
C	 1.2506341247	-2.0525358537	-0.3828373311	 0.280087
N	 2.2538213749	-1.5356283343	-0.1378801618	-0.297365
C	-1.4066857957	-2.4533081449	 1.5088160426	-0.300339
C	-2.353559104	-3.0124437602	 0.4664201533	-0.335199
H	-2.9119757001	 0.5670664696	-2.696218578	 0.234245
H	-2.5153559766	-1.521593385	-1.8966147072	 0.093977
H	 0.0878618159	-3.786514803	-0.4260181453	 0.156754
H	-0.1860115383	-2.6819433144	-1.7671227141	 0.153904
H	-0.7039906015	-3.1230983084	 1.9911726797	 0.131099
H	-1.769288143	-1.6444119645	 2.1311478216	 0.147689
H	-3.3456985454	-2.5794738874	 0.4133793737	 0.137412
H	-2.3083412783	-4.0698296629	 0.2295787854	 0.125349
49.5351	85.2992	134.5677	140.8197	208.0014	307.3486	315.7531	378.9902	393.2526	473.7103	514.5825	615.5888	770.4177	786.9154	825.0173	892.727	901.5791	932.7867	967.7996	1001.6964	1025.0894	1050.1103	1062.7412	1087.7978	1091.7404	1187.3452	1202.2249	1271.258	1289.2913	1331.1564	1367.8633	1413.6053	1453.8157	1460.0908	1497.8043	1748.9784	2368.8337	3034.4552	3044.6024	3088.2905	3139.404	3148.7887	3225.6316	3242.6234	3520.2453
N=COC1(CC#N)CC1	[NH][CH]OC1(CC#N)CC1	
InChI=1S/C6H8N2O/c7-4-3-6(1-2-6)9-5-8/h5,8H,1-3H2	InChI=1S/C6H8N2O/c7-4-3-6(1-2-6)9-5-8/h5,8H,1-3H2
