17
gdb 51755	2.81841	1.02008	0.81708	4.5574	74.03	-0.2511	-0.034	0.2171	1366.316	0.135679	-418.001668	-417.992733	-417.991789	-418.036822	31.121	
O	-0.3219974408	 0.0976705391	-0.2371371121	-0.235929
C	-0.0533421358	 1.2507646187	-0.0169598552	 0.148431
C	 1.3381839861	 1.8414716118	-0.0971968877	-0.283943
C	 1.4195855479	 2.9052562365	-1.1926581518	 0.020642
N	 0.5707795766	 4.1018066609	-0.991461983	-0.309061
C	 1.6406883728	 5.0007319751	-1.4705382278	-0.166293
C	 2.6734671012	 3.8490955945	-1.2598665346	-0.200811
C	 3.4484100814	 3.9456397585	-0.0350489902	 0.299443
N	 4.0653081829	 4.018817892	 0.9402337693	-0.329284
H	-0.8446777616	 1.9819841884	 0.2620232925	 0.088416
H	 1.5699270068	 2.3131500475	 0.8654778444	 0.14376
H	 2.0538299054	 1.0364453828	-0.2880493587	 0.126344
H	 1.2845816773	 2.4316956612	-2.17577419	 0.091883
H	-0.2909513059	 4.1251305199	-1.5251242998	 0.22984
H	 1.5747642355	 5.2794546032	-2.530122514	 0.109297
H	 1.7817587991	 5.901909141	-0.8687256456	 0.134066
H	 3.346637871	 3.6597143988	-2.0970682057	 0.133198
50.8415	67.1088	102.8855	118.7782	211.2924	237.1741	344.8918	428.6813	478.1796	522.6676	600.2053	687.9028	786.459	805.7228	855.3869	914.3097	980.6556	994.4383	1013.7058	1069.9033	1087.6072	1107.3498	1134.9893	1144.6552	1185.8866	1228.1993	1257.4805	1291.7263	1336.4405	1359.0509	1383.6	1393.299	1423.2639	1456.3017	1521.2889	1832.056	2355.2341	2885.3189	2994.8829	3018.4887	3040.9507	3094.4443	3107.6663	3110.1524	3534.5981
O=CCC1NCC1C#N	O=CC[C@H]1NC[C@H]1C#N	
InChI=1S/C6H8N2O/c7-3-5-4-8-6(5)1-2-9/h2,5-6,8H,1,4H2	InChI=1S/C6H8N2O/c7-3-5-4-8-6(5)1-2-9/h2,5-6,8H,1,4H2/t5-,6-/m1/s1
