22
gdb 76642	2.93997	1.05684	0.89714	2.0072	82.45	-0.2192	0.0712	0.2903	1383.2156	0.193092	-404.288579	-404.278677	-404.277733	-404.32446	35.388	
C	 0.4717409001	 1.6380804117	-0.1765475287	-0.41879
C	 0.2774758041	 0.1374800142	-0.2513417445	-0.008059
C	 0.7067467513	-0.6977709655	-1.4219171508	-0.033227
C	 1.3734928776	-0.1270476327	-2.6459380215	-0.036751
C	 2.1064244642	-1.1150853867	-3.5888669785	-0.088212
O	 1.3076114623	-0.705390257	-4.7165483778	-0.270916
C	 0.4713944748	 0.1180252515	-3.8810940315	-0.090518
N	 1.3659159181	-0.832547413	-0.1185914436	-0.110445
C	 2.7393485876	-0.3924862632	 0.0751269861	-0.315984
H	 0.5974623212	 1.9570290054	 0.864087243	 0.125324
H	 1.3341116505	 1.99873086	-0.7397473936	 0.120632
H	-0.4154784589	 2.1463129209	-0.569267232	 0.124854
H	-0.6258919304	-0.1878020641	 0.266152981	 0.087999
H	 0.0854197359	-1.5631459442	-1.6632381214	 0.085653
H	 1.9874704068	 0.7426836797	-2.4145874952	 0.077741
H	 3.1755384938	-0.9382821148	-3.7545999008	 0.101603
H	 1.9541206126	-2.1746094217	-3.3405139042	 0.10097
H	-0.5448901751	-0.2900333016	-3.7875653046	 0.098276
H	 0.4069751936	 1.1493514638	-4.2470117003	 0.101629
H	 3.0337641167	 0.5267834293	-0.450725454	 0.099149
H	 2.9057649138	-0.2308733094	 1.1451536387	 0.124214
H	 3.4126662895	-1.1933657625	-0.2478835461	 0.124858
42.694	66.0692	109.8727	149.1505	159.8008	193.3971	261.7637	280.3371	341.6798	460.6732	487.5765	549.4357	724.2435	773.3289	780.251	866.8499	893.8102	941.4776	982.7829	1002.9444	1032.5474	1041.0983	1048.6185	1092.6462	1117.2052	1139.8765	1157.0473	1161.8666	1164.1583	1170.5407	1190.1221	1221.7273	1253.4242	1297.9953	1308.4118	1353.1876	1379.1348	1398.7395	1415.9952	1443.3968	1462.0979	1485.2157	1492.8068	1505.3451	1506.1606	1511.0489	1537.3971	2994.737	2996.4907	3007.6648	3037.6719	3051.8573	3053.1963	3065.3704	3070.1805	3089.3572	3092.4595	3096.8875	3113.046	3132.5643
CC1C(C2COC2)N1C	C[C@H]1[C@@H](C2COC2)N1C	
InChI=1S/C7H13NO/c1-5-7(8(5)2)6-3-9-4-6/h5-7H,3-4H2,1-2H3	InChI=1S/C7H13NO/c1-5-7(8(5)2)6-3-9-4-6/h5-7H,3-4H2,1-2H3/t5-,7-,8?/m0/s1
