17
gdb 28284	4.87754	1.26081	1.13964	2.0038	81.03	-0.1767	0.0214	0.1981	1084.4244	0.138532	-380.831139	-380.824005	-380.823061	-380.862335	29.105	
N	 0.0660889252	 1.37720474	 0.1337165624	-0.59623
C	-0.0179190962	-0.0132214416	-0.044255563	 0.284206
C	-1.1631878905	-0.7895129142	 0.0578682951	-0.241394
N	-0.7363158114	-2.1069357278	 0.1184223736	 0.010037
C	-0.9721631157	-3.3946676325	-0.5647056647	-0.019582
C	-0.3965670038	-3.3987733765	-1.9561968963	-0.272297
C	 0.5313279411	-3.531161802	-0.7540866392	-0.179817
C	 0.624253235	-2.1588481091	-0.1205112018	 0.21344
C	 1.1163898446	-0.8794626107	-0.2279462723	-0.323379
H	 0.8032300731	 1.7961034347	-0.4187165454	 0.239774
H	-0.8061118691	 1.8521102386	-0.0599305325	 0.238723
H	-2.1773049332	-0.4940105611	 0.2788746818	 0.100878
H	-1.6999989202	-4.1026745945	-0.1899418249	 0.109455
H	-0.5678202578	-4.3028684656	-2.5363855959	 0.114814
H	-0.3911221422	-2.4790580181	-2.5330880467	 0.130335
H	 1.1571927402	-4.3958992451	-0.5819468381	 0.102995
H	 2.1362539307	-0.5640871745	-0.389960512	 0.088041
123.5754	233.3008	266.6151	298.2435	330.3053	498.6756	519.4509	594.7468	630.5859	680.0044	716.5046	746.5091	769.0749	775.7372	781.7366	852.1351	879.7591	944.3112	985.2457	996.0648	1002.0108	1049.3298	1082.3457	1089.6774	1100.8188	1139.9203	1184.365	1221.4456	1254.4055	1297.4116	1340.1873	1373.0409	1431.1889	1471.2569	1519.4484	1607.4553	1656.3012	3110.8369	3195.529	3200.7977	3212.2546	3241.3702	3245.3942	3534.5325	3624.7091
NC1=CN2C3CC3C2=C1	NC1=C[C]2N([CH]1)[C@H]1C[C@@H]21	
InChI=1S/C7H8N2/c8-4-1-6-5-2-7(5)9(6)3-4/h1,3,5,7H,2,8H2	InChI=1S/C7H8N2/c8-4-1-6-5-2-7(5)9(6)3-4/h1,3,5,7H,2,8H2/t5-,7-/m0/s1
