16
gdb 130095	4.89582	1.30177	1.04859	3.3099	71.84	-0.19	0.0438	0.2338	1097.9805	0.129442	-430.273894	-430.26669	-430.265746	-430.305396	27.893	
N	-0.0446822221	 1.2851909455	 0.1193129326	-0.581614
C	-0.0109169611	-0.0927329578	 0.0493177792	 0.391408
N	-1.1107630126	-0.8316157657	-0.0522305544	-0.364713
N	-0.5555604598	-2.0944330651	-0.0947252109	 0.026855
C	-1.0636854795	-3.4264213621	 0.1390012672	-0.169378
C	 0.2514780422	-4.2320367452	-0.0799126682	-0.179748
N	 1.3211819911	-3.2683000131	 0.2752028917	-0.411479
C	 0.7714632881	-2.014629165	 0.0765284216	 0.458893
N	 1.1909751943	-0.7688216637	 0.1351699564	-0.441553
H	 0.8104215136	 1.7166288101	-0.1983983649	 0.256
H	-0.8714947432	 1.6922634107	-0.2923521901	 0.25499
H	-1.4474351275	-3.534905292	 1.1621241149	 0.127349
H	-1.8494096398	-3.7100362316	-0.5647427472	 0.131977
H	 0.302229496	-5.1212652658	 0.5513432627	 0.127051
H	 0.3238524103	-4.5415427188	-1.1308551613	 0.118626
H	 2.2327835401	-3.4353167606	-0.1267656691	 0.255337
118.3329	193.5204	267.5253	289.2863	333.465	348.2495	515.884	565.6418	600.954	618.2733	713.6227	737.9758	777.3618	797.0545	867.4279	906.8168	947.6656	1012.5547	1048.4406	1110.876	1125.3621	1149.7268	1208.0053	1255.4151	1294.5407	1322.3678	1344.4377	1382.9833	1439.116	1497.5648	1517.7653	1533.2325	1593.0078	1635.3196	1649.5902	3015.1391	3020.3796	3098.482	3109.2293	3574.9511	3598.4115	3682.2988
NC1=NN2CCNC2=N1	Nc1nn2CCNc2n1	
InChI=1S/C4H7N5/c5-3-7-4-6-1-2-9(4)8-3/h1-2H2,(H3,5,6,7,8)	InChI=1S/C4H7N5/c5-3-7-4-6-1-2-9(4)8-3/h1-2H2,(H3,5,6,7,8)
