21
gdb 117183	2.61999	0.85486	0.67314	1.4332	76.3	-0.2431	-0.0139	0.2293	1695.6779	0.178184	-461.365174	-461.353838	-461.352894	-461.403242	38.828	
C	-0.9755371079	 1.3640548178	 0.5051759372	-0.236973
O	-0.9048227661	-0.0283410155	 0.7172099277	-0.2444
C	-1.2016939338	-0.8183797407	-0.4175209197	 0.043737
C	-0.0751044992	-0.8501971829	-1.4532997377	-0.401131
C	-1.5572708039	-2.2396558146	 0.0556799591	 0.343112
O	-1.6240251195	-3.1417675321	-0.7502577207	-0.319712
C	-1.8455180369	-2.439271267	 1.52653317	-0.274024
C	-2.2524641594	-3.865724802	 1.8604050845	-0.081516
O	-2.4958871492	-3.914876443	 3.2592449569	-0.425636
H	-0.8319202603	 1.843249184	 1.4764991609	 0.132459
H	-0.1973423635	 1.7251445363	-0.1815119664	 0.113501
H	-1.9570577454	 1.6613709283	 0.1038590648	 0.106843
H	-2.1214950447	-0.4368627511	-0.8993258775	 0.092693
H	-0.3156651685	-1.5867589794	-2.2220662075	 0.147388
H	 0.0586515644	 0.1246522951	-1.9286454118	 0.114678
H	 0.8659462848	-1.1368418072	-0.9741678963	 0.12582
H	-0.9600094677	-2.1425233534	 2.1009826729	 0.145411
H	-2.6231233862	-1.7314071517	 1.838901279	 0.133811
H	-3.1461185143	-4.1418221549	 1.2821622921	 0.097856
H	-1.4526645758	-4.5583483681	 1.5617351227	 0.099914
H	-2.7479606468	-4.8148288879	 3.48493552	 0.286171
27.1203	71.0251	90.0629	100.3763	119.9072	193.38	216.8119	240.3451	269.5255	296.2981	331.7288	390.8424	413.1296	481.834	538.1847	652.4018	788.2682	824.5858	881.4564	983.6067	1003.2701	1048.1363	1074.4647	1091.8867	1115.0959	1141.8197	1175.6435	1182.8794	1205.5071	1227.5809	1256.878	1293.6239	1323.8521	1353.5747	1364.5615	1391.4085	1437.3125	1467.2558	1477.974	1484.6047	1493.8906	1502.1295	1511.2443	1522.1653	1798.2469	2933.591	2980.3345	2993.3214	3021.4593	3034.8513	3048.0126	3051.255	3078.5213	3116.5026	3122.8302	3145.5055	3831.5065
COC(C)C(=O)CCO	CO[C@@H](C)C(=O)CCO	
InChI=1S/C6H12O3/c1-5(9-2)6(8)3-4-7/h5,7H,3-4H2,1-2H3	InChI=1S/C6H12O3/c1-5(9-2)6(8)3-4-7/h5,7H,3-4H2,1-2H3/t5-/m0/s1
