18
gdb 54532	3.30752	1.32559	1.10469	2.2864	71.6	-0.2452	0.0177	0.2629	1124.0334	0.148883	-439.126117	-439.117972	-439.117027	-439.15883	31.467	
N	 0.5591899484	 0.1462430293	-0.9749489961	-0.535695
C	-0.0939414883	 0.2256964393	 0.2155119272	 0.302805
O	 0.3163676381	 0.8273454111	 1.1906546521	-0.367339
C	-1.3918561454	-0.5391443341	 0.2530311817	 0.327873
C	-2.4941765799	-0.1294019937	 1.2092093198	-0.282475
C	-3.4793345499	-1.3223401113	 1.1789109031	-0.226517
C	-2.6180440173	-2.5639069485	 0.8395876651	-0.239951
C	-1.4669085484	-1.9980889295	 0.0346171339	 0.00409
O	-1.867778463	-1.0824588928	-0.9969491425	-0.31384
H	 1.3939257578	 0.6942784674	-1.0995628184	 0.262077
H	 0.0753079404	-0.2282644263	-1.7744593553	 0.272393
H	-2.0406829207	 0.0149960577	 2.194346351	 0.133432
H	-2.966436223	 0.8152113516	 0.9244760659	 0.112035
H	-4.0243393949	-1.4374029745	 2.1183532833	 0.104355
H	-4.2163984645	-1.1665345879	 0.3881959535	 0.119847
H	-2.2081592075	-3.0308956671	 1.7434485385	 0.112472
H	-3.175832394	-3.3330556531	 0.296701355	 0.112801
H	-0.5869082677	-2.5938790077	-0.1941885077	 0.101636
75.3772	153.3844	189.2434	225.7453	331.7264	364.0059	370.9631	434.1481	509.83	605.7052	630.1759	656.519	695.5805	759.7836	814.2443	869.7373	890.1142	900.2024	940.0737	965.2674	1009.662	1037.9434	1092.2054	1120.5475	1148.6039	1181.3026	1210.691	1248.8466	1282.6073	1321.7989	1325.0267	1348.2274	1381.8681	1438.1428	1477.9294	1485.2112	1500.5342	1595.3361	1795.1398	3039.7816	3062.2676	3074.0269	3087.6059	3102.2247	3123.0992	3151.404	3594.5923	3733.6167
NC(=O)C12CCCC1O2	NC(=O)[C@]12CCC[C@H]1O2	
InChI=1S/C6H9NO2/c7-5(8)6-3-1-2-4(6)9-6/h4H,1-3H2,(H2,7,8)	InChI=1S/C6H9NO2/c7-5(8)6-3-1-2-4(6)9-6/h4H,1-3H2,(H2,7,8)/t4-,6+/m1/s1
