16
gdb 131482	3.90823	1.20377	1.03675	5.1171	71.95	-0.2268	-0.0113	0.2154	1134.5708	0.126433	-434.048123	-434.040771	-434.039827	-434.080325	28.388	
O	-0.2132881287	 0.3958302898	 1.9465248278	-0.427734
C	 0.0378379492	-0.0308457846	 0.6545115077	 0.149735
C	-0.5758233211	-1.2688204346	 0.0764030658	-0.33807
C	-1.0021125163	 0.1018349981	-0.4586641198	-0.19903
C	-2.3351771803	 0.6259370756	-0.1336824397	 0.388575
C	-3.2346494922	 1.3304604543	-0.9034108762	-0.193791
N	-4.2751070396	 1.563097776	-0.0656341254	-0.149618
N	-4.0618263889	 1.0500849298	 1.1513236704	-0.105971
N	-2.8894980314	 0.4813938293	 1.1122864803	-0.300818
H	-1.1732789973	 0.3556108144	 2.0974607204	 0.302201
H	 1.062053284	 0.1969497306	 0.3750788325	 0.104927
H	 0.0134757976	-1.9054782902	-0.5750887636	 0.112505
H	-1.3062588589	-1.7867222624	 0.6891476364	 0.13207
H	-0.6402713152	 0.3797591703	-1.4430092382	 0.086061
H	-3.2205127363	 1.6676725794	-1.9254723706	 0.151336
H	-5.1409971245	 2.0445217044	-0.2492761277	 0.287621
71.4051	153.3351	186.3027	314.254	378.1004	459.855	534.1672	544.3819	585.0627	683.3557	705.6508	745.662	767.1049	786.5903	824.6973	929.4769	991.3849	1008.2219	1033.0754	1055.7643	1067.0826	1072.8196	1119.6101	1140.815	1147.7633	1232.9908	1268.8079	1289.454	1327.9379	1373.9133	1398.1487	1462.422	1493.508	1494.4289	1601.7136	3128.4688	3155.02	3163.7002	3223.1007	3288.6738	3630.694	3658.8277
OC1CC1C1=CNN=N1	O[C@H]1C[C@H]1c1c[nH]nn1	
InChI=1S/C5H7N3O/c9-5-1-3(5)4-2-6-8-7-4/h2-3,5,9H,1H2,(H,6,7,8)	InChI=1S/C5H7N3O/c9-5-1-3(5)4-2-6-8-7-4/h2-3,5,9H,1H2,(H,6,7,8)/t3-,5-/m0/s1
