18
gdb 71812	3.46216	1.65847	1.58506	1.228	74.17	-0.2035	0.0626	0.2661	924.7402	0.148829	-401.87351	-401.8667	-401.865756	-401.904269	28.385	
C	-0.2047594557	 1.5513331793	-0.1165053718	-0.497672
C	-0.0925007509	 0.0679194741	-0.0058842109	 0.447291
O	 0.8140483098	-0.5951796988	-0.897064005	-0.331111
C	 0.0697380527	-1.8395998439	-0.7118423027	 0.05473
C	 0.7444727389	-2.6625162621	 0.3859057621	-0.033058
C	 1.8872063558	-2.0293128847	 1.1028787398	-0.236036
N	 0.5191025451	-1.9201305419	 1.6422853358	-0.115111
C	-0.3045300019	-0.7712305803	 1.264793165	-0.087661
C	-1.0803029566	-1.0651657213	 0.0041348186	-0.214025
H	 0.7512120752	 2.0289254711	 0.1253973058	 0.133951
H	-0.4859978302	 1.8446621457	-1.1330922619	 0.131432
H	-0.9600118973	 1.9315474393	 0.5770597636	 0.128052
H	-0.1147635919	-2.3475147004	-1.6586793051	 0.083606
H	 0.5833970261	-3.7387043606	 0.4054032998	 0.08835
H	 2.5464882093	-2.6495192642	 1.7053304655	 0.110257
H	 2.3433954039	-1.1627687597	 0.6423779349	 0.140708
H	-0.7978486978	-0.2735258817	 2.0929178802	 0.097484
H	-2.1507119345	-1.13234798	-0.1377547237	 0.09881
185.9833	196.5264	283.8282	309.8928	383.279	534.4373	558.9215	620.6385	671.5094	721.3577	769.8881	815.722	825.8082	840.0378	877.6073	895.4016	924.8235	932.9235	964.1181	1014.4188	1024.3409	1070.0909	1082.8012	1092.4611	1105.5569	1124.5544	1153.7368	1176.9444	1215.5086	1236.2605	1266.8027	1269.5938	1310.2196	1365.4182	1400.4958	1442.581	1473.356	1486.0421	1497.4088	3033.651	3098.0243	3111.9108	3115.7882	3117.5887	3127.2642	3171.8857	3199.0658	3231.8202
CC12OC3C4CN4C1C23	C[C@@]12O[C@H]3[C@H]4CN4[C@@H]1[C@@H]23	
InChI=1S/C7H9NO/c1-7-4-5(9-7)3-2-8(3)6(4)7/h3-6H,2H2,1H3	InChI=1S/C7H9NO/c1-7-4-5(9-7)3-2-8(3)6(4)7/h3-6H,2H2,1H3/t3-,4+,5+,6-,7+,8?/m1/s1
