14
gdb 24576	2.34421	2.14908	1.32294	2.1424	73.93	-0.2108	-0.0317	0.1791	923.4113	0.102175	-432.860042	-432.852831	-432.851887	-432.891802	26.755	
O	-0.0375693862	 1.2965757478	-0.0688730515	-0.201695
C	 1.0175613538	 2.1862230865	 0.0321204686	 0.120511
N	 2.163182154	 2.1400716312	-0.4724748323	-0.200805
C	 2.8010909025	 1.0933537784	-1.122279427	-0.077531
C	 3.225909217	-0.0592466354	-0.5637922733	-0.035854
N	 3.0615497272	-0.4569779988	 0.7479336816	-0.221382
C	 1.9202653652	-0.6839299137	 1.2805821765	 0.046514
N	 0.7162697173	-0.843923776	 0.6402190322	-0.217483
C	-0.0154368495	-0.0619791995	-0.016720895	 0.13948
H	 0.6614034294	 3.0814061139	 0.5349974285	 0.143102
H	 3.2049745414	 1.3714706406	-2.0916429017	 0.116581
H	 3.9238242073	-0.6641032384	-1.1374902836	 0.112919
H	 1.8968689868	-0.9679262979	 2.333276975	 0.129099
H	-0.8766489463	-0.4445147087	-0.560974378	 0.146547
111.0169	169.987	197.0351	232.0726	354.2639	379.1063	500.0974	541.3606	645.9213	733.1673	739.9267	822.4935	840.5628	913.1711	925.1071	930.2221	953.445	972.6719	978.5847	1020.1245	1106.8066	1178.0281	1281.0422	1398.2643	1425.3509	1434.3382	1457.6542	1629.9749	1658.6112	1741.6629	1786.554	3124.5862	3152.6089	3161.8817	3173.3497	3178.6126
O1C=NC=CN=CN=C1	O1C=NC=CN=C[N][CH]1	
InChI=1S/C5H5N3O/c1-2-7-4-9-5-8-3-6-1/h1-5H/b2-1-,6-3-,7-4-,8-5-	InChI=1S/C5H5N3O/c1-2-7-4-9-5-8-3-6-1/h1-5H/b2-1-,6-3-,7-4-,8-5?
