22
gdb 122719	6.65523	0.45244	0.43769	4.7052	86.11	-0.2449	0.0135	0.2584	2548.4926	0.191933	-441.48167	-441.470538	-441.469594	-441.520381	38.022	
C	-0.0185797007	 1.4414085908	-0.0755179396	-0.386407
C	-0.0857487532	-0.0791736125	 0.0867475215	-0.183552
C	 0.801215274	-0.5743587423	 1.2178599298	-0.056304
O	 0.6794811713	-1.9995188713	 1.2862312582	-0.206319
C	 1.3565650604	-2.6048691297	 2.2755031092	 0.131531
N	 1.3281905956	-3.8567250771	 2.4058123931	-0.237469
C	 2.0553619284	-4.4531944757	 3.5123214594	-0.158104
C	 1.1070566219	-5.3946914679	 4.262249859	-0.035071
O	 0.553707742	-6.3581490749	 3.3931270446	-0.422547
H	 0.9996794745	 1.7758004347	-0.3023719869	 0.120021
H	-0.6657050543	 1.7738933222	-0.8915642237	 0.125068
H	-0.3425072021	 1.9565485958	 0.8354683704	 0.119665
H	-1.114968005	-0.3973539044	 0.2862925772	 0.116758
H	 0.2217511573	-0.5764336809	-0.8397489106	 0.117741
H	 1.8501998486	-0.3003156875	 1.0372381681	 0.108025
H	 0.4954821975	-0.1281722061	 2.1747343034	 0.10722
H	 1.9180686969	-1.9236157857	 2.9337554369	 0.077616
H	 2.8798161683	-5.0504971579	 3.1023077168	 0.113687
H	 2.4830137787	-3.7089445047	 4.2054631204	 0.078102
H	 1.6532451553	-5.9330575182	 5.0447399338	 0.099661
H	 0.3225232372	-4.7940820132	 4.7535484172	 0.078717
H	 0.2948686977	-5.8670003534	 2.6017776816	 0.291961
24.577	35.8476	75.7117	100.7626	138.1977	153.297	223.5267	233.8128	268.4978	325.1964	376.4957	440.1501	491.2457	552.1675	614.8329	763.9367	880.9296	898.0031	898.7221	920.075	990.5842	1029.6144	1058.5983	1089.522	1094.8816	1125.3104	1151.3151	1187.4024	1226.5409	1244.4391	1268.8046	1272.4912	1322.2341	1335.2436	1367.5841	1383.6728	1404.0929	1415.7997	1439.6297	1444.9013	1482.4143	1491.8432	1501.403	1506.5811	1510.1416	1521.948	1775.2951	2954.8513	2964.0349	2987.8947	3002.9072	3034.3997	3034.6383	3042.877	3045.8219	3067.2486	3079.2867	3104.5797	3114.0454	3757.9899
CCCOC=NCCO	CCCOC=NCCO	
InChI=1S/C6H13NO2/c1-2-5-9-6-7-3-4-8/h6,8H,2-5H2,1H3	InChI=1S/C6H13NO2/c1-2-5-9-6-7-3-4-8/h6,8H,2-5H2,1H3
