17
gdb 35724	2.46694	1.44502	1.06937	5.576	72.39	-0.2503	0.0113	0.2616	1135.2117	0.136685	-417.961345	-417.95309	-417.952146	-417.994975	29.977	
N	-0.3970183376	-1.0660319248	-0.578859192	-0.332062
C	-0.2133012669	 0.016515064	-0.2180895332	 0.311504
C	 0.0154495946	 1.4038713993	 0.1923458149	-0.134784
N	 0.3283719203	 1.6072096931	 1.6178537701	-0.290522
C	 1.3888499689	 2.5878958506	 1.2904824955	-0.180598
C	 1.3843818911	 2.0792883991	-0.1764200795	-0.079755
C	 2.5073336084	 1.1484452357	-0.5650892987	 0.09052
C	 3.9135573234	 1.4856519903	-0.3150210662	-0.191892
O	 3.2388001343	 0.5068271023	 0.4766783434	-0.21438
H	-0.8251106131	 2.0039695046	-0.1849774036	 0.110519
H	-0.4408352814	 1.942068322	 2.1861907069	 0.229677
H	 1.0863241235	 3.639956024	 1.369343293	 0.096773
H	 2.3117075647	 2.4275617866	 1.8531982406	 0.131323
H	 1.2802785431	 2.8486948246	-0.9449160195	 0.09912
H	 2.2848262024	 0.4993512503	-1.41332219	 0.116081
H	 4.6867975648	 1.1025347492	-0.9786665003	 0.124414
H	 4.1631353996	 2.4117453088	 0.2023467088	 0.114063
62.658	106.0905	114.9366	209.7317	240.3623	289.2254	397.6531	520.3086	555.7724	564.0674	677.5551	744.4916	820.1148	861.3324	910.8167	940.0432	976.3535	990.2007	1031.4415	1065.9218	1076.8564	1101.7741	1118.8455	1153.8818	1163.1982	1169.611	1215.6284	1251.5073	1295.5355	1326.8028	1352.4674	1373.1054	1399.4299	1431.6135	1508.2301	1530.282	2355.2646	2994.2526	3016.8655	3082.6066	3084.6237	3097.5652	3105.0961	3169.9459	3543.4992
N#CC1NCC1C1CO1	N#C[C@H]1NC[C@H]1[C@H]1CO1	
InChI=1S/C6H8N2O/c7-1-5-4(2-8-5)6-3-9-6/h4-6,8H,2-3H2	InChI=1S/C6H8N2O/c7-1-5-4(2-8-5)6-3-9-6/h4-6,8H,2-3H2/t4-,5-,6-/m1/s1
