16
gdb 8657	2.58597	1.714	1.41519	2.8019	67.49	-0.2549	-0.0403	0.2146	963.614	0.125667	-383.709712	-383.70021	-383.699266	-383.743622	33.583	
C	-0.2634398343	 1.6170985839	 0.0440999487	-0.403535
C	-0.0392962151	 0.103196215	 0.0422543539	-0.199734
C	 0.6702778919	-0.4089623845	-1.2284159439	 0.088704
O	 0.0671862883	 0.0666045644	-2.4313342445	-0.453892
C	 2.1308263926	 0.0974838331	-1.312984907	 0.15724
O	 2.7914948849	 0.4220194409	-0.3666087973	-0.240844
C	 0.7508052714	-1.8735471963	-1.2337746037	 0.296213
C	 0.8133539321	-3.0743953366	-1.2564019573	-0.454566
H	 0.6865077935	 2.1582317201	 0.051603259	 0.135322
H	-0.8285838533	 1.9296529759	-0.8373702005	 0.126357
H	-0.8235491695	 1.9133786012	 0.9354934348	 0.113961
H	 0.5700677683	-0.1967893503	 0.9001023236	 0.129341
H	-0.9956488241	-0.4252843497	 0.1266330415	 0.098882
H	-0.7004848733	-0.4845761729	-2.6168236183	 0.292222
H	 2.5088901804	 0.1185050937	-2.3563327896	 0.105568
H	 0.8693510563	-4.1353873579	-1.2706181394	 0.208762
88.5875	107.8509	138.7203	172.1744	204.4	223.2448	255.8986	293.6052	359.1853	452.8718	479.5758	523.0223	617.783	639.1511	669.0394	729.5066	796.4547	939.1545	967.5693	983.5334	1050.7017	1121.7421	1155.885	1157.5838	1284.5887	1351.6025	1361.4556	1398.6001	1407.9395	1473.3622	1497.4829	1510.9698	1844.4134	2223.8072	2924.8168	3044.081	3050.4639	3093.4391	3119.1244	3131.5198	3497.851	3818.4839
CCC(O)(C=O)C#C	CC[C@@](O)(C=O)C#C	
InChI=1S/C6H8O2/c1-3-6(8,4-2)5-7/h1,5,8H,4H2,2H3	InChI=1S/C6H8O2/c1-3-6(8,4-2)5-7/h1,5,8H,4H2,2H3/t6-/m1/s1
