20
gdb 103887	3.32192	0.88948	0.80445	4.7578	80.52	-0.2632	0.043	0.3062	1482.6843	0.168636	-403.145664	-403.135569	-403.134625	-403.18119	36.266	
C	 0.1472500479	 1.1120058159	-0.4638108086	-0.249915
O	-0.1028324448	-0.0429608133	 0.3168824503	-0.28128
C	-1.3957225424	-0.5717125698	 0.1934019698	 0.411617
C	-2.4851364797	 0.2411140421	 0.8587408843	-0.455338
C	-1.688966211	-1.3681636673	-1.0581400911	-0.341144
C	-1.4492838004	-2.0755153695	 0.2618155566	-0.067909
C	-0.1708492461	-2.8697505001	 0.476955801	-0.365592
C	-0.2113517351	-4.1811587157	-0.1713855277	 0.26647
N	-0.2548209871	-5.2152759213	-0.6854436223	-0.312857
H	 1.2078949879	 1.3458532051	-0.34786459	 0.131229
H	-0.0685766798	 0.9364095113	-1.5266927666	 0.112732
H	-0.4408618798	 1.9754496242	-0.1254333158	 0.114905
H	-2.6158586424	 1.2141818459	 0.3739376531	 0.123513
H	-3.4433814859	-0.2828124615	 0.8065354649	 0.123144
H	-2.2421062737	 0.4136092438	 1.9121643981	 0.128882
H	-2.6917202235	-1.3609450225	-1.4706196478	 0.119483
H	-0.897457775	-1.4339711534	-1.7974524911	 0.124534
H	-2.3229010738	-2.4983121634	 0.7485380559	 0.103584
H	 0.6819132791	-2.3034837944	 0.092488233	 0.162591
H	 0.0119961956	-3.0179709961	 1.5477076941	 0.151351
43.7483	106.1119	110.875	178.3361	186.2479	215.7195	234.1517	299.4729	367.848	390.5855	395.5097	440.434	527.0756	612.9305	689.8716	829.5996	863.9629	891.0528	927.9124	941.1589	960.3888	1034.9437	1058.3931	1104.0004	1109.2917	1125.3709	1150.6303	1181.6677	1219.7937	1228.4064	1274.4058	1301.6131	1324.418	1409.6328	1423.4861	1464.2919	1474.1636	1479.4202	1482.1283	1495.2261	1506.7708	1511.6874	2361.1288	2999.017	3036.9699	3047.9821	3054.1097	3100.5826	3102.3426	3116.961	3121.4373	3132.6643	3155.9352	3220.922
COC1(C)CC1CC#N	CO[C@@]1(C)C[C@H]1CC#N	
InChI=1S/C7H11NO/c1-7(9-2)5-6(7)3-4-8/h6H,3,5H2,1-2H3	InChI=1S/C7H11NO/c1-7(9-2)5-6(7)3-4-8/h6H,3,5H2,1-2H3/t6-,7+/m1/s1
