18
gdb 48884	3.27734	1.50922	1.26369	1.5052	74.9	-0.2369	-0.0318	0.205	1014.9105	0.149154	-401.919687	-401.912448	-401.911504	-401.951467	28.563	
O	-0.0360528632	-0.0522429335	 0.0118452199	-0.251162
C	 0.0433359928	 1.146425659	-0.096415597	 0.062013
C	 1.3208216834	 1.9222633395	-0.063591593	 0.210166
C	 1.3469032218	 3.1746497613	 0.8688744246	-0.202908
N	 1.8827377345	 4.0610990092	-0.2120608909	-0.148585
C	 2.9920674724	 3.3202300171	-0.8889726526	-0.007441
C	 3.7206075656	 2.1969732684	-0.1583172612	-0.261992
C	 2.6218389269	 1.1288021579	 0.0894473881	-0.260036
C	 1.596569885	 2.9594865811	-1.1978379511	-0.101164
H	-0.8714592243	 1.770820724	-0.2260015956	 0.076128
H	 0.3495327065	 3.5309807352	 1.1400836284	 0.117985
H	 1.9607906464	 3.0987690072	 1.7731826496	 0.109097
H	 3.5414553987	 3.9692536823	-1.5624714996	 0.103371
H	 4.5362249555	 1.8100199711	-0.7755558727	 0.112019
H	 4.1725698305	 2.5537955401	 0.7733106991	 0.112992
H	 2.6956088931	 0.6559667962	 1.0727751297	 0.110924
H	 2.6622664434	 0.3333016513	-0.6606465034	 0.117573
H	 1.0556688911	 3.1098574926	-2.1249477722	 0.101019
80.8902	185.8934	216.2678	313.4849	379.8097	400.4589	457.3703	584.0899	695.8982	722.6501	755.111	791.422	824.7044	850.6442	893.1654	919.6571	963.7754	975.0833	979.3487	1035.8623	1048.2573	1059.1082	1109.0856	1136.3951	1173.3747	1200.6711	1217.0027	1228.5566	1259.1974	1275.6726	1296.4357	1311.3981	1357.4545	1388.6129	1429.7492	1484.0082	1491.3872	1511.4944	1817.3228	2859.8523	3037.319	3049.1702	3059.2134	3086.4106	3097.3446	3107.8279	3170.4959	3182.8287
O=CC12CN3C(CC1)C23	O=C[C@@]12CN3[C@@H](CC1)[C@@H]23	
InChI=1S/C7H9NO/c9-4-7-2-1-5-6(7)8(5)3-7/h4-6H,1-3H2	InChI=1S/C7H9NO/c9-4-7-2-1-5-6(7)8(5)3-7/h4-6H,1-3H2/t5-,6-,7-,8?/m0/s1
