19
gdb 111474	2.70278	1.50874	1.09793	2.4666	75.46	-0.2245	-0.0245	0.1999	1137.4878	0.159077	-423.030125	-423.021689	-423.020744	-423.063474	31.8	
C	-0.2416617993	 1.2903156511	 0.0830173551	-0.243427
O	 0.0506476657	-0.0971937203	 0.0931228927	-0.242691
C	 0.6432031057	-0.5796298089	-1.0877138011	 0.021296
C	 1.295978624	-1.9257084765	-0.8799753555	-0.063611
C	 0.3747459906	-3.0976820735	-0.6475889779	-0.285986
C	 0.917161746	-2.8459015957	-2.0302748849	-0.045798
C	 0.011838762	-2.095648052	-2.9900434585	-0.326017
C	-0.378286888	-0.8218070244	-2.2347661074	 0.359072
O	-1.3345225657	-0.1274503375	-2.462503991	-0.306409
H	 0.6662594006	 1.884122925	-0.1101877748	 0.097603
H	-0.9981154624	 1.5426504984	-0.6660238362	 0.140875
H	-0.6165905687	 1.5375269129	 1.079202581	 0.123745
H	 1.3909280643	 0.1440255088	-1.4635925305	 0.081141
H	 2.2894044019	-1.9518041304	-0.4494798758	 0.091448
H	 0.7793902709	-3.9378749229	-0.0952733919	 0.117634
H	-0.6742612483	-2.900639038	-0.447813594	 0.129206
H	 1.6468978699	-3.537035711	-2.4348726364	 0.090633
H	 0.551070382	-1.8022896598	-3.9009457946	 0.12924
H	-0.8834488413	-2.6393134154	-3.3064379284	 0.132047
61.9464	124.5888	166.6015	190.6381	262.4955	321.3764	366.9852	453.1215	472.1815	574.3101	606.125	661.5879	757.2014	810.2732	831.7252	900.9994	943.2858	947.7527	999.0782	1035.0147	1057.3212	1069.7143	1098.9255	1109.6011	1136.1013	1161.4	1181.2704	1189.2455	1206.8994	1230.4621	1284.4925	1292.6875	1338.5325	1375.8984	1394.6169	1455.6248	1475.3274	1482.3722	1494.6899	1519.6727	1846.3821	2927.1918	2979.0478	3027.9757	3080.6	3086.9654	3124.7801	3130.888	3176.3708	3185.695	3218.6239
COC1C2CC2CC1=O	CO[C@H]1[C@H]2C[C@H]2CC1=O	
InChI=1S/C7H10O2/c1-9-7-5-2-4(5)3-6(7)8/h4-5,7H,2-3H2,1H3	InChI=1S/C7H10O2/c1-9-7-5-2-4(5)3-6(7)8/h4-5,7H,2-3H2,1H3/t4-,5-,7-/m0/s1
