20
gdb 80522	2.15891	1.49764	1.26413	3.6418	82.11	-0.2084	-0.0181	0.1903	1133.5246	0.169214	-403.112438	-403.103152	-403.102208	-403.14622	34.366	
C	-0.1223601357	 1.4843104165	-0.2118598028	-0.423277
C	 0.1337407824	-0.0037521045	-0.1088628079	-0.0565
C	 1.4098852429	-0.6986027073	-0.4531767176	-0.166359
C	 2.6363966488	 0.067864983	 0.0633584545	-0.185963
N	 2.1313722334	-0.0410720779	 1.4481480213	-0.105871
C	 2.1319848684	 1.0657865535	 2.3831881709	-0.3463
C	 0.9152946156	-0.6966422071	 1.0176812096	 0.251169
C	 0.2846301655	-1.7660301483	 1.8038584295	 0.08694
O	 0.5500229149	-2.0183507308	 2.9550651281	-0.276321
H	 0.7711419407	 2.0780127513	-0.0142316905	 0.130481
H	-0.4681326529	 1.7349042753	-1.2210621016	 0.123267
H	-0.896004506	 1.7998590388	 0.4951208988	 0.127607
H	-0.7287900916	-0.6058706223	-0.3951374137	 0.096782
H	 1.4534792725	-1.5520620508	-1.1174464083	 0.107157
H	 3.5839797974	-0.4633021871	-0.0770230127	 0.113972
H	 2.7466579255	 1.0896553448	-0.3244378054	 0.099149
H	 1.6321597921	 1.9810305034	 2.0253480001	 0.093796
H	 1.6369279148	 0.737583738	 3.3010837144	 0.14683
H	 3.1664593058	 1.3224206407	 2.6358066634	 0.121079
H	-0.5020832247	-2.3298471293	 1.2492834901	 0.062363
93.6985	139.8439	167.1971	174.8467	214.0928	248.1782	267.9089	284.0805	355.5144	441.6698	490.1511	607.9616	651.3996	714.8717	751.3222	846.9044	906.4736	948.8792	954.0138	988.6896	1028.2447	1057.1043	1078.0867	1100.9078	1124.1404	1128.1659	1165.6302	1200.8688	1225.3012	1251.5262	1287.9219	1322.2802	1363.8079	1411.1724	1423.8242	1447.301	1452.5219	1481.4655	1496.0789	1501.0612	1509.328	1520.5831	1803.2202	2851.8662	2967.3986	3009.028	3038.3583	3058.4311	3063.7096	3096.6477	3108.9817	3115.8357	3138.6488	3199.0606
CC1C2CN(C)C12C=O	C[C@H]1[C@H]2CN(C)[C@@]12C=O	
InChI=1S/C7H11NO/c1-5-6-3-8(2)7(5,6)4-9/h4-6H,3H2,1-2H3	InChI=1S/C7H11NO/c1-5-6-3-8(2)7(5,6)4-9/h4-6H,3H2,1-2H3/t5-,6+,7-/m0/s1
