18
gdb 11084	2.66074	2.11377	2.0459	1.6478	67.28	-0.24	0.0671	0.3071	830.8407	0.152137	-384.911235	-384.903266	-384.902322	-384.943088	30.045	
C	-0.3159109913	 1.4837857171	-0.0152538633	-0.481803
C	 0.0243004438	 0.0194808762	 0.0007634934	 0.344775
C	 1.1609614455	-0.5468804502	-0.8701945323	-0.120114
O	 1.6546586019	-1.3531425545	 0.2288253035	-0.333143
C	 0.6583707702	-0.8332426107	 1.1390879078	 0.344783
C	 1.2314064956	-0.3881728053	 2.4557930494	-0.481793
C	-0.6465672526	-1.6478791065	 1.0692337074	-0.120133
O	-1.1398074823	-0.8381322276	-0.0274307829	-0.333144
H	 0.5851495119	 2.0978082469	 0.0774978062	 0.122476
H	-0.8100202103	 1.7441311695	-0.9582549478	 0.134699
H	-0.9995942359	 1.7333304447	 0.8011050228	 0.127055
H	 0.8279225847	-1.1475869736	-1.7232943358	 0.109062
H	 1.9148976309	 0.1815521988	-1.1963481263	 0.096997
H	 2.0328875616	 0.3405355934	 2.3049202745	 0.127037
H	 0.4598159109	 0.0603964709	 3.0890113577	 0.122459
H	 1.654414916	-1.2463773137	 2.9903217433	 0.134726
H	-0.5149632399	-2.7003321298	 0.7961650721	 0.109061
H	-1.3019925809	-1.5674753055	 1.9463697303	 0.097001
124.5077	176.8704	183.6883	194.624	291.9994	338.3649	346.063	400.1332	479.1161	597.7947	673.4795	718.6362	845.9611	866.9352	899.1099	944.2392	954.8758	973.5337	999.8259	1009.4602	1142.753	1142.8229	1157.0414	1188.235	1189.1448	1215.0447	1259.5577	1283.5281	1352.5955	1379.6695	1406.6677	1411.331	1478.1843	1480.833	1489.9913	1491.1085	1504.3868	1507.9437	3010.0153	3012.1302	3034.1331	3035.7783	3074.4854	3075.4641	3101.1969	3102.8219	3116.2388	3118.3182
CC12COC1(C)CO2	C[C@@]12CO[C@]1(C)CO2	
InChI=1S/C6H10O2/c1-5-3-8-6(5,2)4-7-5/h3-4H2,1-2H3	InChI=1S/C6H10O2/c1-5-3-8-6(5,2)4-7-5/h3-4H2,1-2H3/t5-,6-/m1/s1
