18
gdb 115175	2.63732	1.40857	1.05289	3.9111	67.83	-0.2408	0.009	0.2498	1156.4721	0.148211	-476.244703	-476.235776	-476.234832	-476.278639	32.314	
C	 0.470813449	 0.8701909328	 0.1033193555	-0.252534
O	-0.2062324019	-0.1190604008	-0.6575205464	-0.260336
C	-1.4642617615	-0.4945897172	-0.1300449051	 0.089662
C	-2.3870170458	-0.9043994945	-1.2879784368	-0.098808
O	-2.2083095224	-2.3188306639	-1.4846199367	-0.219363
C	-1.5993009838	-2.8769058654	-0.4083549915	 0.427065
O	-1.2962733082	-4.0340071742	-0.354759113	-0.3494
C	-1.3752495133	-1.8067206791	 0.6721106977	-0.140364
N	-0.1597466574	-1.960929884	 1.4503965456	-0.519626
H	 1.416596252	 1.0660146926	-0.4070419823	 0.13227
H	-0.1100473167	 1.803669427	 0.1433372531	 0.110196
H	 0.670818717	 0.5316833526	 1.1264193677	 0.137222
H	-1.8957131628	 0.3285134763	 0.4510435678	 0.08377
H	-3.4399830982	-0.7100786252	-1.0563966116	 0.117516
H	-2.1128036673	-0.3936902769	-2.2121991588	 0.138062
H	-2.2402883316	-1.8604070534	 1.3475418029	 0.115395
H	-0.1468663199	-2.9025853295	 1.8348708616	 0.246592
H	 0.6283459527	-1.9168011675	 0.8090958105	 0.24268
66.727	116.0868	162.2542	181.1915	244.4541	261.4423	300.5986	314.4329	387.0974	482.9527	546.6186	631.046	730.52	770.9638	813.3552	863.7591	939.8027	979.2793	995.2565	1061.6019	1085.8316	1123.9171	1155.7073	1178.7425	1186.717	1221.0577	1227.1962	1255.6853	1265.7875	1316.3352	1382.9993	1393.2761	1422.7231	1480.9419	1487.0684	1503.8531	1518.0041	1654.4758	1879.2758	2992.8421	3019.8542	3037.4376	3053.1368	3067.5868	3124.967	3128.0396	3486.2533	3557.7945
COC1COC(=O)C1N	CO[C@H]1COC(=O)[C@H]1N	
InChI=1S/C5H9NO3/c1-8-3-2-9-5(7)4(3)6/h3-4H,2,6H2,1H3	InChI=1S/C5H9NO3/c1-8-3-2-9-5(7)4(3)6/h3-4H,2,6H2,1H3/t3-,4-/m0/s1
