19
gdb 74879	2.74649	1.69951	1.218	2.0355	80.97	-0.2307	0.0072	0.2379	1058.8852	0.160777	-385.880513	-385.872992	-385.872047	-385.912183	30.4	
C	-0.0352381791	 1.5078777431	 0.0606310526	-0.480557
C	 0.0089591849	 0.0057307958	-0.0082536962	 0.325301
C	-0.0117590017	-0.6548319553	-1.1771310286	-0.183996
C	 0.0013744599	-2.1277089496	-1.2706402895	 0.008554
O	 1.1983731828	-2.8330962977	-0.8452956774	-0.258371
C	 0.0347055386	-2.9278611369	-0.0289029066	 0.016643
C	 0.0573829971	-2.2305692177	 1.2988346572	-0.056409
C	 1.2907494762	-1.4865221285	 1.7227975533	-0.297855
C	 0.0606017873	-0.7060527519	 1.2912877667	-0.13034
H	 0.8554203261	 1.9048431826	 0.5635206159	 0.131276
H	-0.0963120975	 1.9563531276	-0.9342565811	 0.121979
H	-0.9000226628	 1.8486021832	 0.6443142147	 0.124858
H	-0.0565073854	-0.0973923383	-2.1087943265	 0.081644
H	-0.4427835062	-2.5602898217	-2.1657214583	 0.087714
H	-0.4386518928	-3.9092028975	-0.032637712	 0.088466
H	-0.5333930591	-2.7105008333	 2.0713727113	 0.08536
H	 1.5456669985	-1.4752599231	 2.7764773397	 0.111694
H	 2.126848306	-1.5137387959	 1.0348047217	 0.140685
H	-0.4761075827	-0.2132413145	 2.0978419533	 0.083353
136.658	176.3407	208.1803	280.6624	326.4666	436.0091	467.1644	515.5521	553.6593	648.216	719.1798	736.7888	803.6053	819.5459	831.2225	866.7875	888.3667	932.739	975.2263	1015.3388	1043.7231	1057.5025	1064.7537	1083.3873	1089.7173	1119.0231	1126.034	1157.2766	1178.0888	1217.8451	1282.5098	1332.9118	1379.3903	1392.1837	1411.4324	1419.9071	1446.9944	1477.1042	1483.0427	1490.2589	1704.1197	3018.1559	3066.2479	3108.2527	3113.981	3122.476	3135.135	3141.9415	3161.6364	3169.776	3240.3834
CC1=CC2OC2C2CC12	CC1=C[C@H]2O[C@H]2[C@H]2C[C@@H]12	
InChI=1S/C8H10O/c1-4-2-7-8(9-7)6-3-5(4)6/h2,5-8H,3H2,1H3	InChI=1S/C8H10O/c1-4-2-7-8(9-7)6-3-5(4)6/h2,5-8H,3H2,1H3/t5-,6-,7+,8-/m0/s1
