18
gdb 105993	2.71271	1.57868	1.20161	1.2325	74.73	-0.2061	0.0614	0.2675	1077.246	0.146255	-401.820814	-401.812709	-401.811765	-401.853518	31.351	
C	-0.2941087231	 1.4398330839	 0.0442865447	-0.375987
C	 0.1757892035	-0.0196401538	-0.0318827611	-0.328194
C	 0.8756695956	-0.4850514032	 1.2036345941	 0.302963
C	 2.1858887735	-0.0597474498	 1.9266121765	-0.109353
C	 2.4020624806	-1.441042232	 2.4345961481	-0.145801
N	 1.6342054864	-0.4517361416	 3.2713485708	-0.171125
C	 0.3463439595	-0.8873623938	 2.5775993845	-0.169996
C	 1.0837152263	-1.9022808207	 1.732098337	 0.293518
O	 0.6895707578	-3.0556720141	 1.1154700022	-0.449811
H	 0.5498181767	 2.1191193278	 0.2038313723	 0.119256
H	-0.7931923875	 1.7393691482	-0.8822899651	 0.112894
H	-0.9959103055	 1.5836660188	 0.8717558541	 0.12055
H	-0.6811984226	-0.6806100173	-0.2116965387	 0.111843
H	 0.840592636	-0.1488662932	-0.8966172602	 0.106536
H	 2.8699161841	 0.772652591	 1.7994322008	 0.09248
H	 3.2885868276	-1.9458553251	 2.8023988962	 0.096796
H	-0.6416245464	-0.853418051	 3.0212367464	 0.099036
H	 0.4461356276	-3.701083814	 1.7899655274	 0.294397
80.8273	119.7354	190.5475	249.1721	290.0695	317.6391	397.5005	453.3622	582.2967	650.7208	706.0959	755.7267	768.7526	782.2858	788.7726	867.7972	890.5302	912.53	934.8348	973.3974	980.4011	992.3084	1001.9199	1069.7784	1094.647	1133.102	1182.0646	1190.3672	1216.8881	1284.1927	1297.9434	1319.5756	1343.8967	1390.5323	1410.5265	1475.971	1487.0995	1497.8559	1506.8837	3015.5599	3036.1008	3052.5226	3104.9848	3110.0366	3159.6885	3175.6233	3182.2658	3773.018
CCC12C3C4N3C1C24O	CC[C@@]12[C@@H]3[C@H]4N3[C@@H]1[C@@]24O	
InChI=1S/C7H9NO/c1-2-6-3-4-7(6,9)5(6)8(3)4/h3-5,9H,2H2,1H3	InChI=1S/C7H9NO/c1-2-6-3-4-7(6,9)5(6)8(3)4/h3-5,9H,2H2,1H3/t3-,4+,5-,6+,7+,8?/m0/s1
