16
gdb 45260	3.2566	1.66935	1.36773	3.2543	67.97	-0.2321	-0.0246	0.2075	934.7147	0.125358	-437.860404	-437.853666	-437.852722	-437.891622	26.63	
O	 0.1352678106	 0.2042170614	-1.056563032	-0.286455
C	 0.0644134134	 1.1635401376	-0.3536644377	 0.424334
C	-1.0272690986	 1.8259249233	 0.4974771505	-0.299508
N	-0.1288525354	 3.0012295011	 0.6674672857	-0.099209
C	 0.2230535578	 3.4281929173	 2.028778205	-0.21302
C	 1.4899758636	 2.6727955472	 2.3899569852	 0.048579
O	 1.3502829236	 1.2549386262	 2.2471984176	-0.253056
C	 1.9872539282	 1.9839570333	 1.1863083589	 0.021643
C	 1.0381873179	 2.2978360501	 0.0466086729	-0.161287
H	-1.9696427614	 2.0449997051	-0.0164995694	 0.128569
H	-1.2309208068	 1.26258883	 1.4175089472	 0.136569
H	 0.4155591965	 4.508889235	 2.0597114301	 0.112403
H	-0.599655809	 3.2174004189	 2.7202835544	 0.121666
H	 2.1431969192	 3.0077666071	 3.1925314674	 0.104665
H	 3.0332106926	 1.7518549943	 1.0093244133	 0.111461
H	 1.5406918379	 2.827747442	-0.7705800493	 0.102646
103.3975	176.1675	286.0945	379.2846	412.2611	444.3109	574.944	603.0987	709.3374	712.985	785.28	834.0607	860.7028	887.7441	923.5565	967.1976	974.9877	1020.6412	1036.812	1064.6981	1082.8845	1106.559	1131.2588	1180.5005	1213.2508	1246.2492	1257.8725	1273.9712	1285.6902	1311.2649	1334.6792	1418.3886	1463.3024	1492.61	1920.9648	3017.6179	3022.6604	3048.6446	3074.2236	3076.8212	3142.8896	3165.9644
O=C1CN2CC3OC3C12	O=C1CN2C[C@H]3O[C@H]3[C@@H]12	
InChI=1S/C6H7NO2/c8-3-1-7-2-4-6(9-4)5(3)7/h4-6H,1-2H2	InChI=1S/C6H7NO2/c8-3-1-7-2-4-6(9-4)5(3)7/h4-6H,1-2H2/t4-,5-,6-/m1/s1
