19
gdb 68975	3.51139	1.04348	0.94466	1.3814	81.65	-0.2298	0.0479	0.2778	1301.7677	0.156706	-385.818812	-385.809621	-385.808677	-385.853043	34.559	
C	 0.0422470513	 1.5067051249	-0.0399477482	-0.486308
C	 0.0446385502	 0.0169814214	 0.0661702447	 0.407658
C	 1.1739578173	-0.9176294411	-0.2634179021	-0.370587
C	 0.5119377294	-0.9907850584	 1.1006613507	 0.228689
C	 1.2461212028	-0.8455768738	 2.4118288289	-0.475165
C	 1.8411420925	-2.1003509139	 2.8702200847	 0.313325
C	 2.312882895	-3.1456491567	 3.2295424301	-0.451319
C	-0.8650120182	-1.6177720058	 0.918266921	-0.125455
O	-1.2063701948	-0.6627991145	-0.122701028	-0.324616
H	 1.0291194397	 1.9126662211	 0.2005914045	 0.122384
H	-0.2070508936	 1.8143652213	-1.0618684747	 0.136072
H	-0.6958607099	 1.9491670633	 0.6362431628	 0.127801
H	 1.0269339283	-1.706871843	-0.9962695794	 0.112419
H	 2.16675239	-0.4764955743	-0.2563435384	 0.111819
H	 2.0319684716	-0.0861738375	 2.3084322943	 0.131602
H	 0.5602899141	-0.4682824139	 3.1827586842	 0.132341
H	 2.7360173076	-4.0645173203	 3.5519086195	 0.197048
H	-0.9127836477	-2.6553190084	 0.5681526591	 0.108071
H	-1.5223495056	-1.4905511304	 1.7873447163	 0.104221
45.0223	93.7453	179.8027	199.9655	233.6803	307.3214	343.5644	355.2836	418.2832	435.4129	489.4966	620.989	621.8668	641.6613	758.8139	784.3508	852.7502	902.0262	925.3271	946.7234	956.5248	979.5274	989.5394	1048.6782	1073.2902	1109.9732	1137.0295	1155.4102	1208.5901	1266.935	1296.1859	1332.079	1350.4836	1400.4884	1429.6181	1462.383	1473.9929	1490.6406	1506.3467	1522.6018	2238.2516	3010.0364	3018.1716	3033.0153	3043.6614	3068.5437	3096.5193	3109.006	3115.6562	3200.3811	3506.3749
CC12CC1(CC#C)CO2	C[C@@]12C[C@]1(CC#C)CO2	
InChI=1S/C8H10O/c1-3-4-8-5-7(8,2)9-6-8/h1H,4-6H2,2H3	InChI=1S/C8H10O/c1-3-4-8-5-7(8,2)9-6-8/h1H,4-6H2,2H3/t7-,8-/m1/s1
