16
gdb 10900	3.18593	2.02687	1.43379	2.0698	65.56	-0.2284	-0.0147	0.2136	883.3348	0.1292	-383.730281	-383.722327	-383.721382	-383.762424	29.257	
C	-0.0416361672	 1.5565586344	 0.0392392032	-0.496927
C	 0.0664808231	 0.0599486441	-0.0078153156	 0.206289
C	-0.8261680609	-0.8737605779	 0.8079363045	-0.315678
C	 0.6435128465	-0.9852358095	 1.005471708	-0.106258
C	 1.2414984411	-1.8124711374	-0.1278340178	-0.003435
O	 0.7940571849	-3.1463372348	-0.1985668871	-0.430848
C	 0.6620683645	-0.750821885	-1.1152222427	 0.327475
O	 0.8128051965	-0.5738312415	-2.2936971894	-0.326683
H	 0.8983111204	 2.0320386146	-0.2583190364	 0.131578
H	-0.8219840836	 1.9090583709	-0.6435050188	 0.140185
H	-0.2976895579	 1.9027289729	 1.0453604358	 0.122951
H	-1.3778716608	-0.3618501445	 1.5903232124	 0.123013
H	-1.3681609154	-1.6847665091	 0.3338339635	 0.137051
H	 1.1360717056	-0.7671434068	 1.9438090693	 0.105021
H	 2.3410351703	-1.7471738849	-0.1496479959	 0.090678
H	 1.0158022828	-3.4805296755	-1.074783023	 0.295588
97.9306	159.6643	182.5503	208.9782	274.5276	298.7054	327.0837	472.9032	543.3592	620.2738	634.9828	754.6214	822.1223	838.6772	896.9025	957.4565	981.7246	985.0599	1046.9746	1079.7235	1092.8901	1109.9895	1140.3078	1185.5981	1255.8419	1297.1414	1305.0351	1381.1779	1407.7801	1418.9241	1483.2634	1495.2771	1498.5139	1871.1833	2982.9252	3034.3873	3099.5213	3106.9595	3130.7318	3205.0906	3216.8072	3808.7331
CC12CC1C(O)C2=O	C[C@]12C[C@H]1[C@@H](O)C2=O	
InChI=1S/C6H8O2/c1-6-2-3(6)4(7)5(6)8/h3-4,7H,2H2,1H3	InChI=1S/C6H8O2/c1-6-2-3(6)4(7)5(6)8/h3-4,7H,2H2,1H3/t3-,4+,6-/m0/s1
