21
gdb 39301	2.51981	1.97736	1.74457	1.6979	78.97	-0.2314	0.076	0.3074	924.1932	0.187777	-387.098497	-387.091953	-387.091009	-387.129053	28.36	
C	-0.159256492	 1.4899392567	-0.1512060396	-0.250794
C	 1.2703666322	 2.0455955459	 0.1145262345	-0.207201
C	 2.0396974864	 0.8960292314	 0.8011593013	-0.048821
C	 1.6842454951	 0.7472358777	 2.2980745417	-0.193649
C	 0.2641068155	 0.155524444	 2.4943210981	-0.225612
C	-0.0249836392	-0.7700619529	 1.3120050106	 0.084807
O	 1.2178276154	-1.4594430133	 0.9745190994	-0.306113
C	 1.509098299	-0.3699875919	 0.0659039919	 0.096607
C	 0.0121826142	-0.0301810154	-0.0648800105	-0.017921
H	-0.8851206312	 1.8640090666	 0.5777147051	 0.102264
H	-0.5271276962	 1.7918004383	-1.135889514	 0.096648
H	 1.7502409011	 2.2923400593	-0.839625341	 0.097062
H	 1.2722395542	 2.9613094537	 0.7135597123	 0.095297
H	 3.1210687434	 1.0232162507	 0.6950006842	 0.064019
H	 2.4028042403	 0.0569204725	 2.7465809998	 0.112224
H	 1.7907875901	 1.7051599539	 2.8170708521	 0.087666
H	 0.2190788161	-0.4081878408	 3.4318345124	 0.100686
H	-0.5034370256	 0.935417898	 2.5607206489	 0.098624
H	-0.8434699262	-1.4726127596	 1.4916413546	 0.070573
H	 2.1081346396	-0.6899502456	-0.7904317133	 0.070232
H	-0.5205104119	-0.5991308191	-0.8279854386	 0.073402
142.9959	288.5117	352.4951	374.9744	420.3651	513.8011	607.8345	662.0968	682.2849	755.4563	786.6746	819.7938	827.0149	862.8978	892.8375	927.1027	935.0456	973.6146	989.388	992.258	1001.4397	1015.0911	1070.6044	1092.0976	1110.4543	1148.5117	1158.3305	1177.2339	1221.2368	1239.6159	1249.7879	1278.3358	1294.4856	1297.9771	1319.2309	1324.6582	1338.2345	1353.0366	1369.1959	1373.988	1383.9361	1475.071	1489.9488	1494.5554	1513.9041	3034.2864	3035.1791	3050.34	3051.1715	3061.7925	3066.2216	3074.4079	3075.7363	3078.8033	3091.4596	3101.1532	3105.6753
C1CC2CCC3OC2C13	C1C[C@H]2CC[C@@H]3O[C@H]2[C@H]13	
InChI=1S/C8H12O/c1-3-6-7-4-2-5(1)8(6)9-7/h5-8H,1-4H2	InChI=1S/C8H12O/c1-3-6-7-4-2-5(1)8(6)9-7/h5-8H,1-4H2/t5-,6+,7-,8+/m0/s1
