21
gdb 116005	2.00679	1.43333	0.95284	0.933	82.03	-0.2427	0.0168	0.2595	1327.9942	0.181485	-424.233108	-424.223317	-424.222373	-424.268568	34.923	
C	-0.0143877212	 1.5650329146	 0.1956934968	-0.378346
C	-0.0438597901	 0.0482543623	-0.0649591878	-0.293426
C	-1.4234380489	-0.5325319563	-0.0573695986	 0.315166
C	-2.1090456297	-1.1069106654	-1.0417068656	-0.222177
C	-3.4417183227	-1.583012109	-0.5449492742	-0.121873
O	-3.5082420606	-1.1322937898	 0.8071452383	-0.270386
C	-2.2502985176	-0.6216326406	 1.207650724	 0.127158
O	-1.5774538889	-1.4710852698	 2.104870545	-0.241033
C	-2.2061741778	-1.5715895405	 3.3691047057	-0.237469
H	 1.0139544157	 1.938357785	 0.1789481883	 0.115404
H	-0.5853982286	 2.1058757978	-0.5654140416	 0.119864
H	-0.4409575389	 1.8123091174	 1.1727773484	 0.122935
H	 0.4345644005	-0.1676431463	-1.0262907913	 0.101626
H	 0.5472980668	-0.4585807894	 0.7076642818	 0.124559
H	-1.7720846139	-1.2517924154	-2.0610510136	 0.101453
H	-4.288080898	-1.1527889172	-1.0982477124	 0.110311
H	-3.5387895604	-2.6787326495	-0.5973984013	 0.109911
H	-2.4384268277	 0.3424089146	 1.7104760423	 0.065234
H	-1.5729187138	-2.2058079555	 3.9935577795	 0.123673
H	-2.3052332505	-0.584682875	 3.8475360356	 0.101742
H	-3.2027424037	-2.0215018422	 3.2867795307	 0.125675
46.5272	97.8554	112.773	152.8879	174.4448	200.4993	236.6675	291.1298	326.0758	442.1748	516.6397	568.4116	654.0846	779.9563	795.619	829.7017	927.229	945.8907	970.1581	973.9286	1003.3582	1040.4792	1065.3582	1088.4765	1095.6547	1127.9743	1179.6276	1197.1586	1208.7519	1214.9195	1265.8549	1308.7975	1354.3486	1369.909	1392.7322	1399.7359	1408.7119	1474.8853	1479.1166	1483.6231	1499.3269	1505.3123	1513.0129	1515.5071	1732.3469	2953.9239	2983.616	2985.727	3019.2093	3031.945	3038.2906	3059.7294	3071.4625	3109.4893	3111.6875	3121.2254	3208.5678
CCC1=CCOC1OC	CCC1=CCO[C@H]1OC	
InChI=1S/C7H12O2/c1-3-6-4-5-9-7(6)8-2/h4,7H,3,5H2,1-2H3	InChI=1S/C7H12O2/c1-3-6-4-5-9-7(6)8-2/h4,7H,3,5H2,1-2H3/t7-/m1/s1
