14
gdb 42496	6.32696	0.65387	0.6244	2.0066	68.86	-0.2736	-0.1064	0.1672	1653.0781	0.09943	-432.87661	-432.867279	-432.866335	-432.912436	31.062	
O	 0.3615636866	 0.1533800619	 0.5952069131	-0.259741
C	 0.1885131331	 1.2351055065	 0.0946108912	 0.280553
C	 1.2400837659	 1.9725917863	-0.7354393953	-0.277291
N	 2.5253778001	 1.3244726073	-0.8150472367	-0.279247
C	 3.2959450725	 1.3534937739	 0.4297613688	-0.277455
C	 4.6238707663	 0.7694198359	 0.2232380455	 0.264552
N	 5.6636264018	 0.2909470589	 0.0711703915	-0.289363
C	-1.1022715691	 1.9418635316	 0.2267084336	 0.22887
N	-2.0923759816	 2.5339590233	 0.3072858483	-0.280908
H	 0.8195566198	 2.0989907097	-1.7434909266	 0.164239
H	 1.3475199157	 2.9898460849	-0.3357235424	 0.155832
H	 2.4181918324	 0.3649190189	-1.1272024515	 0.249642
H	 3.4258051587	 2.3996848842	 0.7331196092	 0.160048
H	 2.8185754979	 0.8269927068	 1.2700421511	 0.160269
43.1421	44.3817	101.0919	144.2663	180.9599	244.9797	274.6886	348.5685	388.3848	478.3853	558.1204	580.6323	595.2816	721.5122	827.1608	914.3485	980.0408	991.1938	1058.323	1099.2359	1180.7109	1233.2536	1297.9997	1356.2419	1389.3086	1435.5526	1489.6244	1515.2171	1799.6391	2335.0336	2371.9473	2998.2441	3016.8015	3056.1368	3056.8196	3537.5167
O=C(CNCC#N)C#N	O=C(CNCC#N)C#N	
InChI=1S/C5H5N3O/c6-1-2-8-4-5(9)3-7/h8H,2,4H2	InChI=1S/C5H5N3O/c6-1-2-8-4-5(9)3-7/h8H,2,4H2
