16
gdb 20912	3.31585	1.96118	1.34765	3.6554	66.2	-0.2228	0.027	0.2499	917.1566	0.133066	-376.135248	-376.127504	-376.126559	-376.167832	27.962	
C	 0.0496312493	 1.5649109353	-0.0544438339	-0.377402
C	 0.0162260259	 0.0386961083	 0.0469760002	-0.153849
N	 0.6759113849	-0.4637947318	 1.2369669101	 0.003677
N	 2.0399603509	-0.5931183311	 1.2844758698	-0.267582
C	 2.2280681252	-1.0828060011	 2.493389381	 0.031876
N	 1.1037281678	-1.2636189307	 3.2421440273	-0.336936
C	 0.1502408602	-0.8580587607	 2.4188125701	 0.400839
N	-1.2117244483	-0.9015271569	 2.6738684715	-0.601472
H	 1.0835117683	 1.9189492794	-0.0507427025	 0.151024
H	-0.4290056449	 1.8934380257	-0.9818617716	 0.123442
H	-0.47445957	 2.0330101665	 0.7852022136	 0.115797
H	-1.0114169495	-0.3381870758	 0.0614101691	 0.126257
H	 0.5207835374	-0.4109261697	-0.8121565455	 0.140473
H	 3.2168496681	-1.3186522424	 2.8587509352	 0.119983
H	-1.3783177033	-1.1602888373	 3.6375350531	 0.267809
H	-1.7126652019	-0.0546683677	 2.4394101526	 0.256063
48.0836	118.0167	212.4969	256.3929	285.9225	307.9973	399.2076	469.719	649.4742	674.0675	695.2418	754.3781	783.5108	799.131	904.3885	973.7925	989.3422	1048.0205	1100.1222	1106.3057	1217.3909	1231.8486	1285.5931	1318.4001	1343.6072	1393.0064	1409.8707	1460.804	1483.2941	1489.2507	1506.0376	1564.3617	1582.0402	1652.4725	3041.1496	3059.5054	3099.7288	3116.9486	3132.968	3253.8024	3548.3425	3643.0745
CCN1N=CN=C1N	CCn1ncnc1N	
InChI=1S/C4H8N4/c1-2-8-4(5)6-3-7-8/h3H,2H2,1H3,(H2,5,6,7)	InChI=1S/C4H8N4/c1-2-8-4(5)6-3-7-8/h3H,2H2,1H3,(H2,5,6,7)
