14
gdb 25855	4.2116	1.1053	0.88034	6.724	68.37	-0.239	-0.0593	0.1798	1229.8517	0.100223	-473.898454	-473.890237	-473.889292	-473.932183	29.07	
C	-0.0121104901	 1.5102194586	 0.0750050677	-0.499744
C	-0.0186473749	-0.0109460248	 0.0467128741	 0.295434
O	-0.0386323284	-0.6815409568	 1.0565171671	-0.302692
C	-0.0016486284	-0.6319853563	-1.2822054866	 0.267773
C	 0.019348397	-0.1073411969	-2.5274961278	-0.169664
N	 0.0270591734	-1.1660612245	-3.406724107	-0.358904
C	 0.0109536624	-2.3684634952	-2.7066990775	 0.486864
O	 0.0109469399	-3.4875661319	-3.1287519679	-0.382346
O	-0.0072631574	-2.0112024916	-1.3785782405	-0.224635
H	 0.8823853512	 1.9080991341	-0.4158251451	 0.139613
H	-0.8864892037	 1.9164140211	-0.4444431972	 0.139634
H	-0.0274184079	 1.8359745318	 1.1151649846	 0.153846
H	 0.0293567207	 0.9197386698	-2.8503771684	 0.16834
H	 0.0413528261	-1.1300227574	-4.4113904956	 0.28648
54.3957	98.309	136.5888	161.9212	265.2791	340.7123	462.2501	471.0813	557.3947	559.0701	614.3974	660.9683	762.0407	765.1358	803.3765	921.8656	946.1482	980.093	1040.0893	1076.9141	1118.965	1143.3878	1332.6823	1350.348	1384.3628	1419.2977	1470.8407	1476.9387	1654.0076	1777.9497	1909.3642	3040.7801	3104.3267	3158.2516	3287.2081	3685.9308
CC(=O)C1=CNC(=O)O1	CC(=O)c1c[nH]c(=O)o1	
InChI=1S/C5H5NO3/c1-3(7)4-2-6-5(8)9-4/h2H,1H3,(H,6,8)	InChI=1S/C5H5NO3/c1-3(7)4-2-6-5(8)9-4/h2H,1H3,(H,6,8)
