22
gdb 109707	1.97913	1.43759	1.03951	2.053	83.03	-0.2266	0.0698	0.2964	1282.3128	0.192531	-404.297399	-404.287573	-404.286629	-404.332295	35.979	
C	 1.4234798834	 2.3544500625	-0.8448445497	-0.375045
C	 1.844258049	 1.0329047503	-0.2042980653	-0.124636
N	 1.6470462155	-0.0667874801	-1.1465582777	-0.139407
C	 1.7185344298	-1.4655675332	-0.6968137173	-0.072238
C	 1.9928219318	-1.8638495655	 0.7378593267	-0.418997
C	 0.42984437	-0.8439221879	-1.0954738693	 0.269849
C	-0.8347335709	-0.635731169	-0.255444189	-0.149512
O	-1.658354696	-0.9479324671	-1.3977373552	-0.277759
C	-0.5114179274	-1.1050993377	-2.2661503892	-0.142515
H	 1.976123528	 2.5213980876	-1.7734078274	 0.127714
H	 0.3554586781	 2.3528286062	-1.086052529	 0.122164
H	 1.6150908768	 3.1913700257	-0.1660011044	 0.111225
H	 2.9109108058	 1.0651835858	 0.0465222532	 0.104389
H	 1.2998766775	 0.8951281676	 0.7434839669	 0.085944
H	 2.2097915032	-2.1080986254	-1.4284990585	 0.089101
H	 1.4064826244	-1.285654975	 1.4561083322	 0.12207
H	 1.7455212122	-2.9207934305	 0.8828414073	 0.126077
H	 3.0521151565	-1.7369079068	 0.9863176051	 0.126304
H	-0.9949429436	-1.3386401613	 0.5725098436	 0.1028
H	-1.0059035628	 0.3861470579	 0.1100928813	 0.103518
H	-0.4792255977	-0.3448569431	-3.05687881	 0.106996
H	-0.4716616238	-2.1044608411	-2.7176092741	 0.101959
66.7456	107.7311	137.7559	165.065	187.481	207.5993	227.1933	269.1729	358.366	448.6037	454.5861	531.3641	593.2174	729.1995	791.5591	815.0588	865.701	941.1655	953.6209	975.4757	989.1342	1027.4539	1052.4956	1093.3323	1114.1115	1118.4031	1134.2302	1145.2693	1156.1637	1160.5605	1197.0236	1219.5776	1300.2465	1312.1399	1339.3321	1378.4301	1386.4691	1407.192	1413.9791	1471.8425	1488.2309	1490.0674	1494.917	1504.865	1508.2646	1511.8161	1529.9905	2970.1778	2998.0817	3013.0693	3036.6914	3038.2525	3038.9815	3051.5003	3056.2233	3090.6748	3095.3249	3107.4096	3120.2875	3122.5547
CCN1C(C)C11COC1	CCN1[C@@H](C)C21COC2	
InChI=1S/C7H13NO/c1-3-8-6(2)7(8)4-9-5-7/h6H,3-5H2,1-2H3	InChI=1S/C7H13NO/c1-3-8-6(2)7(8)4-9-5-7/h6H,3-5H2,1-2H3/t6-,8?/m0/s1
