14
gdb 54089	2.57845	1.17396	0.87262	2.544	60.91	-0.2685	-0.0551	0.2134	1249.852	0.097819	-511.014478	-511.005225	-511.00428	-511.049452	31.575	
N	 0.6918984662	 0.0316190101	-0.7745730143	-0.514555
C	-0.2246285498	 0.3510928182	 0.1624254864	 0.369334
O	-0.2056939293	 1.3384651856	 0.8704641759	-0.362825
C	-1.3696209614	-0.6608502838	 0.3321451701	-0.081745
O	-1.2248290679	-1.7498449994	-0.5611467129	-0.201127
C	-2.2734736551	-2.6066503617	-0.7054414039	 0.185839
O	-2.1964672018	-3.5749945661	-1.3926324534	-0.263551
C	-1.4233204629	-1.1256550934	 1.7932868923	 0.147111
O	-1.6366576784	-2.267497517	 2.0962459897	-0.228285
H	 1.4743727546	 0.6489464965	-0.915798115	 0.274748
H	 0.6126192722	-0.8205589669	-1.3034938973	 0.289305
H	-2.2962053615	-0.0996348814	 0.1385669193	 0.148708
H	-3.1725992072	-2.2826111674	-0.1553631298	 0.099383
H	-1.2638386777	-0.3130047734	 2.5260143228	 0.13766
58.0336	83.2366	123.4435	155.2899	193.1378	227.3967	322.195	344.1588	363.9164	415.2751	518.7241	609.7397	629.3711	685.7932	740.4516	863.2902	954.8462	1027.1435	1039.6505	1092.5852	1132.5056	1157.9236	1236.1413	1317.0405	1378.8804	1380.4491	1431.3404	1604.4189	1805.1213	1836.3533	1879.363	2976.7581	3001.5825	3012.5894	3601.096	3738.3888
NC(=O)C(OC=O)C=O	NC(=O)[C@@H](OC=O)C=O	
InChI=1S/C4H5NO4/c5-4(8)3(1-6)9-2-7/h1-3H,(H2,5,8)	InChI=1S/C4H5NO4/c5-4(8)3(1-6)9-2-7/h1-3H,(H2,5,8)/t3-/m0/s1
