17
gdb 15671	3.15771	1.98865	1.35672	2.1843	64.99	-0.2553	0.0215	0.2768	928.0273	0.142304	-401.01246	-401.004481	-401.003537	-401.045035	28.622	
C	-0.0437427093	 1.4490223652	 0.0870355876	-0.245088
O	 0.0963005457	 0.0415038152	-0.0241857042	-0.222597
C	 0.6432706305	-0.5646761184	 1.0919585319	 0.192181
O	-0.2816919952	-0.4947982646	 2.210736451	-0.234703
C	-0.767894095	-1.7575523017	 2.3489736222	 0.105573
N	-0.2618174167	-2.7025445061	 1.6784182778	-0.266712
C	 0.8181128909	-2.0926234613	 0.8733303545	-0.008067
C	 0.7759060003	-2.5533500974	-0.5802489837	-0.383284
H	 0.9243247645	 1.9272049428	 0.2970723972	 0.111056
H	-0.4187906755	 1.8070290975	-0.873510509	 0.133718
H	-0.7513009478	 1.7184258677	 0.8790792862	 0.132054
H	 1.5519768846	-0.0406333813	 1.4157154019	 0.078616
H	-1.5782507927	-1.8507053908	 3.0636989264	 0.138331
H	 1.7715410076	-2.4017284518	 1.3202142219	 0.093769
H	-0.1662243404	-2.2668669994	-1.0504222482	 0.13537
H	 1.5948552018	-2.1118880522	-1.1550442401	 0.114605
H	 0.8696120868	-3.6414302434	-0.6142673034	 0.125178
82.7253	117.9115	182.8386	205.8094	228.7487	315.5824	339.1696	475.9064	514.4343	603.1821	740.5477	840.1937	872.5406	928.3682	935.9928	960.1159	987.8591	1069.4086	1101.3812	1112.9636	1143.6175	1179.5156	1183.0779	1231.7987	1309.9585	1315.3522	1355.2703	1361.7526	1396.5097	1413.544	1479.9415	1485.6154	1487.7036	1495.1709	1510.6259	1709.6447	2997.1949	3015.9103	3032.6926	3054.7716	3073.0578	3125.5879	3132.6797	3144.7401	3212.919
COC1OC=NC1C	CO[C@H]1O[CH][N][C@H]1C	
InChI=1S/C5H9NO2/c1-4-5(7-2)8-3-6-4/h3-5H,1-2H3	InChI=1S/C5H9NO2/c1-4-5(7-2)8-3-6-4/h3-5H,1-2H3/t4-,5-/m0/s1
