19
gdb 110774	2.68535	1.31044	1.13691	4.0775	74.71	-0.2683	0.0109	0.2793	1167.8937	0.159846	-423.062713	-423.054409	-423.053465	-423.09636	31.302	
C	-0.1175757468	 1.590246867	 0.1465814689	-0.374787
C	-0.0748663088	 0.1480081606	-0.3721673878	-0.216608
C	-1.3889429559	-0.5756224955	-0.1576181642	-0.038732
C	-1.5484738903	-2.0903272602	-0.1063063354	-0.120945
C	-0.3351442112	-2.9409496917	 0.1976336046	-0.379586
C	 0.1382590588	-2.4724585316	 1.5784323997	 0.420977
O	 1.099343463	-2.8264735298	 2.1925888469	-0.328564
O	-0.7175322489	-1.513458894	 2.0530889213	-0.213017
C	-1.7601573585	-1.2540334839	 1.1326091461	 0.073423
H	 0.8294467393	 2.1039164666	-0.0432268862	 0.11674
H	-0.9132348672	 2.16375213	-0.3414100368	 0.113215
H	-0.3028018566	 1.6095048929	 1.2249082388	 0.13212
H	 0.1579222044	 0.143707557	-1.4444657098	 0.103735
H	 0.7471563918	-0.3832919716	 0.117383172	 0.118342
H	-2.2365324613	-0.081727983	-0.6296280949	 0.093858
H	-2.385206509	-2.5412094884	-0.6251782937	 0.101101
H	-0.58492056	-4.0047890575	 0.2563195021	 0.142975
H	 0.4937969329	-2.8436952003	-0.5091765861	 0.144333
H	-2.7117926957	-1.1034627466	 1.6264269344	 0.11142
46.2008	102.4657	153.2649	210.2433	270.879	303.4632	474.5379	487.0153	555.1156	572.6295	681.0807	725.943	756.7651	791.6859	804.2072	836.6337	907.3215	948.5493	989.1456	1009.2759	1051.1557	1057.3314	1087.753	1097.4697	1128.7985	1148.5077	1165.0047	1194.5616	1225.2847	1286.2468	1301.4315	1335.8181	1348.3635	1382.3335	1409.7794	1442.4579	1464.5682	1487.2076	1498.2441	1506.6277	1886.7171	3030.7757	3035.4362	3064.1888	3075.8153	3102.3458	3105.3703	3114.003	3126.6528	3182.9109	3194.8795
CCC1C2CC(=O)OC12	CC[C@H]1[C@H]2CC(=O)O[C@@H]12	
InChI=1S/C7H10O2/c1-2-4-5-3-6(8)9-7(4)5/h4-5,7H,2-3H2,1H3	InChI=1S/C7H10O2/c1-2-4-5-3-6(8)9-7(4)5/h4-5,7H,2-3H2,1H3/t4-,5+,7-/m0/s1
