15
gdb 70166	2.66822	1.71407	1.17599	4.5511	65.94	-0.2404	-0.0921	0.1482	1017.4454	0.110834	-457.783443	-457.775417	-457.774473	-457.816181	29.535	
C	-0.3119407546	 1.5161314622	 0.1059992284	-0.494508
C	 0.1359699751	 0.0925638104	-0.0081829842	 0.282228
O	-0.6392339794	-0.9300837335	 0.6717527621	-0.280333
C	 0.7193078746	-0.7473160219	 1.0657617798	-0.030032
C	 1.6105733024	-1.8461020179	 0.524578711	-0.3646
C	 1.3601527662	-1.8113958571	-0.985236421	 0.31523
O	 1.7261794566	-2.6044774302	-1.805520709	-0.26894
C	 0.593547635	-0.4903074632	-1.3187489112	 0.284289
O	 0.4532890114	-0.0285135265	-2.4180310679	-0.284325
H	 0.5035055466	 2.195990721	-0.1587483228	 0.139711
H	-1.1405770456	 1.7064570102	-0.5820477814	 0.153454
H	-0.6403770887	 1.7342271464	 1.1248940584	 0.136051
H	 0.8692537049	-0.3382791799	 2.0617122323	 0.114396
H	 2.6724128069	-1.6493023465	 0.7174069716	 0.143269
H	 1.3704421787	-2.8274092035	 0.9430124038	 0.154109
74.3184	143.134	186.4931	252.8036	259.3731	320.0477	410.8158	429.6009	534.8284	538.9101	643.7976	660.5756	733.453	773.4945	852.5333	916.3911	977.1254	985.1298	1033.9487	1051.4035	1096.6816	1132.5793	1181.1118	1278.2298	1294.7025	1309.551	1409.0185	1438.2573	1450.1117	1477.9648	1489.8614	1847.3862	1866.1142	3046.3813	3048.4268	3103.834	3117.8898	3133.1256	3151.2149
CC12OC1CC(=O)C2=O	C[C@]12O[C@H]1CC(=O)C2=O	
InChI=1S/C6H6O3/c1-6-4(9-6)2-3(7)5(6)8/h4H,2H2,1H3	InChI=1S/C6H6O3/c1-6-4(9-6)2-3(7)5(6)8/h4H,2H2,1H3/t4-,6-/m0/s1
