17
gdb 47514	2.90902	1.50078	1.1276	5.6379	69.3	-0.2706	0.0448	0.3155	1079.7515	0.136633	-458.995704	-458.98804	-458.987096	-459.028297	29.25	
O	 0.0417563129	 0.1252206156	 0.588588413	-0.359269
C	-0.0074360994	 1.174885074	 0.0224351552	 0.46128
O	-1.1928511782	 1.7195894389	-0.3246934768	-0.256825
C	-1.2969690444	 2.9370699489	-1.0799540312	-0.064617
C	-0.1340928994	 3.8663795913	-0.7803370708	-0.310917
C	 1.1222329328	 3.0726243483	-0.9991279513	 0.466396
C	 1.8069394258	 3.00320401	-2.3374007865	-0.321995
C	 2.4749799602	 3.6804584456	-1.1527803473	-0.335963
O	 1.1277952242	 1.863282481	-0.2486022702	-0.296493
H	-1.3235689042	 2.6830571498	-2.1465087037	 0.122577
H	-2.2613919286	 3.3679102585	-0.802026122	 0.128206
H	-0.1647323648	 4.7379689854	-1.439606931	 0.119533
H	-0.1866955093	 4.2191671126	 0.2562213958	 0.127063
H	 2.1960573492	 2.038102112	-2.6393346872	 0.138121
H	 1.4284280467	 3.6198218351	-3.145984197	 0.11903
H	 2.5535849291	 4.7620898647	-1.144489669	 0.122537
H	 3.2979179373	 3.1565737684	-0.6808058101	 0.141335
70.4798	112.7886	207.55	268.9748	342.1296	399.8493	469.9332	496.3896	535.0998	655.7627	734.002	761.9869	770.2497	822.0866	894.8356	911.7027	955.0189	974.1906	999.5088	1021.6458	1055.7467	1083.0838	1111.8812	1126.9267	1178.9996	1189.013	1216.0564	1269.8215	1304.3549	1344.5777	1400.8744	1428.491	1453.4003	1475.1184	1501.394	1516.5542	1880.8674	3035.0686	3045.7582	3104.0849	3109.186	3136.4297	3140.7792	3224.6589	3237.6141
O=C1OCCC2(CC2)O1	O=C1OCCC2(CC2)O1	
InChI=1S/C6H8O3/c7-5-8-4-3-6(9-5)1-2-6/h1-4H2	InChI=1S/C6H8O3/c7-5-8-4-3-6(9-5)1-2-6/h1-4H2
