18
gdb 74072	2.67785	1.53709	1.12909	5.711	81.13	-0.2142	-0.0165	0.1977	1105.8951	0.14824	-401.986881	-401.978442	-401.977498	-402.019368	32.934	
C	-0.0313060136	 1.5235411865	 0.0216523524	-0.480852
C	 0.0774545448	 0.0208810523	 0.024798506	 0.223125
C	-0.7726422976	-0.8331410881	 0.9403226176	-0.315832
C	 0.7400622285	-0.8031287906	 1.0965833018	-0.192239
C	 1.4619957663	-1.899478255	 0.3787168904	 0.398566
N	 2.2155418503	-2.7852242147	 1.0817648813	-0.589742
C	 1.2579938785	-1.8374312224	-0.9659931345	-0.348406
C	 0.4489204344	-0.6679640311	-1.2957070191	 0.357698
O	 0.110783267	-0.2588294427	-2.3889374968	-0.37452
H	 0.9334833695	 1.9898902944	-0.2040832983	 0.123515
H	-0.7366014598	 1.8365103194	-0.7538665028	 0.144439
H	-0.3794619996	 1.9065233317	 0.9858021963	 0.105698
H	-1.3574358867	-0.3101229018	 1.6920492725	 0.114473
H	-1.2264954582	-1.7403968887	 0.5556544276	 0.122665
H	 1.1816380282	-0.3626844466	 1.9841708078	 0.095387
H	 2.0689526855	-2.8647965868	 2.0742144695	 0.261761
H	 2.554220607	-3.6148561605	 0.6222152751	 0.264026
H	 1.6093066756	-2.5451766652	-1.704614257	 0.09024
143.025	161.4144	169.1971	246.0658	297.5734	309.7586	353.0705	390.7181	481.3441	492.3673	561.9784	610.574	674.1657	708.3229	752.6135	813.4319	834.7248	861.1749	878.2983	969.8253	980.2548	1039.5936	1063.2808	1075.5022	1089.7846	1116.6887	1147.4002	1233.9313	1270.0695	1296.5695	1381.3357	1410.572	1430.8329	1482.159	1483.0896	1500.3475	1625.06	1672.6319	1788.9605	3034.9251	3100.1476	3113.5037	3117.7142	3168.4844	3209.8918	3221.2954	3595.8069	3710.3707
CC12CC1C(N)=CC2=O	C[C@]12C[C@H]1C(=CC2=O)N	
InChI=1S/C7H9NO/c1-7-3-4(7)5(8)2-6(7)9/h2,4H,3,8H2,1H3	InChI=1S/C7H9NO/c1-7-3-4(7)5(8)2-6(7)9/h2,4H,3,8H2,1H3/t4-,7-/m0/s1
