17
gdb 56518	2.66293	1.24112	1.05806	3.9589	74.81	-0.2594	0.0105	0.2699	1173.6715	0.132677	-417.968867	-417.958528	-417.957584	-418.003631	37.627	
C	 0.0257550662	 1.552612007	 0.1315644933	-0.432681
C	-0.017665827	 0.0178048485	 0.0524163292	 0.000224
N	 0.7180270186	-0.5369415617	 1.1978933109	-0.51352
C	-1.4108229191	-0.4500680818	-0.011339063	 0.326056
C	-2.5395653374	-0.8642491478	-0.0137833059	-0.455234
C	 0.7249773689	-0.4949638738	-1.2307801437	 0.005674
O	 0.0987125137	-0.1183353978	-2.4353777102	-0.411523
C	 2.1421752074	-0.0810355813	-1.217864313	 0.276114
N	 3.2363418837	 0.2846081956	-1.2827621336	-0.331348
H	 1.061642213	 1.8954793924	 0.1951199995	 0.155074
H	-0.4598358047	 2.0005877981	-0.7389689719	 0.126896
H	-0.5157410996	 1.895804284	 1.0172020127	 0.133162
H	 0.3965034981	-0.0966795126	 2.0547482906	 0.240331
H	 0.5129682719	-1.5278857564	 1.2934427689	 0.239127
H	-3.538931183	-1.2243185733	-0.0250267434	 0.201568
H	 0.6907832039	-1.589590913	-1.2095885585	 0.140435
H	 0.2830173852	 0.8126179739	-2.6023720017	 0.299642
66.7184	120.3129	171.0331	184.6913	211.8794	228.8748	256.3611	264.548	315.8306	349.001	384.5114	426.6702	492.1429	553.6354	584.7981	633.3056	642.4456	654.7655	755.3877	850.8413	904.3653	966.25	992.6493	1031.7483	1100.7839	1170.4703	1195.0138	1273.1546	1296.7655	1352.7665	1403.4682	1420.1025	1489.4106	1498.1264	1662.0265	2227.6994	2356.483	3049.3624	3063.5216	3122.8817	3135.8816	3493.0698	3499.1488	3571.959	3813.3885
CC(N)(C#C)C(O)C#N	C[C@@](N)(C#C)[C@@H](O)C#N	
InChI=1S/C6H8N2O/c1-3-6(2,8)5(9)4-7/h1,5,9H,8H2,2H3	InChI=1S/C6H8N2O/c1-3-6(2,8)5(9)4-7/h1,5,9H,8H2,2H3/t5-,6+/m0/s1
