18
gdb 93722	2.61221	1.311	1.20341	3.7756	72.21	-0.2849	0.0238	0.3087	1144.4616	0.146065	-439.108864	-439.099686	-439.098742	-439.143131	33.258	
C	 0.1382018294	 1.5908950853	 0.0219439543	-0.417238
C	 0.0877491551	 0.0770083683	-0.0277490476	 0.099123
C	 0.8435541254	-0.5794476608	-1.2047466955	-0.109721
O	 1.5444770443	-1.6809849375	-0.6197425578	-0.274009
C	 1.1817834537	-1.7483723807	 0.7441521408	 0.299898
C	 2.3632324293	-2.1946884976	 1.5858798899	-0.430507
O	 0.7701744086	-0.4624956501	 1.1136994951	-0.264846
C	 0.0301831177	-2.7052809968	 0.8897418583	 0.265164
N	-0.8595513433	-3.4341412752	 0.9999884425	-0.343672
H	 1.175046985	 1.939612714	 0.0317517525	 0.131304
H	-0.3662814602	 2.0137097788	-0.8523056344	 0.128374
H	-0.3642533925	 1.9628500474	 0.918417732	 0.139678
H	-0.9541464219	-0.2720449869	-0.013451422	 0.102147
H	 0.1649031249	-0.9338537568	-1.9871940702	 0.122566
H	 1.5805415708	 0.098825589	-1.6486797023	 0.115157
H	 3.1680670082	-1.4680954423	 1.4602502921	 0.139184
H	 2.075979126	-2.2487045612	 2.6379168791	 0.147699
H	 2.7025077495	-3.178359617	 1.2556963731	 0.149699
52.6064	95.4541	189.6435	190.6519	213.523	223.2612	285.951	353.8486	414.1108	440.5946	533.0024	601.155	635.6905	664.3377	800.9113	862.4407	883.2975	908.4621	949.9131	968.9842	1057.7806	1101.8479	1125.9921	1163.5608	1167.2039	1191.5158	1229.3713	1245.9358	1359.8973	1366.6985	1402.6599	1408.5171	1419.4379	1478.1554	1479.682	1484.6439	1497.827	1525.4887	2348.9863	3010.0645	3036.8389	3045.4802	3063.9449	3084.7767	3119.2798	3127.6748	3150.4979	3153.7061
CC1COC(C)(O1)C#N	C[C@H]1CO[C@@](C)(O1)C#N	
InChI=1S/C6H9NO2/c1-5-3-8-6(2,4-7)9-5/h5H,3H2,1-2H3	InChI=1S/C6H9NO2/c1-5-3-8-6(2,4-7)9-5/h5H,3H2,1-2H3/t5-,6-/m0/s1
