16
gdb 6196	3.78472	1.66204	1.55629	5.3093	60.5	-0.2871	0.0449	0.332	885.7893	0.129969	-420.943691	-420.93603	-420.935085	-420.975661	28.248	
C	 0.0662115303	 1.4636271674	 0.1109409633	-0.422931
C	-0.0460769841	-0.0537011454	-0.0353267192	 0.344987
C	-1.4904767729	-0.5333561291	-0.0577934854	-0.434015
C	 0.7979052344	-0.5932518901	-1.2111828618	-0.131294
O	 2.0289199126	-0.9837051803	-0.60338415	-0.24449
C	 1.854338083	-1.1044811369	 0.7403560345	 0.488371
O	 2.6710636189	-1.5331811458	 1.4907672625	-0.373445
O	 0.6225377734	-0.6669781114	 1.0956637832	-0.273215
H	 1.1144000921	 1.7771350547	 0.1025416752	 0.136261
H	-0.4510733834	 1.96593454	-0.7125882092	 0.123332
H	-0.3831205201	 1.7874286927	 1.0531651654	 0.138459
H	-2.0020272346	-0.1509247755	-0.946903577	 0.12661
H	-1.5335638036	-1.6255174694	-0.0734246751	 0.13347
H	-2.0282565389	-0.1776951976	 0.8249718384	 0.13878
H	 0.3377878792	-1.4675605072	-1.6851857123	 0.119388
H	 1.0046851937	 0.1631381939	-1.9711904823	 0.129733
81.1774	159.5316	210.5211	255.8917	307.0803	334.1188	362.0941	459.8034	550.3744	602.9719	717.218	777.0584	825.6965	897.1696	934.3707	951.9079	976.92	1005.0251	1040.2964	1099.3572	1131.3316	1200.9235	1225.6393	1283.8966	1296.0684	1398.3574	1406.8684	1424.5713	1475.9776	1484.5713	1496.412	1504.6695	1524.4611	1924.815	3039.7683	3039.9199	3046.6179	3109.7495	3113.3952	3117.9301	3126.3783	3128.9349
CC1(C)COC(=O)O1	CC1(C)COC(=O)O1	
InChI=1S/C5H8O3/c1-5(2)3-7-4(6)8-5/h3H2,1-2H3	InChI=1S/C5H8O3/c1-5(2)3-7-4(6)8-5/h3H2,1-2H3
