18
gdb 69331	2.74141	1.34964	1.09846	5.1845	76.26	-0.2706	0.0366	0.3072	1141.482	0.146439	-401.932339	-401.923571	-401.922627	-401.965292	33.651	
C	-0.0742706166	 1.5690859276	 0.0489886483	-0.446758
C	 0.0252804139	 0.0390206687	 0.0378343486	 0.146406
C	 1.1167361999	-0.6200978406	-0.9023460446	-0.353281
C	 1.7421837244	-1.2887488815	 0.3291191695	 0.42358
O	 2.181522394	-2.596442832	 0.3480349906	-0.458857
C	 2.1661171542	-0.2653247623	 1.3389160936	-0.367911
C	 0.7058124945	-0.6579749859	 1.2437538345	-0.13067
C	-1.2947705513	-0.5381167797	-0.2124747917	 0.253398
N	-2.3450299952	-0.9820856274	-0.4048207569	-0.345716
H	 0.9057734537	 2.0172102575	 0.2293492586	 0.122943
H	-0.4480359758	 1.9391363533	-0.9100338618	 0.13746
H	-0.7567759303	 1.9079129626	 0.8335068721	 0.138592
H	 0.6801933404	-1.345224322	-1.5896659125	 0.139898
H	 1.742963061	 0.0841049566	-1.4594876137	 0.101768
H	 3.1265321348	-2.6066497363	 0.1602226076	 0.289794
H	 2.6604345987	-0.6828971758	 2.210429563	 0.124777
H	 2.5197403065	 0.7209148944	 1.0492612389	 0.109941
H	 0.1716426532	-1.0803203274	 2.0849919858	 0.114636
105.3059	161.0393	208.6114	223.9391	244.0794	256.2524	362.9227	400.8316	404.746	454.0971	506.2764	564.8966	617.0844	683.7418	776.6357	835.6721	884.0626	896.7708	935.141	955.3451	996.9442	1016.8861	1045.4832	1078.9838	1104.6896	1141.1147	1153.2623	1220.1959	1247.1032	1266.2696	1276.925	1322.9868	1402.7384	1419.0363	1475.0903	1488.0167	1493.5478	1507.2431	2350.7377	3045.9129	3052.5107	3111.2723	3118.9322	3125.3944	3136.7192	3199.6645	3207.5092	3796.7365
CC1(CC2(O)CC12)C#N	C[C@]1(C[C@@]2(O)C[C@@H]12)C#N	
InChI=1S/C7H9NO/c1-6(4-8)3-7(9)2-5(6)7/h5,9H,2-3H2,1H3	InChI=1S/C7H9NO/c1-6(4-8)3-7(9)2-5(6)7/h5,9H,2-3H2,1H3/t5-,6-,7-/m0/s1
