21
gdb 113589	4.06606	0.92602	0.85085	2.4535	79.4	-0.2295	0.0755	0.305	1419.8377	0.182723	-424.20967	-424.200513	-424.199569	-424.244546	34.017	
O	-0.1886679654	 1.3559177018	-0.8195947151	-0.41588
C	 0.0098729469	 0.1871426715	-0.0341287829	-0.105208
C	-1.3229673824	-0.4852187151	 0.1493563099	-0.079171
C	-1.8926731557	-1.38658373	-0.9354426354	-0.347757
C	-1.4359753562	-1.9573324503	 0.3837706853	 0.445701
C	-0.2735182218	-2.9542209979	 0.4977934231	-0.30888
C	-0.849826371	-4.0649262029	 1.412011835	-0.214044
C	-2.3549849626	-3.7616315283	 1.3998736904	-0.089534
O	-2.4332561967	-2.3462305545	 1.3035822643	-0.283728
H	 0.6506761875	 1.8223758656	-0.8760620378	 0.283986
H	 0.7148075308	-0.5034273646	-0.5251555206	 0.079505
H	 0.4375466289	 0.4420946003	 0.949346857	 0.087205
H	-2.0533237781	 0.1143542523	 0.6850534363	 0.101551
H	-2.9603590917	-1.3355985684	-1.1159249744	 0.116534
H	-1.2819858198	-1.5635348517	-1.8161399776	 0.106125
H	 0.0063791028	-3.3430925721	-0.484744248	 0.10811
H	 0.6198891633	-2.5032803799	 0.9382108266	 0.108596
H	-0.6170032701	-5.0726724768	 1.0597334949	 0.101381
H	-0.4593463439	-3.9646358824	 2.4284520306	 0.109952
H	-2.8444406802	-4.2378586592	 0.5349134441	 0.089362
H	-2.8798508046	-4.0663096575	 2.3084798143	 0.106194
34.0141	84.3558	132.9703	170.0555	241.8437	266.8639	325.0044	348.7575	422.471	481.4115	597.8981	638.253	765.4594	821.2653	865.6378	875.7406	895.431	913.0398	928.7802	955.9768	1003.6883	1025.6816	1050.086	1055.4328	1070.5641	1110.296	1125.8217	1164.4745	1191.9394	1224.6437	1227.36	1253.0759	1258.3267	1279.2689	1292.353	1318.9947	1344.928	1384.2072	1408.544	1464.7165	1487.1755	1489.8757	1503.3478	1518.6641	1520.6612	2958.8777	2974.216	2985.0401	3055.4863	3064.2866	3092.0558	3098.8021	3116.2093	3123.4724	3155.6268	3219.2158	3823.4171
OCC1CC11CCCO1	OC[C@H]1C[C@]21CCCO2	
InChI=1S/C7H12O2/c8-5-6-4-7(6)2-1-3-9-7/h6,8H,1-5H2	InChI=1S/C7H12O2/c8-5-6-4-7(6)2-1-3-9-7/h6,8H,1-5H2/t6-,7+/m1/s1
