19
gdb 23606	2.93951	1.06955	0.82066	1.017	80.52	-0.2287	0.0036	0.2324	1396.6971	0.158911	-419.120348	-419.111441	-419.110497	-419.154538	33.226	
O	-0.0573240151	 1.312632525	-0.0130682912	-0.391908
N	 0.0414933169	-0.0908858219	 0.0401325374	-0.234185
C	-1.0991280616	-0.6269179445	-0.0402979668	 0.39718
C	-2.5336314824	-0.1866285636	-0.2231966099	-0.261401
N	-2.8770578297	-1.6106083492	-0.5018171959	-0.330254
C	-1.5248383067	-2.086447595	-0.0599711488	-0.07606
C	-0.8376741362	-3.0419346231	-0.9948106234	 0.052433
C	 0.3395821095	-3.8485521666	-0.5088979409	-0.263211
C	-0.9749352756	-4.5308967745	-0.7869836477	-0.277288
H	 0.8657545374	 1.5828609193	 0.0389772354	 0.307554
H	-2.9687175056	 0.2410575857	 0.6911295687	 0.115113
H	-2.733111226	 0.4987471384	-1.053954597	 0.130462
H	-3.6439593287	-1.9706615932	 0.0543750453	 0.219461
H	-1.5231343376	-2.507822622	 0.9587664723	 0.07614
H	-0.805305081	-2.6952044062	-2.0228138381	 0.086814
H	 1.1637294039	-4.0090614374	-1.1943134716	 0.114621
H	 0.6430991416	-3.7290849489	 0.5258732652	 0.114299
H	-1.5584577719	-4.8745980876	 0.0613356315	 0.106246
H	-1.0563043612	-5.1624094946	-1.6643412045	 0.113985
65.4553	97.1414	121.0265	198.4088	224.2918	300.3233	338.2596	394.6486	426.0752	486.5789	589.5227	683.5569	770.2146	771.1067	833.8972	854.4511	918.2932	932.8423	959.902	973.9205	1000.4399	1028.3034	1035.9926	1060.9515	1078.0878	1113.5441	1132.8065	1160.9509	1195.5796	1210.0336	1221.4901	1233.4192	1295.9135	1318.433	1368.766	1406.4647	1428.0372	1470.7328	1494.3671	1505.849	1803.7513	2963.4672	3005.6283	3063.4023	3129.7352	3137.1432	3160.0425	3209.182	3224.8755	3540.1157	3816.6129
ON=C1CNC1C1CC1	ON=C1CN[C@H]1C1CC1	
InChI=1S/C6H10N2O/c9-8-5-3-7-6(5)4-1-2-4/h4,6-7,9H,1-3H2	InChI=1S/C6H10N2O/c9-8-5-3-7-6(5)4-1-2-4/h4,6-7,9H,1-3H2/t6-/m0/s1
