16
gdb 44240	4.18824	1.24743	1.16007	4.995	68.99	-0.2372	0.0008	0.238	1068.8842	0.124855	-437.854217	-437.846977	-437.846033	-437.886129	28.147	
O	-0.354506338	 0.341157507	-0.5921915001	-0.316711
C	-0.0828673848	 1.3899818773	-0.110995566	 0.48155
O	-0.9467405477	 2.3009434019	 0.4711007975	-0.256049
C	 0.1458573635	 3.2129474622	 0.8154419988	-0.006592
C	 1.1582926304	 2.268400093	 0.1354163908	-0.20306
N	 1.3460518065	 3.2365597912	-0.985676902	-0.370306
C	 0.4754467367	 4.210664198	-0.2841296858	 0.356996
C	-0.4275489792	 5.1971447038	-0.9466194227	-0.299738
C	 0.7528203704	 5.6744778724	-0.1207464602	-0.34052
H	 0.1033328046	 3.5103513085	 1.8612677029	 0.105139
H	 2.0430998818	 1.8177463002	 0.5809216801	 0.112325
H	 2.3090448953	 3.5511782681	-1.0438409853	 0.231243
H	-0.3506762929	 5.2778440008	-2.0252039997	 0.131552
H	-1.4284734364	 5.3248144476	-0.5493529437	 0.130623
H	 0.5640651978	 6.1298280782	 0.8464195335	 0.122783
H	 1.6064935821	 6.08629763	-0.6501047681	 0.120764
75.3313	181.7994	213.389	284.108	359.7509	441.1292	465.144	592.5669	704.2832	735.6793	761.4342	798.4944	822.7066	875.235	898.0843	921.0313	933.9485	938.915	978.4092	992.8558	1051.258	1066.6539	1074.6592	1097.5083	1174.5472	1185.3592	1210.2578	1216.2251	1287.0826	1298.9452	1362.7555	1402.7435	1456.3571	1498.6023	1947.4465	3122.8919	3133.9422	3138.8717	3143.8976	3206.1779	3230.0804	3524.3501
O=C1OC2C1NC21CC1	O=C1O[C@H]2[C@@H]1NC12CC1	
InChI=1S/C6H7NO2/c8-5-3-4(9-5)6(7-3)1-2-6/h3-4,7H,1-2H2	InChI=1S/C6H7NO2/c8-5-3-4(9-5)6(7-3)1-2-6/h3-4,7H,1-2H2/t3-,4-/m0/s1
