16
gdb 28551	2.45489	1.75159	1.02878	3.0283	75.38	-0.1959	-0.042	0.1539	1102.7427	0.124655	-437.950775	-437.942766	-437.941821	-437.983152	30.309	
C	-0.0478999024	 1.4985988239	 0.0728179707	-0.504038
C	-0.0154974098	 0.0129649633	-0.0507873647	 0.302881
C	-0.0428000644	-0.7951711724	-1.1415618579	-0.220559
C	 0.0105159485	-2.1771090783	-0.7297966283	-0.283637
C	 0.0703285211	-2.1860470824	 0.6271216927	 0.407797
O	 0.1341745315	-3.2023572019	 1.4912626971	-0.428655
N	 0.0559859967	-0.8449973894	 1.0787795377	-0.17902
C	 0.1044586527	-0.4781213034	 2.3948328938	 0.185891
O	 0.1653686873	-1.2683759964	 3.3218787724	-0.351557
H	 0.8485557659	 1.9074910183	 0.5566518052	 0.131633
H	-0.1031416314	 1.9316974381	-0.9286319219	 0.14217
H	-0.9178988429	 1.8624731041	 0.6346131013	 0.131629
H	-0.0965280706	-0.4466677726	-2.1624795802	 0.108162
H	 0.0049629466	-3.0492141617	-1.3623337415	 0.114445
H	 0.1639065999	-2.8189245708	 2.3914430441	 0.320799
H	 0.0835273013	 0.6106802514	 2.5489545595	 0.122058
113.7104	181.5491	199.6846	249.5701	281.1938	307.1462	327.541	476.6148	530.8069	603.7867	614.4155	651.2946	678.5024	733.6354	777.5833	833.7308	838.1036	987.0616	1032.9522	1035.0976	1064.8406	1066.0458	1195.9961	1266.1862	1300.4105	1344.4436	1372.8883	1417.5864	1440.7924	1475.5568	1477.963	1498.272	1634.1989	1679.9599	1774.8949	3009.8318	3036.4427	3052.6185	3121.4065	3243.3853	3272.6815	3517.0379
CC1=CC=C(O)N1C=O	Cc1ccc(O)n1C=O	
InChI=1S/C6H7NO2/c1-5-2-3-6(9)7(5)4-8/h2-4,9H,1H3	InChI=1S/C6H7NO2/c1-5-2-3-6(9)7(5)4-8/h2-4,9H,1H3
