15
gdb 43444	3.01249	1.46993	1.06421	1.9063	69.14	-0.2631	-0.0227	0.2404	1077.5651	0.113596	-453.976858	-453.969317	-453.968372	-454.00949	28.393	
N	-0.0907760065	 1.2936281401	 0.0209384378	-0.522688
C	-0.0251063967	 0.0291323741	 0.000493486	 0.399402
C	-1.2372614123	-0.8899368541	 0.037164246	-0.398463
C	-0.6516454502	-2.2911347989	 0.0738407098	 0.303058
C	-1.2321961213	-3.4767483359	 0.7195348688	-0.231451
O	-1.2370279505	-3.3326919555	-0.6986169072	-0.253039
C	 0.8574177016	-2.1550708902	-0.0262925708	 0.383191
O	 1.6817712366	-3.0321093084	-0.0631516014	-0.351185
N	 1.106300467	-0.7911934223	-0.0553076822	-0.386068
H	 0.8331858407	 1.7281088036	-0.0108759074	 0.2147
H	-1.8637076772	-0.6500795285	 0.8989475522	 0.148975
H	-1.840997651	-0.7466079571	-0.8632091077	 0.162341
H	-0.5646979938	-4.2450776246	 1.1043350523	 0.142524
H	-2.2018618276	-3.384325259	 1.2066944092	 0.124132
H	 2.0499677312	-0.4340660032	-0.1018325954	 0.264572
49.6104	136.4118	256.6985	271.1947	352.7715	358.0485	489.304	537.0654	590.8315	607.6449	639.4999	733.5569	755.37	848.3281	877.7391	883.8584	911.9658	953.4568	1021.7798	1101.3575	1130.625	1151.6106	1174.4227	1182.5561	1250.4095	1280.2163	1359.6748	1378.7897	1422.3956	1461.1321	1515.6539	1769.6276	1861.0369	3075.6753	3088.2079	3120.1554	3187.0219	3459.5735	3617.5228
N=C1CC2(CO2)C(=O)N1	[NH][C]1C[C@]2(CO2)C(=O)N1	
InChI=1S/C5H6N2O2/c6-3-1-5(2-9-5)4(8)7-3/h1-2H2,(H2,6,7,8)	InChI=1S/C5H6N2O2/c6-3-1-5(2-9-5)4(8)7-3/h1-2H2,(H2,6,7,8)/t5-/m0/s1
