20
gdb 81602	4.52356	0.92781	0.88327	1.4595	86.61	-0.2195	0.0493	0.2687	1391.6536	0.169576	-365.893324	-365.884552	-365.883608	-365.926981	34.003	
C	-0.490348929	 1.4840449637	 0.6195130358	-0.445018
C	-0.0559730546	 0.0332164357	 0.514046766	 0.072061
C	 1.2309410523	-0.4147365525	-0.2473496817	-0.034196
C	 2.0901255252	 0.1525491103	 0.9186886562	-0.257691
C	 0.9073646546	-0.6410714399	 1.5408879715	-0.026458
N	 1.0565371742	-1.7352051498	 0.4914722854	-0.107315
C	 2.2107577191	-2.6414394141	 0.5753343932	-0.322988
C	 2.0399684573	-3.5918666568	 1.670633211	 0.329378
C	 1.9114497328	-4.3597936465	 2.5858168602	-0.45583
H	 0.3207553415	 2.1743230635	 0.863176967	 0.118112
H	-0.9339983742	 1.8152154131	-0.3258263599	 0.121494
H	-1.2588920491	 1.5913857149	 1.3927326509	 0.122664
H	-0.9003145932	-0.6193958253	 0.2782750287	 0.08383
H	 1.4264376191	-0.3846435949	-1.3217088807	 0.076488
H	 3.0913903745	-0.256887723	 1.0503052232	 0.101875
H	 2.1147996364	 1.2342421116	 1.0592691138	 0.096963
H	 0.7204530755	-0.8850544996	 2.5876543295	 0.087229
H	 2.2523377126	-3.1860197903	-0.3769678029	 0.132153
H	 3.1918989914	-2.1531412894	 0.6903066711	 0.111667
H	 1.7955567536	-5.0468607005	 3.3868894117	 0.195582
51.0323	103.4197	180.4343	225.4638	262.7593	335.9956	355.5274	411.2681	449.1713	576.1711	597.3665	608.2548	653.7575	730.1379	778.7557	795.7685	818.0409	887.4617	904.9717	967.3582	997.2034	1005.0651	1023.0495	1051.0972	1068.9619	1089.9091	1113.922	1135.2801	1158.1526	1183.0198	1200.9259	1235.5877	1246.2066	1259.8824	1283.586	1364.0353	1392.3844	1420.9963	1478.4366	1495.8806	1499.739	1536.4994	2241.1464	2972.2975	3031.7041	3036.6938	3078.0049	3082.2079	3091.819	3092.7464	3110.239	3120.2697	3138.2651	3506.7499
CC1C2CC1N2CC#C	C[C@H]1[C@H]2C[C@@H]1N2CC#C	
InChI=1S/C8H11N/c1-3-4-9-7-5-8(9)6(7)2/h1,6-8H,4-5H2,2H3	InChI=1S/C8H11N/c1-3-4-9-7-5-8(9)6(7)2/h1,6-8H,4-5H2,2H3/t6-,7+,8-
