18
gdb 37291	3.18854	1.80786	1.69583	0.4298	74.	-0.2127	0.0495	0.2622	880.3262	0.149994	-401.82906	-401.822719	-401.821775	-401.859429	26.845	
C	 0.0406533485	 1.4945436343	 0.1022203408	-0.30437
C	 1.374048008	 0.8082220553	 0.1032982254	-0.090766
C	 0.0711606753	-0.0190528817	 0.1337462594	-0.028774
N	 0.4660427774	-0.7603688565	-1.0836041527	-0.138477
C	 0.0306014373	-0.4585608692	-2.4916632186	-0.036578
C	-0.8090161196	 0.7813273724	-2.8124235521	-0.108143
O	 0.3696470264	 1.631810933	-2.8122649437	-0.290308
C	 1.2482500125	 0.4963484548	-2.6632832068	 0.07093
C	 1.6856208035	 0.0872686018	-1.2185560119	 0.013052
H	-0.2247774672	 1.9038322088	 1.0738252601	 0.10937
H	-0.276192265	 2.0949039353	-0.7342237109	 0.146758
H	 2.104616139	 0.9502076897	 0.8890196938	 0.093269
H	-0.3835108168	-0.564368835	 0.9536546072	 0.096594
H	-0.1569754243	-1.363132311	-3.0709155343	 0.088333
H	-1.2605375686	 0.748034481	-3.812048648	 0.107732
H	-1.5647399663	 1.0905951017	-2.0845303894	 0.114459
H	 1.9985163025	 0.4515183067	-3.4571813878	 0.081535
H	 2.6317007774	-0.4671817113	-1.2058553406	 0.075383
190.1915	256.1616	270.7474	362.0908	495.8492	582.0031	654.2098	691.8744	733.1309	764.0569	797.1439	847.2686	858.6917	909.4648	919.8521	960.6026	974.2504	992.2748	1000.6121	1037.5462	1052.1431	1061.3874	1077.7357	1093.9468	1101.8694	1152.5425	1181.6979	1189.0054	1200.2477	1205.3375	1225.9503	1279.5953	1294.6453	1309.5358	1325.0119	1353.9508	1362.6656	1482.3788	1515.1291	3022.2847	3026.2906	3072.4883	3084.6238	3103.2477	3135.8536	3164.0504	3195.0591	3272.8648
C1C2C1N1C3COC3C21	C1[C@H]2[C@@H]1N1[C@H]3CO[C@H]3[C@@H]21	
InChI=1S/C7H9NO/c1-3-4(1)8-5-2-9-7(5)6(3)8/h3-7H,1-2H2	InChI=1S/C7H9NO/c1-3-4(1)8-5-2-9-7(5)6(3)8/h3-7H,1-2H2/t3-,4+,5-,6+,7+/m0/s1
