23
gdb 104580	2.06308	1.32982	0.95621	2.5431	85.7	-0.2373	-0.0113	0.226	1348.821	0.203305	-388.307483	-388.296929	-388.295985	-388.343905	38.649	
C	-1.5162654429	 0.2174213319	 0.0186399631	-0.390925
C	-0.0055877486	-0.0450897756	 0.0478748043	-0.247377
C	 0.5649305712	-0.5672454564	-1.2661262031	 0.382204
C	 0.3505765969	 0.3186813637	-2.4975917757	-0.365694
C	 0.8742928523	 1.7387348932	-2.2907621103	 0.387296
C	 2.3546226054	 1.9706252392	-2.5312779381	-0.477693
O	 0.1388175355	 2.6318226621	-1.9328817241	-0.303867
C	 1.8382936923	-1.3801951438	-1.1962736319	-0.3118
C	 0.5230687825	-2.0598189419	-1.4963678736	-0.311863
H	-1.7561397439	 1.0430437607	-0.6565198722	 0.141834
H	-2.0681778059	-0.6704311389	-0.3091283409	 0.110013
H	-1.8790905071	 0.488863792	 1.0147417536	 0.110428
H	 0.5113902945	 0.8805077496	 0.3306825433	 0.105426
H	 0.2263832616	-0.7752721387	 0.8327058992	 0.088206
H	 0.8492710697	-0.1425232626	-3.3575269026	 0.096558
H	-0.7170016434	 0.3954764415	-2.723629918	 0.122738
H	 2.5942213487	 1.7889286696	-3.5856684407	 0.137109
H	 2.620558119	 2.9951135271	-2.2682133411	 0.139816
H	 2.9518621598	 1.2644710355	-1.9446919753	 0.146043
H	 2.5573909876	-1.2930628881	-2.0043375189	 0.106479
H	 2.2877775096	-1.5418376011	-0.2220259649	 0.112269
H	 0.079889304	-2.6790318677	-0.7233560788	 0.113294
H	 0.3556900512	-2.4239587215	-2.5045922634	 0.109505
28.0108	76.4521	117.5049	142.1471	149.2433	214.2951	253.3716	303.7336	318.2872	376.6865	407.4599	481.7158	518.631	586.0657	707.1884	779.3538	789.008	804.6388	877.838	899.927	909.1384	929.3829	962.9863	1016.1256	1029.6611	1049.816	1057.3591	1082.1316	1095.7694	1123.3093	1167.3362	1189.2829	1246.5634	1268.4768	1299.7591	1326.8914	1353.005	1378.7294	1391.7566	1409.2589	1461.6512	1467.0921	1473.1405	1477.7177	1486.8951	1498.7834	1505.3232	1517.1679	1804.0376	3022.1625	3033.9603	3035.8285	3040.5587	3055.7998	3095.247	3098.1827	3101.5593	3121.84	3124.9941	3129.6627	3151.8193	3202.3603	3216.7154
CCC1(CC(C)=O)CC1	CCC1(CC(=O)C)CC1	
InChI=1S/C8H14O/c1-3-8(4-5-8)6-7(2)9/h3-6H2,1-2H3	InChI=1S/C8H14O/c1-3-8(4-5-8)6-7(2)9/h3-6H2,1-2H3
