18
gdb 30633	4.43705	1.04451	0.85435	2.3619	80.91	-0.2222	-0.0296	0.1926	1342.0723	0.148344	-402.019146	-402.01066	-402.009716	-402.052801	31.399	
C	 0.0415269245	 1.5550653735	 0.0107290203	-0.380951
C	-0.0329842716	 0.0293897968	 0.0040051938	-0.314666
C	-1.467853591	-0.4735642992	 0.0126147561	 0.443176
O	-2.4286076457	 0.2590948675	 0.0238579412	-0.327784
N	-1.6380254404	-1.8713407861	 0.0080986403	-0.080624
C	-0.6578125158	-2.8607576742	-0.003781625	-0.076275
C	-1.2802335361	-4.0744801756	-0.0040680136	-0.1753
C	-2.694697655	-3.8355360199	 0.0081600778	-0.180481
C	-2.8854944021	-2.4858142583	 0.0154655139	-0.055668
H	 1.0842799727	 1.8837222534	 0.0041196521	 0.112334
H	-0.4615269062	 1.9742529175	-0.8636357026	 0.136805
H	-0.4476944729	 1.9658354301	 0.8968618984	 0.136805
H	 0.473891678	-0.3836150068	-0.8768720479	 0.135088
H	 0.4874174973	-0.3919939684	 0.8729471057	 0.135121
H	 0.3880096201	-2.6080695508	-0.0109740003	 0.129366
H	-0.7873282074	-5.0346806813	-0.012079414	 0.106132
H	-3.4735940026	-4.5824593743	 0.0111393683	 0.107461
H	-3.7704930456	-1.8739284541	 0.0250993156	 0.149461
63.9553	100.5754	153.61	177.0291	205.0791	303.1062	383.8967	524.1215	550.4429	616.9711	633.8584	705.3414	713.8717	772.65	818.5815	850.1917	876.4263	882.0221	918.4762	993.1787	1025.9036	1070.3623	1092.1645	1100.463	1103.4551	1145.4034	1284.1238	1286.4698	1300.7685	1346.5701	1387.3517	1415.9495	1437.9417	1464.9528	1491.3078	1498.495	1509.5248	1592.778	1804.279	3033.2561	3055.3583	3066.3061	3127.4182	3134.9603	3245.3549	3258.6752	3292.059	3300.5381
CCC(=O)N1C=CC=C1	CCC(=O)n1cccc1	
InChI=1S/C7H9NO/c1-2-7(9)8-5-3-4-6-8/h3-6H,2H2,1H3	InChI=1S/C7H9NO/c1-2-7(9)8-5-3-4-6-8/h3-6H,2H2,1H3
