17
gdb 128655	3.6101	1.14789	0.88062	1.8212	72.62	-0.204	0.05	0.2541	1286.0624	0.135369	-455.156336	-455.146865	-455.145921	-455.192396	32.892	
C	-0.1169652901	 1.3876699088	-0.0047636594	-0.230151
O	-0.043409155	-0.034170443	-0.0121026656	-0.269116
C	-1.2243660743	-0.6760992729	-0.0082371964	 0.497244
N	-2.3871849903	-0.0444527509	 0.0018324033	-0.387105
N	-3.3148109331	-1.0570671024	 0.0026908433	-0.038313
C	-4.724213914	-0.7509741199	 0.0112575244	-0.326075
C	-2.7195854156	-2.2683592523	-0.006999885	 0.489681
O	-3.4959074825	-3.3754016489	-0.0078768194	-0.435722
C	-1.3512647111	-2.0854992099	-0.0143569914	-0.533937
H	 0.915120227	 1.7415802416	-0.0091858633	 0.12214
H	-0.6480736692	 1.7584637539	-0.8877634224	 0.129906
H	-0.6375092496	 1.7498415391	 0.8880509097	 0.129904
H	-4.9942837903	-0.1711137765	-0.8766363022	 0.140696
H	-5.2832898534	-1.6869564952	 0.0155340879	 0.153356
H	-4.9823401642	-0.1699563511	 0.9018470445	 0.140902
H	-2.9243881555	-4.1490514299	-0.0140559763	 0.313242
H	-0.5733591389	-2.8296032506	-0.0225413116	 0.103348
12.0566	92.0299	136.2323	174.4059	201.7537	244.0453	251.0153	295.8104	394.6025	410.7567	542.8916	653.9991	657.6889	669.5067	684.8172	736.2875	840.8046	995.554	1051.7466	1080.2436	1136.5123	1155.0451	1181.2269	1196.8323	1226.3766	1290.2133	1308.866	1443.4099	1451.5776	1463.919	1476.9937	1478.3256	1503.3447	1513.2496	1555.5091	1602.9095	1621.5472	3030.2886	3042.168	3095.0954	3099.8194	3140.3372	3157.3066	3273.5449	3849.2398
COC1=NN(C)C(O)=C1	COc1nn(C)c(O)c1	
InChI=1S/C5H8N2O2/c1-7-5(8)3-4(6-7)9-2/h3,8H,1-2H3	InChI=1S/C5H8N2O2/c1-7-5(8)3-4(6-7)9-2/h3,8H,1-2H3
