12
gdb 25397	3.79042	1.24521	0.93729	1.7986	66.8	-0.2808	-0.1146	0.1663	1123.5641	0.077328	-472.680487	-472.673282	-472.672337	-472.71276	25.611	
O	-0.1524911278	 0.037943467	-0.0021297214	-0.210286
C	-0.001947116	 1.2275095848	 0.0060935895	 0.109588
C	 1.3547261329	 1.889916965	-0.0029782399	 0.326764
N	 2.4477442258	 1.2165653886	-0.0204554498	-0.284862
C	 3.6076527556	 1.96016242	-0.0264722942	 0.011841
C	 3.6292745197	 3.3139669779	-0.0149271001	-0.232415
C	 2.3931856911	 4.0665197655	 0.0048692146	 0.422448
O	 2.2205565155	 5.2477111382	 0.0170109342	-0.315832
O	 1.2413911058	 3.2270331772	 0.0099516485	-0.235284
H	-0.8396867583	 1.9524206459	 0.0212249934	 0.118972
H	 4.527583478	 1.3838598371	-0.0414125849	 0.143439
H	 4.5493734277	 3.8834413828	-0.0198768698	 0.145626
86.7023	155.9066	187.5494	197.5054	390.7113	393.4754	481.75	541.4161	632.1407	677.6218	766.816	816.8111	826.4365	864.9964	972.8695	1020.6553	1032.6524	1047.5974	1136.3804	1260.8623	1281.6347	1413.7704	1430.7556	1580.3334	1661.3141	1836.5766	1880.3352	2950.2484	3186.1365	3230.9088
O=CC1=NC=CC(=O)O1	O=Cc1nccc(=O)o1	
InChI=1S/C5H3NO3/c7-3-4-6-2-1-5(8)9-4/h1-3H	InChI=1S/C5H3NO3/c7-3-4-6-2-1-5(8)9-4/h1-3H
