22
gdb 104312	2.93775	1.25924	1.18261	2.7617	80.76	-0.2285	0.063	0.2915	1188.308	0.194599	-404.334608	-404.325638	-404.324694	-404.367811	35.381	
C	 0.0873369037	 1.5664186999	 0.0241397951	-0.407991
C	-0.0004147269	 0.0367816057	-0.0248774408	-0.210332
C	-1.4326952159	-0.5195011599	-0.0383688358	 0.392725
O	-2.1384200087	-0.1419225601	 1.1508066662	-0.488231
C	-2.261537071	-0.1610846106	-1.2980934757	-0.296411
C	-3.2502275652	-1.3421802823	-1.4287217128	-0.156279
N	-2.618515502	-2.5345817297	-0.8298556212	-0.099822
C	-1.246178599	-2.7677119943	-1.3005214433	-0.264447
C	-1.4849842187	-2.0420975577	-0.02758943	-0.02573
H	 1.1308326425	 1.8945320771	 0.0319351396	 0.12083
H	-0.3979843504	 2.0309982109	-0.8408256645	 0.119356
H	-0.3779836676	 1.9676984952	 0.9315973238	 0.111545
H	 0.5273097956	-0.3334988841	-0.9113986095	 0.095264
H	 0.5150149186	-0.3824221416	 0.8472917676	 0.10362
H	-2.2227880473	 0.8168693175	 1.1539299677	 0.276853
H	-2.7754646946	 0.7970802214	-1.1834149269	 0.0944
H	-1.61434663	-0.0740758523	-2.1764822678	 0.10098
H	-4.1589915758	-1.1408239005	-0.8537626699	 0.116011
H	-3.5426500775	-1.5459514034	-2.4633933719	 0.101196
H	-0.9312798877	-3.8066805845	-1.2718680884	 0.115815
H	-0.8781217208	-2.2152924994	-2.1619903933	 0.104928
H	-1.3089654513	-2.5205187371	 0.9311793618	 0.09572
92.4109	132.3042	179.1187	234.1855	267.2859	303.8601	339.4426	377.759	402.5198	435.3711	485.5318	618.9345	659.7292	721.6451	781.3909	812.638	823.1173	869.6041	941.4211	952.4459	965.5214	985.6756	1007.4139	1035.4365	1052.1042	1090.5905	1113.7149	1114.4407	1143.0995	1185.9262	1194.2911	1205.9138	1243.7796	1266.2643	1314.0266	1318.5535	1325.115	1346.8222	1385.8951	1399.9186	1413.726	1476.3148	1479.4477	1494.6137	1500.9258	1510.8981	1515.9381	3030.4925	3033.332	3049.3194	3053.8365	3067.7078	3087.8615	3097.873	3102.765	3106.7984	3107.8952	3156.9383	3188.8167	3818.3764
CCC1(O)CCN2CC12	CC[C@@]1(O)CCN2C[C@@H]12	
InChI=1S/C7H13NO/c1-2-7(9)3-4-8-5-6(7)8/h6,9H,2-5H2,1H3	InChI=1S/C7H13NO/c1-2-7(9)3-4-8-5-6(7)8/h6,9H,2-5H2,1H3/t6-,7+,8?/m0/s1
