20
gdb 79638	2.13447	1.916	1.54015	0.8601	77.46	-0.2065	0.0539	0.2604	989.032	0.17225	-403.088048	-403.080008	-403.079064	-403.120072	32.289	
C	-0.1748129541	 1.5430950249	 0.0031092175	-0.334545
N	 0.0145406329	 0.1036541981	-0.1322469775	-0.079892
C	 0.4095634973	-0.6822424374	-1.2807917488	-0.051553
C	 1.2462421551	-0.1714079755	-2.4464286765	-0.040314
C	 1.7296142329	 1.2584464361	-2.5087062912	-0.299451
C	 2.61585567	 0.1964138448	-1.9153884657	-0.046823
C	 2.6213513066	-0.0410519942	-0.4033602802	 0.085253
O	 2.9684823021	 1.159622409	 0.2859056752	-0.426118
C	 1.2480002003	-0.6416164672	-0.0289329306	-0.104017
H	-0.812883599	 1.9066522345	-0.8077234049	 0.12395
H	-0.7064099087	 1.7269817844	 0.9447960146	 0.111511
H	 0.7522492183	 2.1215006171	 0.0251860416	 0.142721
H	-0.2562855808	-1.5125669436	-1.5094030867	 0.085611
H	 1.1353042064	-0.7144927327	-3.3783601331	 0.081542
H	 2.0212623144	 1.621535986	-3.4891190167	 0.108612
H	 1.293109181	 2.0169334982	-1.8797938981	 0.126903
H	 3.5199703551	-0.0610123787	-2.4555028043	 0.085462
H	 3.3743319637	-0.8162950032	-0.1893001475	 0.069018
H	 2.9474328906	 0.9732261016	 1.2303914001	 0.283103
H	 1.2574102858	-1.4357846119	 0.7187544428	 0.079029
146.128	155.7421	208.5172	274.1355	295.6872	320.4592	336.6849	486.9396	537.5726	557.4551	682.4629	709.8114	740.0408	768.5404	802.6768	827.8787	880.7179	944.0379	952.9497	999.8911	1033.0752	1056.0108	1063.1068	1078.9344	1094.6306	1110.9331	1116.0483	1129.2688	1154.3876	1182.0358	1205.1092	1244.2921	1311.9274	1340.9495	1344.9332	1352.3354	1393.3604	1404.8656	1423.3648	1462.8179	1487.5068	1490.9947	1540.5641	2969.1891	3019.8237	3076.9086	3086.8596	3115.1339	3115.8527	3148.2678	3163.3544	3174.6474	3278.272	3811.1062
CN1C2C3CC3C(O)C12	CN1[C@H]2[C@H]3C[C@H]3[C@@H](O)[C@@H]12	
InChI=1S/C7H11NO/c1-8-5-3-2-4(3)7(9)6(5)8/h3-7,9H,2H2,1H3	InChI=1S/C7H11NO/c1-8-5-3-2-4(3)7(9)6(5)8/h3-7,9H,2H2,1H3/t3-,4+,5-,6-,7+,8?/m0/s1
