18
gdb 133752	3.42378	0.8129	0.76949	2.8438	61.42	-0.2769	0.0604	0.3374	1503.1077	0.141918	-570.604877	-570.59491	-570.593966	-570.64064	35.437	
C	 0.1036376513	 1.5605997097	-0.0466428805	-0.384833
C	 0.0264902319	 0.0329773158	-0.0763450952	-0.185316
C	-1.4081365696	-0.4916141903	 0.0764844329	 0.133296
O	-2.2703908318	 0.0232570754	-0.9291014237	-0.424017
C	-1.4305334518	-2.0265576176	 0.1306474031	-0.379904
C	-2.8142023596	-2.6307424553	 0.2858145737	 0.29502
F	-3.5509859041	-2.5128155314	-0.8279400472	-0.077646
F	-2.7247471341	-3.9459534219	 0.5592275173	-0.08331
F	-3.4997487798	-2.0618687166	 1.2892989033	-0.081957
H	 1.126327164	 1.90774045	-0.2196769916	 0.112356
H	-0.5441545802	 1.9914798319	-0.8140025246	 0.132786
H	-0.2235351677	 1.9515622129	 0.9229512232	 0.117478
H	 0.4370249002	-0.3455287907	-1.023954083	 0.088197
H	 0.649826842	-0.3941246067	 0.7195217534	 0.098283
H	-1.8298326131	-0.1098539695	 1.0136842736	 0.105245
H	-2.0295599168	-0.3787842382	-1.7712525734	 0.279656
H	-0.9894812767	-2.4542943728	-0.7775861592	 0.120968
H	-0.8300057542	-2.3747739246	 0.9763603279	 0.133699
45.6524	81.4758	130.976	131.8862	218.2334	253.6892	256.1345	309.3529	316.6352	369.346	461.2984	504.1586	538.6355	583.9883	662.4234	780.8648	847.2019	867.1842	914.9587	986.7833	1023.0036	1057.8226	1100.2067	1121.8938	1139.1755	1186.5308	1265.2395	1272.3955	1289.2763	1315.3519	1362.6577	1380.3202	1398.5544	1409.0304	1428.7122	1465.5611	1482.3802	1496.6086	1509.5505	3003.2943	3040.1137	3041.4453	3049.2571	3059.5154	3102.6902	3106.0995	3127.	3800.1046
CCC(O)CC(F)(F)F	CC[C@@H](O)CC(F)(F)F	
InChI=1S/C5H9F3O/c1-2-4(9)3-5(6,7)8/h4,9H,2-3H2,1H3	InChI=1S/C5H9F3O/c1-2-4(9)3-5(6,7)8/h4,9H,2-3H2,1H3/t4-/m1/s1
