21
gdb 109155	2.90413	1.20328	0.93078	3.0018	86.16	-0.2332	-0.0378	0.1954	1340.1307	0.182196	-387.147145	-387.137616	-387.136672	-387.182042	34.992	
C	-0.0021231165	 1.5665780675	 0.2680418536	-0.378819
C	 0.0004976852	 0.0763645383	-0.1168700778	-0.290656
C	-1.3744071359	-0.5186856415	-0.131297015	 0.221653
C	-2.1067873468	-0.9483684781	-1.1695773125	-0.168143
C	-3.4507308084	-1.5106286031	-0.7814758434	-0.284946
C	-3.5275933043	-1.3004715557	 0.7465259155	-0.083144
C	-3.8932753172	-2.5340737601	 1.5753827279	-0.397746
C	-2.1416003747	-0.7472397431	 1.1216832601	 0.331206
O	-1.7469152385	-0.5477727277	 2.2504666703	-0.349719
H	 1.0182360807	 1.960966492	 0.2885732301	 0.113181
H	-0.5802838147	 2.1573359393	-0.4497330605	 0.112089
H	-0.4413988733	 1.7039576789	 1.2592361616	 0.145072
H	 0.4737713917	-0.0596176337	-1.0955356419	 0.09802
H	 0.6059684192	-0.4713707006	 0.6154593307	 0.120778
H	-1.7792986186	-0.921313916	-2.2050185256	 0.104472
H	-4.2658555126	-1.0155287614	-1.3229568694	 0.114748
H	-3.5155936548	-2.5742391043	-1.0478102605	 0.117255
H	-4.245415842	-0.5017802377	 0.9734630955	 0.104673
H	-3.2283074793	-3.373194453	 1.342836155	 0.117277
H	-3.7901570382	-2.3095896309	 2.6403318033	 0.14001
H	-4.9214391811	-2.854082779	 1.3814454732	 0.112739
52.6566	61.5711	153.6879	192.846	229.9718	242.2487	261.8438	297.3841	360.7059	472.1194	525.0242	557.4565	670.8107	716.2016	780.5898	803.4427	844.7753	891.5638	915.6473	954.4046	974.6748	1019.2609	1054.0546	1085.4045	1100.3334	1121.2002	1126.2307	1193.6747	1229.8831	1273.0581	1278.6322	1310.4432	1333.6225	1353.9699	1366.2372	1403.8823	1404.9167	1476.3021	1479.0694	1496.3663	1497.109	1500.6788	1510.7277	1692.8046	1796.0366	3019.9991	3026.1202	3030.7812	3035.4452	3040.3422	3052.4878	3070.8814	3102.3325	3108.219	3122.1894	3128.1494	3174.5165
CCC1=CCC(C)C1=O	CCC1=CC[C@@H](C)C1=O	
InChI=1S/C8H12O/c1-3-7-5-4-6(2)8(7)9/h5-6H,3-4H2,1-2H3	InChI=1S/C8H12O/c1-3-7-5-4-6(2)8(7)9/h5-6H,3-4H2,1-2H3/t6-/m1/s1
