17
gdb 12490	3.34955	1.90034	1.35607	4.307	64.18	-0.2285	0.0131	0.2417	910.3161	0.144424	-401.019613	-401.012227	-401.011283	-401.051547	27.644	
O	 0.0244994766	 0.531044716	 1.2660316136	-0.315923
C	-0.0253269781	 1.186780254	 0.2599145448	 0.375227
C	-1.3949888656	 1.6010522152	-0.3189166115	-0.300691
N	-1.537600812	 1.9561975135	-1.7135605635	-0.274357
C	-1.020767813	 3.2647218934	-2.0917619883	-0.166852
C	 0.3802651405	 3.5957215172	-1.5326403109	-0.231235
C	 1.2893374928	 2.3722729819	-1.4945219984	-0.053345
O	 1.1408320393	 1.5406383792	-0.3322533848	-0.225726
H	-2.0495706425	 0.7580823207	-0.0791334558	 0.145613
H	-1.7509827485	 2.4373290681	 0.2966529201	 0.140402
H	-1.1806349799	 1.2263428928	-2.3165157784	 0.226266
H	-0.9986781403	 3.2996476618	-3.1860403468	 0.108606
H	-1.7329835456	 4.0354537458	-1.7700553779	 0.11253
H	 0.8493910209	 4.3722119376	-2.1480520816	 0.110192
H	 0.3164140964	 4.0073653773	-0.518608023	 0.119469
H	 1.1629880366	 1.7582220707	-2.3960436286	 0.103267
H	 2.3376531223	 2.6775692248	-1.4517129389	 0.126557
76.9479	115.0692	244.0409	289.4176	333.6718	380.66	484.5848	526.4018	573.4392	668.3438	680.1874	749.258	813.3319	882.2126	942.3415	969.1608	1001.9951	1056.8807	1098.4767	1136.719	1178.2986	1210.4211	1242.8021	1270.9397	1291.5987	1342.8032	1349.1009	1378.7389	1395.0152	1426.8612	1454.2939	1477.377	1493.3609	1504.6053	1513.6803	1826.0021	3018.8408	3022.482	3035.9949	3039.3137	3064.7305	3085.3084	3092.5883	3096.7385	3559.6504
O=C1CNCCCO1	O=C1CNCCCO1	
InChI=1S/C5H9NO2/c7-5-4-6-2-1-3-8-5/h6H,1-4H2	InChI=1S/C5H9NO2/c7-5-4-6-2-1-3-8-5/h6H,1-4H2
