19
gdb 6376	3.68214	1.19865	0.94791	3.5687	69.52	-0.2341	0.0385	0.2726	1248.3775	0.164011	-402.238837	-402.229084	-402.228139	-402.273932	34.229	
C	-0.560516704	 1.3300381485	 0.5906243126	-0.332043
N	-0.9324451825	-0.0665789593	 0.4980308478	-0.301922
C	-0.9152134076	-0.748037929	-0.6790981704	 0.377626
O	-0.5780124926	-0.2568817906	-1.7439529844	-0.38202
C	-1.3273320726	-2.2233331484	-0.5879036907	-0.302735
C	-2.4597508625	-2.5776539898	 0.3880371316	 0.101867
C	-2.9400230417	-4.016354209	 0.2124900859	-0.397446
O	-2.0837658566	-2.3357556065	 1.7547029813	-0.423178
H	 0.3040592064	 1.4712403127	 1.2498368454	 0.119384
H	-0.3007256099	 1.669211884	-0.4128129888	 0.166153
H	-1.3883186257	 1.9387992648	 0.9720941646	 0.121615
H	-1.239956062	-0.5692552305	 1.3198677706	 0.255791
H	-1.6050460605	-2.5159439707	-1.6035820378	 0.130471
H	-0.4362056781	-2.8132832522	-0.3278257968	 0.109543
H	-3.3009674744	-1.8948383204	 0.2233446278	 0.1064
H	-2.113009917	-4.7234956978	 0.3543572464	 0.110748
H	-3.7197178709	-4.2471175283	 0.9433046192	 0.12839
H	-3.3438466484	-4.1762618157	-0.7916319268	 0.128609
H	-1.4055005793	-2.9806977917	 1.9881459326	 0.282745
61.5935	72.3038	89.0933	155.1592	195.2159	241.3373	282.5379	328.4225	342.3034	384.3113	451.3736	489.9107	603.1641	692.1739	740.216	834.1718	884.3052	909.7074	950.2508	1044.7991	1067.5687	1115.0047	1144.966	1154.876	1180.8123	1189.1213	1297.3552	1299.2712	1321.1446	1375.8924	1405.0698	1420.0186	1436.4013	1457.7441	1492.1155	1494.0476	1499.2454	1501.3687	1588.0849	1776.1729	3011.8258	3022.9959	3026.5	3054.3679	3071.53	3097.8747	3107.5056	3123.3341	3151.4154	3567.7534	3788.93
CNC(=O)CC(C)O	CNC(=O)C[C@@H](C)O	
InChI=1S/C5H11NO2/c1-4(7)3-5(8)6-2/h4,7H,3H2,1-2H3,(H,6,8)	InChI=1S/C5H11NO2/c1-4(7)3-5(8)6-2/h4,7H,3H2,1-2H3,(H,6,8)/t4-/m1/s1
