18
gdb 103352	2.89249	1.40802	1.11225	1.9359	68.09	-0.2434	0.0502	0.2937	1100.5353	0.148229	-476.13817	-476.130158	-476.129214	-476.17043	32.207	
O	-0.0295829195	 1.4704979686	 0.1037726284	-0.428611
C	 0.0206001317	 0.0371491835	 0.1233124239	-0.164565
C	-1.3977614328	-0.5158446897	 0.0409077573	 0.459971
O	-2.2004478222	 0.1813721032	 0.9676559992	-0.505811
C	-2.008863341	-0.8350378432	-1.375533127	-0.184346
N	-1.0198838283	-1.9803275387	-1.4136757609	-0.332899
C	-1.6249709349	-2.0489985514	-0.0228248077	-0.161417
C	-3.037806224	-1.7904587714	-0.6712973935	 0.172657
O	-4.1505145608	-1.3549826125	 0.0260839566	-0.441924
H	-0.1604665694	 1.7475619415	-0.8092675862	 0.293143
H	 0.648625219	-0.3669859286	-0.6720347118	 0.134337
H	 0.4569791537	-0.2246979471	 1.0925683703	 0.119854
H	-1.8486766328	 1.0846514768	 0.9764275395	 0.292646
H	-2.1530263201	-0.1704251612	-2.230716868	 0.072247
H	-1.4105445403	-2.7380533762	-1.9811771863	 0.216933
H	-1.3166438706	-2.802404833	 0.7044842645	 0.082082
H	-3.3570133401	-2.616191301	-1.3169040546	 0.078693
H	-3.8576912278	-0.6247689596	 0.5909656763	 0.297011
105.0962	155.8423	244.5727	323.8326	349.8047	361.3155	398.7613	431.8416	480.0811	570.8954	583.8023	608.9029	664.741	706.4964	797.1078	847.889	859.9435	881.9256	915.1984	990.9051	1020.5341	1071.1973	1082.5725	1111.2484	1120.3153	1143.3789	1160.057	1177.3416	1192.9275	1253.7904	1259.2387	1287.7166	1295.178	1351.419	1360.9196	1401.6693	1436.339	1488.285	1499.9532	3053.7676	3060.5549	3086.364	3103.1843	3129.0417	3398.9597	3704.7452	3721.1538	3814.1255
OCC1(O)C2NC1C2O	OC[C@@]1(O)[C@H]2N[C@@H]1[C@H]2O	
InChI=1S/C5H9NO3/c7-1-5(9)3-2(8)4(5)6-3/h2-4,6-9H,1H2	InChI=1S/C5H9NO3/c7-1-5(9)3-2(8)4(5)6-3/h2-4,6-9H,1H2/t2-,3-,4+,5+
