21
gdb 57322	1.78312	1.60469	1.05382	0.5343	89.73	-0.2599	0.0325	0.2924	1251.459	0.1774	-349.894047	-349.883168	-349.882224	-349.928974	41.241	
C	-0.0280893434	 1.5387728098	 0.0171100246	-0.415915
C	-0.0067800137	 0.0020354458	 0.0653624875	 0.247806
C	 0.6920957149	-0.476220472	 1.3473643681	-0.410412
C	-1.4488050982	-0.5297972579	 0.0199155189	-0.415917
C	 0.7631398305	-0.5284668791	-1.2081041085	-0.361374
C	 2.1332444559	-0.0105918973	-1.3003685546	 0.332859
C	 3.2525998009	 0.4184890346	-1.3810650176	-0.44426
C	 0.7718978052	-1.9933327467	-1.2974677916	 0.332828
C	 0.7735303776	-3.1922786833	-1.3755982978	-0.44424
H	 0.982875992	 1.9539462969	 0.0349869789	 0.129261
H	-0.5281408708	 1.9018668043	-0.8881060162	 0.107721
H	-0.5743850209	 1.9339766945	 0.8795214787	 0.111015
H	 0.1575866449	-0.1079191266	 2.2289141534	 0.108498
H	 0.718448302	-1.5686739533	 1.397808777	 0.124886
H	 1.7212606151	-0.1085755418	 1.3958298613	 0.124885
H	-1.9683420291	-0.1950904721	-0.8852682277	 0.107722
H	-1.4733862216	-1.6223795117	 0.0398529968	 0.129253
H	-2.0126807918	-0.1601737854	 0.8823546824	 0.111019
H	 0.2071345165	-0.1479901268	-2.0781144629	 0.130555
H	 4.2441215112	 0.7911793709	-1.4569769407	 0.196905
H	 0.7819402231	-4.2517023227	-1.4485817899	 0.196904
70.7887	134.3752	156.845	160.1867	212.9484	260.2086	262.5291	303.1848	313.4277	348.1948	370.1372	393.2605	398.6541	493.9631	557.2786	571.8587	629.1368	629.2176	640.6421	642.628	765.7061	856.3074	940.5363	941.8943	967.5933	973.6398	1008.7241	1047.6395	1075.7874	1192.1364	1243.3272	1249.8555	1310.2559	1314.1028	1399.842	1400.5353	1430.6515	1477.8744	1487.2668	1489.5241	1502.6659	1504.3307	1519.5706	2233.7355	2239.6876	2992.1648	3027.8146	3031.6975	3039.4822	3092.0138	3097.513	3106.1219	3115.4732	3119.5665	3119.7554	3502.2369	3503.0895
CC(C)(C)C(C#C)C#C	CC(C)(C)C(C#C)C#C	
InChI=1S/C9H12/c1-6-8(7-2)9(3,4)5/h1-2,8H,3-5H3	InChI=1S/C9H12/c1-6-8(7-2)9(3,4)5/h1-2,8H,3-5H3
