22
gdb 96299	2.20909	1.48745	1.01806	3.0453	82.93	-0.2151	-0.0183	0.1968	1249.5467	0.195441	-404.359435	-404.350294	-404.34935	-404.393562	34.353	
C	-0.066144754	 1.5415752909	 0.175876677	-0.316679
N	 0.0209053951	 0.1077331926	-0.0585756024	-0.061173
C	-1.2393468371	-0.4452982336	-0.5576946896	-0.142008
C	-1.0506453127	-1.7890384667	-1.2838759485	-0.207206
C	-1.1150424807	-3.0585015826	-0.413933766	-0.196419
C	-0.4653065503	-2.927580797	 0.9841299461	-0.293051
C	 0.7899709594	-2.0687756447	 0.9663813551	 0.37261
O	 1.8985711273	-2.5434757469	 0.8870081997	-0.299227
C	 0.585819007	-0.553815326	 1.1154384764	-0.230167
H	 0.9201081537	 1.9312576453	 0.4466922813	 0.122538
H	-0.3917665842	 2.0475302347	-0.7380369772	 0.119187
H	-0.7693174476	 1.8125899461	 0.9874046104	 0.091368
H	-2.0094620222	-0.5259289373	 0.236260723	 0.074275
H	-1.6258688172	 0.2809690846	-1.2792630195	 0.10241
H	-1.8077543144	-1.8755643405	-2.0707676978	 0.096679
H	-0.081178187	-1.7338764685	-1.7915769292	 0.120889
H	-2.1581622211	-3.362164501	-0.272925979	 0.103069
H	-0.6268207971	-3.8742134266	-0.9565893401	 0.116856
H	-1.1839996706	-2.478353971	 1.6777378629	 0.106707
H	-0.1975663435	-3.9164290888	 1.3644679011	 0.119591
H	 1.5701702319	-0.1205278742	 1.3114654652	 0.121038
H	-0.0430996046	-0.3919971989	 2.017719841	 0.078713
72.5279	87.4729	123.0591	224.3267	249.3602	306.2793	309.7737	368.4531	392.9778	439.3919	503.5914	558.9055	637.916	749.988	806.7338	838.4786	896.891	909.0265	973.2372	993.9754	1000.4188	1068.7107	1088.5814	1105.8572	1128.2626	1152.8973	1195.8903	1206.9163	1216.4627	1248.589	1278.6773	1302.4442	1318.6102	1346.3216	1375.307	1385.0882	1388.0869	1410.897	1460.6826	1478.0955	1482.4086	1485.481	1487.2644	1501.0904	1508.0237	1510.8484	1815.41	2866.2105	2898.6638	2921.3665	3034.2148	3039.6147	3048.1192	3060.2082	3066.2225	3073.3896	3087.3663	3088.274	3106.1066	3109.1727
CN1CCCCC(=O)C1	CN1CCCCC(=O)C1	
InChI=1S/C7H13NO/c1-8-5-3-2-4-7(9)6-8/h2-6H2,1H3	InChI=1S/C7H13NO/c1-8-5-3-2-4-7(9)6-8/h2-6H2,1H3
