20
gdb 80304	2.48042	1.46453	1.2573	1.7442	79.	-0.2315	-0.0204	0.2111	1110.7556	0.169743	-403.15784	-403.14898	-403.148036	-403.19104	33.973	
C	-0.4620746792	 1.3273157127	-0.1796032175	-0.3407
N	 0.016387327	-0.0375147546	-0.024243823	-0.122099
C	 1.3956368305	-0.4220532709	-0.3044494423	-0.083621
C	 2.4700871115	 0.6429124271	-0.3921674683	-0.348722
C	 2.4490578917	 1.3678723033	 0.9626675756	 0.391364
O	 3.0420866611	 2.3811868485	 1.2231357633	-0.309468
C	 1.5474901799	 0.5866248399	 1.9299445118	-0.394214
C	 0.8398280403	-0.4751365997	 1.1000738026	 0.311715
C	 0.4085204115	-1.7507575122	 1.782879558	-0.464924
H	-0.7302971953	 1.4854358467	-1.2290320425	 0.128803
H	-1.3710736371	 1.4489165274	 0.4179839513	 0.12844
H	 0.2360901605	 2.1264614481	 0.1098814441	 0.118699
H	 1.5092441536	-1.3195130682	-0.9080113344	 0.089001
H	 3.4580647909	 0.1857573837	-0.5291026008	 0.134256
H	 2.3429964436	 1.3644719289	-1.2056827552	 0.135161
H	 2.1813591358	 0.1189590715	 2.6939503888	 0.131951
H	 0.8793383686	 1.2741546481	 2.4589588367	 0.132618
H	-0.3479255437	-1.5502377788	 2.5506409144	 0.119779
H	-0.0273477903	-2.4402858351	 1.0559523116	 0.128947
H	 1.2566516092	-2.2433285863	 2.2719133158	 0.113015
79.9614	162.9976	194.4726	214.7365	235.0996	261.3121	299.2914	434.3415	458.2394	480.0659	495.0159	554.7124	657.8241	720.2063	738.2188	793.6575	809.8331	879.3352	959.5175	976.1621	1015.6798	1063.1015	1088.4734	1122.0768	1148.1359	1157.2318	1172.0221	1184.4327	1214.2088	1239.8058	1274.2416	1306.5744	1329.3099	1405.753	1421.0681	1441.5689	1444.8782	1466.0198	1486.4665	1496.0666	1500.0389	1502.089	1845.2491	2995.6373	3027.0696	3038.208	3041.665	3069.5321	3081.7395	3083.8667	3086.4411	3102.1664	3122.1204	3130.8415
CN1C2CC(=O)CC12C	CN1[C@H]2CC(=O)C[C@@]12C	
InChI=1S/C7H11NO/c1-7-4-5(9)3-6(7)8(7)2/h6H,3-4H2,1-2H3	InChI=1S/C7H11NO/c1-7-4-5(9)3-6(7)8(7)2/h6H,3-4H2,1-2H3/t6-,7+,8?/m0/s1
