17
gdb 84465	3.81876	1.1876	1.10631	3.7292	81.8	-0.2143	0.024	0.2383	1152.3575	0.13528	-380.825596	-380.81711	-380.816166	-380.859095	31.837	
C	-0.1817652339	 1.3994205847	 0.0475720953	-0.338953
N	 0.1118003224	-0.0130403818	 0.0206829935	-0.017719
C	 0.0678485518	-0.8292471844	-1.0820000007	 0.028738
N	-0.0092816868	-2.0970150194	-0.8768259989	-0.322411
C	-0.0159853852	-2.2826841967	 0.5575650941	 0.161853
C	 1.2222405548	-1.8194840311	 1.3191688224	-0.331413
C	 0.0855182729	-0.8534004191	 1.1810136426	-0.084829
C	-0.821189003	-3.3369866838	 1.0985534228	 0.226333
C	-1.4954419989	-4.2138849191	 1.570360785	-0.399576
H	 0.5937189261	 1.9618612709	 0.5800324387	 0.134527
H	-0.2312608657	 1.7716146904	-0.9788127268	 0.139175
H	-1.1478291652	 1.604578274	 0.5298004845	 0.130759
H	 0.1137618266	-0.3843117411	-2.0711096505	 0.126088
H	 1.361486124	-2.26526516	 2.2967190384	 0.129006
H	 2.1264080302	-1.6483855096	 0.7440403218	 0.121177
H	-0.4859606161	-0.50552574	 2.0343154162	 0.110757
H	-2.092831554	-4.9920893139	 1.9758570415	 0.186488
42.4832	133.7221	152.787	175.6471	316.8271	347.2497	403.3466	451.955	529.2123	553.8994	573.2813	644.7818	665.1278	667.6128	715.1992	819.9213	867.0585	919.7876	949.3635	979.2123	1029.9466	1056.5586	1077.6365	1088.0767	1153.9883	1200.9544	1244.2422	1286.8146	1328.4661	1359.2018	1426.4652	1459.4511	1469.5114	1478.4066	1525.3111	1633.2468	2239.6209	3002.8673	3059.2557	3118.6258	3131.9311	3173.3906	3191.1868	3232.658	3504.6295
CN1C=NC2(CC12)C#C	CN1C=N[C@]2(C[C@@H]12)C#C	
InChI=1S/C7H8N2/c1-3-7-4-6(7)9(2)5-8-7/h1,5-6H,4H2,2H3	InChI=1S/C7H8N2/c1-3-7-4-6(7)9(2)5-8-7/h1,5-6H,4H2,2H3/t6-,7+/m1/s1
