17
gdb 72077	2.98823	1.65373	1.49486	3.251	71.28	-0.2236	-0.0163	0.2073	947.2515	0.137136	-421.844205	-421.837162	-421.836218	-421.875413	28.379	
C	 0.0058607754	 1.4658507332	-0.0317353952	-0.497408
C	 0.0079311235	-0.0270860742	 0.0208924955	 0.469801
O	 0.2034107324	-0.6691265965	-1.2393038837	-0.296161
C	 0.1439327033	-2.0446464249	-0.8322530529	-0.076466
C	 1.1600986183	-2.1178405206	 0.3290242578	-0.24495
C	 0.6002406174	-0.9046702205	 1.0768513727	-0.153904
C	-0.9358932663	-0.8904660544	 0.8536373125	-0.291464
C	-1.1884484025	-2.0694446121	-0.0322613593	 0.473864
O	-2.1183303113	-2.8238221629	-0.1074335668	-0.337236
H	 0.9522506777	 1.8318200776	-0.4425312391	 0.136401
H	-0.8071797831	 1.8308573319	-0.666215882	 0.139174
H	-0.121440791	 1.8845562543	 0.9699346636	 0.127478
H	 0.2371046734	-2.7141987614	-1.6815895015	 0.101933
H	 1.0863973578	-3.0544241159	 0.8890173803	 0.119785
H	 2.190273732	-1.9672018513	-0.0050065898	 0.115318
H	 1.028097296	-0.5127412582	 1.9896264541	 0.103979
H	-1.6450728931	-0.5035670741	 1.570000704	 0.109856
137.5189	194.7849	242.262	300.5582	382.5932	477.9583	528.0709	567.7702	636.5373	675.6172	731.4371	788.5611	821.5554	869.5811	879.3499	895.5216	938.1425	943.8387	979.9553	1000.9294	1019.4145	1061.3037	1101.7229	1129.6774	1139.6601	1156.9856	1210.5108	1215.6529	1276.7449	1301.8229	1313.2608	1405.7073	1452.261	1475.8162	1485.477	1502.0519	1878.1648	3042.4704	3059.0295	3109.9702	3112.2918	3124.0976	3183.1838	3210.0208	3236.1119
CC12OC3CC1C2C3=O	C[C@@]12O[C@H]3C[C@@H]1[C@@H]2C3=O	
InChI=1S/C7H8O2/c1-7-3-2-4(9-7)6(8)5(3)7/h3-5H,2H2,1H3	InChI=1S/C7H8O2/c1-7-3-2-4(9-7)6(8)5(3)7/h3-5H,2H2,1H3/t3-,4+,5-,7-/m1/s1
