23
gdb 113079	2.00564	1.22964	0.92365	2.7205	81.55	-0.2437	0.0693	0.313	1404.1752	0.204644	-425.414726	-425.404373	-425.403429	-425.450559	37.881	
C	-0.4358413929	 1.3938791847	 0.5888424692	-0.382382
C	-0.2115305482	-0.0882922757	 0.2722653648	-0.188959
C	 0.8804586795	-0.6942203044	 1.1412153662	 0.152575
O	 0.5323909788	-0.6863746301	 2.5532710331	-0.328768
C	 0.6112759907	-2.1335901945	 2.6387950723	 0.114975
C	-0.7431631469	-2.6898630486	 3.0532199444	-0.068247
O	-1.1340025887	-2.1174301456	 4.286937605	-0.423774
C	 1.0876881484	-2.2366025054	 1.1662339374	-0.092719
C	 0.3491404984	-3.1314026566	 0.1771278513	-0.416377
H	 0.467568718	 1.9818815712	 0.392706509	 0.114553
H	-1.2455280433	 1.8104087862	-0.0173032538	 0.112364
H	-0.6963940672	 1.5231558047	 1.6431463506	 0.132587
H	-1.1466075979	-0.6414309022	 0.4162777168	 0.098102
H	 0.0727655586	-0.2118866544	-0.7811313209	 0.096434
H	 1.8132330259	-0.1333274325	 0.9876703135	 0.072903
H	 1.3575234102	-2.4289608536	 3.3873768732	 0.081227
H	-1.4927486445	-2.4940390289	 2.2710388972	 0.081095
H	-0.6868618617	-3.7741933361	 3.2013557538	 0.104764
H	-1.0273651848	-1.1643026626	 4.1736971358	 0.291326
H	 2.153191989	-2.4784912365	 1.1275232017	 0.083545
H	-0.7256051292	-2.9373236956	 0.1463733676	 0.1241
H	 0.7400335132	-2.9895259439	-0.8359031189	 0.119982
H	 0.4889496346	-4.1867504199	 0.4342151406	 0.120695
43.103	101.868	113.2827	163.5428	181.9865	209.9415	222.4851	266.5879	310.9189	428.2062	466.7619	472.733	490.4218	512.2556	734.0466	766.2343	835.725	842.3902	916.3406	948.7889	967.4282	999.7099	1029.9116	1042.9178	1058.7594	1082.8003	1109.4329	1152.9281	1173.9434	1179.2472	1216.7954	1248.363	1275.3127	1299.7706	1313.7328	1335.3717	1355.5876	1382.4147	1394.7592	1405.5902	1413.8623	1423.749	1438.9767	1473.1833	1496.2571	1498.1644	1499.5925	1504.4229	1509.4068	2983.3497	2997.1394	3022.6194	3022.8912	3036.7756	3038.5923	3065.2017	3065.6888	3070.0234	3096.8127	3104.5364	3118.4215	3120.6323	3775.4652
CCC1OC(CO)C1C	CC[C@H]1O[C@@H](CO)[C@H]1C	
InChI=1S/C7H14O2/c1-3-6-5(2)7(4-8)9-6/h5-8H,3-4H2,1-2H3	InChI=1S/C7H14O2/c1-3-6-5(2)7(4-8)9-6/h5-8H,3-4H2,1-2H3/t5-,6+,7-/m0/s1
