19
gdb 93157	2.52538	1.6309	1.07249	3.7898	77.56	-0.2224	-0.0023	0.2201	1133.5285	0.160962	-419.237311	-419.228313	-419.227369	-419.271898	32.695	
C	-0.0353337319	 1.4978276459	 0.0764177269	-0.3425
N	 0.0096404285	 0.0555086819	-0.1058872827	-0.11392
C	-1.2765858895	-0.6453663304	-0.1446895261	-0.227812
C	-1.4143557074	-1.5764217	-1.3255122193	-0.048608
C	-0.6639862411	-2.6703408243	-1.4080461054	-0.047603
C	 0.3295979068	-2.9937575705	-0.3184779468	-0.220447
N	 1.3189608652	-1.941172484	-0.0995912464	-0.352036
C	 1.2406725419	-0.5638957314	-0.0078314641	 0.463294
O	 2.2759043645	 0.0719301026	 0.1490127755	-0.424867
H	 0.9842795066	 1.8758776026	 0.0448401247	 0.171906
H	-0.6245449228	 1.9643968802	-0.7219283269	 0.113021
H	-0.4854445456	 1.7709311409	 1.0413259305	 0.112047
H	-1.4433475058	-1.1986373976	 0.7927605469	 0.117576
H	-2.049664287	 0.1239863244	-0.1833534843	 0.115267
H	-2.1131866269	-1.311871126	-2.1132229515	 0.100836
H	-0.7298465354	-3.3382695381	-2.261444379	 0.101823
H	-0.2086838529	-3.2319129301	 0.6134053944	 0.117229
H	 0.8917054069	-3.8935675503	-0.5795370111	 0.115579
H	 2.2783592961	-2.2298734159	-0.0029327753	 0.249214
36.714	79.8511	125.2353	171.2459	245.7565	308.1265	355.9206	396.1883	446.7137	454.1842	543.7018	634.2601	667.7637	744.5098	751.5722	810.7262	908.2954	956.7725	973.0156	987.1916	1035.0382	1084.5201	1118.2788	1156.936	1185.8179	1231.9349	1277.9507	1287.0114	1306.7664	1327.9778	1388.8083	1403.8679	1426.3556	1457.7428	1471.5729	1498.5901	1503.3553	1513.2192	1533.0088	1726.0066	1751.2753	2962.2028	2977.563	3000.8261	3054.5347	3090.1976	3105.4727	3163.9273	3175.6118	3187.2485	3653.0008
CN1CC=CCNC1=O	CN1CC=CCNC1=O	
InChI=1S/C6H10N2O/c1-8-5-3-2-4-7-6(8)9/h2-3H,4-5H2,1H3,(H,7,9)	InChI=1S/C6H10N2O/c1-8-5-3-2-4-7-6(8)9/h2-3H,4-5H2,1H3,(H,7,9)
