21
gdb 115892	2.43163	1.3614	1.03306	2.2008	77.75	-0.253	0.0725	0.3255	1219.9702	0.182819	-424.218775	-424.209742	-424.208798	-424.252223	35.045	
O	-0.0770873542	 1.465015828	-0.0337188868	-0.422854
C	 0.0275462438	 0.049399997	 0.0242516276	-0.101869
C	-1.3783805277	-0.5311851675	-0.0059782869	-0.013258
C	-2.1670308044	-0.2216857276	-1.2984241329	-0.233476
C	-3.2152807498	-1.355023908	-1.4164648813	-0.225683
C	-2.5653067448	-2.5514850515	-0.7386677439	-0.077554
C	-1.1288569644	-2.8801466876	-1.1101162889	-0.362496
C	-1.4355794129	-2.0523533042	 0.1173059724	 0.394207
O	-1.2360298445	-2.6114327529	 1.3833259474	-0.477779
H	 0.8106426243	 1.8343785186	-0.0312649162	 0.285577
H	 0.6086525015	-0.3426766564	-0.8268386829	 0.081259
H	 0.5395130411	-0.2695316373	 0.9481515842	 0.073118
H	-1.921045205	-0.1291657513	 0.8598059355	 0.087188
H	-2.6167596751	 0.7723979719	-1.2779427528	 0.111539
H	-1.4876823922	-0.2382711078	-2.1584448129	 0.098091
H	-4.1295465609	-1.088586657	-0.8727349052	 0.10187
H	-3.5030844758	-1.5460155288	-2.4559709713	 0.095175
H	-3.1830425207	-3.3682575439	-0.3830227187	 0.090229
H	-0.8149854949	-3.9002734177	-0.9171140561	 0.109564
H	-0.6765170354	-2.4277747491	-1.9870201032	 0.106642
H	-0.2877095978	-2.680544507	 1.5349038727	 0.28051
92.1216	130.4477	180.8264	230.7394	264.5678	277.4366	302.6244	331.8446	420.1585	467.5947	500.8458	552.4779	624.2686	719.462	819.0152	834.1202	864.1021	923.146	935.9288	966.1082	983.1161	991.8919	1041.3965	1063.4246	1074.696	1087.1027	1095.1701	1134.756	1178.8188	1210.4766	1230.8834	1254.4398	1263.1158	1274.2146	1315.7306	1323.2551	1337.4859	1343.0979	1379.4598	1403.3063	1458.7272	1480.439	1491.8427	1507.3682	1521.4817	2949.3013	2977.9842	3026.5873	3032.3142	3043.7393	3071.5395	3114.1057	3125.105	3177.2887	3213.6289	3803.1467	3829.9057
OCC1CCC2CC12O	OC[C@H]1CC[C@H]2C[C@@]12O	
InChI=1S/C7H12O2/c8-4-6-2-1-5-3-7(5,6)9/h5-6,8-9H,1-4H2	InChI=1S/C7H12O2/c8-4-6-2-1-5-3-7(5,6)9/h5-6,8-9H,1-4H2/t5-,6+,7-/m0/s1
