22
gdb 91036	2.10342	1.80941	1.51705	1.6334	85.21	-0.2195	0.0783	0.2979	1051.8038	0.194665	-367.151795	-367.143378	-367.142434	-367.183993	34.213	
C	-0.280721665	 1.5567773906	-0.0222819689	-0.416751
C	 0.0469551013	 0.0695326683	-0.0207000873	-0.007303
C	 1.1936131206	-0.4684548807	-0.94354733	-0.258785
C	 1.8184930041	-1.2226525728	 0.2678470441	-0.076943
C	 2.9192306679	-0.4971773312	 1.0739360352	-0.056518
N	 2.6726054361	 0.9578491739	 0.9523883619	-0.333554
C	 1.8961647979	 0.1640773059	 1.9358600829	-0.118052
C	 0.7445140779	-0.5910865255	 1.217554998	 0.358598
C	-0.0906196945	-1.4383422135	 2.1536344387	-0.492758
H	 0.6188354744	 2.1552899432	 0.1327515471	 0.139678
H	-0.7312204361	 1.852456707	-0.9769052502	 0.104667
H	-1.0009780845	 1.801976599	 0.767578232	 0.100191
H	-0.8723444883	-0.494958139	-0.2198326567	 0.060327
H	 0.8538986357	-1.1215736374	-1.7510435949	 0.085701
H	 1.8355616606	 0.3105675694	-1.3572707329	 0.11272
H	 1.9261353332	-2.3059737263	 0.2021588197	 0.061918
H	 3.9111883228	-0.86149123	 1.31445768	 0.087057
H	 3.4096277455	 1.4315426335	 1.4737412038	 0.227741
H	 1.9265296247	 0.4262773266	 2.9881921933	 0.081926
H	-0.7645876293	-0.8167855816	 2.7571190167	 0.114479
H	-0.7059869738	-2.1532084311	 1.5969505658	 0.113658
H	 0.5402286187	-2.0078967981	 2.8466522919	 0.112004
154.7113	196.0329	219.053	235.4543	239.3422	287.9132	328.8838	392.6036	486.3025	544.1804	628.3141	643.5176	755.194	789.1047	816.4857	835.2891	863.177	888.9105	906.2889	927.4703	943.2576	989.961	1008.184	1035.1045	1068.9473	1080.2001	1105.4025	1124.7594	1146.2984	1171.7025	1172.1617	1206.0125	1229.2734	1252.185	1267.2438	1289.1893	1321.9139	1330.8644	1362.6562	1386.0304	1403.1435	1409.4154	1473.4775	1490.52	1491.6227	1494.0667	1511.6314	3012.7835	3017.2731	3027.2252	3065.4492	3073.408	3078.9951	3089.7583	3102.8233	3129.7584	3135.213	3160.7537	3179.7649	3471.4474
CC1CC2C3NC3C12C	C[C@H]1C[C@H]2[C@H]3N[C@H]3[C@@]12C	
InChI=1S/C8H13N/c1-4-3-5-6-7(9-6)8(4,5)2/h4-7,9H,3H2,1-2H3	InChI=1S/C8H13N/c1-4-3-5-6-7(9-6)8(4,5)2/h4-7,9H,3H2,1-2H3/t4-,5-,6+,7+,8-/m0/s1
