16
gdb 123604	4.0141	1.68967	1.30218	2.6923	74.42	-0.2226	0.022	0.2446	938.6169	0.128907	-396.920111	-396.913882	-396.912937	-396.950651	25.127	
C	 0.0582116003	 1.4766404032	 0.0038180135	-0.248704
C	 1.2888198909	 0.6514045617	 0.0558811044	-0.034908
C	 1.9168323922	 0.3276135273	 1.4185180529	-0.197534
N	 0.8103134739	-0.3683578273	 2.0464112239	 0.048183
N	 0.6584364899	-0.904658378	 3.270561507	-0.301608
C	-0.562365645	-1.4446495712	 3.2100305623	 0.01277
C	-1.1907580038	-1.265405994	 1.950679566	-0.381216
C	-0.2523178956	-0.5596604393	 1.230254525	 0.425243
N	-0.0532596383	-0.005263599	-0.0566688249	-0.197289
H	-0.2802000669	 1.9618915429	 0.9155160243	 0.136121
H	-0.2045670142	 1.9834454534	-0.9192726676	 0.130676
H	 1.9225006498	 0.5774825155	-0.8206466926	 0.114671
H	 2.7911035622	-0.3238165646	 1.3124984867	 0.135621
H	 2.2116432982	 1.2140920379	 1.9885571723	 0.137608
H	-0.9573589787	-1.9551834504	 4.0766972136	 0.110541
H	-2.1645780149	-1.5967941082	 1.6332646531	 0.109823
151.2309	188.9316	331.6091	435.3875	444.9026	627.9679	658.3545	699.918	728.5768	773.4421	788.3244	797.2891	847.9311	883.955	924.5069	953.2784	976.1001	1048.4896	1082.058	1097.296	1109.3993	1118.4595	1173.6233	1196.4868	1204.0393	1262.8122	1311.043	1341.9959	1345.1879	1381.7093	1436.9949	1482.4837	1502.6284	1526.9294	1596.5198	3043.3521	3083.7248	3115.4938	3176.9361	3210.4302	3240.727	3283.2285
C1C2CN3N=CC=C3N12	C1[C@H]2Cn3nccc3N12	
InChI=1S/C6H7N3/c1-2-7-9-4-5-3-8(5)6(1)9/h1-2,5H,3-4H2	InChI=1S/C6H7N3/c1-2-7-9-4-5-3-8(5)6(1)9/h1-2,5H,3-4H2/t5-,8?/m0/s1
