20
gdb 59000	3.75292	1.08101	0.92355	2.0273	80.82	-0.2181	0.0055	0.2236	1305.859	0.171279	-403.126613	-403.118022	-403.117077	-403.159952	33.306	
C	 0.4026915327	 0.8688571856	-0.7658864587	-0.406056
C	-0.0848026145	 0.106002352	 0.4654614954	 0.027812
O	 0.0612767032	 0.8916578996	 1.6554801941	-0.425841
C	-1.4903363062	-0.4170304935	 0.3584969489	 0.277484
C	-2.3294689851	-0.3890550046	-0.6818954929	-0.204325
C	-3.599192994	-1.0905618904	-0.3502794606	-0.061144
C	-3.4604801464	-2.5366212031	-0.010911761	-0.233407
N	-3.4979199074	-1.5394340616	 1.0615543438	-0.103289
C	-2.1670539591	-1.1018173086	 1.5375603705	-0.24681
H	 1.4134178708	 1.24371483	-0.5872908915	 0.125376
H	 0.4200407963	 0.2260157408	-1.6512135068	 0.12056
H	-0.2492875425	 1.723526682	-0.979497867	 0.111543
H	 0.5890052573	-0.744702771	 0.6389336069	 0.095727
H	-0.5385614647	 1.642323686	 1.5758239193	 0.279096
H	-2.1350317983	 0.0501008997	-1.652331876	 0.099009
H	-4.5522653213	-0.6907773491	-0.6871938763	 0.094194
H	-4.3266235775	-3.192667622	-0.0417550127	 0.114497
H	-2.5113269957	-3.0114762351	-0.2530076761	 0.106982
H	-1.5917178151	-1.9581760708	 1.9130408798	 0.112174
H	-2.2891994025	-0.4146700059	 2.3827060811	 0.116419
57.8632	128.6813	189.8004	252.7276	278.8461	338.9001	346.9331	386.1841	474.0224	495.2588	525.8222	654.7444	709.9493	776.168	808.3524	875.1784	876.1927	906.0548	932.2981	993.1849	1015.6846	1039.3262	1047.2984	1062.4535	1088.3553	1109.1846	1112.216	1154.437	1186.3752	1219.1869	1259.6666	1278.2013	1284.1974	1326.2987	1358.9108	1373.627	1401.3154	1413.3559	1486.9487	1492.0612	1495.9362	1500.2717	1697.6058	3011.9981	3024.5671	3034.6326	3053.87	3092.2804	3104.078	3125.0855	3138.5733	3182.3437	3211.7137	3793.6384
CC(O)C1=CC2CN2C1	C[C@@H](O)C1=C[C@H]2CN2C1	
InChI=1S/C7H11NO/c1-5(9)6-2-7-4-8(7)3-6/h2,5,7,9H,3-4H2,1H3	InChI=1S/C7H11NO/c1-5(9)6-2-7-4-8(7)3-6/h2,5,7,9H,3-4H2,1H3/t5-,7+,8?/m1/s1
