16
gdb 96943	3.23821	1.09255	0.95996	2.8214	73.96	-0.2528	-0.0353	0.2175	1249.3987	0.12234	-437.852789	-437.844254	-437.84331	-437.886726	30.305	
C	 0.0232729019	 1.4021622241	 0.0943750793	-0.344236
N	 0.1532731403	-0.0447690399	-0.0045836827	-0.332471
C	 0.5843680477	-0.6938106117	 0.9668761971	 0.482152
O	 1.0278457375	-0.2597003807	 2.2376199925	-0.284683
C	 1.4657364854	-1.6047112348	 2.5296710611	 0.068443
C	 0.3002563478	-2.5473784806	 2.5946344919	-0.141185
C	-1.0669345706	-2.1470052889	 3.030770908	 0.159317
O	-1.8088215045	-2.8933968668	 3.6201920455	-0.259783
C	 0.9179388954	-2.1257433958	 1.234589711	-0.255121
H	 0.5663514713	 1.8631597016	-0.7369299576	 0.134922
H	-1.0317156592	 1.6713827137	-0.02442466	 0.136897
H	 0.3916543188	 1.8210228515	 1.0374906673	 0.131935
H	 2.4167032119	-1.727690622	 3.0293835381	 0.138291
H	 0.5612116246	-3.5658696492	 2.8687344851	 0.127121
H	-1.3650813205	-1.1102398738	 2.7796673464	 0.101143
H	 1.2790612521	-2.8572556766	 0.527496427	 0.137259
77.0226	99.7875	105.6762	203.7215	210.8277	229.8039	359.5324	428.9928	487.9181	577.8922	689.4992	725.9404	802.7542	826.0442	873.149	942.8525	977.5968	1011.1119	1026.3327	1041.0892	1068.7862	1072.3144	1096.0025	1133.8417	1169.0025	1183.6943	1278.15	1298.7714	1369.2877	1440.4674	1447.4926	1491.8682	1498.1009	1815.8606	1862.1559	2942.5959	3023.1606	3091.6343	3096.7028	3167.1652	3217.568	3238.9348
CN=C1OC2C(C=O)C12	CN=C1O[C@H]2[C@@H](C=O)[C@@H]12	
InChI=1S/C6H7NO2/c1-7-6-4-3(2-8)5(4)9-6/h2-5H,1H3	InChI=1S/C6H7NO2/c1-7-6-4-3(2-8)5(4)9-6/h2-5H,1H3/t3-,4+,5-/m0/s1
