19
gdb 53149	3.413	0.96404	0.87012	1.241	86.14	-0.2357	0.054	0.2897	1418.8876	0.15811	-385.819089	-385.809929	-385.808985	-385.854125	33.829	
C	 0.0659123919	 1.5371939205	-0.0517080651	-0.502287
C	 0.0360923176	 0.0828087557	 0.0050286198	 0.13304
C	 0.0084907981	-1.1212312506	 0.0483477702	 0.014724
C	 0.0094637616	-2.5692692922	 0.0775587332	-0.206777
C	-0.1329492701	-3.3328361744	 1.4447882104	-0.051755
C	-1.6245601921	-2.8958304971	 1.4816242547	-0.297894
C	-1.3358124638	-3.3616585345	 0.0194378734	 0.39995
O	-2.1655096969	-3.3265936832	-1.0814489447	-0.467959
C	-0.5662149037	-4.5783237634	 0.6251266569	-0.295863
H	 0.6443985734	 1.8891112553	-0.91321506	 0.147705
H	-0.9438263627	 1.9534774708	-0.1401949803	 0.147455
H	 0.5219509817	 1.9638633736	 0.8488369895	 0.145281
H	 0.7857317514	-2.9781773295	-0.5776701989	 0.089511
H	 0.5778738095	-3.3030680822	 2.2663693098	 0.086499
H	-2.296543169	-3.5270784005	 2.0701617019	 0.083096
H	-1.8228281563	-1.8333703153	 1.6274887155	 0.112139
H	-2.9640401307	-3.8260654301	-0.8791638042	 0.283726
H	 0.1928420932	-5.045903575	-0.0074812333	 0.093659
H	-1.1676206429	-5.3196118078	 1.1577049312	 0.085749
27.7705	84.6776	104.7939	213.6012	243.5477	282.0289	359.2163	367.3027	453.321	465.7253	511.2062	587.6466	657.4595	758.4532	815.5637	840.227	901.8177	936.8994	949.889	974.3059	1028.0447	1036.4983	1053.5264	1053.7482	1080.4264	1111.5181	1129.8878	1142.1908	1199.6642	1206.8561	1215.7272	1223.7378	1294.9465	1352.6783	1392.8404	1414.6522	1478.4202	1478.7279	1491.7666	1537.3163	2365.1261	3024.6284	3049.7757	3052.6632	3060.2904	3083.8687	3085.6638	3120.7933	3138.0812	3153.5164	3809.1009
CC#CC1C2CC1(O)C2	CC#C[C@H]1[C@H]2C[C@]1(O)C2	
InChI=1S/C8H10O/c1-2-3-7-6-4-8(7,9)5-6/h6-7,9H,4-5H2,1H3	InChI=1S/C8H10O/c1-2-3-7-6-4-8(7,9)5-6/h6-7,9H,4-5H2,1H3/t6-,7-,8-/m0/s1
