21
gdb 116923	4.09873	0.60615	0.55555	0.811	91.86	-0.2362	0.0369	0.2731	2062.5009	0.180131	-387.039011	-387.028393	-387.027449	-387.076528	37.023	
C	-0.976608116	 1.4625791963	 0.0901645432	-0.21744
O	-1.3821979794	 0.1232365999	-0.0618931943	-0.227132
C	-0.2770007779	-0.7535992496	-0.1935880519	-0.204821
C	-0.7304826768	-2.1268964107	-0.351215211	-0.015605
C	-1.0774684262	-3.2738911905	-0.4838943361	 0.173964
C	-1.5016304397	-4.6308167687	-0.6577841538	-0.194141
C	-1.0401119447	-5.7115422063	 0.3151675478	-0.286686
C	-2.4769050256	-5.2838162236	 0.3214684617	 0.018783
C	-3.0581227064	-4.5091729185	 1.4803252429	-0.406065
H	-1.8819500163	 2.0667539469	 0.1823729037	 0.129266
H	-0.3597267373	 1.6059028687	 0.9923076014	 0.102341
H	-0.3981438429	 1.8183661034	-0.7779290875	 0.102855
H	 0.3386740336	-0.4613502155	-1.0629656121	 0.111969
H	 0.3789596107	-0.6729387773	 0.691618523	 0.110201
H	-1.6023417062	-4.9452400981	-1.6928277948	 0.107034
H	-0.7745673611	-6.6766602754	-0.1017174331	 0.114839
H	-0.4137502383	-5.3852941534	 1.1381003076	 0.122207
H	-3.1706531431	-5.9717288467	-0.1548752649	 0.089915
H	-2.3335711307	-3.7948249492	 1.8800247393	 0.130346
H	-3.9432087751	-3.9426629293	 1.1724746905	 0.123908
H	-3.3542668507	-5.1857965023	 2.2893425982	 0.114262
24.1996	62.3214	73.304	120.692	158.8903	210.6503	233.8734	263.8421	330.4207	355.7406	377.897	443.2019	524.8857	604.1133	741.2954	765.4959	854.6174	886.3095	933.7421	972.3547	989.9886	1024.9636	1066.6696	1068.2746	1103.625	1140.2925	1145.8352	1182.2858	1186.5607	1199.546	1219.3443	1244.5681	1254.7966	1380.4282	1401.4019	1413.8418	1424.5845	1477.0741	1483.2668	1484.4887	1492.7313	1494.588	1501.8733	1515.9395	2360.1396	2938.692	2954.7627	2965.2811	3006.2841	3034.8791	3095.7388	3115.1365	3118.3825	3135.4061	3137.0812	3146.5717	3225.2971
COCC#CC1CC1C	COCC#C[C@H]1C[C@H]1C	
InChI=1S/C8H12O/c1-7-6-8(7)4-3-5-9-2/h7-8H,5-6H2,1-2H3	InChI=1S/C8H12O/c1-7-6-8(7)4-3-5-9-2/h7-8H,5-6H2,1-2H3/t7-,8+/m1/s1
