18
gdb 8917	3.62974	1.24893	0.98702	3.9344	68.88	-0.2699	0.0273	0.2972	1184.1433	0.152681	-381.128176	-381.118556	-381.117612	-381.162548	34.138	
C	 0.0046417656	 1.5699739974	 0.1002075809	-0.387925
C	 0.0363457249	 0.0412900331	 0.034865396	-0.194869
C	 0.6871774554	-0.4826445163	-1.2472947055	 0.157826
O	 2.0388185454	-0.0789147958	-1.3753683328	-0.41861
C	 0.565993796	-2.027147088	-1.3577775564	-0.177538
N	-0.8392596626	-2.4295754794	-1.4440946384	-0.49654
C	 1.3795493431	-2.5338085052	-2.4842556111	 0.272254
N	 1.9472873714	-2.9817056519	-3.386324567	-0.324626
H	 1.0088381362	 1.9880440282	-0.0105303553	 0.127792
H	-0.6169562656	 1.9840362808	-0.7010781277	 0.119215
H	-0.4083374788	 1.9129808481	 1.0531346472	 0.115252
H	 0.5974694609	-0.3602942964	 0.8929554553	 0.083448
H	-0.9728275739	-0.3742272547	 0.1072654258	 0.128421
H	 0.1816617038	-0.0480121789	-2.1197211222	 0.098393
H	 2.5052783875	-0.3227375902	-0.5674832704	 0.283536
H	 0.9786948647	-2.4607568162	-0.437063294	 0.120304
H	-1.2178096984	-2.1557576407	-2.3470551894	 0.245108
H	-0.9162864756	-3.440930834	-1.3984790451	 0.248558
61.2119	99.5419	134.761	214.0695	224.1418	243.0518	269.8205	287.8733	305.6493	400.52	412.4351	480.5693	583.9523	605.5949	784.5855	852.7059	883.967	927.9102	994.0689	1015.1121	1065.456	1104.6971	1126.3544	1147.6352	1174.738	1259.355	1287.3198	1325.5015	1360.9148	1385.6066	1389.9464	1407.9002	1419.769	1488.7586	1497.3981	1509.5891	1663.7589	2347.5923	2994.2954	3021.1196	3038.7811	3041.4775	3089.237	3106.6848	3122.1203	3494.541	3573.3491	3793.8921
CCC(O)C(N)C#N	CC[C@@H](O)[C@@H](N)C#N	
InChI=1S/C5H10N2O/c1-2-5(8)4(7)3-6/h4-5,8H,2,7H2,1H3	InChI=1S/C5H10N2O/c1-2-5(8)4(7)3-6/h4-5,8H,2,7H2,1H3/t4-,5+/m0/s1
