14
gdb 34714	3.40455	1.71958	1.52529	4.416	67.79	-0.2557	-0.0303	0.2253	863.623	0.103184	-395.677609	-395.671281	-395.670337	-395.708354	24.876	
N	 0.0875131196	-1.1909995168	-0.0415920306	-0.316703
C	 0.075462212	-0.0369517263	 0.0180390427	 0.29317
C	 0.0134026855	 1.4233520341	 0.0698671177	-0.118642
C	-0.2711329364	 2.1513032847	 1.3697210585	-0.109811
C	 1.0256890898	 2.3357328214	 2.1988346215	-0.00526
N	 2.1485279579	 1.4451745229	 1.9692728035	-0.173623
C	 2.2916702997	 1.4297458544	 0.7060076653	 0.012268
N	 1.3422474241	 2.2173357036	-0.0677660931	-0.19039
C	 0.7844811311	 3.1579603078	 0.9847126906	-0.047254
H	-0.645544466	 1.7706400425	-0.7290624593	 0.150173
H	-1.2442813327	 2.2920355256	 1.8208960639	 0.121041
H	 0.8927725103	 2.7290550326	 3.1978235666	 0.119683
H	 3.0101422708	 0.8128017604	 0.1785898898	 0.147671
H	 0.7806747843	 4.230846443	 0.8451959228	 0.117677
129.456	155.6336	338.2076	394.69	511.4296	533.3873	573.914	729.0869	778.9903	812.5018	823.3534	831.9049	870.9804	888.1583	921.49	967.4895	985.6685	1006.1823	1027.9477	1059.3152	1063.6482	1075.542	1126.9259	1199.1011	1232.7573	1282.8375	1314.4279	1343.8947	1370.6846	1657.2677	2355.076	3088.6069	3199.7842	3207.2776	3214.9198	3220.2132
N#CC1C2C3N=CN1C23	N#C[C@H]1[C@H]2[C@H]3[N][CH]N1[C@@H]23	
InChI=1S/C6H5N3/c7-1-3-4-5-6(4)9(3)2-8-5/h2-6H	InChI=1S/C6H5N3/c7-1-3-4-5-6(4)9(3)2-8-5/h2-6H/t3-,4-,5+,6-/m0/s1
