17
gdb 46411	3.95059	0.84554	0.73588	5.5215	74.31	-0.2429	-0.0381	0.2048	1490.6799	0.135299	-418.009161	-418.000226	-417.999282	-418.043931	31.656	
O	 0.3314509046	 0.0667999239	-0.0604258627	-0.293873
C	 0.1210549413	 1.242397097	 0.0242720213	 0.415951
C	-1.1086558476	 2.0977520157	 0.3535981723	-0.337667
C	-0.1235475522	 3.2620711369	 0.6841106571	-0.264327
C	 1.0436101239	 2.4827359447	 0.0082555708	-0.060039
N	 2.2837979259	 2.3631960148	 0.7494022323	-0.313185
C	 3.2430837644	 1.4698350577	 0.0958576764	-0.274044
C	 4.4812466574	 1.3811558832	 0.8725917501	 0.256744
N	 5.4677310763	 1.3317234304	 1.4711399868	-0.29865
H	-1.7254524133	 2.2827385392	-0.5317097246	 0.139353
H	-1.7510983203	 1.7220102614	 1.1525724684	 0.141975
H	-0.3595881069	 4.2381070608	 0.2603275235	 0.114846
H	 0.0494326287	 3.3580371992	 1.7576199375	 0.13184
H	 1.1755787057	 2.8120976624	-1.0414947399	 0.084493
H	 2.7017221592	 3.2803891636	 0.8747498103	 0.236671
H	 2.7924208429	 0.4748124023	 0.0243245058	 0.190337
H	 3.5076220699	 1.7750929867	-0.9332258054	 0.129576
55.4203	80.0306	114.6153	131.6259	202.0994	285.7993	362.0612	395.4121	433.3854	544.6722	559.0247	680.7519	740.7796	755.4273	795.4844	913.1116	932.8193	966.9757	993.6268	1035.81	1051.5448	1090.2312	1126.1785	1178.0443	1196.0669	1226.822	1235.2898	1261.8404	1275.3554	1358.157	1383.8717	1441.0439	1483.1144	1489.65	1497.107	1886.1934	2369.1211	2903.8711	2940.0044	3063.0445	3086.1503	3086.3705	3122.5411	3148.5401	3510.2093
O=C1CCC1NCC#N	O=C1CC[C@H]1NCC#N	
InChI=1S/C6H8N2O/c7-3-4-8-5-1-2-6(5)9/h5,8H,1-2,4H2	InChI=1S/C6H8N2O/c7-3-4-8-5-1-2-6(5)9/h5,8H,1-2,4H2/t5-/m1/s1
