16
gdb 52363	5.82842	0.59727	0.55113	3.3071	75.79	-0.259	-0.0358	0.2232	1881.1088	0.12082	-437.857915	-437.848136	-437.847192	-437.894323	33.277	
N	 0.033092128	 1.3951879806	 0.0165403692	-0.536471
C	 0.0165068792	 0.1229071485	 0.0033049708	 0.256742
O	-1.1326398054	-0.5770637365	-0.0635390588	-0.232859
C	-2.33660999	 0.198265821	-0.1301277444	-0.067999
C	-3.4972638285	-0.7885810117	-0.1993375166	-0.288842
C	-4.8340100591	-0.0966787708	-0.0360565778	 0.154833
O	-5.7669756356	-0.221768901	-0.7846801167	-0.229348
C	 1.1629289202	-0.7421009553	 0.0561413786	 0.277629
C	 2.1527286762	-1.4224973552	 0.102540145	-0.403032
H	 0.9883732536	 1.7406056685	 0.0700620582	 0.239191
H	-2.4015151162	 0.8438208775	 0.7533324635	 0.128416
H	-2.3006945675	 0.85220141	-1.0072387132	 0.138436
H	-3.4945849541	-1.351891073	-1.1351694729	 0.135401
H	-3.3913457967	-1.4993086047	 0.6324927532	 0.136516
H	-4.9074591009	 0.5534817442	 0.8673428264	 0.078169
H	 3.0258862166	-2.0268975122	 0.1427093352	 0.213219
44.516	56.6193	81.86	109.6078	150.3425	200.1082	303.8349	314.2734	340.8134	510.4002	560.7013	590.0744	664.0674	664.3874	731.6019	774.1111	848.8463	867.1393	910.6422	993.4378	1035.7393	1105.5553	1117.9311	1138.3287	1228.6229	1275.8148	1301.0037	1356.7501	1424.9801	1432.1208	1465.9608	1514.5416	1682.722	1840.5058	2237.6707	2857.71	3024.2036	3043.0273	3086.1875	3119.9995	3498.11	3528.9558
N=C(OCCC=O)C#C	[NH][C](OCCC=O)C#C	
InChI=1S/C6H7NO2/c1-2-6(7)9-5-3-4-8/h1,4,7H,3,5H2	InChI=1S/C6H7NO2/c1-2-6(7)9-5-3-4-8/h1,4,7H,3,5H2
