17
gdb 129596	3.01547	1.35172	0.98497	3.9778	74.91	-0.2099	0.014	0.224	1175.3138	0.137233	-417.990684	-417.982615	-417.981671	-418.023871	30.573	
N	-0.168564869	 1.255861218	 0.4003594411	-0.594181
C	-0.1242226567	-0.0827058229	 0.1010282517	 0.400193
C	-1.1081805194	-0.9846873124	-0.2245751055	 0.070947
C	-0.3522714341	-2.1586769175	-0.488714324	-0.031481
N	 0.9383521696	-2.0057741858	-0.3332547157	-0.168869
O	 1.0847710353	-0.6490337483	 0.0505408561	-0.214803
C	-2.5670617014	-0.7500237716	-0.3045363522	-0.157113
C	-3.5320829688	-1.6894825451	 0.3784010125	-0.257418
C	-3.3402690518	-0.2996110508	 0.9241467965	-0.266612
H	 0.6116240386	 1.5910368205	 0.9476208596	 0.266303
H	-1.0637869322	 1.568726113	 0.7469833766	 0.26742
H	-0.7253237479	-3.1299386814	-0.7864737759	 0.124703
H	-2.9254978125	-0.3306711603	-1.2427244221	 0.099455
H	-4.4628995846	-1.9190252655	-0.1274885668	 0.115605
H	-3.113700039	-2.512698495	 0.9464022394	 0.119805
H	-2.7944302931	-0.2031482781	 1.8566081376	 0.112299
H	-4.139667083	 0.4208589033	 0.791027631	 0.113747
47.9644	143.3117	151.1773	271.3116	301.7308	328.0396	400.6556	491.343	574.6637	611.9171	645.2687	727.7421	750.6524	802.4154	831.518	884.9253	907.4226	920.7633	926.0768	950.6903	1055.2371	1064.4958	1084.0483	1090.1788	1135.7079	1197.259	1202.2716	1208.0665	1249.1478	1331.2462	1384.2056	1451.4749	1466.2335	1500.8541	1542.2796	1628.7577	1681.5767	3113.7552	3131.1119	3140.8473	3213.7461	3229.6317	3230.5512	3564.3755	3671.5352
NC1=C(C=NO1)C1CC1	Nc1c(cno1)C1CC1	
InChI=1S/C6H8N2O/c7-6-5(3-8-9-6)4-1-2-4/h3-4H,1-2,7H2	InChI=1S/C6H8N2O/c7-6-5(3-8-9-6)4-1-2-4/h3-4H,1-2,7H2
