21
gdb 61411	3.10402	0.86466	0.75415	1.3462	79.69	-0.244	-0.013	0.231	1583.577	0.177669	-424.279335	-424.268148	-424.267204	-424.317176	38.706	
C	-0.0938141108	 1.5262572934	 0.2081384487	-0.416003
C	 0.0271655295	 0.0054991054	-0.0068840679	-0.082587
C	 0.7398062091	-0.3358152769	-1.3160780153	-0.308687
C	-0.1310793291	-0.1653365473	-2.5524092645	 0.376756
C	 0.5742497741	-0.3097839934	-3.8888513423	-0.472394
O	-1.3192191225	 0.0609101106	-2.4808686786	-0.301106
C	 0.6768405769	-0.705653579	 1.1828491531	 0.376634
C	 0.105601445	-0.414493935	 2.5612830315	-0.479195
O	 1.5947885381	-1.4834991465	 1.0424539744	-0.30469
H	 0.8935941274	 1.9910932356	 0.3088360298	 0.118276
H	-0.601077709	 1.9766058315	-0.6482990731	 0.142238
H	-0.6753962149	 1.7685501711	 1.1011075079	 0.121104
H	-0.9974949467	-0.3877350946	-0.0743447379	 0.119282
H	 1.6549235634	 0.2585745645	-1.4372482522	 0.116324
H	 1.0907062006	-1.3750739511	-1.288765545	 0.145865
H	 1.1528760797	-1.2390001957	-3.9251922915	 0.139707
H	-0.1553522717	-0.290991023	-4.6991805291	 0.14197
H	 1.2874537619	 0.5120200075	-4.0227699973	 0.141138
H	-0.9877526701	-0.3693670134	 2.5464249088	 0.134856
H	 0.4434176117	-1.1814507024	 3.2593492235	 0.142725
H	 0.4634634775	 0.5596763187	 2.9132722271	 0.147787
36.0068	55.676	64.2517	112.241	139.4557	144.6642	217.085	257.4502	313.6569	317.5941	350.1801	467.7537	474.135	551.9049	588.5828	612.4127	762.4156	812.1858	840.5812	917.3484	955.1816	965.3335	968.5614	993.283	1090.6692	1122.9777	1142.1574	1175.4389	1192.2919	1247.8975	1300.3596	1322.4276	1378.3249	1382.1888	1388.7256	1407.1677	1447.5151	1464.0647	1464.7052	1475.9229	1476.6676	1501.7688	1511.0117	1798.2313	1804.2589	3015.2592	3031.1338	3038.1922	3040.0908	3041.0805	3063.46	3098.3024	3103.3904	3111.1895	3128.8155	3151.2671	3152.7248
CC(CC(C)=O)C(C)=O	C[C@@H](CC(=O)C)C(=O)C	
InChI=1S/C7H12O2/c1-5(7(3)9)4-6(2)8/h5H,4H2,1-3H3	InChI=1S/C7H12O2/c1-5(7(3)9)4-6(2)8/h5H,4H2,1-3H3/t5-/m0/s1
