19
gdb 49784	3.144	1.28529	1.01798	3.0936	81.22	-0.2363	-0.023	0.2133	1183.0514	0.160381	-385.90039	-385.89235	-385.891406	-385.93378	30.685	
O	 1.0190864586	-0.4347710242	 0.0242770968	-0.250181
C	 0.4463306288	 0.6209089153	 0.1015160469	 0.160529
C	 1.119392006	 1.9853815614	 0.0032707305	-0.132026
C	 0.5794506433	 2.7445319572	-1.1869126536	-0.075039
C	 0.3005010272	 4.0469357855	-1.181845422	-0.069822
C	 0.4780732622	 4.9536955488	 0.0043717865	-0.275522
C	 0.6365931544	 4.2146997722	 1.3212645031	-0.037633
C	-0.416438255	 3.229871532	 1.7572518945	-0.292688
C	 0.9472428588	 2.7358347643	 1.3191341155	-0.043934
H	-0.6550290763	 0.6697128019	 0.2605004976	 0.076845
H	 2.1861810598	 1.7795264402	-0.1571082623	 0.102248
H	 0.4516165459	 2.1718332394	-2.1023695361	 0.098644
H	-0.0511331972	 4.5148384322	-2.0983164225	 0.094362
H	 1.3635531448	 5.5831781498	-0.1683193154	 0.117589
H	-0.3662683174	 5.6543792664	 0.0632578969	 0.109979
H	 1.1032446127	 4.7963645295	 2.1102799143	 0.0873
H	-0.6663106524	 3.1672431307	 2.8102795899	 0.11424
H	-1.2560500051	 3.0709435663	 1.0886799614	 0.119106
H	 1.5949043809	 2.3742962113	 2.1116502379	 0.096002
44.2817	79.4834	213.7178	262.431	315.1879	364.6284	413.0572	470.9863	525.3848	608.5127	711.0863	750.6301	817.4238	830.5379	846.7667	902.739	937.1403	949.6667	1008.8833	1030.4208	1032.8596	1059.1495	1075.2391	1090.8456	1120.0538	1139.2769	1147.4338	1211.4057	1229.1699	1243.3538	1257.0214	1324.2375	1356.1269	1371.1615	1412.995	1420.5836	1424.7321	1476.3065	1490.4457	1720.171	1830.6108	2873.5725	2999.1848	3019.7764	3022.6774	3134.355	3143.7345	3146.5346	3157.2074	3166.5698	3219.5577
O=CC1C=CCC2CC12	O=C[C@H]1C=CC[C@H]2C[C@@H]12	
InChI=1S/C8H10O/c9-5-7-3-1-2-6-4-8(6)7/h1,3,5-8H,2,4H2	InChI=1S/C8H10O/c9-5-7-3-1-2-6-4-8(6)7/h1,3,5-8H,2,4H2/t6-,7+,8+/m0/s1
