16
gdb 113123	2.45267	1.19058	0.89279	4.3499	77.41	-0.2856	-0.0257	0.2599	1311.4242	0.121044	-400.70271	-400.693299	-400.692355	-400.737247	33.662	
C	-0.0266361944	 1.491762828	-0.3228971402	-0.381884
C	-0.0105810412	 0.1242739528	 0.3729688016	-0.232109
C	-1.373172759	-0.5172161111	 0.3579205197	 0.043323
O	-1.8311078579	-1.0773772372	-0.8695309651	-0.262627
C	-1.5771674706	-1.9910313607	 0.2108351001	 0.088546
C	-0.4714165792	-2.9029018945	 0.0655554684	 0.280237
C	 0.4369140903	-3.6815687663	-0.0368616461	-0.405289
C	-2.7732813872	-2.5713733134	 0.8033086769	 0.233004
N	-3.7179120879	-3.0235800545	 1.2908762818	-0.3273
H	 0.9670349948	 1.9470002169	-0.2999272474	 0.124856
H	-0.3312535591	 1.3897894587	-1.3684665843	 0.13986
H	-0.7228654993	 2.1808567804	 0.1665365314	 0.123495
H	 0.7069722055	-0.5435020305	-0.1116737595	 0.125475
H	 0.3026914318	 0.2338859688	 1.4185276566	 0.117194
H	-2.1538141242	 0.0070482007	 0.9126391921	 0.118556
H	 1.2398347178	-4.3709936081	-0.1339529562	 0.214661
69.5866	117.8222	127.8606	140.9444	201.4486	237.7476	266.0816	348.7321	426.4139	484.8581	530.8133	587.429	627.637	642.9896	666.7601	685.7062	765.042	840.3986	921.718	937.8069	1032.5232	1045.4166	1126.8318	1163.944	1221.3127	1288.9543	1309.4921	1347.6708	1411.3024	1449.0974	1476.8235	1499.8201	1507.781	2247.3937	2363.2835	3040.1388	3042.1015	3090.0286	3102.748	3117.2099	3122.8719	3497.8249
CCC1OC1(C#C)C#N	CC[C@H]1O[C@]1(C#C)C#N	
InChI=1S/C7H7NO/c1-3-6-7(4-2,5-8)9-6/h2,6H,3H2,1H3	InChI=1S/C7H7NO/c1-3-6-7(4-2,5-8)9-6/h2,6H,3H2,1H3/t6-,7-/m1/s1
