18
gdb 73195	2.46267	1.47447	1.2956	3.8957	71.78	-0.2315	-0.0252	0.2063	1067.2137	0.146211	-439.043946	-439.035413	-439.034469	-439.077362	31.638	
C	-0.0650243982	 1.2807947805	-0.3102801785	-0.517461
C	 0.1116642541	-0.1674966847	 0.0578856907	 0.279612
N	-1.1196133682	-0.9895170059	 0.2475995753	-0.352083
C	-0.688459644	-1.395624446	 1.618001583	-0.187935
C	 0.6965164517	-0.7733531339	 1.3640787131	 0.063643
O	 1.5849954489	-1.6230001983	 0.6096873835	-0.315839
C	 1.2055135313	-1.0185859	-0.647737138	 0.018843
C	 0.695972887	-2.0080543509	-1.6751567696	 0.152149
O	 0.5500373284	-1.7217985458	-2.8357349015	-0.255363
H	 0.8956194309	 1.8036222125	-0.3385181745	 0.132416
H	-0.5217247983	 1.3647604077	-1.3033509279	 0.145952
H	-0.7141037592	 1.7941063699	 0.4077072188	 0.120541
H	-1.9740340402	-0.4455402237	 0.2263285951	 0.222667
H	-1.2301202219	-0.8918706782	 2.4286847677	 0.100607
H	-0.7003189111	-2.4757106122	 1.7923334036	 0.116712
H	 1.2071614109	-0.2384270754	 2.1674601379	 0.086489
H	 2.0247061879	-0.4277815282	-1.0776772799	 0.097434
H	 0.4592437299	-3.0128288775	-1.2675815588	 0.091617
78.6622	91.4175	181.9136	215.2101	222.3774	300.2737	363.0557	387.6763	466.269	519.3162	626.5918	663.95	755.4243	836.5621	848.6888	888.2809	940.006	984.2538	999.3581	1019.6708	1045.4108	1078.5955	1088.904	1142.4864	1147.6857	1176.4118	1212.6829	1226.1016	1268.8568	1296.9099	1328.0543	1341.3447	1397.864	1403.3098	1416.9634	1487.9065	1489.537	1496.3852	1826.0469	2920.1301	3018.9233	3026.5696	3030.2666	3084.3489	3089.9442	3093.9326	3108.8599	3545.9059
CC12NCC1OC2C=O	C[C@]12NC[C@H]1O[C@H]2C=O	
InChI=1S/C6H9NO2/c1-6-4(2-7-6)9-5(6)3-8/h3-5,7H,2H2,1H3	InChI=1S/C6H9NO2/c1-6-4(2-7-6)9-5(6)3-8/h3-5,7H,2H2,1H3/t4-,5+,6+/m1/s1
