18
gdb 27155	3.03123	1.31346	0.99405	1.9742	80.35	-0.2154	0.0104	0.2258	1211.8211	0.148492	-401.979073	-401.970791	-401.969847	-402.012591	30.605	
C	 0.2243716109	 1.5349839903	 0.1873523149	-0.494808
C	 0.0756773876	 0.0607717018	 0.013195396	 0.143972
C	-0.112644657	-0.6726381394	-1.1178225062	 0.298892
O	-0.1882624141	-1.9959176574	-0.7457206923	-0.192401
C	-0.0394887479	-1.9793314713	 0.5997726829	 0.055837
N	 0.1193604172	-0.8065020111	 1.1088415476	-0.301831
C	-0.2409424938	-0.3579600028	-2.5426849175	-0.109778
C	 0.3200979293	-1.2868726281	-3.6031273695	-0.264722
C	-1.1675515428	-1.156498829	-3.4403909308	-0.264726
H	 1.1863148545	 1.7790140367	 0.6509012876	 0.138293
H	 0.1656639937	 2.0591267034	-0.7699840131	 0.121288
H	-0.5587600352	 1.9324911656	 0.8419239791	 0.138291
H	-0.0685048938	-2.9338975625	 1.1014021069	 0.144427
H	-0.1702741349	 0.7043096105	-2.7477086699	 0.095549
H	 0.7918146465	-0.834780834	-4.4683152941	 0.11736
H	 0.786325127	-2.2021080875	-3.2574331869	 0.128496
H	-1.6989619634	-1.9843100712	-2.9855748851	 0.128503
H	-1.729018034	-0.613860024	-4.1925565995	 0.117359
59.2271	112.4832	159.8146	161.358	260.1866	276.0537	414.8844	469.4241	603.7511	664.9389	702.9717	716.2497	794.6171	819.0995	823.95	906.8224	913.4408	958.0944	977.0117	1048.7132	1065.0237	1065.8732	1084.9191	1100.69	1123.508	1146.3647	1202.8556	1213.7487	1249.9886	1287.0628	1358.7813	1406.4993	1428.253	1463.2969	1474.6334	1491.1593	1496.7066	1567.1988	1676.5514	3035.7002	3089.5557	3118.9209	3139.0453	3142.3759	3174.5122	3222.8082	3237.9357	3273.5802
CC1=C(OC=N1)C1CC1	Cc1c(ocn1)C1CC1	
InChI=1S/C7H9NO/c1-5-7(6-2-3-6)9-4-8-5/h4,6H,2-3H2,1H3	InChI=1S/C7H9NO/c1-5-7(6-2-3-6)9-4-8-5/h4,6H,2-3H2,1H3
