18
gdb 73382	2.93427	1.65045	1.32621	3.103	75.77	-0.2398	-0.0152	0.2246	1004.9526	0.148764	-401.948005	-401.940545	-401.9396	-401.979653	29.57	
C	-0.0026531483	 1.4410171794	 0.0445936623	-0.482488
C	 0.0098283939	-0.0682663959	-0.0157378044	 0.345376
C	-0.4771341853	-0.7530396554	-1.2968983901	-0.307392
C	-1.1310637306	-2.057525119	-0.7845627248	-0.222129
C	-0.5496322932	-2.1868479985	 0.6213767962	-0.135356
N	-0.4558381077	-0.7659482045	 1.1852124918	-0.164589
C	 1.0463098746	-0.7675018598	 0.8322332656	-0.234887
C	 0.9881415786	-2.2417805486	 0.6286968433	 0.450287
O	 1.7954234354	-3.1276755894	 0.6748684311	-0.331608
H	 0.6830912516	 1.8630879242	-0.6971188149	 0.127299
H	-1.0084429508	 1.8183504691	-0.1671932679	 0.129209
H	 0.2924387963	 1.7978578174	 1.0343025505	 0.134585
H	-1.1972401621	-0.1133776002	-1.8150024413	 0.110961
H	 0.3472826096	-0.9418355623	-1.9902419411	 0.121227
H	-2.2192906901	-1.9544978844	-0.729738315	 0.11669
H	-0.905285964	-2.929739917	-1.4031962383	 0.124318
H	-1.0470858967	-2.8887308705	 1.2905306184	 0.105461
H	 1.7893812686	-0.2131128145	 1.3965640587	 0.113037
133.4728	189.4497	206.2782	243.6068	323.4411	415.3314	472.3936	530.6297	578.1089	655.2573	715.6383	744.8184	821.6495	840.7778	849.3484	865.2514	931.7971	983.5858	995.1572	1013.4649	1027.6756	1054.7054	1065.5921	1127.168	1152.8	1173.2792	1214.314	1246.8578	1257.1963	1286.8332	1315.7422	1342.7575	1374.7627	1417.2864	1481.4992	1488.7569	1493.0591	1503.4539	1881.131	3038.5546	3052.7889	3060.1822	3093.5447	3104.9006	3112.1817	3125.2675	3127.0936	3171.1361
CC12CCC3N1C2C3=O	C[C@]12CC[C@@H]3N1[C@H]2C3=O	
InChI=1S/C7H9NO/c1-7-3-2-4-5(9)6(7)8(4)7/h4,6H,2-3H2,1H3	InChI=1S/C7H9NO/c1-7-3-2-4-5(9)6(7)8(4)7/h4,6H,2-3H2,1H3/t4-,6-,7+,8?/m0/s1
