21
gdb 75596	2.6105	1.37432	1.02346	1.3219	88.38	-0.2299	-0.0136	0.2162	1235.1809	0.18377	-387.094234	-387.085608	-387.084664	-387.127091	33.648	
C	-0.0024771321	 1.560544444	-0.1919371848	-0.48073
C	 0.0136533501	 0.0607348394	-0.0122613405	 0.287531
C	-1.1100354166	-0.6709871489	-0.0962658926	-0.14621
C	-1.2240891436	-2.1723396234	-0.0774540832	-0.260819
C	-1.2875550703	-2.8419627667	 1.3168413545	-0.067088
O	-0.0376453285	-3.065504948	 1.9270961555	-0.237548
C	 0.6955131466	-1.8879115631	 2.2640383548	-0.131171
C	 1.6352423539	-1.4210670097	 1.1793079944	-0.062206
C	 1.3325039989	-0.5443462175	 0.2136659072	-0.133739
H	 0.6566223751	 1.8608208859	-1.0167000304	 0.123988
H	-1.0079491936	 1.9290550813	-0.4113264199	 0.120556
H	 0.3657239765	 2.0757970538	 0.7033975952	 0.126807
H	-2.0451817868	-0.1318710394	-0.2430429784	 0.078206
H	-2.1392576982	-2.4532904755	-0.6115989819	 0.096584
H	-0.3842952285	-2.6304679619	-0.6110378524	 0.117884
H	-1.943935499	-2.2557913258	 1.9810860926	 0.084526
H	-1.7245709843	-3.8396609386	 1.2085016178	 0.104467
H	 0.0014816234	-1.0807986738	 2.5363357197	 0.097377
H	 1.2759436391	-2.1522005131	 3.1543319216	 0.10167
H	 2.6474026927	-1.8169901333	 1.2214211723	 0.091274
H	 2.1308628351	-0.2105671658	-0.4501071416	 0.088641
126.1202	160.8573	182.2245	190.1593	272.5287	339.8444	350.9564	375.5629	390.8112	512.9841	523.2992	608.4131	654.9952	763.6716	789.7599	859.9476	878.0101	921.9275	966.7035	991.145	997.4198	1011.5488	1055.559	1069.5044	1080.8858	1118.6125	1125.0746	1181.7176	1247.8404	1256.9476	1301.267	1331.5046	1350.6443	1365.4409	1397.1279	1408.6849	1413.6632	1445.2498	1468.4248	1478.2143	1486.8992	1491.4615	1495.2729	1683.8655	1708.7118	2968.5851	3007.4405	3018.7992	3031.4431	3067.3529	3067.7723	3076.207	3080.5396	3112.307	3115.4389	3131.3334	3157.147
CC1=CCCOCC=C1	CC1=CCCOCC=C1	
InChI=1S/C8H12O/c1-8-4-2-6-9-7-3-5-8/h2,4-5H,3,6-7H2,1H3/b4-2-,8-5-	InChI=1S/C8H12O/c1-8-4-2-6-9-7-3-5-8/h2,4-5H,3,6-7H2,1H3/b4-2-,8-5-
