20
gdb 60293	5.17623	0.53404	0.50941	4.4728	82.53	-0.2389	-0.0192	0.2197	2167.007	0.166341	-440.296221	-440.285374	-440.28443	-440.334213	36.975	
C	 0.0253914239	 1.5817527208	-0.1387634904	-0.382368
C	 0.0081162989	 0.0612724792	-0.0078407769	 0.123614
C	-1.3968085684	-0.5168244257	 0.0868714067	-0.387896
O	 0.6185221174	-0.5351805069	-1.1715762579	-0.208357
C	 1.9500033323	-0.6798395516	-1.1593391589	 0.133981
N	 2.5668391453	-1.0823763051	-2.1829916147	-0.23218
C	 3.9959525783	-1.2584947881	-2.0702287399	-0.237429
C	 4.3969292624	-2.6751046486	-2.4647027613	 0.156493
O	 5.3994966239	-3.2197206053	-2.0838921084	-0.23879
H	 1.0495302489	 1.9590572219	-0.2162876537	 0.121767
H	-0.5224911981	 1.891171667	-1.0338257685	 0.135447
H	-0.4432109019	 2.0452864523	 0.734799856	 0.122804
H	 0.5871987268	-0.2395382578	 0.876916447	 0.087107
H	-1.976845082	-0.2548365472	-0.8029659465	 0.134486
H	-1.3609929275	-1.606215033	 0.1656961615	 0.13061
H	-1.9120060055	-0.1189395525	 0.9658141412	 0.121088
H	 2.4310160848	-0.4360510752	-0.1983052899	 0.080513
H	 4.4983936931	-0.5927791983	-2.7902960196	 0.135207
H	 4.4199265549	-1.0390814733	-1.0772757654	 0.109711
H	 3.6798957124	-3.1664935326	-3.1581083904	 0.094192
35.2843	36.9565	64.3266	118.3852	143.4156	210.8769	230.8836	255.8169	299.1954	346.3806	379.4502	429.2554	463.1682	527.8033	623.2498	740.4917	858.8221	931.7813	945.6591	957.7425	992.3665	1039.901	1081.9818	1106.9558	1148.4114	1162.2281	1200.0796	1229.6937	1266.7409	1324.8227	1365.3381	1371.7661	1401.9723	1403.2955	1418.079	1428.8512	1458.4297	1479.7446	1484.6201	1493.5227	1507.9548	1766.6863	1838.0164	2901.7527	2970.3951	2985.5656	3006.1913	3011.2773	3039.4508	3047.5381	3113.0111	3117.567	3124.4283	3127.8824
CC(C)OC=NCC=O	CC(C)OC=NCC=O	
InChI=1S/C6H11NO2/c1-6(2)9-5-7-3-4-8/h4-6H,3H2,1-2H3	InChI=1S/C6H11NO2/c1-6(2)9-5-7-3-4-8/h4-6H,3H2,1-2H3
