21
gdb 88728	3.38808	0.87974	0.76076	3.4989	85.62	-0.241	-0.0137	0.2273	1538.1735	0.181147	-387.077242	-387.067735	-387.066791	-387.112444	35.136	
C	 0.2076032001	 1.5679430065	-0.1856890446	-0.406015
C	 0.0705644573	 0.0724416104	 0.0004735478	-0.003926
C	 1.2668838093	-0.8408992257	-0.10746766	-0.302238
C	 0.5785073461	-0.6611475289	 1.2276451275	-0.013995
C	 1.2539485197	 0.0541140743	 2.3566179111	-0.005918
C	 0.6832149078	 0.0530162924	 3.7345075553	-0.316358
C	 1.9921310621	-0.6893534944	 3.4808751364	-0.111797
C	 1.9992872693	-2.1654569303	 3.5451793059	 0.170719
O	 2.9413609882	-2.8280380875	 3.9071587593	-0.274497
H	 1.18139199	 1.9378393872	 0.1485138723	 0.116672
H	 0.1101852044	 1.8322701034	-1.2442031592	 0.120567
H	-0.5646542198	 2.1148724037	 0.3666665281	 0.119198
H	-0.8571719173	-0.328485369	-0.4002788775	 0.086679
H	 1.1695911724	-1.7909773068	-0.6212482567	 0.113789
H	 2.2386305368	-0.3709686509	-0.228304187	 0.112443
H	-0.0472763534	-1.4910478255	 1.5429850318	 0.083494
H	 1.770964569	 0.9631731965	 2.0659823061	 0.095725
H	 0.7320938409	 0.9493628742	 4.3420006202	 0.126677
H	-0.1956960763	-0.5603341751	 3.9117235087	 0.122588
H	 2.9081959506	-0.236120605	 3.8440617912	 0.10443
H	 1.043409373	-2.6525117694	 3.2429512431	 0.061763
35.4976	86.7061	135.1032	187.4374	203.8047	228.8299	288.8818	361.0682	399.4738	427.8161	469.5913	572.4135	753.7941	789.1879	828.9018	853.0573	863.8074	872.4946	909.2266	969.6433	980.08	1034.4929	1046.4309	1049.5116	1071.8948	1075.4973	1108.0681	1131.8221	1150.4578	1189.3853	1192.4129	1200.7784	1220.3831	1263.1006	1322.9317	1343.647	1399.0929	1421.4451	1442.8798	1458.1154	1486.6757	1493.9428	1494.8981	1508.4501	1814.6764	2860.1321	3030.8325	3090.6238	3100.4286	3125.7376	3127.7229	3133.593	3144.1169	3159.2955	3175.7546	3210.8361	3217.5354
CC1CC1C1CC1C=O	C[C@H]1C[C@H]1[C@H]1C[C@H]1C=O	
InChI=1S/C8H12O/c1-5-2-7(5)8-3-6(8)4-9/h4-8H,2-3H2,1H3	InChI=1S/C8H12O/c1-5-2-7(5)8-3-6(8)4-9/h4-8H,2-3H2,1H3/t5-,6-,7+,8-/m0/s1
