19
gdb 89648	4.3215	1.02975	0.96624	2.3236	75.54	-0.2429	0.0777	0.3207	1269.1254	0.158783	-422.972314	-422.964059	-422.963115	-423.005512	32.05	
O	-0.1126988711	 1.4846623878	-0.0981888788	-0.434805
C	 0.0410829756	 0.0964561983	-0.0190963131	 0.144327
C	 0.4126957479	-0.5390198713	 1.3798139072	-0.357286
C	-0.9163832317	-1.3075181639	 1.3235392158	 0.450377
O	-1.9423841095	-0.2923740573	 1.1947304758	-0.314784
C	-1.2545377979	-0.7306800949	 0.0075583305	-0.102911
C	-1.298263983	-2.5861024059	 1.958028204	-0.109562
C	-0.2633118698	-3.6467443655	 2.253955675	-0.277275
C	-0.8943882122	-2.8816956648	 3.3855228836	-0.265018
H	-0.8357333954	 1.7022057056	 0.5048881816	 0.288362
H	 0.7370602412	-0.2014022258	-0.8067287287	 0.093392
H	 1.30260021	-1.1705417116	 1.3259232882	 0.109855
H	 0.5089070422	 0.1676323725	 2.2077360424	 0.107058
H	-1.865890977	-1.1020981187	-0.8080701368	 0.099625
H	-2.2791729951	-2.9364724234	 1.6524064574	 0.093637
H	-0.5500490103	-4.6809682691	 2.1016090386	 0.118341
H	 0.7724748804	-3.4344069712	 2.0135059324	 0.117048
H	-0.2850622554	-2.1452644768	 3.8981302778	 0.120626
H	-1.6127309691	-3.3871450042	 4.0206202372	 0.118992
64.9459	105.4624	153.926	216.8701	317.5628	403.4639	427.8657	463.3107	497.4832	580.3344	659.3326	714.7482	781.4059	807.7582	829.7158	878.4644	892.39	917.1032	944.5395	950.2344	995.3334	1027.0735	1043.1517	1063.649	1081.2927	1110.4367	1132.1529	1139.6395	1191.7503	1198.9438	1210.883	1219.9667	1255.9934	1280.9527	1324.2951	1345.1857	1435.0864	1458.9646	1468.0478	1488.3361	1514.7518	3064.1366	3091.0685	3124.7468	3136.9229	3140.8824	3158.088	3176.1715	3215.7534	3230.6375	3766.5366
OC1CC2(OC12)C1CC1	O[C@H]1C[C@]2(O[C@@H]12)C1CC1	
InChI=1S/C7H10O2/c8-5-3-7(4-1-2-4)6(5)9-7/h4-6,8H,1-3H2	InChI=1S/C7H10O2/c8-5-3-7(4-1-2-4)6(5)9-7/h4-6,8H,1-3H2/t5-,6-,7-/m0/s1
