18
gdb 10542	2.9235	1.5294	1.14	0.9375	75.15	-0.2408	0.0392	0.28	1104.4451	0.150801	-347.749315	-347.740362	-347.739418	-347.782986	32.896	
C	-0.1561577781	 1.5151823269	 0.0357832685	-0.384888
C	-0.0791040443	 0.0134984211	 0.2471481483	-0.054032
O	-1.2943002203	-0.5587497957	-0.2291053685	-0.275662
C	-1.3734193071	-1.9463709369	-0.0856839885	 0.267479
C	-1.8034989238	-2.4822405294	 1.2727433921	-0.317349
C	-2.7737207556	-2.4656897733	 0.1200301435	-0.313668
C	-0.4442139712	-2.7160555698	-0.8769367637	 0.319777
C	 0.342717452	-3.3408501711	-1.5384445175	-0.510761
H	 0.7619391886	 1.9948663052	 0.3880220455	 0.115502
H	-0.2842286242	 1.7470393062	-1.0252497601	 0.129524
H	-1.0021938641	 1.940307054	 0.5835758064	 0.12352
H	 0.7737306521	-0.4157239932	-0.2970217298	 0.104915
H	 0.0545028515	-0.2275615985	 1.3129412356	 0.088299
H	-1.3976954501	-3.4313839242	 1.6019259548	 0.126566
H	-1.9381152979	-1.737841075	 2.0491732141	 0.124549
H	-3.5487397011	-1.7082635888	 0.1250623174	 0.131271
H	-3.0387220542	-3.402750434	-0.3541542213	 0.128079
H	 1.0302759677	-3.8960877636	-2.1271902169	 0.19688
60.1416	103.8276	156.1322	189.7851	216.8817	246.9946	351.4827	383.7787	422.0558	552.9243	574.8422	593.7837	679.0969	702.3059	777.1102	820.1835	866.2501	902.506	942.2804	954.3115	1005.0571	1056.3302	1082.2838	1092.7526	1146.4132	1189.0824	1194.3716	1266.1729	1293.1227	1306.5923	1398.7634	1425.7444	1449.5268	1482.9788	1484.0359	1500.2167	1528.0152	2229.7446	2986.2578	3027.5361	3044.4985	3118.5227	3121.8599	3141.7085	3147.5379	3230.9429	3245.8351	3501.6237
CCOC1(CC1)C#C	CCOC1(CC1)C#C	
InChI=1S/C7H10O/c1-3-7(5-6-7)8-4-2/h1H,4-6H2,2H3	InChI=1S/C7H10O/c1-3-7(5-6-7)8-4-2/h1H,4-6H2,2H3
