20
gdb 57199	2.37024	1.3423	1.09568	2.1337	74.86	-0.2435	-0.0255	0.218	1199.6069	0.167616	-440.27135	-440.260931	-440.259987	-440.30762	37.511	
C	 0.6025085579	-1.3018211383	-0.8107349344	-0.519385
C	-0.6041896487	-0.3823560375	-0.7350465455	 0.380166
O	-0.5385766721	 0.7877327772	-1.0277288574	-0.294306
C	-1.9330301028	-0.9866376276	-0.2420881338	-0.05997
O	-2.1088073214	-2.3311908588	-0.6634237275	-0.427168
C	-2.0943137098	-0.8032595879	 1.2809219846	 0.301691
C	-1.9596151661	 0.6193602685	 1.7833574826	-0.444462
C	-3.0143313431	-1.7337637848	 1.9785109996	-0.277304
N	-1.5508664102	-1.8341196153	 2.1867807364	-0.352645
H	 1.4894243721	-0.7118692323	-1.0431318825	 0.154459
H	 0.7547121025	-1.827822274	 0.1397782693	 0.143742
H	 0.4605527119	-2.0550129012	-1.5940323633	 0.152318
H	-2.7260517108	-0.413732839	-0.7328576125	 0.123562
H	-1.317011385	-2.8364492723	-0.4550723644	 0.286738
H	-2.6940922303	 1.2729153308	 1.3011064482	 0.123564
H	-2.1252634015	 0.6432082998	 2.8626912704	 0.125745
H	-0.9681242175	 1.0325736995	 1.5812527099	 0.133118
H	-3.5743402294	-1.382367124	 2.8406622188	 0.116805
H	-3.495438051	-2.50755572	 1.3899894152	 0.127313
H	-1.2144257947	-2.6364429829	 1.6577778763	 0.206017
25.0982	60.736	146.3415	157.4801	183.3389	214.7579	266.402	303.7963	338.5079	361.0763	400.6623	417.9602	521.6254	574.1893	584.2635	728.6044	781.0683	835.2141	901.628	927.2912	975.5628	988.7061	1021.3767	1029.0697	1073.2535	1089.5267	1118.1509	1140.9825	1218.3238	1251.0299	1256.2562	1282.883	1315.5454	1366.3739	1373.2679	1406.1493	1425.4787	1470.8194	1479.6331	1483.7267	1494.0264	1502.3496	1814.487	3029.4276	3045.1289	3071.832	3093.0022	3113.2916	3117.8014	3130.4417	3153.3207	3212.5821	3475.4566	3825.8267
CC(=O)C(O)C1(C)CN1	CC(=O)[C@@H](O)[C@@]1(C)CN1	
InChI=1S/C6H11NO2/c1-4(8)5(9)6(2)3-7-6/h5,7,9H,3H2,1-2H3	InChI=1S/C6H11NO2/c1-4(8)5(9)6(2)3-7-6/h5,7,9H,3H2,1-2H3/t5-,6-/m1/s1
