16
gdb 18796	3.43129	2.46637	2.19753	2.2292	62.51	-0.2431	0.0639	0.307	703.5091	0.132552	-383.686797	-383.680907	-383.679963	-383.716507	24.359	
O	 0.1866769141	 1.3806978962	 0.0840924677	-0.442502
C	 0.0077379909	-0.0030714756	 0.0060784151	 0.163086
C	-1.4370246109	-0.6075370646	 0.0292032426	-0.103296
C	-2.4000628715	 0.1581109223	-0.9113067967	-0.249586
C	-1.6839407633	-0.4766384747	-2.1221027333	 0.108268
O	-0.4024505478	 0.1625563071	-2.382549614	-0.320795
C	 0.2482177631	-0.6527553404	-1.3749003348	 0.047824
C	-1.0178373322	-1.5271778042	-1.1856280753	-0.096441
H	-0.0343592334	 1.7185128368	-0.7954108134	 0.28832
H	 0.6231562943	-0.4759683314	 0.7792410157	 0.086478
H	-1.817841071	-0.9662519525	 0.9845403771	 0.06989
H	-3.4208615704	-0.2279406957	-0.8250308481	 0.105606
H	-2.4212451041	 1.2500918131	-0.8516937914	 0.105115
H	-2.2297694241	-0.670619403	-3.0471222574	 0.082201
H	 1.2477072269	-0.9660262509	-1.6820701454	 0.077982
H	-1.0881412107	-2.6081748027	-1.2549181383	 0.077848
171.5453	251.1206	407.6557	463.7459	517.1815	581.8751	662.1591	710.3292	770.5275	826.1652	841.5378	850.0013	875.0898	940.4275	970.6424	975.5798	1005.6571	1033.5021	1072.8681	1107.964	1124.8068	1133.4598	1148.6395	1186.1909	1188.7584	1233.3789	1267.7356	1277.2203	1283.2848	1311.8127	1326.8876	1347.6737	1434.1941	1469.9322	3047.1243	3054.8735	3091.8196	3095.2866	3102.3851	3116.6089	3165.9106	3740.2405
OC1C2CC3OC1C23	O[C@H]1[C@H]2C[C@H]3O[C@@H]1[C@@H]23	
InChI=1S/C6H8O2/c7-5-2-1-3-4(2)6(5)8-3/h2-7H,1H2	InChI=1S/C6H8O2/c7-5-2-1-3-4(2)6(5)8-3/h2-7H,1H2/t2-,3+,4-,5-,6+/m0/s1
