17
gdb 46683	3.06633	1.80747	1.3949	3.6694	72.59	-0.2436	0.0141	0.2576	934.8111	0.139436	-417.972803	-417.966077	-417.965133	-418.003923	26.925	
N	-0.1143385096	 1.3159939011	 0.2942857511	-0.525142
C	-0.0047301182	 0.1104932128	-0.0783479531	 0.414144
O	 1.1406751378	-0.3781736024	-0.6269547831	-0.246704
C	 1.2690252336	-1.7956315982	-0.8054518992	-0.116312
C	-0.0193943492	-2.4845315846	-1.2285854662	-0.04564
C	-1.0466708816	-2.9316715432	-0.2611298594	-0.030125
C	-1.0365038464	-2.0644589197	 0.9894867796	-0.284055
C	-1.1567465473	-0.8431124699	 0.0251718644	-0.058319
N	-1.3029670194	-1.751761172	-1.1808947999	-0.145795
H	 0.7725921799	 1.8077307207	 0.1614267446	 0.219238
H	 2.0281645549	-1.9127789549	-1.5812955034	 0.129438
H	 1.6672981298	-2.2334503793	 0.1189627853	 0.119282
H	 0.0595926858	-3.0725482624	-2.1380537923	 0.109382
H	-1.5809151044	-3.8682329274	-0.3813371764	 0.100679
H	-1.9337658778	-2.1756005636	 1.5989468019	 0.126386
H	-0.1605448307	-2.1309161596	 1.6422740113	 0.112676
H	-2.0629299872	-0.2612778774	 0.1742947948	 0.120868
115.6126	168.7666	280.4011	392.3328	410.3784	477.787	540.2947	669.5837	708.297	740.8426	783.2563	793.3056	861.7686	889.7634	911.7721	949.1037	985.5784	996.7047	1003.0803	1055.4253	1067.01	1077.2947	1132.8123	1144.3458	1164.0301	1223.9385	1250.0018	1268.5023	1281.7028	1314.3725	1336.8468	1354.5155	1421.4057	1435.7948	1490.7137	1518.2836	1751.4955	3020.4936	3054.4099	3103.8595	3125.9994	3150.272	3154.6724	3171.6171	3456.8919
N=C1OCC2C3CC1N23	[NH][C]1OC[C@H]2[C@H]3C[C@@H]1N23	
InChI=1S/C6H8N2O/c7-6-4-1-3-5(2-9-6)8(3)4/h3-5,7H,1-2H2	InChI=1S/C6H8N2O/c7-6-4-1-3-5(2-9-6)8(3)4/h3-5,7H,1-2H2/t3-,4+,5+,8?/m1/s1
