20
gdb 20298	4.60553	1.34765	1.3158	0.2193	79.06	-0.2446	0.0923	0.3369	1042.3457	0.178701	-311.822176	-311.814828	-311.813884	-311.854119	29.01	
C	-0.2348009201	 1.2652750067	-0.2644520657	-0.270878
C	 1.1962659283	 1.3038522587	 0.2120488359	-0.270899
C	 0.4779613812	-0.018497007	 0.0875873673	 0.015708
C	 0.0879065832	-0.7733231953	 1.3203492358	-0.000732
C	-0.6968107234	-2.0602568791	 1.3463664978	-0.075235
C	-0.3012056158	-2.9879785481	 0.1893864408	-0.229099
C	 1.1824924243	-2.9484055821	 0.6830775281	-0.229103
C	 0.7614984679	-2.0213521796	 1.8315771212	-0.07523
H	-1.0048244946	 1.6165160435	 0.4151229483	 0.108187
H	-0.4383914676	 1.4757326722	-1.3087388084	 0.107706
H	 1.974459516	 1.5410137044	-0.5051996657	 0.107712
H	 1.3873297971	 1.6809148457	 1.2117782801	 0.108185
H	 0.7754751943	-0.6315341189	-0.7565408735	 0.082616
H	-0.2015752418	-0.1126540181	 2.1373996892	 0.07542
H	-1.6065681654	-2.1535101431	 1.9285737914	 0.077206
H	-0.7344059008	-3.9859162335	 0.2848495926	 0.100224
H	-0.5057389135	-2.6218190366	-0.8220595302	 0.095392
H	 1.5195416509	-3.9257933761	 1.0348849812	 0.100225
H	 1.9340730057	-2.5567846753	-0.0102362791	 0.095391
H	 1.1446956042	-2.0800467183	 2.8440206029	 0.077205
54.6905	173.0621	176.4701	290.1354	309.1345	484.6209	501.8278	731.0681	739.5983	787.5289	789.3374	792.0176	830.2187	864.8934	925.1888	930.865	949.8204	964.7806	979.0494	1012.7539	1027.9583	1057.7478	1072.1073	1078.8132	1088.0332	1117.9704	1133.8846	1142.0118	1197.5865	1223.2006	1227.0823	1243.0357	1246.5134	1262.1381	1304.0446	1325.4458	1366.733	1470.0569	1474.1569	1484.3668	1506.2134	1509.1468	3044.1352	3051.8174	3093.941	3109.095	3112.6707	3125.994	3130.8168	3162.3519	3164.9127	3177.1314	3203.2321	3219.207
C1CC1C1C2CCC12	C1CC1[C@H]1[C@H]2CC[C@@H]12	
InChI=1S/C8H12/c1-2-5(1)8-6-3-4-7(6)8/h5-8H,1-4H2	InChI=1S/C8H12/c1-2-5(1)8-6-3-4-7(6)8/h5-8H,1-4H2/t6-,7+,8-
