21
gdb 114668	3.26281	1.22688	1.10487	0.8254	78.98	-0.2427	0.0985	0.3412	1216.05	0.183071	-424.201878	-424.193346	-424.192402	-424.23488	32.946	
C	-0.458162672	 1.2931222034	 0.0893183346	-0.246127
O	-0.2279265527	-0.0912689874	-0.1021675946	-0.243972
C	 0.6587135313	-0.6407835545	 0.8184999682	 0.246362
O	 0.1303124048	-0.6367452348	 2.1635200848	-0.306966
C	 0.0542273816	-2.0495775402	 2.4515820096	 0.090357
C	 1.4381564413	-2.5504786846	 1.9737197586	-0.250531
C	 0.8256699983	-2.146078709	 0.5960041085	-0.11826
C	-0.5604477623	-2.6394519167	 1.1515669127	 0.048443
C	-0.8627945132	-4.130203591	 1.0856263668	-0.443576
H	 0.4802863163	 1.8656686759	 0.0329427874	 0.104417
H	-1.1221585171	 1.6209657059	-0.7132964033	 0.12488
H	-0.9317569011	 1.4885757358	 1.0584293642	 0.129798
H	 1.5998870779	-0.0683446193	 0.8172803971	 0.063211
H	-0.3517554296	-2.1997157419	 3.4514567991	 0.075196
H	 2.3072786274	-1.9954543216	 2.3352327781	 0.099849
H	 1.600261113	-3.6221606887	 2.078368997	 0.105928
H	 1.2351444105	-2.4621024427	-0.3623732967	 0.074894
H	-1.4146097071	-2.067432646	 0.7832002989	 0.089154
H	-0.0405148131	-4.760459233	 1.4347533763	 0.116055
H	-1.7420870774	-4.3691107083	 1.6940210288	 0.118824
H	-1.0893640467	-4.4260937514	 0.0555933739	 0.122064
102.6095	145.338	176.6347	189.9024	266.1192	286.2731	311.3682	406.2629	492.305	544.0218	560.0119	696.8812	793.9586	843.0857	848.6392	887.4728	919.4151	945.4434	954.5935	1011.6594	1028.6964	1040.7024	1060.5118	1096.3281	1113.5097	1123.078	1135.4908	1150.9749	1180.0561	1223.0903	1230.3606	1251.0299	1265.1846	1272.5468	1287.7101	1347.8565	1394.9099	1405.2608	1415.6224	1479.9477	1484.8802	1492.4955	1497.6496	1512.2735	1513.7076	2975.787	2990.9384	3034.0385	3064.8784	3076.7555	3087.4751	3091.4535	3114.572	3125.0849	3126.8569	3131.7599	3153.4996
COC1OC2CC1C2C	CO[C@H]1O[C@@H]2C[C@H]1[C@H]2C	
InChI=1S/C7H12O2/c1-4-5-3-6(4)9-7(5)8-2/h4-7H,3H2,1-2H3	InChI=1S/C7H12O2/c1-4-5-3-6(4)9-7(5)8-2/h4-7H,3H2,1-2H3/t4-,5+,6-,7+/m1/s1
