21
gdb 110472	3.95589	1.27545	1.25843	0.0699	84.43	-0.2359	0.0861	0.322	1116.2516	0.184144	-349.885229	-349.877825	-349.876881	-349.917166	30.389	
C	 0.0563032194	 1.5435780588	 0.1436038588	-0.376317
C	-0.1290217296	 0.0313274274	-0.0272947286	-0.203741
C	 0.6368512662	-0.5359512041	-1.2138401618	 0.033184
C	 2.1902847418	-0.6127872789	-1.2025430865	-0.073242
C	 2.5983933522	-1.6054119224	-0.0863747662	-0.066207
C	 1.5178223659	-2.6773894918	-0.267347093	-0.065685
C	 2.8177328828	-2.7629165983	-1.034525355	-0.112963
C	 2.13231559	-1.8873106159	-2.1270687872	-0.054894
C	 0.7217787274	-2.0681551637	-1.4480932782	-0.090484
H	 1.1111827643	 1.7993519113	 0.2918664436	 0.115159
H	-0.2927911287	 2.0890449207	-0.7404965737	 0.111392
H	-0.5007334403	 1.9200509659	 1.0073924639	 0.108852
H	 0.192916705	-0.4839599712	 0.8864448118	 0.097239
H	-1.1971752465	-0.1955694423	-0.1458024572	 0.089376
H	 0.3158208409	-0.051679111	-2.146904736	 0.062061
H	 2.8290055065	 0.2478450023	-1.3982050055	 0.058349
H	 3.0708541098	-1.4089833013	 0.8668096974	 0.081418
H	 1.1674657291	-3.2956408979	 0.5483821521	 0.081446
H	 3.5813060025	-3.5286404276	-1.0612930778	 0.083294
H	 2.3078168108	-1.8832491114	-3.1996364088	 0.064979
H	-0.0947376994	-2.6438720886	-1.8834742623	 0.056784
78.5022	157.8829	186.1416	264.7089	356.6043	518.3567	595.6415	711.5511	722.365	765.5014	786.8631	798.2271	813.6925	824.6075	862.6356	863.3548	868.0505	922.18	949.7588	976.3008	981.0053	990.5305	1017.7781	1036.9264	1059.4446	1066.1006	1068.2345	1089.5425	1153.9664	1163.5254	1177.2282	1183.576	1190.6589	1227.485	1250.9841	1267.5898	1290.9665	1303.9531	1340.9337	1358.6256	1400.0876	1412.1817	1486.5633	1500.6342	1506.6978	3012.0301	3015.0585	3028.804	3051.1462	3094.9369	3099.6778	3113.8628	3117.8671	3149.0383	3193.4059	3195.0664	3210.9284
CCC1C2C3C4C3C2C14	CC[C@H]1[C@H]2[C@H]3[C@@H]4[C@H]3[C@H]2[C@H]14	
InChI=1S/C9H12/c1-2-3-4-6-5(3)8-7(4)9(6)8/h3-9H,2H2,1H3	InChI=1S/C9H12/c1-2-3-4-6-5(3)8-7(4)9(6)8/h3-9H,2H2,1H3/t3-,4+,5-,6+,7-,8+,9-
