20
gdb 39424	2.39693	1.90462	1.33402	2.9955	77.57	-0.2419	0.071	0.3129	1015.2008	0.174303	-403.109757	-403.102373	-403.101429	-403.141276	30.049	
C	-0.0448505303	 1.4533838301	-0.093506191	-0.192169
C	 1.1907386718	 2.3150369186	 0.2564903815	-0.198572
C	 2.5145920218	 1.7711339352	-0.2435306097	-0.037088
N	 3.6336354434	 1.7782919316	 0.7225201282	-0.337723
C	 3.0789670112	 0.4925112902	 0.2671265682	-0.044515
C	 2.3661691189	-0.3992323846	 1.2371241438	 0.050103
O	 1.3758483847	 0.1526100717	 2.1035746486	-0.241216
C	 0.9346983708	-0.6977837127	 1.0386404768	 0.050575
C	 0.1513221867	-0.0802790228	-0.114688943	-0.246986
H	-0.8361153702	 1.7013852914	 0.6220840148	 0.107593
H	-0.4341075675	 1.7341543088	-1.0796536298	 0.092716
H	 1.0443540793	 3.3268568306	-0.140528872	 0.084588
H	 1.2712380392	 2.4022614925	 1.3389871339	 0.139938
H	 2.7613427043	 2.0022798161	-1.2794053856	 0.077777
H	 4.5147393312	 1.9618102115	 0.2494074711	 0.22889
H	 3.6801482436	-0.0854632788	-0.436020087	 0.080657
H	 2.9945522386	-1.1519773595	 1.7165552604	 0.089311
H	 0.5730289691	-1.6674861056	 1.3831685947	 0.089324
H	-0.8396921721	-0.5460055507	-0.1524917162	 0.101104
H	 0.6514331355	-0.3710412934	-1.0475866178	 0.105695
143.8749	199.5032	223.5898	273.8709	318.6483	411.5005	469.8187	523.0338	620.9021	690.0867	744.2851	772.2874	791.8178	823.8726	884.5997	887.8628	914.0076	960.8362	976.0215	988.7155	1032.5594	1065.8084	1077.8918	1102.9835	1136.7936	1150.8533	1170.7355	1205.0757	1221.0556	1267.3673	1271.189	1294.2853	1312.3561	1343.1072	1364.5601	1389.1382	1398.6536	1418.6457	1463.2686	1476.9237	1481.2698	1494.0575	1503.4142	3020.7175	3027.7031	3039.9002	3056.5061	3073.3459	3083.9464	3095.0791	3102.927	3107.793	3142.1513	3498.7572
C1CC2NC2C2OC2C1	C1C[C@H]2N[C@H]2[C@H]2O[C@H]2C1	
InChI=1S/C7H11NO/c1-2-4-6(8-4)7-5(3-1)9-7/h4-8H,1-3H2	InChI=1S/C7H11NO/c1-2-4-6(8-4)7-5(3-1)9-7/h4-8H,1-3H2/t4-,5+,6-,7+/m1/s1
