21
gdb 71595	2.04862	1.95562	1.67408	1.5867	81.81	-0.2309	0.0824	0.3134	994.4514	0.182983	-387.061206	-387.053087	-387.052143	-387.093168	32.7	
C	 0.016089215	 1.5100609821	-0.041953117	-0.528651
C	 0.0330297448	 0.0054706977	-0.0470037999	 0.271041
C	 0.6397642069	-0.9587452006	-1.0965515304	-0.311282
C	 0.0454832781	-1.9003206411	-0.0262784308	-0.133588
C	 0.5811621756	-0.9380286227	 1.0678206855	 0.109778
O	-0.2704281842	-0.9216644077	 2.1966035116	-0.2845
C	-1.567871242	-0.9510700273	 1.5870562847	-0.143283
C	-1.21346628	-0.9658973022	 0.0995696573	 0.278271
C	-2.3569492046	-0.9846381618	-0.8880987119	-0.510695
H	 1.0301893506	 1.9149668381	-0.1317090482	 0.121002
H	-0.576110998	 1.9087598726	-0.8733421026	 0.117915
H	-0.4116663717	 1.891654971	 0.8916904305	 0.127261
H	 0.1740611978	-0.9739116221	-2.0843308357	 0.094889
H	 1.7302947716	-0.9513822876	-1.1908879942	 0.088515
H	 0.0508710896	-2.9911496857	-0.0066578848	 0.067645
H	 1.6292199728	-0.9279779647	 1.3666118236	 0.08057
H	-2.1171066326	-1.8473016623	 1.9054942377	 0.096487
H	-2.147047051	-0.0656850252	 1.8821194935	 0.096084
H	-2.9928839812	-0.0997470749	-0.7677163599	 0.119447
H	-2.0094937932	-1.0040667663	-1.9249075773	 0.122557
H	-2.9910754043	-1.8655810795	-0.7354132418	 0.120535
177.5573	183.3402	195.5305	223.1422	260.3105	313.4346	400.0955	439.5579	458.7072	622.7469	636.4088	689.4832	731.1265	744.4606	815.6387	906.806	910.7015	939.9122	961.5531	978.3199	1000.1043	1011.1481	1024.5102	1074.509	1097.9537	1118.9329	1145.4503	1169.1838	1174.7386	1200.4365	1220.3611	1232.9138	1244.5506	1271.349	1310.2005	1341.7256	1392.5868	1408.4831	1416.0864	1488.3367	1489.1449	1492.5797	1496.4933	1520.6366	1526.5464	3003.84	3025.0242	3027.7298	3039.1714	3049.595	3083.0721	3089.7432	3095.2652	3101.9674	3105.3818	3111.0489	3130.73
CC12CC3C1OCC23C	C[C@@]12C[C@H]3[C@@H]1OC[C@@]23C	
InChI=1S/C8H12O/c1-7-3-5-6(7)9-4-8(5,7)2/h5-6H,3-4H2,1-2H3	InChI=1S/C8H12O/c1-7-3-5-6(7)9-4-8(5,7)2/h5-6H,3-4H2,1-2H3/t5-,6-,7+,8+/m0/s1
