16
gdb 14854	2.99927	1.63537	1.16261	2.2127	66.44	-0.252	0.0189	0.271	1012.0212	0.128782	-383.670615	-383.662186	-383.661241	-383.704175	29.914	
O	-0.1079723341	 1.4465320487	-0.1552882785	-0.425318
C	 0.0454015409	 0.034957198	-0.1101046618	-0.102707
C	-1.3433522415	-0.5477183472	 0.0645503239	-0.041265
C	-2.2514067434	-0.4660778658	-1.1769239965	-0.071356
O	-2.2030238446	-1.9000599317	-1.3663214927	-0.282172
C	-1.4862545019	-2.0887415416	-0.122049715	-0.066077
C	-0.2853560573	-2.8985837251	-0.2533956329	 0.34226
C	 0.7040358128	-3.5756941571	-0.3441881943	-0.458425
H	 0.7525237969	 1.837449559	-0.3319725136	 0.289914
H	 0.4969790377	-0.3526891465	-1.0355831656	 0.103039
H	 0.6907558132	-0.2778921395	 0.7250427769	 0.096226
H	-1.785991873	-0.1679601037	 0.9873178808	 0.091653
H	-3.2732034997	-0.1159409744	-0.9885724634	 0.103122
H	-1.8363680111	 0.0771853804	-2.0325438811	 0.114373
H	-2.142783932	-2.5418612089	 0.6339639598	 0.104149
H	 1.5750201471	-4.1775337547	-0.4306659861	 0.202584
53.0273	104.1041	120.9589	202.0689	246.3174	269.1972	351.575	435.632	524.8004	563.9099	624.9304	672.6089	797.4437	835.4397	892.2371	933.3617	980.4026	1017.159	1050.5335	1078.4554	1114.6014	1143.2007	1165.7459	1206.3852	1243.7618	1277.6825	1277.9891	1338.4129	1360.9561	1374.1231	1464.9526	1516.5319	1531.1478	2231.8406	2980.7021	3000.1582	3014.1159	3026.4257	3073.6682	3097.5518	3501.6696	3833.1207
OCC1COC1C#C	OC[C@H]1CO[C@H]1C#C	
InChI=1S/C6H8O2/c1-2-6-5(3-7)4-8-6/h1,5-7H,3-4H2	InChI=1S/C6H8O2/c1-2-6-5(3-7)4-8-6/h1,5-7H,3-4H2/t5-,6-/m0/s1
