21
gdb 85873	2.13395	1.51128	1.08967	1.553	84.34	-0.2516	0.0395	0.2911	1204.7466	0.179751	-387.054595	-387.044708	-387.043763	-387.088542	38.295	
C	-0.797986753	 1.4901811574	 0.0555740072	-0.447158
C	-0.1253590917	 0.1240162664	-0.0028496667	 0.31985
C	-1.1090550764	-0.9415640158	-0.4971271863	-0.43712
C	 1.2411828968	 0.0572543392	-0.7513211305	-0.302107
C	 1.8018386946	-0.8497348822	 0.3719766149	 0.164384
O	 3.1154550674	-0.689316138	 0.8128116653	-0.433263
C	 0.6162789266	-0.3798027109	 1.3054240428	-0.295579
C	 1.042068424	 0.6501655721	 2.2289054672	 0.307857
C	 1.4730009375	 1.4991351675	 2.9674731894	-0.440391
H	-0.1201997226	 2.2556220747	 0.4416559613	 0.123055
H	-1.1229344363	 1.7949873808	-0.9458585684	 0.111561
H	-1.6838253291	 1.4705804293	 0.7008226592	 0.113713
H	-1.4720622861	-0.69116387	-1.5000262425	 0.116159
H	-0.6510286836	-1.934533711	-0.5494870897	 0.116575
H	-1.9784679478	-1.0090144148	 0.1664213559	 0.116127
H	 1.2424987746	-0.3380582775	-1.7705167919	 0.097071
H	 1.7476290939	 1.0275850499	-0.7472116556	 0.099238
H	 1.6872946172	-1.9091813132	 0.1302515485	 0.094457
H	 3.1627959302	 0.1506862152	 1.2885367527	 0.280802
H	 0.1007461828	-1.1786959605	 1.8476220827	 0.095237
H	 1.8093235409	 2.2464508715	 3.6431975349	 0.199532
83.9342	136.4545	163.275	218.0478	253.9348	275.6241	305.3304	331.9296	369.2591	377.3116	405.6982	436.6051	510.3724	556.5832	625.3986	642.3851	661.392	750.9174	819.7095	850.8455	929.432	947.6506	961.0511	983.8458	1028.9634	1057.5837	1087.5159	1138.5069	1145.2204	1202.675	1221.7018	1242.392	1272.277	1284.8621	1331.8825	1348.1026	1402.5633	1421.5526	1448.1179	1478.5233	1483.7319	1489.093	1503.205	1506.2437	2216.0284	3023.8056	3028.5073	3050.2539	3054.4717	3079.4248	3086.9203	3094.2014	3098.5152	3108.6868	3116.4352	3500.6445	3752.1518
CC1(C)CC(O)C1C#C	CC1(C)C[C@@H](O)[C@H]1C#C	
InChI=1S/C8H12O/c1-4-6-7(9)5-8(6,2)3/h1,6-7,9H,5H2,2-3H3	InChI=1S/C8H12O/c1-4-6-7(9)5-8(6,2)3/h1,6-7,9H,5H2,2-3H3/t6-,7-/m1/s1
