23
gdb 102672	2.65928	0.92753	0.75658	3.1399	86.39	-0.2387	0.0267	0.2653	1580.9775	0.204493	-384.478185	-384.467058	-384.466113	-384.515264	39.581	
C	 0.7033723633	-0.9669570575	-1.4222932666	-0.388758
C	 0.2720379122	-0.0946264244	-0.2402739315	-0.191285
C	-1.2513941122	-0.0323140292	-0.016989549	 0.057632
C	-1.8182480551	-1.3846202863	 0.4979338083	-0.182551
C	-3.1832351226	-1.7752175514	-0.0814281344	-0.389949
N	-1.506941988	 1.1440858772	 0.8304737086	-0.281169
C	-2.8728943753	 1.5915725353	 1.0234356603	-0.283564
C	-3.6746565802	 0.8535734792	 2.0260123271	 0.253477
N	-4.2601846516	 0.2853643901	 2.8456212495	-0.31989
H	 1.7919383639	-0.9571363951	-1.5321856564	 0.117969
H	 0.3968112011	-2.0109545122	-1.3036084087	 0.121353
H	 0.2719555441	-0.5993594145	-2.3599578596	 0.116801
H	 0.7513252574	-0.4568134856	 0.6806455036	 0.092977
H	 0.6267544724	 0.9297085982	-0.3941485004	 0.105442
H	-1.7200006499	 0.1935153908	-0.9863654078	 0.076458
H	-1.1057880303	-2.1818144875	 0.2579522285	 0.096904
H	-1.8710597312	-1.3507137525	 1.5925966524	 0.108818
H	-3.9653739228	-1.0531820915	 0.1686002038	 0.12584
H	-3.133774677	-1.8532465919	-1.1734462528	 0.110931
H	-3.5082228639	-2.7454523274	 0.3065141381	 0.120147
H	-1.0326072037	 1.0518366291	 1.7226476858	 0.225001
H	-2.8677840457	 2.6430257816	 1.3377099389	 0.153521
H	-3.398611085	 1.5570296353	 0.0631327422	 0.153894
37.8211	68.026	106.0636	111.4582	182.85	192.2753	204.7214	243.6873	293.7504	320.4666	372.3631	382.5472	466.8049	476.2716	601.1586	692.4364	751.0687	779.7284	859.6086	887.8174	925.6375	934.9729	1021.2726	1026.5054	1038.8365	1054.7963	1137.4946	1145.582	1165.0114	1178.3559	1261.8444	1280.0891	1306.8074	1324.3861	1350.1959	1365.613	1380.5439	1395.3163	1414.4613	1416.718	1454.4032	1481.1056	1490.0651	1499.0463	1500.9227	1504.2055	1507.6378	1511.4236	2343.2379	2993.2476	3012.2557	3029.2873	3033.6424	3035.6605	3036.0463	3066.7387	3070.0999	3080.2184	3101.2578	3102.0973	3107.8297	3117.8239	3528.5907
CCC(CC)NCC#N	CCC(CC)NCC#N	
InChI=1S/C7H14N2/c1-3-7(4-2)9-6-5-8/h7,9H,3-4,6H2,1-2H3	InChI=1S/C7H14N2/c1-3-7(4-2)9-6-5-8/h7,9H,3-4,6H2,1-2H3
