23
gdb 100877	2.32578	1.00117	0.74149	1.5952	88.24	-0.2577	0.0453	0.3031	1591.2156	0.202823	-388.260505	-388.249267	-388.248322	-388.297002	41.122	
C	 0.0036075715	 1.6158399678	 0.08701767	-0.397973
C	-0.0258702774	 0.086573364	-0.0217243383	-0.180407
C	 0.7152364522	-0.4809463442	-1.2490486897	 0.031358
C	 2.1887102338	-0.0492409319	-1.2759430326	-0.404499
C	 0.6052406316	-2.0337350469	-1.3133521069	-0.174168
C	-0.853376618	-2.561872081	-1.2823124645	-0.070013
O	-0.9240685484	-3.9647651905	-1.4065989877	-0.424313
C	 1.2491702424	-2.568228177	-2.5145725626	 0.293912
C	 1.7079967305	-3.0354079682	-3.5250158353	-0.455894
H	 1.0124418131	 1.9996924005	 0.2614428133	 0.121791
H	-0.3783488505	 2.0841950214	-0.8272834897	 0.115425
H	-0.6235750964	 1.9533281753	 0.9178950586	 0.114533
H	 0.4028841173	-0.3538369536	 0.8895730423	 0.095537
H	-1.0737846953	-0.2293953461	-0.049780881	 0.104499
H	 0.2271062501	-0.0875142356	-2.1521693738	 0.080061
H	 2.7127141745	-0.4951272265	-2.1247870543	 0.129449
H	 2.2858895292	 1.0361109174	-1.3575088267	 0.116674
H	 2.7033746759	-0.3635149219	-0.3595677631	 0.111206
H	 1.1196974676	-2.4530125891	-0.4366547119	 0.108432
H	-1.3118622757	-2.3251118143	-0.3200140709	 0.112161
H	-1.4317207575	-2.050654644	-2.0695159035	 0.09022
H	-0.4429245883	-4.2020636202	-2.2091462723	 0.28327
H	 2.1476164178	-3.4331467253	-4.4064056493	 0.19874
52.8711	77.2241	124.0274	142.924	172.2156	209.0187	212.4619	252.4547	296.1918	341.5911	369.5338	419.5692	426.7128	449.2191	538.1134	596.7987	625.996	654.3403	777.3943	821.2747	845.2726	936.4795	977.4508	986.0103	1028.0911	1046.5118	1055.0531	1090.8653	1141.1605	1160.5101	1175.9104	1215.4794	1255.1066	1301.1512	1324.5348	1352.1652	1366.78	1379.7622	1383.8347	1409.1161	1414.4129	1439.685	1483.6858	1495.5796	1500.1852	1505.6876	1509.4079	1514.7826	2219.7537	2969.2993	2999.4749	3009.6988	3018.9472	3033.6235	3035.3581	3065.4632	3099.2229	3103.9642	3107.1863	3114.6941	3125.6272	3501.097	3771.1308
CCC(C)C(CO)C#C	CC[C@@H](C)[C@@H](CO)C#C	
InChI=1S/C8H14O/c1-4-7(3)8(5-2)6-9/h2,7-9H,4,6H2,1,3H3	InChI=1S/C8H14O/c1-4-7(3)8(5-2)6-9/h2,7-9H,4,6H2,1,3H3/t7-,8-/m1/s1
