21
gdb 59566	3.55076	1.16416	0.97352	0.8982	78.58	-0.244	0.0928	0.3368	1285.262	0.181437	-424.214087	-424.205125	-424.204181	-424.247831	34.177	
C	 0.0159027829	 1.48002657	-0.1393118668	-0.397606
C	-0.0049898381	-0.0509469612	-0.0476367587	 0.00762
C	 0.7926266452	-0.5635485505	 1.1580750315	-0.397585
C	-1.4373580217	-0.5596183482	 0.0087352866	 0.236094
O	-2.1651543189	-0.1554003641	-1.1481633452	-0.276371
C	-3.1361876383	-1.1499956251	-1.3669299986	 0.05882
C	-2.6623785265	-2.3755743715	-2.1171421829	-0.324778
C	-2.679838116	-2.3505234226	-0.604392081	 0.058811
O	-1.4698196375	-1.9845206609	 0.0136017746	-0.276366
H	 1.0450153724	 1.8443198678	-0.2150319379	 0.11151
H	-0.5410030523	 1.8307574664	-1.0112137971	 0.13422
H	-0.4306120569	 1.9335581494	 0.7537339007	 0.11125
H	 0.4269683792	-0.4693288103	-0.9652371648	 0.083056
H	 0.373427485	-0.1831716018	 2.0973225367	 0.111249
H	 0.784310383	-1.6550693041	 1.2015292888	 0.134218
H	 1.8320369259	-0.2262423135	 1.1000509474	 0.1115
H	-1.9556123117	-0.1834453861	 0.9111724335	 0.063751
H	-4.160620175	-0.7978926403	-1.4187355048	 0.104127
H	-3.4112700851	-2.9796135113	-2.6199667118	 0.114058
H	-1.6949287901	-2.3156939301	-2.6018198816	 0.128294
H	-3.3238882656	-2.999001222	-0.0206142385	 0.104128
78.2979	87.8085	181.2067	207.9261	227.2714	304.5866	309.6483	373.3252	424.5719	471.0758	492.4409	717.2801	737.5273	787.1753	804.66	856.7654	909.8361	931.7609	951.5007	962.5726	997.2775	1008.2062	1010.0367	1066.6121	1075.1947	1098.0577	1113.5229	1139.144	1150.9419	1184.3291	1200.2564	1205.4726	1304.5146	1317.0431	1338.0664	1370.3019	1371.086	1399.6113	1413.3573	1435.8188	1457.2822	1488.808	1491.94	1501.8114	1516.0876	2923.6769	3030.1719	3031.3124	3038.8057	3093.8804	3100.057	3126.307	3126.962	3130.8239	3163.0284	3172.4457	3232.1556
CC(C)C1OC2CC2O1	CC(C)[C@H]1O[C@H]2C[C@H]2O1	
InChI=1S/C7H12O2/c1-4(2)7-8-5-3-6(5)9-7/h4-7H,3H2,1-2H3	InChI=1S/C7H12O2/c1-4(2)7-8-5-3-6(5)9-7/h4-7H,3H2,1-2H3/t5-,6+,7-
