17
gdb 25926	2.61962	1.63271	1.01849	1.6527	76.23	-0.2313	-0.0416	0.1897	1134.2067	0.136322	-418.081072	-418.072594	-418.07165	-418.114376	31.081	
C	-0.0507271545	 1.5279485441	-0.0248242203	-0.502065
C	 0.0813218238	 0.018767046	-0.0192044198	 0.419328
O	 1.1476459382	-0.5454308775	-0.0365763529	-0.314488
N	-1.1287968117	-0.7057528757	 0.0075950338	-0.148093
C	-2.4157360915	-0.1794499552	 0.0275974607	 0.020748
N	-3.3277742208	-1.1032203531	 0.0495104883	-0.272069
C	-2.628993327	-2.3009247791	 0.0442098849	-0.158681
C	-1.2805778952	-2.1044968414	 0.0187161343	 0.289557
C	-0.1632344033	-3.0903004601	 0.0046702378	-0.471829
H	 0.9539509822	 1.9480967548	-0.0426396382	 0.15758
H	-0.6049414044	 1.872737052	-0.9028538259	 0.156512
H	-0.5781171895	 1.8825157598	 0.8656505518	 0.156375
H	-2.5974740138	 0.8832134855	 0.0242679857	 0.136775
H	-3.1467980691	-3.2483261151	 0.0593433389	 0.116314
H	 0.4653044175	-2.9870177832	-0.884187266	 0.144989
H	 0.4971115478	-2.9759223488	 0.868782094	 0.14492
H	-0.5882924787	-4.097439293	 0.0188024829	 0.124127
66.8436	144.3849	172.6534	216.9329	223.3034	263.7718	326.181	423.5092	495.0793	574.9845	651.2031	656.0299	669.6459	689.6744	807.3228	856.4141	916.2987	963.1398	1015.1407	1055.8317	1068.5515	1095.667	1134.8968	1229.2458	1269.3211	1304.4911	1310.2013	1384.2941	1408.5183	1426.8338	1473.2371	1473.2606	1478.2602	1481.9201	1538.2246	1622.3034	1814.7759	3046.6976	3052.6133	3107.3169	3119.0877	3123.9431	3168.6886	3248.5534	3269.2128
CC(=O)N1C=NC=C1C	CC(=O)n1cncc1C	
InChI=1S/C6H8N2O/c1-5-3-7-4-8(5)6(2)9/h3-4H,1-2H3	InChI=1S/C6H8N2O/c1-5-3-7-4-8(5)6(2)9/h3-4H,1-2H3
