15
gdb 27803	2.11455	1.8001	0.97823	4.2415	75.16	-0.2228	-0.0445	0.1783	1144.021	0.112114	-453.993345	-453.985213	-453.984269	-454.026377	30.216	
C	-0.0192064937	 1.493661232	-0.0072466548	-0.475631
C	 0.0015166455	-0.0090419052	-0.0042385314	 0.337566
N	-0.0211879825	-0.6140784033	-1.1599751922	-0.33375
C	-0.0037568033	-1.9751128103	-1.2254491329	 0.426348
N	-0.0240440649	-2.6557993014	-2.2879807104	-0.517968
O	 0.0400119768	-2.709689884	 0.0371806327	-0.281048
C	 0.0615905193	-2.0471432889	 1.1871423564	 0.505307
O	 0.1011323965	-2.8392629555	 2.256386044	-0.392186
C	 0.0446798546	-0.6941304172	 1.2507918535	-0.356243
H	 0.8704047362	 1.8886796427	 0.4963492553	 0.140068
H	-0.052805126	 1.8651953825	-1.0310852888	 0.152429
H	-0.8898063065	 1.8645671876	 0.5454853109	 0.140009
H	-0.0050374727	-3.652825738	-2.0846013166	 0.223864
H	 0.1056375067	-3.7571958201	 1.9511664051	 0.314856
H	 0.0631200841	-0.183678261	 2.2014275593	 0.116379
87.8364	103.2337	171.9577	216.4054	300.0468	344.6228	448.7329	502.5178	525.377	558.4323	593.6846	628.6264	704.9992	760.9245	786.3312	787.4331	822.4029	952.1192	978.0958	1028.2947	1053.9855	1096.2163	1170.8192	1222.4631	1241.7324	1386.1973	1413.61	1466.8834	1467.9343	1479.572	1584.9811	1713.5793	1771.3506	3037.0787	3091.559	3159.8137	3248.9416	3525.0204	3778.4988
CC1=NC(=N)OC(O)=C1	CC1=C[C@@H](OC(=N1)[NH])O	
InChI=1S/C5H6N2O2/c1-3-2-4(8)9-5(6)7-3/h2,6,8H,1H3	InChI=1S/C5H7N2O2/c1-3-2-4(8)9-5(6)7-3/h2,4,6,8H,1H3/t4-/m1/s1
