19
gdb 72001	2.62742	1.61796	1.17158	3.5351	81.7	-0.2404	-0.016	0.2244	1085.5593	0.158981	-385.86005	-385.852006	-385.851062	-385.892417	31.345	
C	-0.0705470462	 1.5038205984	-0.0889670058	-0.510875
C	 0.0180374861	 0.0064345763	-0.0393210729	 0.286311
C	 0.8619551232	-0.8880197363	-0.9535458624	-0.274455
C	 0.029151906	-2.0776511278	-0.4031883788	-0.069471
C	 0.4867752859	-2.1898991822	 1.0730389514	-0.289168
C	-0.1704895493	-0.8287079826	 1.2751998877	 0.228899
C	-0.5747207855	-0.23435693	 2.5478855248	 0.037763
O	-0.2911575686	-0.6975034392	 3.6303343647	-0.27477
C	-1.0643816982	-1.0203804039	 0.0328758956	-0.167403
H	 0.8539828589	 1.9707681941	 0.268351992	 0.13049
H	-0.2368780354	 1.8380243016	-1.1191351912	 0.124745
H	-0.895214167	 1.8895794611	 0.5173356526	 0.127674
H	 0.6337801323	-0.6768880014	-2.0026435926	 0.102348
H	 1.9477524035	-0.9213009878	-0.8086451882	 0.094671
H	-0.1502813631	-2.9628923451	-1.0085394916	 0.078878
H	-0.0561931082	-2.9597650219	 1.6263255668	 0.114406
H	 1.5607833978	-2.2910006932	 1.2602073153	 0.098763
H	-1.1919774549	 0.6895586807	 2.4687880897	 0.059375
H	-2.1412238473	-0.9636365907	-0.0460574073	 0.101819
103.3179	168.1264	194.893	234.8392	274.4482	325.7463	407.9746	434.7465	498.2565	589.128	688.6256	707.1523	782.9475	815.5982	887.9559	898.6792	913.0625	949.2288	954.642	983.6152	1023.9895	1033.7134	1064.9427	1105.8814	1124.0663	1137.6145	1156.5995	1176.9363	1223.2471	1248.1304	1261.5973	1276.4066	1363.0652	1393.0658	1418.9	1446.0363	1487.8658	1493.0421	1498.1308	1510.5599	1791.0772	2864.3078	3029.3422	3034.2016	3048.7156	3089.3166	3093.6441	3106.0857	3111.4587	3144.6564	3215.1178
CC12CC3CC1(C=O)C23	C[C@@]12C[C@H]3C[C@]1(C=O)[C@@H]23	
InChI=1S/C8H10O/c1-7-2-5-3-8(7,4-9)6(5)7/h4-6H,2-3H2,1H3	InChI=1S/C8H10O/c1-7-2-5-3-8(7,4-9)6(5)7/h4-6H,2-3H2,1H3/t5-,6+,7-,8-/m0/s1
