23
gdb 115528	2.30441	1.12544	0.99556	0.7114	92.21	-0.2499	0.0525	0.3024	1381.189	0.203718	-351.123494	-351.113215	-351.112271	-351.158321	39.105	
C	-0.2691007803	 1.6806091067	 0.1465992191	-0.382424
C	-0.2992842375	 0.1933506663	 0.5183765129	-0.205707
C	-1.4116659459	-0.5636071116	-0.1942958508	 0.034817
C	-1.3380250874	-0.8043312511	-1.7265657254	-0.247121
C	-1.9702610523	-2.2016257545	-1.5081367332	-0.253255
C	-1.5754606905	-2.1239872645	 0.0093384121	 0.112288
C	-0.2578732908	-2.8642470014	 0.2917680159	-0.44355
C	-2.5976050004	-2.5213368764	 0.9630207316	 0.267903
C	-3.4491157132	-2.8379508979	 1.7525104458	-0.460136
H	 0.537620095	 2.2036673796	 0.6693380371	 0.112097
H	-0.1126289422	 1.8188128086	-0.9287005936	 0.118108
H	-1.2118713493	 2.1731392705	 0.4093228836	 0.115904
H	 0.6717206461	-0.2587779613	 0.2822466879	 0.093102
H	-0.4321188512	 0.0905443595	 1.6034137918	 0.101953
H	-2.3734499796	-0.0983518398	 0.0484226155	 0.078153
H	-1.8779734307	-0.1070448018	-2.3703433213	 0.099004
H	-0.3044636101	-0.8679354626	-2.0816067748	 0.099363
H	-3.0542124995	-2.1909942235	-1.6387677094	 0.111153
H	-1.5546493758	-3.0444261626	-2.0662525264	 0.099214
H	 0.5109710463	-2.5937915923	-0.4384401743	 0.11348
H	 0.1214800335	-2.6350677019	 1.2914383586	 0.125115
H	-0.4170219157	-3.9449875827	 0.2309134906	 0.12301
H	-4.2016720685	-3.1193086853	 2.4465406366	 0.187529
77.7099	107.412	150.9508	160.4556	193.9876	233.0386	260.4697	288.2204	342.03	365.8641	440.6325	525.7338	562.895	574.5348	615.5154	619.1958	718.7589	767.3851	812.6897	888.8858	911.0478	938.9181	940.4964	949.6201	980.3214	1014.2963	1067.3082	1111.534	1153.0117	1169.7255	1179.6957	1222.8394	1230.421	1260.6993	1265.9229	1293.1998	1315.4719	1345.6251	1396.5258	1405.6608	1411.9392	1481.4873	1484.267	1491.3707	1496.7464	1500.2138	1502.5301	1508.5474	2225.705	3018.7217	3030.4876	3037.0049	3040.0954	3051.9611	3059.0646	3064.5412	3098.422	3102.553	3105.0453	3109.9847	3114.631	3125.5792	3502.0782
CCC1CCC1(C)C#C	CC[C@H]1CC[C@]1(C)C#C	
InChI=1S/C9H14/c1-4-8-6-7-9(8,3)5-2/h2,8H,4,6-7H2,1,3H3	InChI=1S/C9H14/c1-4-8-6-7-9(8,3)5-2/h2,8H,4,6-7H2,1,3H3/t8-,9-/m0/s1
