17
gdb 125854	3.20521	1.61483	1.13861	2.6403	80.27	-0.2039	-0.0032	0.2006	1052.6572	0.139592	-380.896551	-380.889392	-380.888448	-380.927999	28.317	
C	-0.0924379229	 1.5823902208	 0.0195771688	-0.389819
C	 0.0061359991	 0.0464168967	 0.0204228747	-0.200468
C	 0.8140442501	-0.516830813	-1.1514334377	-0.087438
C	 1.8507405439	-1.2696812978	-0.7341493626	-0.22319
C	 1.8545817037	-1.300536758	 0.7287783942	 0.21193
C	 0.7858021655	-0.5393186375	 1.1638671973	 0.367194
N	 0.8014815497	-0.5706473528	 2.5101817411	-0.33814
N	 1.8297315995	-1.3187730188	 2.9919946306	-0.225899
C	 2.4719810936	-1.7641718439	 1.9085587019	-0.166517
H	 0.9038234504	 2.0320568531	 0.0457241173	 0.133583
H	-0.6048149899	 1.9342676089	-0.8808529396	 0.121848
H	-0.6553201714	 1.942164844	 0.8871055538	 0.112487
H	-1.011892687	-0.3688889856	-0.007968406	 0.106396
H	 0.5503381187	-0.3026088525	-2.1795599046	 0.096413
H	 2.5642993	-1.7719881891	-1.3747008593	 0.102478
H	 0.1810671872	-0.1323010053	 3.1691442563	 0.270013
H	 3.3400681899	-2.393895999	 2.0365532039	 0.109128
128.0054	166.7724	253.5975	295.3652	355.2845	462.8759	511.4436	552.078	642.6683	676.8521	693.3883	698.5117	780.8468	806.2802	878.0691	908.2412	941.7725	974.0934	1016.6336	1069.5489	1083.008	1090.4341	1098.8474	1170.6589	1227.998	1236.9568	1293.2634	1325.4822	1334.3118	1399.0982	1408.8788	1460.9462	1496.0586	1498.8287	1547.0285	1555.8581	1615.0091	3007.1693	3036.8414	3104.1342	3121.1595	3203.6924	3226.7309	3245.2399	3673.8307
CC1C=CC2=C1NN=C2	C[C@H]1C=Cc2c1[nH]nc2	
InChI=1S/C7H8N2/c1-5-2-3-6-4-8-9-7(5)6/h2-5H,1H3,(H,8,9)	InChI=1S/C7H8N2/c1-5-2-3-6-4-8-9-7(5)6/h2-5H,1H3,(H,8,9)/t5-/m0/s1
