18
gdb 114152	4.94576	0.9294	0.85722	4.261	78.77	-0.265	0.0172	0.2822	1352.1152	0.147437	-401.927041	-401.91842	-401.917476	-401.960594	31.771	
C	 0.0240907158	 1.2987096935	-0.1701325094	-0.241229
O	-0.0347058735	-0.0119708686	 0.3522954999	-0.242032
C	-1.2807001891	-0.6256350139	 0.1756029272	 0.142314
C	-1.6389336826	-1.198386175	-1.2452630653	-0.334343
C	-1.7502234868	-2.5953988103	-0.6110904676	 0.207241
C	-0.4392052652	-2.95998157	 0.0471555965	-0.309135
C	-1.3537117713	-2.0253293696	 0.7731113824	-0.127134
C	-2.7554487861	-3.5576219417	-0.9170624185	 0.185525
N	-3.5811214953	-4.3271552554	-1.1758599017	-0.350282
H	 1.02404955	 1.6851199417	 0.0383592819	 0.134161
H	-0.1431375335	 1.3170709178	-1.2573104194	 0.112204
H	-0.7193558539	 1.9568102787	 0.305188365	 0.110421
H	-2.0879311763	 0.0217416691	 0.5462930263	 0.081447
H	-2.5851205333	-0.8194718357	-1.6333706476	 0.126712
H	-0.8632588233	-1.1023687536	-2.009945585	 0.114672
H	-0.3891607425	-3.9642302061	 0.4523998273	 0.140131
H	 0.4842797584	-2.5916935305	-0.3884118752	 0.135309
H	-1.7788414016	-2.2745877204	 1.736594943	 0.114016
79.9844	105.8654	144.4669	197.2668	213.6317	279.5197	371.9653	443.6512	457.9226	555.6254	574.578	603.7398	709.4143	820.5856	851.4451	908.664	965.6743	970.003	979.2742	1035.515	1051.2803	1090.8742	1094.5555	1132.0252	1166.7039	1183.6693	1207.3283	1222.8811	1245.5226	1286.6896	1303.6196	1382.4205	1390.5267	1473.7496	1481.6975	1488.6635	1495.0173	1508.004	2345.1717	2979.2625	3003.6178	3029.2093	3065.3089	3122.3852	3133.2684	3133.6833	3203.6066	3228.0158
COC1CC2(CC12)C#N	CO[C@H]1C[C@]2(C[C@@H]12)C#N	
InChI=1S/C7H9NO/c1-9-6-3-7(4-8)2-5(6)7/h5-6H,2-3H2,1H3	InChI=1S/C7H9NO/c1-9-6-3-7(4-8)2-5(6)7/h5-6H,2-3H2,1H3/t5-,6-,7+/m0/s1
