18
gdb 13232	7.0867	0.8369	0.80422	1.4375	73.66	-0.2469	0.0512	0.298	1401.6251	0.152529	-347.747399	-347.738748	-347.737804	-347.781835	30.521	
C	 0.0229564878	-1.2352435557	 0.0453043227	-0.432052
C	-0.0003965545	-0.0337412055	 0.0681285752	 0.291804
C	 0.0067045238	 1.423460169	 0.0912418565	-0.357374
C	 1.4116849377	 2.023544881	-0.12655517	-0.203278
C	 1.4077621596	 3.5458664907	-0.0852476112	-0.023154
C	 1.2523149522	 4.2264154445	 1.2967111912	-0.07593
O	 2.5318495019	 4.8776812921	 1.1743490393	-0.270063
C	 2.7818198819	 4.2538865113	-0.1010133421	-0.095261
H	 0.0306667737	-2.2967427831	 0.0273756603	 0.195044
H	-0.6754399372	 1.8055227975	-0.6799153887	 0.130325
H	-0.39616437	 1.7735056755	 1.0510921984	 0.133573
H	 2.0915796045	 1.6337910178	 0.6405220172	 0.115062
H	 1.8004563574	 1.6787657982	-1.0919433605	 0.112987
H	 0.7156394784	 3.9424734796	-0.8343206304	 0.079184
H	 0.4324888843	 4.9480026868	 1.3972062398	 0.101693
H	 1.2232900788	 3.5364778562	 2.152010095	 0.097211
H	 3.6492178073	 3.5804098779	-0.0667228135	 0.099076
H	 2.9382815324	 4.992649736	-0.8964336592	 0.101155
41.3762	77.16	101.7969	124.2092	225.7018	340.4587	356.6822	400.2458	511.5614	619.2723	638.3503	750.6064	782.7727	876.1456	891.5084	940.9938	948.4327	982.5555	1020.9231	1044.6074	1076.2831	1110.9232	1141.1286	1160.4935	1165.117	1228.7755	1255.4882	1292.6155	1311.318	1317.1241	1353.3493	1382.7126	1401.8254	1471.8044	1492.941	1511.8443	1536.9243	2239.9203	2993.9892	3006.0545	3012.9479	3033.2461	3039.8409	3041.3533	3046.9287	3062.8783	3081.6183	3507.5323
C#CCCC1COC1	C#CCCC1COC1	
InChI=1S/C7H10O/c1-2-3-4-7-5-8-6-7/h1,7H,3-6H2	InChI=1S/C7H10O/c1-2-3-4-7-5-8-6-7/h1,7H,3-6H2
