18
gdb 17321	2.83002	2.43067	1.75427	2.1048	72.11	-0.198	0.0679	0.2659	835.1267	0.152736	-343.872157	-343.864468	-343.863523	-343.903547	29.918	
C	-0.2252134609	 1.5526395761	-0.0329162231	-0.291339
N	 0.1711707015	 0.1493462589	 0.0845717744	-0.110321
C	 1.3889562884	-0.5065146074	-0.2920483573	-0.116906
C	 2.7077853007	 0.1741100625	 0.2253381379	-0.071587
N	 2.3597910812	 1.4490111477	 0.8987905421	-0.338472
C	 2.1974605861	 0.1560897583	 1.6077583638	-0.121829
C	 0.8642294377	-0.5467602445	 1.1246346353	 0.32857
C	 0.2055703609	-1.6303573849	 1.9258079525	-0.487985
H	 0.4128943014	 2.0910537045	-0.7359730106	 0.125632
H	-1.2611006325	 1.5902961905	-0.3942044361	 0.097843
H	-0.1675641625	 2.0695881062	 0.9271133487	 0.123806
H	 1.3811274509	-1.2678769018	-1.0667718975	 0.087847
H	 3.7048027613	-0.0210860868	-0.1472108175	 0.091604
H	 3.2340331162	 1.8588903346	 1.2284724182	 0.228871
H	 2.7154789398	-0.0543327086	 2.5347990912	 0.089192
H	-0.3194525761	-1.2138758816	 2.7946481725	 0.119425
H	-0.5247410938	-2.1624012152	 1.3109910322	 0.13074
H	 0.9426410697	-2.3504504084	 2.2993171236	 0.114911
137.1411	193.7568	219.3335	231.6807	276.4521	294.488	398.1162	517.7804	592.2368	662.2668	729.8594	732.5191	805.7328	824.8625	860.7522	887.4931	913.8596	943.2436	966.8019	1014.624	1068.6131	1103.2372	1116.8571	1126.51	1143.5785	1186.6359	1204.2855	1226.8091	1290.4051	1291.8985	1345.8793	1401.1304	1436.007	1463.8317	1482.1132	1488.1649	1499.6209	1501.157	3012.6101	3021.3999	3078.0417	3094.2064	3119.6193	3134.0125	3146.5295	3189.5757	3204.6659	3463.1568
CN1C2C3NC3C12C	CN1[C@H]2[C@H]3N[C@H]3[C@@]12C	
InChI=1S/C6H10N2/c1-6-4-3(7-4)5(6)8(6)2/h3-5,7H,1-2H3	InChI=1S/C6H10N2/c1-6-4-3(7-4)5(6)8(6)2/h3-5,7H,1-2H3/t3-,4+,5-,6+,8?/m0/s1
