15
gdb 12408	3.15286	2.21572	1.37991	2.1436	58.12	-0.2697	0.0014	0.2711	851.0089	0.120439	-436.94075	-436.933776	-436.932832	-436.971986	26.306	
O	 0.0065420176	 1.3924381426	 0.1341754706	-0.4364
C	 0.0119230133	-0.0003766011	 0.005503361	 0.076463
C	-1.4155802388	-0.5575876645	 0.0059066852	-0.129946
O	-1.3421528533	-1.9641667057	-0.2080778876	-0.217988
C	-0.817970148	-2.2461593995	-1.4562598473	 0.012834
O	 0.512511187	-1.7282236829	-1.6547634237	-0.250013
C	 0.7252772992	-0.4455489545	-1.2601913418	 0.358418
N	 1.5198013952	 0.3514578329	-1.8361399962	-0.532589
H	 0.6804856452	 1.7111918962	-0.4869603619	 0.300146
H	 0.5464498497	-0.4796801372	 0.8439191182	 0.106383
H	-1.9031746705	-0.3977923932	 0.9686072132	 0.131248
H	-2.0104719711	-0.0685031767	-0.7803688495	 0.109718
H	-0.7300790873	-3.3285896979	-1.5531395689	 0.135882
H	-1.4530688039	-1.8324724678	-2.2566186956	 0.103727
H	 1.9449539857	-0.0658892609	-2.6639796657	 0.232117
103.6385	158.653	303.3044	355.7771	374.262	414.6597	440.7211	477.1777	556.463	635.3189	732.6094	817.4522	898.5399	947.1462	983.689	1050.6824	1066.8109	1085.1727	1133.1437	1159.2191	1197.7167	1239.1188	1285.3993	1316.7191	1321.9707	1333.7345	1407.6687	1451.2841	1459.4045	1502.149	1520.6352	1755.567	2958.4051	2973.5814	3002.7154	3125.0125	3134.0747	3494.2874	3692.6748
OC1COCOC1=N	O[C@H]1COCO[C]1[NH]	
InChI=1S/C4H7NO3/c5-4-3(6)1-7-2-8-4/h3,5-6H,1-2H2	InChI=1S/C4H7NO3/c5-4-3(6)1-7-2-8-4/h3,5-6H,1-2H2/t3-/m0/s1
