16
gdb 44898	4.09895	1.19955	1.11672	1.7811	75.53	-0.2254	-0.0223	0.2031	1093.5648	0.124733	-400.685878	-400.678558	-400.677614	-400.717572	28.983	
O	 0.0343401427	 0.0557909274	 0.0508960132	-0.32123
C	 0.0303158163	 1.2548801545	 0.0232817448	 0.410866
C	-1.1624565596	 2.243500826	 0.0644992587	-0.289971
N	-0.4566670113	 3.5540384666	-0.0006722436	-0.12281
C	 0.5750717129	 3.2485664127	-1.0741867433	-0.20503
C	 1.1894102468	 2.2411606396	-0.0605133023	-0.13824
C	 0.677552883	 3.2851423174	 1.000636745	-0.207048
C	 1.5362014729	 4.4252161982	 1.2439780563	 0.325142
C	 2.267474656	 5.3509134609	 1.4738719859	-0.395684
H	-1.83145921	 2.11986551	-0.791204506	 0.136771
H	-1.7486040803	 2.1484096952	 0.9827625475	 0.135971
H	 0.1648175954	 2.8682920223	-2.012967708	 0.117115
H	 1.2031122018	 4.121048067	-1.2537093903	 0.13993
H	 2.2014791737	 1.8441838195	-0.0914527096	 0.098175
H	 0.320025695	 2.8780465662	 1.9523954212	 0.114406
H	 2.9050082948	 6.1759677866	 1.6764058103	 0.201639
119.9454	146.08	193.2658	378.6356	419.2249	446.1995	513.6464	522.3473	602.6788	614.2345	636.3016	659.8682	759.8065	824.0737	850.3151	858.686	885.6032	978.4481	983.5264	1007.7741	1036.5316	1064.1161	1133.9207	1150.8967	1173.8161	1195.0618	1222.8385	1240.7584	1258.9492	1290.8014	1372.9086	1467.4406	1516.8747	1877.532	2238.1672	3052.5049	3066.3415	3073.9677	3118.0983	3145.1814	3151.3502	3502.5514
O=C1CN2CC1C2C#C	O=C1CN2C[C@H]1[C@H]2C#C	
InChI=1S/C7H7NO/c1-2-6-5-3-8(6)4-7(5)9/h1,5-6H,3-4H2	InChI=1S/C7H7NO/c1-2-6-5-3-8(6)4-7(5)9/h1,5-6H,3-4H2/t5-,6+/m0/s1
