19
gdb 13484	3.20516	1.64361	1.15544	2.4242	72.58	-0.2616	0.028	0.2896	1058.2021	0.165054	-365.07177	-365.063243	-365.062299	-365.104781	31.425	
C	 0.0224532885	 1.5794875842	 0.1142693335	-0.393704
C	 0.025083783	 0.0458868965	 0.0593949705	 0.018437
C	 0.7382466515	-0.559289868	 1.275789374	-0.398631
C	-1.4056585472	-0.4938938102	-0.0536594918	-0.112171
C	-2.1923900961	-0.2363162557	-1.3600811385	-0.111973
O	-2.2974838579	-1.6763236248	-1.5904907658	-0.252846
C	-1.5763857376	-1.9515426885	-0.4475810138	 0.431478
N	-1.2063579525	-3.0497390219	 0.0334122821	-0.545658
H	 1.0447043146	 1.9677600357	 0.1627196212	 0.118382
H	-0.4589934221	 2.0209883703	-0.7650982534	 0.110752
H	-0.5107980002	 1.937506907	 1.0029455785	 0.115399
H	 0.5664404614	-0.2654679576	-0.8452976229	 0.078809
H	 0.2538954844	-0.2411681472	 2.206942577	 0.10941
H	 0.7155219464	-1.6511517917	 1.2406918899	 0.155381
H	 1.7813434934	-0.2292665019	 1.3152737636	 0.10816
H	-1.9746009263	-0.2406567918	 0.8472466546	 0.102636
H	-3.1813682647	 0.2174395259	-1.2639575009	 0.120233
H	-1.6301913819	 0.2430666636	-2.1664327065	 0.118773
H	-1.5095610567	-3.832271774	-0.5490919213	 0.227134
79.9588	125.0149	156.7283	227.9524	244.6942	274.8606	325.1511	354.573	439.0176	498.1785	631.5279	737.7183	806.0355	864.1292	901.1167	927.7774	941.7292	967.3749	974.8258	996.785	1019.4417	1072.8126	1137.4549	1157.6325	1179.6561	1207.3959	1229.4615	1247.0764	1290.0657	1347.1577	1363.2787	1389.7832	1402.5774	1423.5098	1489.1845	1490.894	1503.6897	1513.0604	1515.8419	1816.3233	3003.0977	3024.407	3029.8962	3057.1771	3060.5491	3089.2295	3093.948	3101.6029	3117.9218	3128.0045	3473.1993
CC(C)C1COC1=N	CC(C)[C@H]1CO[C]1[NH]	
InChI=1S/C6H11NO/c1-4(2)5-3-8-6(5)7/h4-5,7H,3H2,1-2H3	InChI=1S/C6H11NO/c1-4(2)5-3-8-6(5)7/h4-5,7H,3H2,1-2H3/t5-/m1/s1
