17
gdb 13552	3.82363	1.39805	1.12189	1.1509	71.35	-0.2295	0.0268	0.2562	1065.5355	0.139577	-363.781616	-363.772694	-363.77175	-363.815043	32.43	
C	-0.8437587554	 1.1827588769	 0.407827049	-0.312139
N	-0.1748481182	-0.098551997	 0.223079067	-0.08304
C	 1.0974252455	-0.1222987123	-0.4851128387	-0.249468
C	 1.0317205705	-0.4103553902	 0.9767320063	 0.000249
C	 1.6355964155	 0.5562414993	 1.9875384491	-0.087018
O	 0.8442072407	 0.6369264504	 3.1725568357	-0.418318
C	 3.0210225291	 0.1762451656	 2.2813227109	 0.299386
C	 4.138070322	-0.1846599337	 2.5407496739	-0.43145
H	-0.1720793567	 2.0555655777	 0.3994637871	 0.099697
H	-1.5675694554	 1.314736534	-0.4022072817	 0.120095
H	-1.3794090642	 1.1741168896	 1.3605246177	 0.139165
H	 1.2401916482	-0.9246662995	-1.2038945611	 0.11824
H	 1.5360637499	 0.8323073285	-0.778256558	 0.107542
H	 1.0860858653	-1.4485448075	 1.3056871132	 0.092172
H	 1.625103249	 1.5719593838	 1.5800394937	 0.118548
H	 0.9187811791	-0.2086298428	 3.629734119	 0.285543
H	 5.1322303853	-0.4823597429	 2.767189617	 0.200797
64.0881	117.9564	178.2005	194.5864	235.0003	249.2884	306.9655	362.1938	415.9188	488.5396	542.4119	591.4704	635.4439	669.7572	754.6338	869.0432	902.125	959.7967	1031.4683	1051.1862	1082.0985	1116.9801	1126.7523	1152.3357	1173.9043	1202.3786	1253.7469	1285.3641	1338.1288	1413.3806	1419.7554	1450.2875	1486.3771	1504.2281	1514.6462	2231.7323	2976.7773	3064.4807	3073.3554	3081.68	3100.6707	3120.2947	3173.4454	3502.6704	3801.6421
CN1CC1C(O)C#C	CN1C[C@H]1[C@@H](O)C#C	
InChI=1S/C6H9NO/c1-3-6(8)5-4-7(5)2/h1,5-6,8H,4H2,2H3	InChI=1S/C6H9NO/c1-3-6(8)5-4-7(5)2/h1,5-6,8H,4H2,2H3/t5-,6-,7?/m0/s1
