15
gdb 27073	3.18975	1.25458	0.9048	3.8679	71.73	-0.2066	0.0054	0.212	1201.0773	0.11409	-453.992284	-453.984222	-453.983278	-454.025282	29.698	
N	-0.0909702479	 1.3972655715	 0.0119599199	-0.61149
C	-0.0570796535	 0.0026890554	-0.0109396119	 0.194212
C	-1.0886717118	-0.890611986	 0.0029106609	 0.323207
N	-2.4314730356	-0.5132422779	 0.0451900772	-0.414936
C	-3.5112376306	-1.3470795016	 0.0616421986	 0.142789
O	-3.4733724929	-2.5583582069	 0.0418209572	-0.315674
C	-0.5135636662	-2.2043108741	-0.0334337111	-0.269049
C	 0.8293774309	-2.0040862102	-0.0665669569	-0.010901
O	 1.1345245419	-0.6807688563	-0.0539834623	-0.163099
H	 0.3724811368	 1.7884697267	 0.8269965694	 0.250748
H	 0.3282952021	 1.8143396551	-0.8141011189	 0.250749
H	-2.5940294432	 0.4837177265	 0.0652360268	 0.258164
H	-4.4561668633	-0.7708846971	 0.096347949	 0.07891
H	-1.050477829	-3.1358254785	-0.0335958691	 0.149417
H	 1.6691000123	-2.6785129267	-0.0999221488	 0.136955
66.5663	165.5981	190.2191	236.3715	252.6987	268.627	395.5801	454.2071	608.5753	610.4382	636.055	691.9022	721.4374	753.8215	796.4998	859.8408	870.3881	920.4913	1017.0548	1040.435	1100.5234	1158.3013	1189.05	1210.6566	1243.4021	1314.547	1429.4618	1475.7252	1515.6678	1545.4487	1651.9668	1718.7919	1803.2738	2945.8372	3275.0583	3309.2063	3484.9165	3547.022	3604.0731
NC1=C(NC=O)C=CO1	Nc1c(NC=O)cco1	
InChI=1S/C5H6N2O2/c6-5-4(7-3-8)1-2-9-5/h1-3H,6H2,(H,7,8)	InChI=1S/C5H6N2O2/c6-5-4(7-3-8)1-2-9-5/h1-3H,6H2,(H,7,8)
