17
gdb 46889	2.84419	1.5915	1.254	5.4097	75.22	-0.2344	-0.0264	0.208	1017.6216	0.139199	-418.015582	-418.00817	-418.007225	-418.047526	29.084	
O	 0.0627121124	-0.0874139561	-0.0965434457	-0.381295
C	-0.015193554	 1.1288638362	-0.0318245651	 0.378546
N	-1.2130391719	 1.757675681	 0.1696257045	-0.297777
C	-1.4706853085	 3.1789007343	 0.2285276509	-0.196775
C	-0.7459933889	 3.9239974994	 1.3470472294	-0.028063
N	-0.1151696699	 3.1275719376	 2.3890404149	-0.317048
C	 0.7465639503	 3.8574144042	 1.4248976383	-0.076318
C	 1.5469574558	 3.0877180172	 0.4442143461	-0.020825
C	 1.2081583405	 1.9667778334	-0.2030792571	-0.185304
H	-1.9643294215	 1.124664341	 0.3950994	 0.248204
H	-1.2090457434	 3.6587430541	-0.724822005	 0.122898
H	-2.5499083373	 3.3023392815	 0.3551566484	 0.117926
H	-1.2074462324	 4.872294296	 1.6196363595	 0.090168
H	-0.1296969735	 3.6176438349	 3.2792330623	 0.238874
H	 1.2440053455	 4.7475129223	 1.8009599289	 0.088933
H	 2.5294188275	 3.5067264835	 0.23800586	 0.100575
H	 1.9369711191	 1.4936617795	-0.8533914803	 0.117281
72.6168	201.0326	240.4063	306.4318	339.0705	411.7176	489.2106	493.9119	561.5696	678.651	688.0148	745.5995	759.332	823.7624	830.6905	878.7177	900.1422	952.0194	969.4083	1009.0222	1042.238	1083.2354	1158.3844	1169.6251	1202.0871	1217.5111	1264.4064	1302.4012	1345.4382	1391.6444	1418.0806	1428.0919	1465.7525	1470.2771	1495.9545	1694.9578	1766.0102	3012.1007	3085.6029	3114.9108	3135.3933	3153.9017	3189.0315	3509.9553	3632.7658
O=C1NCC2NC2C=C1	O=C1NC[C@H]2N[C@H]2C=C1	
InChI=1S/C6H8N2O/c9-6-2-1-4-5(8-4)3-7-6/h1-2,4-5,8H,3H2,(H,7,9)	InChI=1S/C6H8N2O/c9-6-2-1-4-5(8-4)3-7-6/h1-2,4-5,8H,3H2,(H,7,9)/t4-,5+/m0/s1
