17
gdb 98050	3.78842	0.779	0.6539	1.5974	81.27	-0.2429	-0.0907	0.1522	1718.7259	0.131278	-421.836218	-421.825373	-421.824429	-421.875289	35.429	
C	 0.0580125154	 1.5420840104	 0.0094013429	-0.390328
C	-0.0469893492	 0.0198482995	 0.002694106	-0.278769
C	-1.4748169834	-0.4779108069	 0.013311798	 0.291967
O	-2.4477897317	 0.2365229742	 0.0263133279	-0.28186
C	-1.6431635081	-2.0196320507	 0.006643184	 0.086127
O	-0.6669897418	-2.7419164852	-0.0065144984	-0.282191
C	-2.9982807121	-2.5004792125	 0.0170238957	 0.041565
C	-4.1318017337	-2.9160297619	 0.0256611528	 0.16327
C	-5.4964627227	-3.4085247694	 0.0362310371	-0.50618
H	 1.1057412885	 1.8540173695	 0.0014259627	 0.11486
H	-0.437628046	 1.9737170154	-0.864228154	 0.131125
H	-0.4216035526	 1.9648599643	 0.8962046998	 0.131139
H	 0.4513613763	-0.4238231038	-0.8689789915	 0.140444
H	 0.4671726314	-0.4324744062	 0.8606453367	 0.140439
H	-5.5295351499	-4.5025721495	 0.0302359968	 0.162801
H	-6.0263026143	-3.0535993453	 0.9269191687	 0.167797
H	-6.0436823362	-3.0433752119	-0.8396917152	 0.167793
21.119	32.4879	44.5216	68.2177	141.4916	192.2758	194.1707	285.2032	311.8918	363.4693	392.0553	430.5124	466.2464	636.4228	677.8262	718.5792	827.9483	860.11	998.9401	1041.7365	1052.9567	1057.9658	1080.2943	1123.8053	1258.9061	1261.2434	1373.4128	1407.8954	1414.7761	1434.8534	1467.0697	1470.9462	1494.4172	1497.7561	1746.8728	1810.147	2337.9903	3033.3371	3036.4614	3050.9284	3058.7668	3097.1085	3103.6456	3123.7215	3123.7769
CCC(=O)C(=O)C#CC	CCC(=O)C(=O)C#CC	
InChI=1S/C7H8O2/c1-3-5-7(9)6(8)4-2/h4H2,1-2H3	InChI=1S/C7H8O2/c1-3-5-7(9)6(8)4-2/h4H2,1-2H3
