18
gdb 14191	3.57404	2.26408	2.05167	1.6405	70.3	-0.2344	0.087	0.3214	765.525	0.155631	-347.768069	-347.761798	-347.760854	-347.797971	26.249	
C	-0.0592265614	 1.5043994913	 0.0479994851	-0.507296
C	-0.017790453	-0.0028889056	-0.0115054175	 0.294151
C	 0.3738528917	-0.7842654546	-1.3005411834	-0.287932
C	-0.4278104394	-1.9362486022	-0.6763272166	-0.074946
C	-0.0138397443	-2.0905142783	 0.8429141939	 0.068642
C	 0.7823476135	-0.7904907176	 1.0536911606	-0.243404
O	-1.3488011389	-1.6734029806	 1.2673343777	-0.296565
C	-1.3408054094	-0.9280646794	 0.0458825382	 0.077243
H	 0.9424526725	 1.9364083451	-0.0621800717	 0.117143
H	-0.686197098	 1.918401674	-0.7494478062	 0.112471
H	-0.4643766432	 1.8481251943	 1.0062580613	 0.121717
H	-0.1322800412	-0.4010317937	-2.1924198284	 0.09703
H	 1.4394246194	-0.9158920635	-1.5124302068	 0.092762
H	-0.7893430479	-2.814751691	-1.20735335	 0.075237
H	 0.3187784291	-3.0254448175	 1.2918787839	 0.078358
H	 1.8473873179	-0.8581450925	 0.8135795456	 0.092586
H	 0.6551165887	-0.4248871268	 2.0752921305	 0.103355
H	-2.3028635163	-0.5392612012	-0.2870277562	 0.079448
208.1759	243.6135	282.8801	409.3726	470.6616	526.1886	610.0476	673.5133	721.6809	799.4762	818.2576	849.916	873.1455	902.3252	927.8033	952.4782	967.0735	988.4399	1017.27	1036.6046	1050.6733	1083.9155	1133.4964	1144.2137	1190.8199	1204.2445	1223.7481	1229.8812	1243.4318	1272.7795	1289.6889	1331.3762	1351.2211	1413.3796	1477.1324	1492.1847	1494.4357	1505.7716	3021.6873	3042.8313	3059.0504	3084.1746	3091.4654	3096.0725	3115.7877	3122.6321	3128.0264	3141.1604
CC12CC3C(C1)OC23	C[C@@]12C[C@H]3[C@@H](C1)O[C@@H]23	
InChI=1S/C7H10O/c1-7-2-4-5(3-7)8-6(4)7/h4-6H,2-3H2,1H3	InChI=1S/C7H10O/c1-7-2-4-5(3-7)8-6(4)7/h4-6H,2-3H2,1H3/t4-,5+,6+,7+/m0/s1
