14
gdb 66541	3.2457	1.56563	1.23765	4.5184	66.55	-0.225	-0.042	0.183	968.4461	0.09879	-436.55356	-436.546213	-436.545269	-436.585563	27.705	
O	 0.2151930691	 1.3807004066	 0.2072215241	-0.439191
C	 0.0762817855	 0.0347945082	 0.05416922	 0.312249
C	 0.8912296251	-0.9861136591	-0.7640092195	-0.215909
C	 0.8211856892	-1.0561111922	 0.7532233541	-0.058054
N	-0.3725857524	-2.0110544661	 0.707242225	-0.17962
C	-0.3380020594	-1.9209180633	-0.7719377318	-0.078866
C	-1.1653652488	-0.9147591733	-0.0140533594	 0.165333
C	-2.6283712779	-0.8103648828	 0.0963247965	 0.022609
O	-3.3706169383	-1.7605902217	 0.0164294823	-0.258109
H	 0.0615662004	 1.8139955299	-0.6410738351	 0.299418
H	 1.7287832601	-0.8357077785	-1.4291561123	 0.110973
H	 1.5770530331	-1.053122562	 1.5266946657	 0.120376
H	-0.6897251468	-2.7172476776	-1.4173544239	 0.121184
H	-3.0154526889	 0.2218467118	 0.2424342143	 0.077606
92.37	134.8701	206.2643	290.5658	304.8986	379.887	510.8709	600.8764	649.6393	704.801	748.185	785.3973	822.7706	853.8154	876.2615	908.9496	924.5294	943.1292	1001.0959	1032.4748	1034.8828	1079.0097	1157.0881	1183.5739	1234.8345	1260.2065	1298.7554	1343.5588	1433.2656	1480.6486	1793.9846	2887.5399	3186.5096	3210.5675	3230.6669	3776.8959
OC12C3C1N1C3C21C=O	O[C@@]12[C@H]3[C@@H]1N1[C@H]3[C@]21C=O	
InChI=1S/C6H5NO2/c8-1-5-3-2-4(7(3)5)6(2,5)9/h1-4,9H	InChI=1S/C6H5NO2/c8-1-5-3-2-4(7(3)5)6(2,5)9/h1-4,9H/t2-,3-,4+,5-,6+,7?/m1/s1
