19
gdb 80835	2.49032	1.70158	1.30805	2.5772	75.44	-0.2448	-0.0149	0.2298	1035.2147	0.159626	-423.042619	-423.03455	-423.033605	-423.074737	32.17	
C	-0.1495353822	 1.5397315643	 0.0652337602	-0.434748
C	 0.0197431823	 0.0276763003	 0.0203941077	-0.025386
C	 0.7659100652	-0.6096835429	-1.1962658682	-0.044914
C	 2.1071886894	-0.2555426446	-0.4902852143	-0.309022
C	 1.2674482977	-0.5586178003	 0.7988762841	 0.343231
O	 1.6293438497	-0.1855500074	 2.0709800883	-0.493133
C	 1.0070103364	-2.0353998954	 0.5967583185	 0.37641
O	 1.0833582317	-2.8785842644	 1.4552982314	-0.361539
C	 0.6345815554	-2.1200737797	-0.8888484111	-0.343638
H	 0.7612162516	 2.0850350335	-0.1944647027	 0.123363
H	-0.9357327756	 1.8544225653	-0.6294052304	 0.117426
H	-0.4446401535	 1.8537892704	 1.0710854605	 0.134538
H	-0.9371874807	-0.4477385546	 0.2686776291	 0.072358
H	 0.5615453022	-0.2848925424	-2.2146527989	 0.076472
H	 2.9794960085	-0.8832503133	-0.6940675043	 0.102408
H	 2.3813887641	 0.795625731	-0.5642428477	 0.118907
H	 1.6190503341	-0.9984059763	 2.6015518518	 0.290605
H	-0.3743045091	-2.5212716525	-1.0278485828	 0.128297
H	 1.3357261627	-2.7515876711	-1.4436209712	 0.128366
126.2228	175.4468	202.1815	269.0828	291.8552	372.8092	409.6339	448.9136	469.5633	544.9709	599.1492	622.0224	672.0617	774.3503	806.8092	855.849	892.783	914.1788	958.9569	981.3463	1006.5508	1052.3395	1065.0427	1085.3782	1094.5258	1138.541	1163.712	1181.2464	1223.9885	1248.252	1256.7387	1294.6484	1360.7105	1376.7759	1412.09	1419.73	1457.9327	1493.5425	1496.7877	1518.6752	1853.4415	3024.4798	3040.0776	3054.2186	3066.3003	3100.9354	3102.5282	3118.5081	3133.8376	3149.0733	3689.1266
CC1C2CC1(O)C(=O)C2	C[C@H]1[C@H]2C[C@]1(O)C(=O)C2	
InChI=1S/C7H10O2/c1-4-5-2-6(8)7(4,9)3-5/h4-5,9H,2-3H2,1H3	InChI=1S/C7H10O2/c1-4-5-2-6(8)7(4,9)3-5/h4-5,9H,2-3H2,1H3/t4-,5+,7+/m0/s1
