17
gdb 7313	3.9569	1.20513	0.99653	3.959	67.16	-0.2438	-0.0309	0.2129	1163.8872	0.13906	-401.035471	-401.025972	-401.025028	-401.070871	31.858	
C	 0.3713045276	 1.2659744347	 0.1556092766	-0.344249
N	 0.1125720444	-0.138591383	-0.1119475367	-0.095173
C	 0.1962051091	-1.0306028294	 1.030165854	-0.255057
C	-1.0126966364	-0.9114496736	 1.9452028268	 0.153802
O	-0.9720959412	-1.0212609745	 3.1416492811	-0.233003
C	-0.059443806	-0.6919174813	-1.3642200408	 0.407271
C	-0.0738004409	 0.254190168	-2.5551891926	-0.503849
O	-0.2018886599	-1.8935098989	-1.5133067434	-0.367133
H	 1.4177323047	 1.4320458957	 0.4469748286	 0.132779
H	 0.1558197847	 1.8763595321	-0.7187906073	 0.14416
H	-0.2626858164	 1.6208799088	 0.976395182	 0.139683
H	 0.2150275264	-2.0527418369	 0.6347140588	 0.175458
H	 1.1073877808	-0.8558082532	 1.6137745808	 0.123973
H	-1.9678889206	-0.7243697259	 1.4012629075	 0.084319
H	 0.8655973033	 0.8077485096	-2.6485812879	 0.140839
H	-0.2189015345	-0.3538518352	-3.4470585969	 0.15379
H	-0.887067775	 0.9834141231	-2.4861226706	 0.14239
50.7848	70.2758	86.5113	107.5158	159.1794	213.0217	303.7597	348.3627	383.6143	417.1707	547.8945	587.3455	599.6012	736.502	780.0427	984.7536	1029.5407	1049.496	1050.2948	1067.6194	1154.3054	1171.9512	1223.5644	1300.8726	1335.8004	1385.8104	1409.9704	1423.5845	1443.0545	1463.6875	1478.2235	1492.0989	1500.0039	1526.599	1760.1683	1839.4487	2867.7415	3009.1339	3034.7305	3046.8817	3063.0539	3092.1622	3110.2166	3163.6864	3170.3707
CN(CC=O)C(C)=O	CN(CC=O)C(=O)C	
InChI=1S/C5H9NO2/c1-5(8)6(2)3-4-7/h4H,3H2,1-2H3	InChI=1S/C5H9NO2/c1-5(8)6(2)3-4-7/h4H,3H2,1-2H3
