21
gdb 115570	2.72459	1.07203	0.99596	3.1727	79.58	-0.2518	-0.0278	0.224	1334.2939	0.179877	-424.223923	-424.213825	-424.212881	-424.259573	36.074	
C	 0.2316868362	 1.5898342588	 0.0728065108	-0.386759
C	 0.0953872762	 0.0632822279	 0.0851442046	-0.197066
C	 0.4853857052	-0.5389891277	-1.2556788724	 0.118752
O	 1.8807521632	-0.3415100711	-1.5672030322	-0.292438
C	 2.135919194	-1.7603706497	-1.6372108776	-0.113171
C	 0.6535339901	-2.0978978815	-1.3950068015	 0.137235
C	 0.3009788023	-2.9863712182	-0.2037455098	-0.477355
C	-0.075522279	-2.5898715595	-2.6272449004	 0.120599
O	 0.4338692917	-2.8636562098	-3.6828530544	-0.247938
H	 1.2548197661	 1.8776741185	-0.1839825796	 0.14207
H	-0.4407974709	 2.0418405824	-0.6644530587	 0.116482
H	-0.0092881463	 2.0142359604	 1.0516290898	 0.113748
H	 0.7316666183	-0.3559035301	 0.8722371594	 0.10204
H	-0.9383928184	-0.2250065037	 0.3166734725	 0.096487
H	-0.148276256	-0.1029459527	-2.0440776775	 0.076348
H	 2.518345114	-2.066069871	-2.6155266907	 0.128435
H	 2.8202383179	-2.0925054213	-0.8468389469	 0.096061
H	 0.7476132685	-2.6130266201	 0.7204656087	 0.133331
H	-0.7827921498	-3.0475913723	-0.0544111718	 0.125333
H	 0.6714508089	-4.004542968	-0.3653707423	 0.132097
H	-1.1798141322	-2.6727504611	-2.4868780898	 0.075709
52.7289	69.6072	103.0749	168.2088	212.8124	221.5576	254.2203	285.089	297.8604	345.8266	407.2405	475.4599	595.2194	695.9262	772.0346	840.8607	873.0045	917.2903	946.1386	961.2855	986.0325	1009.4102	1027.0894	1064.5079	1105.6249	1129.7465	1167.8425	1175.5589	1228.4014	1257.4451	1280.4354	1304.207	1334.86	1364.4206	1402.8497	1408.1134	1411.6079	1426.1611	1472.7965	1492.8352	1498.0982	1501.7141	1509.7945	1522.8616	1828.5209	2848.2624	2973.7855	3022.2003	3024.6563	3034.4073	3038.4008	3071.0899	3090.4796	3094.9654	3106.6219	3122.2927	3123.2169
CCC1OCC1(C)C=O	CC[C@H]1OC[C@]1(C)C=O	
InChI=1S/C7H12O2/c1-3-6-7(2,4-8)5-9-6/h4,6H,3,5H2,1-2H3	InChI=1S/C7H12O2/c1-3-6-7(2,4-8)5-9-6/h4,6H,3,5H2,1-2H3/t6-,7+/m1/s1
