18
gdb 74179	2.55632	1.60728	1.05372	3.803	81.56	-0.23	-0.0429	0.1871	1132.2715	0.148181	-401.964185	-401.956006	-401.955062	-401.997857	30.783	
C	 0.147957753	 1.4886890645	 0.0652327774	-0.461034
C	-0.0503353666	 0.0076315255	-0.0585622413	 0.314068
C	-0.2377232946	-0.6283985416	-1.23574875	-0.255086
C	-0.2577589276	-2.0830959681	-1.359803427	 0.372344
O	-0.4823070242	-2.6557838669	-2.4095432682	-0.343773
C	 0.1181074466	-2.891539871	-0.1086567249	-0.363167
C	 0.0178916899	-2.1165706745	 1.1972111796	-0.018323
C	 1.1244648475	-1.2577518958	 1.7218328862	-0.260264
N	-0.1012960467	-0.6600156963	 1.1724775638	-0.132515
H	 1.0880773928	 1.7034494774	 0.5875143962	 0.135907
H	 0.1746858733	 1.9700839199	-0.9138123955	 0.133932
H	-0.654111759	 1.9313132986	 0.6651638163	 0.14725
H	-0.3320604543	-0.0658577338	-2.1577805238	 0.098069
H	-0.5354551273	-3.7667435911	-0.0815383422	 0.136438
H	 1.1313030201	-3.2756033682	-0.2757964259	 0.13529
H	-0.6342673194	-2.5600203801	 1.945872922	 0.108042
H	 1.2730010262	-1.1410403916	 2.7914177158	 0.127074
H	 2.0234898402	-1.1802730467	 1.1140900515	 0.125746
27.3971	132.0112	177.5028	219.6207	307.1907	355.072	449.0485	470.8872	499.8871	555.2629	626.4253	669.6694	727.7761	840.4841	851.8414	870.8839	913.8245	933.3821	1022.2574	1039.3893	1052.6462	1072.5524	1105.4128	1119.1666	1160.8201	1178.7772	1211.8666	1248.7152	1293.1429	1312.2468	1394.2207	1406.4171	1422.9503	1460.916	1470.9142	1479.6943	1502.9756	1661.1952	1763.6346	3034.1685	3044.3004	3089.6053	3101.0512	3102.7642	3132.5808	3138.5673	3196.2068	3196.7474
CC1=CC(=O)CC2CN12	CC1=CC(=O)C[C@H]2CN12	
InChI=1S/C7H9NO/c1-5-2-7(9)3-6-4-8(5)6/h2,6H,3-4H2,1H3	InChI=1S/C7H9NO/c1-5-2-7(9)3-6-4-8(5)6/h2,6H,3-4H2,1H3/t6-,8?/m0/s1
