16
gdb 43471	2.55651	1.88714	1.30396	3.2038	70.54	-0.2726	-0.0179	0.2547	963.3817	0.127047	-437.926743	-437.919929	-437.918984	-437.958027	26.961	
N	-0.0673786734	 1.2806531204	-0.2518291211	-0.51396
C	-0.0741187811	 0.0547684787	 0.0348248271	 0.424712
O	 1.0980215403	-0.6031379776	 0.4062640388	-0.249088
C	 1.067924899	-1.9551213325	 0.7182359111	 0.430325
O	 2.0835056237	-2.4974993561	 1.0333941393	-0.311931
C	-0.298938345	-2.5856286082	 0.613292685	-0.14646
C	-0.9464867107	-2.1353760027	-0.7306762656	-0.246084
C	-1.2963224413	-0.8106743183	 0.0118728359	-0.083347
C	-1.3264973861	-1.6532196021	 1.322527588	-0.246087
H	 0.8760468872	 1.6648872955	-0.1674658985	 0.234375
H	-0.2354471031	-3.6404671504	 0.8727473096	 0.104688
H	-0.3185763106	-2.0842488134	-1.6224950678	 0.126378
H	-1.8455786753	-2.7170381342	-0.9424216465	 0.121747
H	-2.1621977129	-0.2240310116	-0.2861484596	 0.106614
H	-2.2874037463	-2.1564544304	 1.4447857347	 0.121743
H	-1.0370274844	-1.1726825272	 2.2592867295	 0.126374
134.1696	140.9732	298.9646	363.1085	402.7297	454.4614	533.7728	567.129	702.7185	726.9246	751.6666	833.9738	871.06	899.0219	914.5118	927.9019	933.0841	1010.7061	1012.1148	1020.9157	1078.2099	1081.7686	1137.5085	1142.8676	1204.0509	1248.6973	1256.2284	1272.5869	1323.5755	1329.0301	1353.1072	1485.321	1516.491	1776.4234	1885.601	3072.9498	3075.3087	3133.6327	3133.9498	3141.3427	3148.8401	3469.9797
N=C1OC(=O)C2CC1C2	[NH][C]1OC(=O)[C@@H]2C[C@H]1C2	
InChI=1S/C6H7NO2/c7-5-3-1-4(2-3)6(8)9-5/h3-4,7H,1-2H2	InChI=1S/C6H7NO2/c7-5-3-1-4(2-3)6(8)9-5/h3-4,7H,1-2H2/t3-,4+
