20
gdb 78783	2.62985	1.74968	1.33687	1.5827	77.94	-0.2448	0.0643	0.3091	1034.3728	0.170514	-403.095234	-403.086801	-403.085857	-403.127471	33.548	
C	-0.0786005896	 1.6336779975	 0.0430803332	-0.435753
C	 0.1206696728	 0.1238118529	-0.0076809414	 0.034991
C	 0.8802112971	-0.5783675497	-1.1245928854	-0.071641
C	 2.3173102589	-0.7406497452	-0.7484934328	-0.084571
N	 1.2866672971	-1.7142520644	-0.2299775886	-0.169825
C	 1.0951529434	-0.6539014638	 0.9083211642	-0.108465
C	 2.5497506151	-0.1738212591	 0.6347369063	 0.422177
C	 3.5722015259	-0.9829078309	 1.4297950669	-0.457421
O	 2.8597900687	 1.2062972577	 0.675998573	-0.478667
H	 0.859201496	 2.1712279851	-0.0906331005	 0.145478
H	-0.7812808854	 1.9445321749	-0.7382539588	 0.1086
H	-0.5106970133	 1.9320559979	 1.0052739643	 0.107108
H	-0.8510619205	-0.378606686	 0.075099744	 0.083554
H	 0.5470462438	-0.7663203507	-2.1401409548	 0.092234
H	 3.0709037343	-1.0516674885	-1.4642677919	 0.0898
H	 0.7982850822	-0.9852333186	 1.9036014886	 0.070094
H	 3.3575273323	-2.0524945311	 1.3729298646	 0.146926
H	 4.5807558448	-0.8039504853	 1.0436956817	 0.122937
H	 3.5534471445	-0.689313683	 2.4871848868	 0.105685
H	 3.1713242318	 1.4232412301	 1.5608296807	 0.27676
162.6962	174.2099	225.6414	242.7699	260.1227	273.7767	325.8706	376.9337	404.3952	561.2741	598.353	635.1653	709.244	769.497	802.2942	804.081	889.6364	916.7676	939.979	948.472	981.4112	1035.8383	1040.5412	1057.3772	1102.8798	1112.214	1131.584	1150.2738	1174.4009	1185.3781	1207.4	1235.1249	1269.8209	1319.6844	1368.3049	1393.5795	1404.8337	1411.7182	1423.1462	1491.7317	1493.8012	1499.744	1509.3163	3023.1473	3028.4014	3036.0184	3086.4155	3090.875	3115.5866	3129.7701	3160.8983	3165.2084	3178.2673	3811.2789
CC1C2C3N2C1C3(C)O	C[C@H]1[C@H]2[C@@H]3N2[C@H]1[C@]3(C)O	
InChI=1S/C7H11NO/c1-3-4-6-7(2,9)5(3)8(4)6/h3-6,9H,1-2H3	InChI=1S/C7H11NO/c1-3-4-6-7(2,9)5(3)8(4)6/h3-6,9H,1-2H3/t3-,4-,5+,6-,7-,8?/m0/s1
