17
gdb 91243	3.04505	1.3978	1.20422	2.9433	68.71	-0.2355	-0.0348	0.2007	1073.028	0.134958	-458.969523	-458.961574	-458.96063	-459.002713	29.716	
C	-0.2450544024	 1.5996276572	-0.0770803943	-0.401278
C	 0.0965270471	 0.130373346	-0.0068815767	 0.224306
O	 0.7695011451	-0.2762859928	-1.1836747422	-0.271188
C	 1.5553331524	-1.4074167965	-0.844143276	 0.059312
C	 3.0337162916	-1.1974476111	-1.2484917599	-0.372294
C	 3.2851267886	-0.6417203459	 0.1712599717	 0.373016
O	 4.1717660665	-0.0337016131	 0.6868309674	-0.276883
C	 1.8777887647	-1.1286226165	 0.6508520414	-0.004753
O	 0.987585446	-0.1271383177	 1.0815902252	-0.274578
H	 0.6675214031	 2.1826020731	-0.2210440702	 0.137015
H	-0.9289241132	 1.78463825	-0.9093350056	 0.130488
H	-0.7277998313	 1.9113217312	 0.8522216726	 0.134515
H	-0.8079399237	-0.4877582908	 0.1345584673	 0.071154
H	 1.0695756543	-2.3471954443	-1.1212723652	 0.083841
H	 3.5785865089	-2.1334793158	-1.4114084535	 0.135643
H	 3.2125273451	-0.5231741991	-2.0877090132	 0.146195
H	 1.903596217	-1.9791408637	 1.340852001	 0.105489
45.2121	111.437	189.8816	224.9968	309.3422	377.6597	418.7219	490.6736	539.1869	616.6182	678.4824	755.5327	779.8399	843.0906	884.0989	891.3323	921.0565	967.0631	1035.591	1062.7618	1096.7045	1110.7378	1128.3465	1147.2859	1168.5049	1177.7511	1244.3397	1261.3861	1317.1662	1329.327	1378.5607	1398.1718	1423.6364	1436.7179	1484.8665	1485.9587	1907.8306	2945.0654	3052.3404	3056.2459	3059.0881	3074.4148	3133.0824	3136.5035	3142.9587
CC1OC2CC(=O)C2O1	C[C@H]1O[C@H]2CC(=O)[C@H]2O1	
InChI=1S/C6H8O3/c1-3-8-5-2-4(7)6(5)9-3/h3,5-6H,2H2,1H3	InChI=1S/C6H8O3/c1-3-8-5-2-4(7)6(5)9-3/h3,5-6H,2H2,1H3/t3-,5-,6+/m0/s1
