21
gdb 106516	3.10962	1.39555	1.21419	1.5552	77.58	-0.2415	0.0828	0.3243	1119.7257	0.183565	-424.212425	-424.204278	-424.203334	-424.244842	32.522	
C	 0.0052644644	 1.555640652	-0.0969984535	-0.384633
C	-0.0253618418	 0.0419504723	 0.1359630951	-0.260528
C	-1.4072331071	-0.5604862172	-0.0021173239	 0.436553
C	-2.1856046239	-0.5408870602	-1.3572763051	-0.316176
C	-2.9240758056	-1.780440882	-0.7817584464	 0.106917
C	-1.6253002514	-2.1035059772	 0.0037702581	-0.26771
O	-3.9320129673	-1.3917808887	 0.1539152978	-0.274856
C	-3.6148419862	-0.1644241193	 0.7741297399	 0.021079
O	-2.2373099633	-0.0197756181	 1.0432422096	-0.313915
H	 1.0140818301	 1.9538818929	 0.0451090059	 0.111132
H	-0.3115752959	 1.8078329025	-1.1149278513	 0.112645
H	-0.66611486	 2.0630899881	 0.6002170096	 0.132884
H	 0.6406959896	-0.4674934995	-0.5708681356	 0.091894
H	 0.3455441943	-0.1889015075	 1.1421884372	 0.108011
H	-2.7575910441	 0.342229363	-1.6464933194	 0.108562
H	-1.5279338436	-0.8305305393	-2.1797894341	 0.106869
H	-3.371684402	-2.5187983265	-1.4480156246	 0.080195
H	-0.8860199803	-2.6326443954	-0.6040525233	 0.093449
H	-1.7463449286	-2.578671276	 0.9785521674	 0.10383
H	-3.9607518909	 0.6703523059	 0.143684869	 0.086438
H	-4.1420984765	-0.1333478099	 1.7314535976	 0.117361
97.4376	156.7922	197.7197	281.9889	299.5593	329.9357	418.8434	451.2114	479.2041	504.7433	613.3371	677.3666	774.6849	828.9304	850.9248	866.1011	898.1817	908.5535	951.9648	984.6616	1012.5007	1021.0704	1045.5413	1066.0272	1101.5863	1124.6788	1157.1356	1183.9467	1186.5189	1221.8966	1234.2208	1257.8782	1267.6887	1298.4528	1324.4407	1363.1262	1385.0209	1405.7477	1444.1655	1459.4156	1474.1797	1493.7257	1496.5422	1510.644	1543.5387	2963.8769	3028.458	3039.0207	3060.605	3065.3501	3076.3293	3088.315	3103.9044	3106.4272	3125.3606	3131.4272	3135.033
CCC12CC(C1)OCO2	CC[C@@]12C[C@@H](C1)OCO2	
InChI=1S/C7H12O2/c1-2-7-3-6(4-7)8-5-9-7/h6H,2-5H2,1H3	InChI=1S/C7H12O2/c1-2-7-3-6(4-7)8-5-9-7/h6H,2-5H2,1H3/t6-,7+
