18
gdb 67989	2.92477	1.70397	1.28151	2.8535	74.99	-0.2404	-0.0219	0.2184	1006.9257	0.148497	-401.941278	-401.933855	-401.932911	-401.972904	29.631	
C	 0.0269199401	 1.4564237102	 0.0551848441	-0.478628
C	 0.0518873606	-0.049020361	-0.0310642626	 0.333753
C	-0.0758144658	-0.6991860278	-1.3962343631	-0.427871
C	-0.7578216425	-2.0408378505	-1.0916642273	 0.432805
O	-1.1873491512	-2.8331884768	-1.8865914958	-0.316194
C	-0.7527966011	-2.1607390049	 0.4216820184	-0.113862
C	 0.7291454442	-2.3020496068	 0.890077697	-0.268947
C	 0.6984215244	-0.7938191329	 1.0860134235	-0.067321
N	-0.8154650254	-0.7449652816	 0.9734290438	-0.180807
H	 0.9159180273	 1.8886254227	-0.4168551622	 0.121347
H	-0.8571491723	 1.856286225	-0.4521687284	 0.126783
H	-0.0050146972	 1.7848867475	 1.097469088	 0.132059
H	-0.7135233026	-0.1064760334	-2.0611399653	 0.13638
H	 0.8728325433	-0.8624852441	-1.9182515269	 0.135549
H	-1.4904088192	-2.8485346157	 0.8281857988	 0.101348
H	 0.7809118376	-2.8261996688	 1.8459927325	 0.128002
H	 1.4612463484	-2.737950257	 0.2029192841	 0.112796
H	 1.2213214613	-0.2594155342	 1.8744051814	 0.092808
106.9654	201.374	261.4525	280.767	304.533	417.4713	460.7559	530.469	561.3942	626.0098	703.0297	733.5754	783.1627	835.8289	883.6901	903.8306	945.3421	966.9937	971.9315	1016.8901	1034.5326	1051.7723	1077.5029	1125.8047	1158.4462	1184.6659	1195.9516	1231.8645	1258.3897	1274.3654	1290.6176	1336.0535	1406.6399	1418.681	1455.3213	1487.3105	1491.7479	1498.0303	1855.135	3034.1887	3047.8187	3051.1146	3087.9306	3099.4665	3117.0156	3118.075	3147.8281	3150.9662
CC12CC(=O)C3CC1N23	C[C@@]12CC(=O)[C@H]3C[C@@H]1N23	
InChI=1S/C7H9NO/c1-7-3-5(9)4-2-6(7)8(4)7/h4,6H,2-3H2,1H3	InChI=1S/C7H9NO/c1-7-3-5(9)4-2-6(7)8(4)7/h4,6H,2-3H2,1H3/t4-,6+,7-,8?/m1/s1
