17
gdb 70781	3.89164	1.33018	1.13467	1.2862	80.46	-0.2462	0.0408	0.2871	1074.8589	0.134666	-384.583074	-384.575263	-384.574319	-384.614897	31.412	
O	-0.0636029278	 1.3193832564	 0.0598347896	-0.473969
C	 0.0574399854	-0.0532533416	 0.0571207838	 0.370725
C	 0.7735338428	-0.9724264769	 1.0639612756	-0.378355
C	 0.0928330031	-1.9342713747	 0.0548874228	 0.27332
C	 0.101336361	-3.3619744198	 0.0443547249	 0.083559
C	 0.1140354774	-4.5655190349	 0.0437946108	-0.365839
C	-1.1741611333	-0.9961913233	-0.0894570719	-0.115089
C	-1.0903969465	-1.0011034283	-1.6285790369	-0.273334
C	 0.3820962614	-0.9861568888	-1.1742527595	-0.151758
H	 0.8146065665	 1.7068605365	-0.022356819	 0.2862
H	 1.8685883439	-0.9689278408	 1.0597017713	 0.094765
H	 0.3829395748	-0.9884758145	 2.0858451105	 0.104648
H	 0.1250461662	-5.627121967	 0.0429780498	 0.176491
H	-2.0439563879	-1.0224159787	 0.5679570104	 0.082631
H	-1.4377820339	-1.9052156617	-2.1353606418	 0.104863
H	-1.4514195896	-0.1023292753	-2.1344479562	 0.105807
H	 1.2997521165	-0.9985936766	-1.764992694	 0.075335
132.1649	139.1151	249.7315	302.7908	338.4569	408.9144	426.4493	514.281	525.5803	544.5075	607.7137	637.5711	655.6869	699.5943	783.0074	863.8135	908.6155	915.0456	936.7063	996.0549	1028.715	1046.3871	1068.7558	1096.1267	1105.2069	1130.6354	1136.6295	1158.1377	1178.975	1231.0554	1268.3929	1272.6511	1318.722	1398.1949	1499.1809	1511.2536	2231.7661	3039.5296	3057.7079	3101.1951	3104.033	3113.6423	3119.5838	3502.5882	3806.5264
OC12CC3(C#C)C1CC23	O[C@@]12C[C@@]3(C#C)[C@@H]1C[C@@H]23	
InChI=1S/C8H8O/c1-2-7-4-8(9)5(7)3-6(7)8/h1,5-6,9H,3-4H2	InChI=1S/C8H8O/c1-2-7-4-8(9)5(7)3-6(7)8/h1,5-6,9H,3-4H2/t5-,6+,7-,8-
