17
gdb 19190	2.92411	2.3339	1.82245	2.1493	68.69	-0.2362	0.0013	0.2375	807.2747	0.143501	-363.846484	-363.839529	-363.838585	-363.877311	27.101	
C	 0.0303316602	 1.4666550782	-0.1413271882	-0.342275
N	 0.003150569	 0.0125759791	 0.0273050131	-0.093471
C	-1.2490209776	-0.5417667799	 0.6762678407	-0.107261
C	-0.9575018103	-2.0474773213	 0.6254677851	-0.217604
C	 0.5497385811	-2.024786632	 1.064065352	-0.217604
C	 0.7265918755	-0.5120241109	 1.2511548519	-0.107261
C	-0.5657742091	-0.0865042392	 1.9875535167	 0.404828
O	-0.8440055882	 0.6267132578	 2.9067989028	-0.327351
H	 1.0368826261	 1.7631701396	-0.449954114	 0.127873
H	-0.6613236101	 1.7376036109	-0.9441447911	 0.127873
H	-0.2406250848	 2.039092655	 0.7601609063	 0.127696
H	-2.2121864905	-0.1621348739	 0.3399892428	 0.088928
H	-1.5954779766	-2.6145251717	 1.3079698744	 0.110093
H	-1.0849554144	-2.4408374691	-0.3849525682	 0.113258
H	 0.7374720159	-2.5794008705	 1.9868467366	 0.110094
H	 1.2101915474	-2.4062889849	 0.2829230731	 0.113258
H	 1.7088628465	-0.1031047371	 1.4809810659	 0.088928
137.0764	216.9918	249.4351	269.4052	314.1123	438.2451	484.4819	615.1407	672.8915	676.815	806.0664	814.8686	839.2127	905.7537	929.7304	982.9201	994.7152	1034.0597	1059.806	1076.0014	1152.064	1153.3023	1181.9221	1183.5766	1233.3661	1243.7324	1254.2961	1269.4791	1315.1962	1327.6592	1457.6598	1479.6327	1496.6761	1499.5422	1505.3815	1876.7373	2980.9318	3065.1671	3074.1164	3078.2739	3110.5864	3113.6847	3127.4061	3143.9729	3147.4145
CN1C2CCC1C2=O	CN1[C@H]2CC[C@@H]1C2=O	
InChI=1S/C6H9NO/c1-7-4-2-3-5(7)6(4)8/h4-5H,2-3H2,1H3	InChI=1S/C6H9NO/c1-7-4-2-3-5(7)6(4)8/h4-5H,2-3H2,1H3/t4-,5+
