17
gdb 109134	4.44095	1.03747	0.86699	3.348	71.51	-0.2222	-0.023	0.1992	1303.9802	0.135638	-455.173972	-455.164883	-455.163938	-455.208906	31.81	
C	 0.0834844373	 1.447305447	-0.1939813059	-0.312078
N	 0.1786031573	 0.0069295736	-0.0594278442	-0.352618
C	 0.6118533868	-0.5629623854	 1.1005464885	 0.481785
N	 1.2224622906	 0.0847432332	 2.0109686486	-0.360051
C	 1.5327477748	-0.619388445	 3.2400553122	-0.264956
C	 1.7746907048	-2.112850051	 3.0918910561	 0.348368
O	 2.3685319198	-2.7895504764	 3.8945464973	-0.299109
C	 1.2330927722	-2.722193473	 1.8024973103	-0.189689
O	 0.2896610346	-1.8964681987	 1.1226887474	-0.269917
H	 1.05171215	 1.900403159	 0.0285095274	 0.155463
H	-0.1916785438	 1.6858776592	-1.2235126449	 0.122551
H	-0.6572760158	 1.8869369304	 0.4870681402	 0.125136
H	-0.4193888762	-0.5745518415	-0.62171123	 0.252048
H	 2.4143173289	-0.1796352037	 3.7184131322	 0.137764
H	 0.7129584112	-0.5049131615	 3.9693003143	 0.135134
H	 2.087893807	-2.9360331287	 1.1443767057	 0.140463
H	 0.7317943704	-3.6665366573	 2.0245075147	 0.149706
36.4255	86.9364	111.0169	160.6162	202.7525	227.7263	377.321	404.8001	418.3186	464.2905	525.4959	587.997	715.6248	742.805	767.1427	834.0096	912.1428	1039.4707	1051.5885	1070.5369	1155.3378	1158.7142	1205.4176	1220.3297	1226.4576	1266.4964	1287.4098	1336.2586	1364.7741	1450.7317	1457.8059	1463.7141	1479.3335	1511.6424	1547.555	1754.6434	1829.7442	2970.9537	3009.7956	3017.4818	3067.6697	3099.0116	3117.1219	3139.5247	3663.1132
CNC1=NCC(=O)CO1	CNC1=NCC(=O)CO1	
InChI=1S/C5H8N2O2/c1-6-5-7-2-4(8)3-9-5/h2-3H2,1H3,(H,6,7)	InChI=1S/C5H8N2O2/c1-6-5-7-2-4(8)3-9-5/h2-3H2,1H3,(H,6,7)
