23
gdb 118904	2.73403	1.08417	0.98852	0.9203	87.12	-0.2324	0.0312	0.2637	1363.3484	0.205138	-388.297453	-388.287721	-388.286777	-388.332106	36.539	
C	 0.0160013574	 1.3890393504	 0.0071456878	-0.226624
O	 0.0399898487	-0.0162967147	-0.0296483797	-0.236754
C	 0.6162029852	-0.5909890732	 1.1248453172	-0.083399
C	 0.620363909	-2.1216231049	 0.998285498	 0.296946
C	-0.817494589	-2.6401023951	 0.8853019939	-0.447857
C	 1.5079442011	-2.5343941938	-0.2191586385	-0.289125
C	 2.8330062466	-2.9017814133	 0.3986648279	-0.061584
C	 2.7625867894	-2.9903823847	 1.7252548893	-0.060948
C	 1.3747361669	-2.6962587711	 2.2389888577	-0.308844
H	 1.02935172	 1.8139795491	 0.0880285601	 0.103016
H	-0.4383514005	 1.7350455442	-0.9247231361	 0.125207
H	-0.5796107316	 1.766406289	 0.8538471841	 0.10239
H	 1.6484797875	-0.2241994934	 1.2576937389	 0.0866
H	 0.0428677212	-0.2935213306	 2.0204421047	 0.080448
H	-1.3205044191	-2.2051132421	 0.0176688267	 0.129862
H	-0.8313617749	-3.7301641282	 0.7827608157	 0.106849
H	-1.4013797405	-2.3801534131	 1.7762054904	 0.104404
H	 1.0762166605	-3.3921775866	-0.7537765174	 0.096735
H	 1.5756173032	-1.7238171553	-0.9517876173	 0.113857
H	 3.7206994777	-3.0940101642	-0.1947203345	 0.087048
H	 3.5808697174	-3.2674141957	 2.3812264351	 0.087202
H	 1.3736657247	-1.9921350283	 3.0819771348	 0.094094
H	 0.8897702391	-3.6094353842	 2.6115075909	 0.100478
66.4662	97.2926	133.7019	170.3995	229.9622	244.5366	301.8267	330.6097	352.3083	382.6037	426.6719	480.5585	626.0319	706.6101	775.1311	794.815	907.5972	920.9976	947.3171	970.6444	977.0143	979.7168	989.5165	994.1702	1026.161	1124.4544	1129.6973	1155.6022	1169.3143	1175.0283	1186.3171	1208.4396	1233.4627	1285.113	1296.5592	1306.7806	1351.6881	1368.4194	1400.9707	1420.6423	1478.3111	1484.6601	1487.4615	1490.1544	1494.5211	1502.77	1505.0718	1525.7217	1691.8116	2942.6751	2968.442	2978.0395	3004.5314	3009.1417	3010.2528	3027.4895	3030.2967	3072.0472	3089.7198	3110.7115	3117.5498	3176.2251	3202.2336
COCC1(C)CC=CC1	COC[C@@]1(C)CC=CC1	
InChI=1S/C8H14O/c1-8(7-9-2)5-3-4-6-8/h3-4H,5-7H2,1-2H3	InChI=1S/C8H14O/c1-8(7-9-2)5-3-4-6-8/h3-4H,5-7H2,1-2H3
