17
gdb 46925	3.40346	1.39435	1.08266	4.8442	68.41	-0.2504	0.0506	0.301	1081.8662	0.139282	-455.151624	-455.144101	-455.143157	-455.183885	28.951	
O	-0.0313262182	-0.0977628475	 0.306014156	-0.380979
C	-0.0065699473	 1.0781009009	 0.0345826558	 0.452621
N	-1.1459209353	 1.8492053387	 0.1143557465	-0.358355
C	-1.4379812346	 3.2417366355	-0.2153545272	-0.187751
C	-0.8721318307	 3.6500685213	-1.5610617885	-0.020901
N	-0.0415504479	 4.8666652578	-1.5645109008	-0.338602
C	 0.5968644063	 3.5494222115	-1.7314134726	-0.036917
C	 1.3838634951	 3.0303117015	-0.5545439563	-0.084674
O	 1.1747735292	 1.6253413892	-0.3650172066	-0.244587
H	-1.9106567675	 1.2900511984	 0.4552065002	 0.258388
H	-2.5273695521	 3.3374745435	-0.2158758483	 0.116738
H	-1.065139388	 3.934585232	 0.547380759	 0.130646
H	-1.491726404	 3.444089035	-2.4296490617	 0.099647
H	-0.1076893669	 5.3359831905	-2.4634724616	 0.240928
H	 0.9751860268	 3.2764306963	-2.7129636737	 0.102078
H	 2.4603192125	 3.1216747491	-0.7177233582	 0.124577
H	 1.1355974526	 3.5928993064	 0.349765968	 0.127143
76.254	135.1083	258.3085	284.1884	361.5939	370.9702	463.566	501.7354	514.6332	644.1684	718.8695	757.9022	769.2726	826.0874	851.1776	926.882	977.5318	980.7099	1016.2034	1035.1726	1077.2132	1131.7146	1143.1945	1198.1584	1230.5728	1250.0562	1280.9142	1283.9037	1292.19	1388.895	1396.6622	1425.5309	1466.7847	1483.2075	1507.5562	1526.7515	1823.3147	3036.3259	3065.9701	3085.9825	3110.9406	3142.3971	3152.9169	3515.862	3650.1793
O=C1NCC2NC2CO1	O=C1NC[C@H]2N[C@H]2CO1	
InChI=1S/C5H8N2O2/c8-5-6-1-3-4(7-3)2-9-5/h3-4,7H,1-2H2,(H,6,8)	InChI=1S/C5H8N2O2/c8-5-6-1-3-4(7-3)2-9-5/h3-4,7H,1-2H2,(H,6,8)/t3-,4+/m1/s1
