19
gdb 118047	3.6349	0.829	0.71503	3.8436	69.18	-0.2596	-0.029	0.2305	1544.1813	0.156603	-497.300669	-497.290613	-497.289669	-497.336228	36.275	
O	 0.3041425108	 0.2385060796	 1.0298638257	-0.419384
C	-0.1133936826	 0.2757058565	-0.3415515231	-0.102513
C	-1.4896887471	-0.3686826511	-0.441079198	-0.214702
C	-1.4928018475	-1.8446515815	-0.0300016934	 0.11787
O	-1.2416738696	-2.029063738	 1.3514639268	-0.458321
C	-2.8641739449	-2.4964826194	-0.313861795	 0.034956
O	-3.205492734	-2.3895947752	-1.6679435669	-0.439351
C	-2.851904132	-3.9529512889	 0.1090686098	 0.131157
O	-3.1093772286	-4.8301455164	-0.6835504811	-0.273473
H	 1.2303759595	 0.4913241749	 1.0813622271	 0.296914
H	-0.1539704325	 1.3148240865	-0.6972774662	 0.102226
H	 0.6024516078	-0.268906863	-0.9753306487	 0.100402
H	-2.1943175444	 0.1798905605	 0.1964055996	 0.11168
H	-1.8422348327	-0.2926755588	-1.4740830951	 0.131455
H	-0.7437014209	-2.3782850373	-0.6429219501	 0.066259
H	-0.5671905267	-1.3798714348	 1.598623385	 0.295719
H	-3.603662565	-1.9817625803	 0.3251165504	 0.097079
H	-3.3337506296	-3.3040144482	-1.9706228076	 0.294234
H	-2.5928084501	-4.1618493451	 1.1606990309	 0.127795
57.3823	73.4454	110.6398	158.3052	215.3765	258.7172	282.5977	309.8283	343.2405	413.1863	425.6061	469.8788	497.6634	539.2681	556.5495	773.1985	836.0504	855.8024	908.4043	958.9719	995.0617	1041.5506	1081.9512	1113.5744	1129.3497	1168.3836	1196.7404	1236.9153	1272.7499	1283.5925	1302.9659	1342.0526	1347.9775	1383.1849	1392.1838	1430.1474	1450.2075	1463.5694	1474.64	1519.5322	1801.6882	2933.2903	2959.624	2988.3914	3004.7972	3021.6987	3043.3078	3103.2591	3665.9717	3712.4798	3835.9489
OCCC(O)C(O)C=O	OCC[C@@H](O)[C@@H](O)C=O	
InChI=1S/C5H10O4/c6-2-1-4(8)5(9)3-7/h3-6,8-9H,1-2H2	InChI=1S/C5H10O4/c6-2-1-4(8)5(9)3-7/h3-6,8-9H,1-2H2/t4-,5+/m1/s1
