19
gdb 88704	3.41408	0.97349	0.82624	0.5059	83.36	-0.2381	0.0357	0.2738	1419.0514	0.158272	-381.980419	-381.971102	-381.970158	-382.015321	34.6	
C	-0.1991448123	 1.5602490358	-0.050421845	-0.39514
C	-0.0267493144	 0.0637722187	 0.0538478782	 0.004744
N	 1.3124431684	-0.4851308066	-0.2153213817	-0.349858
C	 0.7344943913	-0.6273064016	 1.1328171823	-0.020779
C	 1.4473438036	 0.0908868351	 2.2302320136	-0.005338
N	 0.8151921271	 0.0614523313	 3.5522968991	-0.336341
C	 2.1038024312	-0.6470908014	 3.3619815967	-0.254589
C	 2.0947056926	-2.080486054	 3.4658563678	 0.385638
C	 2.1212528131	-3.2799036626	 3.5475885862	-0.446775
H	 0.6872313038	 2.0907137813	 0.3048222732	 0.121371
H	-0.3639059714	 1.8548009814	-1.0924177434	 0.119841
H	-1.0626068139	 1.8934820757	 0.5352742811	 0.119998
H	-0.872613236	-0.5046513034	-0.3327642449	 0.083073
H	 1.255537013	-1.3641128837	-0.7212681229	 0.233138
H	 0.3651205234	-1.6061070363	 1.4291895142	 0.097445
H	 1.9570420492	 1.0003393028	 1.9219190545	 0.096875
H	 0.9769638883	 0.9333174821	 4.0495137977	 0.237659
H	 2.9947277217	-0.1757924081	 3.7720586356	 0.111134
H	 2.1364242813	-4.3385661263	 3.6280550576	 0.197903
32.2352	94.8397	142.2337	181.9498	210.2422	248.0902	314.5924	391.4696	433.1726	507.9297	555.9005	603.9779	625.1544	659.5353	775.2539	799.2365	844.1821	853.788	916.7767	933.7103	971.5201	987.2305	1012.762	1024.4453	1066.1382	1110.5098	1145.3143	1168.5022	1203.4551	1229.5077	1242.1945	1265.2171	1287.652	1346.2389	1407.2404	1416.0348	1443.2402	1483.4816	1493.4374	1513.279	2238.7957	3036.5264	3096.7345	3100.4382	3123.1514	3126.7548	3138.4989	3147.7598	3504.1211	3505.9105	3512.8222
CC1NC1C1NC1C#C	C[C@H]1N[C@H]1[C@H]1N[C@H]1C#C	
InChI=1S/C7H10N2/c1-3-5-7(9-5)6-4(2)8-6/h1,4-9H,2H3	InChI=1S/C7H10N2/c1-3-5-7(9-5)6-4(2)8-6/h1,4-9H,2H3/t4-,5+,6-,7+/m1/s1
