12
gdb 42751	2.80688	1.66092	1.33654	4.8811	65.63	-0.2867	-0.0403	0.2463	925.3456	0.076829	-435.457702	-435.45075	-435.449806	-435.489242	26.038	
O	-0.0762690877	-0.0452434424	-0.1087766246	-0.254359
C	-0.0612483304	 1.1268863355	-0.0795451191	 0.396785
C	-1.0105899416	 2.3956185481	 0.0964744914	-0.10536
O	 0.0463377007	 2.9109590554	 0.9494112352	-0.278187
C	 0.9963647287	 2.3788422787	-0.0091003163	 0.173002
C	 0.6013890597	 3.0490024548	-1.3066199027	-0.122596
C	-0.7417811299	 3.0630575008	-1.2302978207	-0.085488
C	 2.3662963312	 2.2879278665	 0.4193670835	 0.175624
N	 3.4715255544	 2.1750054634	 0.7368244755	-0.320664
H	-1.9958607913	 2.3691763691	 0.5514007519	 0.126978
H	 1.2725547925	 3.3415973063	-2.0990853683	 0.150892
H	-1.4748401163	 3.3708142237	-1.9601477857	 0.143374
122.5542	150.3386	179.0408	325.1173	442.1227	520.4965	533.7484	547.6442	574.7227	683.2679	747.1763	778.334	795.4624	869.9551	883.7568	911.7089	950.2787	990.2041	1014.3987	1081.1989	1133.6226	1256.7291	1294.7145	1330.706	1572.9573	1958.7831	2364.6227	3188.1578	3249.5041	3272.8043
O=C1C2OC1(C=C2)C#N	O=C1[C@H]2O[C@@]1(C=C2)C#N	
InChI=1S/C6H3NO2/c7-3-6-2-1-4(9-6)5(6)8/h1-2,4H	InChI=1S/C6H3NO2/c7-3-6-2-1-4(9-6)5(6)8/h1-2,4H/t4-,6-/m0/s1
