16
gdb 17751	3.82792	2.58708	2.11429	1.2474	66.52	-0.2273	0.076	0.3033	694.4021	0.1318	-346.525463	-346.519693	-346.518749	-346.554775	24.807	
O	-0.0714269052	 1.3544804556	 0.0186138968	-0.484815
C	 0.0720133271	-0.0238281596	-0.0091526747	 0.404213
C	 1.0782818174	-0.815727929	 0.8666820771	-0.308097
C	 0.8069272113	-1.9558489614	-0.1447425609	-0.059861
C	-0.7158469537	-2.2386681117	-0.1208511398	-0.065371
C	-1.0039420529	-1.4431755108	-1.3754358361	-0.099589
C	-1.2549785189	-0.8123824179	-0.0238749057	-0.099378
C	 0.4561362696	-0.9097103492	-1.2709765859	-0.134315
H	 0.8027341365	 1.7514453287	-0.0557234748	 0.27945
H	 2.0967591174	-0.4220039755	 0.7603848215	 0.084326
H	 0.8460927843	-0.9749431945	 1.9242421021	 0.09499
H	 1.4984912672	-2.7833890119	-0.2899092561	 0.066914
H	-1.2435358771	-3.0931402286	 0.2825846714	 0.083991
H	-1.6720269389	-1.6369053881	-2.2033886367	 0.085606
H	-2.1875314207	-0.5522756827	 0.4587221791	 0.087116
H	 1.1299712767	-0.6039855634	-2.0678580174	 0.064819
269.825	320.5822	356.7625	424.6744	548.138	593.746	737.1449	740.647	783.286	793.6662	830.9505	849.4363	861.2406	904.831	913.0287	948.2883	989.7847	998.227	1012.8011	1033.3547	1039.9978	1060.6819	1086.3722	1109.0586	1171.8023	1174.7498	1212.0076	1225.8915	1239.1707	1275.6733	1291.9305	1360.9999	1397.4244	1485.489	3028.7192	3091.2942	3131.4599	3145.778	3192.5306	3199.7328	3213.9229	3808.3265
OC12CC3C4C(C14)C23	O[C@@]12C[C@H]3[C@@H]4[C@@H]([C@H]14)[C@@H]23	
InChI=1S/C7H8O/c8-7-1-2-3-4(5(2)7)6(3)7/h2-6,8H,1H2	InChI=1S/C7H8O/c8-7-1-2-3-4(5(2)7)6(3)7/h2-6,8H,1H2/t2-,3+,4+,5-,6+,7+/m0/s1
