23
gdb 121408	4.04352	0.81502	0.71395	1.747	83.15	-0.2441	0.0888	0.3329	1637.0721	0.206817	-425.42744	-425.418064	-425.417119	-425.461979	34.937	
C	 0.0023940793	 1.4016634266	-0.0124921083	-0.225646
O	 0.0149015831	-0.0044715967	-0.0115547172	-0.235989
C	 0.6525140691	-0.5508664903	 1.1234093221	-0.072029
C	 0.652950896	-2.07077681	 1.0086663842	 0.007857
C	 1.4240017847	-2.5620697542	-0.2270347631	-0.194114
C	 1.4785733389	-4.0904935857	-0.2507749106	-0.084387
O	 2.04329804	-4.6189844316	 0.9388199804	-0.243092
C	 1.3015553392	-4.2522833796	 2.0880188541	-0.078529
C	 1.2343148045	-2.7332179027	 2.2676262636	-0.214425
H	 1.0215801717	 1.8204906158	-0.012327955	 0.103053
H	-0.5116236234	 1.7255686163	-0.9209275566	 0.126
H	-0.5322733894	 1.8073524759	 0.8614909705	 0.102218
H	 1.6892850597	-0.1757617572	 1.1984314105	 0.081714
H	 0.1290968022	-0.2375455125	 2.0441128427	 0.08041
H	-0.3953467549	-2.3875517533	 0.9052226726	 0.078054
H	 0.9577321183	-2.1833226661	-1.1412679382	 0.109797
H	 2.4500315209	-2.1716261905	-0.1950546089	 0.095284
H	 0.462541107	-4.4986469181	-0.3971399297	 0.082199
H	 2.1049136999	-4.4527157918	-1.0712977564	 0.103784
H	 0.2777986432	-4.662555793	 2.0237500762	 0.081563
H	 1.7991735179	-4.7283167346	 2.9382067256	 0.103689
H	 2.2481331912	-2.3540571996	 2.4517894208	 0.101045
H	 0.6307252711	-2.4937540168	 3.1517968809	 0.091544
74.7312	99.1178	118.008	189.3147	233.6947	243.1858	308.2231	341.0119	369.0395	449.689	478.1444	509.0967	618.4316	810.3559	825.8626	871.6032	909.118	970.7852	988.6205	1002.9408	1009.9178	1023.4311	1105.6499	1115.6228	1152.9459	1168.7774	1174.3791	1192.2095	1195.7026	1229.0555	1252.1479	1264.7631	1290.7289	1305.441	1328.5528	1344.5866	1378.2217	1387.4836	1399.1738	1421.8968	1425.8058	1472.4315	1480.9685	1485.8496	1486.0395	1493.193	1502.278	1504.0904	1526.5436	2935.666	2944.934	2951.8429	2962.857	2968.1803	3002.4926	3009.7197	3018.7004	3026.8221	3064.3487	3079.7387	3082.8561	3093.4141	3111.6786
COCC1CCOCC1	COCC1CCOCC1	
InChI=1S/C7H14O2/c1-8-6-7-2-4-9-5-3-7/h7H,2-6H2,1H3	InChI=1S/C7H14O2/c1-8-6-7-2-4-9-5-3-7/h7H,2-6H2,1H3
