25
gdb 109537	1.90528	1.25338	1.08481	1.3821	89.72	-0.2372	0.0726	0.3099	1366.3612	0.225112	-389.491325	-389.479703	-389.478759	-389.527261	43.292	
C	-0.0366424528	 1.3502565026	-0.8987167587	-0.371209
C	-0.2772426059	 0.5540386933	 0.3907389401	-0.208385
C	-1.4996935334	-0.3395107811	 0.3046462146	-0.115211
C	-1.5002650501	-1.7658538672	-0.2542373793	 0.271517
C	-2.6714785091	-2.1609005243	-1.1388774841	-0.441225
C	-0.2015146824	-2.4263095246	-0.6858957037	-0.456815
C	-1.7705425014	-1.5215570163	 1.2170685633	 0.326952
C	-0.8045480863	-1.9391485814	 2.3065265303	-0.447605
O	-3.1134871279	-1.7278044902	 1.6017663234	-0.462846
H	 0.8301757622	 2.0118196409	-0.8015498137	 0.107815
H	 0.1421826017	 0.6826260097	-1.7478196351	 0.119123
H	-0.90486731	 1.9712347524	-1.1454378039	 0.113816
H	 0.6182404275	-0.0308344279	 0.6243528439	 0.093112
H	-0.4015431769	 1.2539680814	 1.2284754257	 0.091896
H	-2.4080332512	 0.2087762109	 0.0567826962	 0.074784
H	-2.5005893786	-1.8261782382	-2.1689894302	 0.103651
H	-2.7945594771	-3.2503803821	-1.1618841965	 0.109586
H	-3.6076914869	-1.7310525544	-0.7821334599	 0.12835
H	 0.6669778913	-2.1076135693	-0.1066241203	 0.111706
H	-0.2764270828	-3.5162342471	-0.5937208797	 0.116155
H	 0.0074758669	-2.2028222144	-1.7386219817	 0.114656
H	 0.2411670527	-1.7971606312	 2.0294564386	 0.116032
H	-0.9835522759	-1.3510028317	 3.2157623472	 0.103725
H	-0.9547477681	-2.9936320238	 2.5595609596	 0.124454
H	-3.3213950255	-1.0835199059	 2.287396734	 0.275965
66.9664	125.6383	156.2749	174.9236	184.9268	200.5835	205.6189	247.0956	260.5463	288.9045	316.4339	335.0664	377.1348	432.8436	448.5497	489.5387	572.7344	679.1003	689.1956	777.1493	844.8675	944.1558	953.8807	970.286	986.8603	1004.1858	1031.7538	1062.208	1080.252	1108.5146	1134.3552	1164.6469	1202.6084	1208.3274	1280.3225	1287.4951	1308.0635	1331.9704	1370.3995	1405.1506	1408.5826	1412.3266	1424.7946	1453.6121	1475.375	1484.8895	1489.6578	1492.6355	1495.3179	1497.8694	1506.1999	1506.8016	1522.8313	3012.9733	3022.8726	3023.9911	3029.1917	3031.3925	3062.9845	3075.6737	3080.2667	3085.992	3098.9644	3103.8713	3112.2717	3118.4178	3137.0078	3143.2408	3793.0087
CCC1C(C)(C)C1(C)O	CC[C@H]1C(C)(C)[C@]1(C)O	
InChI=1S/C8H16O/c1-5-6-7(2,3)8(6,4)9/h6,9H,5H2,1-4H3	InChI=1S/C8H16O/c1-5-6-7(2,3)8(6,4)9/h6,9H,5H2,1-4H3/t6-,8+/m0/s1
