17
gdb 112210	2.61035	1.3854	1.01351	5.308	69.67	-0.2402	0.0194	0.2597	1155.5648	0.135768	-455.121738	-455.112901	-455.111957	-455.155561	32.212	
O	 0.4453055854	 0.4332386737	 0.9162947426	-0.407195
C	-0.0585690534	 0.2112166687	-0.3937668195	-0.091243
C	-1.43645302	-0.4410226984	-0.3475598784	-0.048418
N	-1.9596211192	-0.9115894423	-1.6370770046	-0.377357
C	-2.1360644877	-2.2341141432	-1.2561311732	 0.418774
O	-2.5979352522	-3.1887212046	-1.8144986923	-0.3554
C	-1.5050649352	-1.9187173123	 0.1017269837	 0.16174
C	-0.5388547084	-2.6945549114	 0.9114819145	-0.300681
N	-1.9214834843	-2.479851928	 1.3766652725	-0.356162
H	-0.0508971332	 1.1569414039	 1.311964259	 0.289405
H	-0.0917102355	 1.1438902458	-0.9776524037	 0.094977
H	 0.6457013613	-0.4638729872	-0.8887276002	 0.125295
H	-2.1430220582	 0.2021864841	 0.1986839223	 0.079135
H	-2.3285283483	-0.4028621826	-2.4260375934	 0.251806
H	-0.3113497458	-3.7174864117	 0.6269060084	 0.137368
H	 0.2642840518	-2.1385455535	 1.3853012601	 0.141331
H	-1.938851527	-1.747128121	 2.0830668819	 0.236625
63.5759	117.3944	167.6197	215.8368	242.2031	256.6762	288.206	354.3092	387.5038	487.2621	568.4582	640.1283	730.0015	771.9415	822.5244	892.7577	954.8643	985.5884	986.8754	1007.6606	1049.2191	1058.3068	1100.817	1132.748	1151.3601	1188.3717	1226.1947	1262.1178	1293.7037	1338.056	1372.2151	1394.1403	1412.1055	1429.922	1497.9773	1505.0299	1905.1673	2985.2118	2992.6328	3092.6843	3119.1903	3214.7545	3491.231	3623.6537	3817.2167
OCC1NC(=O)C11CN1	OC[C@H]1NC(=O)[C@]21CN2	
InChI=1S/C5H8N2O2/c8-1-3-5(2-6-5)4(9)7-3/h3,6,8H,1-2H2,(H,7,9)	InChI=1S/C5H8N2O2/c8-1-3-5(2-6-5)4(9)7-3/h3,6,8H,1-2H2,(H,7,9)/t3-,5-/m1/s1
