19
gdb 87525	3.0976	1.42387	1.26995	3.066	74.4	-0.2503	0.0841	0.3344	1073.3637	0.159493	-422.98181	-422.974047	-422.973102	-423.01391	30.602	
C	-0.0019657354	 1.572351477	-0.1739807054	-0.417893
C	-0.0509936216	 0.076819693	 0.0033285097	-0.071779
O	 1.2169545254	-0.6258181215	-0.074031353	-0.314021
C	 0.5317825517	-0.6085228243	 1.1507368239	 0.530593
C	 1.1653170606	-0.2039025089	 2.4882688111	-0.033042
C	-0.0643746418	-0.0268355752	 3.4040786837	-0.223623
C	-0.8136725434	-1.3441535548	 2.9986523915	-0.222529
C	 0.2227017236	-1.8603514586	 1.9791943332	-0.035391
O	 1.4862435558	-1.6202600438	 2.6816516828	-0.302926
H	 0.8129907446	 2.0079792701	 0.4097702912	 0.127652
H	 0.1546148198	 1.8300395094	-1.2264274842	 0.133906
H	-0.9455014741	 2.0279391878	 0.1459076878	 0.123406
H	-0.853320335	-0.4320858819	-0.534512491	 0.092673
H	 2.0181781855	 0.4673779669	 2.5763937473	 0.090816
H	 0.2248447781	-0.0147886776	 4.4565006932	 0.113592
H	-0.6330302655	 0.8810355506	 3.1853865349	 0.102049
H	-0.9269150286	-2.0375072336	 3.8340417418	 0.113448
H	-1.7967003755	-1.1656802389	 2.5545022793	 0.101256
H	 0.1254453058	-2.8566693456	 1.5503947425	 0.091812
126.3093	150.0349	192.3571	240.571	281.4342	415.7427	427.7252	460.5554	575.5122	615.9031	724.7625	800.3203	833.0498	853.1691	864.7945	899.1728	910.273	955.3581	963.0564	981.9761	1007.8931	1022.3402	1072.0359	1104.5682	1126.7269	1137.8984	1183.3252	1194.2311	1224.0655	1226.6104	1250.3946	1284.2646	1303.353	1317.1814	1365.5045	1409.2695	1476.6554	1479.0912	1492.0141	1498.0676	1553.5143	3037.012	3063.5505	3072.189	3089.1111	3101.2983	3111.7327	3125.4013	3128.0397	3138.2966	3141.7201
CC1OC11C2CCC1O2	C[C@H]1O[C@]21[C@H]1CC[C@@H]2O1	
InChI=1S/C7H10O2/c1-4-7(9-4)5-2-3-6(7)8-5/h4-6H,2-3H2,1H3	InChI=1S/C7H10O2/c1-4-7(9-4)5-2-3-6(7)8-5/h4-6H,2-3H2,1H3/t4-,5-,6+,7-/m1/s1
