23
gdb 39593	3.07552	1.40442	1.02989	0.2312	90.24	-0.2329	0.0273	0.2602	1215.4896	0.210206	-351.190888	-351.183364	-351.182419	-351.222425	31.804	
C	-0.0257532131	 1.5800533305	-0.009800264	-0.316704
C	 1.4595441743	 1.8963009556	-0.0661335013	-0.070285
C	 2.195712811	 0.8849379454	 0.400438846	-0.120039
C	 1.3054405948	-0.2376533384	 0.8883723819	 0.037907
C	 1.6978846502	-1.7090095111	 0.7580644633	-0.232227
C	 0.5415590112	-2.5700061617	 1.3088335814	-0.185154
C	-0.8212701715	-2.2428273002	 0.6641028751	-0.187686
C	-1.1682923536	-0.7385913958	 0.7027237875	-0.236637
C	 0.000337835	 0.0433383161	 0.1122510732	 0.08309
H	-0.4883639512	 2.0501783646	 0.8724891103	 0.099796
H	-0.5832493307	 1.9348389047	-0.8835769493	 0.09646
H	 1.8457440437	 2.8505239961	-0.4075447701	 0.088178
H	 3.2757968171	 0.8833838205	 0.5026684635	 0.086217
H	 1.1123993964	-0.0589042702	 1.9627193064	 0.070924
H	 1.8856981095	-1.9545704927	-0.295994343	 0.092091
H	 2.6225247023	-1.9293371476	 1.3050347443	 0.085926
H	 0.7639496494	-3.6346719685	 1.1750280688	 0.088796
H	 0.4719460725	-2.4037218552	 2.3928368519	 0.092681
H	-0.8053770099	-2.5679597211	-0.3852493989	 0.093332
H	-1.6084037964	-2.8266502474	 1.154558535	 0.088646
H	-2.0964066143	-0.5555299387	 0.1479162948	 0.086794
H	-1.3505148578	-0.4188575427	 1.7380634549	 0.08864
H	 0.1709781209	-0.3364109121	-0.9072701516	 0.069255
161.1576	176.784	296.854	317.2229	332.4649	416.8727	433.1798	475.6301	523.8737	588.5551	720.4405	763.9116	792.9902	839.8371	853.8706	858.6227	925.8777	936.222	946.4048	963.0388	970.0285	1049.3243	1056.6714	1074.5119	1088.6121	1104.0235	1109.9239	1125.7238	1161.3404	1183.5853	1222.5747	1253.8156	1272.9454	1291.8715	1304.9525	1329.0186	1344.2843	1347.061	1370.5445	1371.7367	1380.2455	1389.7305	1401.9716	1484.2691	1486.5278	1488.7679	1492.207	1503.2084	1663.1219	2923.9144	2977.9308	2990.2114	3010.465	3012.8347	3014.3148	3016.0627	3054.102	3056.2287	3059.9957	3061.3336	3068.0134	3176.1558	3202.0034
C1C=CC2CCCCC12	C1C=C[C@@H]2CCCC[C@@H]12	
InChI=1S/C9H14/c1-2-5-9-7-3-6-8(9)4-1/h3,6,8-9H,1-2,4-5,7H2	InChI=1S/C9H14/c1-2-5-9-7-3-6-8(9)4-1/h3,6,8-9H,1-2,4-5,7H2/t8-,9-/m0/s1
