15
gdb 16007	4.06138	1.97057	1.5723	2.9163	61.4	-0.2509	0.022	0.2729	809.1867	0.120329	-399.783398	-399.77678	-399.775836	-399.814282	24.884	
C	 0.0593116254	 1.4876706168	 0.0150518953	-0.240328
O	 1.2244835693	 0.6615268736	-0.0001743096	-0.266136
C	-0.0646799583	 0.0281340329	 0.0047826665	 0.356093
C	-0.3959513301	-0.7268753041	 1.2665035059	-0.13007
O	 0.1276069656	-2.062776833	 1.220178109	-0.223888
C	 0.1328569571	-2.6582173221	 0.0014234271	 0.141592
N	-0.122233568	-2.1751174966	-1.1377218574	-0.270632
C	-0.4326401066	-0.751029905	-1.2398221921	-0.218147
H	-0.1118208208	 2.0438130515	 0.9368543814	 0.114001
H	-0.1350473512	 2.0455030863	-0.9006052558	 0.11903
H	 0.0527200436	-0.2505238292	 2.1400750662	 0.129528
H	-1.4840397241	-0.7842335254	 1.4048153683	 0.116266
H	 0.415147222	-3.7037343383	 0.1099429718	 0.128543
H	-1.5038023358	-0.6403588344	-1.4580770157	 0.116738
H	 0.1098499919	-0.337090613	-2.0959422708	 0.12741
109.9258	146.9548	295.3992	357.7166	381.7728	483.7251	508.88	535.9829	731.1354	812.8296	882.2651	920.2259	940.1138	950.7904	966.9867	982.962	1030.7368	1075.0149	1126.622	1159.0853	1178.0698	1234.5508	1275.7927	1305.2826	1333.4758	1374.4984	1409.5612	1451.7569	1466.5061	1490.6377	1534.3611	1741.0538	3012.631	3021.7782	3073.2314	3076.1268	3117.7806	3160.1708	3162.0128
C1OC11COC=NC1	C1O[C@]21COC=NC2	
InChI=1S/C5H7NO2/c1-5(3-8-5)2-7-4-6-1/h4H,1-3H2	InChI=1S/C5H7NO2/c1-5(3-8-5)2-7-4-6-1/h4H,1-3H2/t5-/m0/s1
