20
gdb 87186	3.52093	0.97893	0.93118	2.2923	76.07	-0.2555	0.0578	0.3133	1365.4216	0.16858	-440.325891	-440.315744	-440.314799	-440.36083	37.418	
C	-0.1684938635	 1.4943594543	 0.0085452013	-0.417685
C	 0.0414823363	-0.002606811	 0.0466811223	-0.052395
C	 1.3863524693	-0.6346957091	-0.259773208	-0.327589
C	 0.8206061954	-0.7007386941	 1.1301014952	 0.45412
C	 1.4546479414	 0.0173694217	 2.295594953	-0.467385
O	 0.2145887231	-1.9393883706	 1.5018070575	-0.307686
C	 1.0505964051	-2.9839430184	 1.7533812654	 0.475462
N	 0.3065958459	-4.1003184382	 2.023651455	-0.558584
O	 2.2570590715	-2.946239568	 1.7146546343	-0.397468
H	 0.7272674538	 2.042308336	 0.315088346	 0.117526
H	-0.4153142585	 1.8198029617	-1.0078442723	 0.121086
H	-0.9895519115	 1.8025180633	 0.6653750937	 0.119137
H	-0.811440148	-0.582413634	-0.2960988099	 0.092049
H	 1.4104109264	-1.5488131851	-0.8405213861	 0.122405
H	 2.2379275355	 0.01986293	-0.4164274899	 0.113464
H	 1.8478955382	 0.9890292711	 1.9885142299	 0.117558
H	 0.7215868538	 0.1826685843	 3.0926578023	 0.115864
H	 2.2815574231	-0.575644021	 2.6927943208	 0.150428
H	-0.6666315731	-3.9879713088	 2.2512696835	 0.262785
H	 0.8020549958	-4.8706385941	 2.4382816961	 0.266908
75.2147	89.0809	133.4484	174.7894	187.3108	243.1675	257.5134	319.9086	353.806	394.3093	423.3296	443.0085	499.8771	526.5168	640.3971	737.6508	784.4611	802.8595	860.8944	888.0308	944.1056	948.3424	1014.1119	1048.448	1052.9946	1110.8707	1125.2424	1126.7704	1145.8969	1187.3734	1232.8706	1330.1704	1360.5576	1406.6953	1409.707	1424.206	1477.2164	1484.8701	1494.199	1498.3498	1517.0456	1609.5629	1833.3213	3030.5465	3042.7086	3090.661	3102.1472	3114.7079	3133.4782	3136.2076	3146.7232	3225.3778	3613.7293	3743.4462
CC1CC1(C)OC(N)=O	C[C@H]1C[C@]1(C)OC(=O)N	
InChI=1S/C6H11NO2/c1-4-3-6(4,2)9-5(7)8/h4H,3H2,1-2H3,(H2,7,8)	InChI=1S/C6H11NO2/c1-4-3-6(4,2)9-5(7)8/h4H,3H2,1-2H3,(H2,7,8)/t4-,6-/m0/s1
