16
gdb 17293	3.1603	2.50971	1.90921	2.9608	63.12	-0.2432	0.0522	0.2955	754.9736	0.130063	-383.664618	-383.657999	-383.657055	-383.695	26.072	
C	-0.0290715847	 1.5592991228	-0.0273646512	-0.499736
C	 0.0158777489	 0.0508531039	 0.0118353638	 0.250569
C	-1.2945485475	-0.7761564399	 0.0650573269	-0.119328
O	-0.8540746423	-1.4848812293	 1.2534373142	-0.285068
C	 0.3902113562	-0.7758737264	 1.2694958123	 0.04163
C	 1.5590259716	-1.4279095551	 0.4713810126	 0.002318
O	 0.9979568453	-2.0517369041	-0.6854029454	-0.222383
C	 1.1987098293	-0.6417589117	-0.7278689846	-0.041702
H	 0.9589991291	 1.9910624482	 0.1686001592	 0.121712
H	-0.3557921378	 1.9181979468	-1.010717287	 0.125034
H	-0.7223566793	 1.9547245912	 0.7216902925	 0.127962
H	-2.1909788535	-0.1794435524	 0.2741208687	 0.096079
H	-1.4775727989	-1.4555779776	-0.7719105721	 0.115544
H	 0.6491590209	-0.3373164379	 2.2374960775	 0.078064
H	 2.5110885253	-1.8093918921	 0.8238401354	 0.106598
H	 1.8092879977	-0.2458526463	-1.5328468326	 0.102708
204.1558	211.7942	249.8873	283.7573	329.0531	468.6815	547.865	687.3039	720.3691	816.4673	834.1044	844.8435	877.214	902.0598	923.487	977.0449	998.736	1000.4463	1024.6595	1051.6906	1143.7717	1164.1461	1169.0185	1202.7886	1236.4607	1239.8705	1288.5328	1302.216	1356.5551	1384.7932	1414.2114	1491.0466	1493.8211	1504.2096	3020.8351	3024.9892	3072.7193	3085.0365	3093.1555	3100.3201	3166.4036	3182.4419
CC12COC1C1OC21	C[C@]12CO[C@H]1[C@H]1O[C@@H]21	
InChI=1S/C6H8O2/c1-6-2-7-4(6)3-5(6)8-3/h3-5H,2H2,1H3	InChI=1S/C6H8O2/c1-6-2-7-4(6)3-5(6)8-3/h3-5H,2H2,1H3/t3-,4+,5-,6+/m1/s1
