17
gdb 78042	2.93241	1.23801	1.11579	2.7426	69.89	-0.2401	-0.0203	0.2198	1137.3779	0.133241	-458.938905	-458.930005	-458.929061	-458.972156	33.677	
C	-0.0636217084	 1.5535765309	-0.0209014559	-0.46511
C	 0.0677139268	 0.0469629071	-0.0823933823	 0.396728
O	-1.0512017051	-0.6254403736	 0.4304603559	-0.463905
C	 0.6779091047	-0.7247574354	-1.1838515715	-0.111471
C	 1.378728147	-0.6985091511	 0.2351768348	-0.257512
C	 2.5545024676	-0.0900073239	-0.4296737739	 0.358484
O	 3.7248552788	-0.0131140048	-0.159749276	-0.339175
C	 1.8573281722	 0.0155710294	-1.8238547593	 0.016552
O	 2.5465651325	-0.7739831423	-2.7652030594	-0.442662
H	 0.8201122152	 2.0670664861	-0.4042004517	 0.136146
H	-0.936883662	 1.8790000479	-0.5946241836	 0.137241
H	-0.2002429344	 1.8736286053	 1.0189843333	 0.11811
H	-1.186336049	-0.3286552805	 1.3376218163	 0.287487
H	 0.1822384731	-1.5760510941	-1.6299210962	 0.129213
H	 1.3884661334	-1.4394231862	 1.0251801377	 0.115411
H	 1.6382696809	 1.0128815024	-2.2263867927	 0.085648
H	 3.4888792767	-0.6542589071	-2.5918931657	 0.298816
77.9673	178.0025	205.9085	221.9545	257.1196	290.689	325.6195	348.3209	374.0765	441.4463	492.1076	500.5809	606.384	692.5034	770.5935	846.374	862.1346	896.8138	923.9838	975.9914	1000.6102	1038.7282	1070.9369	1098.3079	1130.2341	1165.2857	1182.627	1219.5686	1271.3407	1289.1941	1351.867	1388.7842	1421.0888	1443.4194	1490.5652	1504.14	1852.7488	3015.2897	3034.4178	3098.2206	3135.5394	3196.3693	3223.5788	3778.0501	3796.6789
CC1(O)C2C1C(=O)C2O	C[C@@]1(O)[C@@H]2[C@H]1C(=O)[C@H]2O	
InChI=1S/C6H8O3/c1-6(9)2-3(6)5(8)4(2)7/h2-4,7,9H,1H3	InChI=1S/C6H8O3/c1-6(9)2-3(6)5(8)4(2)7/h2-4,7,9H,1H3/t2-,3+,4+,6-/m1/s1
