23
gdb 60020	2.94489	0.71966	0.66328	3.6564	83.51	-0.2455	-0.0166	0.2289	1789.9575	0.201813	-425.444362	-425.432966	-425.432021	-425.482261	40.313	
C	-1.7168055492	 1.6754711185	-1.2739967621	-0.403288
C	-1.8322550442	 0.1525079969	-1.3461063593	 0.124505
O	-1.0436230215	-0.3759324895	-2.4121086822	-0.425855
C	-1.4870763088	-0.5151320822	-0.0069952337	-0.202941
C	-1.5549700885	-2.0526742931	-0.0053655954	 0.023018
C	-0.8894506767	-2.6261206626	 1.253898416	-0.404528
C	-3.0056427583	-2.5656271986	-0.1378139665	-0.276867
C	-3.0682694863	-4.0571383638	-0.3712200286	 0.159366
O	-3.7098317456	-4.8393469336	 0.2821174145	-0.245101
H	-1.9474833881	 2.1195925128	-2.2459106881	 0.125776
H	-2.4027503358	 2.0909957229	-0.5287868695	 0.118577
H	-0.6993897298	 1.9752741055	-0.9920443541	 0.10709
H	-2.861095887	-0.1022799643	-1.6276415517	 0.091703
H	-0.1304645235	-0.1063526959	-2.2605563094	 0.276678
H	-0.4663446102	-0.2112990738	 0.2693311275	 0.082023
H	-2.1438237172	-0.1122986334	 0.7759402714	 0.096075
H	-0.9980405239	-2.3980154838	-0.8858655565	 0.090773
H	-0.9153197134	-3.7205938169	 1.2632250106	 0.125524
H	 0.158270916	-2.3158097211	 1.320929025	 0.111751
H	-1.3992846299	-2.2798138653	 2.1606403576	 0.119013
H	-3.6007540539	-2.3228417553	 0.749036515	 0.113516
H	-3.4838909466	-2.0970286115	-1.0091035564	 0.120526
H	-2.4529034677	-4.4048014221	-1.2355890844	 0.072665
35.1555	56.5164	64.2676	115.4759	161.399	223.1047	232.1449	240.0765	291.2168	303.5507	333.089	402.0647	434.0447	488.5293	509.2593	523.378	763.258	833.6698	866.598	894.9141	931.4526	951.7893	980.6701	1023.0496	1031.6392	1067.9801	1102.7139	1144.0326	1153.8841	1181.0784	1198.6989	1245.5904	1285.717	1310.2603	1329.0226	1356.8414	1385.4692	1396.2939	1405.8019	1416.1187	1419.9374	1429.4332	1459.1596	1473.6218	1492.5953	1495.1509	1496.8333	1500.6552	1833.5801	2845.5907	2995.1855	3018.3932	3023.4896	3025.7808	3028.5863	3037.7446	3049.5283	3085.6762	3094.6324	3095.5174	3102.3961	3120.063	3792.0884
CC(O)CC(C)CC=O	C[C@@H](O)C[C@@H](C)CC=O	
InChI=1S/C7H14O2/c1-6(3-4-8)5-7(2)9/h4,6-7,9H,3,5H2,1-2H3	InChI=1S/C7H14O2/c1-6(3-4-8)5-7(2)9/h4,6-7,9H,3,5H2,1-2H3/t6-,7+/m0/s1
