20
gdb 63755	3.25374	1.33446	1.22261	3.9051	79.84	-0.2412	0.0252	0.2664	1124.1394	0.171083	-403.144621	-403.136246	-403.135302	-403.177072	32.904	
C	-0.245255773	 1.5740901494	-0.1342723667	-0.426148
C	-0.0687401341	 0.0779712852	 0.0379382792	 0.360575
C	-1.2493605262	-0.741475412	-0.4376534476	-0.441205
O	 1.1825165886	-0.3526858522	-0.7052603273	-0.314231
C	 1.8003164432	-0.479890003	 0.499692207	 0.432616
N	 2.9680429943	-0.2907247688	 0.9419959687	-0.319759
C	 2.7322226789	-0.1133843994	 2.4076768256	-0.153642
C	 1.2285547053	 0.3441937779	 2.5614661535	-0.276137
C	 0.6042464	-0.4103506382	 1.3776355928	-0.175766
H	 0.65196316	 2.1166306035	 0.1736821522	 0.137128
H	-0.444637964	 1.8138760543	-1.1827653068	 0.133182
H	-1.089713805	 1.9266643508	 0.4664806865	 0.124411
H	-1.4718476055	-0.5234879579	-1.4866390412	 0.132562
H	-1.0432580076	-1.8108656503	-0.3443586066	 0.12987
H	-2.1362242715	-0.503453818	 0.1590625372	 0.125755
H	 2.9224986233	-1.0485052269	 2.9515750971	 0.105786
H	 3.43089776	 0.634431961	 2.7917271831	 0.113157
H	 0.7972232891	 0.0931426599	 3.533421901	 0.10296
H	 1.1670722421	 1.4292078869	 2.4301215456	 0.112367
H	 0.1987731322	-1.3837774023	 1.6676291067	 0.096519
107.3898	194.7364	217.4809	231.2301	269.4428	302.4188	327.5813	413.325	433.2902	530.658	593.193	681.7548	691.4486	736.1202	782.2221	849.6101	896.7679	923.4389	942.7619	976.2491	996.8323	1002.7232	1040.3694	1084.8199	1122.9988	1139.7927	1165.7476	1223.5135	1243.7339	1259.6521	1287.0222	1305.4037	1334.8015	1356.8909	1406.8475	1419.2874	1471.9967	1477.6841	1485.8913	1491.9824	1502.2333	1505.0324	1769.1618	3018.3771	3037.7746	3044.0464	3056.1312	3067.9402	3091.905	3109.1778	3112.7837	3116.3312	3121.6138	3125.1211
CC1(C)OC2=NCCC12	CC1(C)O[C]2[N]CC[C@@H]12	
InChI=1S/C7H11NO/c1-7(2)5-3-4-8-6(5)9-7/h5H,3-4H2,1-2H3	InChI=1S/C7H11NO/c1-7(2)5-3-4-8-6(5)9-7/h5H,3-4H2,1-2H3/t5-/m1/s1
