18
gdb 74817	3.71111	1.16134	0.99505	1.0081	86.02	-0.2239	0.0106	0.2344	1227.7299	0.147052	-364.770136	-364.761753	-364.760808	-364.802732	32.814	
C	 0.0835047078	 1.4906202073	 0.0403363952	-0.489197
C	-0.0150780795	 0.0003935207	-0.0227136842	 0.314673
C	-0.0723668058	-0.7656151106	-1.1180171471	-0.155352
C	-0.0703771212	-2.2136521195	-0.772749818	-0.134686
N	 1.1595556145	-2.6344163416	-0.0546781841	-0.371778
C	-0.0594035199	-2.2820935786	 0.7289305913	 0.181065
C	-0.0387660172	-0.8400711544	 1.2440440058	-0.36818
C	-0.734541582	-3.3061790737	 1.4639143111	 0.179045
C	-1.2894527415	-4.1606795764	 2.1048454977	-0.394571
H	 1.019748602	 1.8044618481	 0.519039026	 0.131924
H	 0.0470000636	 1.9387808301	-0.9561080178	 0.125482
H	-0.7309769462	 1.917110725	 0.6398180285	 0.125292
H	-0.0731973326	-0.4006619314	-2.1384437622	 0.094385
H	-0.5993881408	-2.9470122386	-1.3717012322	 0.100739
H	 1.2187636616	-3.6523353421	-0.0778809554	 0.232618
H	 0.8376983848	-0.6561655608	 1.8761066557	 0.123823
H	-0.9268622672	-0.6268069767	 1.8521100828	 0.115696
H	-1.7824861505	-4.9166401169	 2.6640042268	 0.189022
111.8638	142.2157	180.2197	213.9982	311.6429	344.79	412.4086	462.5282	497.5716	525.8507	572.5995	585.8559	659.9036	665.163	728.445	807.0205	848.7254	881.4255	913.0857	951.9298	962.496	1015.5315	1057.284	1067.6052	1074.2942	1143.1793	1180.8045	1194.2688	1254.4667	1276.0736	1322.954	1354.8655	1402.3742	1416.2325	1463.9769	1478.9007	1487.6624	1705.0369	2232.6322	3017.5184	3029.762	3063.9505	3068.6126	3112.8206	3173.0355	3200.0046	3471.2047	3503.4556
CC1=CC2NC2(C1)C#C	CC1=C[C@H]2N[C@]2(C1)C#C	
InChI=1S/C8H9N/c1-3-8-5-6(2)4-7(8)9-8/h1,4,7,9H,5H2,2H3	InChI=1S/C8H9N/c1-3-8-5-6(2)4-7(8)9-8/h1,4,7,9H,5H2,2H3/t7-,8+/m1/s1
