21
gdb 74288	2.88567	1.0977	1.03547	1.073	91.85	-0.2337	0.0223	0.256	1311.3368	0.180821	-349.947328	-349.937659	-349.936715	-349.981339	37.011	
C	 0.0403922632	 1.5339550044	 0.0495499814	-0.490551
C	 0.0312053016	 0.0382349176	 0.0167602076	 0.319948
C	-0.3571855169	-0.7443383388	-0.9900796106	-0.195562
C	-0.1568529065	-2.2288593095	-0.7082081554	 0.095635
C	 1.0796297892	-2.7612461833	-1.4755529849	-0.420548
C	 0.084416588	-2.2221613315	 0.8403952432	-0.253804
C	 0.5377326563	-0.7855841399	 1.1831251626	-0.307167
C	-1.3306974166	-3.0240344791	-1.0736617894	 0.303867
C	-2.2897312498	-3.6813622287	-1.3819136183	-0.485457
H	 1.0546816354	 1.919214211	 0.2162920724	 0.124827
H	-0.3367303951	 1.962407903	-0.8828058975	 0.12446
H	-0.5747381723	 1.9146876627	 0.8749007626	 0.125975
H	-0.7319841677	-0.4002210762	-1.9479984744	 0.091783
H	 1.9742499687	-2.2077593012	-1.1738509691	 0.113228
H	 1.2348028017	-3.824287988	-1.2678205124	 0.121372
H	 0.9494557471	-2.6410126539	-2.5548292388	 0.121445
H	-0.8596436798	-2.4406575213	 1.344681872	 0.115226
H	 0.803350143	-2.9889013019	 1.1405160188	 0.100193
H	 1.6309217625	-0.7005847736	 1.2648863858	 0.104186
H	 0.136285391	-0.4426236505	 2.1442679606	 0.101829
H	-3.1407478232	-4.2568973412	-1.6497562362	 0.189114
82.72	128.3328	166.7951	181.6958	196.6857	253.7459	298.1735	347.9536	376.0817	461.1285	496.0943	530.1428	574.644	598.4948	617.0206	624.8004	757.189	833.1714	866.9538	891.2068	935.5142	953.1156	975.7613	998.8978	1025.7961	1040.1332	1102.4412	1141.7402	1175.7465	1200.901	1236.3209	1257.8683	1286.6433	1326.2833	1358.0333	1402.7814	1412.4053	1478.5313	1482.4763	1485.8406	1487.8334	1495.5388	1501.0004	1723.3993	2228.9584	3004.6775	3016.593	3034.5294	3045.4713	3061.811	3067.4385	3111.1667	3111.5425	3111.6178	3115.5094	3191.3494	3502.5748
CC1=CC(C)(CC1)C#C	CC1=C[C@@](C)(CC1)C#C	
InChI=1S/C9H12/c1-4-9(3)6-5-8(2)7-9/h1,7H,5-6H2,2-3H3	InChI=1S/C9H12/c1-4-9(3)6-5-8(2)7-9/h1,7H,5-6H2,2-3H3/t9-/m1/s1
