20
gdb 60194	2.98612	0.92847	0.80387	1.7782	82.7	-0.2277	0.0345	0.2622	1483.6619	0.16791	-403.079304	-403.069239	-403.068294	-403.114534	37.3	
C	 0.418505156	 1.3799347017	-0.028896938	-0.408186
C	 0.1125264515	-0.1040212154	 0.1726327746	 0.135311
O	 0.3109431678	-0.4944959722	 1.5303859843	-0.427961
C	-1.2949875668	-0.4661067904	-0.3143270055	-0.146787
N	-1.4673311981	-1.9125867084	-0.3503668622	-0.082088
C	-1.9176098582	-2.567609627	 0.8605012258	-0.220567
C	-2.8368834495	-2.4658971233	-0.3218404131	-0.190173
C	-3.9964132016	-1.6182281932	-0.2639317037	 0.345334
C	-4.9783215343	-0.9224988754	-0.2559074296	-0.477278
H	 1.4107516886	 1.6143388559	 0.3652929673	 0.126902
H	 0.3911949655	 1.6536797229	-1.0883360088	 0.120132
H	-0.3147220617	 2.0062338592	 0.4956179298	 0.107819
H	 0.83051987	-0.7086449558	-0.3922333455	 0.101504
H	-0.2170675116	 0.0944310004	 2.0814527478	 0.274805
H	-2.0407903538	 0.038204345	 0.3250074217	 0.08465
H	-1.4371944701	-0.0866440937	-1.3328936686	 0.106343
H	-1.4464142637	-3.5174585646	 1.096870966	 0.122331
H	-2.1603938906	-1.9480090687	 1.7201776967	 0.112443
H	-2.9535986992	-3.3402432378	-0.958178038	 0.116719
H	-5.8470795799	-0.3122272494	-0.2386590506	 0.198748
51.0984	95.9193	114.2366	190.5262	210.7837	239.3151	297.7278	317.4295	325.7433	389.9605	472.6492	478.8082	530.5941	589.7788	621.1022	660.8531	760.4163	825.8802	855.174	906.7353	933.7074	947.83	1031.5061	1038.005	1067.819	1110.2063	1116.8762	1130.0653	1150.0543	1167.1504	1255.0428	1314.1481	1322.9844	1338.8571	1371.2896	1393.8112	1405.3659	1426.1262	1480.2716	1494.0709	1497.252	1507.3585	2229.779	2952.6407	3024.2046	3055.4982	3062.5673	3095.8062	3107.4765	3121.1765	3128.5949	3195.0691	3503.6226	3793.0457
CC(O)CN1CC1C#C	C[C@@H](O)CN1C[C@H]1C#C	
InChI=1S/C7H11NO/c1-3-7-5-8(7)4-6(2)9/h1,6-7,9H,4-5H2,2H3	InChI=1S/C7H11NO/c1-3-7-5-8(7)4-6(2)9/h1,6-7,9H,4-5H2,2H3/t6-,7-,8?/m1/s1
