16
gdb 48334	2.32056	1.4269	1.07523	6.0557	69.03	-0.2637	-0.0511	0.2126	1136.1485	0.122339	-437.884311	-437.875385	-437.874441	-437.919049	30.936	
O	-1.1158702761	 1.1992766408	-0.4046206555	-0.245477
C	-0.0503749202	 0.8636073343	 0.0397208025	 0.12879
C	 1.1835864526	 1.7603179542	 0.052010741	 0.32686
C	 1.1934215968	 2.7197513565	-1.1459855309	-0.400395
C	 1.3965592234	 2.0254026216	-2.4159445161	 0.280373
N	 1.5599354345	 1.4787716253	-3.4200689909	-0.302382
C	 1.4307217709	 2.4226370705	 1.4399109201	-0.343703
C	 2.7356071784	 1.6028974881	 1.4336495114	-0.070527
O	 2.3893669108	 0.9870521706	 0.1702572209	-0.307534
H	 0.1210132319	-0.1264865353	 0.5154057637	 0.104057
H	 0.2312685298	 3.2418157245	-1.1760665549	 0.174319
H	 1.9868117288	 3.4624842486	-1.0181318302	 0.150284
H	 1.5325965029	 3.5084190817	 1.4169041624	 0.130315
H	 0.7121126043	 2.1476605327	 2.2137179217	 0.133175
H	 3.6621357221	 2.1829596733	 1.3613571934	 0.119643
H	 2.8387227691	 0.8602054528	 2.2311367214	 0.122203
57.0443	75.4853	98.882	127.527	244.4482	266.3966	349.9976	377.3966	389.7806	468.8543	554.1922	767.9833	782.0158	856.9556	890.495	929.0332	936.0275	978.2058	991.9577	1026.6069	1091.3019	1139.0564	1160.3479	1201.8866	1231.7968	1260.5559	1297.5018	1323.9838	1354.1265	1390.3832	1445.4313	1490.6241	1531.523	1831.3864	2368.5857	2906.9132	3036.9241	3056.8137	3082.0449	3084.6789	3105.2511	3140.2183
O=CC1(CC#N)CCO1	O=C[C@@]1(CC#N)CCO1	
InChI=1S/C6H7NO2/c7-3-1-6(5-8)2-4-9-6/h5H,1-2,4H2	InChI=1S/C6H7NO2/c7-3-1-6(5-8)2-4-9-6/h5H,1-2,4H2/t6-/m1/s1
