17
gdb 117147	2.38755	1.07497	0.84749	4.8924	67.71	-0.2526	-0.0536	0.199	1382.6709	0.13143	-496.098507	-496.08836	-496.087416	-496.134809	34.392	
C	-0.9066861638	 1.2284795598	 0.5712967777	-0.233826
O	-1.2863614451	-0.1279206341	 0.4580756255	-0.237455
C	-0.5027105613	-0.8482307048	-0.4622804921	-0.162126
C	-0.9791677096	-2.2952849903	-0.5624387155	 0.301133
O	-0.3634285006	-3.1007953559	-1.206212616	-0.273107
C	-2.3012364976	-2.6707146304	 0.1650297707	-0.036244
O	-2.840801467	-3.8457781872	-0.3345123891	-0.412325
C	-2.0311372454	-2.7890092085	 1.6622832824	 0.122733
O	-2.1773945819	-3.8463971747	 2.2251892092	-0.254552
H	-1.5743558475	 1.6925947885	 1.299906514	 0.138796
H	 0.131922806	 1.3283076443	 0.9193586831	 0.118013
H	-1.0034599102	 1.7524820962	-0.3909041883	 0.118683
H	-0.5599020749	-0.4090612612	-1.472690511	 0.132586
H	 0.5608989498	-0.8559754472	-0.1754981085	 0.130127
H	-2.9893819776	-1.8223738883	 0.0280440342	 0.126929
H	-2.7296305759	-4.5083598441	 0.365693377	 0.299326
H	-1.6951013873	-1.8745704719	 2.1794071267	 0.121309
53.8629	70.1385	88.6222	124.964	140.4351	225.4168	244.4663	306.4648	325.2532	342.536	421.9515	452.8779	568.9036	622.4404	734.4791	801.7162	893.252	932.9697	1007.6745	1056.9619	1103.4432	1164.6455	1182.3167	1188.1139	1213.4874	1230.0606	1248.7919	1329.015	1376.2133	1386.2213	1424.8053	1467.7162	1485.9749	1489.0778	1512.9029	1798.2297	1844.9339	2967.9636	2987.3305	2998.4989	3005.1518	3009.3718	3038.5204	3127.7795	3695.0099
COCC(=O)C(O)C=O	COCC(=O)[C@@H](O)C=O	
InChI=1S/C5H8O4/c1-9-3-5(8)4(7)2-6/h2,4,7H,3H2,1H3	InChI=1S/C5H8O4/c1-9-3-5(8)4(7)2-6/h2,4,7H,3H2,1H3/t4-/m0/s1
