21
gdb 82778	2.90179	1.82126	1.68772	0.1434	83.78	-0.2355	0.0879	0.3234	939.4342	0.185859	-349.923375	-349.916564	-349.915619	-349.954123	29.37	
C	-0.2774265763	 1.5804943682	-0.02104005	-0.42185
C	 0.0322609575	 0.0908726928	 0.0136106667	 0.041026
C	 1.1322658151	-0.54140757	-0.9072828043	-0.077833
C	 2.3566508979	 0.3738021934	-1.0455254338	-0.228379
C	 3.0298918061	 0.2599323377	 0.3118438268	-0.04643
C	 2.1737824692	 0.0412198269	 1.5553785673	-0.0834
C	 2.8738014482	-1.1265589721	 0.8602112647	-0.089713
C	 1.5025511796	-1.5401533282	 0.2722924036	-0.043413
C	 0.7767420574	-0.5341425649	 1.2129031265	-0.04696
H	 0.6008657796	 2.1855513004	 0.2237656509	 0.120494
H	-0.6386689143	 1.8957003831	-1.0068168487	 0.110043
H	-1.0571848189	 1.8270525383	 0.7086901144	 0.108855
H	-0.8962596082	-0.4753684588	-0.1326293979	 0.064235
H	 0.7906440285	-0.9574849216	-1.8568547032	 0.056208
H	 3.0375928022	 0.0040745235	-1.8224692531	 0.090286
H	 2.0806718621	 1.3979073196	-1.3170246858	 0.096077
H	 3.9675918122	 0.7772529084	 0.4892837846	 0.077685
H	 2.4356826584	 0.5289838579	 2.4872682026	 0.077523
H	 3.6788716777	-1.7676057161	 1.1955505767	 0.079399
H	 1.2120546054	-2.585013579	 0.1919067018	 0.060688
H	 0.2188003205	-0.8678010796	 2.0904366502	 0.05546
154.3675	198.2644	257.7296	386.6234	478.3389	535.8239	590.0777	639.7125	692.3264	749.5467	761.8969	796.8787	817.4674	846.2918	882.6607	899.741	922.6477	943.7999	958.0286	968.68	1000.8165	1020.0137	1034.0071	1062.8011	1075.0725	1083.1729	1106.5497	1119.727	1144.3359	1185.7101	1196.787	1208.6999	1231.3893	1234.4619	1272.1918	1291.3313	1319.2752	1327.234	1347.9709	1373.9477	1404.3998	1411.5954	1490.0998	1492.0543	1508.6023	3019.5012	3024.6104	3026.253	3073.77	3080.3081	3084.7493	3085.9424	3100.3745	3138.9772	3159.8794	3171.5949	3193.5411
CC1C2CC3C4C3C2C14	C[C@H]1[C@H]2C[C@H]3[C@@H]4[C@H]3[C@H]2[C@H]14	
InChI=1S/C9H12/c1-3-4-2-5-8-6(3)7(4)9(5)8/h3-9H,2H2,1H3	InChI=1S/C9H12/c1-3-4-2-5-8-6(3)7(4)9(5)8/h3-9H,2H2,1H3/t3-,4+,5-,6-,7+,8-,9+/m0/s1
