17
gdb 125819	2.92674	1.43013	1.01363	3.6342	75.04	-0.2214	-0.0004	0.221	1152.4859	0.136182	-417.971098	-417.962999	-417.962055	-418.00419	29.921	
C	 0.2859922736	 1.405482157	 0.2154790044	-0.497107
C	 0.092174384	-0.0674725128	 0.0681970854	 0.337311
N	 0.0681693075	-0.6335064307	-1.1146040998	-0.200291
O	-0.1481633575	-1.9882581009	-0.894910304	-0.17458
C	-0.2404370667	-2.2059772134	 0.430695399	 0.00202
C	-0.0972975074	-1.0352802906	 1.1088097456	 0.072718
N	-0.2053773653	-0.7548180705	 2.4777250691	-0.157428
C	 0.2639757143	-1.7473929829	 3.4365820918	-0.23037
C	 1.0171245168	-0.477724436	 3.2409771782	-0.226911
H	 1.2101257942	 1.6313232179	 0.7585061516	 0.133672
H	 0.3353576999	 1.8765186692	-0.7678144233	 0.149799
H	-0.5393637889	 1.8465824678	 0.7834626808	 0.14458
H	-0.4279839458	-3.2229752912	 0.7352237723	 0.143732
H	-0.3649278467	-1.8856636478	 4.3104686315	 0.127658
H	 0.7192394347	-2.6546821506	 3.0454333044	 0.122068
H	 1.9661211687	-0.5425094787	 2.7142859527	 0.126035
H	 0.9380649846	 0.326520004	 3.9655438004	 0.127093
73.9268	133.7308	158.4337	177.0126	264.7344	297.6016	421.0386	509.7632	558.7431	610.4976	697.5429	715.1208	803.595	825.5365	899.9367	907.9975	922.5086	947.0947	1025.8386	1041.8849	1068.5013	1111.4261	1132.6968	1147.1356	1157.9111	1175.0513	1198.6789	1270.1163	1349.8622	1403.6793	1434.3864	1478.5858	1482.7335	1488.5864	1514.5296	1541.2008	1659.1841	3041.071	3096.1128	3106.6375	3111.9224	3141.8282	3193.3532	3208.2332	3271.1781
CC1=NOC=C1N1CC1	Cc1nocc1N1CC1	
InChI=1S/C6H8N2O/c1-5-6(4-9-7-5)8-2-3-8/h4H,2-3H2,1H3	InChI=1S/C6H8N2O/c1-5-6(4-9-7-5)8-2-3-8/h4H,2-3H2,1H3
