21
gdb 12018	3.75256	1.33024	1.2731	1.1335	80.27	-0.2221	0.0869	0.309	1103.7353	0.187227	-329.089652	-329.080797	-329.079852	-329.122761	33.739	
C	-0.0854138472	 1.5675420116	-0.1987365664	-0.454235
C	 0.0117622636	 0.062224743	-0.0313538697	 0.341942
C	-1.2462125558	-0.6885354177	-0.4230265638	-0.436783
C	 1.3409257675	-0.6017762997	-0.2032019467	-0.293533
N	 0.7179975945	-0.5256894708	 1.1168896539	-0.117695
C	 1.3341070842	 0.303182058	 2.1132503218	 0.080844
C	 0.6458944241	 0.3928455141	 3.4488981727	-0.275758
C	 1.9224653956	-0.4021061903	 3.3066093292	-0.276967
H	 0.8561298627	 2.0768306267	 0.0166065381	 0.117264
H	-0.3647092417	 1.8117393172	-1.2292947469	 0.118258
H	-0.8565262306	 1.9848266134	 0.4591663019	 0.121619
H	-1.4784152706	-0.5383540064	-1.4837468298	 0.109734
H	-1.1272384575	-1.7588281292	-0.2390088654	 0.1227
H	-2.1060018839	-0.338569986	 0.1602251685	 0.113808
H	 1.4186536506	-1.5952107036	-0.6397703871	 0.105453
H	 2.1985491813	 0.0423785043	-0.3963445367	 0.100475
H	 1.8639287522	 1.194871053	 1.7746759254	 0.070806
H	 0.6744519609	 1.3365966555	 3.9820325421	 0.10784
H	-0.2764090887	-0.1659541948	 3.5564981685	 0.117861
H	 1.8392782292	-1.4824223078	 3.3187028195	 0.119374
H	 2.8336827693	-0.0060794406	 3.7409919109	 0.106994
72.6728	143.365	155.0535	197.8935	226.3423	319.4101	361.0124	370.3327	396.7497	438.6344	519.9717	709.4126	713.0599	785.2251	828.742	877.2032	911.9811	928.0911	959.9345	965.236	1000.6448	1028.4777	1055.7288	1073.8589	1097.1544	1100.5015	1124.9013	1128.9243	1147.3917	1196.9947	1223.019	1250.3587	1291.2126	1376.3563	1399.7687	1409.3651	1421.9638	1455.3224	1479.5935	1486.3775	1493.9791	1501.1827	1504.614	1516.7284	3025.5613	3033.6384	3075.3398	3081.2412	3084.937	3091.1458	3121.7309	3125.4152	3136.8347	3141.3817	3163.8477	3221.7873	3235.4372
CC1(C)CN1C1CC1	CC1(C)CN1C1CC1	
InChI=1S/C7H13N/c1-7(2)5-8(7)6-3-4-6/h6H,3-5H2,1-2H3	InChI=1S/C7H13N/c1-7(2)5-8(7)6-3-4-6/h6H,3-5H2,1-2H3
