16
gdb 15800	5.06284	1.03978	0.91962	2.3603	61.94	-0.2546	-0.0246	0.23	1209.1454	0.12744	-420.852103	-420.843346	-420.842402	-420.886496	29.998	
O	 0.1975499566	 1.668169432	-0.046005597	-0.424446
C	 0.1019740063	 0.2552119452	 0.0704753339	 0.088219
C	 0.6283086458	-0.4568582573	-1.1835918614	-0.30902
C	-0.0869875782	 0.0189695563	-2.4295233273	 0.163912
O	 0.460598823	 0.4451298395	-3.4120907831	-0.237049
C	 0.8037834175	-0.2394984552	 1.3203185796	 0.068679
C	 0.0826181513	-0.4516843458	 2.577580751	-0.176006
O	 0.457784855	-1.5566297709	 1.7462695067	-0.236114
H	 1.0937261885	 1.8921547794	-0.3216233605	 0.289347
H	-0.9689561408	 0.0448590433	 0.1775419127	 0.101484
H	 1.7050704742	-0.2944636542	-1.311318714	 0.112771
H	 0.4570652509	-1.5352215848	-1.0650301297	 0.144813
H	-1.1977561286	-0.056155245	-2.3755804531	 0.077717
H	 1.8725612537	-0.0144476416	 1.3663584934	 0.091013
H	 0.6134344903	-0.3816364203	 3.5252255793	 0.122527
H	-0.9850404853	-0.2425817507	 2.6228642595	 0.122154
56.4677	81.6323	85.1992	156.7598	224.8983	271.8462	302.104	402.4471	448.2026	499.9696	564.4202	779.6376	855.7224	876.1986	932.1144	965.6955	1020.7592	1061.5302	1078.0681	1119.6711	1143.5804	1161.1021	1172.4575	1187.2021	1265.3246	1276.688	1305.9244	1357.7952	1404.2651	1429.5212	1452.908	1460.1309	1530.4342	1839.1125	2867.0655	3026.5819	3044.4156	3077.3564	3085.077	3090.5375	3178.9113	3800.1571
OC(CC=O)C1CO1	O[C@@H](CC=O)[C@H]1CO1	
InChI=1S/C5H8O3/c6-2-1-4(7)5-3-8-5/h2,4-5,7H,1,3H2	InChI=1S/C5H8O3/c6-2-1-4(7)5-3-8-5/h2,4-5,7H,1,3H2/t4-,5+/m0/s1
