18
gdb 25667	3.62592	0.98957	0.78512	1.9983	95.46	-0.1883	0.009	0.1973	1459.5638	0.147458	-364.834708	-364.825157	-364.824213	-364.871378	33.204	
C	-0.0918395059	 1.4501361619	 0.0149934262	-0.508869
C	-0.0321918107	-0.0029980267	-0.003203111	 0.145194
C	 0.0297654329	-1.2099025114	-0.0168734557	-0.054706
C	 0.102142347	-2.6169134144	-0.0327566949	 0.169356
C	 1.2028492639	-3.4634042167	-0.0590834564	-0.27382
C	 0.7233772216	-4.7923998969	-0.0677066852	-0.149069
C	-0.6541997986	-4.7285803937	-0.0466273169	-0.110002
N	-1.0327162626	-3.4149383276	-0.0304173416	-0.056234
C	-2.3945684381	-2.931635885	 0.0644960439	-0.33821
H	 0.8370009389	 1.8750775701	 0.4118939893	 0.151924
H	-0.2417987656	 1.8649614014	-0.988886333	 0.146574
H	-0.9123285077	 1.8081056722	 0.6474496292	 0.146721
H	 2.2305481908	-3.1364501931	-0.0804668806	 0.096954
H	 1.3134726479	-5.6952114919	-0.0970224612	 0.095961
H	-1.3979816793	-5.5100121114	-0.0436248937	 0.112639
H	-2.6821045919	-2.7352872428	 1.1037558625	 0.13816
H	-2.4949711125	-2.0038808302	-0.501964588	 0.15159
H	-3.0720242202	-3.6790949638	-0.3536608328	 0.135838
14.6802	58.1873	90.66	106.8241	186.4322	263.73	277.8607	371.52	462.7673	473.9781	551.4552	612.1324	670.5613	708.5653	723.1833	784.5569	844.5038	893.9249	976.1641	1044.6841	1051.2466	1051.9878	1078.8914	1112.9726	1151.6023	1218.9957	1266.2857	1349.8402	1391.3834	1412.2413	1447.2105	1458.895	1474.0602	1478.9928	1484.1788	1503.9616	1522.7085	1577.5853	2344.9648	3020.2826	3034.6262	3075.9077	3084.9528	3106.3737	3141.9899	3243.0839	3256.9278	3268.043
CC#CC1=CC=CN1C	CC#Cc1cccn1C	
InChI=1S/C8H9N/c1-3-5-8-6-4-7-9(8)2/h4,6-7H,1-2H3	InChI=1S/C8H9N/c1-3-5-8-6-4-7-9(8)2/h4,6-7H,1-2H3
