16
gdb 35992	6.49433	0.5558	0.5552	2.4679	78.48	-0.2603	0.011	0.2713	1933.4717	0.123657	-400.704124	-400.695015	-400.69407	-400.741393	30.726	
N	-0.1940414548	-1.0921350719	 0.8267560852	-0.29884
C	-0.1077910829	-0.0557567837	 0.3254725262	 0.280099
C	-0.0140595517	 1.2630403596	-0.3158517963	-0.473402
C	 1.3395548594	 1.8119647429	-0.3014688725	 0.058458
C	 2.4554677318	 2.2616890136	-0.2881685486	 0.125099
C	 3.7908740295	 2.8172482793	-0.2811041862	-0.217355
C	 4.3835028616	 3.3653176436	-1.6112029327	-0.073578
O	 4.7208344904	 4.618035072	-0.9899610608	-0.265153
C	 3.9927158234	 4.281696698	 0.2040837633	-0.073582
H	-0.3807628722	 1.1688184761	-1.3462492929	 0.1833
H	-0.7103937632	 1.9413353738	 0.1941505431	 0.183302
H	 4.4828684184	 2.1309828719	 0.2143137023	 0.121684
H	 5.2634090815	 2.8438154535	-2.0016992366	 0.115459
H	 3.6406986228	 3.4832476637	-2.4097953039	 0.109531
H	 3.0582897863	 4.8490356765	 0.2957029858	 0.109525
H	 4.5936223398	 4.414430961	 1.1096127945	 0.115453
6.8917	60.6238	91.9363	110.863	182.1026	277.7713	336.2251	373.8216	463.8945	508.9359	547.4813	665.15	843.5978	890.2752	905.0536	934.8505	944.0219	1002.3906	1025.9201	1043.0746	1106.2827	1159.5563	1169.8093	1195.1705	1233.09	1237.9932	1305.4064	1332.7113	1350.6074	1383.0408	1447.4294	1510.1059	1535.577	2369.8758	2377.7363	3016.6782	3024.625	3026.8424	3054.3529	3064.3288	3076.5001	3086.5117
N#CCC#CC1COC1	N#CCC#CC1COC1	
InChI=1S/C7H7NO/c8-4-2-1-3-7-5-9-6-7/h7H,2,5-6H2	InChI=1S/C7H7NO/c8-4-2-1-3-7-5-9-6-7/h7H,2,5-6H2
