20
gdb 58208	2.70513	1.0926	0.81868	5.6914	75.6	-0.2752	0.0269	0.3022	1393.4284	0.168758	-440.297778	-440.287485	-440.286541	-440.333069	37.828	
C	 0.0664142628	 1.5468360409	-0.0126578858	-0.424908
C	-0.0253345412	 0.0247805186	 0.0709137599	 0.122201
O	 0.6828021949	-0.4333787986	 1.2402821733	-0.437386
C	-1.4700293009	-0.525405338	 0.0227756236	-0.033399
C	-2.212767238	-0.0322265929	-1.2284733542	-0.429103
C	-1.4568197349	-2.0823612454	 0.0807043384	-0.00229
O	-0.9044721168	-2.6089845787	 1.2640877178	-0.44023
C	-2.8273700873	-2.6189106259	-0.0280910906	 0.290868
N	-3.9045429844	-3.022086049	-0.1341081372	-0.329422
H	 1.1038212907	 1.8539862588	 0.1439716332	 0.134868
H	-0.2583015081	 1.9236553225	-0.9847051043	 0.136037
H	-0.5550094531	 2.0209989723	 0.757445411	 0.118188
H	 0.5375544383	-0.4145348867	-0.7627499934	 0.102602
H	 0.343741555	 0.0538548742	 2.0010463763	 0.290751
H	-2.0004810466	-0.1778411414	 0.9202384775	 0.090569
H	-2.3381616772	 1.0522262931	-1.2135109109	 0.127233
H	-1.6662219167	-0.2956123159	-2.1418183264	 0.122696
H	-3.2071027476	-0.4793043056	-1.2936204811	 0.157073
H	-0.9090465029	-2.4417950049	-0.8101541275	 0.107198
H	-0.111281386	-2.0758713274	 1.4411462505	 0.296456
55.3118	79.3728	148.8107	192.9236	225.7377	253.109	282.4569	323.9587	331.8846	354.3566	379.0316	391.2156	497.0916	509.9161	568.9036	611.3391	669.9506	827.0769	865.1078	926.6153	958.3708	978.0825	1053.0527	1073.9909	1082.53	1131.5701	1144.8192	1168.7199	1235.629	1292.9805	1321.2128	1326.2848	1357.8517	1383.4528	1404.2341	1415.6744	1420.3418	1486.1055	1493.0764	1494.4021	1500.5428	1513.4081	2363.7878	2933.7662	3016.4524	3028.8594	3037.6235	3042.4834	3107.8885	3113.9711	3131.4953	3138.4712	3640.6659	3790.1628
CC(O)C(C)C(O)C#N	C[C@@H](O)[C@@H](C)[C@@H](O)C#N	
InChI=1S/C6H11NO2/c1-4(5(2)8)6(9)3-7/h4-6,8-9H,1-2H3	InChI=1S/C6H11NO2/c1-4(5(2)8)6(9)3-7/h4-6,8-9H,1-2H3/t4-,5-,6+/m1/s1
