19
gdb 70871	2.74106	1.635	1.22078	0.5212	75.57	-0.2123	0.0702	0.2825	1073.0166	0.156733	-422.97168	-422.962974	-422.96203	-423.004154	34.256	
C	 0.0276203702	 1.398907158	-0.0502081497	-0.517219
C	 0.0112714523	-0.0887643218	 0.0133365247	 0.403648
O	 0.9143526924	-0.8542406556	-0.789865139	-0.359484
C	 0.1140950802	-2.0303866152	-0.4318779192	 0.419509
C	 0.1364665815	-3.1210283907	-1.4561586444	-0.501677
C	 0.4623109598	-2.2450844377	 1.0701232577	-0.336772
C	-0.2907360682	-0.9307750245	 1.2771818757	 0.293572
O	-0.7761209137	-0.3882945653	 2.448703418	-0.457074
C	-1.0903778352	-1.1041708813	-0.0031095161	-0.306422
H	 1.0230304034	 1.7846434378	 0.1981435606	 0.127278
H	-0.2360535062	 1.7600499649	-1.0490011207	 0.131456
H	-0.6891334056	 1.8066045914	 0.6685584149	 0.133515
H	 1.1576703095	-3.4973543118	-1.5807141904	 0.132041
H	-0.5018872405	-3.9536940341	-1.146165137	 0.12308
H	-0.2130778147	-2.750361192	-2.4238634469	 0.130721
H	-0.0888653671	-3.0866493563	 1.4986242692	 0.104058
H	 1.5276408591	-2.3061852077	 1.3174787881	 0.090819
H	-0.0558385954	 0.0757530071	 2.8906544073	 0.288835
H	-2.1472740219	-1.0757863851	-0.2311471427	 0.100116
183.3478	195.6285	200.5706	216.1586	233.9092	261.2982	303.9438	382.4781	443.0094	467.9229	524.4832	581.8571	642.1757	666.6881	755.2621	788.228	827.6736	871.8266	893.095	928.0307	979.6543	1009.3519	1038.9369	1057.1184	1106.7168	1126.1899	1131.3708	1174.2694	1182.6638	1237.5489	1298.1359	1338.0442	1372.7429	1410.5886	1415.4073	1455.8656	1477.67	1479.7968	1490.2644	1491.4899	1505.4156	3032.428	3036.9442	3040.6234	3095.6657	3106.3208	3109.0267	3117.6566	3119.4592	3206.1921	3786.5548
CC12OC3(C)CC1(O)C23	C[C@@]12O[C@@]3(C)C[C@]1(O)[C@@H]23	
InChI=1S/C7H10O2/c1-5-3-7(8)4(5)6(7,2)9-5/h4,8H,3H2,1-2H3	InChI=1S/C7H10O2/c1-5-3-7(8)4(5)6(7,2)9-5/h4,8H,3H2,1-2H3/t4-,5+,6+,7+/m1/s1
