13
gdb 133599	2.74339	1.37922	1.12363	2.671	52.23	-0.2808	0.0072	0.288	1028.1201	0.085932	-584.248475	-584.240748	-584.239804	-584.281725	27.598	
F	-0.0020339605	 0.1044658995	-0.1515811688	-0.078495
C	 0.0089055899	 1.436516988	 0.0041316782	 0.285741
F	 1.2787887034	 1.8391885997	 0.0459020971	-0.058153
F	-0.5604568823	 1.9729416596	-1.0894584955	-0.080352
C	-0.7494123162	 1.8546581198	 1.2465604672	-0.289445
C	-2.1420480236	 1.2201552426	 1.4397362316	-0.102017
O	-1.6789736297	 0.5737155275	 2.6654117357	-0.247155
C	-0.4144011415	 1.1039080541	 2.5265269276	 0.437927
N	 0.6144023298	 0.992341517	 3.2266345497	-0.526529
H	-0.705474663	 2.940744644	 1.3347954448	 0.142649
H	-2.9597504829	 1.9133003937	 1.6430808393	 0.133665
H	-2.4344197955	 0.4805245733	 0.6925040196	 0.144127
H	 0.4599513322	 0.3864343411	 4.0340178336	 0.238037
58.8421	116.9174	131.4494	243.4199	313.5053	372.5449	463.9691	516.3775	543.8701	592.8888	709.4107	748.4481	816.3004	871.9409	954.2676	968.1089	1002.8346	1010.2425	1083.3681	1154.8897	1163.641	1211.1521	1223.1934	1235.2512	1280.7179	1360.3728	1389.3027	1514.4537	1836.499	3081.2416	3120.4435	3144.7483	3485.0234
FC(F)(F)C1COC1=N	FC(F)(F)[C@H]1CO[C]1[NH]	
InChI=1S/C4H4F3NO/c5-4(6,7)2-1-9-3(2)8/h2,8H,1H2	InChI=1S/C4H4F3NO/c5-4(6,7)2-1-9-3(2)8/h2,8H,1H2/t2-/m0/s1
