18
gdb 77857	2.14681	1.56729	1.52085	1.9622	77.88	-0.2287	0.0331	0.2618	1026.0726	0.145661	-401.855303	-401.846271	-401.845327	-401.888638	34.061	
C	-0.5103170545	 1.4696168991	-0.0132475622	-0.421473
C	-0.0514932977	 0.023781997	 0.0023660348	 0.02838
C	 0.9647240396	-0.518976509	-1.0576593783	 0.060862
O	 1.6248671043	 0.3654553403	-1.9300356364	-0.416632
C	 1.8130652263	-0.9789542362	 0.1150774666	-0.048589
C	 2.1809567372	 0.1106010535	 1.0530747062	-0.195285
C	 2.5499708755	 1.462261074	 0.7282144275	 0.364401
C	 2.9612312269	 2.5827836634	 0.5797183353	-0.451371
N	 0.8139807192	-0.4680944704	 1.1471834713	-0.174507
H	 0.3045681513	 2.1611399475	-0.2218419151	 0.150211
H	-1.2842187715	 1.6026674095	-0.7781764136	 0.105965
H	-0.952130716	 1.7318066775	 0.9535624421	 0.128566
H	-0.9281611161	-0.6313912337	 0.0223064222	 0.085455
H	 0.5465257734	-1.3736793246	-1.6052168087	 0.078862
H	 1.0164895206	 0.6041044816	-2.6368655556	 0.286478
H	 2.273625597	-1.9582697757	 0.1995571547	 0.098881
H	 2.7546703851	-0.2603181332	 1.9018722755	 0.124313
H	 3.3032183497	 3.5731958495	 0.4075799139	 0.195483
98.6379	136.8617	169.2904	190.8242	211.787	248.41	284.3987	387.9441	434.5245	544.1517	559.5439	610.5623	638.8404	658.0155	727.9088	762.2804	787.8047	819.6746	889.8961	957.1489	970.058	1020.4993	1067.2444	1086.26	1107.8798	1164.8248	1181.8095	1205.6178	1245.6896	1287.0395	1314.12	1355.2463	1381.8366	1404.0795	1414.4134	1441.3813	1486.2897	1499.5286	2230.9996	3010.6477	3035.7839	3054.0757	3096.5178	3112.785	3160.9077	3163.9762	3503.0718	3816.7111
CC1C(O)C2C(C#C)N12	C[C@H]1[C@@H](O)[C@H]2[C@@H](C#C)N12	
InChI=1S/C7H9NO/c1-3-5-6-7(9)4(2)8(5)6/h1,4-7,9H,2H3	InChI=1S/C7H9NO/c1-3-5-6-7(9)4(2)8(5)6/h1,4-7,9H,2H3/t4-,5+,6+,7+,8?/m0/s1
