19
gdb 6166	3.47752	1.42251	1.29879	3.3264	73.22	-0.2433	0.0287	0.272	1044.3771	0.164346	-365.100246	-365.091126	-365.090182	-365.133495	33.999	
C	-0.338267721	 1.5095146595	 0.1257124352	-0.466553
C	-0.0270546476	 0.0284767439	 0.0272442047	 0.342552
C	-1.1920205103	-0.8200403422	-0.4501381765	-0.445052
C	 1.3524660556	-0.405512078	-0.3628974799	-0.318791
C	 0.891709351	-0.6369938481	 1.0634067035	-0.160335
C	 1.5409474613	 0.1578013829	 2.1518676303	 0.413919
N	 1.4383999966	-0.39844609	 3.399134186	-0.534422
O	 2.1367112868	 1.2063149192	 1.9661283432	-0.377614
H	 0.5117597551	 2.0719089084	 0.5127846421	 0.159015
H	-0.5997171071	 1.9022273347	-0.8638687151	 0.109168
H	-1.1963310415	 1.6853754888	 0.7856632506	 0.105942
H	-1.5200663689	-0.4969188612	-1.4450888754	 0.119443
H	-0.923187506	-1.8790880401	-0.5161159568	 0.109942
H	-2.0506103893	-0.7301463946	 0.2255070138	 0.114305
H	 1.4724168726	-1.2753374585	-1.0001365725	 0.106122
H	 2.1094137849	 0.3632009564	-0.474587853	 0.137415
H	 0.6186425615	-1.653111679	 1.3333271978	 0.071638
H	 0.8211839662	-1.1691237801	 3.5855853214	 0.255279
H	 1.7705896501	 0.146357318	 4.1782838106	 0.258028
71.9162	153.2485	183.4616	215.5114	222.993	253.4528	316.996	352.4927	374.102	419.3541	445.0238	566.0863	627.7083	676.1046	756.1579	820.9386	861.2618	927.0827	969.3898	974.6417	984.0205	1056.628	1077.6432	1089.4768	1110.0398	1129.1299	1152.2905	1262.1742	1309.7283	1345.9981	1410.8292	1425.198	1438.3144	1477.787	1486.1219	1491.7386	1510.3988	1513.0213	1616.3078	1775.0607	3020.9328	3026.7439	3077.7136	3083.7124	3097.9967	3130.5701	3143.5291	3147.9727	3224.339	3600.4099	3735.8764
CC1(C)CC1C(N)=O	CC1(C)C[C@H]1C(=O)N	
InChI=1S/C6H11NO/c1-6(2)3-4(6)5(7)8/h4H,3H2,1-2H3,(H2,7,8)	InChI=1S/C6H11NO/c1-6(2)3-4(6)5(7)8/h4H,3H2,1-2H3,(H2,7,8)/t4-/m0/s1
