12
gdb 133314	2.35629	1.90344	1.05353	6.8108	62.54	-0.2437	-0.0703	0.1734	1006.2581	0.076651	-513.906762	-513.899306	-513.898361	-513.938692	27.801	
N	 0.0167550082	 1.3849343194	 0.1508969915	-0.59284
C	 0.0073921541	 0.0192829913	 0.0507213169	 0.200769
C	-1.1280276368	-0.726192865	 0.0278538346	 0.047156
F	-2.3193332903	-0.1271062142	 0.0470293333	-0.062684
C	-1.1124655745	-2.1659934444	-0.0213744302	 0.373515
O	-2.0575471933	-2.904120089	-0.0472886168	-0.333225
O	 0.1733248182	-2.7333344389	-0.0480984686	-0.26666
N	 1.3401884471	-2.0084708008	-0.0303275193	-0.049713
C	 1.2422451048	-0.7258391458	 0.018428144	-0.004588
H	 0.8352732888	 1.8739525707	-0.1736522271	 0.270245
H	-0.8569664298	 1.8543483445	-0.0299429124	 0.277488
H	 2.1942451336	-0.2021227478	 0.0381422941	 0.140537
116.9549	177.2596	269.7462	288.8389	313.6821	362.6266	468.6431	492.1595	525.1015	538.0896	565.7312	671.3773	678.2765	738.3691	864.4645	898.3309	951.527	1017.9022	1057.9657	1238.4179	1316.2978	1365.262	1429.7174	1615.5682	1646.2569	1720.6524	1849.3219	3173.4243	3591.376	3702.7372
NC1=C(F)C(=O)ON=C1	Nc1c(F)c(=O)onc1	
InChI=1S/C4H3FN2O2/c5-3-2(6)1-7-9-4(3)8/h1H,6H2	InChI=1S/C4H3FN2O2/c5-3-2(6)1-7-9-4(3)8/h1H,6H2
