23
gdb 104188	2.39559	1.25697	1.19661	2.0122	81.02	-0.238	0.0677	0.3057	1225.2016	0.202877	-425.413148	-425.40258	-425.401636	-425.447862	39.849	
C	-0.4654743929	 1.5217005868	 0.216681938	-0.475231
C	-0.0992766485	 0.0519993476	 0.0319832964	 0.253214
C	-1.2975167265	-0.7263049992	-0.5140734729	-0.134061
O	-1.6676148881	-0.1315198009	-1.7529747967	-0.426895
C	 1.1736811062	-0.286083176	-0.7752551573	-0.112503
O	 1.6258530543	-1.2078617487	 0.2366841525	-0.327167
C	 0.6539348129	-0.6990193831	 1.1967902086	 0.357814
C	 1.3568966618	 0.2179740346	 2.1996427917	-0.426442
C	-0.0434143962	-1.8378660982	 1.9322986183	-0.440168
H	 0.3950688633	 2.1282682934	 0.5070996568	 0.111738
H	-0.867951394	 1.9229538148	-0.7164249362	 0.140579
H	-1.2370673964	 1.6399864768	 0.9869039309	 0.108826
H	-1.0223750727	-1.7791394935	-0.6631930254	 0.096754
H	-2.1314955066	-0.6925423579	 0.2055966363	 0.083946
H	-2.3783492212	-0.653469677	-2.1355603215	 0.288596
H	 1.0228501649	-0.7715797989	-1.7447099751	 0.106524
H	 1.8664874238	 0.5575365619	-0.9021658842	 0.088103
H	 1.9468470982	 0.9878038314	 1.697119107	 0.119189
H	 0.6396297519	 0.7114959695	 2.8638598607	 0.111995
H	 2.0397537431	-0.3764716039	 2.8145441693	 0.119409
H	 0.6900268663	-2.3783183447	 2.539660929	 0.122971
H	-0.8167817901	-1.453283467	 2.605854203	 0.114512
H	-0.4985883735	-2.5563387279	 1.2490095806	 0.118296
81.6885	132.5117	164.1575	196.9761	211.819	241.5919	246.6227	274.3242	323.1323	338.3343	351.6895	380.1845	393.3128	483.2819	530.1212	630.8405	706.5422	856.3305	865.8073	922.0943	938.6786	961.867	975.6574	1000.3416	1011.8069	1022.8507	1064.3711	1138.9257	1153.9132	1177.0819	1187.6984	1217.9149	1240.5025	1273.7338	1290.6914	1304.994	1360.1224	1398.1961	1404.9618	1413.9805	1452.8042	1470.0458	1483.3506	1487.1613	1499.0491	1501.407	1513.6191	1523.1678	1534.3839	2968.3239	3001.7575	3020.9982	3034.5106	3036.8806	3042.6468	3072.6178	3099.6142	3106.1632	3109.0576	3122.9885	3132.8883	3133.3334	3836.1085
CC1(CO)COC1(C)C	C[C@@]1(CO)COC1(C)C	
InChI=1S/C7H14O2/c1-6(2)7(3,4-8)5-9-6/h8H,4-5H2,1-3H3	InChI=1S/C7H14O2/c1-6(2)7(3,4-8)5-9-6/h8H,4-5H2,1-3H3/t7-/m1/s1
