19
gdb 47226	2.11441	1.99023	1.21934	2.6091	81.43	-0.2367	-0.0146	0.2221	1058.7648	0.161171	-385.905345	-385.897591	-385.896647	-385.937768	30.447	
O	-0.0179932357	 1.5650992837	 1.5539931835	-0.316922
C	 0.020972763	 1.5451428484	 0.3455683965	 0.358949
C	-1.2335691758	 1.5009643992	-0.5066448893	-0.295533
C	-1.7418930313	 2.9436561387	-0.7131939862	-0.252047
C	-0.7963615768	 3.9435289634	-1.3244432097	-0.046231
C	 0.5109211847	 3.8780497711	-1.5986225125	-0.069191
C	 1.4930138937	 2.7802089812	-1.4044093507	-0.062761
C	 2.3199339437	 2.6859277293	-0.1233602393	-0.290646
C	 1.3027459808	 1.6355486092	-0.4418151335	-0.124318
H	-1.0224299308	 1.036802383	-1.4752822934	 0.107279
H	-2.0036635536	 0.9224253812	 0.0107440179	 0.117754
H	-2.6539968997	 2.9133684308	-1.3236163381	 0.11082
H	-2.0610453272	 3.3283081925	 0.2660411025	 0.133179
H	-1.2847240056	 4.8885713657	-1.5598267529	 0.089779
H	 0.9525253828	 4.7670814654	-2.0489115665	 0.088833
H	 2.050363442	 2.542233286	-2.3085414307	 0.094435
H	 3.3729828394	 2.4426359966	-0.2094043149	 0.114696
H	 2.0739611251	 3.3727477572	 0.6790931273	 0.132762
H	 1.6542950014	 0.6633358375	-0.78188944	 0.109163
63.3232	163.3671	196.6678	280.4672	325.6308	372.5575	449.4163	499.0609	586.0783	646.6814	704.6653	746.5817	799.3629	813.8117	840.5792	858.2927	913.0312	934.828	999.2132	1012.7212	1023.198	1050.8635	1067.563	1083.0755	1115.2796	1126.8812	1137.2067	1206.6449	1218.6713	1231.5433	1284.0209	1336.6463	1378.5681	1382.3533	1409.4839	1439.3446	1470.2561	1483.0942	1489.8579	1726.948	1809.351	3009.0989	3034.0511	3053.1997	3108.6961	3111.0723	3117.9836	3129.4685	3137.7807	3140.1787	3227.2532
O=C1CCC=CC2CC12	O=C1CCC=C[C@H]2C[C@@H]12	
InChI=1S/C8H10O/c9-8-4-2-1-3-6-5-7(6)8/h1,3,6-7H,2,4-5H2	InChI=1S/C8H10O/c9-8-4-2-1-3-6-5-7(6)8/h1,3,6-7H,2,4-5H2/t6-,7+/m0/s1
