17
gdb 77302	2.82277	1.03547	0.89627	2.6907	69.66	-0.2573	-0.0377	0.2196	1302.2393	0.132824	-458.970276	-458.960911	-458.959967	-459.005939	32.645	
O	 0.5610182024	 0.834429535	 0.7713260508	-0.424649
C	 0.1872684597	-0.2842350688	 0.0298427831	 0.050439
C	-1.2836478208	-0.8549988929	 0.1025229997	-0.089653
C	-2.311441607	 0.2039118449	 0.5187925852	-0.2754
C	-3.7035871248	-0.3841198883	 0.5309562179	 0.153988
O	-4.5842755132	-0.0822704474	-0.2324856718	-0.235837
C	-1.2358705002	-1.111095942	-1.4414672468	-0.350145
C	-0.0700424212	-0.1133958356	-1.4695521055	 0.344647
O	 0.3065850226	 0.7265074412	-2.2372033318	-0.300413
H	 0.6021108603	 1.5828099684	 0.1624284652	 0.301879
H	 0.892774338	-1.1065585217	 0.2125999696	 0.113593
H	-1.3776340228	-1.751611295	 0.7191119367	 0.089515
H	-2.0599171112	 0.5607729191	 1.5253394055	 0.133455
H	-2.2997598375	 1.0596204384	-0.1637583525	 0.124006
H	-3.8642104798	-1.167438299	 1.3089182433	 0.076297
H	-0.9237591457	-2.1271108404	-1.6983734846	 0.136021
H	-2.1144108286	-0.8419976761	-2.0309901439	 0.152257
35.2478	70.3797	93.6427	158.4374	171.8313	239.5416	278.203	373.6124	414.1524	493.0008	546.9595	599.2044	728.019	758.0774	788.2915	869.3231	881.5199	923.4302	1003.4274	1046.0365	1065.3427	1079.5874	1115.0939	1163.8425	1185.3079	1205.1537	1231.1087	1264.0175	1287.8705	1329.8814	1377.2317	1401.3742	1427.4262	1447.9175	1468.6772	1833.0808	1878.5804	2855.3681	3016.6064	3035.8837	3070.2009	3083.089	3098.8731	3134.1562	3774.7858
OC1C(CC=O)CC1=O	O[C@H]1[C@@H](CC=O)CC1=O	
InChI=1S/C6H8O3/c7-2-1-4-3-5(8)6(4)9/h2,4,6,9H,1,3H2	InChI=1S/C6H8O3/c7-2-1-4-3-5(8)6(4)9/h2,4,6,9H,1,3H2/t4-,6-/m0/s1
