12
gdb 20473	6.58095	1.51489	1.34091	2.2238	56.48	-0.2865	-0.0419	0.2446	860.9316	0.084869	-414.628264	-414.622069	-414.621125	-414.659358	21.802	
C	 0.1954031635	 1.5055437244	 0.093659117	-0.168917
O	 1.1719134707	 0.4989337217	-0.1398731068	-0.212801
C	-0.181482705	 0.080282028	 0.035986379	-0.046345
C	-0.4863693155	-0.6850243666	 1.2577726629	 0.449966
N	-1.3241797119	-1.6741043789	 1.3721612257	-0.321879
C	-1.2137318921	-1.9742070085	 2.7074748496	 0.038104
N	-0.372432451	-1.237048543	 3.3781815784	-0.104089
O	 0.122850441	-0.3610125706	 2.4037201842	-0.196548
H	 0.2542616851	 1.9985871202	 1.0615083956	 0.142556
H	-0.0426433611	 2.1418268781	-0.7569151787	 0.133197
H	-0.6773830887	-0.3134569148	-0.8472763217	 0.133626
H	-1.771849145	-2.7643012301	 3.1882320549	 0.153129
63.8437	175.9697	183.1847	418.2575	437.3523	655.1842	674.822	775.1775	865.481	899.3266	916.2324	931.7896	980.2268	999.245	1026.199	1097.0314	1161.4064	1169.1719	1183.9924	1251.779	1275.8955	1351.0201	1385.9211	1516.3089	1523.2757	1625.0331	3094.8549	3159.2889	3192.0662	3263.8065
C1OC1C1=NC=NO1	C1O[C@H]1c1ncno1	
InChI=1S/C4H4N2O2/c1-3(7-1)4-5-2-6-8-4/h2-3H,1H2	InChI=1S/C4H4N2O2/c1-3(7-1)4-5-2-6-8-4/h2-3H,1H2/t3-/m1/s1
