16
gdb 10564	2.92704	1.59508	1.17074	2.681	62.77	-0.2572	-0.0357	0.2215	1040.676	0.127175	-420.844043	-420.835345	-420.8344	-420.87797	29.69	
C	 0.2036094957	 1.4755590667	 0.0471157398	-0.223606
O	 0.3457575051	 0.0746159194	 0.0889982891	-0.234502
C	 0.4927809488	-0.4985970048	-1.1873154322	-0.133918
C	 0.4906208412	-1.9954716632	-1.0257598803	 0.293019
C	 1.3664514786	-2.8550096521	-1.8542629962	-0.222065
O	 1.6775279388	-2.6023770222	-0.4969830453	-0.252147
C	-0.7774680379	-2.6336881913	-0.5347901311	 0.123676
O	-1.8637515362	-2.1231351349	-0.6086655792	-0.248193
H	 1.0856448339	 1.9618509176	-0.3988365446	 0.104504
H	-0.6855369275	 1.7769326417	-0.5278947445	 0.111448
H	 0.093618226	 1.8205436529	 1.0774696728	 0.133315
H	-0.3431974819	-0.2137557298	-1.8462606036	 0.109075
H	 1.4326606064	-0.1747745763	-1.6625100547	 0.092231
H	 1.058834357	-3.8733142972	-2.0900085033	 0.126423
H	 2.0102120315	-2.3777911619	-2.5918555116	 0.130035
H	-0.6153988098	-3.6484017645	-0.107336635	 0.090704
62.2814	93.613	134.293	157.7865	215.5239	251.7803	315.8765	352.5204	406.4114	487.3265	553.5261	809.5617	870.2452	888.8412	942.2613	1000.6997	1030.9442	1055.1862	1134.6556	1158.3469	1167.7447	1183.4314	1227.7667	1250.3779	1321.2011	1343.5809	1399.0847	1446.498	1475.9104	1485.8184	1491.4397	1515.3602	1524.031	1833.1396	2891.9979	2965.6758	2977.3463	3006.1825	3020.5078	3081.9276	3121.7257	3170.8372
COCC1(CO1)C=O	COC[C@]1(CO1)C=O	
InChI=1S/C5H8O3/c1-7-3-5(2-6)4-8-5/h2H,3-4H2,1H3	InChI=1S/C5H8O3/c1-7-3-5(2-6)4-8-5/h2H,3-4H2,1H3/t5-/m0/s1
