19
gdb 53939	2.48624	0.75671	0.66108	0.3201	77.03	-0.1794	0.0461	0.2255	1737.7755	0.155238	-456.410898	-456.398908	-456.397964	-456.451112	39.964	
C	-0.2773670459	 1.9373639783	 0.8463363744	-0.487265
C	-0.3950333439	 0.4605966512	 1.1301108807	 0.256208
C	 0.1601340245	 0.0336675366	 2.466137115	-0.485809
C	-0.9549302919	-0.4099160071	 0.2663513496	 0.221372
N	-1.291855489	-0.1158039838	-1.0741712405	-0.563672
N	-1.2971141042	-1.7419911205	 0.5515583087	-0.569523
H	-1.0471854094	-2.037435269	 1.4832065946	 0.238901
H	-0.9413929172	-2.3884797972	-0.1439483398	 0.252838
C	 0.3084271965	-1.7610307905	-2.9506497324	 0.591309
O	 0.2305398111	-2.6888857386	-2.2505972665	-0.305678
O	 0.4134226017	-0.8674226976	-3.6853340811	-0.296512
H	 0.7509853573	 2.2392962831	 0.5995110468	 0.115402
H	-0.9226099637	 2.2746802076	 0.02881089	 0.099758
H	-0.5643286664	 2.5228112369	 1.7303481385	 0.115682
H	-0.4986626894	 0.3043367709	 3.3042540263	 0.114921
H	 0.3467475664	-1.0431336699	 2.5296279095	 0.101919
H	 1.1210624097	 0.5292177338	 2.659113621	 0.114687
H	-2.2498523719	-0.3728684117	-1.2869254751	 0.241888
H	-1.1151009344	 0.8429083779	-1.3362952897	 0.243577
19.1451	29.847	61.0655	86.9581	115.1941	134.9607	156.6419	172.4613	298.6258	313.1741	376.6492	383.5399	399.5296	483.7084	524.5713	599.8216	657.2676	689.0005	717.6187	769.4951	801.975	952.3389	982.1939	1007.1599	1091.2765	1092.1528	1154.8649	1218.5927	1278.8098	1359.8062	1375.8184	1416.2882	1423.3228	1477.493	1489.2022	1496.7596	1505.1966	1626.9368	1637.2606	1759.125	2430.303	2992.4197	2997.7758	3034.3479	3037.5389	3082.9702	3085.528	3517.2368	3529.7473	3644.5349	3653.2622
CC(C)(C(N)=[NH2+])C([O-])=O	C[C](C)C(=[NH2])N.C(=O)=O	
InChI=1S/C5H10N2O2/c1-5(2,3(6)7)4(8)9/h1-2H3,(H3,6,7)(H,8,9)	InChI=1S/C4H10N2.CO2/c1-3(2)4(5)6;2-1-3/h5-6H2,1-2H3;
