25
gdb 60058	2.90824	0.92682	0.89504	2.0071	88.24	-0.2418	0.0644	0.3061	1499.0233	0.227269	-389.480721	-389.470154	-389.46921	-389.516242	39.544	
C	-0.1119927844	 1.6080123409	 0.080738707	-0.387048
C	 0.0487781591	 0.0813393747	 0.0511572615	 0.031339
C	 0.8725853407	-0.3967979178	 1.2552867125	-0.383167
C	-1.3348127032	-0.5925663427	-0.0352585871	-0.256219
C	-1.3735353278	-2.1201542426	-0.1632463646	 0.293486
C	-0.5259936695	-2.6554416293	-1.3185908086	-0.454304
C	-1.217865319	-2.9634465773	 1.1338838173	-0.112371
O	-2.4708747063	-3.6357999326	 0.9045363024	-0.276981
C	-2.8021597215	-2.7284281557	-0.1637815074	-0.113582
H	 0.8620619502	 2.1080276231	 0.0955567969	 0.109318
H	-0.662006571	 1.9698058304	-0.7943985746	 0.109596
H	-0.6621090734	 1.9275325334	 0.9740959686	 0.1124
H	 0.6076394336	-0.171833603	-0.8596982015	 0.076126
H	 0.3497868437	-0.1911117942	 2.1970102435	 0.112986
H	 1.0787464557	-1.4707697058	 1.2156948324	 0.117847
H	 1.8372824795	 0.1199515558	 1.2949497967	 0.110005
H	-1.9239305043	-0.3009127463	 0.8459129153	 0.090689
H	-1.8649878395	-0.1720645288	-0.9019763448	 0.091527
H	 0.5409018464	-2.4653229469	-1.1642294669	 0.119286
H	-0.6584485735	-3.7373711324	-1.4200487687	 0.12336
H	-0.8156177262	-2.1894096938	-2.2675921333	 0.112841
H	-0.3748208392	-3.6645528806	 1.1692782002	 0.096361
H	-1.2360742943	-2.3796698083	 2.0639814328	 0.09228
H	-3.5941561474	-2.0240436746	 0.1289481383	 0.088515
H	-3.1121431284	-3.2554262955	-1.0747206579	 0.095708
63.9145	91.3882	106.0656	166.1958	225.223	245.3296	265.1048	286.0593	308.073	346.9723	366.3146	408.132	435.006	457.4612	698.9918	812.5014	844.615	869.6176	917.237	925.0925	931.8533	942.4765	964.8813	985.8316	994.7299	1015.3597	1037.8023	1083.1236	1120.1422	1161.675	1171.7553	1186.3486	1194.5965	1224.9141	1279.3433	1310.2541	1315.3539	1326.0625	1369.0024	1380.1349	1388.044	1400.3129	1413.6287	1421.61	1476.8022	1486.9524	1490.5752	1495.9415	1499.8148	1504.4135	1508.5265	1514.6782	1536.0504	2988.1496	2995.5787	3006.2074	3009.9593	3022.2354	3027.446	3028.2368	3034.961	3045.6241	3050.3616	3086.9731	3093.4493	3094.5853	3098.2134	3101.3808	3103.7572
CC(C)CC1(C)COC1	CC(C)CC1(C)COC1	
InChI=1S/C8H16O/c1-7(2)4-8(3)5-9-6-8/h7H,4-6H2,1-3H3	InChI=1S/C8H16O/c1-7(2)4-8(3)5-9-6-8/h7H,4-6H2,1-3H3
