16
gdb 49467	3.73814	1.13753	1.04408	1.6542	76.96	-0.2472	-0.046	0.2013	1159.3909	0.122715	-400.665264	-400.657054	-400.65611	-400.69826	30.526	
O	-0.496386608	 0.4964753423	 0.7401087561	-0.268214
C	 0.0207396232	 1.1695524116	-0.1222018889	 0.142282
C	 1.2701971471	 1.9683887814	-0.0011133361	-0.099852
C	 1.6091990856	 2.8416827902	 1.1668014758	-0.052601
C	 1.1270311691	 2.2658347267	 2.5121218819	-0.209944
C	 2.0015853137	 1.0244216895	 2.1398371265	-0.174216
N	 2.4578603537	 1.657759733	 0.8478311232	-0.143239
C	 1.5536422743	 3.0131481822	 3.6770646304	 0.295259
C	 1.9176260912	 3.6349579317	 4.6394550522	-0.416994
H	-0.4439573644	 1.2475538088	-1.1302906276	 0.091659
H	 1.6016343855	 2.3686435968	-0.9563120911	 0.112233
H	 1.9454136759	 3.8623992549	 1.0134427626	 0.117288
H	 0.0544616267	 2.0615907366	 2.554182436	 0.132944
H	 2.8716147644	 0.9147709557	 2.7871810117	 0.132492
H	 1.4777435674	 0.0771121714	 2.0284807453	 0.142638
H	 2.2315284049	 4.1809586273	 5.494414332	 0.198265
97.1571	104.3611	147.2649	214.7232	248.2993	356.2822	378.1841	484.7962	517.249	622.8813	642.0201	693.9581	731.2064	762.1116	834.4607	864.6336	898.8656	923.837	1008.1993	1040.0927	1050.0869	1070.9645	1080.3642	1105.3966	1184.7918	1225.481	1233.6764	1273.9546	1301.2957	1361.0155	1405.9699	1436.5067	1482.4178	1799.1756	2238.7093	2883.8012	3080.1302	3098.5188	3143.7784	3165.8758	3169.3582	3503.9837
O=CC1C2C(CN12)C#C	O=C[C@H]1[C@H]2[C@@H](CN12)C#C	
InChI=1S/C7H7NO/c1-2-5-3-8-6(4-9)7(5)8/h1,4-7H,3H2	InChI=1S/C7H7NO/c1-2-5-3-8-6(4-9)7(5)8/h1,4-7H,3H2/t5-,6+,7-,8?/m1/s1
