12
gdb 21451	6.02789	1.49216	1.19608	4.3025	59.18	-0.2323	-0.0364	0.196	909.9254	0.08514	-410.815982	-410.809406	-410.808462	-410.847069	23.775	
N	 0.1878402501	 1.280392057	 0.0042741886	-0.459399
C	 0.0450048504	 0.0137205656	 0.0011663287	 0.079218
N	-1.1913562347	-0.5794819725	 0.0112631487	-0.38303
C	-2.394021989	 0.1005431672	 0.0253371095	 0.352213
C	-2.7141233914	 1.4243769456	 0.033274106	-0.027457
O	-4.0530459603	 1.507293129	 0.0469066101	-0.157351
N	-4.5551945237	 0.1990264321	 0.0457975345	-0.000581
N	-3.5745273095	-0.6014519814	 0.0342383275	-0.209826
H	 1.1736295122	 1.5277225253	-0.0045059177	 0.231459
H	 0.8513740022	-0.7266315418	-0.0093661672	 0.10591
H	-1.257530303	-1.5839105191	 0.0080769464	 0.272906
H	-2.1309921634	 2.3248605529	 0.031056315	 0.195938
87.4228	188.6905	207.6691	362.6296	376.2567	458.5374	612.345	643.3178	719.5681	743.0729	801.6383	817.0473	832.816	993.4652	1039.2411	1051.2511	1109.5312	1127.237	1230.5051	1257.5264	1331.4316	1406.6161	1424.9978	1563.0891	1659.7931	1721.1598	3072.3594	3342.5264	3529.9952	3660.3427
N=CNC1=CON=N1	N=CNc1conn1	
InChI=1S/C3H4N4O/c4-2-5-3-1-8-7-6-3/h1-2H,(H2,4,5)	InChI=1S/C3H4N4O/c4-2-5-3-1-8-7-6-3/h1-2H,(H2,4,5)
