14
gdb 20680	3.8446	1.99186	1.32293	4.6474	69.27	-0.2272	-0.0435	0.1837	880.9999	0.109051	-374.91477	-374.907616	-374.906672	-374.946655	25.904	
C	-0.0273901551	 1.4832042744	 0.0438651111	-0.485109
C	 0.0007562483	-0.0156648012	-0.0611687593	 0.417919
N	-0.0321569167	-0.6014944805	-1.2083363824	-0.324004
C	-0.003107785	-2.0049369863	-1.2350703003	 0.304503
N	-0.0336563279	-2.6127315496	-2.3625569487	-0.504339
C	 0.0624296854	-2.6666794553	 0.0797777317	-0.0352
N	 0.0939843421	-2.0507344018	 1.2100192828	-0.167675
N	 0.0624664374	-0.6962450046	 1.126638242	-0.274701
H	 0.8699782709	 1.8578287882	 0.5485042736	 0.143678
H	-0.0753703597	 1.9016979019	-0.9602834432	 0.171055
H	-0.89825511	 1.8197910165	 0.6170915205	 0.14372
H	-0.0058965219	-3.6229513355	-2.2122173683	 0.209127
H	 0.0871726199	-3.7525524129	 0.1317289897	 0.125444
H	 0.0869670022	-0.2211278132	 2.0137792809	 0.275582
76.7675	87.7369	204.4745	311.6426	399.4543	474.5424	518.5498	553.454	575.2347	614.5847	733.9404	774.1674	857.7687	928.1565	940.2404	991.6527	1040.2766	1060.7313	1123.571	1145.5311	1282.8149	1355.3769	1389.4756	1403.4567	1458.8955	1481.993	1495.4352	1640.4304	1676.0392	1694.0892	3039.9222	3097.3625	3162.6203	3170.0358	3457.1005	3650.2204
CC1=NC(=N)C=NN1	C[C@@H]1N=C([NH])C=NN1	
InChI=1S/C4H6N4/c1-3-7-4(5)2-6-8-3/h2H,1H3,(H2,5,7,8)	InChI=1S/C4H7N4/c1-3-7-4(5)2-6-8-3/h2-3,5,8H,1H3/t3-/m1/s1
