20
gdb 100708	2.85552	1.00514	0.78174	2.8181	71.74	-0.2444	0.0268	0.2712	1436.3826	0.169661	-477.452743	-477.442469	-477.441524	-477.488664	37.989	
C	-0.1209333346	 1.7810947229	 0.5673136667	-0.401438
C	-0.0769279886	 0.3174437468	 0.1044850266	-0.127118
C	 0.7963901134	-0.565846749	 1.0161920404	 0.062204
O	 1.0230637356	-1.8784268036	 0.4518489585	-0.440698
C	 2.1683968235	 0.0286748401	 1.3523478312	-0.063734
O	 2.9270826556	-0.8683967789	 2.1312480903	-0.422417
C	-1.5285247249	-0.1993754858	-0.0814135889	 0.40278
N	-1.6891300895	-1.5483943236	-0.0751205345	-0.53
O	-2.4576563094	 0.568373975	-0.2527773236	-0.367911
H	 0.8455807627	 2.2730854906	 0.4358434409	 0.113917
H	-0.8764884173	 2.3144862947	-0.0091657529	 0.15251
H	-0.4035439735	 1.8509321915	 1.6230757194	 0.124443
H	 0.3757722892	 0.292048853	-0.900604262	 0.091472
H	 0.2706550495	-0.769939136	 1.955766889	 0.11332
H	 1.4173755981	-1.7523164357	-0.4209839867	 0.287366
H	 2.6863556442	 0.2899738915	 0.4095582052	 0.074635
H	 2.0611130615	 0.9491082328	 1.9314073809	 0.121808
H	 2.77305475	-1.7428471626	 1.7517722664	 0.284965
H	-0.9096259242	-2.1682867414	 0.0843683053	 0.268112
H	-2.6221437412	-1.9068471722	-0.1949015721	 0.255786
25.6915	81.806	140.123	181.701	232.2024	284.9089	305.0549	317.5696	343.9297	379.5887	397.167	440.253	496.4884	515.6066	551.6511	612.4883	664.4543	759.2878	814.5006	854.3888	930.3442	1029.4735	1049.0165	1077.0289	1094.1558	1100.2383	1134.1387	1154.659	1209.9651	1235.0044	1284.0977	1306.6877	1354.3699	1364.9	1377.6335	1406.543	1418.7208	1445.0895	1494.7823	1501.7532	1509.8395	1611.6245	1786.5918	2922.8402	2974.9643	3048.3271	3061.9066	3100.6627	3116.9152	3156.5047	3557.8833	3710.2908	3770.8421	3775.8461
CC(C(O)CO)C(N)=O	C[C@@H]([C@@H](O)CO)C(=O)N	
InChI=1S/C5H11NO3/c1-3(5(6)9)4(8)2-7/h3-4,7-8H,2H2,1H3,(H2,6,9)	InChI=1S/C5H11NO3/c1-3(5(6)9)4(8)2-7/h3-4,7-8H,2H2,1H3,(H2,6,9)/t3-,4-/m0/s1
