20
gdb 89823	3.09079	1.25378	0.99341	3.6029	80.5	-0.2315	0.0353	0.2668	1242.1228	0.171578	-403.190645	-403.181986	-403.181042	-403.223914	33.543	
C	-0.0819125364	 1.5729918275	-0.0142670891	-0.401716
C	 0.1109533112	 0.0597772945	-0.0147368652	-0.103332
C	 0.8461373826	-0.5394904952	-1.230163169	-0.293857
C	 1.557521129	-1.7671523281	-0.6630632715	 0.390492
C	 1.234396806	-3.1762982616	-1.0963134102	-0.316179
C	 2.5831619138	-2.5532919898	-1.4175840115	-0.330245
N	 1.7394059962	-1.4440428865	 0.7268589493	-0.372521
C	 0.9444069747	-0.4279514412	 1.1836569017	 0.411974
O	 0.9037464355	-0.006404447	 2.3195712977	-0.390605
H	 0.8698739952	 2.0890381445	-0.1802278285	 0.11792
H	-0.7789779379	 1.8858126664	-0.7975349659	 0.109997
H	-0.4724750176	 1.8959068496	 0.9540908731	 0.14195
H	-0.8690454374	-0.4257582104	 0.0950681293	 0.102593
H	 0.1841833368	-0.7921429834	-2.0614533817	 0.106755
H	 1.5896852397	 0.1780363365	-1.5982422627	 0.109722
H	 1.2061965371	-3.9485703421	-0.3345861342	 0.114986
H	 0.5267949943	-3.318917679	-1.9065601297	 0.117871
H	 2.7914854135	-2.2690323875	-2.4441476718	 0.120853
H	 3.4503648696	-2.9182720007	-0.8761684037	 0.114979
H	 2.3127777341	-1.9790699864	 1.3598750036	 0.248364
84.1561	96.5538	206.6748	231.5928	268.1104	296.3521	363.8597	452.9542	464.6154	502.59	516.0967	597.7051	702.0613	767.5771	784.0892	801.4971	874.0143	917.8399	925.7774	955.9051	963.5311	988.9523	1054.8874	1065.0808	1075.8424	1133.6367	1136.0579	1186.8829	1189.8598	1250.2884	1280.1609	1299.2715	1312.8115	1332.957	1369.2454	1408.6533	1444.4825	1460.3942	1491.4513	1496.9876	1499.7622	1509.7992	1825.5356	3011.3104	3033.2696	3038.85	3101.6246	3105.6531	3123.1382	3124.9182	3127.5358	3203.0244	3219.0699	3639.0426
CC1CC2(CC2)NC1=O	C[C@H]1CC2(CC2)NC1=O	
InChI=1S/C7H11NO/c1-5-4-7(2-3-7)8-6(5)9/h5H,2-4H2,1H3,(H,8,9)	InChI=1S/C7H11NO/c1-5-4-7(2-3-7)8-6(5)9/h5H,2-4H2,1H3,(H,8,9)/t5-/m0/s1
