20
gdb 128200	2.52144	1.31949	0.88167	3.1707	84.77	-0.1931	0.0463	0.2394	1352.4054	0.171134	-399.352736	-399.342805	-399.34186	-399.387788	35.337	
C	 0.078889724	 1.4193710838	-0.0016885962	-0.322089
N	 0.0372808134	-0.0327538316	 0.0782775708	-0.398939
C	-1.2182373986	-0.62788892	 0.0261252683	 0.449573
C	-2.4961449731	-0.0952958472	 0.0231699365	-0.403142
C	-3.3537460636	-1.2231491272	 0.0308831569	 0.364211
C	-4.8501677905	-1.2443932812	 0.0330708949	-0.490735
N	-2.6679164843	-2.3601869521	 0.0319222373	-0.339665
N	-1.356952382	-1.9804068404	 0.0430082683	-0.032375
C	-0.3094108909	-2.9706558031	 0.0533172763	-0.339572
H	 1.119241342	 1.7484571454	 0.0516366681	 0.124554
H	-0.37326378	 1.8233613454	-0.920614532	 0.117017
H	-0.4554887521	 1.8442730213	 0.8532346153	 0.141524
H	 0.7109731694	-0.4736140937	-0.5341328517	 0.23746
H	-2.7697474442	 0.9466810576	 0.0119550729	 0.089864
H	-5.2613293384	-0.7326804724	-0.844515028	 0.121541
H	-5.2059187804	-2.277003831	 0.0273058904	 0.134695
H	-5.2576089464	-0.7437682587	 0.9187725055	 0.122503
H	 0.1490400604	-3.1004840813	-0.9363021218	 0.1241
H	 0.4691408645	-2.6876425253	 0.7688790033	 0.138925
H	-0.7550078989	-3.9179366582	 0.3563079549	 0.16055
78.537	106.0077	114.6248	168.5785	173.8156	178.6513	235.6114	265.965	341.8968	364.6536	524.8602	550.965	644.5817	650.3738	674.0115	707.7202	748.3671	844.623	990.0349	1020.2363	1061.023	1063.8097	1079.4825	1144.5418	1149.6913	1157.6387	1199.8194	1228.6095	1309.9261	1398.3617	1418.8613	1441.5305	1454.1823	1455.7473	1483.3932	1483.9341	1489.8852	1491.6484	1507.3959	1512.0014	1521.3513	1566.5966	1611.9831	2985.5422	3011.0008	3030.6018	3078.26	3079.7329	3080.9857	3123.4255	3129.027	3157.172	3265.814	3562.0334
CNC1=CC(C)=NN1C	CNc1cc(C)nn1C	
InChI=1S/C6H11N3/c1-5-4-6(7-2)9(3)8-5/h4,7H,1-3H3	InChI=1S/C6H11N3/c1-5-4-6(7-2)9(3)8-5/h4,7H,1-3H3
