15
gdb 61708	2.31609	1.18973	0.98881	3.6287	69.14	-0.2555	-0.0549	0.2006	1217.8507	0.106464	-457.730513	-457.720449	-457.719505	-457.766147	34.666	
O	 0.0178961197	 1.3701128476	 0.2624521502	-0.448531
C	-0.0028680958	-0.0253901519	-0.0296966301	 0.061557
C	 0.4354928021	-0.8741083794	 1.1796550272	-0.318136
C	-0.1837248777	-0.3707125559	 2.4717236467	 0.160281
O	 0.437431476	-0.2138098946	 3.4893818806	-0.23932
C	-1.4776761798	-0.3046629177	-0.4150358146	 0.157163
O	-2.0736590326	-1.3013323838	-0.117290356	-0.238893
C	 0.7952087734	-0.3367649414	-1.2173463629	 0.290752
C	 1.4448758014	-0.5773601227	-2.2000584543	-0.432274
H	 0.9311214979	 1.6754476125	 0.2224582728	 0.299241
H	 0.0981122625	-1.9043177501	 1.0119530354	 0.156873
H	 1.5226343401	-0.87313228	 1.2853333387	 0.127437
H	-1.2760466971	-0.1737320037	 2.4255045184	 0.091434
H	-1.9212614377	 0.5200424	-1.0081977561	 0.117244
H	 2.0222019878	-0.793799069	-3.065805346	 0.215172
64.0172	83.5042	92.1308	135.9074	171.9488	213.3421	253.259	265.6098	356.8636	431.8385	444.2907	479.1348	563.888	614.9589	647.8159	677.6379	739.2551	847.0805	943.8337	951.9136	1027.4495	1079.8633	1132.1936	1146.3303	1214.1913	1300.5377	1350.0329	1390.9925	1433.5808	1444.1222	1838.1064	1842.705	2226.5082	2907.3867	2943.5707	3049.1174	3119.4761	3495.8051	3811.9353
OC(CC=O)(C=O)C#C	O[C@@](CC=O)(C=O)C#C	
InChI=1S/C6H6O3/c1-2-6(9,5-8)3-4-7/h1,4-5,9H,3H2	InChI=1S/C6H6O3/c1-2-6(9,5-8)3-4-7/h1,4-5,9H,3H2/t6-/m0/s1
