15
gdb 61139	5.08333	0.5948	0.54382	2.3748	80.54	-0.2719	-0.0714	0.2005	1899.1287	0.108161	-420.557501	-420.547314	-420.54637	-420.594295	34.337	
O	-0.0824719535	 1.4544878456	 0.0161246818	-0.396783
C	-0.0053571044	 0.0425000702	 0.0166060404	-0.074592
C	 0.6585156655	-0.5227055334	-1.2719010884	-0.373344
C	-0.0382112014	-0.1107837273	-2.4810096028	 0.309962
C	-0.6253941825	 0.2217112256	-3.4746202524	-0.432603
C	 0.6809177395	-0.4801481227	 1.2012484331	 0.088667
C	 1.2782405917	-0.9099378334	 2.1597222833	 0.051044
C	 1.9821662869	-1.3886799241	 3.3234533517	 0.020557
O	 2.1487650501	-2.5567524572	 3.5868842394	-0.223733
H	 0.8142861805	 1.8056700404	 0.0614874615	 0.289096
H	-1.0469044643	-0.2982545391	 0.036282529	 0.146714
H	 1.7042380988	-0.1899298925	-1.2992854767	 0.134966
H	 0.6850138612	-1.6162182107	-1.1980067661	 0.153055
H	-1.1400523194	 0.5171358283	-4.3552577911	 0.202178
H	 2.3715575312	-0.5836812598	 3.9789466873	 0.104816
41.3099	54.2618	71.9837	122.8782	162.3401	211.8169	261.2376	300.5958	340.9582	365.5927	439.98	545.3348	554.3874	627.0298	649.402	655.8744	836.2288	870.1065	969.7234	1008.9256	1020.7466	1081.2554	1137.6417	1194.1878	1269.2739	1314.8481	1347.8999	1418.2218	1421.4947	1464.5455	1770.0448	2244.8495	2321.6414	2923.7483	3025.3326	3053.9137	3070.2416	3506.2328	3801.1065
OC(CC#C)C#CC=O	O[C@@H](CC#C)C#CC=O	
InChI=1S/C7H6O2/c1-2-4-7(9)5-3-6-8/h1,6-7,9H,4H2	InChI=1S/C7H6O2/c1-2-4-7(9)5-3-6-8/h1,6-7,9H,4H2/t7-/m0/s1
