17
gdb 117616	2.17796	1.08566	0.91284	3.6008	75.05	-0.2711	-0.0002	0.2708	1340.1545	0.133402	-417.961012	-417.950676	-417.949732	-417.996442	36.844	
N	-0.0545270579	 1.5354399877	-0.0114943698	-0.511122
C	 0.0078918449	 0.0612508106	-0.0333456963	-0.134955
C	 0.6856248018	-0.3971048168	-1.3556888465	-0.211916
C	-0.0055170235	 0.1073694852	-2.6286048485	-0.085514
O	 0.6940522517	-0.3112463918	-3.7884860925	-0.415195
C	 0.7374421946	-0.5065421768	 1.1155330544	 0.322797
C	 1.3703607386	-0.9241897608	 2.0475328619	-0.428752
C	-1.3852686052	-0.4446984449	 0.0055844722	 0.324053
N	-2.4662576095	-0.8501905892	 0.0337309231	-0.341669
H	-0.4851003406	 1.8429161565	 0.8563265588	 0.250427
H	 0.8988524489	 1.889699326	-0.0018218599	 0.244406
H	 1.7211179051	-0.0409400119	-1.337166535	 0.122301
H	 0.7244470206	-1.4916573377	-1.3559157225	 0.118914
H	-1.0548650831	-0.2195424173	-2.6456287466	 0.115711
H	-0.0059417735	 1.1989086531	-2.64569605	 0.135338
H	 0.5700725753	-1.2606513628	-3.8864027454	 0.285231
H	 1.9187412517	-1.2998711891	 2.8765817325	 0.209944
74.609	97.8872	114.8762	132.4883	187.7828	226.2455	262.2174	291.8811	306.9295	364.1904	406.0509	478.3177	508.3563	578.9277	621.3592	653.2981	668.0866	731.0722	787.8327	880.4555	977.1358	1008.5435	1042.9389	1073.2646	1084.5158	1135.2906	1202.4061	1295.2754	1318.2216	1345.9032	1400.2307	1416.5883	1478.9215	1514.2252	1655.4235	2232.0832	2363.2989	3011.7071	3047.7279	3090.2187	3120.2627	3486.0514	3497.843	3568.4942	3817.0834
NC(CCO)(C#C)C#N	N[C@@](CCO)(C#C)C#N	
InChI=1S/C6H8N2O/c1-2-6(8,5-7)3-4-9/h1,9H,3-4,8H2	InChI=1S/C6H8N2O/c1-2-6(8,5-7)3-4-9/h1,9H,3-4,8H2/t6-/m1/s1
