14
gdb 5185	5.75014	1.44959	1.15773	3.3107	66.52	-0.1988	0.0163	0.2151	965.6104	0.109305	-378.74518	-378.738302	-378.737357	-378.77643	25.742	
N	 0.1995654507	 1.289842742	 0.0039328849	-0.459315
C	 0.0518790238	 0.021871162	 0.0011871178	 0.075744
N	-1.1745079105	-0.5853217174	 0.0108077962	-0.389665
C	-2.413908713	 0.0536263895	 0.0253711845	 0.303691
C	-2.699240484	 1.3893030427	 0.0325776943	-0.068581
O	-4.055179475	 1.5643142328	 0.0466740007	-0.147594
C	-4.6244091179	 0.3383130801	 0.048345447	 0.021874
C	-3.6764679559	-0.6329227905	 0.035655379	-0.305981
H	 1.188299629	 1.5269444863	-0.0047648384	 0.222126
H	 0.8642336286	-0.7143328678	-0.0089461728	 0.088596
H	-1.1873824465	-1.590368994	 0.0087219429	 0.253227
H	-2.0841669745	 2.2674026991	 0.0293158394	 0.167525
H	-5.7014992019	 0.3152978669	 0.0590319644	 0.135278
H	-3.841085313	-1.6996595218	 0.0337541103	 0.103075
85.8749	193.8992	199.0991	349.989	353.0458	438.7432	588.832	614.4538	652.0789	722.4424	774.4531	799.7493	803.0318	820.0034	889.1525	994.2666	1031.9342	1053.7522	1087.5576	1126.5426	1207.5394	1233.0981	1265.362	1288.7191	1402.6772	1413.3586	1526.1487	1582.3477	1648.8092	1720.6085	3049.0526	3246.0933	3283.5576	3343.1931	3520.7119	3669.1057
N=CNC1=COC=C1	N=CNc1cocc1	
InChI=1S/C5H6N2O/c6-4-7-5-1-2-8-3-5/h1-4H,(H2,6,7)	InChI=1S/C5H6N2O/c6-4-7-5-1-2-8-3-5/h1-4H,(H2,6,7)
