16
gdb 96617	2.76873	1.21784	0.85064	5.7682	70.39	-0.2448	-0.083	0.1618	1296.3528	0.122502	-471.251739	-471.241888	-471.240944	-471.287476	34.701	
C	-0.8361130361	 1.1486943609	 0.3718203822	-0.355444
N	-0.4779289558	-0.2525353116	 0.260772947	-0.309604
C	 0.6074941215	-0.6385576823	 0.8303640244	 0.317724
N	 1.490044596	 0.1231074384	 1.5261381135	-0.538793
C	 1.0542274631	-2.1000981518	 0.7631811877	 0.252803
O	 2.053315117	-2.4152190781	 1.3632884247	-0.284362
C	 0.2931537571	-3.2066083949	-0.0363752718	 0.329436
N	-0.8341572263	-2.8046456002	-0.6574626095	-0.53613
O	 0.7526784149	-4.3279781295	-0.0465320143	-0.337754
H	-0.0565680628	 1.8056051269	-0.0438993216	 0.125394
H	-1.7625392308	 1.3356438692	-0.1747357277	 0.134509
H	-0.9990412476	 1.4510598306	 1.4186808894	 0.12032
H	 1.2662168325	 1.060589387	 1.8059124743	 0.265878
H	 2.237984122	-0.3679816443	 1.9913667425	 0.281102
H	-1.1199670714	-1.8300777106	-0.5735111873	 0.277706
H	-1.3548838233	-3.4887575298	-1.1826096634	 0.257215
28.6166	64.5535	148.2641	183.6708	202.6189	229.9583	291.465	340.5513	380.5761	386.5708	432.7386	498.4499	553.6275	576.2724	652.029	673.2417	737.9138	761.4683	846.3118	990.4545	1067.1151	1103.6539	1109.5177	1161.2715	1205.0907	1331.4208	1371.6663	1434.1268	1491.6028	1500.6795	1592.3639	1597.9944	1714.437	1794.9093	1815.0831	2971.1831	3018.5986	3114.9594	3392.2744	3595.3144	3670.7905	3738.5447
CN=C(N)C(=O)C(N)=O	CN=C(N)C(=O)C(=O)N	
InChI=1S/C4H7N3O2/c1-7-3(5)2(8)4(6)9/h1H3,(H2,5,7)(H2,6,9)	InChI=1S/C4H7N3O2/c1-7-3(5)2(8)4(6)9/h1H3,(H2,5,7)(H2,6,9)
