15
gdb 46456	3.97878	1.19165	1.07105	3.7831	73.13	-0.2347	0.005	0.2397	1107.6537	0.113458	-416.785702	-416.777952	-416.777008	-416.81791	29.697	
O	 0.0128331802	-0.0443830784	 0.0011565365	-0.38273
C	 0.010141527	 1.1653971825	 0.023958799	 0.478809
N	-1.083624583	 1.9817559379	 0.1456388652	-0.333707
C	-0.8419965802	 3.4089687257	 0.0252308314	-0.219581
C	 0.6840414571	 3.4900300401	-0.0928875338	 0.184503
N	 1.3473900816	 2.9393405966	 1.1147141695	-0.359143
C	 1.2062139107	 2.0886308153	-0.086957614	-0.246409
C	 1.2882333642	 4.5572591577	-0.8266236747	 0.170873
C	 1.7833094982	 5.4731654553	-1.4289256394	-0.374366
H	-1.9939082309	 1.5904806831	 0.32528544	 0.257574
H	-1.3154289014	 3.8278165312	-0.8706843014	 0.123992
H	-1.1942560165	 3.9623650732	 0.9028140324	 0.129899
H	 2.3010740894	 3.2972609231	 1.1452497302	 0.246403
H	 2.0777168156	 1.7703695642	-0.6442624979	 0.125499
H	 2.2254507679	 6.2757110925	-1.9661413331	 0.198383
104.578	146.9165	161.0945	283.1291	372.4181	418.5418	469.226	501.9273	532.4238	563.8695	602.7411	652.1597	677.4043	718.5685	793.9444	843.7258	880.2387	948.4874	1008.2689	1044.4898	1051.3922	1084.4879	1136.866	1220.853	1236.8409	1271.7075	1320.8623	1354.6457	1406.1154	1452.6834	1515.7073	1837.9999	2239.5035	3027.6201	3069.2682	3210.3439	3487.5124	3500.7058	3653.2032
O=C1NCC2(NC12)C#C	O=C1NC[C@]2(N[C@@H]12)C#C	
InChI=1S/C6H6N2O/c1-2-6-3-7-5(9)4(6)8-6/h1,4,8H,3H2,(H,7,9)	InChI=1S/C6H6N2O/c1-2-6-3-7-5(9)4(6)8-6/h1,4,8H,3H2,(H,7,9)/t4-,6+/m0/s1
