15
gdb 39189	2.43074	1.80011	1.61971	1.5471	66.65	-0.2348	-0.0301	0.2047	900.3277	0.113268	-457.74945	-457.742388	-457.741444	-457.781106	26.942	
C	 0.1943548964	 1.4415035587	-0.0412622568	-0.074727
O	 1.4172998282	 2.0615540923	-0.4503458959	-0.238797
C	 2.3579240342	 1.4746350197	-1.227191082	 0.071661
C	 2.6079217858	 0.1776214406	-1.4527620609	-0.139481
O	 2.0703744325	-0.8863119112	 1.6950910391	-0.284729
C	 1.5449371023	-0.6609394038	 0.6527578979	 0.394315
C	 0.2016782321	-0.0646626513	 0.1803336885	-0.064789
O	 0.378503306	-0.7699447794	-1.0664005843	-0.289991
C	 1.8182680127	-0.934190863	-0.8464130971	-0.094771
H	-0.0869375439	 1.9574420343	 0.881421255	 0.132809
H	-0.5639812717	 1.6453611781	-0.8076818196	 0.13406
H	 2.9876001235	 2.2433760459	-1.6651377771	 0.127015
H	 3.4534787827	-0.0603253567	-2.0863167277	 0.105984
H	-0.7063870918	-0.3644577025	 0.7153022443	 0.11403
H	 2.1690087509	-1.9278008818	-1.1329418534	 0.10741
100.0858	150.2784	207.1394	327.6402	407.2055	439.2802	470.276	559.9969	669.5043	733.2576	745.3411	800.924	859.8289	872.417	906.1211	944.4109	948.1473	992.0202	1029.1271	1060.2539	1090.4302	1148.6001	1178.3642	1235.8195	1284.1598	1310.5866	1315.9082	1332.8093	1402.5942	1427.1276	1477.3253	1684.3705	1927.4814	3031.9974	3061.0099	3098.3636	3099.4082	3179.806	3209.3125
C1OC2C3OC22C1OC32	C1OC=C[C@H]2C(=O)[C@@H]1O2	
InChI=1S/C6H6O3/c1-2-6-4(7-1)3(9-6)5(6)8-2/h2-5H,1H2	InChI=1S/C6H6O3/c7-6-4-1-2-8-3-5(6)9-4/h1-2,4-5H,3H2/t4-,5+/m0/s1
