19
gdb 24422	3.33211	1.52939	1.09445	3.4465	81.2	-0.2044	0.0375	0.2419	1100.9381	0.164432	-382.138825	-382.131691	-382.130747	-382.17022	28.866	
C	-0.0188242537	 1.5198853332	-0.0460212078	-0.187531
C	 1.4075761751	 2.095046974	 0.0318128895	-0.196478
C	 2.1059246365	 1.7484072953	 1.3629886684	-0.315775
C	 1.8786827913	 0.3043726799	 1.6853800818	 0.24301
C	 0.9234871442	-0.4613907312	 1.0696817792	 0.278351
C	-0.0285469081	-0.0238711404	 0.0066166882	-0.334998
N	 1.0431684061	-1.7127363682	 1.6396745557	-0.34209
C	 2.0495645856	-1.6375023356	 2.5623625622	-0.009716
N	 2.5759000622	-0.4363048963	 2.6171206959	-0.328476
H	-0.6077971251	 1.9074786308	 0.7947897563	 0.103329
H	-0.5142159565	 1.8584837643	-0.9619944702	 0.09293
H	 1.9998134948	 1.6928524314	-0.8006571356	 0.098525
H	 1.3765037067	 3.1815384971	-0.1023309653	 0.092803
H	 3.1785834499	 1.9630372106	 1.3021034055	 0.11054
H	 1.714825655	 2.3854801185	 2.1689366703	 0.105608
H	-1.0466352409	-0.3870383775	 0.1987837514	 0.100244
H	 0.2618920351	-0.4323307979	-0.9727615902	 0.108005
H	 0.4925360171	-2.5261097662	 1.4215358847	 0.258693
H	 2.3473101347	-2.4890777119	 3.15621737	 0.123027
113.9788	210.3319	286.7742	310.2231	370.6816	442.8918	490.8388	497.9265	657.2655	670.5671	692.7029	713.1282	796.4421	837.1599	851.9369	922.3844	932.1428	957.2271	970.3102	1066.987	1099.9342	1106.0039	1150.5932	1160.8056	1167.9842	1239.4733	1258.9936	1268.5857	1288.3887	1336.6205	1367.2845	1373.566	1385.7932	1398.1944	1462.0164	1480.1431	1487.528	1490.4858	1501.8455	1522.9833	1636.7473	2992.2678	3006.0211	3020.6036	3024.3361	3037.1672	3062.2612	3071.896	3076.7917	3247.5545	3662.7202
C1CCC2=C(C1)NC=N2	C1CCc2c(C1)[nH]cn2	
InChI=1S/C7H10N2/c1-2-4-7-6(3-1)8-5-9-7/h5H,1-4H2,(H,8,9)	InChI=1S/C7H10N2/c1-2-4-7-6(3-1)8-5-9-7/h5H,1-4H2,(H,8,9)
