20
gdb 101593	3.44745	0.78253	0.67038	3.0842	73.31	-0.2416	0.03	0.2716	1669.0376	0.169497	-477.449367	-477.438767	-477.437823	-477.485934	37.344	
C	-0.184365485	 1.3004848435	 0.9926225799	-0.333349
N	 0.1484577843	-0.0969968076	 1.1845806046	-0.307276
C	 1.0091515639	-0.7579634288	 0.3636560278	 0.387641
O	 1.5631824722	-0.2456684031	-0.5937266869	-0.378223
C	 1.2335423776	-2.2401242671	 0.6970879045	-0.324118
C	 1.1966407016	-2.6420179053	 2.1721671075	 0.057101
O	-0.1175951649	-2.489857292	 2.7518497086	-0.43503
C	 1.6665055736	-4.0776045215	 2.4113986805	-0.054375
O	 1.5953555678	-4.41864194	 3.7768996932	-0.421602
H	 0.3886467755	 1.6606949878	 0.1376378554	 0.168921
H	-1.2529786686	 1.4325434011	 0.7869874526	 0.121827
H	 0.0746234826	 1.8952772473	 1.8756261113	 0.124733
H	-0.2640003327	-0.6137138686	 1.9484988129	 0.256387
H	 0.4905245392	-2.8296197803	 0.1400932754	 0.115809
H	 2.2062185	-2.4954146245	 0.2677916295	 0.139708
H	 1.8247583931	-1.9693478732	 2.7660518767	 0.11478
H	-0.7309568656	-3.0138671998	 2.2203447934	 0.287412
H	 1.0602166989	-4.7613969855	 1.7875608369	 0.074898
H	 2.7094685615	-4.1904196392	 2.0975128861	 0.118862
H	 0.7570043749	-4.0610982034	 4.0956558699	 0.285895
58.8478	73.6277	78.7295	133.5643	143.1501	182.5578	242.347	305.9074	333.5741	375.8843	389.3172	455.7287	493.5959	554.2432	632.7169	674.2405	728.9024	843.2481	873.7974	910.0495	1021.5279	1054.8302	1091.4207	1096.702	1113.1739	1151.6187	1176.4047	1180.4235	1211.7132	1266.4498	1290.3464	1316.5914	1360.807	1383.9708	1420.0685	1437.4485	1440.8163	1458.5849	1498.263	1501.7121	1504.7817	1584.792	1779.4027	2929.0552	3013.008	3025.6483	3065.9327	3075.8179	3077.3089	3102.4894	3154.0565	3583.9078	3770.583	3776.9351
CNC(=O)CC(O)CO	CNC(=O)C[C@@H](O)CO	
InChI=1S/C5H11NO3/c1-6-5(9)2-4(8)3-7/h4,7-8H,2-3H2,1H3,(H,6,9)	InChI=1S/C5H11NO3/c1-6-5(9)2-4(8)3-7/h4,7-8H,2-3H2,1H3,(H,6,9)/t4-/m1/s1
