18
gdb 87584	2.5854	1.54019	1.32022	2.6897	72.03	-0.2314	0.0723	0.3037	1042.9595	0.146057	-439.000546	-438.992065	-438.991121	-439.033687	32.025	
C	-0.147690112	 1.4520814759	 0.0648884292	-0.313725
N	 0.0192965292	 0.0039428285	 0.0899109293	-0.117108
C	 1.3572107964	-0.5183728119	-0.1912520997	-0.335404
C	 0.784330136	-0.5643610817	 1.1748020786	 0.308789
C	 1.270636354	 0.1250057163	 2.4342343782	-0.085855
O	 0.115056103	 0.2114651411	 3.2966860332	-0.261048
C	 0.8506067412	-1.0197518085	 3.2645346116	-0.009848
C	 0.3357300748	-1.7943285574	 2.0324389808	 0.0396
O	-1.0050569583	-2.171812748	 2.0125680801	-0.425699
H	 0.7552290711	 2.007081882	 0.3670376564	 0.098391
H	-0.4156027839	 1.7628483188	-0.9492838949	 0.126343
H	-0.9618611578	 1.7308535037	 0.7400891477	 0.134237
H	 1.402215928	-1.4177332081	-0.8005145856	 0.122077
H	 2.156798405	 0.2002854747	-0.3747058591	 0.107314
H	 2.0630331686	 0.8452339397	 2.595719994	 0.112949
H	 1.249421564	-1.3863294964	 4.2030068672	 0.108843
H	 0.9327014826	-2.6848246879	 1.8153158414	 0.098601
H	-1.5178939518	-1.3679814909	 2.1615317914	 0.291542
72.2919	141.379	174.4157	194.0454	235.18	307.8632	369.9798	422.2629	484.5811	524.37	593.9668	694.7567	761.7365	809.8478	855.5402	870.8168	889.3906	892.6558	969.3918	989.8536	1045.1924	1050.5024	1111.726	1126.1074	1136.3734	1150.4054	1189.1595	1201.7634	1206.7302	1231.0419	1269.7652	1296.3447	1358.4692	1424.2589	1438.7201	1449.7034	1489.9525	1497.4017	1513.8309	2972.6541	3074.3904	3079.2778	3079.6038	3113.6301	3169.9424	3186.6363	3201.7583	3791.7901
CN1CC11C2OC2C1O	CN1C[C@]21[C@H]1O[C@H]1[C@H]2O	
InChI=1S/C6H9NO2/c1-7-2-6(7)4(8)3-5(6)9-3/h3-5,8H,2H2,1H3	InChI=1S/C6H9NO2/c1-7-2-6(7)4(8)3-5(6)9-3/h3-5,8H,2H2,1H3/t3-,4+,5-,6+,7?/m0/s1
