15
gdb 128560	4.04315	1.18871	0.92398	1.8268	76.	-0.2206	-0.0693	0.1513	1205.2568	0.11354	-450.099501	-450.091564	-450.09062	-450.132299	29.092	
C	-0.0004483834	 1.4125155691	-0.0148162721	-0.233899
O	 0.0227323181	-0.0190723832	-0.0395835242	-0.262673
C	 0.6113092979	-0.6364503413	-1.0695402228	 0.513981
C	 0.6467427056	-1.9935103526	-1.1153736912	-0.297649
C	 1.2836957404	-2.6398925421	-2.2304859912	 0.439449
N	 1.3802225855	-3.9067893415	-2.3851830165	-0.561716
N	 1.7915495234	-1.6760096127	-3.1376671265	-0.293514
N	 1.7326751009	-0.346437347	-3.0500435149	-0.048623
N	 1.1602151109	 0.184217886	-2.0472622072	-0.286589
H	 1.0111729724	 1.8256124306	-0.0011340961	 0.143068
H	-0.5357044513	 1.8157232789	-0.8780345897	 0.143065
H	-0.5244269237	 1.6686170323	 0.9065942949	 0.136557
H	 0.2091015546	-2.6021216577	-0.336298054	 0.135033
H	 1.8699739993	-4.1536675732	-3.2456244336	 0.200198
H	 2.2674344893	-1.9889898556	-3.972844565	 0.273311
80.9182	153.8372	166.6756	207.2118	233.4112	388.5536	428.7964	474.9963	550.2362	610.6856	656.9996	675.6822	763.7567	770.4217	777.4741	887.1837	924.6097	1009.4448	1045.6641	1110.088	1152.2314	1174.8076	1203.8316	1264.1286	1313.6689	1358.4075	1417.0948	1483.2691	1484.2844	1496.4686	1549.2074	1651.9717	1734.1375	3049.8554	3126.0529	3153.0853	3236.1373	3470.1993	3602.9886
COC1=CC(=N)NN=N1	COc1cc([NH])[nH]nn1	
InChI=1S/C4H6N4O/c1-9-4-2-3(5)6-8-7-4/h2H,1H3,(H2,5,6,7)	InChI=1S/C4H11N4O/c1-9-4-2-3(5)6-8-7-4/h3-8H,2H2,1H3
