20
gdb 6587	3.79877	1.78986	1.54038	1.3436	74.44	-0.2492	0.0779	0.3271	911.7744	0.178026	-349.006908	-348.999369	-348.998425	-349.037851	30.978	
C	-0.0133423387	 1.5120061649	 0.0145651301	-0.492516
C	 0.033735818	 0.0027538684	 0.0347395081	 0.347639
C	 0.9962810424	-0.8141229393	-0.8859960054	-0.290834
C	 0.7157939187	-1.9303968572	 0.1450727687	 0.424724
O	 1.6018749629	-3.0049291575	 0.2108860703	-0.487315
C	 0.660029244	-0.7970981344	 1.2187533215	-0.321891
C	-0.7796345254	-2.2276660935	-0.0899867598	-0.278077
C	-1.2991458082	-0.7597058928	-0.1719176166	-0.24291
H	 0.9800890507	 1.9465898557	 0.1669116759	 0.112711
H	-0.3967969451	 1.8819488347	-0.9437964992	 0.113205
H	-0.6708090727	 1.896786463	 0.8031293958	 0.112804
H	 0.7032239518	-0.9862331008	-1.9263330215	 0.084903
H	 2.0278045217	-0.4579197335	-0.8328088791	 0.097988
H	 1.2499192626	-3.6492114951	 0.8345946946	 0.275812
H	 1.6578577523	-0.4410229851	 1.4856545655	 0.095558
H	 0.0528085164	-0.9524584448	 2.1170079487	 0.076902
H	-0.9383297623	-2.7968873074	-1.010455553	 0.100085
H	-1.2223711882	-2.7913760294	 0.7390753888	 0.084244
H	-2.0297553132	-0.5227084692	 0.6082493543	 0.092575
H	-1.7562537579	-0.5276748168	-1.1391521778	 0.094395
219.9699	237.5349	252.0853	270.1053	277.3912	387.5584	425.2675	451.3726	518.6638	570.955	592.8462	696.6814	801.1949	838.5696	842.4258	918.8665	930.7633	961.5773	967.9758	994.9259	999.1801	1038.9852	1077.5557	1115.0994	1137.822	1161.1904	1185.0568	1213.2362	1235.2347	1251.8446	1256.8438	1261.1084	1327.3519	1349.7536	1388.467	1417.9726	1483.0535	1490.4018	1495.1291	1495.5087	1499.4157	1534.3903	3021.053	3034.63	3038.4002	3044.7241	3052.7904	3077.2091	3082.4158	3093.8187	3095.9134	3110.7807	3117.6365	3803.4762
CC12CC(O)(C1)CC2	C[C@@]12C[C@@](O)(C1)CC2	
InChI=1S/C7H12O/c1-6-2-3-7(8,4-6)5-6/h8H,2-5H2,1H3	InChI=1S/C7H12O/c1-6-2-3-7(8,4-6)5-6/h8H,2-5H2,1H3/t6-,7-
