22
gdb 117546	2.06875	1.1246	0.7689	3.3178	83.92	-0.2815	0.0213	0.3028	1552.5906	0.191187	-404.36787	-404.356735	-404.355791	-404.404672	39.209	
C	-0.0242106819	 1.5206289403	-0.059702168	-0.387266
C	-0.1568526073	 0.0099081881	-0.1222912345	-0.054071
O	 0.793209974	-0.4789669282	-1.064459203	-0.246972
C	 0.8106422636	-1.8784394243	-1.2132885904	 0.000674
C	-0.4383570382	-2.3453345156	-1.8638449659	 0.275663
N	-1.4193653884	-2.6905492951	-2.3682061493	-0.337948
C	 2.0576237197	-2.2750925361	-2.0323665103	 0.012273
C	 3.3245364988	-1.7820059887	-1.3232788939	-0.40066
C	 2.103584755	-3.787834754	-2.2787633605	-0.410828
H	 0.9848284551	 1.8081512704	 0.2489165449	 0.127766
H	-0.2250430429	 1.9637864045	-1.0388347211	 0.134749
H	-0.7382561011	 1.9312109695	 0.6600505141	 0.122313
H	 0.0352514856	-0.4431179823	 0.8636330137	 0.093241
H	-1.1726961655	-0.2798823322	-0.4276844622	 0.117335
H	 0.8626034804	-2.3701969929	-0.2258582119	 0.105675
H	 1.9698051041	-1.7594466385	-2.9964573888	 0.101666
H	 4.207884291	-2.007122763	-1.9282231018	 0.116828
H	 3.2863872644	-0.7053788429	-1.1497748748	 0.135803
H	 3.4490937002	-2.2818974333	-0.3550016639	 0.111232
H	 1.2190080526	-4.1435518889	-2.8139212854	 0.143498
H	 2.9842099073	-4.0440048468	-2.8747580951	 0.122096
H	 2.1736029436	-4.33901268	-1.3333666419	 0.116936
55.8329	74.0008	90.631	142.9968	146.6643	214.8821	225.586	246.1649	274.118	311.4604	321.2572	401.0773	421.1535	453.6687	539.1289	636.3329	823.8995	847.8949	881.5813	912.9479	937.9092	964.677	991.3856	1041.7987	1120.7508	1135.8694	1145.7012	1183.6604	1187.9579	1195.7576	1290.0018	1301.8452	1341.7359	1353.2796	1375.4751	1399.4555	1403.7236	1422.2914	1437.411	1483.564	1488.8871	1492.222	1499.5096	1503.0557	1514.167	1527.0191	2349.4341	2952.6905	2976.4794	3021.078	3030.8776	3032.1166	3042.6632	3047.4995	3097.2929	3103.9461	3119.9358	3122.383	3125.7677	3138.7579
CCOC(C#N)C(C)C	CCO[C@@H](C#N)C(C)C	
InChI=1S/C7H13NO/c1-4-9-7(5-8)6(2)3/h6-7H,4H2,1-3H3	InChI=1S/C7H13NO/c1-4-9-7(5-8)6(2)3/h6-7H,4H2,1-3H3/t7-/m0/s1
