21
gdb 113091	2.28602	1.25967	0.9039	2.6338	80.78	-0.2352	0.0087	0.2438	1352.2917	0.181971	-424.232981	-424.223551	-424.222607	-424.267804	34.997	
C	 0.4065156057	 1.5115100818	 0.1363436054	-0.380059
C	 0.2863986433	-0.0110851749	 0.0401830654	-0.177554
C	 0.6719982634	-0.5538731705	-1.3413500518	 0.08913
O	 2.0393572348	-0.2379206473	-1.649191877	-0.302828
C	 2.7838938444	-1.4265099049	-1.9580111487	 0.053744
C	 3.9831389444	-1.4998632945	-1.0073346121	-0.054537
O	 4.7721852657	-0.3324905054	-1.0999322371	-0.422939
C	 1.7884814592	-2.5424408473	-1.8153240296	-0.113447
C	 0.604885237	-2.0527127261	-1.466392402	-0.101602
H	 1.42869485	 1.8328819878	-0.0812153686	 0.127053
H	-0.2584093383	 2.0062657624	-0.5804457735	 0.114168
H	 0.1428881459	 1.8659953828	 1.1371232017	 0.112502
H	 0.9234571887	-0.4936540982	 0.7909151303	 0.100174
H	-0.7453910846	-0.3206529032	 0.2520020369	 0.093671
H	 0.0299474213	-0.0661241953	-2.0955196427	 0.080412
H	 3.1694673185	-1.3382661979	-2.9865155037	 0.088367
H	 3.6126783253	-1.6631307798	 0.0178214545	 0.083056
H	 4.6256246842	-2.3463835416	-1.2750264852	 0.101757
H	 4.1551944264	 0.4046431108	-1.014340915	 0.289944
H	 2.0403814419	-3.582577424	-1.9795097026	 0.110254
H	-0.304438037	-2.6132256846	-1.2882140947	 0.108736
53.7267	99.8556	108.5954	168.5896	216.0382	236.6422	303.0049	389.3662	436.3591	457.5949	475.0122	537.5837	685.1737	757.0878	786.8419	807.5797	852.4356	886.0862	954.5884	966.9843	985.1959	1026.1956	1040.2082	1075.7704	1084.9591	1091.3099	1122.349	1139.2278	1145.0332	1221.2503	1278.6875	1287.5578	1305.4802	1341.4616	1361.4934	1366.7879	1388.6617	1392.4201	1409.0092	1434.5988	1475.0398	1497.24	1498.609	1508.0005	1689.8509	2947.1012	2967.8589	2982.1437	3022.8971	3037.196	3064.1009	3067.7366	3103.8019	3119.941	3203.5958	3227.9711	3786.3004
CCC1OC(CO)C=C1	CC[C@H]1O[C@@H](CO)C=C1	
InChI=1S/C7H12O2/c1-2-6-3-4-7(5-8)9-6/h3-4,6-8H,2,5H2,1H3	InChI=1S/C7H12O2/c1-2-6-3-4-7(5-8)9-6/h3-4,6-8H,2,5H2,1H3/t6-,7-/m1/s1
