22
gdb 52680	3.17804	0.81475	0.69843	1.2579	92.61	-0.2202	0.0577	0.2779	1707.7185	0.191406	-367.159232	-367.14816	-367.147216	-367.198184	38.749	
C	-0.3453220692	 1.6539424914	-0.192954677	-0.497859
C	-0.158408704	 0.2131410114	-0.0933128692	 0.075269
C	 0.0020578269	-0.9770542673	-0.0011945002	 0.072292
C	 0.1773478591	-2.4284103493	 0.0813423927	-0.195687
C	-1.1820779682	-3.145734395	 0.2211029619	-0.391904
C	 0.9373055751	-2.925882345	-1.1495826114	 0.037423
C	 2.4218455262	-2.8514108272	-1.2214505883	-0.254895
N	 1.74707632	-4.1445788444	-1.1722793915	-0.089681
C	 1.9201468339	-4.9519364696	 0.0248218551	-0.315234
H	 0.6153249355	 2.1787073584	-0.2423268229	 0.14644
H	-0.9136645725	 1.9215209231	-1.0907378461	 0.146544
H	-0.8917329605	 2.0463232748	 0.6720560121	 0.146237
H	 0.7737122627	-2.6470354399	 0.9757139254	 0.098647
H	-1.7260343573	-2.7780279897	 1.0950389123	 0.122129
H	-1.8011444145	-2.9663360947	-0.663164618	 0.125572
H	-1.039407552	-4.2250578815	 0.3269757575	 0.118512
H	 0.3748881875	-2.7763188465	-2.0709152955	 0.093178
H	 2.9295945552	-2.6050703407	-2.1504607944	 0.11257
H	 2.9364272767	-2.5131550606	-0.3213664184	 0.104056
H	 2.0279600662	-4.3794072405	 0.9598936634	 0.100315
H	 1.0710337449	-5.6344689176	 0.1344434419	 0.123298
H	 2.8236986285	-5.5583976596	-0.0955603894	 0.122779
5.6045	52.7102	79.65	137.4457	172.8942	217.9422	224.2404	241.3794	294.5686	311.5306	361.3986	423.0831	472.3294	487.1291	552.5424	734.9793	765.7322	831.679	912.2886	962.897	1003.9509	1033.3431	1053.502	1053.9774	1080.8058	1104.6374	1117.8366	1133.1091	1159.2816	1182.5937	1195.6188	1207.4109	1282.1675	1324.4474	1337.8616	1402.2452	1414.7873	1420.1647	1450.3842	1479.1449	1479.3361	1487.9807	1492.1605	1498.6165	1501.5099	1514.7804	2368.9613	2972.08	3025.3404	3030.3307	3041.65	3063.2174	3080.9454	3084.9834	3085.5778	3097.3641	3105.5899	3116.5353	3121.6384	3169.4376
CC#CC(C)C1CN1C	CC#C[C@@H](C)[C@H]1CN1C	
InChI=1S/C8H13N/c1-4-5-7(2)8-6-9(8)3/h7-8H,6H2,1-3H3	InChI=1S/C8H13N/c1-4-5-7(2)8-6-9(8)3/h7-8H,6H2,1-3H3/t7-,8-,9?/m1/s1
