19
gdb 52729	3.42671	0.61884	0.53841	3.3251	82.81	-0.252	-0.0273	0.2247	2022.2832	0.153787	-422.997867	-422.986514	-422.98557	-423.037805	37.153	
C	-0.1383438878	 1.4906683787	-0.0400741802	-0.500108
C	-0.0682201702	 0.0369982563	-0.0387973256	 0.116483
C	 0.0008047877	-1.1643334717	-0.0438077112	 0.04332
C	 0.0493055033	-2.624359797	-0.0274256486	-0.040466
C	-1.3599398079	-3.234939356	-0.0733407946	-0.395309
O	 0.8486482565	-3.0483936945	-1.1351897091	-0.258599
C	 1.3376188474	-4.3617589835	-1.045842275	-0.147138
C	 2.4015248476	-4.5370435238	-2.117841926	 0.141802
O	 2.9010728697	-5.5950231095	-2.3928860492	-0.238947
H	 0.377530467	 1.9060545184	-0.9125758865	 0.154985
H	-1.1759624292	 1.8404180251	-0.070380499	 0.150235
H	 0.3309683262	 1.913243151	 0.8549951082	 0.150506
H	 0.5457315189	-2.951847685	 0.9024764621	 0.093778
H	-1.8590152919	-2.946969986	-1.0018466031	 0.13635
H	-1.3163205648	-4.32635965	-0.0161479564	 0.118273
H	-1.9524513792	-2.8723464516	 0.7706981314	 0.130283
H	 1.8060025911	-4.5580097593	-0.0647190863	 0.119747
H	 0.5620200206	-5.1287756732	-1.1919078121	 0.125214
H	 2.6845365849	-3.5865424687	-2.6206129687	 0.099592
14.1954	49.3542	52.8195	67.0954	100.0229	139.8291	186.7021	244.5382	289.207	320.0121	352.4693	400.6497	484.1266	535.6384	593.0228	735.1987	767.2587	882.6679	1000.8267	1049.7917	1051.3389	1054.749	1081.4037	1101.8831	1120.4194	1145.224	1192.5721	1237.2932	1332.3442	1349.4827	1379.7242	1398.6077	1411.1737	1414.0645	1476.3659	1478.1447	1479.7823	1489.1993	1494.8135	1843.7583	2377.5122	2904.4895	2949.365	2954.3533	3007.721	3029.0045	3047.3131	3090.4921	3092.0199	3120.8888	3133.9616
CC#CC(C)OCC=O	CC#C[C@@H](C)OCC=O	
InChI=1S/C7H10O2/c1-3-4-7(2)9-6-5-8/h5,7H,6H2,1-2H3	InChI=1S/C7H10O2/c1-3-4-7(2)9-6-5-8/h5,7H,6H2,1-2H3/t7-/m1/s1
