17
gdb 26717	3.18798	1.20683	0.88436	4.8004	79.29	-0.2145	-0.0262	0.1883	1262.3522	0.136317	-418.061711	-418.052518	-418.051574	-418.09596	32.885	
C	-0.087711887	 1.4985774931	 0.0415824847	-0.514746
C	-0.0177841687	 0.0014573614	 0.0331272	 0.138356
C	 0.0073965263	-0.796978815	-1.0886092974	 0.179625
N	-0.0195219104	-0.5417913991	-2.4785228847	-0.613477
N	 0.0735645215	-2.116291301	-0.6668110174	-0.254075
C	 0.0911319067	-2.1811809843	 0.6836154571	-0.140604
C	 0.0356174646	-0.88099403	 1.1681176445	 0.092258
C	 0.0343289709	-0.5276541202	 2.579150879	 0.069497
O	 0.0813987116	-1.3213066271	 3.4984383371	-0.297519
H	 0.7769652248	 1.9481845018	 0.5426706381	 0.133498
H	-0.1137076948	 1.8868990213	-0.9813095113	 0.106446
H	-0.9828500877	 1.865967322	 0.5560952838	 0.133475
H	 0.7711851548	 0.0162389613	-2.7822905302	 0.247945
H	-0.8639948418	-0.0579260705	-2.7641832941	 0.247955
H	 0.1027722271	-2.8910122082	-1.3090736345	 0.267367
H	 0.1404898464	-3.1130270924	 1.2222426354	 0.152397
H	-0.0144273443	 0.566191947	 2.7835907797	 0.051603
73.2311	113.0632	125.5066	170.4111	191.3539	262.6061	290.3717	313.2107	391.3003	508.8422	568.2221	640.4282	663.3381	684.1306	756.0365	778.6996	796.7764	816.1311	945.9772	1038.6658	1064.6794	1095.5579	1107.6093	1206.8548	1209.1384	1247.2356	1352.6054	1409.684	1418.6142	1460.0253	1467.7162	1487.3296	1495.8928	1534.7483	1621.2707	1660.9401	1775.6725	2866.7863	3026.8271	3077.9391	3099.6803	3277.6544	3506.3869	3572.3278	3664.678
CC1=C(N)NC=C1C=O	Cc1c(N)[nH]cc1C=O	
InChI=1S/C6H8N2O/c1-4-5(3-9)2-8-6(4)7/h2-3,8H,7H2,1H3	InChI=1S/C6H8N2O/c1-4-5(3-9)2-8-6(4)7/h2-3,8H,7H2,1H3
