15
gdb 46679	2.98964	1.80298	1.379	4.9187	65.03	-0.2599	-0.0115	0.2485	911.8576	0.113672	-457.687063	-457.680635	-457.679691	-457.71781	25.834	
O	 0.040304624	 0.0113973363	-0.0923984029	-0.328716
C	 0.0551269632	 1.2004495885	-0.0135401394	 0.376677
O	-1.0863532724	 1.9590243418	 0.1505934424	-0.252178
C	-0.8510606041	 3.4105557085	 0.0953425692	-0.127376
C	 0.5225522676	 3.5078066184	-0.5613006973	-0.048825
C	 1.9591826029	 3.8082573076	-0.0198829862	-0.005806
C	 1.6882851356	 2.9814505469	 1.2418417608	-0.269818
C	 1.1493918286	 2.2323596022	-0.0174631144	 0.277956
O	 2.4139215476	 2.5384090573	-0.7046757727	-0.361709
H	-1.6612980521	 3.8285940012	-0.5036544454	 0.135225
H	-0.9161718702	 3.8090361675	 1.1100852975	 0.130463
H	 0.4766291347	 3.5252897933	-1.6514742277	 0.112738
H	 2.5944636208	 4.6795137117	-0.1781324279	 0.112605
H	 2.5663097477	 2.5182735119	 1.689006054	 0.131976
H	 0.9809123059	 3.3573366468	 1.9816967099	 0.116789
157.9604	207.6179	309.5793	346.051	490.02	554.8331	581.6736	616.8788	684.9924	705.4061	731.0309	824.1588	876.2032	899.7496	956.5015	965.4123	992.2743	1011.3156	1048.786	1068.7943	1106.4308	1119.8676	1148.0618	1190.6221	1207.7882	1213.4521	1236.4629	1293.6216	1355.9871	1384.7645	1488.6709	1521.5091	1899.459	3075.0492	3091.7955	3104.2662	3124.4344	3132.5794	3172.3953
O=C1OCC2C3CC12O3	O=C1OC[C@H]2[C@H]3C[C@@]12O3	
InChI=1S/C6H6O3/c7-5-6-1-4(9-6)3(6)2-8-5/h3-4H,1-2H2	InChI=1S/C6H6O3/c7-5-6-1-4(9-6)3(6)2-8-5/h3-4H,1-2H2/t3-,4+,6-/m0/s1
