23
gdb 100256	2.04669	1.01843	0.80763	1.808	91.18	-0.2472	0.0444	0.2916	1595.0124	0.201707	-388.277977	-388.266005	-388.265061	-388.315928	42.257	
C	-0.1428650978	 1.6119264808	-0.0540013341	-0.389974
C	-0.0307370853	 0.0866232718	-0.0342849108	-0.181239
C	 0.7352674967	-0.4707451832	 1.1840614863	 0.151012
O	-0.0361392468	-0.0836194702	 2.3336926896	-0.452039
C	 0.8625193337	-2.0176303887	 1.1303083595	-0.186273
C	-0.4717240723	-2.7681620233	 1.128626563	-0.400194
C	 2.0875956795	 0.1042583993	 1.2685576895	 0.074153
C	 3.2065402135	 0.5392938029	 1.3748730233	 0.051621
C	 4.5539766013	 1.0791462025	 1.4923978938	-0.501248
H	 0.8436251828	 2.0798329087	-0.1207942662	 0.120356
H	-0.7353187009	 1.9432166164	-0.9123113573	 0.103484
H	-0.6267046137	 1.9704635561	 0.8576757118	 0.131461
H	-1.0332463633	-0.3523699727	-0.0162738005	 0.106593
H	 0.4646085464	-0.2734816006	-0.942946964	 0.096282
H	 0.5290190692	-0.1845914811	 3.1067632676	 0.279674
H	 1.4601252157	-2.2858777637	 0.2513612417	 0.101319
H	 1.452772915	-2.3229507837	 2.0031810132	 0.090176
H	-1.1067113617	-2.421531654	 1.9481077138	 0.130274
H	-1.0208181934	-2.6309735739	 0.1925837027	 0.118019
H	-0.3030941611	-3.8420159544	 1.2543188523	 0.107231
H	 5.1925323325	 0.4337957375	 2.1056187309	 0.14762
H	 5.027413937	 1.174202661	 0.5089449059	 0.151118
H	 4.5454883228	 2.0734543925	 1.9522994278	 0.150574
32.2654	76.9754	93.8506	106.2689	128.1694	211.2791	219.3619	235.6827	267.6992	274.761	323.3285	328.8008	371.2319	383.6355	463.4925	560.0279	577.7039	653.7299	779.7879	790.7973	887.5547	938.8644	957.5866	1027.879	1044.5224	1052.2345	1054.8129	1080.7605	1092.9037	1128.8229	1166.9395	1202.3352	1278.0007	1320.0028	1345.0847	1367.1885	1390.9573	1403.7332	1410.6845	1414.4968	1473.3072	1477.5164	1479.2416	1481.5137	1494.3396	1499.7575	1510.4594	1512.8321	2359.8447	3027.4783	3027.5486	3041.6496	3044.6323	3045.8295	3065.44	3085.0762	3088.3068	3089.3522	3108.1171	3111.9924	3124.9279	3129.8697	3815.828
CCC(O)(CC)C#CC	CCC(O)(CC)C#CC	
InChI=1S/C8H14O/c1-4-7-8(9,5-2)6-3/h9H,5-6H2,1-3H3	InChI=1S/C8H14O/c1-4-7-8(9,5-2)6-3/h9H,5-6H2,1-3H3
