23
gdb 58865	2.5053	1.33396	1.04215	1.8072	85.01	-0.2265	0.0737	0.3002	1273.4308	0.203929	-388.260686	-388.250887	-388.249942	-388.295133	37.476	
C	-0.3400372098	 1.5848128784	-0.1967768534	-0.385379
C	-0.0328029051	 0.0860973924	-0.0323560314	-0.08035
C	-1.3054466961	-0.6958981972	 0.3223372449	-0.401438
C	 0.6798962418	-0.4575066737	-1.2500902914	 0.281002
C	 0.0115514586	-0.9316949294	-2.5312713838	-0.361083
C	 0.9194881897	-1.853560783	-1.7763588802	 0.039607
O	 2.2855388745	-1.597600295	-2.1044419795	-0.310878
C	 2.1820850245	-0.26061855	-1.5270304174	 0.100794
C	 2.6943941756	 0.8310907831	-2.444085721	-0.410137
H	 0.5690235367	 2.1640085317	-0.3875190413	 0.114581
H	-1.0228698208	 1.749901653	-1.0375270262	 0.117688
H	-0.8105371251	 1.9900986543	 0.7052437108	 0.109153
H	 0.6619873104	-0.0215358565	 0.8137740697	 0.073232
H	-2.0801095924	-0.571648024	-0.4420372844	 0.117913
H	-1.1033318426	-1.76638206	 0.4306965101	 0.114613
H	-1.7216675377	-0.3359278868	 1.2684514855	 0.114289
H	-1.0488634549	-1.1424982354	-2.4370887654	 0.112561
H	 0.3166531569	-0.5629825065	-3.5065352519	 0.110853
H	 0.6596554805	-2.8391963015	-1.4066298258	 0.100628
H	 2.7356347981	-0.2469578051	-0.5771019444	 0.075023
H	 2.1139460604	 0.8885076183	-3.3685132306	 0.12115
H	 2.6480810175	 1.8030980349	-1.9415051382	 0.118013
H	 3.7388465694	 0.6369614978	-2.7089023848	 0.128165
47.8627	133.4027	196.4571	215.8094	219.6188	254.6538	265.4681	277.0275	307.9245	418.7905	439.8297	494.1057	539.9642	646.0997	710.9179	845.2988	847.2276	873.3828	910.0912	911.3709	928.3334	966.3345	998.6137	1013.1264	1044.0962	1078.5319	1079.8549	1089.8919	1118.8267	1133.329	1157.669	1175.7982	1218.7644	1269.3556	1276.3507	1347.7101	1374.0115	1381.387	1395.618	1397.9244	1410.2857	1423.5543	1481.142	1481.894	1488.165	1494.1431	1494.5392	1505.6268	1512.4788	2989.7392	2999.1469	3028.6986	3033.5187	3038.1699	3096.9286	3100.2767	3102.5592	3104.5132	3105.733	3117.3854	3122.1032	3173.7977	3209.0993
CC(C)C12CC1OC2C	CC(C)[C@]12C[C@H]1O[C@H]2C	
InChI=1S/C8H14O/c1-5(2)8-4-7(8)9-6(8)3/h5-7H,4H2,1-3H3	InChI=1S/C8H14O/c1-5(2)8-4-7(8)9-6(8)3/h5-7H,4H2,1-3H3/t6-,7+,8-/m0/s1
