18
gdb 93385	3.13467	1.37897	1.07414	3.724	72.09	-0.2376	0.0277	0.2653	1110.6259	0.14996	-439.113682	-439.105716	-439.104771	-439.146053	31.097	
O	-0.1382111906	 1.4738669271	 0.2031248804	-0.424857
C	-0.0126379266	 0.0690506996	 0.0268450434	 0.094277
C	 0.8519280597	-0.5332030291	 1.1491145561	-0.212274
N	 0.7948806694	-1.982654303	 1.1457049998	-0.324964
C	-0.3098592715	-2.7426839408	 0.8529113756	 0.41352
O	-0.2910154485	-3.9578951142	 0.9273880663	-0.387924
C	-1.5233406528	-1.9850764968	 0.4073415027	-0.141402
C	-2.1025775197	-0.8845755861	 1.2818384405	-0.291418
C	-1.3978852211	-0.5298068144	 0.0072502158	-0.027486
H	 0.7158753022	 1.8785536142	 0.019745642	 0.285736
H	 0.4658307623	-0.1573579452	-0.9387934501	 0.079914
H	 1.8935038894	-0.2254494517	 1.0057125261	 0.10443
H	 0.5213845481	-0.0982877166	 2.1030118877	 0.119132
H	 1.5778758335	-2.5093407488	 1.5020067595	 0.247338
H	-2.2244730615	-2.6168037505	-0.1231824751	 0.112355
H	-3.1825943466	-0.7998164223	 1.3065418662	 0.12425
H	-1.6222004241	-0.6740103455	 2.2300316265	 0.129088
H	-2.0128231615	-0.194657796	-0.8215726933	 0.100284
87.5129	186.5764	215.2621	272.8884	292.073	352.0135	416.1293	431.3339	507.3439	546.1902	571.7526	698.4701	753.1983	762.0479	815.0013	853.0047	938.7727	965.2833	1000.2082	1010.7801	1061.3278	1079.2705	1099.2197	1127.8412	1134.0677	1155.2591	1210.5078	1251.4126	1257.7812	1306.0074	1337.2384	1369.507	1393.0453	1412.1976	1446.5385	1473.7562	1495.0281	1532.178	1787.6759	2977.9615	3005.1932	3060.5	3146.8443	3163.1971	3197.0235	3230.846	3622.7168	3814.8567
OC1CNC(=O)C2CC12	O[C@H]1CNC(=O)[C@H]2C[C@@H]12	
InChI=1S/C6H9NO2/c8-5-2-7-6(9)4-1-3(4)5/h3-5,8H,1-2H2,(H,7,9)	InChI=1S/C6H9NO2/c8-5-2-7-6(9)4-1-3(4)5/h3-5,8H,1-2H2,(H,7,9)/t3-,4+,5+/m1/s1
