13
gdb 9455	2.80476	1.7959	1.73947	3.2816	59.1	-0.2662	-0.0601	0.2061	830.5668	0.093526	-398.607824	-398.59997	-398.599026	-398.640428	27.575	
O	 0.2415462529	 1.4415313007	 0.3044718942	-0.445309
C	 0.0189253865	 0.0820151584	 0.0587821206	 0.177848
C	-1.4842865099	-0.3079786727	-0.1118713063	-0.271449
C	-1.1717260535	-1.0491609955	-1.4494129268	-0.340437
C	 0.197043898	-0.3716829505	-1.4396485938	 0.350158
O	 1.0211419828	-0.0765722111	-2.2478899491	-0.275746
C	 0.7450646445	-0.7932807476	 0.9884095524	 0.228218
N	 1.3344553832	-1.4945212368	 1.6943321737	-0.321976
H	 1.1355641857	 1.6558436053	 0.0077632694	 0.306265
H	-1.914105658	-0.9038798817	 0.6912650412	 0.139872
H	-2.0677251733	 0.6017058242	-0.2591620053	 0.145272
H	-1.0799655091	-2.1329680996	-1.3262550119	 0.158732
H	-1.8022804498	-0.8460557131	-2.3169340483	 0.148552
65.8532	117.445	160.6528	191.9632	285.0944	349.9702	412.6638	497.8195	542.9381	584.3629	668.3689	729.2774	752.8307	888.0834	917.704	967.3183	1035.7158	1072.605	1130.1747	1191.1859	1206.1445	1242.4887	1272.4397	1356.4549	1440.3949	1477.7203	1906.5087	2342.6362	3067.2567	3099.6454	3129.1001	3168.1513	3782.22
OC1(CCC1=O)C#N	O[C@]1(CCC1=O)C#N	
InChI=1S/C5H5NO2/c6-3-5(8)2-1-4(5)7/h8H,1-2H2	InChI=1S/C5H5NO2/c6-3-5(8)2-1-4(5)7/h8H,1-2H2/t5-/m1/s1
