19
gdb 84598	2.46011	1.57955	1.20918	0.6943	87.3	-0.2295	0.012	0.2415	1100.3935	0.158818	-348.723852	-348.715466	-348.714522	-348.75632	33.386	
C	-0.1755294964	 1.5548644807	 0.0598853427	-0.400637
C	 0.0308216978	 0.0360027803	-0.0089051125	-0.095505
C	 0.8588202962	-0.445536686	-1.1837859185	-0.090725
C	 1.8429629237	-1.2701432074	-0.8209151755	-0.08612
C	 1.9179767037	-1.4298970269	 0.6594060409	-0.127746
C	 2.2252153712	-0.1640749306	 1.420648833	-0.316237
C	 0.7730333184	-0.563251943	 1.2070612353	 0.161239
C	-0.0024005486	-0.9585043629	 2.3426322584	 0.190439
C	-0.6820790307	-1.2728096512	 3.2852401444	-0.403
H	 0.7792187985	 2.0865189998	 0.1177530881	 0.116508
H	-0.7071601299	 1.9155383278	-0.8267548122	 0.112955
H	-0.7686409404	 1.8214636146	 0.9399838423	 0.127051
H	-0.9636307675	-0.4302963357	-0.0552989671	 0.091336
H	 0.6489313819	-0.1265225472	-2.1989986315	 0.09531
H	 2.5441289429	-1.7507187826	-1.4938030498	 0.099945
H	 2.1607431507	-2.3865616568	 1.1074066439	 0.101868
H	 2.5936219051	-0.2610025727	 2.4356919454	 0.123434
H	 2.6194176958	 0.678169542	 0.8624092727	 0.116102
H	-1.2742999325	-1.5565887321	 4.1190896601	 0.183782
109.6573	148.941	203.7383	231.4897	258.1049	363.5817	401.3133	481.1889	531.6961	549.3957	565.8879	595.3764	645.7357	695.5373	745.5936	777.9913	850.8357	854.3203	896.0527	931.2259	962.2246	990.4714	1039.3795	1049.3108	1071.5932	1076.9966	1097.2887	1118.2129	1153.7352	1219.4934	1245.4969	1303.934	1333.1902	1361.6638	1390.2486	1409.4219	1468.0904	1497.8351	1498.5283	1670.2466	2232.0138	3001.2524	3036.2946	3103.8417	3112.3432	3131.6553	3177.7478	3184.1661	3207.4869	3226.2526	3505.0589
CC1C=CC2CC12C#C	C[C@H]1C=C[C@H]2C[C@@]12C#C	
InChI=1S/C9H10/c1-3-9-6-8(9)5-4-7(9)2/h1,4-5,7-8H,6H2,2H3	InChI=1S/C9H10/c1-3-9-6-8(9)5-4-7(9)2/h1,4-5,7-8H,6H2,2H3/t7-,8-,9-/m0/s1
