23
gdb 119987	2.87312	0.87966	0.83314	1.8793	83.21	-0.2256	0.0666	0.2923	1576.0404	0.203591	-425.402237	-425.391526	-425.390582	-425.438611	38.789	
C	 0.3306904912	 1.4988628544	 0.0196806336	-0.388927
C	 0.5307735441	-0.0046475645	-0.0448845643	-0.04509
O	 0.3149838982	-0.5437239986	 1.2591597158	-0.266524
C	 0.490426665	-1.9325677038	 1.306205672	 0.035655
C	 1.8501980899	-2.3949944336	 1.7796740823	 0.090038
O	 2.8010436255	-1.4106617011	 2.0634436346	-0.433045
C	 0.632902746	-2.5533721232	 2.6765988785	-0.10781
C	 0.4828942548	-1.7480009568	 3.9520733079	-0.18981
C	 1.3016577726	-2.3376319143	 5.1062364622	-0.37377
H	 1.0496987207	 1.959101619	 0.7040075474	 0.124474
H	 0.4677742369	 1.9414210735	-0.9713128507	 0.120552
H	-0.6769396883	 1.7372077684	 0.3713083185	 0.131587
H	-0.1814528055	-0.4613112677	-0.7495422118	 0.097081
H	 1.5431977942	-0.255912078	-0.3935425875	 0.105306
H	-0.0437764815	-2.4750567972	 0.5262473191	 0.084844
H	 2.3105996048	-3.2774800809	 1.3467140542	 0.096142
H	 2.3411088251	-0.5638343838	 1.9894439745	 0.291165
H	 0.2459703735	-3.5685254088	 2.7432466261	 0.083673
H	 0.7863673398	-0.7125518318	 3.7770951846	 0.101031
H	-0.5788185937	-1.7068390022	 4.2251672598	 0.09599
H	 1.1604861976	-1.7606512883	 6.025769701	 0.106377
H	 1.0085260143	-3.3728039035	 5.3142660569	 0.107734
H	 2.3672735946	-2.3326970173	 4.8592885756	 0.133324
63.2993	76.3455	89.1994	100.7201	180.6684	230.6545	240.4788	263.3131	293.2514	297.5435	404.3928	453.6703	569.7881	602.1423	671.7056	737.153	793.4539	803.3544	823.5464	866.5819	918.7348	989.925	1007.6095	1051.1218	1072.7164	1093.3557	1106.4715	1134.395	1146.3635	1152.1528	1187.6779	1190.4293	1238.8051	1288.3754	1297.8425	1314.4155	1338.7361	1360.4302	1395.9912	1405.5896	1410.0178	1433.6094	1466.2196	1483.8788	1491.9533	1499.3745	1499.7048	1511.413	1529.6874	2982.5721	3018.1787	3032.4838	3033.6716	3045.0964	3083.4889	3095.1369	3101.8621	3115.933	3117.7503	3123.7134	3125.0064	3157.9431	3755.2097
CCOC1C(O)C1CC	CCO[C@H]1[C@@H](O)[C@H]1CC	
InChI=1S/C7H14O2/c1-3-5-6(8)7(5)9-4-2/h5-8H,3-4H2,1-2H3	InChI=1S/C7H14O2/c1-3-5-6(8)7(5)9-4-2/h5-8H,3-4H2,1-2H3/t5-,6+,7-/m1/s1
