17
gdb 75281	3.14762	1.46534	1.13789	2.0373	73.81	-0.2384	-0.0353	0.2031	1075.0881	0.136487	-418.020989	-418.013131	-418.012187	-418.053705	29.37	
C	-0.4011464995	 1.3352831127	-0.0442663085	-0.470234
C	-0.0365318584	-0.1137804985	-0.0837928243	 0.325708
N	 0.032855101	-0.8055119843	-1.1540169394	-0.26342
C	 0.4024020931	-2.1817106317	-0.8058124136	-0.200159
C	 0.4905291033	-2.1944604312	 0.7431762825	-0.131489
N	 0.3004404949	-0.7600678348	 1.1376788862	-0.136372
C	-0.8482484083	-1.0798734834	 2.0512077696	-0.321587
C	-0.7380272103	-2.5530299875	 1.597163711	 0.391352
O	-1.3622490436	-3.5469150494	 1.809436268	-0.274779
H	 0.4372249745	 1.922304765	 0.344397562	 0.14702
H	-0.6585173744	 1.6804008928	-1.0453230019	 0.152259
H	-1.2506720845	 1.511627414	 0.6250042506	 0.132022
H	-0.3346758633	-2.888111381	-1.2029293262	 0.129258
H	 1.3675830567	-2.4347135456	-1.2566191303	 0.123321
H	 1.4151666895	-2.6391459357	 1.1220891361	 0.115139
H	-0.6201586244	-0.9199763475	 3.1095584944	 0.142504
H	-1.7928265562	-0.5816331641	 1.8074148935	 0.139459
67.2775	142.4922	177.8634	241.1974	255.6783	347.8648	414.3598	537.2447	579.8735	633.6051	673.3614	730.8996	786.5128	826.5763	897.3206	959.4088	976.2765	1013.4419	1024.2243	1059.1156	1065.8945	1084.994	1101.5713	1151.799	1190.8966	1226.4781	1257.3487	1278.3019	1290.223	1338.5871	1411.9421	1464.7001	1474.9135	1479.0475	1496.8819	1712.1553	1909.2556	3041.916	3043.0869	3044.3125	3066.4245	3080.5067	3096.1193	3098.3842	3160.3467
CC1=NCC2N1CC2=O	CC1=NC[C@H]2N1CC2=O	
InChI=1S/C6H8N2O/c1-4-7-2-5-6(9)3-8(4)5/h5H,2-3H2,1H3	InChI=1S/C6H8N2O/c1-4-7-2-5-6(9)3-8(4)5/h5H,2-3H2,1H3/t5-/m1/s1
