16
gdb 66091	2.15111	1.47475	1.09076	4.0811	66.96	-0.2427	-0.0604	0.1822	1123.7235	0.121674	-475.004752	-474.995841	-474.994897	-475.039289	31.656	
O	 0.0122021007	 1.4483043962	-0.106350198	-0.464339
C	-0.0010136931	 0.0675533957	 0.0402263316	 0.313432
C	 0.3188646835	-0.4386120901	 1.4805328413	-0.216029
N	-1.1072631552	-0.7538253939	 1.6975862851	-0.315398
C	-1.4334470868	-0.581243862	 0.2734153068	-0.150429
C	-2.5821940869	 0.3701491147	-0.0131598129	 0.178276
O	-3.1542006703	 0.4137414072	-1.0701113449	-0.245896
C	 0.7739737526	-0.5878357164	-1.0775025611	 0.116618
O	 1.2626339364	 0.0581945043	-1.9712861979	-0.264885
H	 0.4330773157	 1.6212986122	-0.9648814025	 0.29972
H	 1.0002306933	-1.3000364244	 1.5009689362	 0.100784
H	 0.7116267614	 0.3474086671	 2.1321388333	 0.132693
H	-1.3045540995	-1.6682011182	 2.0846949993	 0.229402
H	-1.5824714005	-1.4990354424	-0.3112894822	 0.087982
H	-2.8376009218	 1.0306807093	 0.842025231	 0.095197
H	 0.8599465605	-1.6923686692	-1.0343775653	 0.102871
55.7962	67.422	114.5036	189.7327	243.3981	296.0254	346.2887	403.9472	437.8922	457.5943	528.7215	549.1851	653.9198	832.8586	848.7643	923.8118	928.7952	990.3197	1007.0329	1037.182	1066.9548	1086.3742	1120.9318	1157.328	1202.1477	1282.422	1300.808	1335.7771	1382.7662	1387.6727	1399.3623	1438.0021	1504.2753	1809.7339	1831.7683	2919.4199	2934.9008	3005.5052	3015.3507	3084.5991	3555.6414	3673.9835
OC1(CNC1C=O)C=O	O[C@]1(CN[C@H]1C=O)C=O	
InChI=1S/C5H7NO3/c7-1-4-5(9,3-8)2-6-4/h1,3-4,6,9H,2H2	InChI=1S/C5H7NO3/c7-1-4-5(9,3-8)2-6-4/h1,3-4,6,9H,2H2/t4-,5+/m0/s1
