17
gdb 29332	1.99501	1.8626	0.97031	2.443	86.53	-0.1788	0.0211	0.1999	1182.669	0.135493	-380.883533	-380.87409	-380.873146	-380.917537	35.124	
C	 0.0152021548	 1.502295042	 0.0861812266	-0.519662
C	 0.0072312242	 0.0137893269	 0.0042543372	 0.205059
C	-0.0276112205	-0.8178929594	-1.1119826237	 0.079056
C	-0.0561624457	-0.4231268401	-2.4658292747	 0.19807
C	-0.0686012764	-0.1271687169	-3.6362442232	-0.452775
C	-0.016722768	-2.1785259511	-0.6412197797	 0.134439
N	-0.1116336133	-3.3028657732	-1.4706616286	-0.621717
C	 0.0282389077	-2.1300424769	 0.7306086288	-0.158636
N	 0.0430675381	-0.791691117	 1.0992670104	-0.302092
H	 0.9122658668	 1.8832649541	 0.5899734476	 0.127358
H	-0.0054036391	 1.9202731124	-0.9223703164	 0.152266
H	-0.8561383575	 1.890287078	 0.6283821533	 0.128976
H	-0.0964801955	 0.1461354291	-4.6612785476	 0.177235
H	 0.1715067928	-3.0914274353	-2.4195160587	 0.24572
H	 0.4058599627	-4.1011995415	-1.1280092349	 0.238726
H	 0.0417079491	-2.9145971242	 1.4684340503	 0.1096
H	 0.0741846699	-0.4619297869	 2.0476899732	 0.258377
68.5331	125.0553	135.7376	200.4579	222.723	263.6899	313.7024	387.4418	428.9194	463.4283	510.8241	537.5654	564.6163	613.845	645.4888	666.2981	670.5634	701.0216	753.709	785.6398	979.2247	1050.3963	1058.0066	1100.002	1124.212	1236.128	1293.2418	1343.5336	1412.8709	1440.8907	1473.902	1482.81	1518.0725	1566.8337	1635.3332	1652.8901	2214.0636	3017.5193	3062.6015	3129.7891	3270.8684	3504.8209	3534.0466	3627.2729	3685.7649
CC1=C(C#C)C(N)=CN1	Cc1c(C#C)c(N)c[nH]1	
InChI=1S/C7H8N2/c1-3-6-5(2)9-4-7(6)8/h1,4,9H,8H2,2H3	InChI=1S/C7H8N2/c1-3-6-5(2)9-4-7(6)8/h1,4,9H,8H2,2H3
