13
gdb 129229	3.97426	1.18913	0.91527	3.5299	73.45	-0.2559	-0.1027	0.1531	1163.1491	0.089913	-448.90588	-448.898544	-448.8976	-448.938138	26.774	
N	-0.1118513266	 1.3507536961	 0.0109097188	-0.536512
C	-0.0480187968	 0.0745459828	 0.0036225297	 0.43727
N	 1.1210705431	-0.7068753846	-0.0069617155	-0.307612
N	 1.2242769829	-2.0546868813	-0.0148640096	-0.030938
N	 0.1767880847	-2.7616113297	-0.0130340909	-0.242414
C	-1.0681042428	-2.1228949678	-0.002808832	 0.264717
C	-2.2702892925	-3.0058112598	-0.0010950244	 0.120841
O	-2.24060484	-4.2073445038	-0.0077873306	-0.232261
C	-1.2173432798	-0.7792298094	 0.0053100678	-0.199491
H	 0.8106692077	 1.788158644	 0.008291308	 0.214277
H	 2.0249406058	-0.2544907818	-0.0094051233	 0.27743
H	-3.2272852884	-2.4384469766	 0.0071725077	 0.087117
H	-2.1913351072	-0.3025260681	 0.0131786843	 0.147576
87.7027	144.6255	198.2089	232.8561	385.4173	395.7914	454.6252	547.3959	589.4101	665.6334	698.2536	756.1595	789.9047	817.8842	925.8708	936.2311	1014.0734	1034.9324	1071.6018	1117.1302	1179.8715	1297.8458	1358.3106	1418.9471	1435.9838	1557.5309	1635.2912	1725.2697	1825.4828	2888.958	3204.4184	3469.3895	3606.2418
N=C1NN=NC(C=O)=C1	[NH]c1[nH]nnc(C=O)c1	
InChI=1S/C4H4N4O/c5-4-1-3(2-9)6-8-7-4/h1-2H,(H2,5,6,7)	InChI=1S/C4H9N4O/c5-4-1-3(2-9)6-8-7-4/h2-8H,1H2
