16
gdb 75701	2.19241	2.10496	1.18128	1.8264	70.23	-0.2597	-0.0277	0.232	1013.0805	0.125445	-437.957874	-437.949946	-437.949002	-437.990985	28.993	
C	 0.0815437537	 1.4476800017	 0.003251278	-0.34853
N	 0.0384849637	-0.0028089774	-0.00498835	-0.148534
C	 0.0160908251	-0.7550333895	-1.1826643358	 0.418597
O	-0.0157074218	-0.2840945715	-2.2928824205	-0.362169
C	 0.030752277	-2.2040924822	-0.7817465052	-0.162639
C	 1.2360892517	-2.6226894415	 0.0287716878	-0.287888
C	-0.0417592189	-2.2170846758	 0.7274569371	-0.162688
C	-0.0957849419	-0.7766173521	 1.1539664417	 0.423663
O	-0.2330684629	-0.3347688683	 2.2680431818	-0.36198
H	 1.019225388	 1.8073064061	-0.4290531297	 0.144504
H	-0.7469440244	 1.8534321651	-0.5825103367	 0.151102
H	-0.0003541434	 1.7712885378	 1.0412350585	 0.163495
H	-0.4739600203	-2.915589024	-1.4204387667	 0.127198
H	 1.4741490145	-3.6803329849	 0.0319692257	 0.138095
H	 2.0953059156	-1.9626671129	 0.0755943137	 0.140301
H	-0.6035174259	-2.9394431707	 1.3032294502	 0.127473
47.7414	127.3114	181.7997	210.0758	275.9663	341.2123	382.8106	519.5486	599.8282	638.0059	706.8413	756.1925	776.3335	831.2388	861.151	937.7419	961.2539	984.9295	999.6943	1077.9513	1096.828	1144.296	1149.5362	1159.8292	1190.1124	1292.0864	1321.9316	1338.4561	1400.4014	1455.5207	1488.718	1489.8518	1510.5944	1808.1952	1863.8637	3053.6469	3118.6687	3138.503	3160.7359	3214.5718	3218.7156	3231.124
CN1C(=O)C2CC2C1=O	CN1C(=O)[C@H]2C[C@H]2C1=O	
InChI=1S/C6H7NO2/c1-7-5(8)3-2-4(3)6(7)9/h3-4H,2H2,1H3	InChI=1S/C6H7NO2/c1-7-5(8)3-2-4(3)6(7)9/h3-4H,2H2,1H3/t3-,4+
