17
gdb 43764	3.87837	1.13994	1.02396	2.7631	73.31	-0.2517	-0.0159	0.2358	1170.4808	0.136397	-417.954569	-417.946771	-417.945827	-417.987567	29.617	
O	 0.3763521822	-0.0196192914	 0.1311558891	-0.290325
C	 0.2066926478	 1.1576044562	 0.1143504467	 0.420091
C	-1.0089668058	 2.0837672504	-0.0699238258	-0.465661
C	 0.0167623948	 3.2218886607	 0.0026506685	 0.344859
C	 0.7798032752	 3.116656656	 1.2540392491	-0.289482
N	 1.1961423735	 2.2203104401	 0.1261979737	-0.206438
C	 0.1051510649	 4.3939740907	-0.9039309535	-0.090969
C	-0.5798992041	 4.4330341044	-2.2197426744	-0.248224
N	-1.0731398737	 5.2616086236	-1.1063998526	-0.320178
H	-1.4645968592	 1.9323492701	-1.0510725189	 0.147007
H	-1.7858841109	 2.0525704434	 0.6980861218	 0.136393
H	 1.5287396898	 3.8735199187	 1.4635582567	 0.144451
H	 0.3349877249	 2.6656522733	 2.1382086029	 0.133535
H	 1.0345929805	 4.9493838792	-0.8000966124	 0.10275
H	-0.1271782791	 4.9883668264	-3.0357866354	 0.131021
H	-1.1637767455	 3.5728447088	-2.5333047022	 0.116353
H	-1.8952809653	 4.8246352394	-0.6938744734	 0.234816
50.4278	104.405	186.8892	255.5899	361.954	387.5413	464.2006	497.7029	568.4698	629.1935	668.8508	751.8669	820.2377	846.0733	862.6056	927.9839	955.0438	967.5161	979.5001	1020.6742	1026.8667	1092.7814	1113.219	1130.0291	1144.3922	1164.2366	1175.8448	1213.7418	1253.504	1292.5452	1300.9254	1345.3113	1449.4121	1458.3468	1507.954	1517.7063	1921.5496	3070.6627	3111.161	3118.3427	3128.3625	3133.6558	3202.5713	3205.6183	3486.0551
O=C1CC2(CN12)C1CN1	O=C1C[C@]2(CN12)[C@H]1CN1	
InChI=1S/C6H8N2O/c9-5-1-6(3-8(5)6)4-2-7-4/h4,7H,1-3H2	InChI=1S/C6H8N2O/c9-5-1-6(3-8(5)6)4-2-7-4/h4,7H,1-3H2/t4-,6+,8?/m1/s1
