14
gdb 131957	2.77532	1.60636	1.02384	4.2433	68.13	-0.2785	-0.0736	0.2049	1069.6369	0.101961	-469.953415	-469.945779	-469.944835	-469.986023	27.592	
C	-0.0340671862	 1.5080449171	-0.0623085713	-0.4841
C	-0.0121695249	 0.020529961	 0.0412538904	 0.305187
N	-0.0283861015	-0.7438564516	-1.044780316	-0.267608
N	-0.0008683997	-2.0213519859	-0.5874350124	-0.184765
C	 0.0327603523	-2.1158038057	 0.7488673071	-0.067035
C	 0.0265604077	-0.8080168521	 1.1966713624	 0.20671
N	 0.0547706023	-0.42122778	 2.5722106975	 0.340207
O	 0.0866199885	-1.3174837731	 3.41227357	-0.376775
O	 0.0453681589	 0.7809138494	 2.8253381738	-0.380138
H	 0.8482495024	 1.945842626	 0.4123440517	 0.149908
H	-0.0634186162	 1.7971570034	-1.1143440258	 0.13903
H	-0.9033475038	 1.9230421195	 0.4549625888	 0.149909
H	-0.0072801775	-2.7737238811	-1.2562860476	 0.290076
H	 0.0579027777	-3.0472078268	 1.2884674812	 0.179394
76.8118	147.6365	200.4024	209.0899	282.7354	337.7002	443.0046	549.5299	561.3979	651.8395	694.3635	699.4168	784.0425	844.3489	855.9561	940.6438	1009.3997	1068.7027	1069.1901	1138.7717	1210.1599	1306.669	1402.8952	1414.3703	1423.3511	1474.3198	1481.4012	1495.8122	1503.7211	1579.2801	1622.1883	3055.3425	3115.5395	3146.3104	3291.5665	3667.9435
CC1=NNC=C1N(=O)=O	Cc1n[nH]cc1N(=O)=O	
InChI=1S/C4H5N3O2/c1-3-4(7(8)9)2-5-6-3/h2H,1H3,(H,5,6)	InChI=1S/C4H5N3O2/c1-3-4(7(8)9)2-5-6-3/h2H,1H3,(H,5,6)
