19
gdb 42065	2.78969	1.48624	1.05423	1.3397	83.71	-0.2313	-0.0013	0.23	1149.2419	0.160211	-385.836214	-385.827853	-385.826908	-385.868879	32.127	
C	 0.02531111	 1.5422164412	-0.3492256986	-0.246236
C	 1.218619734	 1.7727053693	 0.6810827835	-0.333394
C	 2.0739894983	 0.5934633217	 0.7180943986	-0.036445
C	 2.4006708632	-0.5598370126	 0.5747914782	 0.165143
C	 2.4132867393	-2.0117918137	 0.3479524575	-0.217429
O	 1.1021715415	-2.565573676	 0.4146382707	-0.236756
C	 0.2187301408	-2.2848309692	-0.6873723908	-0.111779
C	 0.1566494265	-0.8204767366	-1.0355924273	-0.064449
C	-0.4391075661	 0.1187592584	-0.298642172	-0.024203
H	-0.7616897521	 2.2637049325	-0.1090807401	 0.104044
H	 0.4008995618	 1.774103724	-1.3506121557	 0.113789
H	 1.7558572552	 2.6838999693	 0.3966607935	 0.127095
H	 0.8000013839	 1.9563555669	 1.6776603263	 0.132489
H	 2.8946089394	-2.2465233159	-0.6152242352	 0.111772
H	 2.9807928548	-2.5335873072	 1.1258277213	 0.135343
H	 0.5309657349	-2.8756723591	-1.5614791211	 0.089826
H	-0.7503635206	-2.6641625743	-0.3490559922	 0.116403
H	 0.8207789192	-0.4961819509	-1.8353685313	 0.086252
H	-1.0791255741	-0.1723753478	 0.5340568548	 0.088535
99.3028	172.3195	176.6832	264.4356	272.1037	311.5301	351.2618	376.8102	441.8435	506.4077	547.9713	637.8639	749.0386	805.6834	849.0877	878.5014	899.8266	907.0506	981.3139	1015.8044	1030.0369	1065.0692	1081.7227	1112.9437	1136.9779	1196.2968	1203.5054	1248.5379	1293.9138	1301.4917	1328.992	1350.254	1355.8591	1374.7228	1395.5193	1475.2965	1476.587	1490.1277	1491.809	1710.9014	2327.8116	2974.411	2992.0797	3034.7729	3047.9231	3066.0214	3069.3219	3080.2239	3097.1242	3131.5297	3137.9815
C1CC#CCOCC=C1	C1CC#CCOC[CH][CH]1	
InChI=1S/C8H10O/c1-2-4-6-8-9-7-5-3-1/h3,5H,1-2,7-8H2/b5-3-	InChI=1S/C8H10O/c1-2-4-6-8-9-7-5-3-1/h3,5H,1-2,7-8H2
