19
gdb 50702	2.98961	1.38622	1.08299	1.5318	76.44	-0.2237	-0.0263	0.1974	1131.4276	0.1609	-419.178198	-419.170252	-419.169308	-419.210887	30.529	
O	-0.1022031758	-0.0814811217	 0.2286262974	-0.253221
C	-0.0245041431	 1.0925011841	-0.0280792759	 0.154166
C	 1.2843947284	 1.8463622539	-0.1473469538	-0.080982
N	 2.4101097891	 0.947929923	-0.2228361263	-0.300631
C	 3.6599259808	 1.6940421977	-0.2256385441	-0.167657
C	 3.7875533006	 2.4277595499	-1.5677859343	-0.130142
N	 2.545151544	 3.0746088703	-2.03567651	-0.105569
C	 1.5546948002	 2.2331825474	-2.7095411043	-0.239929
C	 1.2825697714	 2.7798216246	-1.3543557156	-0.009152
H	-0.9332246945	 1.7202431556	-0.1655459566	 0.082859
H	 1.3160281589	 2.5006003034	 0.7558249273	 0.078994
H	 2.3521955631	 0.2392958319	 0.4973754088	 0.235814
H	 3.7134972998	 2.4211113291	 0.6068860324	 0.083238
H	 4.5005941572	 1.0039551302	-0.1073874551	 0.106532
H	 4.5569113045	 3.2041657825	-1.4861519152	 0.104223
H	 4.1171873683	 1.7223691483	-2.3377946214	 0.110549
H	 1.0841936722	 2.6736601235	-3.5851398062	 0.110365
H	 1.7571727629	 1.1664430386	-2.7706021147	 0.128839
H	 0.6229216518	 3.6397454877	-1.2476589923	 0.091703
79.6953	126.0479	205.2271	229.4683	302.6345	366.2766	395.6742	467.1621	559.0453	617.7137	687.8338	729.9133	744.1097	794.2492	881.9154	908.3746	928.4204	965.3065	994.0972	1063.5861	1070.9192	1092.991	1116.2181	1123.862	1141.5664	1171.0485	1206.7142	1248.8171	1271.096	1304.5061	1316.6937	1341.7886	1371.5167	1395.4182	1406.8118	1431.5788	1466.6891	1487.9928	1503.049	1508.0746	1827.165	2821.3842	2884.8447	2919.109	3032.0214	3070.1271	3082.8328	3098.8347	3111.0957	3188.8818	3566.3766
O=CC1NCCN2CC12	O=C[C@H]1NCCN2C[C@@H]12	
InChI=1S/C6H10N2O/c9-4-5-6-3-8(6)2-1-7-5/h4-7H,1-3H2	InChI=1S/C6H10N2O/c9-4-5-6-3-8(6)2-1-7-5/h4-7H,1-3H2/t5-,6+,8?/m1/s1
