15
gdb 75764	2.58532	1.32495	1.16334	3.3275	68.09	-0.2945	-0.0143	0.2802	1095.0439	0.110461	-453.948897	-453.939791	-453.938847	-453.983015	32.185	
C	 0.2564273459	 1.3514672737	-0.1507477547	-0.423814
C	-0.0672489819	-0.1186273514	 0.0358954319	 0.20423
O	 0.7474431131	-0.9778051047	-0.8452807776	-0.270992
C	 1.4598174241	-1.4857807975	 0.2206456493	 0.381377
N	 2.5077501944	-2.1665818043	 0.2746644678	-0.53691
C	 0.6013661471	-0.8274002726	 1.2809895453	-0.024026
O	 1.2303513818	-0.0408211707	 2.2394957439	-0.411141
C	-1.4875885693	-0.4108889555	-0.1484586442	 0.265721
N	-2.6153381241	-0.6337463875	-0.2640927303	-0.321953
H	 1.3201415616	 1.5213972346	 0.0262081026	 0.132481
H	 0.0030155443	 1.6695385686	-1.1645981277	 0.151964
H	-0.3133357138	 1.9513603003	 0.563325854	 0.157373
H	 2.8750338972	-2.3939690633	-0.6505250844	 0.244087
H	-0.0969935735	-1.517472435	 1.7644299298	 0.141886
H	 2.1812410631	-0.0793731047	 2.0854747441	 0.309717
69.3821	112.2312	149.1395	186.1762	192.3311	233.7926	259.6844	375.7291	425.0214	452.3342	520.8971	595.5414	639.9496	684.6955	807.0821	870.136	875.9062	910.0735	937.5016	1011.3319	1096.589	1134.964	1185.214	1202.7457	1237.2346	1293.4194	1341.6124	1409.3322	1415.4854	1475.0326	1483.7169	1835.4179	2359.963	3058.9801	3070.7575	3139.6837	3145.3467	3486.2827	3806.0648
CC1(OC(=N)C1O)C#N	C[C@]1(O[C]([NH])[C@H]1O)C#N	
InChI=1S/C5H6N2O2/c1-5(2-6)3(8)4(7)9-5/h3,7-8H,1H3	InChI=1S/C5H6N2O2/c1-5(2-6)3(8)4(7)9-5/h3,7-8H,1H3/t3-,5+/m1/s1
