15
gdb 50457	4.6033	1.0399	0.87773	3.0696	68.68	-0.2726	-0.0579	0.2147	1229.8234	0.11244	-457.80892	-457.801112	-457.800168	-457.841988	28.199	
O	-0.4663005683	 0.596719062	 0.6901785483	-0.229467
C	 0.2342636528	 0.9154751002	-0.2338137376	 0.148009
C	 1.3164491732	 1.9803588783	-0.1697376874	-0.181467
C	 1.1373821897	 3.0198949754	-1.2835033504	-0.093243
O	 2.135631979	 4.0394950854	-1.2129277547	-0.238546
C	 2.3628433839	 4.6418214663	-0.0065464035	 0.422127
O	 3.0124794477	 5.6516695101	 0.0341161029	-0.328714
C	 1.8316140342	 3.9533855425	 1.1939905544	-0.218844
C	 1.3833246238	 2.6976406072	 1.1468622213	-0.039883
H	 0.1386082542	 0.4220365018	-1.2272124617	 0.09306
H	 2.2645566261	 1.4467442563	-0.3581651366	 0.135566
H	 1.2373992248	 2.5767801489	-2.2770584715	 0.131412
H	 0.1431064551	 3.4790996737	-1.2037880591	 0.128307
H	 1.9124730024	 4.516507654	 2.1158793205	 0.132161
H	 1.0512994314	 2.1681463078	 2.033666995	 0.139523
63.7789	100.834	181.9584	235.0669	275.3924	359.5601	441.993	451.4803	580.9387	636.9575	728.0995	761.8088	789.8017	847.5013	863.4789	948.7599	1011.4678	1017.6656	1078.499	1103.2486	1112.6011	1163.1896	1231.214	1253.7588	1284.0263	1334.6873	1390.3167	1417.2379	1434.4963	1505.4047	1692.9623	1831.9241	1837.9008	2882.0523	2966.4723	3023.8292	3105.6871	3192.3941	3217.0953
O=CC1COC(=O)C=C1	O=C[C@H]1COC(=O)C=C1	
InChI=1S/C6H6O3/c7-3-5-1-2-6(8)9-4-5/h1-3,5H,4H2	InChI=1S/C6H6O3/c7-3-5-1-2-6(8)9-4-5/h1-3,5H,4H2/t5-/m0/s1
