27
gdb 93830	2.19359	1.2832	0.97507	0.1463	95.42	-0.283	0.0766	0.3595	1403.8861	0.253502	-353.595858	-353.585868	-353.584924	-353.62978	39.787	
C	-0.1273483992	 1.5863556831	 0.0200556757	-0.403922
C	-0.0233054126	 0.0584900858	 0.0026620734	 0.039999
C	 0.6633857869	-0.4532179723	-1.2737650126	-0.181242
C	 0.7963530634	-1.9830620447	-1.2784333009	-0.225661
C	 1.535893391	-2.5260002549	-0.0378289556	 0.038834
C	 3.0438829652	-2.228876481	-0.0947543347	-0.397806
C	 0.8351938778	-2.0114961846	 1.2465408567	 0.031745
C	 1.4822883442	-2.5219155593	 2.5390921404	-0.415038
C	 0.7029385167	-0.4777167315	 1.2474789433	-0.179417
H	 0.8675961344	 2.0476263506	 0.0074176046	 0.109424
H	-0.6755183562	 1.9584633587	-0.8523630874	 0.10704
H	-0.6451483088	 1.9413983433	 0.9177610428	 0.106961
H	-1.0453658014	-0.3512028157	 0.0149582203	 0.063884
H	 0.1008149798	-0.1266101612	-2.1569145521	 0.085191
H	 1.6556024674	 0.0114046595	-1.3571989735	 0.090753
H	-0.2098382201	-2.4229503434	-1.3096556478	 0.086101
H	 1.3063918452	-2.3153773579	-2.1907045264	 0.083802
H	 1.4295476405	-3.619743954	-0.0441945717	 0.059804
H	 3.2639301942	-1.1580114138	-0.0473512564	 0.11519
H	 3.5810786848	-2.7110533245	 0.7268842452	 0.113035
H	 3.469420315	-2.6075661276	-1.0303637759	 0.1085
H	-0.1874727045	-2.4177104425	 1.2143422039	 0.063472
H	 2.4738446904	-2.0848383766	 2.6976020923	 0.114528
H	 0.8692738806	-2.2618509042	 3.408774728	 0.107491
H	 1.5966038893	-3.6116624685	 2.5253600795	 0.106268
H	 1.7001056677	-0.0181664905	 1.3095012677	 0.087976
H	 0.1695092885	-0.1595627922	 2.152616451	 0.083087
105.751	153.6025	203.398	218.5127	237.3656	246.654	267.2603	289.2049	350.077	388.5324	414.74	442.9165	453.1642	521.5107	616.0543	747.1435	799.5697	831.9936	866.8425	923.4328	939.6216	946.9823	962.7892	995.6321	1010.9017	1017.7901	1041.7457	1057.8307	1101.2927	1115.7369	1129.9719	1175.9277	1189.5931	1211.1784	1253.8475	1279.0857	1302.5456	1330.2702	1334.2392	1352.5914	1369.7818	1377.7968	1384.6686	1389.282	1399.5862	1410.8633	1414.227	1419.8088	1477.9549	1483.6216	1494.2361	1496.0637	1497.4357	1499.2353	1505.2731	1507.3992	1514.0552	2977.9725	2981.0196	2997.1579	3006.0427	3012.247	3014.3594	3022.1296	3027.0816	3038.8946	3042.918	3050.0176	3055.9952	3086.7002	3091.5379	3093.143	3095.5221	3100.9346	3112.3383
CC1CCC(C)C(C)C1	C[C@H]1CC[C@@H](C)[C@@H](C)C1	
InChI=1S/C9H18/c1-7-4-5-8(2)9(3)6-7/h7-9H,4-6H2,1-3H3	InChI=1S/C9H18/c1-7-4-5-8(2)9(3)6-7/h7-9H,4-6H2,1-3H3/t7-,8+,9-/m0/s1
