22
gdb 111318	2.34332	1.44064	1.22035	1.6472	82.39	-0.2322	0.0753	0.3075	1179.5471	0.192351	-404.299457	-404.289773	-404.288828	-404.333552	36.559	
C	 0.3280531214	 1.3051399185	 0.2712529276	-0.242223
O	-0.2052630568	 0.0517577069	-0.0971346301	-0.240106
C	 0.4651724063	-0.5372040933	-1.1820617428	 0.075161
C	 1.8598638756	-1.1153264857	-0.9341828888	-0.066893
C	 1.803233452	-2.1711733021	 0.0947979957	-0.249527
N	 1.4092164981	-2.5277213816	-1.2769483273	-0.154499
C	 0.0041520824	-1.9882636374	-1.5219934226	 0.285797
C	-1.0950698281	-2.6054482599	-0.6688669459	-0.435268
C	-0.2906943413	-2.1599973755	-3.0083502021	-0.427468
H	 1.3761106565	 1.223842934	 0.595403644	 0.112338
H	 0.2778655692	 2.0259921289	-0.560003346	 0.105084
H	-0.2705920834	 1.6827150029	 1.1034516163	 0.128155
H	 0.4332446584	 0.1300748135	-2.0559610799	 0.062342
H	 2.7928833931	-0.7161083123	-1.318519918	 0.089152
H	 2.7429621987	-2.6295094129	 0.3874863313	 0.118585
H	 1.0609086249	-2.1130798811	 0.8840652339	 0.123502
H	-0.9735254082	-2.3961659372	 0.3945675045	 0.126762
H	-2.0714279562	-2.210559341	-0.9661999322	 0.120166
H	-1.1057692339	-3.6908783154	-0.8157378712	 0.119019
H	-0.4107265944	-3.2200487747	-3.2522057831	 0.12111
H	-1.2103750303	-1.6324867789	-3.2828312842	 0.111809
H	 0.5306182359	-1.7688983258	-3.6163004994	 0.117001
78.5236	139.6708	163.9956	176.9205	215.8851	241.9509	281.1344	307.4293	322.0365	364.0123	479.4146	515.2387	570.023	644.689	761.1319	778.4361	831.5023	907.0341	949.0402	952.7466	978.2992	1009.7629	1013.7535	1043.7874	1061.5057	1108.0474	1127.7826	1156.7374	1180.8558	1182.5737	1195.8975	1221.7478	1252.0806	1278.5677	1292.791	1360.2074	1389.4844	1400.6275	1417.7917	1474.6601	1478.0868	1480.6672	1485.9371	1493.5955	1501.3237	1508.2619	1510.3215	2975.4723	2992.8366	3025.8941	3033.2434	3042.7281	3103.8861	3109.4374	3111.1549	3116.5734	3125.3471	3138.089	3159.8492	3211.9526
COC1C2CN2C1(C)C	CO[C@H]1[C@H]2CN2C1(C)C	
InChI=1S/C7H13NO/c1-7(2)6(9-3)5-4-8(5)7/h5-6H,4H2,1-3H3	InChI=1S/C7H13NO/c1-7(2)6(9-3)5-4-8(5)7/h5-6H,4H2,1-3H3/t5-,6+,8?/m1/s1
