17
gdb 37329	2.40745	2.37038	1.53362	3.9189	69.84	-0.2351	0.0545	0.2896	878.3997	0.139817	-417.938337	-417.932022	-417.931078	-417.96876	26.481	
N	-0.0464603001	 1.4508725755	-0.023009335	-0.340712
C	 1.2777403767	 0.8307080495	 0.0224212372	-0.021776
C	 2.1168223232	 0.892558126	 1.2679945878	-0.050835
N	 1.5640987521	 1.6211666414	 2.4166239246	-0.332494
C	 1.6948841305	 0.1621480749	 2.5097080126	-0.069584
C	 0.4412579421	-0.6621722998	 2.4947715059	 0.051642
O	-0.8132339545	 0.0032269747	 2.3680278976	-0.242682
C	-0.3580754844	-0.7662382332	 1.2508234508	 0.024769
C	 0.0339570201	-0.013676366	 0.0120098549	-0.050573
H	-0.2716953028	 1.7839753896	 0.9165768655	 0.260514
H	 1.8443088549	 0.9170801343	-0.9015922467	 0.087563
H	 3.186091109	 0.9653422275	 1.0874114984	 0.085708
H	 2.2979344531	 2.0819686703	 2.9459478444	 0.239729
H	 2.4843714082	-0.2399310183	 3.1396691161	 0.085735
H	 0.4337757354	-1.5029011212	 3.1879730774	 0.092551
H	-0.9264124335	-1.6787954434	 1.0762427093	 0.094288
H	-0.2571043099	-0.5019965018	-0.9147146507	 0.086157
192.2741	212.5673	332.2442	456.6855	466.2177	501.272	624.005	631.4209	756.4523	764.9365	775.3132	837.1238	846.879	863.8696	887.583	904.0037	940.8726	1006.0912	1031.7724	1058.0045	1065.4036	1093.7368	1118.3505	1133.2071	1155.5723	1177.0571	1210.9625	1215.0033	1246.0392	1283.6782	1329.7708	1358.3019	1398.5211	1411.3115	1420.5404	1454.0937	1462.8482	3106.1168	3116.8434	3125.5382	3137.504	3139.0253	3148.5097	3454.2555	3520.9105
N1C2C3NC3C3OC3C12	N1[C@H]2[C@H]3N[C@H]3[C@H]3O[C@H]3[C@@H]12	
InChI=1S/C6H8N2O/c7-1-2-4(8-2)6-5(9-6)3(1)7/h1-8H	InChI=1S/C6H8N2O/c7-1-2-4(8-2)6-5(9-6)3(1)7/h1-8H/t1-,2+,3-,4+,5-,6+
