19
gdb 97228	3.16192	1.36756	1.04034	2.1213	79.69	-0.232	0.0152	0.2473	1178.7885	0.160375	-419.183622	-419.175203	-419.174259	-419.2174	31.185	
C	 0.0948528879	 1.4299484472	 0.0972230658	-0.326921
N	 0.1393323484	-0.0215333472	 0.0526669743	-0.308326
C	 0.5427098912	-0.6090229829	-0.9887605642	 0.399196
O	 0.9878672216	 0.0548475308	-2.1027143026	-0.258408
C	 0.823808957	-0.6429027938	-3.3451397682	-0.090525
C	 1.5716732618	-1.9623045182	-3.3227028785	-0.160762
N	 1.0901258956	-2.8150773599	-2.2228941954	-0.104297
C	 1.8903111893	-2.8182964449	-1.0057823378	-0.237885
C	 0.5798211438	-2.103146466	-1.038401612	-0.101482
H	 0.9662458065	 1.8081986747	 0.6466334349	 0.125381
H	 0.0834860373	 1.9067561215	-0.8893502463	 0.117855
H	-0.7929759415	 1.7378585009	 0.6584964573	 0.120787
H	-0.24521945	-0.8068261261	-3.5346140071	 0.117836
H	 1.213179018	 0.02515745	-4.1168983546	 0.122126
H	 1.4146635199	-2.4918606826	-4.2695527821	 0.114587
H	 2.6471086173	-1.7643977299	-3.2290240454	 0.10985
H	 1.9691819459	-3.7707583871	-0.4890422601	 0.122477
H	 2.7916456053	-2.2079378187	-0.9840643468	 0.118952
H	-0.2729316955	-2.5688384479	-0.5553448912	 0.119558
45.376	89.9342	152.4251	218.191	274.0255	307.2498	399.4924	431.0295	480.1692	538.6588	682.7846	721.3434	731.6929	778.5706	882.5681	923.9551	965.9521	982.5753	1040.5207	1060.099	1067.5504	1096.3585	1114.8692	1124.5595	1130.3889	1167.0257	1172.3535	1241.9772	1255.5961	1290.0143	1310.0953	1372.8761	1388.9347	1417.2414	1436.2713	1490.2936	1491.0275	1496.5047	1502.9696	1513.9293	1772.6248	3015.0844	3018.4196	3023.5939	3062.9517	3071.7839	3093.5579	3094.7989	3108.0479	3162.6655	3185.3656
CN=C1OCCN2CC12	CN=C1OCCN2C[C@@H]12	
InChI=1S/C6H10N2O/c1-7-6-5-4-8(5)2-3-9-6/h5H,2-4H2,1H3	InChI=1S/C6H10N2O/c1-7-6-5-4-8(5)2-3-9-6/h5H,2-4H2,1H3/t5-,8?/m0/s1
