18
gdb 112131	3.13721	1.20706	0.92951	3.0747	76.33	-0.2481	0.001	0.2491	1243.13	0.148714	-439.075744	-439.067318	-439.066374	-439.109585	31.088	
O	-0.4454116211	 1.7596239237	-0.4883603316	-0.423289
C	-0.0989194366	 0.4057214566	-0.6320600677	-0.045716
C	-1.1495832762	-0.5127120087	 0.0483329488	-0.037477
C	-0.8412495498	-1.953006719	-0.2343646758	-0.041602
C	-0.6035181967	-2.9487559455	 0.612139795	-0.107444
C	-0.5743056469	-2.9007849439	 2.1085663433	-0.132636
O	-1.4319555661	-1.9697280163	 2.7762243522	-0.221793
C	-1.4377082094	-0.650492253	 2.4768545509	 0.122905
N	-1.3057462475	-0.0126335546	 1.3991433911	-0.2833
H	-0.7433925623	 1.8413312748	 0.4294089093	 0.287427
H	-0.051362444	 0.1855044877	-1.7037398162	 0.101599
H	 0.8895610304	 0.1818043264	-0.1968878267	 0.084472
H	-2.101655504	-0.2718979645	-0.4518783319	 0.116012
H	-0.8004219616	-2.1766048384	-1.299840728	 0.097907
H	-0.3639640629	-3.9292013301	 0.2057706813	 0.101177
H	-0.8754718851	-3.8713407177	 2.513137207	 0.130534
H	 0.4542965587	-2.7185197049	 2.4547567869	 0.128244
H	-1.6479554687	-0.0885337026	 3.3885757819	 0.122976
45.7592	112.5297	134.9047	199.4297	270.1026	364.0034	378.9274	421.1745	507.1677	532.1322	587.4553	691.1613	759.4708	796.8594	852.7938	894.9847	962.9568	971.6434	1008.9719	1010.4767	1034.7628	1075.8991	1097.6922	1116.6491	1183.4235	1223.4022	1259.9883	1267.7721	1289.3495	1366.775	1374.5932	1413.0154	1426.3424	1439.8783	1451.7403	1489.1424	1509.4052	1755.4077	1772.9329	2960.7599	2981.9403	2995.7905	3070.9118	3083.9517	3121.4724	3128.7079	3155.9403	3727.1334
OCC1C=CCOC=N1	OC[C@H]1C=CCOC=N1	
InChI=1S/C6H9NO2/c8-4-6-2-1-3-9-5-7-6/h1-2,5-6,8H,3-4H2	InChI=1S/C6H9NO2/c8-4-6-2-1-3-9-5-7-6/h1-2,5-6,8H,3-4H2/t6-/m1/s1
