15
gdb 132434	3.1924	1.37124	0.965	2.2725	73.88	-0.216	-0.0369	0.1791	1142.2042	0.113714	-458.143022	-458.135224	-458.13428	-458.175541	29.13	
C	-0.0175809356	 1.4858472439	 0.0502959277	-0.490572
C	-0.0035305535	-0.0116837816	-0.0499502011	 0.407638
N	-0.0359135861	-0.5953182377	-1.2092116635	-0.320838
C	-0.0197129042	-1.975614056	-1.2075016645	-0.126448
C	 0.0270935053	-2.7120102843	-0.0782791395	 0.178237
F	 0.0420328983	-4.0468255699	-0.0991278735	-0.07366
C	 0.0643543044	-2.0989157437	 1.2361193078	 0.281223
N	 0.1098902967	-2.6381845816	 2.3945032191	-0.570237
N	 0.0442848476	-0.7026299219	 1.1258341928	-0.358444
H	 0.8803398657	 1.8543548518	 0.5588380741	 0.144512
H	-0.0570929104	 1.9058306237	-0.9536108096	 0.163693
H	-0.8866483617	 1.8337441981	 0.6198172923	 0.144475
H	-0.0467755157	-2.4633545076	-2.1769219699	 0.126359
H	 0.1186214381	-3.6519155858	 2.3007035685	 0.227174
H	 0.068400211	-0.2100854074	 2.0092091592	 0.266888
97.8986	139.3077	160.5768	299.491	308.8174	388.6036	399.8592	458.2376	541.4817	581.9824	633.8192	704.0956	748.9204	754.8125	770.2905	825.0498	948.4968	983.5778	1015.7674	1063.8511	1115.7328	1215.4739	1274.0233	1291.3492	1316.3712	1406.2948	1419.5333	1470.6031	1482.8831	1504.805	1624.3832	1659.1292	1719.9512	3038.1779	3093.0496	3168.2769	3182.725	3516.3901	3590.5021
CC1=NC=C(F)C(=N)N1	CC1=NCC(=C([NH])N1)F	
InChI=1S/C5H6FN3/c1-3-8-2-4(6)5(7)9-3/h2H,1H3,(H2,7,8,9)	InChI=1S/C5H7FN3/c1-3-8-2-4(6)5(7)9-3/h7H,2H2,1H3,(H,8,9)
