17
gdb 127477	2.35718	1.64288	0.98057	2.126	73.03	-0.1916	0.0562	0.2477	1169.0038	0.137354	-451.337303	-451.327893	-451.326949	-451.37154	34.235	
C	 0.0285475557	 1.4093743577	-0.0883287462	-0.325399
N	 0.0220085755	-0.0284562611	 0.0048752346	-0.043604
N	-0.0304777116	-0.8007990733	-1.1357498479	-0.381389
C	-0.0187080988	-2.0536040741	-0.6976150139	 0.335274
N	-0.150603718	-3.1289526754	-1.578437405	-0.591833
C	 0.0572272648	-2.1239941301	 0.7188919718	-0.091839
N	 0.0718383846	-3.1924579172	 1.6583976991	-0.63659
C	 0.0787109032	-0.7968903491	 1.1053597636	 0.478825
O	 0.1349527536	-0.2776702063	 2.3448546486	-0.440552
H	 0.9095594426	 1.7572068742	-0.6373567384	 0.137036
H	-0.8682422673	 1.7604160642	-0.6077708315	 0.140247
H	 0.0466287926	 1.8221335555	 0.9213220458	 0.151244
H	 0.0011772834	-2.8364714265	-2.5360896029	 0.248742
H	 0.4588873995	-3.9037268486	-1.3492429647	 0.235384
H	 0.9073579677	-3.7660538636	 1.5919531537	 0.234996
H	-0.7268302798	-3.8099441702	 1.548789355	 0.243128
H	 0.1238730624	-1.0451265062	 2.9373869884	 0.30633
50.1835	129.6141	184.3519	218.9692	224.5403	277.1031	281.1289	285.6866	325.3867	395.0029	510.7891	586.3651	609.26	633.9134	660.0136	706.1542	755.2966	788.9707	824.8885	963.8389	1036.0504	1143.151	1148.2162	1154.422	1211.5145	1265.5871	1320.645	1347.2338	1451.8629	1477.3493	1479.0635	1513.7043	1541.9659	1623.7156	1632.2926	1654.0115	1682.7836	3038.5685	3096.3384	3149.7779	3482.9363	3529.9528	3546.351	3625.48	3726.893
CN1N=C(N)C(N)=C1O	Cn1nc(N)c(N)c1O	
InChI=1S/C4H8N4O/c1-8-4(9)2(5)3(6)7-8/h9H,5H2,1H3,(H2,6,7)	InChI=1S/C4H8N4O/c1-8-4(9)2(5)3(6)7-8/h9H,5H2,1H3,(H2,6,7)
