21
gdb 78263	2.51527	1.40192	1.13222	1.3128	83.4	-0.1984	0.0745	0.273	1199.6862	0.180891	-387.017405	-387.00828	-387.007335	-387.050391	35.802	
C	 0.0100896032	 1.5158090129	 0.0303150718	-0.418258
C	 0.0116101387	 0.0007862902	 0.0206619452	-0.035156
C	 1.3505236495	-0.6559702325	-0.219856927	-0.066824
C	 0.7352928238	-0.6615421071	 1.1676849252	-0.120191
C	 0.7503754934	-2.2178524848	 1.1893944154	 0.295062
C	 1.208016494	-2.9363589112	 2.4272326736	-0.48829
C	 0.0534084595	-2.8971746395	 0.0599172153	 0.028903
O	-1.2318494818	-2.5810073668	-0.4078022938	-0.417264
C	 1.3555254241	-2.2036382529	-0.2464148094	-0.193095
H	 0.9454131982	 1.9133561623	 0.4407240167	 0.10966
H	-0.1049975205	 1.916546096	-0.9827630519	 0.114372
H	-0.8126159002	 1.9042746659	 0.6403246272	 0.117908
H	-0.8871994043	-0.4572082286	-0.3670176359	 0.107862
H	 2.2073218892	-0.0860339661	-0.5579300065	 0.081781
H	 1.057432296	-0.0991907504	 2.0362450694	 0.079039
H	 0.4597624062	-2.8555027328	 3.2262127766	 0.122973
H	 1.3762053154	-4.0003364516	 2.2331966174	 0.11518
H	 2.1438838656	-2.5120186223	 2.8096276466	 0.117586
H	 0.2143868146	-3.9781838646	 0.1182302445	 0.085483
H	-1.2446526803	-2.7539910112	-1.3558726281	 0.283437
H	 2.2048669258	-2.764392715	-0.6219510522	 0.079832
169.3482	188.5921	197.5195	204.0807	241.5358	244.3085	280.7723	293.8678	335.9811	428.4836	508.7093	574.9773	635.2681	737.2624	767.6118	794.0745	829.3757	873.0976	902.6953	944.2005	962.9166	999.2395	1009.8854	1017.4087	1047.4287	1082.4642	1101.5876	1113.7948	1147.0353	1165.1116	1196.2187	1223.5376	1265.3612	1275.2814	1290.8521	1310.3189	1360.4814	1412.9772	1414.2189	1416.2279	1480.4842	1486.1003	1495.6131	1500.6187	1502.7087	3015.239	3024.3189	3050.2399	3071.5286	3089.0713	3091.3572	3098.2414	3161.367	3173.2614	3185.3515	3216.0912	3796.3139
CC1C2C1C1(C)C(O)C21	C[C@H]1[C@H]2[C@@H]1[C@@]1(C)[C@@H](O)[C@@H]21	
InChI=1S/C8H12O/c1-3-4-5(3)8(2)6(4)7(8)9/h3-7,9H,1-2H3	InChI=1S/C8H12O/c1-3-4-5(3)8(2)6(4)7(8)9/h3-7,9H,1-2H3/t3-,4-,5+,6+,7-,8+/m0/s1
