12
gdb 123303	6.76828	0.90716	0.79994	6.1987	79.49	-0.2602	-0.0492	0.211	1298.8717	0.079019	-394.533651	-394.526244	-394.5253	-394.565735	27.209	
C	 0.1159323651	-1.2054315253	-0.0059511612	-0.399916
C	 0.0043908396	-0.0072004306	 0.0025164056	 0.259968
C	-0.1058825762	 1.3976453235	 0.0121784616	 0.265158
C	-1.2028023955	 2.2432403921	 0.031716609	-0.406263
C	-0.6512694293	 3.5427759878	 0.0319547394	 0.249355
N	 0.6898262995	 3.516289945	 0.0139390342	-0.253143
N	 0.9881470561	 2.2210707347	 0.0024164719	-0.269107
C	-1.3596142231	 4.7770446744	 0.0485891516	 0.237712
N	-1.9713585392	 5.7586345785	 0.0624616199	-0.332253
H	 0.2055474118	-2.2641271983	-0.0133102523	 0.209167
H	-2.2415705291	 1.961815739	 0.0439079772	 0.145641
H	 1.9549910904	 1.9364857692	-0.0121175969	 0.293682
108.9359	118.3426	203.4859	218.4155	441.4282	481.5967	515.2435	523.2045	591.1398	591.8592	607.214	678.4442	693.6644	702.4999	726.0288	851.9254	1005.9093	1041.3038	1158.4147	1227.3669	1281.7461	1403.8534	1423.0083	1460.7188	1582.2425	2240.7654	2361.2909	3292.4739	3497.9256	3655.0321
C#CC1=CC(=NN1)C#N	C#Cc1cc(n[nH]1)C#N	
InChI=1S/C6H3N3/c1-2-5-3-6(4-7)9-8-5/h1,3H,(H,8,9)	InChI=1S/C6H3N3/c1-2-5-3-6(4-7)9-8-5/h1,3H,(H,8,9)
