14
gdb 131494	3.98513	1.19629	1.05433	2.6718	64.48	-0.2624	-0.0771	0.1853	1097.2208	0.10042	-469.92857	-469.921243	-469.920299	-469.960917	27.275	
O	 0.1471358132	 1.3981189507	 0.1333189074	-0.412409
C	 0.0315241571	 0.026186398	 0.032997217	 0.149692
C	-0.4326432118	-0.8395258193	 1.1525448272	-0.335717
C	-1.3418492028	-0.6672672632	-0.0684685988	-0.192476
C	-2.5358406939	 0.1607779975	 0.0345126967	 0.46694
N	-2.665665855	 1.2216748786	 0.7882386837	-0.207058
O	-3.9135343137	 1.687943094	 0.5220677777	-0.138494
N	-4.5066765163	 0.85543299	-0.4135998397	 0.052452
N	-3.6901837328	-0.0525746552	-0.7086075634	-0.217852
H	-0.5954774168	 1.751053045	 0.6441669385	 0.307807
H	 0.7942662978	-0.3634010132	-0.6325635514	 0.127504
H	 0.0193389011	-1.8148725258	 1.2944623224	 0.13274
H	-0.760040926	-0.3487728075	 2.0634474513	 0.142563
H	-1.4478507201	-1.4980876796	-0.7545978387	 0.12431
67.8387	140.4144	184.087	317.2903	372.6479	385.3421	460.5587	535.5431	665.6868	697.5521	725.2004	751.5052	792.0082	835.647	918.4256	964.76	1016.7994	1035.4665	1059.8118	1068.7386	1117.3312	1123.9283	1143.9983	1226.9351	1236.6738	1358.0517	1391.9242	1449.9627	1477.405	1503.3339	1588.6982	3133.9724	3177.7805	3196.1969	3227.8957	3729.874
OC1CC1C1=NON=N1	O[C@H]1C[C@H]1c1nonn1	
InChI=1S/C4H5N3O2/c8-3-1-2(3)4-5-7-9-6-4/h2-3,8H,1H2	InChI=1S/C4H5N3O2/c8-3-1-2(3)4-5-7-9-6-4/h2-3,8H,1H2/t2-,3+/m1/s1
