23
gdb 76340	1.80043	1.74415	1.20089	1.3281	80.97	-0.2419	0.0518	0.2936	1183.2308	0.203373	-425.423058	-425.41248	-425.411535	-425.457593	40.22	
C	-0.8356442374	 1.1163383659	-0.1830436524	-0.412367
C	 0.0210727943	-0.1419702977	-0.1592796114	-0.011353
C	 1.3605541309	-0.1541109655	-0.9377711805	 0.019678
O	 1.9405261164	 1.148540594	-0.984785596	-0.431869
C	 1.9822251787	-0.995975039	 0.2165013346	 0.110566
O	 3.2955015054	-0.6756960999	 0.5873694276	-0.439108
C	 0.7802653517	-0.5869961278	 1.1463612281	 0.263836
C	 1.1378312153	 0.5657468175	 2.0889780228	-0.457197
C	 0.1358746253	-1.7323795554	 1.9229567455	-0.458609
H	-0.256745831	 2.0046663962	 0.0770141049	 0.1314
H	-1.2577691139	 1.2790296125	-1.1805976738	 0.11179
H	-1.6713880365	 1.0316323146	 0.5198615532	 0.111421
H	-0.5763725358	-0.989714558	-0.5150650463	 0.06872
H	 1.3455692566	-0.5988419445	-1.9398874467	 0.061021
H	 2.6880173317	 1.1117967227	-1.5892633533	 0.292891
H	 1.963567006	-2.0685806298	-0.0010399547	 0.077267
H	 3.353847242	 0.2867766734	 0.5291140606	 0.277966
H	 1.5605689728	 1.4221187496	 1.5574829078	 0.122742
H	 0.2505893618	 0.915591167	 2.6277086236	 0.109532
H	 1.8711137687	 0.2330093275	 2.8305628058	 0.119492
H	 0.8006673746	-2.0932478925	 2.7163520628	 0.117479
H	-0.8013263347	-1.4155180477	 2.3962902873	 0.110068
H	-0.0931707128	-2.580410273	 1.2675830309	 0.104635
90.8608	159.595	188.3588	196.5522	216.7866	227.7534	242.854	254.806	266.3794	301.3337	341.6123	406.7708	499.4585	512.1269	539.2199	613.3476	690.8952	762.3283	798.8132	854.1201	889.2484	953.1204	970.6363	989.7635	1005.9463	1044.0271	1101.8025	1136.6072	1164.1501	1168.8122	1186.8969	1219.0327	1241.1933	1270.3696	1279.3848	1293.8202	1333.6993	1373.4829	1399.3835	1405.3373	1415.5628	1428.9028	1445.1385	1482.9396	1487.525	1492.7292	1498.8339	1502.8232	1518.0799	3015.9366	3020.7336	3033.0578	3034.1008	3040.1493	3061.5282	3081.4765	3086.9045	3092.9821	3098.7371	3115.6802	3131.7229	3766.0937	3828.2039
CC1C(O)C(O)C1(C)C	C[C@H]1[C@@H](O)[C@@H](O)C1(C)C	
InChI=1S/C7H14O2/c1-4-5(8)6(9)7(4,2)3/h4-6,8-9H,1-3H3	InChI=1S/C7H14O2/c1-4-5(8)6(9)7(4,2)3/h4-6,8-9H,1-3H3/t4-,5+,6+/m0/s1
