17
gdb 77165	2.88546	1.26111	1.0376	4.3387	68.53	-0.2723	0.0092	0.2815	1182.2082	0.134978	-458.968078	-458.959624	-458.95868	-459.001826	30.444	
C	-0.4529743323	 1.2593734219	 0.1675530929	-0.417348
C	 0.0497670542	-0.171233861	 0.0292006081	-0.20308
C	 0.9642098597	-0.5490290725	-1.16460224	 0.088009
O	 2.0421991353	-0.8941162785	-0.2341112695	-0.259366
C	 1.2776063683	-0.5512252408	 0.8591168953	 0.464447
O	 1.6027896165	-0.5646794582	 2.0007825675	-0.321384
C	 0.5394765665	-1.7142058174	-2.0152384431	 0.048192
C	 1.3453559858	-2.935829288	-2.1274383323	-0.169589
O	 0.1675095898	-2.8963178242	-1.3134006068	-0.232793
H	 0.3513190411	 1.9839948635	 0.006011214	 0.129752
H	-1.2497861352	 1.4656921406	-0.5533417427	 0.127443
H	-0.8542173408	 1.4218028099	 1.1717716794	 0.14674
H	-0.7549449071	-0.8973951738	 0.172184856	 0.134288
H	 1.2696898231	 0.2970000328	-1.7886511349	 0.098668
H	-0.1232206187	-1.4440419708	-2.8396262769	 0.102372
H	 1.2707686877	-3.5460019493	-3.0257411	 0.120931
H	 2.280592566	-2.9986626441	-1.577880877	 0.142717
69.8982	89.4308	168.8369	208.8115	216.4866	238.8967	314.587	412.6099	535.4854	619.4139	695.0626	739.8364	803.7909	838.2317	887.7954	900.6702	919.4465	990.3491	1067.0403	1080.4253	1085.9931	1116.5019	1129.4343	1134.7902	1167.2151	1172.9536	1240.7982	1267.2925	1287.8413	1337.8136	1385.5582	1413.3891	1432.9911	1496.5475	1497.1979	1521.3412	1943.1609	3040.776	3063.214	3085.7167	3095.1885	3102.9929	3112.6139	3119.8174	3200.0782
CC1C(OC1=O)C1CO1	C[C@H]1[C@@H](OC1=O)[C@H]1CO1	
InChI=1S/C6H8O3/c1-3-5(4-2-8-4)9-6(3)7/h3-5H,2H2,1H3	InChI=1S/C6H8O3/c1-3-5(4-2-8-4)9-6(3)7/h3-5H,2H2,1H3/t3-,4+,5+/m0/s1
