16
gdb 17140	4.09032	1.98712	1.6036	0.616	76.37	-0.2506	0.0413	0.292	824.2958	0.130751	-309.360378	-309.353901	-309.352957	-309.39068	26.321	
C	 0.0215880738	-1.1448109478	-0.0109045737	-0.379404
C	-0.0133507791	 0.0581114467	 0.0209788833	 0.090904
C	-0.0600578524	 1.4879129569	 0.0665493464	 0.275156
C	-0.7554261785	 2.41008923	 1.0973762195	-0.308986
C	-0.1046870892	 3.385100749	 0.1009085541	-0.074662
C	 1.1630940519	 2.481938563	-0.0857856325	-0.071664
C	 1.0495179088	 2.5018937666	-1.6213104538	-0.265151
C	-0.4095027892	 2.4638645364	-1.1304472955	-0.071664
H	 0.0527068137	-2.2056956841	-0.0395516293	 0.177374
H	-1.8490226041	 2.3739385439	 1.1166027907	 0.098857
H	-0.3487741932	 2.3911809449	 2.1132041707	 0.098857
H	-0.1144827169	 4.4747459363	 0.0968031061	 0.075464
H	 2.0513917898	 2.4759981669	 0.5476585056	 0.077991
H	 1.3722270574	 3.4193938404	-2.1229791996	 0.093604
H	 1.4129576029	 1.6180318802	-2.1531274907	 0.105334
H	-1.3375048758	 2.4370492907	-1.7035551813	 0.077991
141.5099	172.1957	376.1759	394.9225	505.1593	512.6661	561.9408	612.3844	643.456	715.3299	767.0718	866.2542	871.2423	875.4745	908.7877	925.7519	987.9435	1000.2453	1026.848	1045.3156	1080.7024	1095.8665	1126.1904	1157.3808	1161.025	1186.8314	1222.3183	1239.6705	1246.2506	1277.1999	1315.5632	1505.5537	1509.5481	2227.3387	3042.6222	3046.2929	3102.6124	3103.0919	3104.1949	3106.575	3123.4316	3502.3225
C#CC12CC3C1CC23	C#C[C@@]12C[C@H]3[C@@H]1C[C@@H]23	
InChI=1S/C8H8/c1-2-8-4-5-6(8)3-7(5)8/h1,5-7H,3-4H2	InChI=1S/C8H8/c1-2-8-4-5-6(8)3-7(5)8/h1,5-7H,3-4H2/t5-,6-,7+,8+
