22
gdb 82500	3.12464	1.46792	1.38082	0.9143	86.14	-0.2017	0.0923	0.294	1081.0243	0.195708	-367.165703	-367.157857	-367.156913	-367.197311	32.636	
C	 0.0177498898	 1.4542953452	-0.1821089992	-0.325975
N	 0.0016770073	 0.0058169678	-0.0220178057	-0.101972
C	-1.2288014034	-0.5272464198	 0.6723376718	-0.013819
C	-0.9508058484	-2.0320925264	 0.5277564441	-0.238124
C	 0.3228892144	-1.9994278153	 1.4121575855	 0.320264
C	 1.3486239504	-3.0967656697	 1.2646121723	-0.507616
C	-0.3017852912	-1.6132691536	 2.7842729801	-0.285329
C	-0.5876955165	-0.2656380461	 2.1082533867	-0.056906
C	 0.6734649402	-0.448346857	 1.218288713	-0.02429
H	 1.0173328617	 1.7694394765	-0.5008487169	 0.11612
H	-0.6872939499	 1.7365905936	-0.971169794	 0.115395
H	-0.2411956172	 2.0259138038	 0.7265027513	 0.091587
H	-2.1925271168	-0.1214575853	 0.363551629	 0.063537
H	-1.7238809847	-2.6851588829	 0.9436693716	 0.085522
H	-0.7652633659	-2.2936009753	-0.515687807	 0.101013
H	 1.7429031298	-3.1299846575	 0.2429779134	 0.122105
H	 2.193270525	-2.9515750779	 1.9471403501	 0.10986
H	 0.9112000273	-4.0782392248	 1.4832949764	 0.114922
H	-1.1282694633	-2.2254799745	 3.1596736404	 0.087964
H	 0.45461755	-1.4969982528	 3.5678718238	 0.09224
H	-0.8475888558	 0.6410049324	 2.6505272327	 0.070265
H	 1.6806450673	-0.0984221502	 1.4492175807	 0.063236
181.2859	215.4276	233.0044	245.2652	287.225	323.6318	419.877	479.23	506.8762	605.8269	657.8177	755.3859	771.2005	815.1071	823.9913	845.6722	894.0118	928.6639	946.3829	963.6676	989.3393	996.2764	1021.8916	1044.5464	1079.3052	1119.3748	1124.7258	1138.9874	1171.8218	1183.5555	1194.1092	1213.6488	1225.9043	1235.3278	1254.7209	1270.8785	1287.2675	1320.2302	1350.9641	1412.3241	1452.4188	1480.6523	1492.1156	1492.9468	1494.0508	1501.8747	1505.3169	2950.0488	3021.432	3035.7277	3054.6074	3056.1277	3083.9147	3088.6812	3092.7459	3092.9789	3107.237	3112.9421	3118.3573	3137.0438
CN1C2CC3(C)CC2C13	CN1[C@H]2C[C@]3(C)C[C@H]2[C@H]13	
InChI=1S/C8H13N/c1-8-3-5-6(4-8)9(2)7(5)8/h5-7H,3-4H2,1-2H3	InChI=1S/C8H13N/c1-8-3-5-6(4-8)9(2)7(5)8/h5-7H,3-4H2,1-2H3/t5-,6+,7+,8+/m1/s1
