14
gdb 125262	3.09552	1.42151	0.97999	4.2014	68.12	-0.2533	-0.0771	0.1762	1119.3087	0.100175	-473.845012	-473.837213	-473.836268	-473.877394	29.06	
C	-0.0442415452	 1.4883747829	-0.0264607883	-0.476063
C	-0.0601759153	-0.0057539885	 0.0098802724	 0.140789
C	-1.1575550908	-0.773791485	-0.1188419863	-0.243956
C	-1.0088126748	-2.2022448821	-0.0621766652	 0.448666
O	-2.133161615	-2.9315333933	-0.1954945923	-0.40526
N	 0.1041768775	-2.8322083262	 0.1043050894	-0.195748
O	 1.246858419	-2.0458892003	 0.2384895685	-0.258571
C	 1.2415760342	-0.6688435345	 0.2030779524	 0.42296
O	 2.2917961461	-0.0937920601	 0.3308544746	-0.331218
H	 0.6113047097	 1.8399206427	-0.8297649894	 0.160621
H	-1.0468136703	 1.895320673	-0.1726030992	 0.128174
H	 0.3770616566	 1.8845958058	 0.9030783737	 0.160638
H	-2.150555493	-0.3623318648	-0.2638046113	 0.135342
H	-1.8812218988	-3.8649029296	-0.1378119989	 0.313627
103.6244	145.2718	195.2728	277.4357	352.2955	368.9796	376.7309	476.844	497.9516	519.4428	587.6491	653.0376	688.6048	778.2794	810.9543	918.5829	944.4132	1010.6136	1058.9158	1067.5312	1102.9191	1192.4831	1259.2229	1358.1596	1415.6833	1458.1804	1465.7887	1489.3854	1634.413	1707.926	1819.335	3045.1164	3102.7969	3136.7238	3194.1704	3757.1085
CC1=CC(O)=NOC1=O	Cc1cc(O)noc1=O	
InChI=1S/C5H5NO3/c1-3-2-4(7)6-9-5(3)8/h2H,1H3,(H,6,7)	InChI=1S/C5H5NO3/c1-3-2-4(7)6-9-5(3)8/h2H,1H3,(H,6,7)
