19
gdb 114958	3.62662	1.01242	0.86961	2.3237	74.51	-0.2166	0.0636	0.2802	1388.7252	0.159439	-456.361915	-456.352428	-456.351484	-456.396815	33.396	
C	-0.0857301716	 1.4266712273	 0.0520314299	-0.318142
N	-0.0453984805	-0.019808305	-0.0674986344	-0.378128
C	 0.6698189994	-0.5912474676	-1.0725472854	 0.500635
N	 1.171292313	-0.0110807078	-2.0923940782	-0.36345
C	 1.752049974	-1.0778293445	-2.9058643327	-0.200721
C	 1.6732366549	-2.3470588268	-2.0302956277	 0.180991
O	 2.9372183875	-2.6621390799	-1.5513923822	-0.225293
C	 2.9828333771	-3.8389337688	-0.7625873237	-0.242524
O	 0.7933542294	-1.9520976045	-0.9555330454	-0.275418
H	 0.8733822619	 1.8562813196	 0.3709718156	 0.125077
H	-0.3364022946	 1.8530849133	-0.9208586721	 0.16056
H	-0.8590985346	 1.702774655	 0.7725196587	 0.121911
H	-0.0833998818	-0.5616014284	 0.7809303089	 0.250168
H	 1.197376011	-1.2030334295	-3.8440559938	 0.104809
H	 2.7970560378	-0.8713147623	-3.156021342	 0.120651
H	 1.207518436	-3.2231090113	-2.5010936311	 0.074976
H	 4.0302300846	-4.0096499914	-0.5058876421	 0.131328
H	 2.3965443044	-3.7297336484	 0.157325244	 0.123679
H	 2.6038667722	-4.7076464589	-1.3214735764	 0.108891
62.8487	111.819	118.3706	147.3046	181.2729	211.7688	237.5774	290.7665	418.8665	431.033	482.9117	581.7912	714.3951	737.3217	803.988	857.7249	941.0458	963.1043	1016.1773	1047.9462	1080.8608	1109.0388	1151.1223	1154.9158	1179.9354	1197.0597	1199.253	1243.9074	1282.3509	1339.9024	1348.6448	1402.182	1452.0665	1479.3266	1483.9753	1485.7581	1495.4431	1508.5337	1511.5073	1553.7041	1755.778	2993.7791	3015.1572	3015.4155	3031.48	3064.8825	3081.8966	3098.1057	3128.3374	3143.2756	3640.1839
CNC1=NCC(OC)O1	CN[C]1[N]C[C@@H](OC)O1	
InChI=1S/C5H10N2O2/c1-6-5-7-3-4(8-2)9-5/h4H,3H2,1-2H3,(H,6,7)	InChI=1S/C5H10N2O2/c1-6-5-7-3-4(8-2)9-5/h4H,3H2,1-2H3,(H,6,7)/t4-/m0/s1
