17
gdb 102775	2.30519	1.22638	0.91717	4.968	66.75	-0.2659	-0.0352	0.2307	1279.9755	0.132287	-496.131434	-496.121563	-496.120619	-496.166955	34.234	
C	 0.0808644679	 1.3811735103	-0.4475493353	-0.494222
C	 0.0120547807	-0.0051339006	 0.1502741958	 0.396201
O	 0.949661607	-0.534102131	 0.6942269623	-0.284225
C	-1.3449858718	-0.738919246	 0.0638615999	-0.042091
C	-1.9689981585	-0.679595387	-1.3305928836	-0.082719
O	-1.0638156648	-1.1306193238	-2.316038823	-0.417381
O	-1.1778493788	-2.1248233444	 0.3453957199	-0.198225
C	-0.8370316434	-2.4895917668	 1.6071941782	 0.188312
O	-0.5982837178	-3.621701142	 1.891799631	-0.27251
H	 0.9943100858	 1.875439821	-0.1158839291	 0.152714
H	 0.093713357	 1.2890603996	-1.5392839936	 0.176355
H	-0.7926483645	 1.9835600419	-0.1766997069	 0.136764
H	-2.0275769579	-0.2734049478	 0.7931297985	 0.10897
H	-2.8964018479	-1.2689572139	-1.3194070766	 0.117914
H	-2.2279733439	 0.3517438076	-1.5840232553	 0.12181
H	-0.8161450644	-2.0332655978	-2.0819914707	 0.304606
H	-0.8525223947	-1.6466595691	 2.3190197186	 0.087727
60.7311	87.7089	98.0185	134.8648	196.3557	213.2338	277.3571	279.6123	358.9482	389.3256	441.0712	478.816	577.5194	623.6614	711.1844	789.9635	924.1278	965.0488	971.5954	1029.4489	1058.578	1085.7204	1120.7356	1160.8803	1196.0412	1236.3901	1280.796	1345.0468	1381.5721	1395.5825	1423.7881	1434.4903	1466.2404	1478.721	1498.8204	1823.5646	1873.6725	2983.9087	2996.0457	3016.226	3041.1648	3100.7064	3106.9513	3156.7451	3796.3469
CC(=O)C(CO)OC=O	CC(=O)[C@@H](CO)OC=O	
InChI=1S/C5H8O4/c1-4(8)5(2-6)9-3-7/h3,5-6H,2H2,1H3	InChI=1S/C5H8O4/c1-4(8)5(2-6)9-3-7/h3,5-6H,2H2,1H3/t5-/m1/s1
