20
gdb 104257	2.17306	1.30503	1.09108	4.5892	79.31	-0.2747	0.0288	0.3035	1231.1227	0.169665	-403.162095	-403.152407	-403.151463	-403.196498	35.897	
C	 0.1825539378	 1.5444752695	 0.1865710634	-0.419641
C	 0.2826096229	 0.0191769739	 0.0718431216	-0.222411
C	 0.6954662291	-0.4666746775	-1.3200530024	 0.397347
O	-0.2271190029	-0.0886869045	-2.3168262848	-0.479937
C	 2.2090943881	-0.2495180683	-1.6529209905	-0.285599
C	 2.4861132878	-1.7271827787	-1.2778648553	-0.240089
C	 0.9578513937	-2.0090733807	-1.4083249533	-0.169226
C	 0.3220945546	-2.8954228555	-0.4502146592	 0.272138
N	-0.1713994283	-3.586920604	 0.3347568457	-0.342963
H	 1.1229890204	 2.0377598381	-0.0815024177	 0.124044
H	-0.6088689159	 1.9531433347	-0.4529375613	 0.114484
H	-0.063378699	 1.8360110099	 1.2111727078	 0.131185
H	 1.005113582	-0.3547248962	 0.8065463254	 0.10977
H	-0.680799839	-0.4373439923	 0.3240345008	 0.127594
H	-0.3970141359	 0.8559413782	-2.2384538141	 0.282063
H	 2.3340136246	-0.0654333103	-2.7223684457	 0.114849
H	 2.7439046801	 0.5178675226	-1.0894794302	 0.104339
H	 3.1353774521	-2.3050344088	-1.9360361916	 0.12012
H	 2.8315302812	-1.8450818222	-0.2491855491	 0.126365
H	 0.7079486465	-2.3297014979	-2.4229720795	 0.135567
93.0743	105.0278	120.1708	191.0635	210.3787	229.8128	267.3277	329.3535	355.0722	407.9874	448.3795	533.3803	595.1831	634.0791	709.2194	784.9093	796.9269	871.2942	930.285	957.0381	970.8619	1008.3323	1029.8517	1063.5409	1080.7254	1107.3273	1162.1468	1185.2515	1213.1606	1244.9648	1265.4288	1275.6507	1311.3349	1333.2936	1356.168	1389.2959	1414.5402	1473.8868	1481.9971	1498.6617	1500.8361	1510.657	2350.6444	3029.4077	3039.6767	3070.3585	3074.1572	3083.3388	3086.7668	3097.0225	3113.0749	3124.4365	3143.9825	3813.6648
CCC1(O)CCC1C#N	CC[C@@]1(O)CC[C@H]1C#N	
InChI=1S/C7H11NO/c1-2-7(9)4-3-6(7)5-8/h6,9H,2-4H2,1H3	InChI=1S/C7H11NO/c1-2-7(9)4-3-6(7)5-8/h6,9H,2-4H2,1H3/t6-,7+/m0/s1
