18
gdb 133746	2.38402	1.22511	1.1754	1.6508	60.45	-0.2861	0.0687	0.3548	1154.4095	0.141373	-570.608581	-570.598666	-570.597722	-570.643138	36.514	
C	 0.0948461173	 1.5789634632	-0.0884115554	-0.401197
C	-0.0020809433	 0.0611665242	 0.0847732461	-0.216022
C	-1.4503235546	-0.47734862	 0.0634885268	 0.208833
C	-2.3059434411	 0.0468770912	 1.2155237395	-0.425623
O	-2.1214799667	-0.1172620843	-1.1362724818	-0.463339
C	-1.4073074857	-2.0181862919	 0.1180678162	 0.269451
F	-0.7178453952	-2.4642939708	 1.179564907	-0.079391
F	-2.6273184414	-2.5593241652	 0.1715217046	-0.070155
F	-0.8058438867	-2.5069657175	-0.9883676931	-0.099182
H	 1.1396896109	 1.8810161968	-0.2030333498	 0.116854
H	-0.4556945419	 1.9042816827	-0.975037607	 0.130271
H	-0.3089507222	 2.1158268193	 0.7747916558	 0.121994
H	 0.5510327714	-0.4344062151	-0.7225610594	 0.102882
H	 0.4776178588	-0.2502343802	 1.0181765676	 0.114091
H	-2.3791783641	 1.1337856381	 1.1550133358	 0.134153
H	-3.3126098984	-0.3694953505	 1.1519512988	 0.141385
H	-1.8680907978	-0.2267920229	 2.1785734105	 0.128601
H	-1.6321050693	-0.4980984773	-1.874987052	 0.286395
79.6845	96.5667	181.7976	199.3628	216.3599	261.1671	301.5667	330.0593	342.5806	361.1588	374.8945	439.5057	466.0246	570.5645	582.3267	647.5021	748.6659	793.5535	871.2632	945.7512	1008.82	1019.7075	1064.9238	1125.9066	1145.2748	1191.6645	1210.5757	1229.3695	1284.4802	1314.764	1370.9572	1391.4518	1411.8015	1422.1175	1483.2048	1488.9997	1499.7616	1509.7844	1513.1604	3035.9248	3047.5554	3064.3059	3081.635	3113.5805	3125.5774	3142.8516	3149.4112	3797.4973
CCC(C)(O)C(F)(F)F	CC[C@@](C)(O)C(F)(F)F	
InChI=1S/C5H9F3O/c1-3-4(2,9)5(6,7)8/h9H,3H2,1-2H3	InChI=1S/C5H9F3O/c1-3-4(2,9)5(6,7)8/h9H,3H2,1-2H3/t4-/m1/s1
