15
gdb 82017	2.6173	1.45189	1.32544	1.7319	66.14	-0.246	-0.0022	0.2438	1005.3849	0.111523	-453.897295	-453.888849	-453.887905	-453.930132	31.378	
N	-0.0961836414	 1.4703839525	 0.1325112086	-0.498611
C	-0.0128958483	 0.0487508749	 0.0154846567	-0.105192
C	-1.3577183129	-0.6801623346	 0.0145923909	 0.060574
O	-2.073786177	-0.2007393566	-1.130251103	-0.243077
C	-1.1439957153	-1.2604286198	-1.3230043731	-0.020847
C	 0.2449065952	-0.6190398242	-1.4564594164	 0.239281
O	 0.3486215035	 0.2547164598	-2.5460707297	-0.453041
C	 1.3292966978	-1.5997451423	-1.4196153548	 0.209813
N	 2.2119305876	-2.3460836744	-1.3687219538	-0.3309
H	 0.8138072262	 1.9127305872	 0.0708409211	 0.234095
H	-0.6848313721	 1.8429900451	-0.605727926	 0.25386
H	 0.6902097503	-0.3628130489	 0.7430404761	 0.108151
H	-1.9387725034	-1.0465142673	 0.8515682415	 0.121887
H	-1.4962965289	-2.1803493303	-1.7722724398	 0.129955
H	 1.2418267087	 0.6166508989	-2.5699465283	 0.294052
111.0148	148.3081	181.6624	214.3475	235.3608	277.1078	316.336	430.9086	487.4589	513.7422	564.798	636.2254	678.6035	775.0907	831.7696	849.7565	870.0363	913.037	953.5768	1013.3101	1051.0753	1060.1113	1121.686	1160.4398	1223.177	1228.7869	1253.9575	1268.3135	1365.5404	1378.7522	1423.1938	1653.3846	2339.482	3096.4456	3198.2551	3211.8657	3512.9451	3598.0456	3804.9055
NC1C2OC2C1(O)C#N	N[C@H]1[C@H]2O[C@H]2[C@]1(O)C#N	
InChI=1S/C5H6N2O2/c6-1-5(8)3(7)2-4(5)9-2/h2-4,8H,7H2	InChI=1S/C5H6N2O2/c6-1-5(8)3(7)2-4(5)9-2/h2-4,8H,7H2/t2-,3+,4-,5+/m1/s1
