27
gdb 121838	3.81027	0.63485	0.62261	1.3	93.14	-0.2588	0.0643	0.3231	2018.8609	0.249013	-390.711392	-390.699263	-390.698319	-390.748829	44.541	
C	 0.1582855197	 1.5515008765	-0.1509737543	-0.379904
C	 0.0484326592	 0.025793881	-0.0827139363	-0.164959
C	-1.3947003005	-0.4658846069	 0.0772344141	-0.169835
C	-1.5005324237	-1.9926476244	 0.1617105136	-0.213319
C	-2.9348893706	-2.5674835855	 0.1069152469	 0.344832
C	-3.8046028709	-2.0377858979	 1.2503283637	-0.402293
O	-3.5897969423	-2.126863204	-1.0932552818	-0.458326
C	-2.8540541507	-4.1121672569	 0.1208836109	-0.193912
C	-4.1952727849	-4.8361814167	-0.0288776896	-0.392562
H	 1.1975013832	 1.8740443323	-0.2702238192	 0.10893
H	-0.4142373828	 1.9514141017	-0.9953276514	 0.113843
H	-0.2323471319	 2.0170920275	 0.7607521028	 0.112888
H	 0.4834436737	-0.4136821891	-0.9906409009	 0.089926
H	 0.6560993704	-0.3480148238	 0.7525042707	 0.091664
H	-1.8262901856	-0.0099996218	 0.9770218434	 0.093421
H	-2.002487459	-0.1150497523	-0.7652915424	 0.103664
H	-0.9348352229	-2.43368759	-0.6732710357	 0.076065
H	-1.0080256238	-2.3512557445	 1.0753493829	 0.090972
H	-3.8802451158	-0.9492561661	 1.2049580894	 0.124089
H	-4.817251285	-2.4410917183	 1.1822851892	 0.122358
H	-3.3818558698	-2.3181140874	 2.2199687938	 0.107856
H	-3.0692127889	-2.4413271295	-1.8409245676	 0.272876
H	-2.1887112723	-4.416112796	-0.7002794902	 0.079699
H	-2.3533344394	-4.4320305849	 1.0433427121	 0.093177
H	-4.7447490918	-4.4503448738	-0.8918396827	 0.125152
H	-4.040598677	-5.9101607814	-0.1707441687	 0.106819
H	-4.8286166565	-4.7112806877	 0.8542998876	 0.116881
64.7194	67.1325	103.8229	113.725	148.1056	200.8768	226.2559	250.3857	255.0071	290.774	317.634	331.6498	347.5343	391.4246	435.7154	476.1599	587.2682	737.9161	752.5025	781.9299	796.4088	888.6304	905.584	926.0502	944.4823	1001.8735	1004.4608	1023.4049	1059.5609	1079.4013	1103.7609	1109.9156	1157.7443	1182.3886	1215.6659	1247.2527	1284.6349	1291.4619	1312.5367	1330.8011	1367.1763	1368.6755	1387.1148	1397.478	1408.5952	1413.2863	1427.1102	1469.5408	1484.6206	1486.2001	1488.4759	1496.3514	1500.335	1501.523	1509.7187	1514.6231	1515.5459	2987.5858	3003.4386	3008.7716	3026.5656	3030.1719	3034.1475	3035.876	3043.0962	3048.3794	3052.5282	3074.4572	3095.9735	3100.1295	3106.2942	3120.7997	3124.5724	3132.3109	3796.0865
CCCCC(C)(O)CC	CCCC[C@@](C)(O)CC	
InChI=1S/C8H18O/c1-4-6-7-8(3,9)5-2/h9H,4-7H2,1-3H3	InChI=1S/C8H18O/c1-4-6-7-8(3,9)5-2/h9H,4-7H2,1-3H3/t8-/m0/s1
