18
gdb 14049	4.55335	1.61482	1.51361	1.136	67.34	-0.247	0.0844	0.3314	902.4504	0.155162	-384.930212	-384.923067	-384.922123	-384.962	27.043	
C	 0.143572581	 1.4157517468	-0.4994260998	-0.215905
C	 1.4029117262	 1.6255568316	 0.3859037274	-0.276292
C	 1.3127397652	 0.1299160554	 0.7910503401	 0.427406
C	-0.1540490098	 0.1144733876	 0.2981871966	-0.285876
C	 2.2835667867	-0.8240736077	 0.0787256492	-0.162188
O	 3.316868542	-1.0059720373	 1.0343780669	-0.237045
C	 2.6412241952	-1.0435744735	 2.2645152816	 0.011837
O	 1.5371024396	-0.1616700087	 2.1651541115	-0.304386
H	-0.6170040472	 2.1978164285	-0.4767948565	 0.104533
H	 0.3978146174	 1.2106046266	-1.5429234044	 0.103549
H	 2.3274135568	 1.9681335399	-0.0862338071	 0.099029
H	 1.1887879622	 2.2565258896	 1.2522021739	 0.112442
H	-0.8339400293	 0.2946510695	 1.1344810066	 0.116648
H	-0.4933104622	-0.7683924522	-0.2516535709	 0.09428
H	 1.7876725505	-1.7815243109	-0.1511728507	 0.09223
H	 2.7220497287	-0.4181292484	-0.8349287939	 0.119905
H	 2.2794360334	-2.0638726808	 2.4868318594	 0.084414
H	 3.3239794936	-0.7087674259	 3.0525445902	 0.11542
61.122	130.0046	222.5449	282.6171	372.9767	411.1612	473.1064	680.1495	739.4292	779.6804	790.6684	866.79	919.0357	922.6394	938.3496	971.3562	982.9684	1026.1187	1040.8484	1114.082	1129.197	1153.0405	1177.0088	1194.4452	1202.7639	1210.7912	1245.3333	1262.2577	1274.6322	1279.3458	1310.9678	1366.4561	1433.5815	1471.0306	1485.5323	1504.4781	1512.1353	1548.2113	2937.054	2971.4968	3053.9653	3060.2681	3067.4624	3068.055	3107.1483	3110.6241	3116.1367	3129.1862
C1CC2(C1)COCO2	C1CC2(C1)COCO2	
InChI=1S/C6H10O2/c1-2-6(3-1)4-7-5-8-6/h1-5H2	InChI=1S/C6H10O2/c1-2-6(3-1)4-7-5-8-6/h1-5H2
