17
gdb 16151	4.44969	1.69962	1.44971	1.8284	67.52	-0.2416	0.0182	0.2598	903.2128	0.142995	-363.866052	-363.858839	-363.857895	-363.897508	27.508	
C	 0.000171046	 1.5276097048	 0.2364033549	-0.376085
C	-0.0165472151	 0.0439880626	-0.1529677139	-0.273402
C	-1.3858474376	-0.5696736908	-0.080401262	 0.421862
C	-2.0378995718	-1.0658758218	 1.1803803574	-0.347874
C	-1.7889206281	-2.0322955192	 0.0349938104	-0.07957
N	-2.8907361195	-2.2219668468	-0.8828936953	-0.259079
C	-3.1023687646	-1.0776857652	-1.3966123529	 0.092069
O	-2.3022903508	-0.0380932673	-1.0460482864	-0.249093
H	 1.0122745232	 1.9373798358	 0.1700813816	 0.113264
H	-0.6463259648	 2.1091393821	-0.4268831111	 0.133946
H	-0.3569839277	 1.6685567255	 1.2615770556	 0.119429
H	 0.3745608234	-0.0820009968	-1.1698180856	 0.110879
H	 0.6435742438	-0.5268456681	 0.510444589	 0.105386
H	-1.388429376	-1.1615406617	 2.0440103037	 0.119856
H	-3.0629078621	-0.784900848	 1.3981985298	 0.123945
H	-1.1021742473	-2.8617365673	 0.1555160876	 0.102745
H	-3.875302671	-0.8340968078	-2.1152614328	 0.141721
86.0217	159.1691	212.9068	295.7128	356.2257	398.1989	427.8365	601.4381	666.0475	742.5961	782.7224	817.0151	857.649	915.7363	936.6074	951.3068	983.0981	992.4895	1032.8021	1055.762	1083.9646	1102.0156	1130.0886	1137.7252	1220.4192	1257.7689	1299.8022	1342.5329	1356.5451	1404.199	1412.3897	1467.0382	1474.9641	1498.7444	1509.0751	1666.7248	3031.7742	3041.0213	3069.0702	3110.655	3119.4315	3128.7812	3180.3175	3222.2965	3229.0657
CCC12CC1N=CO2	CC[C@]12C[C@H]1N=CO2	
InChI=1S/C6H9NO/c1-2-6-3-5(6)7-4-8-6/h4-5H,2-3H2,1H3	InChI=1S/C6H9NO/c1-2-6-3-5(6)7-4-8-6/h4-5H,2-3H2,1H3/t5-,6+/m1/s1
