19
gdb 20021	4.20656	1.30641	1.17626	1.7341	71.52	-0.2441	0.0864	0.3305	1098.8501	0.165689	-365.017413	-365.009113	-365.008169	-365.050484	30.433	
C	 0.5669211467	 1.2175044745	 0.3175329327	-0.376271
C	-0.2468929441	 0.000965535	-0.1416086531	-0.232003
C	 0.3055218937	-0.6004826015	-1.4115025273	 0.085421
O	 1.5575396704	-1.3117739434	-1.33405962	-0.266993
C	 0.3824301854	-2.0424972405	-1.7016300228	 0.014715
C	-0.055303862	-3.1147741117	-0.7461896872	-0.031388
C	 0.8922483117	-4.2038678123	-0.3986510161	-0.239349
N	 0.5298371345	-3.1799698901	 0.5983259958	-0.315227
H	 1.6045428724	 0.9344464562	 0.5186265804	 0.131442
H	 0.5775790534	 2.0010916476	-0.4481008896	 0.115133
H	 0.1480366192	 1.6480184847	 1.2315377297	 0.116967
H	-0.2829786335	-0.7537606274	 0.6483244622	 0.130974
H	-1.2850651996	 0.3001056361	-0.3378413483	 0.103116
H	 0.2620649124	 0.0652529139	-2.2772529344	 0.089704
H	 0.3540499399	-2.3392470061	-2.7527126854	 0.094848
H	-1.1183174358	-3.3463967928	-0.7876131854	 0.097629
H	 0.5211805674	-5.2033977891	-0.1916587283	 0.118282
H	 1.8868596146	-4.1627951116	-0.8350470243	 0.121658
H	 1.2843903433	-2.4953180713	 0.6304305612	 0.241344
71.7668	112.2037	146.2014	198.8205	241.5485	263.1171	333.3169	466.7534	552.1461	631.5007	744.7192	761.6206	836.6544	857.1714	866.7501	941.7608	953.7959	992.4197	1004.3158	1036.3713	1089.8027	1110.33	1126.4051	1143.0473	1161.0947	1182.5897	1199.852	1278.3909	1294.9131	1296.0684	1318.0528	1347.9971	1389.781	1410.5132	1423.9602	1482.8186	1486.6092	1499.5899	1509.7943	1510.4233	3029.2743	3036.7178	3071.0883	3083.9186	3093.9897	3110.1215	3113.0345	3116.3789	3122.3571	3198.1227	3478.9842
CCC1OC1C1CN1	CC[C@H]1O[C@H]1[C@H]1CN1	
InChI=1S/C6H11NO/c1-2-5-6(8-5)4-3-7-4/h4-7H,2-3H2,1H3	InChI=1S/C6H11NO/c1-2-5-6(8-5)4-3-7-4/h4-7H,2-3H2,1H3/t4-,5-,6+/m1/s1
