17
gdb 73923	2.70084	1.43301	1.01065	5.7426	79.8	-0.2129	-0.0328	0.1801	1149.6248	0.137384	-418.009238	-418.00126	-418.000316	-418.041636	30.803	
N	 0.1104195983	 1.3571329621	 0.1651914613	-0.604062
C	 0.0102195667	 0.0002563621	 0.0565185217	 0.32531
C	-1.1005883187	-0.7958412734	 0.0066754868	 0.136461
C	-0.7270294036	-2.2676342048	 0.0442344277	-0.303172
C	 0.7948108051	-2.2501353416	 0.0069710416	-0.044429
N	 1.3563028574	-1.6335804566	-1.2101838764	-0.326845
C	 1.2485078986	-0.832320989	 0.0437094607	-0.151379
C	-2.464468312	-0.3474487844	-0.0974529951	 0.056917
O	-3.4393029472	-1.077250681	-0.1455979741	-0.304581
H	 0.9452482108	 1.7888395611	-0.1986441555	 0.262866
H	-0.7252005616	 1.9087257145	 0.0477297088	 0.264964
H	-1.0928621004	-2.7535492388	 0.9569365806	 0.11302
H	-1.150227464	-2.8188742828	-0.801672936	 0.12997
H	 1.3634066397	-3.0309106524	 0.5002561319	 0.094734
H	 2.3246526937	-1.9366997985	-1.3052706326	 0.232451
H	 2.14973227	-0.4921373875	 0.5435344004	 0.096398
H	-2.6018490829	 0.7619051911	-0.1358783118	 0.021376
107.1997	178.1842	186.2938	236.4217	327.7725	365.5597	385.9608	436.3487	502.7002	551.139	604.2745	675.8989	723.543	795.845	830.2123	851.0469	885.7023	946.5873	962.7098	987.9591	1024.9218	1078.9096	1134.7754	1153.7294	1182.2268	1195.5312	1232.8486	1276.6097	1292.8052	1351.6157	1402.5814	1424.6559	1474.2328	1476.2087	1626.9239	1682.6631	1753.7006	2802.3455	3035.606	3078.8492	3162.1431	3173.4272	3475.5255	3581.3556	3689.2283
NC1=C(CC2NC12)C=O	NC1=C(C[C@H]2N[C@@H]12)C=O	
InChI=1S/C6H8N2O/c7-5-3(2-9)1-4-6(5)8-4/h2,4,6,8H,1,7H2	InChI=1S/C6H8N2O/c7-5-3(2-9)1-4-6(5)8-4/h2,4,6,8H,1,7H2/t4-,6-/m1/s1
