12
gdb 28671	5.97665	1.04674	0.89074	4.9262	72.84	-0.2692	-0.077	0.1922	1172.5111	0.079957	-431.735325	-431.728502	-431.727557	-431.766824	25.357	
O	 0.0714309933	 1.3312854922	 0.0936147856	-0.398105
C	 0.0625901951	-0.004804146	 0.0454902842	 0.43066
N	 0.1018435057	-0.6014674461	-1.1374759717	-0.334202
C	 0.0911163929	-1.9350050273	-1.1344370904	-0.048196
C	 0.0411040248	-2.6633673619	 0.0542790338	 0.190389
N	 0.0013917827	-2.0493724172	 1.2532567185	-0.277997
C	 0.0118834582	-0.7315470779	 1.2531523906	-0.083318
C	 0.0307644348	-4.0968124179	 0.0255701118	 0.238232
N	 0.0239399463	-5.2520323254	-0.0381133026	-0.321737
H	 0.1079674651	 1.6489757324	-0.8206885132	 0.312219
H	 0.1229039403	-2.4371790375	-2.0964429426	 0.14849
H	-0.019454349	-0.2131758373	 2.2064984559	 0.143563
98.6911	157.3102	261.1715	403.7991	433.3017	454.5016	495.3687	546.5156	565.628	617.1561	668.8638	734.7637	812.6735	891.1387	938.1503	971.5887	1033.2712	1170.0906	1252.4407	1284.2294	1307.5291	1364.1578	1430.0874	1515.2683	1592.1362	1624.2695	2350.3265	3182.893	3185.8541	3754.0663
OC1=NC=C(N=C1)C#N	Oc1ncc(nc1)C#N	
InChI=1S/C5H3N3O/c6-1-4-2-8-5(9)3-7-4/h2-3H,(H,8,9)	InChI=1S/C5H3N3O/c6-1-4-2-8-5(9)3-7-4/h2-3H,(H,8,9)
