20
gdb 79039	3.62436	1.60354	1.36934	1.6237	82.71	-0.2258	0.0825	0.3084	1009.7183	0.173089	-365.922055	-365.915053	-365.914109	-365.953014	29.26	
C	-0.2189384984	 1.6195179973	-0.1037204204	-0.425575
C	-0.0198860698	 0.1207832295	 0.0377143299	-0.090872
C	 1.1903805035	-0.5722072807	-0.6510018991	-0.03885
C	 2.2152511156	-0.1215345828	 0.4163369605	-0.086975
C	 2.5556139561	-1.5457129163	 0.8512000714	-0.016468
C	 2.4163483335	-1.6202439791	 2.3893798495	-0.219175
C	 1.1076721548	-0.7721216523	 2.620342104	-0.343387
C	 0.8735014331	-0.436852135	 1.1642751806	 0.34345
N	 1.1226883282	-1.7394508795	 0.3569108648	-0.182998
H	 0.7211349797	 2.1669289222	 0.0211281475	 0.115914
H	-0.6215608984	 1.8661020334	-1.0918658147	 0.119712
H	-0.926461723	 1.9948697663	 0.6433321637	 0.120408
H	-0.9565708645	-0.4349893813	-0.0853595662	 0.081585
H	 1.3441196879	-0.7537012237	-1.7164120547	 0.07464
H	 2.8126058267	 0.795411959	 0.4628620392	 0.058791
H	 3.3382386542	-2.1520107562	 0.3887365855	 0.062224
H	 2.2951396624	-2.6535556682	 2.7255756494	 0.111568
H	 3.2846659811	-1.1962280863	 2.9023180693	 0.10055
H	 0.2990989287	-1.3647511605	 3.0548683187	 0.112737
H	 1.2752878986	 0.1079852144	 3.2463833013	 0.102723
189.1417	210.2151	221.4974	271.89	381.1065	480.5781	524.3828	666.9406	711.4347	724.9476	764.6968	796.4393	834.7853	864.855	876.8705	888.322	923.5822	939.3826	963.9414	990.9731	1019.6313	1050.7277	1063.3133	1102.8671	1117.4123	1126.6035	1150.0638	1162.6206	1195.3088	1207.2352	1230.1288	1237.4819	1258.6362	1267.1642	1288.3114	1318.002	1334.9324	1394.0866	1415.6051	1476.6136	1495.7323	1498.8675	1500.8444	3030.9749	3038.8886	3047.5688	3055.5905	3066.7841	3086.5909	3096.008	3096.363	3099.3096	3102.5896	3118.2881
CC1C2C3C4CCC13N24	C[C@H]1[C@H]2[C@@H]3[C@H]4CC[C@@]13N24	
InChI=1S/C8H11N/c1-4-7-6-5-2-3-8(4,6)9(5)7/h4-7H,2-3H2,1H3	InChI=1S/C8H11N/c1-4-7-6-5-2-3-8(4,6)9(5)7/h4-7H,2-3H2,1H3/t4-,5+,6-,7-,8+/m0/s1
