19
gdb 66233	4.46567	0.70776	0.68582	1.7203	79.21	-0.2477	0.0258	0.2735	1680.8847	0.155792	-422.957148	-422.947243	-422.946299	-422.992827	36.108	
O	-0.1120089199	 1.3615750942	-0.2448952324	-0.472509
C	 0.0133708619	-0.0187445802	-0.0509420858	 0.428912
C	 1.1122435128	-0.6291751328	-0.878879751	-0.121297
O	 2.3176456259	 0.0247737861	-0.5060708863	-0.264124
C	 3.4107178178	-0.3152085259	-1.3373945478	-0.201546
C	 4.594870464	 0.4296278827	-0.9311984649	 0.277398
C	 5.5834771761	 1.0340458554	-0.6166296256	-0.411076
C	-0.2983718412	-0.5777235931	 1.3166105922	-0.312697
C	-1.2680317636	-0.7571357867	 0.1629993652	-0.315927
H	 0.7667796862	 1.7298244841	-0.088974556	 0.289257
H	 1.1850052086	-1.7144864203	-0.7063862528	 0.089037
H	 0.9118857851	-0.4637106867	-1.9501474623	 0.096733
H	 3.6147545023	-1.3978692138	-1.2802549432	 0.121093
H	 3.1754131058	-0.0940695512	-2.3924285396	 0.122536
H	 6.4557244559	 1.5700685223	-0.3340649826	 0.20282
H	 0.2545126614	-1.4412567912	 1.6703629698	 0.11183
H	-0.5662472291	 0.1422780301	 2.0807971362	 0.120035
H	-2.1676929056	-0.1528250854	 0.1678701787	 0.127728
H	-1.3842414144	-1.7434242575	-0.2736971418	 0.111798
42.9953	76.2128	89.4575	144.873	203.7985	286.3762	331.3264	332.7813	371.0983	402.7866	459.7109	474.4178	585.7705	611.3493	679.5008	753.4103	777.1927	891.5505	926.036	939.4865	979.2571	985.5216	1024.7465	1034.8908	1048.8307	1070.6357	1084.4083	1133.7825	1189.4489	1224.7233	1252.7398	1288.1572	1320.9769	1363.2158	1413.2167	1448.2938	1455.6854	1494.1534	1510.7087	1513.3948	2248.7028	2954.7791	2968.0331	2975.9233	3005.8927	3134.7793	3138.1835	3220.6761	3234.4224	3505.0146	3781.2655
OC1(COCC#C)CC1	OC1(COCC#C)CC1	
InChI=1S/C7H10O2/c1-2-5-9-6-7(8)3-4-7/h1,8H,3-6H2	InChI=1S/C7H10O2/c1-2-5-9-6-7(8)3-4-7/h1,8H,3-6H2
