18
gdb 52883	2.98909	1.0017	0.82467	2.2612	81.67	-0.2421	0.025	0.2671	1440.5055	0.146017	-401.86991	-401.860424	-401.85948	-401.905946	33.422	
C	 0.0463895303	 1.4665916899	 0.0246404896	-0.505366
C	 0.0301005406	 0.0120176019	 0.0156029587	 0.185937
C	 0.0045289652	-1.1918945722	 0.0063367023	-0.011476
C	 0.0240851672	-2.6352151108	-0.0241955731	 0.152459
C	-0.6461582594	-3.3971170404	 1.0517592612	-0.205116
O	-1.2517067734	-3.2777073513	-0.2337200133	-0.268378
C	 1.1685142698	-3.2493359288	-0.7896716393	-0.070633
C	 1.0557510062	-4.6233133064	-1.3297778315	-0.247677
N	 1.0346128175	-3.4614188697	-2.2393627887	-0.318364
H	 0.8678495201	 1.8561073053	-0.5861188014	 0.155483
H	-0.8885536516	 1.870978769	-0.3782736674	 0.156453
H	 0.1685951136	 1.8584974661	 1.0402709537	 0.151563
H	-0.271057168	-4.3878160459	 1.3033970402	 0.117785
H	-1.1459216226	-2.8560744381	 1.8527691726	 0.123595
H	 2.1428638127	-2.8710105512	-0.4897563921	 0.098383
H	 1.9421709448	-5.2468187985	-1.401092484	 0.115224
H	 0.1231957469	-5.1525229114	-1.1615288256	 0.126869
H	 0.0685495299	-3.2792676774	-2.5064550217	 0.24326
24.3347	63.4736	92.795	135.8101	227.1876	248.339	301.3757	330.7662	413.4711	443.6968	538.2739	571.3951	649.7655	802.464	824.8927	868.4044	912.609	934.5389	982.3498	1030.4704	1033.8428	1050.9632	1054.3521	1115.6693	1130.7553	1149.131	1170.7393	1196.7999	1245.8313	1277.4321	1304.777	1362.2759	1413.0116	1419.8815	1475.471	1476.7373	1498.5187	1512.7954	2371.008	3030.0177	3087.7565	3091.7794	3094.3545	3117.3657	3138.8242	3183.3938	3208.5296	3485.7259
CC#CC1(CO1)C1CN1	CC#C[C@]1(CO1)[C@H]1CN1	
InChI=1S/C7H9NO/c1-2-3-7(5-9-7)6-4-8-6/h6,8H,4-5H2,1H3	InChI=1S/C7H9NO/c1-2-3-7(5-9-7)6-4-8-6/h6,8H,4-5H2,1H3/t6-,7+/m1/s1
