16
gdb 70468	3.73891	1.01455	0.91571	5.7184	69.35	-0.25	0.0305	0.2804	1258.6395	0.122921	-437.844457	-437.836064	-437.835119	-437.877905	31.047	
O	-0.0878304524	 1.42961615	-0.0493627211	-0.450018
C	-0.0498654667	 0.0536179334	-0.0236235987	 0.288901
C	-0.4002537012	-0.835502175	-1.200195001	-0.370218
C	-1.1661449087	-0.953716019	 0.0887752987	 0.055345
O	-0.438437473	-1.7539246075	 1.0268494385	-0.293654
C	 0.6155694298	-0.7579138906	 1.0916783999	 0.07949
C	 2.0194993248	-1.3298185952	 0.888280483	-0.367603
C	 2.4384844727	-2.2044305753	 1.9815876394	 0.268695
N	 2.7692589467	-2.8863122363	 2.8534116163	-0.299873
H	 0.4974273292	 1.7435801801	-0.7471310163	 0.294746
H	-0.9292677902	-0.3024186452	-1.9850310314	 0.126758
H	 0.2366271312	-1.6489302702	-1.5364665453	 0.119909
H	-2.2386902329	-0.8671461517	 0.2053420777	 0.124933
H	 0.5578385987	-0.2183709902	 2.0444119199	 0.114356
H	 2.0664958079	-1.8891971517	-0.0509966158	 0.153881
H	 2.7300039241	-0.4971841655	 0.8153019061	 0.154351
58.2323	116.7428	180.2987	217.7999	268.7462	355.642	382.6289	390.993	455.2355	500.6985	553.2871	648.2668	755.2231	834.1752	862.3086	906.8501	942.3016	976.5614	1003.9302	1016.8714	1041.8725	1054.0383	1082.7167	1125.8508	1201.7258	1229.2113	1237.4764	1270.1564	1314.9001	1336.8297	1386.4481	1423.0396	1449.553	1493.9554	2366.1181	3043.0149	3046.2615	3096.4838	3115.9559	3202.9235	3210.9298	3799.8928
OC12CC1OC2CC#N	O[C@]12C[C@H]1O[C@H]2CC#N	
InChI=1S/C6H7NO2/c7-2-1-4-6(8)3-5(6)9-4/h4-5,8H,1,3H2	InChI=1S/C6H7NO2/c7-2-1-4-6(8)3-5(6)9-4/h4-5,8H,1,3H2/t4-,5+,6-/m0/s1
