17
gdb 127099	3.74436	1.2751	0.96286	5.4771	80.5	-0.2234	-0.0452	0.1782	1191.2652	0.137139	-414.199251	-414.190579	-414.189635	-414.23382	30.199	
C	-0.0328912414	 1.4301058938	 0.032464827	-0.345177
N	-0.013781679	-0.0228003982	 0.0009380652	-0.140248
C	-0.1171509603	-0.7281621078	 1.2705527412	-0.356686
C	 0.0068364518	-0.6899352625	-1.1811519476	 0.454065
C	 0.034775897	-0.0195656599	-2.4372281686	-0.07644
N	 0.0696858372	-0.6754668453	-3.5785353305	-0.174121
N	 0.07692747	-2.0161136613	-3.5744896413	-0.225914
C	 0.0404210054	-2.6036773761	-2.3822117547	 0.107903
N	 0.0029800504	-2.0283789023	-1.1822944689	-0.342418
H	 0.8135487442	 1.8566385541	-0.517050265	 0.144652
H	-0.9603931488	 1.8425770306	-0.3856620434	 0.13925
H	 0.0441119954	 1.7553922349	 1.0707082692	 0.139692
H	-1.0670229666	-0.4970115617	 1.7689184185	 0.128561
H	-0.0642852406	-1.7984150058	 1.0836091204	 0.178806
H	 0.7030140247	-0.4349728893	 1.9357482197	 0.129115
H	 0.0237343307	 1.0612408874	-2.5180858383	 0.11262
H	 0.0404125799	-3.6911082106	-2.3984492929	 0.126341
34.6532	83.4577	122.2823	152.1368	237.5309	255.0529	376.5317	399.3169	493.0248	550.9052	562.3553	676.7813	809.8264	813.8528	901.9629	981.889	1000.465	1022.7879	1058.3698	1090.9536	1132.0947	1167.8664	1190.4689	1219.1364	1264.0283	1328.3682	1364.3517	1431.2431	1439.8086	1474.3274	1490.3387	1495.5462	1503.9472	1509.8162	1538.9051	1561.1091	1611.4739	3012.8236	3020.3709	3069.7407	3071.974	3137.3509	3165.6339	3178.6612	3193.4237
CN(C)C1=CN=NC=N1	CN(C)c1cnncn1	
InChI=1S/C5H8N4/c1-9(2)5-3-7-8-4-6-5/h3-4H,1-2H3	InChI=1S/C5H8N4/c1-9(2)5-3-7-8-4-6-5/h3-4H,1-2H3
