17
gdb 14187	2.85093	2.24563	2.08832	1.7029	68.12	-0.2309	0.0689	0.2998	792.117	0.140942	-363.762078	-363.754752	-363.753808	-363.793092	28.55	
C	 0.0301739606	 1.4799332517	-0.0653524985	-0.536582
C	 0.0302640213	-0.0166322244	-0.0702240212	 0.255349
N	 0.6753092559	-0.8721096684	-1.126073271	-0.375313
C	 0.0993618357	-1.881211797	-0.1795456379	-0.12656
C	 0.4508790528	-1.0130820433	 1.0544109525	 0.068246
O	-0.8725320258	-1.0912913766	 1.6545615076	-0.360228
C	-1.1544081746	-1.0253975155	 0.2199604098	 0.42249
C	-2.5706684473	-1.0536540412	-0.2538162181	-0.531282
H	 1.0518563941	 1.8682175407	-0.1201512279	 0.136058
H	-0.5327121129	 1.8820506724	-0.9149985964	 0.121035
H	-0.4344282943	 1.8446875878	 0.8563383707	 0.138047
H	 0.1256934803	-0.8433365672	-1.9895720144	 0.204443
H	 0.1911017166	-2.9599142789	-0.3100303878	 0.085489
H	 1.3285010204	-1.0223183203	 1.6986630168	 0.098564
H	-3.1301703302	-0.2027145774	 0.147025127	 0.137104
H	-2.6041339785	-1.0052118176	-1.3475731158	 0.123685
H	-3.067071184	-1.9750558949	 0.0657310745	 0.139456
178.5851	197.5377	213.2068	237.3208	260.3747	367.1583	504.5838	530.0258	658.6018	685.3996	738.7113	759.0325	796.7471	826.2205	858.5279	911.4337	947.4308	957.8858	1024.7406	1080.0162	1103.8621	1122.6734	1134.31	1159.414	1186.2697	1247.7012	1270.9668	1288.6539	1328.4103	1380.3301	1403.2179	1422.8117	1472.3455	1482.3538	1489.5568	1492.9673	3032.1939	3035.2851	3098.9858	3106.5831	3111.2866	3113.0079	3115.1301	3140.4244	3394.2829
CC12NC3C1OC23C	C[C@@]12N[C@H]3[C@@H]1O[C@@]23C	
InChI=1S/C6H9NO/c1-5-4-3(7-5)6(5,2)8-4/h3-4,7H,1-2H3	InChI=1S/C6H9NO/c1-5-4-3(7-5)6(5,2)8-4/h3-4,7H,1-2H3/t3-,4-,5+,6+/m0/s1
