17
gdb 12709	2.87785	2.21645	1.72595	3.569	68.41	-0.2388	0.0322	0.2709	834.1913	0.142909	-363.878159	-363.870745	-363.869801	-363.90958	28.261	
C	-0.0294954992	 1.5870562426	-0.0014156181	-0.496146
C	 0.0229855892	 0.0800914087	 0.0546224321	 0.190909
C	-1.2949569014	-0.7364881635	 0.272638105	-0.278356
C	-0.6130160511	-1.5633116432	 1.4024410276	-0.225675
C	 0.714610838	-0.7920525432	 1.167791115	-0.025451
N	 1.5725477078	-1.3380374957	 0.1150048883	-0.327453
C	 0.9567367399	-0.6669146362	-0.9258455483	 0.381041
O	 1.0982415538	-0.7097373666	-2.1189256725	-0.365478
H	 0.972514182	 2.0252154049	 0.051453326	 0.127064
H	-0.4835352407	 1.9115056283	-0.9441225428	 0.139601
H	-0.6271160696	 1.9978497999	 0.8193684302	 0.115381
H	-2.1135486766	-0.1100076297	 0.63510444	 0.108634
H	-1.6476224811	-1.2895341548	-0.600474219	 0.118277
H	-1.0445040753	-1.3767791565	 2.3888922462	 0.10776
H	-0.5502124093	-2.6433225703	 1.2504248623	 0.103152
H	 1.2483113965	-0.3789315923	 2.0251386996	 0.083771
H	 2.0895919872	-2.2072559226	 0.0872667885	 0.242967
116.9017	175.087	200.2863	253.4234	274.2493	383.6679	492.4402	502.0715	660.9558	679.4564	730.8855	755.9347	801.6898	868.3068	882.2085	929.9406	952.2974	1003.6696	1016.3746	1109.2719	1125.8532	1137.9782	1195.8991	1207.3704	1223.6784	1239.8828	1270.4553	1326.519	1336.9477	1368.1072	1410.9795	1471.8363	1488.4343	1491.1992	1495.1912	1883.9667	3029.2046	3062.006	3068.4715	3097.1101	3097.7954	3100.9825	3108.8374	3126.2515	3575.5859
CC12CCC1NC2=O	C[C@]12CC[C@H]1NC2=O	
InChI=1S/C6H9NO/c1-6-3-2-4(6)7-5(6)8/h4H,2-3H2,1H3,(H,7,8)	InChI=1S/C6H9NO/c1-6-3-2-4(6)7-5(6)8/h4H,2-3H2,1H3,(H,7,8)/t4-,6+/m1/s1
