17
gdb 77596	2.7381	1.43648	1.21662	2.8189	68.69	-0.2439	0.0612	0.3051	1061.488	0.133639	-458.894875	-458.886283	-458.885339	-458.927791	32.617	
O	 0.0584368597	 1.4408789855	-0.0266847149	-0.434493
C	-0.0110796607	 0.0352111785	 0.0460337281	-0.061676
C	 0.2769948593	-0.6885631602	 1.3754066984	 0.365718
O	 1.4904584618	-1.2863583927	 1.6648831437	-0.465956
C	-0.7402937926	-0.3463644653	 2.4188339319	-0.353547
C	-1.1108191699	-1.3410374258	 1.3329841306	-0.232306
C	-1.4305672017	-0.5532154842	 0.0833710878	 0.476844
C	-2.6815804843	 0.0208229244	-0.4046533061	-0.266184
O	-2.0459943564	-1.0908858025	-1.0681524538	-0.291476
H	 0.9610783807	 1.6926057192	-0.2441533409	 0.28808
H	 0.5543158353	-0.4507397176	-0.7605584931	 0.094926
H	 1.9427487429	-0.7541894671	 2.3274748592	 0.28934
H	-0.55163221	-0.7980954762	 3.3882322971	 0.11545
H	-1.2025182801	 0.6367241084	 2.4511304118	 0.123975
H	-1.4047482702	-2.3608610258	 1.5421449173	 0.110665
H	-3.6176740775	-0.214049173	 0.0998615374	 0.114459
H	-2.6604037463	 0.9601015943	-0.9537123945	 0.126181
96.8759	177.6802	195.6117	222.5356	234.4546	273.7332	303.4577	381.2936	468.2311	487.8671	529.5875	610.4136	731.2164	756.6937	834.9305	870.2324	891.7436	928.9641	979.4079	983.4102	1004.5518	1066.3506	1080.6966	1116.9781	1130.7983	1139.3782	1164.1886	1185.449	1203.6902	1256.6178	1271.1247	1322.3658	1398.3781	1414.4699	1459.8992	1492.9919	1540.6405	3025.6524	3087.6032	3112.633	3179.7928	3202.0701	3213.2095	3808.0077	3824.9485
OC1C2(O)CC2C11CO1	O[C@H]1[C@@]2(O)C[C@H]2[C@]21CO2	
InChI=1S/C6H8O3/c7-4-5(8)1-3(5)6(4)2-9-6/h3-4,7-8H,1-2H2	InChI=1S/C6H8O3/c7-4-5(8)1-3(5)6(4)2-9-6/h3-4,7-8H,1-2H2/t3-,4+,5-,6+/m1/s1
