20
gdb 30720	2.93081	1.19486	0.90749	1.5329	83.61	-0.1855	0.0358	0.2213	1336.7912	0.170523	-403.187449	-403.177606	-403.176662	-403.222428	36.006	
C	 0.0299649429	 1.5875926156	 0.4085544503	-0.368044
C	-0.0251579683	 0.1304348052	-0.08340944	-0.293
C	-1.4123002287	-0.4046187579	-0.1955449716	 0.28532
C	-2.1748905805	-0.8292301394	-1.2451816335	 0.113457
C	-1.8237918377	-0.8874119324	-2.6988713148	-0.521005
C	-3.4442603514	-1.2203430799	-0.6796241604	 0.139287
N	-4.5504808452	-1.6440431858	-1.4339950564	-0.605199
C	-3.3505344137	-1.0021155066	 0.659738568	-0.110512
O	-2.1142039463	-0.4970848252	 0.9672476829	-0.197679
H	 1.0660669135	 1.9274501793	 0.5021940164	 0.108714
H	-0.4886569979	 2.254625535	-0.2868666604	 0.119251
H	-0.4510155175	 1.682087265	 1.385764429	 0.132262
H	 0.458380279	 0.0474613285	-1.061801207	 0.107706
H	 0.5539366586	-0.5023201586	 0.6023461267	 0.114055
H	-1.8214425659	-1.9172716776	-3.0807915189	 0.117684
H	-2.5441115132	-0.3246472484	-3.3044726757	 0.134805
H	-0.8314499385	-0.4715428585	-2.8909368434	 0.125823
H	-4.2900351335	-2.2831002589	-2.1753714136	 0.241848
H	-5.2686765005	-2.0764695172	-0.8669906963	 0.240856
H	-4.0303626251	-1.1315234421	 1.4848786187	 0.11437
44.1145	114.4341	124.7792	199.3233	211.8777	231.8257	244.9547	294.8734	330.9021	390.8931	494.2401	564.5288	627.7721	661.1421	684.659	714.0342	740.9758	783.214	785.5336	922.9107	974.654	1025.9631	1062.8053	1082.9572	1101.7258	1149.8924	1161.1559	1196.1743	1278.7732	1288.6059	1332.8954	1357.4506	1404.7604	1417.8304	1456.899	1473.3305	1482.0675	1495.6186	1499.5369	1507.7124	1610.5809	1652.28	1694.2444	3012.5796	3019.5979	3039.8526	3061.1815	3077.7741	3109.722	3112.8846	3122.8498	3276.5394	3526.6601	3616.386
CCC1=C(C)C(N)=CO1	CCc1c(C)c(N)co1	
InChI=1S/C7H11NO/c1-3-7-5(2)6(8)4-9-7/h4H,3,8H2,1-2H3	InChI=1S/C7H11NO/c1-3-7-5(2)6(8)4-9-7/h4H,3,8H2,1-2H3
