20
gdb 35516	2.98467	1.41388	1.32092	4.2044	81.27	-0.3011	0.0357	0.3367	1057.9672	0.175455	-366.058588	-366.051265	-366.050321	-366.090423	29.59	
N	-0.1496964229	-1.170732528	-0.2395817077	-0.341293
C	-0.08753625	-0.0216412576	-0.123496479	 0.267256
C	-0.0044965477	 1.4263261442	 0.0282962982	-0.134224
C	-0.6268140963	 1.9670544392	 1.3711278813	-0.233437
C	 0.5240556171	 2.8046977052	 1.9705369514	 0.00236
C	 1.61274773	 1.8421789244	 2.4971038471	-0.2105
C	 2.2455233685	 1.2711838443	 1.1861478438	-0.222838
C	 1.4511192364	 1.9867871033	 0.0711048363	-0.014477
C	 1.1949678774	 3.371376808	 0.7005993433	-0.229284
H	-0.5281659362	 1.8690972915	-0.8252215958	 0.121098
H	-1.5044649526	 2.5815259561	 1.1546591504	 0.108274
H	-0.9439648377	 1.1573157704	 2.0319204359	 0.121508
H	 0.1850694042	 3.5374407055	 2.7048731472	 0.065174
H	 2.3550756411	 2.3848852406	 3.0895224885	 0.099008
H	 1.1942769155	 1.0608231499	 3.1377640209	 0.10404
H	 3.3061500085	 1.5272748366	 1.1136220276	 0.101396
H	 2.1693807127	 0.183674764	 1.1144301736	 0.127587
H	 1.9362830883	 1.9713452141	-0.9056548238	 0.074738
H	 0.5335206978	 4.0076241765	 0.1036627746	 0.094076
H	 2.119555056	 3.9187899319	 0.9058810362	 0.099538
82.78	157.3353	228.8357	339.5683	387.5734	438.9522	485.9608	558.7167	578.988	747.0942	765.2991	800.4932	815.6912	838.4883	887.4892	931.4883	948.487	954.2929	959.6098	970.7609	998.0916	1032.3826	1064.2509	1089.4793	1131.34	1143.8099	1166.8895	1199.1199	1224.8913	1268.5372	1271.1136	1281.8874	1299.8669	1323.238	1333.8999	1342.0465	1350.6734	1359.2298	1486.9034	1495.3362	1497.9211	1520.5523	2350.63	3048.8218	3051.213	3052.5225	3063.7168	3065.591	3089.306	3098.8995	3100.1598	3109.0428	3111.7271	3114.8967
N#CC1CC2CCC1C2	N#C[C@H]1C[C@H]2CC[C@@H]1C2	
InChI=1S/C8H11N/c9-5-8-4-6-1-2-7(8)3-6/h6-8H,1-4H2	InChI=1S/C8H11N/c9-5-8-4-6-1-2-7(8)3-6/h6-8H,1-4H2/t6-,7+,8+/m0/s1
