17
gdb 26485	3.6918	1.26899	1.0369	2.6727	74.52	-0.2198	0.0221	0.2419	1144.2293	0.137189	-418.029388	-418.021445	-418.0205	-418.062182	29.953	
C	-0.2503726129	 1.405524804	-0.7285275116	-0.473117
C	-0.0684804074	 0.0581737012	-0.069639347	 0.28389
C	 1.0929440481	-0.7839695919	-0.4257589344	-0.218148
O	 1.0700445607	-0.0638025431	 0.8109269123	-0.291552
C	-1.2907862394	-0.5809443181	 0.4685154525	 0.294253
C	-2.618715691	-0.5563653253	 0.1175031126	-0.190091
N	-3.3594391531	-1.3606661351	 0.9533878191	-0.257319
C	-2.4946791814	-1.8608984547	 1.8063072529	 0.014689
N	-1.2278682279	-1.4297812794	 1.5519973977	-0.308629
H	 0.7115003906	 1.7968301876	-1.0673575105	 0.128632
H	-0.9167791706	 1.3215278023	-1.5929700444	 0.133459
H	-0.6938298499	 2.1182258555	-0.027472935	 0.138988
H	 1.0168685428	-1.8666656532	-0.3396033841	 0.115075
H	 1.8130298585	-0.4240390352	-1.1596254948	 0.119575
H	-3.0817350563	-0.0147345787	-0.6931905757	 0.106018
H	-2.7229286744	-2.5307891809	 2.6217781818	 0.130654
H	-0.3910946763	-1.581947945	 2.0922090783	 0.273624
64.0899	149.8033	181.2692	199.1945	318.2003	357.1272	425.3929	476.6008	560.4368	602.2271	691.2981	698.7616	784.8052	813.6832	846.5643	868.2398	921.6949	937.1618	1003.7619	1021.4705	1092.903	1102.481	1137.0781	1141.221	1162.7322	1175.0579	1269.2863	1310.6404	1363.8367	1389.5607	1416.5446	1428.8312	1481.5422	1487.4025	1503.2355	1524.1448	1609.4141	3045.3194	3081.8752	3114.0395	3131.9013	3172.3935	3248.8122	3253.2948	3653.5877
CC1(CO1)C1=CN=CN1	C[C@]1(CO1)c1cnc[nH]1	
InChI=1S/C6H8N2O/c1-6(3-9-6)5-2-7-4-8-5/h2,4H,3H2,1H3,(H,7,8)	InChI=1S/C6H8N2O/c1-6(3-9-6)5-2-7-4-8-5/h2,4H,3H2,1H3,(H,7,8)/t6-/m0/s1
