20
gdb 6280	2.99003	1.40527	1.01679	0.9378	77.87	-0.2548	0.0411	0.2959	1204.1879	0.172925	-348.97196	-348.961901	-348.960957	-349.007271	36.377	
C	 0.6733550551	 1.4373404182	 0.4109028905	-0.390618
C	 0.0214194518	 0.117406607	-0.0078343039	 0.151484
C	 0.5065691076	-0.3530349367	-1.375385104	-0.386785
O	 0.308179844	-0.9503079253	 0.8976210348	-0.253331
C	-0.4340930248	-0.9858626922	 2.106571334	-0.049424
C	-0.5690018702	-2.458611509	 2.5096768691	-0.38599
C	 0.1921301611	-0.2087096466	 3.1884684145	 0.357864
C	 0.6994700587	 0.3894142221	 4.0998427954	-0.491376
H	 1.7593403237	 1.3172724406	 0.4782438935	 0.122058
H	 0.4549923626	 2.215476078	-0.3281821174	 0.107454
H	 0.3094369202	 1.7765273789	 1.3829698602	 0.12786
H	-1.0725044762	 0.2567061699	-0.0449561631	 0.064304
H	 1.5883134614	-0.5191387481	-1.3562095767	 0.124683
H	 0.0209635907	-1.2920995731	-1.6531932215	 0.117931
H	 0.2861389641	 0.3967663001	-2.1409901825	 0.111764
H	-1.4408175312	-0.5739908895	 1.9268177598	 0.093305
H	-1.1313331592	-2.5516140472	 3.4422268248	 0.123927
H	-1.0850606814	-3.0079440911	 1.7183905555	 0.119748
H	 0.4225501242	-2.8947988892	 2.6528432641	 0.137101
H	 1.1508313477	 0.9305410232	 4.8944663631	 0.198041
24.5945	92.2743	177.5644	189.9316	211.8513	218.5312	249.6665	290.8801	316.8281	361.4645	443.1768	481.5383	559.7306	593.6087	627.7281	667.1364	809.9386	833.2071	903.6832	929.8038	942.5332	995.3235	1074.1691	1110.2737	1133.5551	1148.6189	1177.329	1205.1335	1327.2458	1347.4055	1366.3496	1398.1738	1399.6567	1404.8952	1417.4215	1479.371	1481.9794	1486.0336	1493.8473	1494.298	1510.601	2228.068	2954.9465	2965.1129	3038.1326	3043.5242	3051.0395	3106.6942	3116.5534	3122.4153	3131.4166	3132.2856	3135.5052	3502.0526
CC(C)OC(C)C#C	CC(C)O[C@@H](C)C#C	
InChI=1S/C7H12O/c1-5-7(4)8-6(2)3/h1,6-7H,2-4H3	InChI=1S/C7H12O/c1-5-7(4)8-6(2)3/h1,6-7H,2-4H3/t7-/m0/s1
