21
gdb 65268	3.27917	1.13454	1.10725	1.4602	77.95	-0.248	0.0758	0.3238	1223.9315	0.182576	-424.216918	-424.208002	-424.207058	-424.251156	33.422	
C	-0.1251311117	 1.4676708023	-0.4818740636	-0.475001
C	-0.0086789315	-0.0080400234	-0.1784422009	 0.415043
C	 1.2665700153	-0.704383382	-0.3977349759	-0.232409
O	 0.8418978817	-0.3565782721	 0.924535295	-0.285607
C	-1.2903709383	-0.8273404885	-0.2081040944	 0.080965
C	-2.3667968671	-0.3864231335	 0.8227570193	-0.262918
C	-3.4993227074	 0.1830495956	-0.0508480664	-0.21388
C	-3.2941248179	-0.583117098	-1.35887555	-0.066568
O	-1.883903415	-0.6942999757	-1.5028420164	-0.271073
H	 0.8543577934	 1.9478419964	-0.422673289	 0.123663
H	-0.5353613602	 1.6118799081	-1.4845958127	 0.137065
H	-0.7876376103	 1.9678078005	 0.2328807766	 0.121952
H	 1.272097486	-1.7701188136	-0.6226487647	 0.112631
H	 2.1247028631	-0.1480139054	-0.7723318608	 0.110812
H	-1.017289354	-1.8771029311	-0.0323033028	 0.070641
H	-2.7148597092	-1.2552723738	 1.3877997587	 0.108287
H	-1.9750138104	 0.3325426324	 1.5452115692	 0.119018
H	-4.4917446157	 0.0343028726	 0.3817588799	 0.101603
H	-3.3599468933	 1.2549381992	-0.2222414421	 0.108807
H	-3.7593569909	-1.5813068506	-1.3053831269	 0.088964
H	-3.6816614668	-0.0720901095	-2.2445855222	 0.108007
52.3461	66.0401	181.1961	189.4464	252.5834	269.6663	327.5061	363.2443	445.2018	503.6513	601.3634	712.1257	720.2381	817.9639	864.4103	891.1453	908.7654	924.8805	935.7097	967.6924	985.7541	1018.1357	1061.7661	1089.7469	1106.0451	1120.4282	1136.1042	1163.9514	1196.2369	1201.0061	1262.2496	1302.2388	1315.1624	1320.2009	1332.2967	1342.9318	1390.0939	1400.4523	1439.98	1478.8065	1486.5742	1502.0489	1503.7446	1522.1976	1532.1516	2968.9724	2999.0093	3042.5633	3056.3666	3067.1787	3080.6408	3088.5457	3104.9629	3108.7179	3118.9737	3133.6106	3166.7953
CC1(CO1)C1CCCO1	C[C@]1(CO1)[C@H]1CCCO1	
InChI=1S/C7H12O2/c1-7(5-9-7)6-3-2-4-8-6/h6H,2-5H2,1H3	InChI=1S/C7H12O2/c1-7(5-9-7)6-3-2-4-8-6/h6H,2-5H2,1H3/t6-,7+/m1/s1
