22
gdb 112646	2.19444	1.3622	0.92333	1.3415	83.59	-0.2372	0.0318	0.269	1360.7253	0.193472	-404.390795	-404.380801	-404.379857	-404.426319	36.429	
C	-0.0487067558	 1.702824099	 0.0434432745	-0.38766
C	-0.0223132599	 0.1983867716	 0.3308321059	-0.189379
C	-1.307411607	-0.505596819	-0.083634478	 0.100455
O	-1.502925462	-0.3515467585	-1.5157884756	-0.268247
C	-1.8838914838	-1.5735638716	-1.9801958419	 0.399954
C	-2.240053579	-1.6104243926	-3.4274935851	-0.473652
N	-1.9019549083	-2.5552227103	-1.174104114	-0.313871
C	-1.4148905948	-2.0532066385	 0.1245900901	-0.004424
C	-0.1306166657	-2.7903812305	 0.5158956046	-0.38652
H	 0.886894356	 2.1781607213	 0.35280688	 0.111976
H	-0.1908411875	 1.8903288376	-1.024158173	 0.134312
H	-0.8672135567	 2.1942529653	 0.5813285717	 0.113564
H	 0.8258374419	-0.2650309754	-0.184632294	 0.105814
H	 0.1292812907	 0.0269966772	 1.4035550162	 0.10194
H	-2.1592809661	-0.0069336396	 0.3978773684	 0.081653
H	-1.3955858727	-1.2671926192	-4.0335356987	 0.142233
H	-2.5079420624	-2.6267390585	-3.7140464113	 0.150026
H	-3.0790736467	-0.9372240257	-3.6300422797	 0.142477
H	-2.1724163076	-2.2649154403	 0.8876368767	 0.082523
H	 0.6616405089	-2.6336701894	-0.2221439	 0.118695
H	 0.2370529782	-2.468079991	 1.4949927544	 0.109932
H	-0.3344440796	-3.8631949817	 0.5613786787	 0.128199
34.5817	102.2919	136.8951	164.0727	176.6496	231.9198	250.933	283.0773	333.9202	409.2016	459.87	477.7322	623.7818	652.8128	731.6699	771.685	823.4765	892.3796	938.1906	946.353	980.9761	1021.0794	1040.8715	1066.2368	1073.322	1097.6127	1124.1695	1157.5499	1173.6552	1254.3928	1299.4463	1309.5868	1319.641	1364.0561	1381.0304	1401.8302	1407.7285	1411.8257	1421.2249	1472.854	1475.5967	1477.175	1491.8432	1497.0252	1499.5874	1508.3734	1740.6476	3004.9855	3033.6259	3036.0675	3037.5977	3042.7101	3049.7219	3075.8678	3103.2586	3106.3521	3113.8309	3122.1322	3122.2814	3165.256
CCC1OC(C)=NC1C	CC[C@H]1OC(=N[C@H]1C)C	
InChI=1S/C7H13NO/c1-4-7-5(2)8-6(3)9-7/h5,7H,4H2,1-3H3	InChI=1S/C7H13NO/c1-4-7-5(2)8-6(3)9-7/h5,7H,4H2,1-3H3/t5-,7+/m0/s1
