17
gdb 128842	6.69589	0.69961	0.64102	2.2484	70.71	-0.2644	-0.0243	0.2401	1684.6164	0.135587	-455.136956	-455.128072	-455.127128	-455.173736	29.965	
C	-0.3532352887	 1.3176552484	 0.0532966205	-0.231562
O	 0.2478441686	 0.0479985236	-0.0540015589	-0.233083
C	 0.5411870534	-0.5239692674	 1.1991323856	-0.051121
C	 1.1807711726	-1.8823074962	 0.9297300019	-0.347888
C	 1.5429032596	-2.6002965216	 2.1819931475	 0.452976
N	 1.3765148538	-2.2190509349	 3.4156628026	-0.321223
C	 1.8963333848	-3.2829232041	 4.1117365696	 0.036762
N	 2.3561855054	-4.2583366963	 3.3804791389	-0.113321
O	 2.1200180419	-3.8048155408	 2.0747169163	-0.203214
H	 0.3017582853	 2.0363928785	 0.5700212136	 0.108225
H	-0.5410437539	 1.6758403241	-0.9614630892	 0.13045
H	-1.3090628168	 1.2713869377	 0.5981369836	 0.108237
H	 1.2277341163	 0.1142454242	 1.776929421	 0.107485
H	-0.3703714621	-0.6438425459	 1.8050518207	 0.107723
H	 0.4953185123	-2.5027335387	 0.3411219972	 0.150794
H	 2.0778004916	-1.7525990447	 0.313583618	 0.15072
H	 1.932292506	-3.3269122658	 5.1905576511	 0.148041
7.1748	72.8093	107.07	109.0684	223.6082	266.2359	282.9646	330.0254	490.7532	650.4533	691.056	763.8869	808.3217	911.434	931.153	978.31	993.5131	1035.2	1071.3397	1095.2954	1165.4643	1182.2707	1191.5592	1200.9044	1227.1211	1240.1562	1281.3598	1298.4961	1362.9856	1433.1352	1472.3628	1482.8248	1485.3975	1505.2016	1522.1245	1528.8824	1619.4199	2970.9844	2983.8154	3009.4107	3020.4753	3048.3921	3083.6738	3118.5389	3260.9935
COCCC1=NC=NO1	COCCc1ncno1	
InChI=1S/C5H8N2O2/c1-8-3-2-5-6-4-7-9-5/h4H,2-3H2,1H3	InChI=1S/C5H8N2O2/c1-8-3-2-5-6-4-7-9-5/h4H,2-3H2,1H3
