19
gdb 112028	3.27534	1.35391	1.08854	2.4665	77.51	-0.2387	0.0089	0.2477	1154.3363	0.159818	-422.994897	-422.986754	-422.98581	-423.028083	30.382	
C	-0.2078535986	 1.2902203748	-0.0316452469	-0.231947
O	 0.0900483425	-0.0855048584	-0.0619354747	-0.231387
C	 0.7151717292	-0.5619047798	 1.1111234659	 0.090781
C	-0.2186987895	-0.835038102	 2.278136637	-0.101104
C	-0.0625762813	-2.0583840022	 2.7819616792	-0.080268
C	 0.9582258461	-2.8682401802	 2.0288995678	-0.130241
C	 0.3748023499	-3.7816391428	 0.924078159	-0.070924
O	 0.6013268585	-2.7669762396	-0.0756140673	-0.274452
C	 1.3476193978	-1.9469499566	 0.8463002363	 0.079309
H	 0.6946181427	 1.900104633	 0.1358562789	 0.101874
H	-0.6318922523	 1.5480953792	-1.0051823296	 0.130062
H	-0.9423203912	 1.5464312973	 0.7470881424	 0.103366
H	 1.5035241803	 0.1520961159	 1.4132628863	 0.062084
H	-0.9145645219	-0.0914360334	 2.6501403473	 0.099001
H	-0.6165998892	-2.4631873841	 3.6227358162	 0.098416
H	 1.746644803	-3.297448623	 2.6507854631	 0.082736
H	 0.9626115229	-4.6873546332	 0.7229729966	 0.09526
H	-0.6849229454	-4.0469313782	 1.0132200578	 0.104428
H	 2.4023921965	-1.8852414167	 0.5583303746	 0.073005
76.9701	92.6645	176.8418	201.0793	236.1305	333.2558	370.9227	472.6875	542.3075	685.6488	749.6168	810.0712	827.4551	887.0314	889.0032	893.4993	971.0322	986.1198	1020.3182	1024.2166	1045.7769	1078.0629	1098.1242	1126.8461	1161.9778	1168.8566	1181.8994	1218.4688	1226.7794	1247.1585	1299.778	1312.5928	1335.3559	1359.6688	1363.8181	1395.9176	1478.6168	1490.1976	1508.2411	1519.9708	1678.8797	2924.0504	2969.7113	3005.6144	3015.6261	3047.9268	3060.8118	3088.3159	3113.4062	3177.4287	3205.2181
COC1C=CC2COC12	CO[C@H]1C=C[C@H]2CO[C@@H]12	
InChI=1S/C7H10O2/c1-8-6-3-2-5-4-9-7(5)6/h2-3,5-7H,4H2,1H3	InChI=1S/C7H10O2/c1-8-6-3-2-5-4-9-7(5)6/h2-3,5-7H,4H2,1H3/t5-,6-,7+/m0/s1
