16
gdb 16633	3.31138	2.32709	1.54488	3.7321	64.82	-0.2229	0.057	0.2799	824.5842	0.132361	-379.951665	-379.94447	-379.943526	-379.983025	27.093	
C	-0.0709234139	 1.3760119304	 0.0567925972	-0.341436
N	-0.026620167	-0.0544980406	 0.2439836652	-0.09002
C	-1.1714793026	-0.9055484444	 0.136724058	-0.004857
C	-1.3556358138	-1.6840141304	-1.1541921362	-0.327702
C	-0.6133937678	-2.2987666785	 0.0221882664	-0.009432
N	 0.8049656057	-2.124218849	 0.1197457591	-0.356464
C	 1.1514413132	-0.7720758016	 0.0913497477	 0.427896
O	 2.2660926165	-0.3153555029	-0.0439060598	-0.415048
H	 0.9560990109	 1.7428587083	 0.0983410544	 0.164775
H	-0.507043331	 1.6476586417	-0.9144573631	 0.118057
H	-0.6587100033	 1.8572031318	 0.8467313649	 0.120885
H	-2.0223961765	-0.6624408566	 0.7639783517	 0.106134
H	-2.3480929844	-2.0720194659	-1.3572310073	 0.118932
H	-0.7859383228	-1.378784903	-2.0254815822	 0.123052
H	-1.041519851	-3.1378009683	 0.5580634286	 0.110623
H	 1.4534972378	-2.7654850811	-0.3079603947	 0.254608
108.1304	163.0501	170.9838	286.4777	349.9111	449.4104	489.0612	503.4944	651.6183	725.8977	757.1595	777.2617	812.8887	834.2756	955.1678	977.5505	1012.9811	1047.6465	1079.3621	1110.7349	1145.4835	1160.9507	1197.7987	1209.7095	1276.1643	1328.6802	1374.0779	1402.583	1421.2296	1456.6914	1468.562	1491.7833	1522.3926	1831.4253	3005.4597	3062.4003	3129.9149	3142.794	3161.7313	3174.9746	3225.6782	3646.0849
CN1C2CC2NC1=O	CN1[C@H]2C[C@H]2NC1=O	
InChI=1S/C5H8N2O/c1-7-4-2-3(4)6-5(7)8/h3-4H,2H2,1H3,(H,6,8)	InChI=1S/C5H8N2O/c1-7-4-2-3(4)6-5(7)8/h3-4H,2H2,1H3,(H,6,8)/t3-,4+/m1/s1
