18
gdb 65408	4.10556	0.97763	0.91721	1.3359	85.38	-0.2347	0.0282	0.2629	1309.0019	0.143587	-364.706274	-364.696492	-364.695548	-364.740593	36.528	
C	 0.7776619044	 1.1457482144	-0.0032554724	-0.47774
C	 0.0661431045	-0.1924116247	 0.1306920494	 0.103346
C	 0.8460741621	-1.4213060411	 0.5073866646	-0.277944
N	-0.1087292523	-0.8537881755	 1.4417612747	-0.113704
C	 0.328673118	-0.2084589689	 2.6893688589	-0.286994
C	 1.7625009539	 0.016417218	 2.890934243	 0.303576
C	 2.9431552525	 0.161013705	 3.0711520748	-0.462255
C	-1.0763838989	-0.3335322273	-0.7456226672	 0.308354
C	-2.0083135089	-0.41928218	-1.5003294478	-0.43288
H	 1.6636991132	 1.1976553401	 0.6304150052	 0.140429
H	 1.0822789656	 1.2975037938	-1.0427919217	 0.134065
H	 0.1039216639	 1.9662754382	 0.2646647336	 0.128454
H	 0.5769867284	-2.3873117577	 0.0893668421	 0.120802
H	 1.90638977	-1.2752518135	 0.7037842133	 0.125418
H	-0.2124132912	 0.7401400014	 2.7852098363	 0.143086
H	-0.0297637627	-0.8458649414	 3.5074118652	 0.147544
H	 3.9827657553	 0.3023629632	 3.2372795709	 0.203826
H	-2.8385429878	-0.5079167841	-2.1562387929	 0.192617
68.5114	103.203	159.847	173.2981	204.0867	245.7275	313.2095	327.7108	389.684	400.2996	522.8466	543.7947	609.6415	616.6655	627.0394	644.527	667.4376	672.68	755.7291	868.2273	917.8461	940.8889	987.9624	996.1622	1091.8233	1107.7489	1136.3578	1167.1071	1249.9735	1290.0667	1338.8865	1373.252	1415.9873	1465.5919	1491.6787	1497.0769	1503.8065	2224.4143	2237.3097	3026.3045	3045.1906	3060.2924	3098.1026	3106.4137	3148.283	3189.6246	3501.2699	3503.6232
CC1(CN1CC#C)C#C	C[C@]1(CN1CC#C)C#C	
InChI=1S/C8H9N/c1-4-6-9-7-8(9,3)5-2/h1-2H,6-7H2,3H3	InChI=1S/C8H9N/c1-4-6-9-7-8(9,3)5-2/h1-2H,6-7H2,3H3/t8-,9?/m1/s1
