13
gdb 20616	3.51065	1.90942	1.2463	2.1057	63.45	-0.2739	-0.0766	0.1973	899.0888	0.096091	-394.799984	-394.792707	-394.791763	-394.832875	24.877	
C	-0.0704198506	 1.5203035026	 0.1065869098	-0.492247
C	-0.0924494454	 0.0348336322	-0.028875205	 0.235559
C	 0.0483591076	-0.7662259175	-1.1536639228	 0.184208
N	-0.0588060779	-2.0305951469	-0.6599947707	-0.215728
N	-0.2495427026	-2.0301028436	 0.6539114003	-0.09094
N	-0.2715816609	-0.7800335837	 1.0474257106	-0.245229
C	 0.2611770472	-0.5164796463	-2.5712207381	 0.079303
O	 0.3554548803	-1.4048454158	-3.392426201	-0.290683
H	 0.0838245636	 2.0114862636	-0.8565906374	 0.131113
H	-1.0128152641	 1.8805381595	 0.5303764148	 0.156328
H	 0.7302484015	 1.8314645157	 0.7845065047	 0.156339
H	-0.0070271769	-2.8924292194	-1.1832449165	 0.299153
H	 0.3325409181	 0.5518505497	-2.8561194489	 0.092824
25.4421	149.6109	169.8034	234.7446	312.7446	323.0784	535.9398	635.0299	652.6329	699.8616	739.389	814.796	991.8924	1025.9261	1032.849	1062.4921	1123.1534	1200.6609	1220.4369	1321.0298	1371.9987	1416.7928	1423.3483	1474.4873	1484.6024	1496.4456	1605.1009	1772.5893	2935.9344	3047.4146	3107.2838	3131.0379	3640.5235
CC1=C(NN=N1)C=O	Cc1c([nH]nn1)C=O	
InChI=1S/C4H5N3O/c1-3-4(2-8)6-7-5-3/h2H,1H3,(H,5,6,7)	InChI=1S/C4H5N3O/c1-3-4(2-8)6-7-5-3/h2H,1H3,(H,5,6,7)
