21
gdb 108106	3.36146	1.38683	1.35626	1.1057	80.92	-0.2331	0.0899	0.323	1071.3781	0.185043	-387.09215	-387.084576	-387.083631	-387.124034	30.885	
C	-0.2962373793	 1.2845657662	-0.0764308976	-0.257398
O	 0.2654025267	-0.0082572407	 0.0539069693	-0.301174
C	 0.8260978451	-0.4997610632	-1.1111538452	 0.469131
C	 2.12070247	 0.04839288	-1.7137182088	-0.295396
C	 2.2135953099	-0.9659038807	-2.8800179543	-0.048143
C	 2.0892997057	-2.3174223558	-2.1315172083	-0.222506
C	 0.8097938261	-1.9844673492	-1.3725115118	-0.123716
C	-0.0030036647	-1.0464141195	-2.2652696238	-0.134042
C	 0.8138901181	-0.8323115041	-3.5344187214	-0.217726
H	 0.4651090544	 2.0427881646	-0.3075461716	 0.109269
H	-1.0653886477	 1.3132898848	-0.8611522076	 0.107273
H	-0.7551143559	 1.5301520691	 0.884144535	 0.124518
H	 2.0363115198	 1.0827069722	-2.0642165127	 0.089981
H	 2.9648463577	-0.0200468675	-1.0196091486	 0.096833
H	 3.0696290453	-0.8570820593	-3.545511141	 0.062391
H	 1.9774076409	-3.1685210732	-2.8116292383	 0.092888
H	 2.9405716036	-2.5106381809	-1.4701932359	 0.095064
H	 0.3242146464	-2.6577626488	-0.6790786691	 0.087107
H	-1.0845012621	-1.0432764452	-2.234388757	 0.082174
H	 0.6542020591	 0.1520727316	-3.9877117115	 0.090547
H	 0.634533901	-1.5972976203	-4.2978920897	 0.092927
93.0095	172.5101	188.1818	345.2566	377.1599	415.43	417.0382	506.2337	581.3676	652.6805	694.7852	785.558	853.3132	893.8366	900.9735	907.3712	925.2848	939.1299	944.4384	965.7422	1001.8101	1005.09	1045.2316	1078.2769	1084.955	1142.3893	1146.367	1152.6326	1181.1845	1188.0861	1203.4398	1234.9063	1249.8117	1276.2484	1279.641	1297.1207	1325.1433	1334.1226	1416.0425	1482.0392	1488.1206	1488.2949	1492.2047	1508.3038	1515.9795	2991.2131	3034.3377	3037.5873	3042.1213	3045.6795	3076.9513	3083.7221	3086.9322	3117.5917	3118.5636	3201.3697	3211.654
COC12CC3CC1C2C3	CO[C@@]12C[C@H]3C[C@@H]1[C@@H]2C3	
InChI=1S/C8H12O/c1-9-8-4-5-2-6(8)7(8)3-5/h5-7H,2-4H2,1H3	InChI=1S/C8H12O/c1-9-8-4-5-2-6(8)7(8)3-5/h5-7H,2-4H2,1H3/t5-,6+,7-,8-
