14
gdb 20629	3.97082	1.8675	1.28023	1.4123	70.56	-0.2358	-0.053	0.1828	904.6654	0.107654	-378.706637	-378.699681	-378.698737	-378.737843	25.846	
C	 0.0115929816	 1.4959599602	-0.0074706959	-0.467153
C	-0.0722849072	 0.0058494	 0.0568966355	 0.411371
C	-1.1556387088	-0.7465407188	-0.206735271	-0.256559
C	-1.0798447524	-2.1864384987	-0.1002942327	 0.279452
N	-2.0782369957	-2.9604423097	-0.3391536727	-0.526277
C	 0.2605309798	-2.6333633755	 0.3079208558	-0.021798
N	 1.2841881871	-1.9011003092	 0.5558001392	-0.059452
O	 1.1266090155	-0.5243062032	 0.4290325806	-0.280351
H	 0.7769583615	 1.8054509248	-0.7266419467	 0.153666
H	-0.9490720922	 1.9182833611	-0.3056984425	 0.143723
H	 0.2953537653	 1.9058614738	 0.9673149104	 0.153657
H	-2.0887159522	-0.2827765792	-0.4994064848	 0.121444
H	-1.8129799209	-3.9391059915	-0.2058806657	 0.21194
H	 0.4512448486	-3.6990247341	 0.4256342006	 0.136337
128.9912	147.0442	191.9871	302.1799	420.179	447.2154	515.7962	545.7655	555.5722	727.9782	733.3394	842.1147	888.7788	897.2235	942.6548	956.959	997.6715	1041.4944	1067.3114	1159.6548	1185.2344	1299.1275	1340.6771	1411.6106	1427.323	1469.2253	1483.1409	1635.2742	1669.0749	1717.3021	3044.8073	3103.2294	3146.7545	3152.6474	3220.3656	3438.8501
CC1=CC(=N)C=NO1	C[C]1C=C([NH])C=NO1	
InChI=1S/C5H6N2O/c1-4-2-5(6)3-7-8-4/h2-3,6H,1H3	InChI=1S/C5H6N2O/c1-4-2-5(6)3-7-8-4/h2-3,6H,1H3
