18
gdb 110519	2.78478	1.57419	1.291	3.0668	70.37	-0.2267	0.0518	0.2784	1017.3287	0.147632	-439.003233	-438.995215	-438.994271	-439.035759	31.332	
O	-0.1102674855	 1.3548399106	 0.3795302576	-0.428154
C	 0.0355490113	 0.002229945	-0.0670132313	-0.136195
C	-1.3562969998	-0.5917988501	 0.0234811234	-0.036659
C	-1.6684039079	-2.0856676723	 0.0153496849	-0.081147
C	-2.8027724036	-1.9167748906	 0.9554955286	-0.112445
N	-1.5956559824	-2.6511245741	 1.4146254225	-0.150121
C	-1.2209282893	-1.4915981317	 2.2894541118	-0.208061
C	-2.0813617099	-0.5730402383	 1.4003644922	 0.362568
O	-2.6749671583	 0.5843894539	 1.8580733191	-0.488534
H	 0.7558075808	 1.7713441955	 0.4072512852	 0.294596
H	 0.4105159702	-0.0348179229	-1.100991422	 0.094802
H	 0.7490864479	-0.5451322286	 0.5631638214	 0.100857
H	-2.0089299672	-0.0905999886	-0.7000636302	 0.092104
H	-1.5469649708	-2.7977872311	-0.7906533257	 0.097069
H	-3.8141713813	-2.2987491135	 0.9864742261	 0.101042
H	-1.6737378853	-1.6432289251	 3.2723083914	 0.113895
H	-0.1471893769	-1.3015028925	 2.3998126172	 0.089948
H	-2.0964255718	 1.3107746344	 1.5911094479	 0.294436
71.3673	139.1038	241.3651	282.7665	311.1509	356.2791	385.8067	406.0439	509.0836	569.5231	645.9799	710.6809	776.5926	793.5266	825.3388	882.2278	942.5022	969.6169	980.5644	1002.659	1015.9728	1042.5751	1068.5832	1112.3681	1129.0475	1147.6233	1160.9399	1186.397	1230.4431	1238.8855	1249.3327	1264.4433	1293.0578	1339.2817	1385.8017	1413.4632	1452.2462	1505.2519	1531.6242	2988.722	3024.9943	3038.9668	3057.0244	3108.4844	3194.8629	3213.1164	3772.7777	3834.561
OCC1C2C3N2CC13O	OC[C@H]1[C@@H]2[C@H]3N2C[C@@]13O	
InChI=1S/C6H9NO2/c8-1-3-4-5-6(3,9)2-7(4)5/h3-5,8-9H,1-2H2	InChI=1S/C6H9NO2/c8-1-3-4-5-6(3,9)2-7(4)5/h3-5,8-9H,1-2H2/t3-,4+,5+,6+,7?/m0/s1
