23
gdb 90091	2.66132	1.43166	1.25954	0.3458	91.63	-0.2275	0.0794	0.3069	1163.1382	0.206266	-351.038453	-351.029948	-351.029004	-351.070919	34.591	
C	-0.1109429748	 1.6335621202	-0.1286678974	-0.407917
C	 0.0161394111	 0.1177890621	-0.0043637486	-0.011217
C	 0.9813614465	-0.6506281972	-1.0201381765	-0.357076
C	 1.8785943816	-0.9587554787	 0.1977986781	 0.287857
C	 2.4927822373	-1.917215327	 1.2679688512	-0.327684
C	 2.07759846	-0.5729606207	 2.0236152554	-0.100405
C	 2.6983337366	 0.217381199	 0.8518921201	 0.053485
C	 4.2023647925	 0.3490957999	 0.6522431466	-0.447714
C	 0.7492228242	-0.6633577832	 1.1842461898	-0.035393
H	 0.8451088535	 2.1446289381	-0.2624578188	 0.122094
H	-0.7325301047	 1.8852908368	-0.9961899627	 0.111494
H	-0.5962715993	 2.055792667	 0.7577804485	 0.119104
H	-0.9970816709	-0.2912430641	-0.0582334932	 0.079754
H	 0.4923578228	-1.5257891107	-1.457186153	 0.103176
H	 1.4322128493	-0.0590864789	-1.8236069466	 0.095974
H	 1.8957958113	-2.8010354581	 1.507436516	 0.094009
H	 3.5558563614	-2.1661410959	 1.2400306011	 0.091907
H	 2.2096041713	-0.3830106001	 3.0943504195	 0.06042
H	 2.2430768957	 1.1990760497	 0.7237507977	 0.062897
H	 4.748055501	-0.5908285991	 0.7632698163	 0.116425
H	 4.4211791666	 0.7401927094	-0.3480538365	 0.113735
H	 4.6206420606	 1.0595271737	 1.3747661006	 0.113963
H	 0.1343261264	-1.5246342522	 1.4624779625	 0.06111
135.268	165.3298	200.8608	208.0297	252.1368	316.053	376.6336	420.03	460.7753	539.6303	608.2926	680.7562	735.006	755.8987	795.9436	826.1193	856.3706	868.6153	903.7401	938.0367	996.6933	1010.1705	1024.7629	1044.1426	1067.4103	1076.9717	1094.4477	1113.5074	1125.8379	1143.9755	1171.5019	1190.796	1200.9212	1213.8728	1231.0599	1237.4604	1251.4566	1276.0958	1352.3467	1383.0676	1408.1654	1413.7407	1424.244	1475.987	1492.0755	1495.3555	1497.3726	1507.3943	1527.2342	3029.0075	3029.9926	3037.1049	3042.4284	3043.047	3056.6502	3064.8208	3083.2469	3087.9775	3100.889	3103.6522	3114.0194	3123.2602	3132.6549
CC1CC23CC(C2C)C13	C[C@H]1C[C@@]23C[C@@H]([C@H]2C)[C@@H]13	
InChI=1S/C9H14/c1-5-3-9-4-7(6(9)2)8(5)9/h5-8H,3-4H2,1-2H3	InChI=1S/C9H14/c1-5-3-9-4-7(6(9)2)8(5)9/h5-8H,3-4H2,1-2H3/t5-,6+,7-,8+,9+/m0/s1
