18
gdb 113162	3.10294	0.99924	0.88056	2.0022	68.85	-0.248	0.0156	0.2635	1345.9451	0.145454	-476.236382	-476.226421	-476.225477	-476.271644	35.881	
C	-0.2803809619	 1.7446120282	 0.2256467262	-0.471082
C	-0.1405175969	 0.2443282408	 0.1348888818	 0.265198
O	 1.1689984421	-0.2979225524	-0.1279257422	-0.312733
C	 0.5519376625	-0.5935407377	 1.140120666	 0.001518
C	 1.2734981109	-0.0781176657	 2.3607429326	-0.092606
O	 2.4088694091	-0.8784212281	 2.646665686	-0.414252
C	-1.270617015	-0.4270103473	-0.6389439359	 0.339165
N	-0.8792914315	-1.5080496935	-1.3619356616	-0.52554
O	-2.4133675453	-0.0159385261	-0.5717703044	-0.368412
H	 0.4843654542	 2.1917638637	 0.8605348916	 0.123648
H	-0.1988838527	 2.1850794301	-0.773091451	 0.134902
H	-1.2713909381	 1.9869243187	 0.6145052522	 0.158301
H	 0.2290072203	-1.6317183257	 1.2300008899	 0.10731
H	 1.5480351407	 0.9762480208	 2.2333796701	 0.099587
H	 0.6158156088	-0.1547321276	 3.2331339412	 0.123692
H	 2.9976692117	-0.8143320245	 1.886435387	 0.292971
H	 0.1034503956	-1.6899447014	-1.4822764706	 0.274106
H	-1.5586013546	-1.9689175822	-1.9437484989	 0.264227
58.8542	77.8458	130.4971	162.1616	168.6083	271.0669	283.6586	347.7099	354.0596	390.9443	432.6134	483.1689	519.4771	567.8949	638.5666	703.3808	772.7573	816.6043	884.7967	908.1425	1011.501	1059.6812	1092.1142	1104.726	1112.8617	1124.5548	1211.8039	1228.354	1329.2731	1365.2545	1381.3859	1410.116	1415.84	1460.7052	1481.8141	1490.6035	1504.2994	1591.5774	1798.9613	3027.0662	3057.2737	3082.0274	3110.1998	3126.2959	3158.6108	3596.1344	3735.5685	3805.685
CC1(OC1CO)C(N)=O	C[C@]1(O[C@H]1CO)C(=O)N	
InChI=1S/C5H9NO3/c1-5(4(6)8)3(2-7)9-5/h3,7H,2H2,1H3,(H2,6,8)	InChI=1S/C5H9NO3/c1-5(4(6)8)3(2-7)9-5/h3,7H,2H2,1H3,(H2,6,8)/t3-,5+/m0/s1
