15
gdb 131548	3.12449	1.61423	1.17691	2.3359	66.87	-0.219	-0.0165	0.2025	997.5646	0.114873	-453.915466	-453.908295	-453.907351	-453.947308	27.465	
O	-0.1947671958	 1.4387855246	-0.203031063	-0.427997
C	 0.0200331245	 0.0467111253	 0.0044987203	-0.024427
C	-1.3646348611	-0.6699520919	-0.0071554561	-0.182873
N	-1.5692343259	-1.2949454155	-1.3477103857	-0.427092
C	-0.3128137513	-1.26701038	-1.9674120939	 0.160752
C	 0.3794892671	-1.7073138973	-3.0468442822	-0.051975
O	 1.6797690445	-1.3143328791	-2.9216521582	-0.17989
N	 1.8539327665	-0.6162550173	-1.7256921921	-0.252084
C	 0.6641921633	-0.5991225084	-1.1927564477	 0.350327
H	 0.6537266285	 1.8382873368	-0.4246173739	 0.29457
H	 0.5521972417	-0.1322611601	 0.9466513005	 0.093105
H	-1.3734259739	-1.4592634237	 0.7516593732	 0.122933
H	-2.1573093106	 0.0436105891	 0.2248942875	 0.129987
H	-2.3098232733	-0.8610280133	-1.8829089073	 0.246127
H	 0.147033616	-2.2585339291	-3.9426187815	 0.148537
83.7392	151.2101	269.6942	303.9002	353.1009	429.9556	501.0924	576.7636	603.7656	657.5166	733.4826	758.5018	781.4344	855.81	883.1032	908.3288	958.7661	967.2274	1013.9442	1088.4313	1101.9792	1155.242	1224.7047	1257.761	1281.5347	1329.6761	1364.7616	1385.5084	1394.0463	1452.9716	1488.9338	1558.1923	1685.8286	3029.9508	3053.945	3123.4444	3281.5619	3565.6387	3808.0405
OC1CNC2=CON=C12	O[C@H]1CNc2conc12	
InChI=1S/C5H6N2O2/c8-4-1-6-3-2-9-7-5(3)4/h2,4,6,8H,1H2	InChI=1S/C5H6N2O2/c8-4-1-6-3-2-9-7-5(3)4/h2,4,6,8H,1H2/t4-/m0/s1
