14
gdb 75228	4.15726	1.17998	1.05882	4.4845	68.89	-0.2538	-0.0182	0.2356	1099.96	0.102086	-432.867757	-432.860268	-432.859324	-432.899622	28.513	
N	 0.0112393405	 1.3402517069	 0.0695715649	-0.578658
C	-0.0199698325	-0.0250420217	-0.0095386186	 0.412345
N	-1.0881154225	-0.7244484414	-0.1220521081	-0.29836
C	-0.7566446399	-2.1427632332	 0.0045881602	-0.229282
C	 0.7715332414	-2.2247337356	 0.0932383142	 0.285033
O	 1.4333872037	-1.6671086001	-1.0486413426	-0.267278
C	 1.2510470789	-0.8265452554	 0.0998687466	-0.157194
C	 1.437919996	-3.3116294488	 0.7623288131	 0.226162
N	 1.9285123126	-4.205536838	 1.3066893409	-0.328571
H	 0.8272472465	 1.8068706275	-0.2946742866	 0.264097
H	-0.8638374473	 1.7978765115	-0.1436643862	 0.267742
H	-1.2140745917	-2.566648563	 0.9066544616	 0.134004
H	-1.1329027582	-2.7080131367	-0.854810415	 0.137981
H	 2.1531434625	-0.4815856721	 0.5963522756	 0.131981
116.4217	152.3369	239.0277	309.1592	359.1405	386.7491	429.3243	489.4207	552.2582	563.9232	595.2322	659.7151	717.2691	789.7235	855.0375	916.768	946.715	988.7487	1013.775	1051.7615	1170.4376	1180.58	1212.6735	1245.1483	1305.8605	1396.6955	1440.5458	1474.5458	1629.6103	1718.1609	2360.2949	3038.8686	3079.8089	3168.9605	3570.9218	3684.9683
NC1=NCC2(OC12)C#N	NC1=NC[C@]2(O[C@@H]12)C#N	
InChI=1S/C5H5N3O/c6-1-5-2-8-4(7)3(5)9-5/h3H,2H2,(H2,7,8)	InChI=1S/C5H5N3O/c6-1-5-2-8-4(7)3(5)9-5/h3H,2H2,(H2,7,8)/t3-,5+/m0/s1
