21
gdb 111697	2.13377	1.65687	1.25835	3.4389	77.22	-0.2402	0.0593	0.2995	1100.2283	0.184799	-424.218052	-424.209603	-424.208659	-424.250992	33.38	
O	 0.4395809324	 0.446418736	 1.0117884916	-0.431224
C	-0.1570867103	 0.4472627765	-0.2691969844	-0.096525
C	-1.4609053684	-0.3333489351	-0.3148850332	-0.033797
C	-1.8978573351	-1.2729135847	-1.4147784369	-0.074778
C	-0.8625463088	-1.8401460035	-2.3854922805	-0.221759
C	 0.2321557558	-2.5018020707	-1.5135136641	-0.273756
C	-0.3946214012	-2.7261877241	-0.111757317	 0.115686
O	 0.5043099481	-2.4376014492	 0.9696062351	-0.429123
C	-1.6046944494	-1.8197753461	-0.0334959617	-0.067517
H	 0.5910407504	-0.4852403576	 1.232968991	 0.288039
H	-0.3711214274	 1.4956350558	-0.5071201401	 0.101273
H	 0.5438272234	 0.0979973898	-1.0409317768	 0.077157
H	-2.2846012935	 0.2275647834	 0.1204444192	 0.09186
H	-2.9183802796	-1.1890666285	-1.7734668013	 0.082398
H	-1.3522022293	-2.5901513079	-3.0159400643	 0.102875
H	-0.4471276848	-1.0856996131	-3.062404751	 0.105445
H	 0.5893816956	-3.4386934185	-1.951394819	 0.097402
H	 1.1033459597	-1.8509311418	-1.4019871531	 0.116872
H	-0.7328780268	-3.7675489827	-0.0109397112	 0.075919
H	 1.2823972353	-2.9977276182	 0.8805465445	 0.287265
H	-2.4002777761	-2.1200138797	 0.6389338634	 0.086285
74.8236	156.162	180.8547	241.5	270.4645	309.0291	390.5883	446.7123	479.123	538.2018	607.1863	667.1899	699.5247	757.7446	800.0374	823.8963	869.4944	909.7704	964.0162	984.5031	1008.2843	1027.5894	1040.2826	1069.4565	1083.9336	1098.3662	1118.4524	1129.932	1198.6521	1220.3379	1232.8111	1237.5176	1263.8938	1296.6237	1329.2683	1348.4909	1350.6726	1363.2094	1399.5729	1419.1377	1445.209	1476.0014	1483.8199	1500.1111	1520.1837	2991.7161	2998.0055	3038.4322	3053.5985	3057.3252	3069.4532	3100.9714	3131.7516	3158.4045	3173.6787	3697.9856	3813.2756
OCC1C2CCC(O)C12	OC[C@H]1[C@H]2CC[C@@H](O)[C@@H]12	
InChI=1S/C7H12O2/c8-3-5-4-1-2-6(9)7(4)5/h4-9H,1-3H2	InChI=1S/C7H12O2/c8-3-5-4-1-2-6(9)7(4)5/h4-9H,1-3H2/t4-,5+,6-,7-/m1/s1
