13
gdb 5169	6.44368	1.17083	1.08718	1.8919	60.75	-0.244	-0.0376	0.2064	1032.2852	0.095566	-398.636505	-398.62948	-398.628536	-398.669244	24.038	
O	-0.5071621075	 0.4743077382	 0.6375061351	-0.225145
C	 0.0953204252	 0.930714318	-0.2954917411	 0.162463
C	 1.301602838	 1.8602338851	-0.1572646431	-0.392311
C	 1.2689531716	 2.9900327405	-1.1225003351	 0.310662
C	 0.9993631627	 4.3169349073	-1.0442372297	-0.183918
N	 1.0954071225	 4.8878729001	-2.3080812261	-0.24971
C	 1.4058889395	 3.898089422	-3.0760702141	 0.074066
O	 1.531687906	 2.7074880083	-2.4414820262	-0.177554
H	-0.184400739	 0.6952798261	-1.3458413417	 0.095496
H	 1.3383813737	 2.2299519921	 0.8695963729	 0.148198
H	 2.1999652815	 1.2502968402	-0.3295290119	 0.149267
H	 0.7492940701	 4.9019975016	-0.1735036548	 0.13327
H	 1.5765770357	 3.8994372906	-4.1410447443	 0.155216
46.449	65.9353	143.1318	300.1855	366.8376	443.0423	652.1148	667.5591	712.0327	802.0219	837.8177	862.5948	940.2915	962.9916	1028.5304	1045.7636	1122.8284	1132.493	1185.9771	1230.8924	1268.4215	1301.332	1357.6437	1419.7062	1441.6776	1550.0166	1636.7123	1841.0233	2895.3852	3019.0374	3122.04	3266.674	3279.5415
O=CCC1=CN=CO1	O=CCc1cnco1	
InChI=1S/C5H5NO2/c7-2-1-5-3-6-4-8-5/h2-4H,1H2	InChI=1S/C5H5NO2/c7-2-1-5-3-6-4-8-5/h2-4H,1H2
