18
gdb 122730	9.55211	0.41068	0.39766	6.0775	88.85	-0.2683	-0.0372	0.2311	2593.6691	0.14564	-401.929124	-401.91874	-401.917795	-401.966241	34.679	
C	 0.0056248509	 1.3924404563	 0.0092548128	-0.232486
O	 0.0103142801	-0.0160645023	 0.0017220808	-0.231308
C	-1.2820446737	-0.5708086254	 0.0111328256	-0.050382
C	-1.1460841209	-2.0885424881	 0.0019153805	-0.194211
C	-2.5244481601	-2.781708714	 0.0114090443	-0.381629
C	-2.4280438125	-4.2310635422	 0.0029331176	 0.050332
C	-2.3282597249	-5.4352449049	-0.0044160989	 0.092692
C	-2.2202486395	-6.7959203417	-0.0126904791	 0.204991
N	-2.1278688283	-7.9540808152	-0.0197447054	-0.338461
H	 1.0470790661	 1.7218061166	 0.0011848081	 0.132646
H	-0.5050924527	 1.8038196821	-0.8757234821	 0.106384
H	-0.4882712132	 1.7943317025	 0.9080320293	 0.106383
H	-1.8410053965	-0.240274162	 0.9052035937	 0.087264
H	-1.8579041981	-0.2310168046	-0.8686296789	 0.087264
H	-0.583296502	-2.3944402815	-0.8850571159	 0.130265
H	-0.5665536222	-2.4036259669	 0.8747780696	 0.130263
H	-3.094744556	-2.4698445323	 0.8966154926	 0.149994
H	-3.1114505466	-2.4606697464	-0.8594836348	 0.149999
42.5235	52.4262	87.7717	115.6258	151.7478	161.9534	226.0117	226.0382	344.9823	368.1428	410.1809	524.3562	578.25	584.566	730.1075	752.4311	864.0752	977.9496	1035.646	1067.657	1112.0825	1165.6667	1175.2237	1179.8274	1222.0286	1223.3415	1279.1791	1294.2686	1308.7348	1363.3331	1429.1849	1464.6168	1480.8293	1485.0213	1496.454	1505.5685	1532.1997	2266.6371	2402.8984	2935.4694	2960.4495	2972.0456	3015.891	3016.3681	3047.7571	3061.9513	3109.6826	3119.3449
COCCCC#CC#N	COCCCC#CC#N	
InChI=1S/C7H9NO/c1-9-7-5-3-2-4-6-8/h3,5,7H2,1H3	InChI=1S/C7H9NO/c1-9-7-5-3-2-4-6-8/h3,5,7H2,1H3
