16
gdb 44745	2.67164	1.88084	1.33148	5.0612	70.86	-0.2562	-0.0604	0.1959	951.4348	0.126123	-437.896138	-437.889189	-437.888245	-437.927629	27.466	
N	-0.026899604	 1.1863212322	 0.4745173384	-0.48017
C	 0.0090620081	-0.0014763126	 0.0469560579	 0.285452
O	 1.1702945495	-0.6285157468	-0.3128936158	-0.261986
C	 1.0633915802	-1.9830262335	-0.78269138	 0.115671
C	-0.0564466547	-2.0980425847	-1.8392429502	-0.25977
C	-1.0315162183	-2.2232439993	-0.6222341076	-0.131356
C	 0.1797833071	-2.813937966	 0.1724357434	-0.259715
C	-1.2803265204	-0.8272083095	-0.09666653	 0.360076
O	-2.3580876712	-0.3810215091	 0.190886102	-0.287996
H	 0.9170005507	 1.5799030333	 0.5041061226	 0.230376
H	 2.0820194362	-2.2927743393	-1.0125425538	 0.096323
H	-0.1824584528	-1.2632738396	-2.5326278184	 0.125672
H	 0.0028851288	-3.0369807681	-2.3937870354	 0.122658
H	-1.9610688026	-2.7834025841	-0.712372814	 0.096351
H	 0.2831642808	-3.8860749948	-0.0077866922	 0.122696
H	 0.2607556027	-2.6065365183	 1.241981603	 0.12572
82.013	173.122	348.214	376.7793	418.5764	441.083	459.8207	525.5611	568.6188	678.4025	787.1113	819.8063	871.906	890.0392	898.8028	919.1089	941.8774	983.5155	994.0307	1052.8124	1074.5113	1074.9765	1146.1683	1160.903	1212.8417	1243.9964	1267.0682	1274.5436	1300.5951	1320.1156	1392.5678	1470.3405	1498.4152	1736.1423	1841.6305	3068.2545	3071.1975	3125.1201	3128.3914	3130.0508	3133.5304	3459.0882
N=C1OC2CC(C2)C1=O	[NH][C]1O[C@@H]2C[C@@H](C2)C1=O	
InChI=1S/C6H7NO2/c7-6-5(8)3-1-4(2-3)9-6/h3-4,7H,1-2H2	InChI=1S/C6H7NO2/c7-6-5(8)3-1-4(2-3)9-6/h3-4,7H,1-2H2/t3-,4+
