18
gdb 90375	2.30157	1.60023	1.30714	4.6771	72.29	-0.2356	0.0119	0.2476	1062.5477	0.146501	-439.089125	-439.080551	-439.079607	-439.12206	32.457	
C	-0.0687538212	 1.5344597295	-0.0075736471	-0.417744
C	 0.0880603232	 0.0306031504	 0.0280597955	 0.12216
O	 1.1354362673	-0.458508967	-0.8541230637	-0.311028
C	 1.7579943283	-1.214422598	 0.2040310908	-0.103098
C	 2.8270165646	-0.352835304	 0.9321599086	 0.432921
O	 3.98353038	-0.0746442981	 0.7829298443	-0.355618
N	 1.8714322401	 0.0622535716	 1.8478260841	-0.372979
C	 0.7459116703	-0.6711304264	 1.2555354851	 0.287274
C	-0.1045764958	-1.4749663823	 2.208340292	-0.484105
H	 0.8544757924	 2.0351034341	 0.2957056309	 0.126712
H	-0.3125720263	 1.8594746	-1.0234316655	 0.138705
H	-0.8825082806	 1.8522023243	 0.6538652551	 0.117546
H	-0.8593299974	-0.4623882264	-0.2315889253	 0.079672
H	 1.9498124846	-2.2593086157	-0.0425203263	 0.102222
H	 1.8776326519	 0.8697425144	 2.4569112117	 0.246786
H	-0.7097932396	-0.8166702119	 2.8431163439	 0.125623
H	-0.7896624754	-2.1292319641	 1.6615020821	 0.131466
H	 0.5196043835	-2.0902105803	 2.8624799737	 0.133486
92.0545	176.0996	195.6371	209.4385	237.5562	278.1676	307.8253	415.5946	444.4238	502.4082	555.57	621.9105	670.9805	758.34	797.9532	836.8693	879.5687	912.9313	978.74	1009.1442	1018.618	1095.4213	1118.6045	1138.0755	1145.8606	1169.6111	1231.4316	1252.8967	1274.4161	1321.4327	1367.085	1393.1208	1406.8899	1416.5069	1482.5856	1488.0633	1493.0852	1494.98	1897.6725	3004.8691	3032.2157	3037.6173	3097.0236	3108.1587	3113.9258	3120.18	3122.8088	3582.0879
CC1OC2C(=O)NC12C	C[C@H]1O[C@H]2C(=O)N[C@@]12C	
InChI=1S/C6H9NO2/c1-3-6(2)4(9-3)5(8)7-6/h3-4H,1-2H3,(H,7,8)	InChI=1S/C6H9NO2/c1-3-6(2)4(9-3)5(8)7-6/h3-4H,1-2H3,(H,7,8)/t3-,4+,6+/m1/s1
