19
gdb 6398	4.60171	1.02353	0.88751	6.5322	68.37	-0.2451	0.032	0.2771	1304.6632	0.165579	-402.245231	-402.236307	-402.235363	-402.278977	32.601	
C	 0.1540865919	 1.5367216533	 0.0932864999	-0.398294
C	 0.0375491626	 0.0132414129	-0.0059805405	-0.168372
C	-1.4088605071	-0.5072782925	-0.0083764438	 0.014028
N	-2.2322313268	-0.0083242785	-1.1338530473	-0.525826
H	-1.744448715	-0.1465568537	-2.0162402474	 0.239571
H	-3.4983976514	-1.2161782606	-0.8507895731	 0.313757
H	-2.4121922164	 0.986039818	-1.0449989443	 0.248772
C	-1.4530111239	-2.0455364993	-0.0186872133	-0.330098
C	-2.8390732069	-2.6764108988	 0.1732585	 0.391906
O	-3.8543612952	-2.0375581757	-0.4224081887	-0.373138
O	-3.0007162837	-3.6919632458	 0.7981211007	-0.333338
H	 1.202204633	 1.8475425183	 0.1218084558	 0.126497
H	-0.3092129659	 2.0379275424	-0.7633618498	 0.107848
H	-0.3282674902	 1.9128350113	 1.0024767598	 0.122606
H	 0.5422926747	-0.3425501013	-0.9153922606	 0.095378
H	 0.5679543951	-0.4476575646	 0.8359310417	 0.110915
H	-1.9056728649	-0.1530808095	 0.9047862126	 0.103286
H	-1.0535289997	-2.4074336491	-0.9773433426	 0.120452
H	-0.8098686104	-2.4539810567	 0.7629050608	 0.134052
80.5466	95.4678	131.4844	178.6522	245.6181	313.2446	331.8962	354.7324	411.5534	450.1193	509.5019	613.1019	689.4208	781.0656	844.6226	878.0037	918.1422	936.7231	966.7373	989.5884	1024.1906	1058.8233	1103.3392	1153.0058	1156.7863	1257.7987	1275.6907	1293.0526	1330.018	1353.251	1386.7802	1406.825	1420.2788	1461.542	1484.5142	1495.4828	1502.7623	1508.0694	1647.73	1857.7573	3009.7996	3013.4379	3030.8357	3034.1727	3058.486	3098.3511	3110.2133	3120.2525	3245.5237	3484.6722	3577.2508
CCC([NH3+])CC([O-])=O	CC[C@@H](N)CC(=O)O	
InChI=1S/C5H11NO2/c1-2-4(6)3-5(7)8/h4H,2-3,6H2,1H3,(H,7,8)	InChI=1S/C5H11NO2/c1-2-4(6)3-5(7)8/h4H,2-3,6H2,1H3,(H,7,8)/t4-/m1/s1
