22
gdb 6213	3.5812	1.43518	1.36577	0.1455	83.73	-0.2356	0.0278	0.2633	1074.2702	0.199826	-313.096694	-313.087875	-313.086931	-313.129463	34.32	
C	-0.0168813191	 1.6137228159	 0.0091345084	-0.396077
C	 0.0210246124	 0.0811993683	 0.0333756025	-0.010375
C	 0.7625972287	-0.5479729993	-1.1767423472	-0.259242
C	 1.5288390824	-1.7961535077	-0.6414603922	 0.273067
C	 0.7321972963	-3.0953713162	-0.8869455856	-0.416273
C	 2.927922344	-1.92836111	-1.2636957569	-0.427487
C	 1.5856486195	-1.4967206223	 0.8470938861	-0.09642
C	 0.7740561705	-0.5065632446	 1.2080126091	-0.081931
H	 0.9974247917	 2.0279944822	-0.0027414509	 0.113908
H	-0.5414480751	 1.9807806613	-0.8795899704	 0.111508
H	-0.5326188452	 2.0138434209	 0.8889061597	 0.10938
H	-1.0202681733	-0.2753353864	 0.0643578057	 0.075555
H	 0.0888527493	-0.7971602772	-2.0023500595	 0.088795
H	 1.4858538663	 0.1804283285	-1.5622289508	 0.090959
H	 0.6707586374	-3.3182618485	-1.9584237715	 0.107773
H	 1.2098191673	-3.9504919278	-0.3955683321	 0.107757
H	-0.2870781204	-3.0143176262	-0.4962978887	 0.113078
H	 3.5307691325	-1.0351973834	-1.0708254193	 0.111
H	 3.4647432721	-2.7917497777	-0.8539733924	 0.106977
H	 2.8629408119	-2.0651018996	-2.3493259868	 0.109303
H	 2.2006363161	-2.0846799631	 1.5222996386	 0.08345
H	 0.6243130847	-0.1555621571	 2.2245383241	 0.085294
64.0502	188.2894	231.1919	236.936	259.3089	285.2648	306.8912	346.2255	394.3153	419.6251	535.8673	584.779	689.6495	783.9695	807.0472	848.9004	884.129	911.3023	935.4711	944.4729	974.3304	979.2333	1016.3428	1045.5911	1086.337	1107.2347	1137.5793	1181.3068	1219.164	1243.5747	1266.6176	1302.542	1319.7983	1341.6326	1382.6293	1393.8091	1409.0285	1420.3245	1481.1615	1485.1295	1491.691	1497.5121	1499.6673	1501.4213	1507.955	1687.5882	2975.9183	3019.5758	3023.4582	3024.8878	3034.691	3080.534	3085.4261	3090.1532	3094.5503	3096.2586	3098.3906	3100.5475	3162.7781	3189.5798
CC1CC(C)(C)C=C1	C[C@H]1CC(C)(C)C=C1	
InChI=1S/C8H14/c1-7-4-5-8(2,3)6-7/h4-5,7H,6H2,1-3H3	InChI=1S/C8H14/c1-7-4-5-8(2,3)6-7/h4-5,7H,6H2,1-3H3/t7-/m1/s1
