22
gdb 59735	2.51035	1.33058	0.92188	2.8654	83.34	-0.2558	0.03	0.2858	1318.1051	0.195003	-404.383353	-404.374067	-404.373123	-404.417406	35.308	
C	-0.1404440128	 1.5179967159	 0.0120292653	-0.392566
C	 0.0707562987	 0.0016607531	-0.1180523581	 0.025685
C	 0.9775413334	-0.3039617828	-1.3194996608	-0.40107
C	 0.6315111912	-0.598803477	 1.1872691509	-0.070559
C	-0.0816792391	-0.184967901	 2.4897083749	-0.253452
C	 0.2892117387	-1.3272799711	 3.4344743648	-0.097424
O	 0.3908297101	-2.487602676	 2.593026625	-0.238231
C	 0.5795447946	-2.1188905573	 1.289790011	 0.414256
N	 0.6834049459	-2.9487802531	 0.3423330485	-0.538139
H	 0.803964978	 2.0287778794	 0.2370829842	 0.109468
H	-0.5186709115	 1.9298314849	-0.9289419262	 0.113872
H	-0.8568604074	 1.7764711743	 0.7974510139	 0.109685
H	-0.906100734	-0.4677334318	-0.2972169852	 0.079445
H	 1.958606075	 0.1708903292	-1.1905830897	 0.099338
H	 1.124964797	-1.3780044842	-1.4349897885	 0.160926
H	 0.5381692676	 0.0955562839	-2.2396441393	 0.101544
H	 1.6917032847	-0.312118278	 1.2695539499	 0.09749
H	 0.2284315531	 0.7901166479	 2.8689757451	 0.11346
H	-1.1663029457	-0.1621862874	 2.3336565844	 0.115875
H	 1.2567595785	-1.1557921832	 3.9240160983	 0.11041
H	-0.4582604155	-1.5357618511	 4.2034735639	 0.119719
H	 0.6119444293	-3.9038412949	 0.6977919776	 0.220268
69.2674	103.6736	190.8822	201.524	237.3004	258.4884	296.0135	334.4706	366.952	441.6517	507.6673	555.8627	649.4053	688.9587	804.9972	864.1371	888.4282	900.0949	932.4191	959.5495	964.4055	973.0775	1000.2325	1027.2374	1084.0798	1109.8511	1150.4038	1172.0639	1197.4567	1211.9164	1240.5493	1267.981	1287.4916	1314.3572	1341.9047	1346.5375	1382.1129	1397.8206	1410.8724	1420.0398	1488.4305	1490.9266	1497.3637	1504.1369	1521.1106	1525.1759	1767.381	2987.0194	3015.3688	3022.3211	3023.3113	3029.5952	3047.3468	3084.4165	3094.0765	3100.9257	3105.7218	3120.6859	3150.9034	3468.0845
CC(C)C1CCOC1=N	CC(C)[C@H]1CCO[C]1[NH]	
InChI=1S/C7H13NO/c1-5(2)6-3-4-9-7(6)8/h5-6,8H,3-4H2,1-2H3	InChI=1S/C7H13NO/c1-5(2)6-3-4-9-7(6)8/h5-6,8H,3-4H2,1-2H3/t6-/m1/s1
