17
gdb 44086	3.80293	1.40029	1.17421	1.673	72.26	-0.246	-0.0301	0.2159	1033.7229	0.135978	-421.786834	-421.779642	-421.778698	-421.818578	28.248	
O	 0.0526797879	 0.0091825698	 0.119646057	-0.288827
C	-0.0035653519	 1.2011363056	 0.0489929195	 0.401063
C	-1.1712801551	 2.2199009917	 0.0634695407	-0.46606
C	-0.1149933939	 3.3224166067	 0.1888768688	 0.299602
C	-0.0118417236	 4.7858279595	-0.2037276849	-0.17926
O	 0.8593987078	 5.0419865723	 0.9300969355	-0.294261
C	 0.5963088078	 3.7389149882	 1.5042711049	 0.08376
C	 1.7405519604	 2.7230010546	 1.2819718434	-0.259405
C	 1.0633336948	 2.3118131445	-0.0632389284	-0.19563
H	-1.6745280707	 2.2238668473	-0.9120422607	 0.13781
H	-1.9296984822	 2.113175721	 0.8438230951	 0.131449
H	 0.4661132985	 5.0244030737	-1.1612960341	 0.107998
H	-0.9504028784	 5.3515497155	-0.1185166007	 0.104645
H	 0.1182659447	 3.8094815502	 2.4866247595	 0.077718
H	 2.7156053301	 3.2011053846	 1.169731593	 0.125178
H	 1.8156388471	 1.9223655054	 2.0228252539	 0.118017
H	 1.6666710667	 2.2926693496	-0.9733389023	 0.096203
83.6103	168.6701	254.3614	300.3232	379.2943	439.5234	470.1191	534.8771	635.9606	714.1599	729.0763	811.1874	835.0769	890.5605	913.7449	936.8592	975.8328	991.7913	1020.4801	1037.742	1076.2243	1100.415	1114.5143	1133.0974	1165.1358	1188.8837	1204.212	1236.085	1252.4195	1271.995	1288.7331	1318.679	1374.091	1436.9492	1462.7971	1518.9612	1891.5915	2999.2683	3035.2646	3053.261	3054.4936	3066.642	3093.4494	3100.9843	3126.0406
O=C1CC23COC2CC13	O=C1C[C@@]23CO[C@@H]2C[C@@H]13	
InChI=1S/C7H8O2/c8-5-2-7-3-9-6(7)1-4(5)7/h4,6H,1-3H2	InChI=1S/C7H8O2/c8-5-2-7-3-9-6(7)1-4(5)7/h4,6H,1-3H2/t4-,6+,7-/m0/s1
