17
gdb 17197	4.99437	1.61698	1.45526	2.6622	68.84	-0.2368	0.0768	0.3136	886.5714	0.14334	-363.768558	-363.761742	-363.760798	-363.799103	27.469	
O	-0.0274628005	 1.4498280476	-0.0568424665	-0.444572
C	 0.0159004127	 0.0478684911	 0.0084639129	 0.170491
C	-0.0208543125	-0.663414037	 1.4081793926	-0.209054
C	-1.4930728202	-0.1486997479	 1.5363028181	-0.229156
C	-1.3684714139	-0.650047483	 0.059076566	-0.154757
C	-0.6087471813	-1.8547343792	 0.6391950547	 0.460571
C	-0.0522271165	-3.1014424905	 0.0981677271	-0.361156
N	-1.1614423784	-3.1075878394	 1.1026074896	-0.402586
H	 0.8605906349	 1.7842840908	 0.1012347881	 0.284366
H	 0.7335271211	-0.369300902	-0.7098209788	 0.066141
H	 0.7587133058	-0.6793464155	 2.1726696265	 0.065877
H	-2.153558575	-0.7278649553	 2.1837222566	 0.100186
H	-1.6149744495	 0.9250404046	 1.6671134347	 0.111212
H	-2.1342508763	-0.6526775222	-0.7156789749	 0.080768
H	-0.3383409604	-3.4616693101	-0.8864951281	 0.121487
H	 0.9367310826	-3.4169231365	 0.4228005939	 0.110695
H	-0.7909612025	-3.3476611855	 2.0196680275	 0.229487
175.5108	246.8729	271.366	281.4074	355.2429	417.5408	479.6169	596.0496	670.8972	741.7255	805.9258	878.1073	893.8313	899.8861	918.7314	937.059	971.2269	1013.8747	1027.0524	1063.5563	1072.7269	1108.1731	1114.5624	1145.5103	1154.099	1183.0196	1204.0862	1213.8642	1240.4868	1258.5036	1263.0439	1317.9133	1426.8879	1447.7096	1502.3676	1536.4197	3020.1818	3082.6687	3094.5759	3101.575	3126.9123	3164.2501	3184.4208	3486.6542	3822.9237
OC1C2CC1C21CN1	O[C@H]1[C@H]2C[C@@H]1[C@]12CN1	
InChI=1S/C6H9NO/c8-5-3-1-4(5)6(3)2-7-6/h3-5,7-8H,1-2H2	InChI=1S/C6H9NO/c8-5-3-1-4(5)6(3)2-7-6/h3-5,7-8H,1-2H2/t3-,4+,5+,6-
