22
gdb 22166	5.38039	0.5214	0.50309	1.1652	84.26	-0.2419	0.0131	0.255	2234.616	0.190461	-441.445849	-441.434422	-441.433477	-441.484006	39.353	
C	-0.1104790056	 1.520145374	-0.0461885768	-0.384193
C	-0.0289502618	 0.0057829041	 0.0465887155	-0.029625
O	-1.3398297511	-0.5195932329	 0.0016981294	-0.24063
C	-1.3812643919	-1.9259166839	 0.0762057093	-0.050631
C	-2.8490997457	-2.3590906815	 0.0444828284	-0.282912
C	-3.0117620074	-3.8554645545	 0.0073379108	 0.345731
C	-2.6248901838	-4.6292118668	-1.2259324551	-0.468902
N	-3.4859544601	-4.3978496374	 1.064166305	-0.161759
O	-3.5843621676	-5.7937284183	 0.9284985084	-0.40083
H	 0.8911690177	 1.9590820452	-0.0133992581	 0.114086
H	-0.5920659419	 1.8217008671	-0.980703861	 0.125955
H	-0.6947161117	 1.9240123451	 0.7854661875	 0.127495
H	 0.572535458	-0.4011851841	-0.7845485841	 0.083513
H	 0.4710799867	-0.2985967119	 0.9818602567	 0.086126
H	-0.8224924057	-2.3715951647	-0.7651108476	 0.084632
H	-0.9060206458	-2.2837719211	 1.0048253519	 0.095737
H	-3.3578175531	-1.9625245434	 0.9260540491	 0.124217
H	-3.3144105204	-1.9137830757	-0.8439317722	 0.112788
H	-1.7744397609	-5.2883081858	-1.0198629436	 0.145661
H	-3.4490276766	-5.278455394	-1.5365810206	 0.149078
H	-2.361236568	-3.9630509614	-2.0497111781	 0.119003
H	-3.9738997134	-6.0497451879	 1.7709245053	 0.305461
45.3485	54.2343	77.2272	92.9935	119.2169	143.7329	198.2781	250.6493	284.0979	331.2965	367.734	386.2632	411.7409	483.4567	560.3832	659.1294	801.6751	822.0735	828.8787	902.3012	978.1416	1003.5955	1020.3777	1047.1008	1067.8541	1102.7173	1148.2192	1166.5877	1186.2222	1230.9396	1268.9854	1295.2474	1307.8405	1312.5323	1386.969	1398.8619	1400.4412	1408.8275	1449.2085	1475.0191	1479.9477	1484.0556	1485.1058	1500.274	1517.2215	1539.3607	1727.5457	2945.0037	2957.5352	2975.7062	2981.5347	3035.3046	3042.4241	3045.257	3099.6295	3112.7261	3119.7198	3121.9895	3133.3395	3822.4966
CCOCCC(C)=NO	CCOCCC(=NO)C	
InChI=1S/C6H13NO2/c1-3-9-5-4-6(2)7-8/h8H,3-5H2,1-2H3	InChI=1S/C6H13NO2/c1-3-9-5-4-6(2)7-8/h8H,3-5H2,1-2H3
