18
gdb 115069	3.27405	1.4055	1.09136	2.042	73.32	-0.2404	0.0211	0.2615	1119.7975	0.14854	-439.07582	-439.067712	-439.066767	-439.109037	30.157	
C	 0.1004317256	 1.3039529082	 0.1921626309	-0.242447
O	 0.1981995411	-0.1076689887	 0.0761172728	-0.224593
C	 0.5916020798	-0.5558437785	-1.1746737623	 0.207871
O	 1.9590771638	-0.1353371975	-1.391255173	-0.257077
C	 2.8339006923	-0.9567722908	-2.023029925	 0.120818
N	 2.7149908256	-2.182930577	-2.3063256187	-0.257592
C	 1.5204401081	-2.8454950889	-1.8899589575	 0.008583
C	 1.2323553987	-2.9644275175	-0.4101172118	-0.286401
C	 0.4000122105	-2.0443625738	-1.2616404925	-0.094801
H	 1.0793448673	 1.7856406365	 0.0948676308	 0.131513
H	-0.577496549	 1.7184022463	-0.5685537853	 0.109004
H	-0.3079803724	 1.5099595901	 1.1833321598	 0.132258
H	 0.0077629603	-0.0504335737	-1.9612767696	 0.078501
H	 3.7373500761	-0.4080183899	-2.2797791325	 0.125104
H	 1.2574131592	-3.6904528184	-2.5168507903	 0.098717
H	 0.7677737622	-3.874218644	-0.0473918807	 0.117248
H	 1.9496497769	-2.5172401602	 0.2688129911	 0.134718
H	-0.6243408763	-2.3344791423	-1.4701192162	 0.098575
58.8008	114.648	167.6725	182.0911	290.248	341.3665	399.5651	496.5856	547.5573	590.6773	656.8195	788.6726	818.5831	848.4999	879.7952	927.2359	939.8182	989.3662	1034.0562	1041.9264	1053.268	1100.1694	1114.9815	1131.9346	1169.0767	1178.53	1182.7922	1217.3811	1236.9249	1361.6209	1380.4552	1402.5142	1412.2769	1418.6933	1479.5465	1483.4662	1486.2814	1510.4715	1726.8054	2969.0608	2997.5521	3074.8365	3131.6069	3139.8471	3161.132	3165.7584	3170.2752	3230.254
COC1OC=NC2CC12	CO[C@H]1OC=N[C@H]2C[C@@H]12	
InChI=1S/C6H9NO2/c1-8-6-4-2-5(4)7-3-9-6/h3-6H,2H2,1H3	InChI=1S/C6H9NO2/c1-8-6-4-2-5(4)7-3-9-6/h3-6H,2H2,1H3/t4-,5+,6+/m1/s1
