20
gdb 99740	2.04515	1.38358	0.87175	6.4044	71.58	-0.2527	0.0145	0.2672	1327.3219	0.170907	-477.461886	-477.452282	-477.451337	-477.496565	35.796	
C	 0.0878276334	 1.6073067836	-0.0861512299	-0.401554
C	 0.0506482144	 0.0812575428	-0.1140078938	 0.143743
O	 0.8366474609	-0.3560565232	 0.9735650765	-0.44543
C	-1.3823121758	-0.5107294952	-0.013469175	-0.175969
C	-2.3496648591	 0.0520332736	-1.0742009529	-0.200506
N	-3.7231342187	-0.4522352896	-0.8564873548	-0.527287
H	-4.1478562819	 0.0073051771	-0.0560678553	 0.250017
H	-4.3118956464	-0.2605743203	-1.6602161557	 0.252474
H	-3.1643121242	-2.0180447475	-0.5098580925	 0.320927
C	-1.3229387318	-2.0566224914	-0.0302235339	 0.431859
O	-2.4549140866	-2.693558915	-0.3064740984	-0.37178
O	-0.3069245181	-2.6735072489	 0.2115231505	-0.357411
H	 1.1290744128	 1.9232654178	 0.0139062428	 0.133654
H	-0.3163963739	 2.0536047833	-0.9983936494	 0.108422
H	-0.4647722587	 1.9968401776	 0.7758578653	 0.114392
H	 0.4858697684	-0.265798608	-1.0677190973	 0.068729
H	 0.8025338456	-1.3257862426	 0.934449402	 0.297236
H	-1.7629873911	-0.2327539461	 0.9816744983	 0.110077
H	-2.310488131	 1.1461119415	-1.0633555425	 0.118313
H	-2.0351504483	-0.2742698493	-2.0720103239	 0.130095
61.6717	88.7441	139.3311	203.8097	256.2164	285.2781	311.5691	348.8904	359.9902	390.6023	430.1186	482.9009	559.569	610.3343	669.9137	736.2469	809.9493	895.0994	901.8753	953.6934	993.4101	1031.0086	1041.0971	1064.8468	1087.193	1113.4513	1155.2322	1185.1805	1241.3329	1285.1671	1311.6384	1324.1551	1358.5025	1383.4212	1400.8393	1418.0307	1458.1788	1489.2811	1499.589	1510.6124	1524.6261	1647.8198	1809.6095	2943.6438	3000.3554	3035.7725	3041.7649	3081.2215	3093.5706	3112.6532	3127.2411	3499.7108	3581.8422	3671.6043
CC(O)C(C[NH3+])C([O-])=O	C[C@@H](O)[C@@H](CN)C(=O)O	
InChI=1S/C5H11NO3/c1-3(7)4(2-6)5(8)9/h3-4,7H,2,6H2,1H3,(H,8,9)	InChI=1S/C5H11NO3/c1-3(7)4(2-6)5(8)9/h3-4,7H,2,6H2,1H3,(H,8,9)/t3-,4-/m1/s1
