19
gdb 114017	2.2183	1.28794	0.88617	3.3617	73.16	-0.2349	-0.0124	0.2225	1320.7643	0.155319	-460.119686	-460.109704	-460.10876	-460.156232	34.588	
C	 0.0393217788	 0.5464442567	-0.7272791828	-0.235253
O	 0.8884117941	-0.5440028088	-0.4189832987	-0.234744
C	 1.0252713289	-0.7767943152	 0.9424325865	 0.085513
C	-0.0377510536	-1.5741079365	 1.6723522768	-0.351044
C	 1.2927421884	-2.201054792	 1.3528816898	 0.079196
O	 1.278412111	-3.2093002567	 0.3940511442	-0.245105
C	 2.3694390692	-3.1940277152	-0.5113749441	-0.158756
C	 1.9214144246	-2.7778528364	-1.9083191582	 0.159548
O	 2.686185633	-2.5527621099	-2.8082181284	-0.248281
H	 0.4262015631	 1.4860509779	-0.30687076	 0.111808
H	 0.0087997225	 0.629334457	-1.8155662695	 0.137613
H	-0.9774420085	 0.384151504	-0.3441655863	 0.113989
H	 1.5356544051	 0.0177429049	 1.4894750503	 0.091261
H	-0.2811166961	-1.3328890265	 2.7007434424	 0.117639
H	-0.8628888306	-1.9290517796	 1.0650181343	 0.13441
H	 1.9999012318	-2.3618142476	 2.1670383153	 0.092205
H	 3.1805542409	-2.5346802014	-0.182646212	 0.130383
H	 2.7753481913	-4.2129650752	-0.579558596	 0.132527
H	 0.8180646262	-2.7364375195	-2.0251074036	 0.087093
33.6599	47.8312	96.2288	146.7985	168.4746	192.9776	237.0943	330.6696	348.4865	375.8717	470.1367	554.1226	661.0187	708.2643	766.8277	818.4347	863.8476	995.7278	1025.447	1039.2056	1051.9884	1090.5549	1093.6558	1113.3029	1135.5946	1162.175	1178.9477	1186.1619	1230.3316	1261.3152	1295.5238	1339.0399	1377.0901	1397.2623	1405.4744	1454.1116	1469.8057	1484.9092	1488.7116	1508.2273	1839.2282	2918.5096	2991.7888	3015.2061	3046.8625	3074.7966	3083.7171	3098.4866	3127.9792	3140.4248	3234.9627
COC1CC1OCC=O	CO[C@H]1C[C@H]1OCC=O	
InChI=1S/C6H10O3/c1-8-5-4-6(5)9-3-2-7/h2,5-6H,3-4H2,1H3	InChI=1S/C6H10O3/c1-8-5-4-6(5)9-3-2-7/h2,5-6H,3-4H2,1H3/t5-,6+/m0/s1
