14
gdb 5597	3.55861	1.91375	1.2978	2.3705	60.07	-0.1997	0.0169	0.2167	885.0096	0.108767	-415.880932	-415.873645	-415.872701	-415.912534	26.931	
N	-0.0419420744	 1.3481294647	-0.1406427657	-0.599516
C	-0.1063641443	-0.027386068	-0.0664642935	 0.29921
C	-1.1386112256	-0.9142161062	 0.0365494425	 0.141544
C	-2.6020842476	-0.612010658	 0.015443711	-0.189971
O	-2.9079032178	 0.4656871161	-0.879076602	-0.416877
N	-0.6009512341	-2.1956306601	 0.163059475	-0.29907
C	 0.674018559	-2.0253147656	 0.1312624168	 0.041991
O	 1.0627100074	-0.7185467519	-0.0096671985	-0.172475
H	 0.7330501359	 1.6946596146	-0.6911551057	 0.256028
H	-0.9305094877	 1.7277150767	-0.4466687573	 0.266265
H	-3.1581050095	-1.5242890258	-0.2377164593	 0.118418
H	-2.9658610942	-0.2703377263	 0.9917278121	 0.124886
H	-2.6725662365	 0.1676411636	-1.7648013326	 0.284101
H	 1.4640336495	-2.7556610336	 0.1885196773	 0.145466
87.7815	176.5475	230.0012	292.6472	321.4513	383.6388	432.0537	458.2212	649.8743	671.1358	725.7273	738.5493	765.5173	790.783	948.8965	967.8509	1029.3488	1044.9448	1098.3959	1169.4134	1223.6857	1281.0837	1312.2496	1370.2451	1408.9875	1459.9645	1504.2165	1565.2705	1619.6951	1690.2555	3019.214	3057.9291	3287.4429	3527.6717	3630.9242	3801.6512
NC1=C(CO)N=CO1	Nc1c(CO)nco1	
InChI=1S/C4H6N2O2/c5-4-3(1-7)6-2-8-4/h2,7H,1,5H2	InChI=1S/C4H6N2O2/c5-4-3(1-7)6-2-8-4/h2,7H,1,5H2
