16
gdb 26108	4.75641	1.04048	0.85866	4.9406	82.17	-0.1942	-0.0137	0.1805	1285.7804	0.125035	-434.113142	-434.104726	-434.103781	-434.146931	30.836	
C	-0.4937422088	 1.493234355	 0.23760652	-0.464652
C	-0.0442403286	 0.0669540123	 0.0075437972	 0.357777
N	 0.0291055023	-0.7057184074	 1.1366162395	-0.522181
N	 0.2326981866	-0.5009676689	-1.1148501135	-0.390623
C	 0.1472251705	 0.0618194956	-2.3424852554	 0.39443
C	 0.4269580907	-0.4577050668	-3.5739040208	-0.190042
N	 0.1930381849	 0.4910697647	-4.5567180412	-0.256408
C	-0.2119814011	 1.5300477103	-3.9052938468	 0.06342
O	-0.2740720744	 1.3717612178	-2.5604289083	-0.197021
H	 0.2373823822	 2.1934185032	-0.1722012127	 0.156609
H	-1.4360237831	 1.6806554425	-0.2824006259	 0.16114
H	-0.6343975818	 1.701851225	 1.3007825026	 0.11196
H	 0.1310619253	-0.2605405809	 2.0322214008	 0.257497
H	 0.4613877485	-1.6102661288	 1.0271271527	 0.261151
H	 0.7784012308	-1.4503320046	-3.8019882664	 0.117774
H	-0.5034546643	 2.493898851	-4.2929973517	 0.139168
38.5693	129.7503	142.0764	166.8495	341.8206	350.5465	372.5788	410.1064	509.5043	535.7234	620.9075	662.6596	704.7562	748.2104	800.0671	838.6732	871.6653	916.1348	962.3549	1014.1979	1049.1682	1091.578	1129.4322	1145.0625	1237.5975	1307.8078	1335.6912	1376.4843	1408.9762	1473.9997	1487.2539	1544.8235	1612.0663	1648.6294	1716.719	3057.1048	3132.3434	3136.2881	3267.4374	3275.0598	3591.439	3721.9891
CC(N)=NC1=CN=CO1	CC(=Nc1cnco1)N	
InChI=1S/C5H7N3O/c1-4(6)8-5-2-7-3-9-5/h2-3H,1H3,(H2,6,8)	InChI=1S/C5H7N3O/c1-4(6)8-5-2-7-3-9-5/h2-3H,1H3,(H2,6,8)
