19
gdb 112984	3.92632	0.9477	0.86658	2.6803	71.6	-0.2507	0.061	0.3117	1367.1845	0.158758	-460.1143	-460.105516	-460.104572	-460.14889	32.03	
O	-0.1050004812	 1.4314599612	 0.2778961156	-0.42071
C	-0.2741517694	 0.1900303743	-0.3758768906	-0.0678
C	-1.3789835	-0.6159335644	 0.2822914534	 0.138963
C	-1.4217568196	-2.1333901229	 0.0209467019	-0.332154
C	-1.1256799393	-2.2630678781	 1.5357846957	 0.109074
O	-1.059229547	-0.8278123422	 1.6882810272	-0.322451
C	-2.2202469207	-2.8824945643	 2.367256485	 0.056512
C	-2.8554116561	-2.1545034121	 3.471327886	-0.167575
O	-3.5189595376	-2.3146416927	 2.2120832969	-0.235074
H	 0.0000125624	 1.2237380055	 1.2145788397	 0.292869
H	-0.5318046486	 0.4043086858	-1.419466312	 0.109255
H	 0.6583754655	-0.399344165	-0.3724713637	 0.079996
H	-2.3393313777	-0.0970324769	 0.1895927605	 0.09717
H	-2.3891750344	-2.5274536161	-0.289142639	 0.128779
H	-0.6364820342	-2.5072205988	-0.6388410333	 0.109696
H	-0.1679455805	-2.7375769974	 1.7883059148	 0.082144
H	-2.2019803178	-3.9741603913	 2.3981460551	 0.092996
H	-3.2899857352	-2.7083136753	 4.3018513409	 0.114245
H	-2.5223126086	-1.1426735095	 3.6849886559	 0.134065
40.8438	99.9425	107.6121	165.9123	216.3893	270.6065	387.6933	449.8216	452.9164	515.4766	621.6372	723.7054	792.2848	847.5384	886.234	901.885	933.0315	972.821	1000.2631	1015.8436	1038.6639	1082.0357	1095.2809	1108.7105	1128.1315	1163.3203	1170.7757	1174.6253	1224.0305	1259.3368	1268.5702	1285.3334	1314.7565	1337.2741	1375.1266	1397.8435	1426.5073	1435.5343	1486.1818	1497.2166	1516.3298	2962.1959	3015.0643	3050.2004	3069.9088	3082.21	3088.6834	3099.4428	3147.2394	3198.3599	3785.4694
OCC1CC(O1)C1CO1	OC[C@H]1C[C@@H](O1)[C@H]1CO1	
InChI=1S/C6H10O3/c7-2-4-1-5(9-4)6-3-8-6/h4-7H,1-3H2	InChI=1S/C6H10O3/c7-2-4-1-5(9-4)6-3-8-6/h4-7H,1-3H2/t4-,5-,6-/m1/s1
