27
gdb 102648	1.93247	0.93939	0.72032	0.1332	96.53	-0.2684	0.0911	0.3595	1759.7583	0.251079	-353.555361	-353.544077	-353.543133	-353.592747	41.498	
C	-0.0093630777	 1.5849311728	 0.0619574579	-0.388651
C	 0.0906126927	 0.0556614151	 0.0793857047	-0.181803
C	 0.6263818938	-0.5732093475	-1.2238176077	 0.06717
C	 2.135589862	-0.3023871389	-1.3971782005	-0.181265
C	 2.6687991936	-0.5285754986	-2.8162654998	-0.388414
C	 0.325273547	-2.0871769007	-1.2727055994	-0.225532
C	-1.1322940431	-2.4407254962	-1.4925094266	 0.030839
C	-1.699590511	-2.469672763	-2.8908178464	-0.252917
C	-1.5054436344	-3.756967211	-2.1263629205	-0.27896
H	 0.9632867403	 2.0636020976	-0.0889720272	 0.117232
H	-0.6726909663	 1.9251850341	-0.7412020055	 0.113558
H	-0.4135309352	 1.9614665385	 1.0071474029	 0.109888
H	 0.730134471	-0.2641525292	 0.9142523675	 0.089975
H	-0.9049308887	-0.3497451268	 0.2936259582	 0.09283
H	 0.0986939087	-0.1019171769	-2.0669378738	 0.064899
H	 2.353386826	 0.7325562008	-1.110222326	 0.09182
H	 2.6905039567	-0.9331627674	-0.6883879782	 0.090024
H	 2.1569053548	 0.1205194255	-3.5356980094	 0.113421
H	 3.7391679671	-0.3060881951	-2.8728330485	 0.110432
H	 2.533821412	-1.5619480933	-3.1508733383	 0.116367
H	 0.908367952	-2.5496172202	-2.0781734387	 0.085851
H	 0.6820490355	-2.5483391885	-0.3400475407	 0.09006
H	-1.814388389	-2.09233976	-0.7217856088	 0.082345
H	-2.7109194115	-2.1127026003	-3.0520050413	 0.107456
H	-1.0222847499	-2.264363728	-3.7139938983	 0.107888
H	-0.6993084441	-4.4135659899	-2.4381096141	 0.107778
H	-2.3841219326	-4.2785935529	-1.7628832814	 0.107709
47.9416	68.5714	81.2771	88.8	156.4358	202.2229	230.5647	261.8373	277.3558	320.9248	350.3202	436.9043	450.8038	495.2489	750.7455	769.6595	782.311	799.3424	826.261	848.4711	882.3987	932.5244	941.2207	972.5122	1001.821	1022.2007	1045.7107	1053.4461	1055.6522	1077.0621	1084.9544	1138.0811	1152.2737	1176.3161	1187.4876	1198.3005	1229.5763	1259.7423	1274.2287	1309.8903	1325.4669	1337.3861	1363.2341	1382.3457	1391.6228	1412.1229	1415.5627	1421.3157	1470.1494	1479.3755	1485.1451	1488.7237	1500.1462	1503.2832	1505.3916	1509.0951	1510.1655	2986.8586	3002.265	3009.2619	3018.7343	3031.9089	3032.1718	3050.9625	3053.8081	3058.8069	3096.6798	3097.4218	3102.3896	3105.2383	3125.9342	3130.8481	3143.9808	3203.1551	3218.7755
CCC(CC)CC1CC1	CCC(CC)CC1CC1	
InChI=1S/C9H18/c1-3-8(4-2)7-9-5-6-9/h8-9H,3-7H2,1-2H3	InChI=1S/C9H18/c1-3-8(4-2)7-9-5-6-9/h8-9H,3-7H2,1-2H3
