20
gdb 52718	3.25742	0.61517	0.53479	4.2834	89.63	-0.2541	0.0297	0.2838	2041.4054	0.168509	-366.015309	-366.004228	-366.003284	-366.054013	37.561	
C	 0.013910457	 1.4815608131	-0.0314307084	-0.498699
C	 0.0187064983	 0.0253877343	-0.0187819573	 0.103155
C	 0.0277783674	-1.1787526101	 0.0004099804	 0.035464
C	 0.0245012056	-2.641827688	-0.0055102403	-0.16776
C	-1.4023248418	-3.1852315188	 0.2162679355	-0.388684
C	 0.6695889339	-3.1592354252	-1.3137978644	-0.171786
C	 0.8815494976	-4.6871333666	-1.3226971043	-0.354904
C	 1.5760375922	-5.1395067287	-2.5259372249	 0.256274
N	 2.1252443231	-5.4813489734	-3.4835075066	-0.303549
H	 0.6265214396	 1.8886830666	 0.7805064668	 0.14922
H	 0.412249323	 1.8721535411	-0.9742814432	 0.150251
H	-1.0005279534	 1.8775129848	 0.0884688753	 0.148906
H	 0.6504646537	-2.9879616395	 0.830799577	 0.102775
H	-1.4065419229	-4.2750252076	 0.3130730632	 0.114235
H	-1.8303240907	-2.7665184524	 1.1302135426	 0.131676
H	-2.0533954493	-2.9081846156	-0.6187137582	 0.128346
H	 0.0452751404	-2.8709188001	-2.1658749876	 0.12727
H	 1.6360786345	-2.6664156279	-1.4508568527	 0.130963
H	 1.4690987889	-4.993583578	-0.4485735263	 0.151086
H	-0.0742011372	-5.217796988	-1.2617632167	 0.155762
16.279	61.7514	68.3274	81.0286	144.7426	162.8533	244.7862	258.4699	296.8566	327.1234	373.5409	402.2414	469.8283	523.6698	580.3795	732.9867	767.2493	883.1246	945.9828	949.3364	1024.0454	1033.8736	1053.2755	1053.6068	1108.6852	1119.0983	1179.4778	1223.3231	1271.1804	1310.2678	1343.1459	1345.5706	1384.5784	1409.6696	1415.1392	1468.4426	1478.4572	1478.5906	1491.3226	1493.8044	1503.8253	2362.7531	2370.8327	2988.6228	3027.2678	3038.2095	3042.0196	3057.9005	3079.5977	3088.1679	3088.5526	3107.0971	3112.5251	3123.5102
CC#CC(C)CCC#N	CC#C[C@@H](C)CCC#N	
InChI=1S/C8H11N/c1-3-5-8(2)6-4-7-9/h8H,4,6H2,1-2H3	InChI=1S/C8H11N/c1-3-5-8(2)6-4-7-9/h8H,4,6H2,1-2H3/t8-/m1/s1
