17
gdb 23379	6.42901	0.97157	0.93601	1.171	78.04	-0.2262	0.025	0.2512	1260.6905	0.134955	-417.851891	-417.844105	-417.843161	-417.883982	30.36	
C	 0.0216220402	 1.50416004	-0.2014761249	-0.329037
N	 0.0200896247	 0.0554136668	-0.0284981057	-0.117275
C	-1.1003269083	-0.5069548141	 0.7773872398	-0.002795
C	-0.237026505	-1.7438611538	 1.2142030833	-0.17711
C	 0.6623522503	-0.456557355	 1.2150552169	-0.002794
C	-0.5293833514	-0.0796566241	 2.2000187978	-0.184218
C	-0.6017751658	-1.5051779362	 2.6557271266	 0.47478
N	-0.8547570163	-2.0940922709	 3.7424460873	-0.311737
O	-0.7749740027	-3.5013646168	 3.5831818509	-0.404455
H	 1.0099802848	 1.8218190608	-0.5488881159	 0.124231
H	-0.70519475	 1.7727818661	-0.9748024532	 0.124231
H	-0.2214411348	 2.0723485745	 0.7119341281	 0.098749
H	-2.143178822	-0.5127411967	 0.4578418039	 0.098653
H	-0.0696495356	-2.6519745656	 0.6446729527	 0.108571
H	 1.7322388719	-0.4019381078	 1.4200977572	 0.098653
H	-0.6946240159	 0.8361383084	 2.7600601583	 0.097601
H	-0.9863041042	-3.8112591455	 4.469989897	 0.303953
107.8377	156.8296	225.5101	249.8082	311.4253	323.6319	393.1059	509.3999	549.2816	699.3155	707.2009	709.5034	791.9079	801.2113	804.4997	836.9039	907.7223	944.8119	954.1843	1021.8617	1068.0585	1098.5675	1102.1293	1131.8875	1137.6929	1146.447	1158.3042	1175.8138	1201.7376	1225.794	1261.2683	1310.7878	1410.1671	1450.0102	1493.2737	1497.3755	1828.6113	2967.8758	3067.1638	3102.8133	3108.7106	3112.6751	3167.2538	3185.4399	3822.3853
CN1C2C3C1C2C3=NO	CN1[C@H]2[C@H]3[C@@H]1[C@@H]2C3=NO	
InChI=1S/C6H8N2O/c1-8-5-2-4(7-9)3(5)6(2)8/h2-3,5-6,9H,1H3	InChI=1S/C6H8N2O/c1-8-5-2-4(7-9)3(5)6(2)8/h2-3,5-6,9H,1H3/t2-,3+,5-,6+
