17
gdb 19509	3.70745	1.57273	1.54574	3.4157	69.3	-0.241	-0.0316	0.2094	905.0202	0.143576	-363.850222	-363.843082	-363.842138	-363.88184	26.735	
O	-0.4559881698	 0.6358475483	-1.0925208863	-0.267283
C	 0.0551427418	 0.9503263436	-0.0430047871	 0.146905
C	 1.2816543963	 1.7857876232	 0.0181898204	-0.102245
C	 1.4894701293	 2.8836791111	 1.0320645003	-0.035902
C	 0.6294282773	 2.9752504657	 2.2863825092	-0.232149
C	 0.7968517473	 1.6051703483	 2.9908764246	-0.240654
C	 2.0173021948	 0.9467321457	 2.2933238766	-0.159228
N	 2.3360059644	 1.699245419	 1.0603984099	-0.107368
H	-0.3867637747	 0.6188254102	 0.91757218	 0.074881
H	 1.6908246543	 1.952332726	-0.9751897665	 0.114079
H	 1.9422289014	 3.8002046026	 0.6617324721	 0.105105
H	 1.0179683061	 3.7865129106	 2.9097968022	 0.116856
H	-0.4160840463	 3.2134842158	 2.071998931	 0.119611
H	 0.969937635	 1.7237531429	 4.0633241009	 0.110095
H	-0.1027969915	 0.9938413318	 2.8873974483	 0.119476
H	 2.9075628652	 1.0174687395	 2.9258554728	 0.119156
H	 1.8641664889	-0.1123573944	 2.0677035518	 0.118665
91.1274	153.7158	194.5427	214.0977	385.0479	405.1464	517.9553	679.6636	697.7721	718.023	797.4244	871.1431	888.0598	892.5367	935.1495	978.914	995.6972	1023.2825	1066.7122	1114.518	1129.4029	1167.8591	1195.4228	1229.4896	1256.0752	1285.1053	1300.4992	1324.0475	1333.7473	1342.431	1392.8815	1449.9385	1493.0095	1499.8444	1518.7843	1797.42	2930.8964	3052.3093	3055.1085	3067.5759	3086.922	3094.2138	3113.4621	3136.7657	3149.0171
O=CC1C2CCCN12	O=C[C@H]1[C@H]2CCCN12	
InChI=1S/C6H9NO/c8-4-6-5-2-1-3-7(5)6/h4-6H,1-3H2	InChI=1S/C6H9NO/c8-4-6-5-2-1-3-7(5)6/h4-6H,1-3H2/t5-,6+,7?/m1/s1
