14
gdb 129373	2.78179	1.59252	1.0143	8.8417	70.63	-0.2208	-0.0408	0.18	1073.5472	0.102673	-466.193449	-466.185324	-466.18438	-466.225933	30.534	
N	-0.0536513447	 1.3484787368	-0.1790431476	-0.533496
C	 0.0352431116	 0.0153886976	-0.0048367847	 0.321188
N	 1.2508579669	-0.5560425549	 0.126024368	-0.564003
H	 1.2877153753	-1.5649522858	 0.1360575335	 0.299612
H	 2.076978351	-0.0652414409	-0.1726677785	 0.269188
C	-1.1325998667	-0.7451288395	 0.0353636625	 0.270116
C	-1.3445569094	-2.1361536191	 0.0845156921	 0.264797
O	-0.376611404	-3.0809292012	 0.1201276909	-0.44858
N	-2.6327704471	-2.3780004331	 0.0916616486	-0.312619
N	-3.2524842889	-1.1410466069	 0.0470160175	-0.131567
N	-2.3888192171	-0.1760503548	 0.0152061566	-0.311944
H	 0.7019468536	 1.9553130986	 0.0916175438	 0.267663
H	-0.9959331053	 1.7158000125	-0.1518389307	 0.298876
H	-0.8205484152	-3.9392616694	 0.1426366881	 0.31077
114.2058	159.1428	163.8892	303.741	331.588	348.0426	381.3825	416.6666	434.856	534.9397	540.3767	636.3908	651.4588	685.9273	710.5333	746.5719	781.4918	951.5635	1046.3046	1073.3132	1095.2826	1182.4907	1260.1373	1284.2655	1327.8302	1507.2943	1519.8932	1578.7605	1620.496	1657.9514	1697.12	3559.3083	3579.3733	3701.484	3706.461	3777.8257
NC(=[NH2+])C1=C(O)N=N[N-]1	[NH2]=C(N)c1c(O)nnn1	
InChI=1S/C3H4N5O/c4-2(5)1-3(9)7-8-6-1/h(H4-,4,5,6,7,8,9)/q-1/p+1	InChI=1S/C3H6N5O/c4-2(5)1-3(9)7-8-6-1/h4-5H2,(H2,6,7,8,9)
