21
gdb 106600	4.45474	0.91318	0.90464	2.1495	80.15	-0.2459	0.0728	0.3187	1386.9675	0.181516	-424.164689	-424.155357	-424.154412	-424.198947	34.944	
C	-0.0302896007	 1.3260294836	-0.0103188579	-0.262261
O	 0.0445697047	-0.0843587338	-0.0794154205	-0.284795
C	 0.6802345523	-0.5613379833	-1.2025875558	 0.439223
C	 2.1728305278	-0.3602948147	-1.6347190752	-0.347738
C	 1.5271697489	-1.3127861772	-2.6826041695	 0.356486
C	 2.2063794914	-1.9243903694	-3.8704329045	-0.214877
O	 1.2501957127	-2.71048265	-4.5681190525	-0.420794
C	 0.8524709517	-2.0657768088	-1.4935412284	-0.310166
C	 0.2874729564	-0.3676977474	-2.7038254152	-0.320304
H	 0.9681713759	 1.7856433326	 0.0093372727	 0.110989
H	-0.5906317439	 1.7444473977	-0.8582846331	 0.112756
H	-0.552151312	 1.5734388973	 0.9165763624	 0.12772
H	 2.4634426538	 0.6311575859	-1.9939110233	 0.08653
H	 2.9333668509	-0.7953596706	-0.9801303262	 0.090562
H	 2.6127423288	-1.1246943807	-4.5117479844	 0.085732
H	 3.0579054625	-2.5367308157	-3.530865863	 0.087121
H	 1.6879140518	-3.1146706928	-5.3229295842	 0.28843
H	 1.5181103343	-2.6187645541	-0.8249019558	 0.087644
H	-0.0541860705	-2.6276108601	-1.7269650851	 0.102186
H	-0.6553962305	-0.8136036675	-3.0271658599	 0.102347
H	 0.4441011838	 0.6229905791	-3.1403055308	 0.083211
73.2168	94.3083	143.6785	181.8325	197.1349	239.5584	301.1012	370.7041	439.6189	450.5577	549.3629	559.6404	621.5998	663.8827	772.5039	804.1268	933.9057	956.6853	977.0117	982.2337	1034.4749	1050.0024	1074.4193	1083.5281	1124.6947	1130.0183	1134.3531	1140.6844	1163.6489	1169.408	1180.8039	1183.5551	1235.7316	1255.1944	1281.683	1302.6119	1352.7181	1468.4234	1485.4562	1489.1919	1491.8888	1496.3644	1507.2877	1514.6198	1564.6278	2958.0005	2985.2692	2991.3586	3040.9208	3045.9211	3050.7719	3059.4744	3111.4983	3121.5964	3124.2787	3128.8343	3830.4843
COC12CC(CO)(C1)C2	CO[C@@]12C[C@@](CO)(C1)C2	
InChI=1S/C7H12O2/c1-9-7-2-6(3-7,4-7)5-8/h8H,2-5H2,1H3	InChI=1S/C7H12O2/c1-9-7-2-6(3-7,4-7)5-8/h8H,2-5H2,1H3/t6-,7+
