21
gdb 118797	2.13879	1.10065	0.82219	1.6934	86.07	-0.2562	0.0226	0.2787	1488.3605	0.178722	-387.04923	-387.038711	-387.037767	-387.085133	38.355	
C	-0.0898101768	 1.5859391943	 0.132768657	-0.382396
C	-0.1315178258	 0.0657483438	 0.3080176453	-0.164658
C	-1.2834598609	-0.5835617587	-0.4736437819	-0.258513
C	-1.3925188711	-2.0801462618	-0.245253717	 0.403433
C	-0.3019905417	-2.9467484563	-0.8402224261	-0.463434
O	-1.7962834839	-2.4589685872	 1.0790660952	-0.28298
C	-2.7182837796	-2.7067781778	 0.0032287143	-0.232436
C	-3.9569152044	-1.9756705164	-0.0012182202	 0.33977
C	-5.0122343447	-1.3995666605	-0.0215774504	-0.418666
H	 0.7336140973	 2.0288845317	 0.7014605506	 0.112485
H	 0.045686328	 1.8619065749	-0.9191799378	 0.11222
H	-1.0208298832	 2.0489496279	 0.4777493101	 0.11803
H	 0.8278964379	-0.3612191874	-0.0089965839	 0.09501
H	-0.2476295938	-0.1849186415	 1.3687146496	 0.116625
H	-2.2275610516	-0.1131841983	-0.1819926743	 0.1158
H	-1.1567007662	-0.3987342506	-1.5487409264	 0.095501
H	 0.6769975698	-2.6668116953	-0.4392051739	 0.133185
H	-0.4724118017	-4.0002380579	-0.6055201247	 0.128082
H	-0.2658543534	-2.8302705239	-1.9284225931	 0.12432
H	-2.8214922432	-3.7624767847	-0.2504468293	 0.107927
H	-5.941464251	-0.8853336545	-0.0339813932	 0.200695
55.0829	80.2702	111.7012	141.2787	190.2315	203.9263	247.2692	302.163	331.8896	353.8	395.0873	462.8297	566.1225	585.6106	622.4151	665.8674	731.2708	744.5296	817.9021	873.1327	891.6814	934.6358	987.6727	1011.334	1048.2011	1065.7139	1088.2784	1132.184	1144.3971	1239.0274	1285.0846	1300.4565	1329.4165	1345.4566	1394.2067	1410.77	1412.9222	1438.3304	1473.4293	1487.903	1493.9555	1498.5416	1501.0208	1510.6268	2236.9653	3021.656	3028.2334	3030.7726	3041.2261	3062.4461	3085.6321	3098.8037	3099.8579	3103.4193	3107.3415	3124.3162	3501.459
CCCC1(C)OC1C#C	CCC[C@@]1(C)O[C@H]1C#C	
InChI=1S/C8H12O/c1-4-6-8(3)7(5-2)9-8/h2,7H,4,6H2,1,3H3	InChI=1S/C8H12O/c1-4-6-8(3)7(5-2)9-8/h2,7H,4,6H2,1,3H3/t7-,8+/m0/s1
