17
gdb 98034	5.89942	0.58165	0.55428	4.9718	85.44	-0.2608	-0.0569	0.2039	1967.8469	0.133938	-421.799043	-421.789549	-421.788605	-421.835163	33.174	
O	 0.1363438284	 1.3593060868	-0.2286878334	-0.422061
C	 0.0323953845	-0.0307731804	-0.2652093612	-0.136043
C	-1.3632481599	-0.480824877	 0.1567297648	 0.185493
O	-2.1944545628	 0.3573212748	 0.4628127111	-0.324191
C	-1.6148038559	-1.8911425253	 0.1666833231	-0.016642
C	-1.7944109599	-3.0881052917	 0.1643731277	 0.183145
C	-2.0288327562	-4.4937139674	 0.1693116568	-0.176614
C	-2.9601786631	-5.0983346603	 1.2180997955	-0.248389
C	-3.4103743491	-5.0281269405	-0.2031841018	-0.248392
H	-0.7378067936	 1.666454823	 0.0641031416	 0.294079
H	 0.2286116012	-0.4278102156	-1.2747404752	 0.119751
H	 0.763768757	-0.5118298496	 0.4047847084	 0.119785
H	-1.1840607006	-5.106683456	-0.1285730927	 0.124049
H	-2.6652228329	-6.0578681878	 1.6266151245	 0.130974
H	-3.402765573	-4.4137157583	 1.9310692704	 0.142043
H	-4.1625398541	-4.2951894092	-0.467679848	 0.142039
H	-3.43097896	-5.9384265055	-0.7909883116	 0.130974
33.5208	65.3958	74.0463	135.6915	165.1504	248.6328	317.6461	406.1232	422.7618	490.7452	532.4258	572.5522	593.3183	762.0551	800.0647	822.2564	864.5516	880.6076	962.4919	1011.7752	1063.6418	1086.9406	1097.9635	1113.7529	1142.3502	1200.7269	1202.9083	1236.4436	1247.2025	1311.9628	1392.807	1450.7287	1468.0247	1490.7673	1495.6665	1737.2076	2315.1993	2975.9709	2993.6575	3147.1271	3150.1932	3158.2369	3233.8328	3248.5317	3668.1967
OCC(=O)C#CC1CC1	OCC(=O)C#CC1CC1	
InChI=1S/C7H8O2/c8-5-7(9)4-3-6-1-2-6/h6,8H,1-2,5H2	InChI=1S/C7H8O2/c8-5-7(9)4-3-6-1-2-6/h6,8H,1-2,5H2
