20
gdb 97978	6.63563	0.46874	0.45876	2.2255	86.51	-0.2356	0.0361	0.2717	2374.7244	0.169026	-403.074892	-403.064466	-403.063522	-403.113244	35.867	
O	 0.0529233655	 0.9420112248	 0.9589465487	-0.409422
C	-0.0950746088	 0.2455218052	-0.2738585267	-0.215325
C	-1.4116121329	-0.3751940363	-0.3345489382	 0.125541
C	-2.4991374335	-0.8859660094	-0.4099734703	 0.037742
C	-3.8055991225	-1.5276065343	-0.475542393	-0.352976
C	-3.8440886908	-2.8795764961	 0.2583985272	-0.132077
N	-5.1801425486	-3.4537118826	 0.1747391432	-0.056432
C	-5.4378448897	-4.3256992116	-0.9684077935	-0.222387
C	-5.2796000512	-4.8901621989	 0.4000462194	-0.223417
H	 0.9286940222	 1.3417909946	 0.9574846647	 0.288107
H	 0.0206927376	 0.9284520653	-1.1316632373	 0.114394
H	 0.6772371081	-0.5337169072	-0.3837521633	 0.112742
H	-4.5724952106	-0.8737527787	-0.0436685055	 0.142477
H	-4.0911113962	-1.6808597729	-1.5245057611	 0.128439
H	-3.0705354993	-3.5468842398	-0.1613548338	 0.087897
H	-3.6007314957	-2.7255580827	 1.314987405	 0.118149
H	-6.4209578786	-4.2379978175	-1.4215370154	 0.118017
H	-4.6238232659	-4.4984278951	-1.6716628482	 0.109451
H	-4.362114044	-5.4394684885	 0.606539028	 0.110776
H	-6.1452382852	-5.2214230982	 0.9665102101	 0.118305
10.7209	53.0132	75.8761	100.0471	148.5043	207.8938	237.7473	289.4949	337.2878	365.8079	427.0242	488.7459	561.007	755.5334	783.0168	794.91	847.3621	905.926	1009.7729	1028.1172	1031.3254	1046.0589	1057.9095	1083.4377	1113.3996	1119.3137	1153.3942	1169.0289	1179.9755	1243.1375	1247.1724	1256.8433	1304.2972	1312.2575	1324.7259	1396.3706	1460.2384	1470.2507	1489.2544	1498.7513	1504.2532	1522.6054	2373.1695	2946.0125	2959.4974	2976.2535	3023.5003	3057.3739	3075.713	3090.8845	3096.1178	3176.1346	3190.3686	3817.0863
OCC#CCCN1CC1	OCC#CCCN1CC1	
InChI=1S/C7H11NO/c9-7-3-1-2-4-8-5-6-8/h9H,2,4-7H2	InChI=1S/C7H11NO/c9-7-3-1-2-4-8-5-6-8/h9H,2,4-7H2
