20
gdb 79581	2.09382	1.6924	1.50547	1.7052	78.85	-0.2304	0.0712	0.3016	1047.1742	0.169494	-403.086213	-403.077211	-403.076267	-403.119115	34.872	
C	-0.0070224235	 1.5502845547	 0.0676649947	-0.423905
C	 0.1164576881	 0.0406290599	 0.0716526536	-0.089305
C	 1.3912749551	-0.7078725586	-0.2152220404	-0.087152
N	 2.5596058116	 0.0142680664	 0.3349871664	-0.162848
C	 3.1754213402	-0.9468425864	 1.2737871876	-0.279095
C	 1.9774302577	-0.2012226341	 1.7384494692	 0.272091
C	 2.0298372942	 0.8205447852	 2.8390949957	-0.505988
C	 0.733489167	-0.8305722717	 1.1532075297	 0.286426
O	 0.0659393981	-1.9056407905	 1.7215562464	-0.461271
H	 0.9345171218	 2.0238206555	 0.3510979528	 0.144813
H	-0.2644093094	 1.9049157104	-0.9363259815	 0.117208
H	-0.7923438518	 1.8939437367	 0.7502853984	 0.106923
H	-0.7366370558	-0.4798091695	-0.3649198508	 0.088226
H	 1.513709309	-1.4301685477	-1.0141125736	 0.096903
H	 3.1059358715	-2.0094309751	 1.0534514702	 0.118248
H	 4.1401682232	-0.6175045001	 1.6496522205	 0.11423
H	 3.0062034078	 1.3126403903	 2.8700014602	 0.130069
H	 1.2632223052	 1.5911359958	 2.7170587762	 0.123044
H	 1.8688899475	 0.3356847256	 3.8091737757	 0.125335
H	-0.7485810875	-1.5829429866	 2.1214083289	 0.286049
156.0549	169.2376	183.7017	194.7131	222.8581	265.6384	278.3524	327.0887	398.8841	458.5507	538.9191	603.4406	646.706	672.5539	731.8285	782.8713	839.217	896.0193	940.4877	968.405	982.3835	998.9189	1040.5118	1065.7734	1095.2314	1115.5833	1121.8688	1131.7241	1158.2523	1195.7859	1229.5332	1297.2635	1302.051	1344.2127	1368.3068	1409.3162	1415.6441	1464.547	1485.3957	1493.2757	1496.7802	1504.0312	1508.3855	3032.1568	3034.5672	3086.887	3097.2833	3106.7497	3109.3476	3117.3238	3136.8318	3181.9047	3196.7014	3799.1389
CC1C2N3CC3(C)C12O	C[C@H]1[C@H]2N3C[C@]3(C)[C@@]12O	
InChI=1S/C7H11NO/c1-4-5-7(4,9)6(2)3-8(5)6/h4-5,9H,3H2,1-2H3	InChI=1S/C7H11NO/c1-4-5-7(4,9)6(2)3-8(5)6/h4-5,9H,3H2,1-2H3/t4-,5+,6+,7+,8?/m0/s1
