19
gdb 68266	2.4087	1.47328	1.41077	1.2886	82.01	-0.2365	0.0387	0.2752	1068.1736	0.156064	-385.799318	-385.790305	-385.789361	-385.832267	35.191	
C	 0.0608721559	 1.4827507946	 0.1029056509	-0.51863
C	 0.0266138259	-0.0040256159	-0.0511947575	 0.380541
C	 0.716379815	-0.9247097806	-1.0916587601	-0.28663
C	 0.1006742072	-1.7991184085	 0.0182767416	 0.013363
O	 0.6256692297	-0.8482769922	 1.0169553925	-0.348599
C	-1.2323781239	-0.9706872886	-0.0401950465	 0.155943
C	-2.0978192008	-0.9613112664	 1.2187529267	-0.483123
C	-2.040397564	-1.0453483934	-1.2454368657	 0.22023
C	-2.7467877662	-1.0999539048	-2.2182686344	-0.439621
H	 1.0940790663	 1.8381058648	 0.1613261468	 0.136393
H	-0.4234203212	 1.9568529375	-0.7562984618	 0.137054
H	-0.4641245553	 1.7906486356	 1.0121871315	 0.135621
H	 0.2971358655	-0.9807533865	-2.0963752493	 0.117966
H	 1.8055397432	-0.880226448	-1.0737725372	 0.10454
H	 0.2225218745	-2.8629857952	 0.2225623505	 0.09668
H	-1.4647774554	-0.9066782903	 2.105064029	 0.141326
H	-2.7804732255	-0.1059521285	 1.2084198168	 0.122518
H	-2.7087679408	-1.8677285352	 1.2677066257	 0.123916
H	-3.3617098602	-1.1521791385	-3.0824765195	 0.190512
116.2077	164.9334	187.3311	193.8495	223.6743	301.0579	326.7799	349.2829	485.8889	504.6987	543.7334	576.4465	627.5607	636.654	655.3536	684.1627	713.6813	801.7342	877.4111	908.5966	922.0646	968.1131	1019.8274	1030.5443	1090.0408	1128.1836	1144.757	1166.3754	1198.4699	1216.658	1242.3497	1250.1439	1337.5223	1394.0979	1408.9679	1475.7394	1483.8854	1486.3348	1494.6217	1500.2999	2223.6381	3040.4413	3045.231	3084.8597	3106.0942	3115.4504	3117.4315	3120.2582	3148.4386	3163.2502	3500.9553
CC12CC(O1)C2(C)C#C	C[C@@]12C[C@@H](O1)[C@]2(C)C#C	
InChI=1S/C8H10O/c1-4-7(2)6-5-8(7,3)9-6/h1,6H,5H2,2-3H3	InChI=1S/C8H10O/c1-4-7(2)6-5-8(7,3)9-6/h1,6H,5H2,2-3H3/t6-,7+,8+/m1/s1
