19
gdb 84505	2.9951	1.77916	1.43278	1.7411	80.57	-0.2264	-0.0034	0.223	970.9054	0.160242	-385.807655	-385.800471	-385.799527	-385.838747	29.865	
C	-0.4012249415	 1.5542390786	-0.0728467341	-0.397544
C	-0.0462177858	 0.0582463128	-0.0016162192	-0.084427
C	 0.8303763857	-0.3940959985	-1.181179014	-0.04333
C	 2.0921924506	-0.7151636498	-0.8564397003	-0.251726
C	 2.2299517887	-0.4600843747	 0.6004863748	 0.420924
C	 2.8234786963	-0.7999838615	 1.987584028	-0.307683
C	 1.7859412101	 0.369718804	 2.1274244534	 0.01311
O	 2.4093168515	 1.0099107818	 0.9688012095	-0.346933
C	 0.8184203659	-0.4189653465	 1.1923997592	-0.023437
H	 0.5019674714	 2.1638039532	-0.0498764348	 0.148088
H	-0.9587453648	 1.7761990548	-0.9894146811	 0.105094
H	-1.0341833958	 1.8335834471	 0.7758533079	 0.110645
H	-0.9880020879	-0.5049479617	-0.0144490692	 0.075853
H	 0.4434246264	-0.39241457	-2.1965113364	 0.101337
H	 2.8809857843	-0.9975910235	-1.541253424	 0.108879
H	 2.5829027891	-1.7765528265	 2.4158475966	 0.098312
H	 3.8578561025	-0.4984895683	 2.1535567861	 0.11036
H	 1.5858148343	 0.9910228677	 3.0014578263	 0.090685
H	 0.4614878588	-1.3690519391	 1.6008025513	 0.071792
172.2108	201.9523	233.3185	312.5796	359.5758	456.0246	521.0959	539.6188	624.925	681.8474	702.6857	777.0854	793.276	803.4249	845.1831	885.3501	893.8925	950.7893	961.9993	984.0215	1018.0424	1033.0893	1067.7765	1085.8021	1110.1671	1131.3376	1140.7596	1151.2329	1189.3642	1198.9299	1238.2725	1272.2052	1306.869	1338.6195	1370.2455	1384.7211	1403.5761	1487.7195	1491.2767	1513.2999	1622.5158	3017.3287	3036.1823	3056.9097	3068.0659	3094.4442	3107.2049	3150.9528	3155.9814	3173.0175	3221.3621
CC1C=CC23CC(O2)C13	C[C@H]1C=C[C@@]23C[C@@H](O2)[C@@H]13	
InChI=1S/C8H10O/c1-5-2-3-8-4-6(9-8)7(5)8/h2-3,5-7H,4H2,1H3	InChI=1S/C8H10O/c1-5-2-3-8-4-6(9-8)7(5)8/h2-3,5-7H,4H2,1H3/t5-,6+,7+,8-/m0/s1
