15
gdb 69133	2.86042	1.46265	1.13729	5.1766	66.43	-0.2347	-0.084	0.1507	1047.2784	0.11134	-457.781286	-457.773465	-457.772521	-457.813635	29.849	
O	-0.1479499553	 1.4120407673	-0.1608524496	-0.461717
C	-0.0253463556	 0.0392912739	 0.022369776	 0.38351
C	-0.2290491241	-0.8890994225	-1.1266237473	-0.351932
C	-1.2997614505	-0.7875946978	-0.0220102845	-0.198154
C	-1.2260834424	-1.8300562594	 1.0327355277	 0.332679
O	-2.0905643078	-2.5619379221	 1.4360103151	-0.297697
C	 0.2219274162	-1.7693736208	 1.6287547644	 0.292924
O	 0.7033221339	-2.6047709942	 2.3410226128	-0.272707
C	 0.8610080339	-0.4627101228	 1.157357482	-0.407627
H	 0.630817842	 1.7267847376	-0.6337507489	 0.291308
H	-0.5287412381	-0.446899277	-2.0697074989	 0.139259
H	 0.361468945	-1.7964398551	-1.2116053545	 0.134305
H	-2.2541196487	-0.3522978014	-0.2864752756	 0.130729
H	 1.9129622179	-0.6046890747	 0.891289376	 0.131943
H	 0.8160109134	 0.254633979	 1.9863840953	 0.153175
83.8815	143.9764	266.7683	301.3457	313.1014	356.3222	407.1968	422.1777	510.4246	535.5547	625.4619	668.3602	688.7544	760.7691	876.5732	894.7172	915.5021	965.7776	992.9555	1048.2083	1059.7935	1080.1229	1139.1475	1187.7398	1225.6669	1247.8812	1305.6165	1320.1453	1395.1711	1449.3001	1487.0119	1837.2064	1861.9959	3041.2331	3092.4437	3128.2816	3213.9954	3226.294	3795.6452
OC12CC1C(=O)C(=O)C2	O[C@]12C[C@H]1C(=O)C(=O)C2	
InChI=1S/C6H6O3/c7-4-2-6(9)1-3(6)5(4)8/h3,9H,1-2H2	InChI=1S/C6H6O3/c7-4-2-6(9)1-3(6)5(4)8/h3,9H,1-2H2/t3-,6-/m0/s1
