19
gdb 86990	5.27449	0.64158	0.6363	4.3374	76.95	-0.2442	0.0209	0.265	1743.6752	0.158991	-419.187488	-419.178116	-419.177172	-419.22265	34.037	
O	 0.5214642871	 0.3485631238	-0.8850609288	-0.428204
C	-0.1961846707	-0.3710300387	 0.0802875428	 0.175254
C	 0.1755347745	-0.2417763691	 1.5844839984	-0.290814
C	-1.3356312257	-0.2885445182	 1.9340514676	 0.045896
C	-1.6538289724	 0.0392775623	 0.4330764994	-0.292861
N	-1.7461761269	-1.5882865399	 2.4475824519	-0.295821
C	-3.1884438914	-1.7064277156	 2.6273490383	-0.265078
C	-3.5488230864	-3.0351615681	 3.1293993109	 0.256626
N	-3.8371444613	-4.0895545544	 3.5021613825	-0.296816
H	 0.5111026847	 1.2792598851	-0.6366096437	 0.277697
H	-0.1484992747	-1.4134066656	-0.2497058081	 0.09335
H	 0.8094213484	-1.0101762022	 2.0334497952	 0.11373
H	 0.6068477657	 0.7406984105	 1.8015004168	 0.101076
H	-1.6775026683	 0.4652079719	 2.6499093561	 0.082582
H	-1.8086225707	 1.1130682577	 0.2795540343	 0.097281
H	-2.470333692	-0.5008354262	-0.0546267312	 0.102838
H	-1.4123345617	-2.3385252309	 1.8504154873	 0.232438
H	-3.509979028	-0.9597393171	 3.3647260373	 0.156574
H	-3.7827884102	-1.5181220752	 1.7154026331	 0.134251
44.4484	81.9397	110.7552	139.4088	240.274	287.0483	328.4119	372.888	393.9645	449.459	458.0381	550.3822	656.0419	740.762	798.0698	871.6755	910.6575	921.7544	951.1496	973.6838	999.4913	1007.1375	1077.9376	1094.4981	1122.3608	1158.3292	1196.0557	1205.6088	1256.1141	1263.2063	1269.2565	1283.1561	1334.4343	1343.9162	1402.9183	1441.1283	1461.3458	1486.2278	1492.7592	1503.2221	2368.8743	2946.4479	3040.5887	3044.3959	3049.3146	3061.0619	3061.7127	3099.3354	3115.3586	3518.9517	3802.9565
OC1CC(C1)NCC#N	O[C@H]1C[C@@H](C1)NCC#N	
InChI=1S/C6H10N2O/c7-1-2-8-5-3-6(9)4-5/h5-6,8-9H,2-4H2	InChI=1S/C6H10N2O/c7-1-2-8-5-3-6(9)4-5/h5-6,8-9H,2-4H2/t5-,6-
