21
gdb 63947	2.70948	1.66158	1.48434	1.6789	76.21	-0.25	0.0812	0.3312	1012.3005	0.184044	-424.244694	-424.236726	-424.235782	-424.276577	32.34	
C	-0.1382044749	 1.578463422	 0.006345303	-0.447808
C	-0.0114256151	 0.05317191	-0.015278695	 0.312726
C	-1.3977648325	-0.6064723513	-0.0083653782	-0.444224
C	 0.8687626939	-0.4871686167	-1.2002011356	-0.284032
C	 1.9620758897	-1.2677746109	-0.4394170195	 0.045068
C	 2.8987513544	-0.2682271786	 0.2608381205	-0.08592
O	 2.044628139	 0.2458462857	 1.2967270511	-0.277654
C	 0.8356968676	-0.5011530954	 1.1643889478	 0.155342
O	 1.2467860303	-1.7736305648	 0.7044039866	-0.252894
H	 0.8421519044	 2.0591069753	 0.0303189672	 0.125887
H	-0.6806967855	 1.9333287341	-0.8765038814	 0.10996
H	-0.6942189557	 1.9126620741	 0.8898888987	 0.111648
H	-1.9558056836	-0.3420936195	-0.9131039149	 0.112117
H	-1.3111981193	-1.6956260565	 0.0331936914	 0.12733
H	-1.9883519167	-0.2758755246	 0.8537569989	 0.109843
H	 0.296624405	-1.1532364302	-1.8507436821	 0.102917
H	 1.2859007988	 0.3142029963	-1.8161165167	 0.099518
H	 2.4485614729	-2.0824070691	-0.9736672208	 0.087243
H	 3.7696649522	-0.7582936651	 0.7110813714	 0.106568
H	 3.2352517645	 0.5430859427	-0.3935159112	 0.101067
H	 0.3421386406	-0.5715353676	 2.1345357588	 0.085299
123.9978	223.3858	241.0994	260.1958	295.8777	332.9761	374.3479	417.1281	493.2559	564.3795	585.031	735.4108	800.082	834.3547	851.5818	899.9296	920.2997	941.7822	950.8919	962.9518	978.6077	989.6779	1015.5657	1034.1751	1057.4143	1104.0968	1141.1523	1193.5531	1216.8517	1220.8072	1265.9699	1267.5317	1286.5437	1309.7748	1335.3214	1348.3256	1375.6044	1396.7318	1418.9556	1486.3374	1490.4795	1493.2176	1503.1642	1512.4019	1524.1352	3026.0366	3029.4433	3032.5039	3059.3971	3075.7999	3087.606	3093.1951	3106.6204	3115.5459	3120.4379	3126.1911	3137.7194
CC1(C)CC2COC1O2	CC1(C)C[C@H]2CO[C@@H]1O2	
InChI=1S/C7H12O2/c1-7(2)3-5-4-8-6(7)9-5/h5-6H,3-4H2,1-2H3	InChI=1S/C7H12O2/c1-7(2)3-5-4-8-6(7)9-5/h5-6H,3-4H2,1-2H3/t5-,6+/m0/s1
