21
gdb 73827	2.36617	1.77366	1.33963	0.3016	88.02	-0.2032	0.0085	0.2118	1073.7821	0.183724	-349.961981	-349.953801	-349.952857	-349.994169	32.848	
C	-0.0194342774	 1.5176530033	 0.1109398743	-0.512894
C	-0.0425379315	 0.0311008008	-0.010588471	 0.237385
C	-0.0527481529	-0.7562798163	-1.0930598478	 0.237421
C	-0.0446302566	-0.4142542045	-2.5449855916	-0.512892
C	 0.0270605539	-2.2178578597	-0.5832804811	-0.147214
C	-0.8438219669	-2.0689746604	 0.6968785081	-0.197017
C	 0.0440656979	-0.9047647157	 1.2219362312	-0.147205
C	 1.4120119591	-1.6135280167	 1.1687726243	-0.077185
C	 1.4018587332	-2.3978292417	 0.0905104636	-0.077185
H	 0.90596798	 1.8604857402	 0.5942820501	 0.123148
H	-0.0889198171	 2.0130152342	-0.8617368087	 0.120493
H	-0.8468430063	 1.883226214	 0.733087342	 0.121611
H	-0.1054796767	 0.6643545489	-2.71589734	 0.120491
H	 0.8710750793	-0.7777584876	-3.0316661213	 0.12314
H	-0.8835754629	-0.8852265729	-3.0738374886	 0.12162
H	-0.2548267034	-2.9827608807	-1.3081819357	 0.05123
H	-1.8739494229	-1.7670646627	 0.4869733008	 0.088187
H	-0.8242294278	-2.9536451116	 1.3401906399	 0.088753
H	-0.2220064587	-0.4481978659	 2.17628001	 0.051227
H	 2.2219736769	-1.439632845	 1.8645919272	 0.093443
H	 2.2016008708	-3.0134796999	-0.2991410559	 0.093442
159.5674	163.7639	177.3843	192.5825	258.9514	331.854	454.9841	469.9371	536.8265	598.8683	624.6085	632.8258	744.0439	783.9507	833.5304	881.0262	887.5543	891.988	922.1537	941.4601	955.7463	965.4956	1039.3823	1047.8261	1067.1829	1082.0796	1104.7458	1143.6344	1166.7833	1182.1469	1233.9247	1235.621	1264.8644	1273.8925	1314.4451	1334.4057	1407.4248	1419.1684	1478.1335	1479.3724	1486.7473	1491.0817	1493.1116	1634.1328	1738.2578	3005.7658	3007.7767	3047.7348	3048.5586	3048.9622	3100.8691	3103.2809	3104.8844	3105.2576	3107.6886	3205.1908	3232.047
CC1=C(C)C2CC1C=C2	CC1=C(C)[C@@H]2C[C@H]1C=C2	
InChI=1S/C9H12/c1-6-7(2)9-4-3-8(6)5-9/h3-4,8-9H,5H2,1-2H3	InChI=1S/C9H12/c1-6-7(2)9-4-3-8(6)5-9/h3-4,8-9H,5H2,1-2H3/t8-,9+
