17
gdb 111186	2.90823	1.21369	0.96947	2.294	75.45	-0.2415	0.0301	0.2716	1230.8798	0.133343	-421.698685	-421.690162	-421.689218	-421.732176	31.747	
C	 0.0900447735	 1.304001095	 0.2750588321	-0.244669
O	-0.3306697192	 0.0312331976	-0.1718254038	-0.242845
C	 0.4485020071	-0.4760226354	-1.1960087993	 0.165996
C	 1.7277040976	-1.3109756947	-0.8515825532	-0.011825
O	 0.8574596245	-2.3572328457	-0.2844131291	-0.304999
C	 0.1976376515	-1.9578329097	-1.5429627805	-0.007169
C	 1.5992559357	-2.0230216816	-2.2381965528	-0.179463
C	 1.8786461266	-1.3466649705	-3.4856630622	 0.299355
C	 2.1218565509	-0.7993511395	-4.5288001278	-0.44532
H	 1.0912394661	 1.2680256134	 0.7283814752	 0.111486
H	 0.1064212167	 2.0369281585	-0.5461018494	 0.109072
H	-0.6273012971	 1.6323686147	 1.0298759154	 0.134194
H	 0.5434393773	 0.2231488052	-2.0370734179	 0.086546
H	 2.6349594092	-1.0493469721	-0.3074997743	 0.103235
H	-0.7269459822	-2.4629858561	-1.8204887792	 0.106572
H	 2.0074102907	-3.0340755531	-2.1991734639	 0.1206
H	 2.3346677413	-0.315554836	-5.4500175192	 0.199233
73.8077	121.9795	152.4418	181.3857	221.2896	320.5675	395.2497	453.7946	495.0481	541.2009	637.1399	646.8469	657.8255	763.0401	825.4521	871.6823	896.1239	903.7835	958.6134	1034.4428	1047.5555	1056.6871	1127.2087	1133.0305	1168.9778	1181.2509	1184.6374	1212.1428	1225.9508	1247.0575	1278.3382	1346.3671	1418.6225	1485.4804	1490.8492	1507.8622	2231.4737	2981.7122	3029.157	3033.1808	3107.1993	3124.2437	3125.3693	3132.7698	3501.8102
COC1C2OC1C2C#C	CO[C@H]1[C@H]2O[C@@H]1[C@H]2C#C	
InChI=1S/C7H8O2/c1-3-4-5-7(8-2)6(4)9-5/h1,4-7H,2H3	InChI=1S/C7H8O2/c1-3-4-5-7(8-2)6(4)9-5/h1,4-7H,2H3/t4-,5-,6+,7-
