16
gdb 60707	4.81682	0.62962	0.59581	1.09	77.64	-0.2475	-0.0479	0.1995	1817.2859	0.122373	-437.823871	-437.81451	-437.813566	-437.860347	32.265	
O	-0.4178563959	 1.1854445618	 0.203359222	-0.409233
C	 0.0159381678	-0.1218726577	-0.0546346079	-0.112901
C	 0.9218680412	-0.1484698461	-1.2925819351	 0.145087
O	 1.2056446671	 0.8659641012	-1.8747798786	-0.248315
C	 0.7547464887	-0.7331175599	 1.0543449804	 0.091894
C	 1.3843150627	-1.2336718835	 1.9533385156	 0.054965
C	 2.1180440542	-1.8446934878	 3.0237854885	-0.160524
C	 1.7257655922	-1.5655817346	 4.4396919304	-0.223633
N	 1.479599112	-2.8889658683	 3.8643315822	-0.304503
H	 0.0719353588	 1.7459696273	-0.4204755057	 0.297848
H	-0.8535884466	-0.7611311617	-0.2906880677	 0.125224
H	 1.2998930713	-1.1421450928	-1.5981903988	 0.117615
H	 3.1655776119	-2.0463979724	 2.8160286956	 0.121958
H	 2.5009215331	-1.5308303528	 5.1996341389	 0.13038
H	 0.8884045653	-0.8935112666	 4.600395102	 0.131889
H	 0.5007579261	-2.969626936	 3.5986681983	 0.242248
19.2062	60.9852	89.0016	128.1568	200.2476	243.3298	310.7459	397.1629	445.2878	465.181	527.083	570.0487	698.7345	765.6786	813.5663	834.2302	893.8391	960.8614	994.6241	1015.6274	1078.9292	1116.2064	1135.1361	1157.6007	1217.4295	1237.3215	1256.9785	1298.3486	1325.1891	1387.4324	1392.7224	1431.0705	1504.8461	1822.7425	2347.2696	2949.0876	2967.6539	3117.7628	3142.1581	3209.6226	3503.8642	3682.646
OC(C=O)C#CC1CN1	O[C@@H](C=O)C#C[C@H]1CN1	
InChI=1S/C6H7NO2/c8-4-6(9)2-1-5-3-7-5/h4-7,9H,3H2	InChI=1S/C6H7NO2/c8-4-6(9)2-1-5-3-7-5/h4-7,9H,3H2/t5-,6+/m0/s1
