15
gdb 21716	3.64312	1.88458	1.28366	5.1589	63.72	-0.1974	0.0243	0.2217	904.7587	0.122177	-395.988146	-395.980941	-395.979996	-396.019522	27.197	
N	 0.1424498869	 0.7707168779	 0.3876108988	-0.513987
H	-0.6825815267	-0.9474931585	 1.1395843495	 0.294656
H	 1.0948653793	 1.1141219185	 0.4526650842	 0.242243
H	-0.0755130223	 0.6713408827	-0.5995517752	 0.246434
C	-0.7948631364	 1.7220865835	 1.0160610181	-0.289144
C	-2.1276307913	 1.0597396789	 1.1488360755	 0.24099
C	-2.4204945148	-0.2841041009	 1.3198222635	 0.205799
O	-1.5501011098	-1.3213272848	 1.3818213404	-0.449727
C	-3.8270034042	-0.3491183947	 1.4157626599	-0.083236
N	-4.376588438	 0.8616912362	 1.3142605034	-0.228378
N	-3.3370210059	 1.694037487	 1.1493625024	-0.271514
H	-0.3809050293	 1.9718027692	 2.0027856048	 0.129331
H	-0.8900044859	 2.675422131	 0.4699560086	 0.099441
H	-4.4460819493	-1.2225843518	 1.5524662627	 0.111104
H	-3.5138742222	 2.6784503159	 1.0458727432	 0.265988
98.4409	198.248	232.1192	316.7053	339.1434	415.3831	422.9379	448.5144	658.3644	687.0295	703.0313	709.6407	732.3596	862.8845	886.9994	952.4588	998.1134	1042.3514	1127.6165	1166.4858	1178.1351	1248.51	1266.3206	1324.54	1343.9361	1415.2802	1437.7443	1472.586	1503.0673	1578.383	1634.3943	1653.3817	2959.5754	3016.5754	3254.4742	3498.3529	3582.6913	3590.7095	3672.2033
[NH3+]CC1=C([O-])C=NN1	NCc1c(O)cn[nH]1	
InChI=1S/C4H7N3O/c5-1-3-4(8)2-6-7-3/h2,8H,1,5H2,(H,6,7)	InChI=1S/C4H7N3O/c5-1-3-4(8)2-6-7-3/h2,8H,1,5H2,(H,6,7)
