18
gdb 89958	3.29857	1.31632	1.10495	2.2791	73.41	-0.2357	-0.0416	0.1941	1126.8374	0.146523	-439.047849	-439.039399	-439.038454	-439.081022	31.53	
C	 0.2212927454	 1.6605164292	 0.2261803731	-0.409271
C	-0.0393926595	 0.1735239762	 0.2277580036	 0.150753
O	 0.5585518128	-0.52200745	-0.9131186822	-0.358324
C	 1.180532639	-1.5035594754	-0.075817785	 0.342543
C	 2.625098397	-1.1821271262	 0.363144128	-0.224908
N	 2.1141063128	-0.3141883725	 1.4645159463	-0.312842
C	 0.7264326899	-0.7401404468	 1.2171414661	-0.126716
C	 0.8050255185	-2.913824213	-0.4097831218	 0.078277
O	 1.4005874098	-3.8808202763	-0.0013900073	-0.258916
H	 1.2897821883	 1.860011932	 0.3283318716	 0.14257
H	-0.1443591718	 2.1030375706	-0.7053825002	 0.127529
H	-0.3064957902	 2.1369118678	 1.0596739272	 0.115494
H	-1.1177168136	-0.0389922723	 0.2472189876	 0.079251
H	 3.1345392461	-2.0909872071	 0.7003370162	 0.127297
H	 3.2350329196	-0.6569453184	-0.3772803113	 0.117429
H	 2.4617630365	-0.5712282915	 2.3795763914	 0.23034
H	 0.1787173688	-1.1789761347	 2.0522771902	 0.088077
H	-0.0952076593	-2.9976991018	-1.0570265334	 0.091418
86.9661	108.0806	205.2118	212.0406	233.28	252.9066	343.753	409.1998	476.3424	591.6664	627.4522	718.0318	727.6884	799.2743	829.6625	875.3194	948.4639	954.1068	1000.4487	1014.9255	1059.0904	1084.145	1100.1697	1131.49	1147.8614	1150.474	1191.7943	1239.7956	1285.6383	1311.6513	1348.9235	1369.0666	1392.6073	1401.9916	1410.6421	1479.8948	1490.9406	1495.8431	1810.4189	2901.0528	3002.5135	3041.4475	3041.94	3101.4013	3102.5918	3107.9772	3140.2552	3559.54
CC1OC2(CNC12)C=O	C[C@H]1O[C@]2(CN[C@@H]12)C=O	
InChI=1S/C6H9NO2/c1-4-5-6(3-8,9-4)2-7-5/h3-5,7H,2H2,1H3	InChI=1S/C6H9NO2/c1-4-5-6(3-8,9-4)2-7-5/h3-5,7H,2H2,1H3/t4-,5+,6-/m1/s1
