16
gdb 19563	4.06486	2.12188	1.93424	1.7272	68.59	-0.2301	0.012	0.242	753.5874	0.131796	-346.541927	-346.535915	-346.534971	-346.571665	24.916	
C	 0.0425887006	 1.4890350362	 0.0097783744	-0.305033
O	 1.2203847472	 0.6462654296	-0.0066661455	-0.287225
C	-0.0321017598	 0.0331331551	 0.002567368	 0.539453
C	-0.6022253867	-0.977239222	 1.0375065607	-0.180003
C	-1.7865931533	-1.0996076229	 0.013993458	-0.21161
C	-0.6230145971	-0.9659432987	-1.031693003	-0.179999
C	 0.2023492826	-2.211262819	-0.6807292916	-0.076774
C	 0.2159129584	-2.2184772733	 0.6564565407	-0.076768
H	-0.113428756	 2.0435628318	 0.9341568711	 0.118044
H	-0.1319159481	 2.0536176042	-0.9051600064	 0.118044
H	-0.7502425859	-0.7320853938	 2.0877885722	 0.068637
H	-2.3282227947	-2.0467101468	 0.0142580139	 0.10128
H	-2.4695104893	-0.2445002053	 0.0255108708	 0.097347
H	-0.7920669154	-0.7093491437	-2.0760504159	 0.068636
H	 0.6771336239	-2.8797247258	-1.3838486983	 0.102985
H	 0.7047661536	-2.8944488555	 1.3425497009	 0.102986
184.05	275.4828	327.6781	432.6378	540.6557	560.7905	603.2775	721.5151	765.7055	808.4087	829.1973	865.7821	896.5672	906.6318	923.7329	931.2033	986.967	1008.685	1038.3284	1068.2387	1108.0975	1114.0593	1133.1909	1144.2038	1170.3213	1203.8275	1217.6287	1242.0218	1246.8983	1323.3416	1433.3003	1486.5812	1542.0185	1621.871	3054.9822	3082.2927	3133.5446	3134.0147	3135.8138	3168.2102	3226.9609	3253.1671
C1OC11C2CC1C=C2	C1O[C@]21[C@H]1C[C@@H]2C=C1	
InChI=1S/C7H8O/c1-2-6-3-5(1)7(6)4-8-7/h1-2,5-6H,3-4H2	InChI=1S/C7H8O/c1-2-6-3-5(1)7(6)4-8-7/h1-2,5-6H,3-4H2/t5-,6+,7-
