21
gdb 117684	2.55046	1.07954	0.94769	1.143	75.36	-0.2594	0.0812	0.3406	1365.8936	0.179442	-461.330202	-461.319924	-461.318979	-461.365516	37.372	
C	-0.7690668633	 1.3592946454	-0.3468009639	-0.2249
O	-0.8407176515	-0.024761103	-0.5971029092	-0.240577
C	-0.7003113363	-0.8075484582	 0.5692004033	-0.089497
C	-0.8245394664	-2.2983547564	 0.2032053814	 0.286316
C	 0.267983815	-2.7171908676	-0.7772593096	-0.407268
O	-0.6606168209	-3.0559797022	 1.3927000717	-0.479506
C	-2.2115200377	-2.5565531949	-0.3806274142	 0.061432
C	-2.8506191228	-3.869795232	-0.2791496103	-0.190578
O	-3.2290934961	-2.7993132899	 0.6049870652	-0.264278
H	-0.8905299115	 1.8726183669	-1.3037360085	 0.127412
H	-1.564115641	 1.6903814555	 0.3393269779	 0.108408
H	 0.2010685781	 1.6436431625	 0.08958252	 0.107252
H	 0.278551297	-0.6391601379	 1.0451716019	 0.094766
H	-1.4797268391	-0.5501653185	 1.3063807836	 0.090373
H	 1.2492137269	-2.5826045439	-0.3125392255	 0.123961
H	 0.156666769	-3.7708562793	-1.0459121201	 0.116925
H	 0.2259273786	-2.1057276573	-1.6813590763	 0.132953
H	-1.5196184565	-3.0281270776	 1.8394958463	 0.287963
H	-2.5100948617	-1.8785119606	-1.1769548142	 0.110962
H	-3.6114984999	-4.1583861475	-1.0013970264	 0.120081
H	-2.3120844198	-4.6852466036	 0.1975272169	 0.1278
67.2111	104.573	119.3274	162.1829	199.432	228.0087	239.8526	283.1264	330.903	336.4799	384.2357	441.7603	531.9682	550.3519	612.0064	733.3131	847.1389	891.351	937.3431	965.7288	979.6911	998.4044	1017.8479	1100.7647	1143.2968	1154.9379	1163.6014	1177.8906	1189.2521	1202.6637	1219.1643	1240.1851	1261.9258	1281.7873	1376.3134	1396.1467	1416.7099	1441.0619	1480.7876	1486.5902	1487.7759	1493.5756	1502.5757	1515.9613	1523.1802	2959.2726	2976.6225	3003.2435	3021.2667	3048.612	3099.7464	3114.6443	3120.058	3136.9376	3146.9396	3193.1481	3726.9818
COCC(C)(O)C1CO1	COC[C@@](C)(O)[C@H]1CO1	
InChI=1S/C6H12O3/c1-6(7,4-8-2)5-3-9-5/h5,7H,3-4H2,1-2H3	InChI=1S/C6H12O3/c1-6(7,4-8-2)5-3-9-5/h5,7H,3-4H2,1-2H3/t5-,6-/m1/s1
