16
gdb 86775	2.8213	1.0784	0.93125	2.3433	72.41	-0.2477	0.0125	0.2601	1277.6823	0.122341	-437.856843	-437.847532	-437.846588	-437.892021	32.58	
O	 0.146061141	 1.4448058349	 0.0606270002	-0.428544
C	-0.0276872135	 0.0522144297	 0.0805526908	-0.009224
C	-1.4802412247	-0.4060568856	-0.2285075503	-0.185821
N	-0.9288397201	-1.1445096896	-1.3748632937	-0.083217
C	-1.5586544306	-1.8639023896	-2.463337031	-0.320289
C	-2.5728033486	-1.0734896844	-3.1601602097	 0.305069
C	-3.4190534697	-0.4179423841	-3.7050621871	-0.446206
C	 0.3557964248	-0.6867297343	-1.2302198626	 0.3808
O	 1.3484636841	-0.8003169658	-1.9025812961	-0.37839
H	 1.0464436407	 1.6180289355	-0.2376228347	 0.30145
H	 0.3971405884	-0.4107237078	 0.9816195505	 0.095411
H	-1.9632551112	-1.0378718394	 0.5228863923	 0.11281
H	-2.1341430452	 0.4227511001	-0.5127922666	 0.135252
H	-0.7507112487	-2.1443828652	-3.1488198181	 0.170736
H	-2.0082859839	-2.7956350037	-2.0936702817	 0.142691
H	-4.1589274129	 0.1601952993	-4.2016190822	 0.207471
45.2655	63.5203	127.7432	155.6532	209.8561	245.0814	296.1084	328.5192	404.0915	457.9771	555.4006	627.6007	667.4789	694.039	769.1427	809.8192	876.1969	934.0922	955.9862	1001.0762	1059.058	1139.6254	1153.8037	1175.4122	1197.1608	1264.6884	1297.2395	1327.5504	1372.3313	1406.5211	1415.3004	1466.5871	1518.0215	1875.6785	2241.5259	3011.9734	3014.5821	3051.3575	3072.2448	3110.0142	3503.9937	3802.137
OC1CN(CC#C)C1=O	O[C@H]1CN(CC#C)C1=O	
InChI=1S/C6H7NO2/c1-2-3-7-4-5(8)6(7)9/h1,5,8H,3-4H2	InChI=1S/C6H7NO2/c1-2-3-7-4-5(8)6(7)9/h1,5,8H,3-4H2/t5-/m0/s1
