19
gdb 75003	3.06697	1.62378	1.46783	1.2238	79.56	-0.2096	0.0217	0.2314	988.3443	0.161496	-385.88775	-385.880673	-385.879728	-385.918948	29.041	
C	 0.0135865811	 1.5041343433	 0.0503182488	-0.49967
C	-0.0470604976	 0.0114710185	-0.0155233696	 0.360044
C	-0.0937495588	-0.7608293029	-1.1057247101	-0.192941
C	 0.0171870765	-2.2356166396	-0.7562951663	-0.115513
C	 1.5104289557	-2.6311804845	-0.7979443201	-0.068595
O	 2.0848994815	-1.9660202509	 0.3367262177	-0.25684
C	 1.0929982215	-1.8986193639	 1.3275659873	 0.096999
C	-0.2383862477	-2.2711778836	 0.7729101733	-0.122477
C	-0.0160320578	-0.8366239322	 1.2178962162	-0.193487
H	 0.9507043554	 1.8376300509	 0.5133883218	 0.134212
H	-0.0536604079	 1.9535578209	-0.9438828473	 0.122753
H	-0.8002856335	 1.9099710382	 0.6645547914	 0.122386
H	-0.0505392199	-0.4009939777	-2.1281660304	 0.085923
H	-0.6154419616	-2.9049179921	-1.3450061808	 0.07196
H	 1.6398749266	-3.7219749421	-0.7108598131	 0.086134
H	 2.0363578243	-2.2798279805	-1.6899400066	 0.107283
H	 1.432828549	-2.2007912497	 2.313186752	 0.096048
H	-0.9331409134	-2.9601611979	 1.2358373164	 0.088149
H	-0.4305944233	-0.4629875443	 2.1495356696	 0.077633
143.844	182.8813	235.1623	310.6198	385.7992	420.425	585.8785	612.4709	662.4902	730.7189	747.6284	792.7742	808.8978	843.2173	879.7937	903.9009	947.7202	951.7746	976.8166	1004.2622	1016.1166	1049.561	1052.2157	1069.338	1086.1356	1098.0628	1154.1546	1178.0918	1216.8497	1232.1268	1260.4514	1291.7123	1301.3983	1359.3405	1373.5269	1399.0395	1414.1406	1478.9697	1488.9098	1507.6317	1706.9898	2974.6504	3018.6217	3065.35	3076.8565	3091.8054	3112.7192	3150.5485	3158.8193	3187.3132	3189.8142
CC1=CC2COC3C2C13	CC1=C[C@H]2CO[C@@H]3[C@H]2[C@H]13	
InChI=1S/C8H10O/c1-4-2-5-3-9-8-6(4)7(5)8/h2,5-8H,3H2,1H3	InChI=1S/C8H10O/c1-4-2-5-3-9-8-6(4)7(5)8/h2,5-8H,3H2,1H3/t5-,6-,7+,8-/m0/s1
