21
gdb 95506	2.06179	1.46661	0.91508	2.7796	79.92	-0.2421	0.0137	0.2558	1287.4873	0.183053	-424.230207	-424.221174	-424.22023	-424.263652	35.275	
O	-0.0835377993	 1.4191586649	-0.0511388233	-0.438197
C	 0.0138365983	-0.0019256555	-0.0085593951	 0.115574
C	 0.84587103	-0.4454744277	 1.2029644365	-0.202895
C	 1.1157858732	-1.962302651	 1.2912625994	-0.268709
C	-0.0852371795	-2.7801554202	 1.7031459482	-0.062425
C	-1.2517225684	-2.7950812197	 1.0609577116	-0.085419
C	-1.5668826601	-2.0244509108	-0.2022653999	 0.072815
O	-2.9065030819	-2.2603668272	-0.6272494196	-0.442811
C	-1.4293337078	-0.5056576218	-0.0378552353	-0.168953
H	 0.8084912023	 1.7787182157	-0.0087564515	 0.276787
H	 0.5211448169	-0.3682095344	-0.9201142969	 0.058562
H	 1.8138238262	 0.0724396365	 1.1439798092	 0.078385
H	 0.3554027608	-0.097289936	 2.119163465	 0.107471
H	 1.493781844	-2.3102141971	 0.3181747983	 0.10821
H	 1.9282966337	-2.1323879756	 2.0038938217	 0.101843
H	 0.0171840276	-3.3771973093	 2.6059144606	 0.088941
H	-2.0774216692	-3.3847454044	 1.4546416696	 0.086529
H	-0.8676378645	-2.3404519269	-0.9984955942	 0.071382
H	-3.0124973975	-3.2087247585	-0.7529974909	 0.27897
H	-1.9532243648	-0.1813630476	 0.8672973209	 0.10688
H	-1.92645535	-0.0338998333	-0.8908767543	 0.11706
75.649	163.6406	207.9944	260.066	284.8307	299.5908	307.6839	333.485	406.2393	413.7641	458.4211	524.0786	568.2478	654.872	728.1986	812.556	876.4795	883.5472	934.5913	987.7167	1001.6074	1037.2838	1051.2286	1056.2196	1079.4789	1095.7539	1120.9181	1158.5349	1220.2871	1233.2742	1250.6964	1275.5506	1295.0432	1324.8032	1336.413	1341.6339	1365.5989	1399.0514	1409.4288	1421.8604	1442.1024	1481.4389	1483.5296	1494.5947	1720.8868	2916.9025	2930.31	2996.5568	3003.7259	3051.7784	3068.5145	3074.4505	3100.7032	3138.0168	3163.4229	3811.8425	3816.0997
OC1CCC=CC(O)C1	O[C@H]1CCC=C[C@@H](O)C1	
InChI=1S/C7H12O2/c8-6-3-1-2-4-7(9)5-6/h1,3,6-9H,2,4-5H2	InChI=1S/C7H12O2/c8-6-3-1-2-4-7(9)5-6/h1,3,6-9H,2,4-5H2/t6-,7+/m1/s1
