18
gdb 46248	3.07319	1.48942	1.23608	2.5728	76.35	-0.2557	0.0232	0.2789	1047.9809	0.148949	-401.914393	-401.906906	-401.905962	-401.946446	29.354	
N	-0.0154940807	 1.1974641083	-0.3695613131	-0.553715
C	-0.0028093994	-0.0163244405	-0.0518622605	 0.398134
O	 1.0172473426	-0.8063801513	 0.4412645811	-0.263355
C	 0.1312909665	-1.9671895138	 0.5216695791	-0.155873
C	-1.0323983363	-1.1271326832	-0.0400950802	 0.207071
C	-2.3927757829	-1.0205872139	 0.7199702117	-0.313131
C	-3.1249980835	-1.4399868919	-0.5612945328	-0.040966
C	-2.7872751448	-0.4937431909	-1.6774673697	-0.279734
C	-1.7907485742	-1.5565204976	-1.2999125334	-0.1214
H	 0.8994008305	 1.6310103657	-0.232321836	 0.226566
H	 0.4937826535	-2.7796125068	-0.1144481597	 0.119622
H	 0.027410993	-2.3088626285	 1.5554170215	 0.117629
H	-2.4550342617	-1.7645451011	 1.5185433673	 0.107154
H	-2.6424045109	-0.0360241979	 1.1263291368	 0.117846
H	-3.9843002237	-2.0970356763	-0.6029665291	 0.088888
H	-3.3088910997	-0.6745039457	-2.6118586989	 0.11251
H	-2.5643667024	 0.5500009895	-1.4763309224	 0.143945
H	-1.4430557557	-2.3060462943	-2.0010250718	 0.088809
115.0748	120.8239	171.7858	311.5373	322.494	409.7258	443.2727	577.3381	670.6982	736.0732	774.5919	789.9424	825.6407	862.9807	894.843	913.7807	946.27	967.7109	974.1801	984.0846	1012.1969	1032.0312	1058.4737	1088.9176	1125.858	1145.5287	1159.1931	1176.226	1195.8723	1226.738	1253.113	1256.7933	1306.6202	1360.7003	1373.1105	1477.1469	1495.6634	1512.9599	1815.789	3049.731	3052.4014	3105.2992	3109.3933	3123.6505	3177.2907	3192.5047	3212.9793	3472.1316
N=C1OCC11CC2CC12	[NH][C]1OC[C@]21C[C@H]1C[C@@H]21	
InChI=1S/C7H9NO/c8-6-7(3-9-6)2-4-1-5(4)7/h4-5,8H,1-3H2	InChI=1S/C7H9NO/c8-6-7(3-9-6)2-4-1-5(4)7/h4-5,8H,1-3H2/t4-,5-,7-/m1/s1
