20
gdb 95990	2.85752	1.26311	1.05168	4.7354	75.19	-0.2475	0.018	0.2655	1202.773	0.172518	-440.341051	-440.331906	-440.330962	-440.375964	33.946	
N	-0.0331432464	 1.247043717	 0.5352861817	-0.51927
C	 0.0579682806	 0.0552116705	-0.1104862202	 0.413642
O	 1.1122396498	-0.3140606891	-0.6169267271	-0.38937
C	-1.2185007829	-0.7660806918	-0.1722910049	-0.129481
C	-1.9759549678	-0.6315916157	-1.5190067737	-0.208463
C	-2.8506449118	-1.9140855955	-1.6109118485	-0.201935
C	-2.3539494646	-2.8542269742	-0.4795367497	-0.218643
C	-0.9883222784	-2.2948935698	-0.0698358928	 0.138938
O	-0.0369040218	-2.7448087218	-1.0103394087	-0.454131
H	 0.7785557816	 1.8430034441	 0.5617013885	 0.263946
H	-0.893263602	 1.5757790236	 0.9362143368	 0.263478
H	-1.8830518918	-0.4687878199	 0.6490661679	 0.066568
H	-2.5618944714	 0.2899828423	-1.5705667108	 0.090662
H	-1.2471372137	-0.6065832022	-2.3324029464	 0.126166
H	-3.9124861649	-1.6812146343	-1.4912198044	 0.094121
H	-2.7362312877	-2.3814916395	-2.5912210029	 0.114234
H	-3.0358145094	-2.8288239244	 0.3776139616	 0.087802
H	-2.2573366313	-3.8945704097	-0.7976355459	 0.11101
H	-0.7049856217	-2.5892013786	 0.9534900257	 0.053597
H	 0.6837995956	-2.0908692009	-1.0046851863	 0.297128
33.2525	63.0577	146.8366	206.6442	210.997	258.6566	352.6288	364.6157	423.1361	586.9783	624.1398	633.5146	679.0668	718.0539	759.4462	780.0212	851.34	882.28	898.5253	957.7331	963.1038	1000.9604	1040.9619	1048.3096	1092.881	1105.7452	1192.5315	1207.4402	1232.8848	1270.0208	1283.8603	1293.0574	1317.0095	1333.5204	1348.6293	1375.7501	1422.4383	1466.6937	1478.35	1486.315	1508.788	1616.5921	1755.1362	2967.7721	3022.3062	3046.3839	3058.7084	3069.1754	3094.9043	3110.2152	3121.7466	3601.1009	3621.0589	3741.2337
NC(=O)C1CCCC1O	NC(=O)[C@H]1CCC[C@H]1O	
InChI=1S/C6H11NO2/c7-6(9)4-2-1-3-5(4)8/h4-5,8H,1-3H2,(H2,7,9)	InChI=1S/C6H11NO2/c7-6(9)4-2-1-3-5(4)8/h4-5,8H,1-3H2,(H2,7,9)/t4-,5+/m0/s1
