16
gdb 116735	5.97441	0.69531	0.66039	2.3506	77.1	-0.263	-0.0503	0.2127	1693.8371	0.120303	-437.866091	-437.856233	-437.855289	-437.902264	33.773	
C	-0.1902846924	 1.1763706996	 0.1012955253	-0.400805
C	 0.0297345764	-0.3372927684	 0.0547331673	-0.113939
N	 0.3239757422	-1.0398183741	 1.2938835048	-0.169579
C	 0.3768065141	-0.4324765045	 2.3828658411	 0.101487
O	 0.7018889053	-1.0808463828	 3.5662064291	-0.237123
C	 0.0473389842	-2.2273905888	 3.9281543435	 0.318882
O	-0.9561646118	-2.6469002267	 3.4287870612	-0.314785
C	 0.7275298029	-2.8364980187	 5.0485172838	 0.237691
C	 1.2509224286	-3.3859618973	 5.9798306554	-0.382116
H	 0.6921597508	 1.7056372407	 0.4761963705	 0.124349
H	-0.3936376951	 1.5456302192	-0.9080879018	 0.122351
H	-1.0449748474	 1.4450093906	 0.7309396686	 0.126976
H	-0.8536299023	-0.8281929059	-0.3726231244	 0.130508
H	 0.8510097969	-0.5726061032	-0.6339614914	 0.123878
H	 0.2537830867	 0.6348185701	 2.5743433124	 0.115196
H	 1.7152521208	-3.8743224597	 6.8018685045	 0.21703
34.9573	49.9054	101.6809	165.3698	183.5999	219.1879	251.7607	270.5327	337.9196	424.3741	491.2407	598.7914	659.7073	688.0512	706.5949	760.2025	774.4946	839.4809	906.9681	974.6057	1070.3512	1077.034	1142.2889	1147.8602	1187.7054	1314.4851	1375.3182	1391.7199	1412.6819	1475.4642	1494.0168	1505.5563	1757.8822	1835.4972	2237.5941	3028.9823	3035.3627	3052.1056	3104.7038	3109.6364	3113.9547	3497.0823
CCN=COC(=O)C#C	CCN=COC(=O)C#C	
InChI=1S/C6H7NO2/c1-3-6(8)9-5-7-4-2/h1,5H,4H2,2H3	InChI=1S/C6H7NO2/c1-3-6(8)9-5-7-4-2/h1,5H,4H2,2H3
