20
gdb 92158	2.54268	1.9026	1.31815	2.4246	77.83	-0.2237	0.0711	0.2948	1012.6862	0.172048	-403.112165	-403.104203	-403.103259	-403.144087	32.047	
C	-0.0052556249	 1.4764284249	-0.0049451473	-0.476584
C	-0.0821537364	-0.026519929	 0.0478277304	 0.349349
C	 0.2747399523	-0.8025811615	 1.2538966888	-0.094325
C	-0.1091322153	-2.2400743382	 0.8207767008	-0.067936
C	 1.1120937787	-2.1540801991	-0.1234890305	-0.157122
N	 1.2660308065	-0.678922446	 0.1192205412	-0.196625
C	-1.3983751401	-2.071620198	 0.0120289129	-0.25364
C	-1.1792487558	-0.7399114368	-0.7520806411	 0.055079
O	-2.3306934511	 0.0951446453	-0.7685476301	-0.441289
H	 0.8180261016	 1.8314453934	 0.6197729125	 0.121562
H	 0.1779315989	 1.8170359345	-1.0297088538	 0.118157
H	-0.9411184789	 1.9233064706	 0.3376059729	 0.132186
H	 0.4650453227	-0.4128622394	 2.247576576	 0.08806
H	-0.1233966312	-3.0386888915	 1.56202232	 0.071341
H	 2.0021892372	-2.6507955659	 0.2705784014	 0.109016
H	 0.9750667203	-2.450792586	-1.1706667243	 0.093271
H	-1.5951334144	-2.9224252934	-0.649987205	 0.08937
H	-2.2592844364	-1.9382360589	 0.6767326442	 0.105968
H	-0.8399764221	-0.9170352965	-1.7842663008	 0.071168
H	-3.0001436714	-0.3372281284	-1.3075149381	 0.282993
128.0191	188.0586	237.0636	269.4574	279.0521	355.4698	384.5468	406.0627	511.6033	579.8184	595.9998	734.3689	763.6604	820.7475	861.5535	882.666	889.2565	926.5796	960.3918	990.5564	1017.9119	1028.9796	1035.5987	1072.7358	1091.2224	1129.1626	1161.1165	1162.8552	1206.4331	1225.2567	1256.4513	1272.2215	1276.9834	1308.7236	1335.5015	1344.4632	1395.7269	1416.8018	1430.1746	1480.2175	1483.9164	1495.7271	1510.1867	2976.0896	3027.3243	3033.713	3043.0288	3084.5188	3093.6848	3109.8756	3115.1088	3135.0392	3175.2745	3823.3637
CC12C3C(CN13)CC2O	C[C@]12[C@H]3[C@H](CN13)C[C@H]2O	
InChI=1S/C7H11NO/c1-7-5(9)2-4-3-8(7)6(4)7/h4-6,9H,2-3H2,1H3	InChI=1S/C7H11NO/c1-7-5(9)2-4-3-8(7)6(4)7/h4-6,9H,2-3H2,1H3/t4-,5+,6+,7-,8?/m0/s1
