22
gdb 6048	2.97322	1.4869	1.2598	2.2245	73.89	-0.2537	0.0614	0.3151	1093.3459	0.197484	-387.345222	-387.334883	-387.333939	-387.379578	38.628	
C	-0.0684436881	 1.5613092682	-0.0561559866	-0.402378
C	 0.0142713112	 0.0251435902	-0.0213388789	 0.025327
C	 0.6958627484	-0.480522179	-1.3042651905	-0.400664
C	 0.7278175747	-0.5067907928	 1.2501876553	 0.389187
C	 0.8013407602	-2.0459336377	 1.2648860204	-0.439155
O	 2.0471452126	 0.0397130006	 1.2531888369	-0.481201
C	 0.0179931063	-0.0332231886	 2.5320519749	-0.125527
O	 0.8374697123	-0.4393859859	 3.6306437774	-0.434577
H	 0.9259297625	 1.9967396959	 0.0739037093	 0.134529
H	-0.4667374967	 1.8958711135	-1.0190493565	 0.104417
H	-0.7231449917	 1.9682496168	 0.7197242257	 0.103583
H	-1.0082240229	-0.3770502682	 0.0026348921	 0.064505
H	 1.7481252235	-0.1822928249	-1.3205722053	 0.134947
H	 0.6491941283	-1.5679956585	-1.3994646987	 0.110617
H	 0.2065174665	-0.0525824866	-2.1847776877	 0.103571
H	 1.4866687324	-2.4023599997	 0.494468185	 0.122727
H	 1.1667473762	-2.3920991753	 2.2347827075	 0.127098
H	-0.1840695501	-2.4934461964	 1.0933894185	 0.103267
H	 2.3712776133	-0.0749478483	 2.1556033285	 0.281833
H	-0.0834154917	 1.0569441974	 2.5241595803	 0.095139
H	-0.9852284768	-0.4795740406	 2.6020638776	 0.088898
H	 0.5825813597	 0.0677284701	 4.4055734948	 0.293857
61.4976	132.6828	178.1494	208.9073	221.338	238.524	247.0392	291.2445	334.4573	372.8423	374.8808	381.1469	449.0122	469.3394	505.1165	608.0912	742.1722	853.9782	922.4015	930.1077	945.9969	956.7248	969.0279	1043.3543	1063.7107	1106.7532	1138.5497	1182.7874	1196.2388	1209.858	1260.1206	1282.3128	1344.0279	1349.1872	1390.5263	1395.8849	1404.4235	1419.8216	1443.1292	1486.787	1492.9789	1496.7665	1505.4032	1507.5623	1515.0047	1523.7416	2992.1258	3008.0856	3039.7233	3041.4088	3045.2885	3066.1928	3101.8646	3108.602	3114.9951	3122.9407	3126.0637	3142.4744	3773.4247	3848.7155
CC(C)C(C)(O)CO	CC(C)[C@@](C)(O)CO	
InChI=1S/C6H14O2/c1-5(2)6(3,8)4-7/h5,7-8H,4H2,1-3H3	InChI=1S/C6H14O2/c1-5(2)6(3,8)4-7/h5,7-8H,4H2,1-3H3/t6-/m0/s1
