16
gdb 26881	3.05549	1.43095	0.98083	2.5774	81.11	-0.193	-0.0421	0.1509	1154.6183	0.124681	-434.103964	-434.095352	-434.094407	-434.137412	31.645	
C	-0.0058177668	 1.5416144087	 0.0551004864	-0.472505
C	-0.0335554427	 0.0404309791	 0.0373918247	 0.195795
C	-1.1879019838	-0.6881788061	-0.0410650216	 0.41555
O	-2.4064389604	-0.1031573831	-0.0798306061	-0.416977
N	-1.1394160596	-2.0527486524	-0.0588663418	-0.403573
C	 0.0465275766	-2.7947935535	 0.0012909777	 0.334157
N	-0.0398900008	-4.0752654117	-0.0161298644	-0.567534
C	 1.2136329291	-1.9222246939	 0.0867953995	-0.096639
N	 1.1641276448	-0.6292817145	 0.1078291778	-0.269658
H	 0.7241205203	 1.9149956902	-0.6699415367	 0.132745
H	-0.9854652906	 1.9582730018	-0.1863787053	 0.130518
H	 0.2924419031	 1.9231127786	 1.0388495888	 0.130861
H	-3.0656487309	-0.7087097398	-0.4375117429	 0.304248
H	-1.9870220566	-2.6045769184	-0.0514478823	 0.255566
H	 0.8889024288	-4.4889062086	 0.0378506784	 0.216097
H	 2.1885994895	-2.4034893063	 0.138371748	 0.111349
76.5742	104.6247	149.7304	202.2999	290.5364	294.1819	338.4086	440.9952	488.7911	509.1124	571.0572	584.7711	684.3579	721.07	749.6595	780.6419	785.1434	901.5268	971.3563	988.0777	1064.263	1118.3859	1166.1181	1247.1142	1268.3701	1321.9282	1359.8924	1411.1035	1415.5974	1481.3577	1495.5314	1498.6725	1572.571	1678.1466	1700.0337	3031.6835	3085.9869	3135.7617	3142.5032	3506.1438	3590.1766	3804.2414
CC1=C(O)NC(=N)C=N1	Cc1c(O)[nH]c([NH])cn1	
InChI=1S/C5H7N3O/c1-3-5(9)8-4(6)2-7-3/h2H,1H3,(H3,6,8,9)	InChI=1S/C5H12N3O/c1-3-5(9)8-4(6)2-7-3/h3-9H,2H2,1H3
