15
gdb 43721	5.30282	1.07553	1.0305	3.3949	65.67	-0.249	0.0036	0.2526	1132.0743	0.112199	-457.728277	-457.721182	-457.720238	-457.760088	27.09	
O	 0.1326430737	 0.2321225151	-0.6731494719	-0.304683
C	-0.0430067194	 1.2445241217	-0.081399371	 0.431305
C	-1.2127265808	 2.1267387556	 0.3696006139	-0.501542
C	-0.098381403	 2.9801190847	 0.9502633244	 0.4508
O	 0.919762724	 2.072517766	 0.4670714688	-0.274211
C	 0.2291076604	 4.4434968386	 0.9561876012	-0.229019
C	-0.9822578007	 5.2057026131	 1.4788044233	-0.087003
O	-1.0858559858	 4.3339318105	 2.6431975237	-0.28091
C	 0.10430841	 3.6482365541	 2.2597374329	-0.00094
H	-1.7855402877	 2.5599216637	-0.4525941614	 0.14858
H	-1.8861273794	 1.6577914649	 1.0885320729	 0.159267
H	 1.0934683601	 4.8482616085	 0.4479027227	 0.124015
H	-0.7533693704	 6.2301824477	 1.7905195432	 0.123693
H	-1.8936172697	 5.1969942907	 0.870159161	 0.11425
H	 0.8144772187	 3.3467635552	 3.0210078263	 0.126398
96.8607	145.3402	198.1907	339.8153	393.7383	438.8217	500.2842	523.1289	609.1896	754.18	785.436	827.2471	899.0704	915.9146	940.1485	965.1703	1000.95	1004.5095	1028.6395	1044.2725	1071.5098	1102.3172	1150.3435	1154.8188	1167.1325	1211.4946	1234.358	1272.4835	1337.0928	1443.4963	1473.9756	1518.1449	1952.409	3031.6146	3082.5327	3088.3151	3146.2933	3186.4463	3214.01
O=C1CC2(O1)C1COC21	O=C1C[C@@]2(O1)[C@H]1CO[C@@H]21	
InChI=1S/C6H6O3/c7-4-1-6(9-4)3-2-8-5(3)6/h3,5H,1-2H2	InChI=1S/C6H6O3/c7-4-1-6(9-4)3-2-8-5(3)6/h3,5H,1-2H2/t3-,5+,6+/m0/s1
