17
gdb 38217	3.45194	1.84792	1.51921	0.9939	70.51	-0.2434	0.006	0.2494	878.0598	0.140317	-417.959206	-417.953211	-417.952267	-417.989274	25.459	
C	 0.0524620978	 1.649809368	 0.050582848	-0.239333
N	 1.5341785082	 1.3569633704	 0.0499665956	-0.132475
C	 1.1670935018	 0.0969537419	 0.8549811792	-0.255526
C	-0.0816007418	 0.1162737287	-0.0417286804	 0.38987
O	-1.3627825904	-0.5098467653	-0.0805380539	-0.290314
C	-1.622532671	-0.4855391274	-1.4377487597	 0.075223
N	-0.6791730708	-0.2567555522	-2.2628520046	-0.290752
C	 0.5181392973	-0.2152686931	-1.4014653982	 0.015568
C	 1.6569650066	 0.8381214869	-1.3673639149	-0.212763
H	-0.261944252	 2.0561439903	 1.0138055733	 0.113465
H	-0.3030653773	 2.2730802387	-0.7722502915	 0.11813
H	 1.8640495993	-0.7398757181	 0.7658548605	 0.113227
H	 1.0166350565	 0.3763501648	 1.8982561264	 0.123769
H	-2.6610188745	-0.6642500106	-1.6938323857	 0.138832
H	 0.9505817374	-1.2248651411	-1.424814681	 0.092287
H	 1.5311625417	 1.6703323805	-2.0621955539	 0.128343
H	 2.6427965712	 0.3957240975	-1.5214722891	 0.112447
207.0545	300.6054	406.6721	424.5887	511.1737	529.516	582.5771	653.5284	712.417	802.5729	822.6051	852.3387	868.862	894.4024	949.0127	968.6915	985.8924	1020.7115	1032.5661	1045.9259	1091.2986	1100.4347	1127.9906	1176.528	1199.4665	1214.3379	1233.8183	1235.7865	1282.5981	1291.5459	1329.9396	1332.2962	1374.8515	1494.7153	1500.6974	1533.7525	1642.3996	3006.178	3068.499	3073.2408	3081.9635	3132.3124	3139.0332	3142.4617	3214.2895
C1N2CC11OC=NC1C2	C1N2C[C@]31O[CH][N][C@H]3C2	
InChI=1S/C6H8N2O/c1-5-6(9-4-7-5)2-8(1)3-6/h4-5H,1-3H2	InChI=1S/C6H8N2O/c1-5-6(9-4-7-5)2-8(1)3-6/h4-5H,1-3H2/t5-/m0/s1
