18
gdb 126748	4.88176	0.89428	0.7989	4.6942	74.66	-0.2523	0.0046	0.2569	1447.5674	0.148927	-435.293953	-435.284973	-435.284029	-435.328968	31.674	
C	 0.4474159401	 1.5018016598	 0.1975180399	-0.375086
C	-0.0987816131	 0.1071114514	-0.1040566256	-0.146406
N	 0.5074679674	-0.4816375356	-1.2883541808	 0.053847
C	 1.3323258982	-1.5395155849	-1.3963276529	 0.003574
N	 1.6651208929	-1.7395168625	-2.6586058793	-0.337992
C	 0.9922859533	-0.7463301307	-3.3079340098	 0.33316
C	 1.1074744156	-0.5926185033	-4.7965476155	-0.145003
O	 1.2714023736	-1.8433128795	-5.4306453767	-0.420124
N	 0.2748835348	 0.039475755	-2.5210819043	-0.309455
H	 1.5225739032	 1.4670672485	 0.3958388624	 0.128627
H	 0.2725398743	 2.1670783252	-0.6508115112	 0.154569
H	-0.0540552836	 1.9162628608	 1.076767746	 0.125488
H	 0.092500112	-0.5804433536	 0.7248553133	 0.125352
H	-1.1802314797	 0.143599988	-0.2654388438	 0.139949
H	 1.6516881654	-2.1238806425	-0.5461834537	 0.14451
H	 0.2027031502	-0.1197522334	-5.1902713971	 0.125674
H	 1.9513218352	 0.0817917674	-5.0229564807	 0.102747
H	 1.7916619702	-2.38583325	-4.82418003	 0.296569
39.6887	59.0477	113.686	183.4616	211.3101	262.857	348.0074	386.0655	411.35	468.0302	651.5068	676.9747	718.2925	769.1216	798.0462	854.9195	974.1236	1009.8896	1036.6038	1042.0852	1088.0454	1096.9858	1123.9183	1222.7477	1223.1724	1261.7493	1333.5634	1345.9339	1371.5023	1390.7172	1410.6345	1429.1511	1464.3586	1480.583	1488.6938	1502.0219	1508.7222	1509.9385	1567.6483	2954.7432	3049.1698	3059.7811	3081.3939	3102.3052	3123.2219	3140.6556	3253.3497	3771.5359
CCN1C=NC(CO)=N1	CCn1cnc(CO)n1	
InChI=1S/C5H9N3O/c1-2-8-4-6-5(3-9)7-8/h4,9H,2-3H2,1H3	InChI=1S/C5H9N3O/c1-2-8-4-6-5(3-9)7-8/h4,9H,2-3H2,1H3
