21
gdb 64088	3.13565	1.19377	1.08768	4.5158	78.25	-0.2568	0.013	0.2698	1212.9962	0.182545	-424.282555	-424.273487	-424.272543	-424.316028	34.825	
C	-0.1102009923	 1.5496611342	 0.0283257253	-0.424586
C	-0.0391421227	 0.0158324518	-0.0144783131	 0.226696
C	-1.4615644312	-0.5689145191	 0.0523883675	-0.419163
C	 0.7091916969	-0.4446476193	-1.2792105923	-0.229788
C	 0.9483255179	-1.9578792157	-1.2740420335	-0.351934
C	 1.3478272106	-2.5681411957	 0.0639495885	 0.405541
O	 1.8228930974	-3.6670977008	 0.1571548584	-0.324297
O	 1.0637395692	-1.8758438193	 1.1955785214	-0.23422
C	 0.7959473261	-0.4631409925	 1.1774710267	-0.069642
H	 0.8871097218	 1.9991957623	-0.0271345523	 0.115563
H	-0.6955814553	 1.9305625306	-0.8149111473	 0.119994
H	-0.5886362682	 1.9004759853	 0.949277753	 0.116712
H	-2.0355974564	-0.2957983639	-0.839397491	 0.115228
H	-1.4599125708	-1.6590562325	 0.1327034662	 0.128126
H	-1.996078405	-0.179499928	 0.9253088249	 0.117539
H	 0.1574272404	-0.1552175035	-2.1807462559	 0.100948
H	 1.6725769773	 0.0792007597	-1.323221266	 0.102154
H	 0.0356031377	-2.4914819288	-1.5665001575	 0.143213
H	 1.709395213	-2.25493574	-1.9995191863	 0.137091
H	 1.7585867591	 0.0650688449	 1.1965355866	 0.107181
H	 0.2862669043	-0.2638799497	 2.1247468569	 0.117644
71.3404	146.6971	201.2855	228.8082	245.5637	271.793	325.9233	366.0277	407.9859	439.8652	472.254	526.0156	574.306	693.1832	750.1933	771.7675	870.7442	911.4586	933.2088	956.4325	974.8523	1027.3948	1044.1988	1049.1352	1089.3599	1157.8545	1177.9194	1210.0638	1241.3635	1256.528	1310.1144	1322.4458	1357.2397	1372.882	1403.4735	1412.2153	1437.5372	1461.8891	1483.8732	1489.1237	1494.4958	1504.6931	1514.2098	1515.0236	1841.5789	3014.9605	3021.9483	3028.3616	3036.6476	3043.5604	3065.7913	3085.1527	3095.5556	3099.5388	3101.6212	3105.4515	3115.2402
CC1(C)CCC(=O)OC1	CC1(C)CCC(=O)OC1	
InChI=1S/C7H12O2/c1-7(2)4-3-6(8)9-5-7/h3-5H2,1-2H3	InChI=1S/C7H12O2/c1-7(2)4-3-6(8)9-5-7/h3-5H2,1-2H3
