20
gdb 116423	2.85529	1.26569	0.93543	4.0227	75.27	-0.2315	-0.0273	0.2042	1258.3211	0.172844	-440.303214	-440.294652	-440.293708	-440.336554	32.763	
O	 0.1318624692	 1.3891822227	-0.0296485556	-0.429815
C	 0.065687493	-0.0191014044	-0.0248063307	-0.075355
C	-1.3720953157	-0.5523593136	 0.0610292101	-0.116241
C	-1.4550186878	-2.0809144015	-0.128482511	-0.197005
C	-2.8688789596	-2.6061448411	 0.1220494295	-0.170889
N	-3.2734863379	-2.2453997062	 1.4777580014	-0.295926
C	-3.3887000006	-0.800735356	 1.6603570322	-0.257991
C	-2.0619848068	-0.116636208	 1.3500982098	 0.422255
O	-1.621119599	 0.7575137505	 2.0680998677	-0.330347
H	-0.2442706895	 1.6614548863	 0.8182470065	 0.293128
H	 0.519216141	-0.3628575695	-0.9613495766	 0.101997
H	 0.6545142268	-0.4522876818	 0.8003896023	 0.091019
H	-1.9557373492	-0.0761732666	-0.7437527782	 0.108132
H	-1.1280194481	-2.3387423063	-1.1415769937	 0.103651
H	-0.7708294283	-2.5727029995	 0.5730481304	 0.115503
H	-3.5522621159	-2.2032958406	-0.6514168195	 0.079214
H	-2.8861375857	-3.696961979	 0.0343413753	 0.105764
H	-4.1500494085	-2.6919876146	 1.7212562597	 0.227162
H	-4.1454506964	-0.3322051776	 0.9957328715	 0.098317
H	-3.660783751	-0.5671245532	 2.6921044488	 0.127424
75.5919	122.3705	172.2407	219.5955	287.2443	330.3644	352.2518	436.8996	461.2461	496.4879	573.2309	580.2091	651.6597	728.2405	786.8558	891.0538	917.4708	939.9985	963.9665	1008.2187	1060.4024	1087.4507	1096.1736	1132.4774	1153.8154	1163.2015	1185.9	1219.9237	1247.8941	1266.0764	1296.4448	1325.3911	1357.3591	1381.5131	1393.941	1415.7281	1449.8532	1477.2141	1481.5382	1487.3773	1502.4676	1505.0719	1793.4903	2881.977	2908.054	2970.0586	2988.5807	3035.6405	3061.0476	3073.2456	3082.1439	3103.8684	3535.5192	3753.7849
OCC1CCNCC1=O	OC[C@H]1CCNCC1=O	
InChI=1S/C6H11NO2/c8-4-5-1-2-7-3-6(5)9/h5,7-8H,1-4H2	InChI=1S/C6H11NO2/c8-4-5-1-2-7-3-6(5)9/h5,7-8H,1-4H2/t5-/m1/s1
