20
gdb 66465	3.47543	1.56629	1.43328	1.8262	82.	-0.2143	0.0849	0.2992	1012.7699	0.171203	-365.938016	-365.930326	-365.929382	-365.969516	31.377	
C	-0.0049882906	 1.4524125633	 0.0194228363	-0.5213
C	-0.0592194328	-0.0441308707	 0.0063553502	 0.345248
C	 0.9605397384	-1.0699089386	-0.3991648933	-0.090148
C	 0.606383698	-0.9572704401	 1.0564180225	-0.192963
C	-0.3105421539	-2.1923111834	 0.961338069	 0.357119
C	 0.0643318475	-3.4698598829	 1.6578718876	-0.495965
C	-1.7626753734	-1.6857980246	 0.822546591	-0.289538
C	-1.1970841092	-0.9889476557	-0.4234803244	-0.064525
N	-0.1411548631	-2.1019561499	-0.5823237144	-0.214065
H	 0.9843567224	 1.8075752155	 0.3273374774	 0.121871
H	-0.2109616275	 1.8687188306	-0.9733133042	 0.122231
H	-0.7382028799	 1.874355651	 0.7171352662	 0.120502
H	 1.8931388534	-1.0255339685	-0.9484998997	 0.089815
H	 1.181254149	-0.5719368455	 1.8897910309	 0.080507
H	-0.0691044114	-3.3747177034	 2.7420148369	 0.115024
H	-0.5550902845	-4.300396959	 1.306043204	 0.123259
H	 1.1131924065	-3.7211552181	 1.4676771924	 0.123251
H	-2.4434264452	-2.4996428947	 0.5557196562	 0.106501
H	-2.1882478268	-1.0761130735	 1.6239579098	 0.094019
H	-1.8073979167	-0.7305165617	-1.2902037544	 0.069156
188.9637	197.1409	210.9333	222.2511	293.8243	332.6718	425.6364	540.3504	567.6777	642.1433	748.2942	781.4281	808.2213	817.5617	856.4686	875.9597	886.2062	910.7927	941.0679	942.795	965.5826	1002.4729	1013.0549	1038.9954	1073.528	1105.5758	1139.781	1163.6858	1178.9328	1200.6043	1208.101	1223.4227	1271.5291	1299.4313	1326.5875	1410.136	1411.4574	1438.3709	1475.1973	1482.7277	1485.6966	1489.6838	1499.1662	3020.5608	3027.2539	3053.1316	3079.323	3091.9042	3093.3338	3101.6017	3107.2284	3114.4128	3176.1377	3190.2756
CC12C3C1C1(C)CC2N31	C[C@@]12[C@H]3[C@@H]1[C@@]1(C)C[C@@H]2N31	
InChI=1S/C8H11N/c1-7-3-4-8(2)5(7)6(8)9(4)7/h4-6H,3H2,1-2H3	InChI=1S/C8H11N/c1-7-3-4-8(2)5(7)6(8)9(4)7/h4-6H,3H2,1-2H3/t4-,5+,6+,7+,8-/m0/s1
