19
gdb 91548	2.62795	1.41082	1.18656	0.9953	75.82	-0.2474	0.0713	0.3187	1116.1973	0.158918	-422.969191	-422.960822	-422.959877	-423.002308	32.054	
O	-0.1586600967	 1.4874218511	-0.0551144681	-0.441098
C	-0.0623148855	 0.0795127996	 0.027981024	 0.022755
C	 0.2573556499	-0.5889221593	 1.4117389694	-0.270913
C	-1.0804804922	-1.3288654894	 1.3252067513	-0.111921
C	-2.1986120417	-0.3335078745	 1.2420754382	-0.337678
C	-1.4108223857	-0.6281823067	-0.0074978899	 0.403999
C	-2.039649097	-1.144043814	-1.2454207337	-0.060754
C	-1.9412305557	-0.4137299031	-2.517086301	-0.184834
O	-1.1537428867	-1.5859158818	-2.283687473	-0.242963
H	 0.7328599649	 1.850067583	-0.0691462351	 0.284087
H	 0.5884464805	-0.3219863173	-0.7577967384	 0.090533
H	 1.1358253421	-1.23662309	 1.3749706176	 0.103173
H	 0.3546354601	 0.106515928	 2.251681576	 0.096798
H	-1.2477087286	-2.3661477404	 1.5876956651	 0.092106
H	-3.2011410467	-0.7511889728	 1.2532967445	 0.111391
H	-2.1132781105	 0.6389100827	 1.7190731333	 0.121809
H	-2.9047930587	-1.7923572821	-1.0952447722	 0.085574
H	-2.7240565093	-0.5180227006	-3.2672021707	 0.111959
H	-1.3886526427	 0.5240740576	-2.5400038573	 0.125978
76.9293	124.6024	171.5198	186.5743	291.4955	333.0488	382.4118	426.4168	453.5086	577.5014	650.3711	708.8127	826.8654	840.5163	849.4092	859.4271	914.983	938.2938	976.9409	1009.7013	1024.4468	1033.27	1073.9712	1089.8887	1099.3054	1122.0364	1152.6787	1170.0144	1171.6444	1197.8577	1240.106	1248.6309	1272.7746	1296.6094	1327.1213	1365.8935	1433.0177	1455.3827	1477.3055	1505.1224	1529.9491	3036.4614	3048.1623	3083.5368	3093.3052	3111.481	3115.9255	3175.4877	3188.5604	3201.8307	3815.7312
OC1CC2CC12C1CO1	O[C@H]1C[C@H]2C[C@@]12[C@H]1CO1	
InChI=1S/C7H10O2/c8-5-1-4-2-7(4,5)6-3-9-6/h4-6,8H,1-3H2	InChI=1S/C7H10O2/c8-5-1-4-2-7(4,5)6-3-9-6/h4-6,8H,1-3H2/t4-,5-,6+,7-/m0/s1
