20
gdb 74434	2.95439	1.57927	1.26322	1.5666	84.12	-0.2197	0.0122	0.2319	1081.1441	0.171211	-365.97825	-365.970237	-365.969293	-366.010175	32.25	
C	 0.0588976795	 1.498816774	 0.0640428097	-0.502929
C	-0.0590426166	 0.0103241884	-0.0203861476	 0.32992
C	-0.0922498304	-0.7697221982	-1.1111703349	-0.25513
C	-0.0265424087	-2.2260684019	-0.7103174593	 0.263901
C	-0.5155790663	-3.263900597	-1.6971903196	-0.499479
C	 1.3939573546	-2.397979449	-0.0523424586	-0.169878
N	 0.8812687417	-2.0548261835	 1.3032661167	-0.166375
C	-0.0963126774	-0.869451905	 1.1824315185	-0.123646
C	-0.5080655669	-2.2259018931	 0.7790492167	-0.084388
H	 0.9942928187	 1.7970079121	 0.5539049764	 0.132801
H	 0.0353026083	 1.957126481	-0.928266606	 0.124215
H	-0.7560836821	 1.9322034529	 0.6574396242	 0.125685
H	 0.0235014093	-0.4358809497	-2.1370467766	 0.089881
H	 0.0431849372	-3.2048454825	-2.6380598507	 0.118645
H	-0.3942540369	-4.2778844513	-1.3014111406	 0.115907
H	-1.5755737478	-3.1178910832	-1.9321879671	 0.121548
H	 1.7003695734	-3.4476024113	-0.0213739987	 0.108092
H	 2.2129350306	-1.7774375463	-0.4316991237	 0.094298
H	-0.3276139385	-0.4762503656	 2.1659015348	 0.089481
H	-1.2542568315	-2.858701771	 1.2515120165	 0.087452
156.7193	175.5361	211.1769	241.6209	278.3368	323.7134	409.0584	447.96	554.8142	572.6392	616.1903	695.7106	735.8043	793.3711	809.6992	862.4315	864.9448	919.8875	929.7023	965.8496	999.6389	1015.5433	1024.2902	1062.8193	1070.376	1131.3398	1152.5075	1159.1793	1191.8719	1225.8286	1256.8714	1263.8003	1276.3756	1359.8989	1377.0497	1413.8395	1416.7491	1479.4419	1487.4565	1490.5726	1493.0011	1498.8046	1685.677	3018.7284	3025.658	3036.4725	3064.9894	3091.7485	3094.4822	3098.8158	3111.6173	3145.5637	3181.438	3185.2102
CC1=CC2(C)CN3C1C23	CC1=C[C@@]2(C)CN3[C@@H]1[C@@H]23	
InChI=1S/C8H11N/c1-5-3-8(2)4-9-6(5)7(8)9/h3,6-7H,4H2,1-2H3	InChI=1S/C8H11N/c1-5-3-8(2)4-9-6(5)7(8)9/h3,6-7H,4H2,1-2H3/t6-,7-,8-,9?/m0/s1
