16
gdb 66857	2.65545	2.12868	1.85424	1.3907	65.8	-0.2239	0.0598	0.2837	817.0441	0.125953	-437.811069	-437.804849	-437.803905	-437.841216	26.324	
O	-0.0937406533	 1.4113634517	 0.0527938212	-0.49253
C	 0.0001967057	 0.0352675339	 0.0169941679	 0.385341
C	-1.3124496187	-0.786366907	 0.0724228291	-0.121292
C	-0.7181242538	-1.7695864361	-0.9010110278	-0.062623
C	 0.5133688768	-0.8523676213	-1.1439705306	-0.002122
O	 1.7039793766	-1.242586995	-0.4377027768	-0.305832
C	 1.0901944819	-0.7957366089	 0.8083989119	-0.016338
C	 0.3035119526	-1.9619405228	 1.385149245	-0.157933
N	-0.8925932722	-2.1003395729	 0.5245997078	-0.118699
H	 0.7623996953	 1.7882090145	-0.1790458867	 0.292638
H	-2.3211448794	-0.4202662063	 0.2184346688	 0.103552
H	-1.1935911472	-2.4214764618	-1.6249594692	 0.098968
H	 0.6782772096	-0.5194968777	-2.1706604309	 0.08613
H	 1.8029982457	-0.2959999529	 1.4696354293	 0.079762
H	 0.8903752932	-2.8836584069	 1.3773985458	 0.122248
H	-0.0434010927	-1.7633636704	 2.405290215	 0.10873
246.6861	292.7558	324.8636	364.1437	433.4347	529.5329	603.6174	661.8043	712.1117	747.5124	757.1342	845.9367	864.2704	877.8998	923.6845	944.3864	967.5986	973.6753	1019.3877	1034.567	1045.6923	1068.4772	1080.0677	1140.7925	1168.2509	1189.321	1239.067	1249.4324	1268.9256	1287.1894	1319.5431	1338.0885	1369.5195	1409.4456	1477.9682	3045.9793	3081.2329	3099.1881	3111.5613	3173.3814	3195.7515	3803.3067
OC12C3C4C1OC2CN34	O[C@@]12[C@H]3[C@H]4[C@@H]1O[C@@H]2CN34	
InChI=1S/C6H7NO2/c8-6-2-1-7-3(4(6)7)5(6)9-2/h2-5,8H,1H2	InChI=1S/C6H7NO2/c8-6-2-1-7-3(4(6)7)5(6)9-2/h2-5,8H,1H2/t2-,3+,4-,5+,6+,7?/m1/s1
