21
gdb 68391	2.44164	1.92811	1.40122	1.372	80.61	-0.2465	0.0772	0.3238	1001.5067	0.185212	-387.07708	-387.069739	-387.068795	-387.108096	31.687	
O	-0.1660235114	 1.3725721808	 0.0349420452	-0.495214
C	 0.026739748	-0.0188281692	 0.019903484	 0.405479
C	 0.9195088412	-0.6931229303	-1.0714256787	-0.276708
C	 1.2019753185	-1.7861199086	 0.0031369169	-0.010311
C	 0.9588122521	-0.684660759	 1.0709258074	-0.295688
C	 0.0785172085	-2.8392499313	 0.027292947	-0.22892
C	-1.30851082	-2.1942703967	-0.0486819642	-0.027265
C	-1.9257505332	-1.4477693308	 1.1143961808	-0.312304
C	-1.3405217091	-0.6819156585	-0.0417853488	-0.028477
H	 0.7007289894	 1.7915297585	 0.0580791571	 0.271264
H	 0.4453646243	-0.9865120213	-2.0118958621	 0.092038
H	 1.8179212121	-0.1017149084	-1.2776106138	 0.081703
H	 2.1859927405	-2.25887318	-0.0102864309	 0.061085
H	 1.8564012955	-0.0723794622	 1.2116632392	 0.083312
H	 0.5669646359	-0.9607987778	 2.0516425322	 0.095763
H	 0.2045873198	-3.5038478512	-0.8356786987	 0.097662
H	 0.1774399612	-3.4702357416	 0.9200043015	 0.096685
H	-2.0120872408	-2.6990504687	-0.7027648791	 0.082418
H	-3.0072288287	-1.47039843	 1.1987151605	 0.106495
H	-1.4164473646	-1.4441450419	 2.0710910996	 0.112435
H	-2.0234109192	-0.1694301319	-0.7123740351	 0.088547
207.9527	244.1263	301.0073	324.9197	385.0582	400.0419	442.0025	461.9562	505.6516	591.1945	666.2235	750.1131	822.1095	830.2432	850.2268	865.4066	876.1259	918.3506	937.3466	975.6998	1000.7037	1008.7298	1025.855	1061.9346	1070.8508	1096.5362	1115.4773	1130.4235	1139.8286	1153.7759	1173.179	1204.185	1221.0025	1231.3636	1269.7302	1287.8968	1316.8746	1342.9877	1377.6326	1398.6568	1422.4662	1468.89	1487.6283	1496.4574	1516.0566	3018.1544	3039.4465	3046.5624	3054.474	3084.9078	3103.1048	3108.6008	3135.5801	3149.0444	3159.5342	3216.9553	3807.5392
OC12CC(C1)CC1CC21	O[C@@]12C[C@@H](C1)C[C@H]1C[C@@H]21	
InChI=1S/C8H12O/c9-8-3-5(4-8)1-6-2-7(6)8/h5-7,9H,1-4H2	InChI=1S/C8H12O/c9-8-3-5(4-8)1-6-2-7(6)8/h5-7,9H,1-4H2/t5-,6-,7+,8-/m0/s1
