15
gdb 127137	4.05695	1.15762	0.91473	5.754	65.13	-0.2388	0.0196	0.2584	1217.1682	0.111726	-491.095623	-491.087052	-491.086108	-491.129365	29.76	
C	-0.0360204938	 1.4086727477	 0.0646053005	-0.340617
N	-0.1720458145	-0.0396026217	-0.0136151473	-0.176032
C	 0.0975500682	-0.8080929578	 1.1946707982	-0.35315
C	-0.028913361	-0.6056844937	-1.2297552742	 0.572023
N	 0.1357883524	 0.0146627411	-2.3576278934	-0.262828
O	 0.1181658114	-1.052323704	-3.3212856325	-0.232783
C	-0.0106871721	-2.2310125288	-2.6916163113	 0.510352
O	-0.0422190111	-3.3176683179	-3.1651589513	-0.363165
O	-0.1065441578	-1.9548783587	-1.3295160614	-0.243834
H	 1.0151605849	 1.7211867437	 0.1246310362	 0.136024
H	-0.4822009578	 1.8616547709	-0.8217208188	 0.173496
H	-0.561943457	 1.7614615486	 0.9552212787	 0.135653
H	-0.5363751049	-0.4300575049	 2.0014588135	 0.140764
H	-0.1373796326	-1.8583717653	 1.0280755219	 0.170158
H	 1.1476278456	-0.7237449891	 1.5080737113	 0.133939
81.2252	109.8201	154.9659	166.0926	208.3006	235.1334	334.3769	351.5805	437.5451	594.1746	614.6982	704.3624	758.1668	777.1519	887.3912	929.6087	987.1019	1022.5243	1090.541	1129.6471	1150.1279	1178.5084	1250.838	1288.0385	1451.1182	1458.444	1481.7389	1489.0827	1497.1986	1502.7594	1538.7095	1698.9042	1950.0936	3008.2927	3018.3679	3091.9477	3097.9592	3150.0042	3165.3406
CN(C)C1=NOC(=O)O1	CN(C)c1noc(=O)o1	
InChI=1S/C4H6N2O3/c1-6(2)3-5-9-4(7)8-3/h1-2H3	InChI=1S/C4H6N2O3/c1-6(2)3-5-9-4(7)8-3/h1-2H3
