19
gdb 119851	3.24388	1.21104	1.09674	1.6736	76.02	-0.241	-0.0036	0.2374	1186.3166	0.160039	-419.174801	-419.166249	-419.165305	-419.209033	31.16	
C	-0.5825227498	 0.4903554003	-0.497628329	-0.236254
O	 0.4750636842	 0.2367053137	-1.399495777	-0.230716
C	 1.4967585419	-0.5761058543	-0.8503478547	-0.154593
C	 1.10468655	-2.029535525	-0.811455474	 0.303342
N	 0.9361235828	-2.6958144906	 0.262604303	-0.252029
C	 0.5681421822	-4.0711214079	-0.1186930374	-0.194045
C	 0.4602306173	-4.0455895874	-1.6426359498	-0.034981
C	-0.4876216562	-3.0926256298	-2.2638589572	-0.245008
N	 0.933652848	-2.7037653466	-2.0684064542	-0.140025
H	-1.0784088257	-0.4319018344	-0.1624303583	 0.112446
H	-0.2295443554	 1.0284361398	 0.3953272118	 0.11022
H	-1.3080371137	 1.1135796106	-1.0256347773	 0.127968
H	 2.3628878645	-0.4591748981	-1.5090712067	 0.125018
H	 1.7658282504	-0.2559234084	 0.1647723788	 0.110927
H	 1.3507162016	-4.7628495762	 0.2148182497	 0.121039
H	-0.3562378636	-4.3643497002	 0.3915999944	 0.119333
H	 0.8298707354	-4.8855655692	-2.2211155167	 0.103222
H	-0.7809170765	-3.2152856232	-3.3015659626	 0.12656
H	-1.2261771675	-2.6095463432	-1.6293873128	 0.127577
35.753	94.3136	122.0868	195.5236	276.2983	295.8325	363.8269	381.5058	444.5736	609.5414	724.1419	766.4443	784.3098	842.2293	869.2433	928.0865	940.5784	960.2351	990.9903	1056.5331	1080.9953	1086.5902	1107.6886	1128.7357	1159.6108	1184.0076	1203.5703	1211.802	1226.7916	1278.8671	1316.8856	1334.5412	1372.1559	1395.6934	1471.4576	1483.2984	1484.6583	1486.1203	1502.6725	1511.6322	1701.8859	2983.1179	3022.304	3032.9554	3035.9469	3066.9173	3091.314	3113.6459	3118.1749	3167.3141	3205.5876
COCC1=NCC2CN12	COCC1=NC[C@H]2CN12	
InChI=1S/C6H10N2O/c1-9-4-6-7-2-5-3-8(5)6/h5H,2-4H2,1H3	InChI=1S/C6H10N2O/c1-9-4-6-7-2-5-3-8(5)6/h5H,2-4H2,1H3/t5-,8?/m0/s1
