19
gdb 61077	3.44917	1.06455	0.88053	2.8099	72.22	-0.253	-0.0337	0.2193	1315.7952	0.158853	-460.177239	-460.168373	-460.167429	-460.211743	32.288	
O	-0.110510725	 1.4086835833	 0.1226723948	-0.436306
C	 0.032039047	 0.0171051478	 0.1659195757	 0.029325
C	 0.5317299719	-0.5035558277	-1.1665572695	 0.134757
O	 0.7463872617	 0.2499420089	-2.0880944558	-0.270543
C	 0.9957812816	-0.3973206701	 1.3038213858	 0.103833
C	 0.4743240975	-0.0039150899	 2.6985441996	-0.251815
C	-0.169603239	-1.3070407704	 3.1986946756	-0.225675
C	 0.7355343877	-2.3605472516	 2.5584199547	-0.062669
O	 1.116013516	-1.8218499405	 1.2908826966	-0.279852
H	 0.1568277376	 1.666884766	-0.7749733822	 0.295483
H	-0.9381776894	-0.475277933	 0.3597340184	 0.089506
H	 0.6936899033	-1.5929753901	-1.2416561292	 0.121925
H	 1.9741848171	 0.055740861	 1.0994293899	 0.086534
H	 1.3116185018	 0.2797197863	 3.3434130931	 0.107149
H	-0.2111834631	 0.8434801059	 2.648918511	 0.133642
H	-0.2015454937	-1.3800398681	 4.2881773625	 0.107557
H	-1.1938052516	-1.4066619699	 2.8243061097	 0.111167
H	 1.630060526	-2.5392512532	 3.1743314309	 0.09642
H	 0.2442053127	-3.3223679046	 2.3839714584	 0.10956
57.9897	68.3168	116.7702	177.5942	241.3499	307.2756	347.0445	384.611	426.8836	486.6525	597.9565	712.1092	764.2974	820.2293	875.0009	885.3046	923.8046	935.6556	947.3681	998.5913	1017.7814	1071.8857	1104.1118	1142.6595	1164.9881	1191.5109	1204.916	1251.201	1264.4987	1297.4501	1311.942	1323.1389	1344.1606	1376.5969	1380.8428	1391.7618	1438.4388	1488.5574	1500.3325	1527.5059	1802.8261	2947.278	2988.7782	2993.5597	3022.8452	3051.7106	3062.9323	3081.6161	3110.8369	3127.873	3669.2785
OC(C=O)C1CCCO1	O[C@@H](C=O)[C@H]1CCCO1	
InChI=1S/C6H10O3/c7-4-5(8)6-2-1-3-9-6/h4-6,8H,1-3H2	InChI=1S/C6H10O3/c7-4-5(8)6-2-1-3-9-6/h4-6,8H,1-3H2/t5-,6+/m0/s1
