12
gdb 9974	3.26739	1.44242	1.04204	4.0395	64.53	-0.2963	-0.0204	0.2758	1039.4273	0.082197	-340.365439	-340.357312	-340.356368	-340.398506	27.897	
C	-0.022416126	-1.2107894344	 0.0354562286	-0.399513
C	-0.0449145029	-0.0106048701	 0.0130690716	 0.286086
C	-0.0364994457	 1.4425737646	-0.0054160386	-0.359581
C	 1.4196842815	 2.0148270074	-0.0504294653	-0.293229
C	 2.120487935	 1.6219861111	-1.2803198991	 0.313048
N	 2.6632193613	 1.3017368559	-2.2471202232	-0.2956
C	 1.4019089263	 3.4766217762	 0.0947124755	 0.296357
N	 1.3528491882	 4.6210470707	 0.2368179088	-0.294553
H	-0.0153877569	-2.2732364554	 0.0452387887	 0.216047
H	-0.5903434347	 1.8271175724	-0.8677500545	 0.172719
H	-0.5184873851	 1.8449359511	 0.8917778758	 0.166732
H	 1.9744781189	 1.5972287503	 0.7984272416	 0.191485
67.2037	113.0665	139.6645	210.0448	222.8419	336.1205	387.4214	451.354	506.1798	578.9652	587.6134	645.3634	681.7493	816.3229	954.2073	974.272	1025.1528	1052.3817	1200.8493	1276.1507	1327.6695	1355.5263	1471.5128	2248.9244	2371.2775	2376.8599	3049.2691	3054.9424	3094.9036	3502.2903
C#CCC(C#N)C#N	C#CCC(C#N)C#N	
InChI=1S/C6H4N2/c1-2-3-6(4-7)5-8/h1,6H,3H2	InChI=1S/C6H4N2/c1-2-3-6(4-7)5-8/h1,6H,3H2
