24
gdb 58111	2.38997	1.23029	1.11155	0.9632	85.19	-0.2249	0.0724	0.2973	1278.3432	0.214294	-405.518334	-405.507443	-405.506499	-405.553952	41.247	
C	 0.1471361912	 1.2338972536	-0.7956639003	-0.41826
C	-0.0570923828	-0.2465418199	-0.4816831768	 0.1377
O	 1.0147043508	-0.7532064911	 0.3127833187	-0.439066
C	-1.4427189038	-0.5983437657	 0.1490792531	 0.252412
C	-1.4888961816	-2.1189329879	 0.3891316799	-0.438805
C	-1.656038749	 0.1312650091	 1.4842099346	-0.414706
N	-2.4569813911	-0.0648047719	-0.7853779743	-0.07956
C	-2.9534743272	-0.8374425143	-1.9151415398	-0.230283
C	-3.8351941405	-0.5248510651	-0.7537887456	-0.228391
H	 1.0956963097	 1.3705841412	-1.322598642	 0.115579
H	-0.6690927648	 1.6166092935	-1.4100142555	 0.13867
H	 0.1830439195	 1.833492871	 0.1221365577	 0.103424
H	 0.0060624507	-0.8124777886	-1.420135918	 0.082599
H	 1.185595371	-0.1147880138	 1.012770902	 0.278719
H	-0.6833906947	-2.3981113105	 1.0703231529	 0.135304
H	-2.4365972903	-2.4343382403	 0.835488085	 0.10608
H	-1.3345776761	-2.684611627	-0.534730471	 0.112315
H	-1.7057715494	 1.2129520998	 1.3396075197	 0.122383
H	-2.5963625723	-0.1865007602	 1.9453887271	 0.113954
H	-0.8510304301	-0.1000740007	 2.1886194427	 0.104281
H	-3.0514182875	-0.2902421477	-2.8493746477	 0.112327
H	-2.6483174684	-1.874526032	-2.0321005676	 0.111318
H	-4.102697527	-1.3570931491	-0.106160971	 0.109448
H	-4.5920266761	 0.2526148978	-0.822270464	 0.112557
43.9961	73.5441	182.6308	203.9485	230.5093	237.9418	265.8551	288.9509	304.1146	319.423	341.5061	383.1429	430.6574	454.6452	493.3652	558.8054	685.1783	772.4313	822.7957	890.2851	919.1278	927.4598	937.8224	978.504	993.141	1033.2285	1043.1746	1082.9877	1107.5577	1114.4953	1120.7683	1164.2788	1168.1974	1182.0889	1213.4463	1264.1132	1298.2766	1323.2721	1365.0107	1389.7752	1396.1482	1410.1239	1417.3504	1478.7426	1479.6776	1490.4829	1492.7258	1498.3043	1509.6085	1515.9586	1525.6008	3023.4871	3033.9883	3040.0218	3046.777	3096.6408	3100.0186	3102.5289	3103.3301	3111.3032	3125.2935	3137.2512	3145.5897	3172.3469	3186.9542	3813.5434
CC(O)C(C)(C)N1CC1	C[C@@H](O)C(C)(C)N1CC1	
InChI=1S/C7H15NO/c1-6(9)7(2,3)8-4-5-8/h6,9H,4-5H2,1-3H3	InChI=1S/C7H15NO/c1-6(9)7(2,3)8-4-5-8/h6,9H,4-5H2,1-3H3/t6-/m1/s1
