24
gdb 117636	2.65682	0.94556	0.83431	3.3174	85.6	-0.2386	0.0352	0.2738	1539.366	0.214414	-405.598094	-405.586187	-405.585243	-405.637018	42.606	
C	-0.0809772848	 1.6352551733	 0.018105136	-0.374866
C	 0.0312084428	 0.1067823479	-0.0095806122	-0.203073
C	-1.3477015436	-0.5646293527	 0.0197035277	-0.155158
C	-1.3709202128	-2.1123894968	 0.0048231718	 0.112736
C	-0.6960373226	-2.6616428034	-1.2721377371	-0.413009
C	-0.6725115979	-2.6849224144	 1.2567982338	-0.413164
C	-2.8605863996	-2.5444535123	-0.00363708	 0.399289
N	-3.0930991227	-3.8892527743	 0.0901738393	-0.522937
O	-3.7820588554	-1.7543430436	-0.082439484	-0.36988
H	 0.9057386851	 2.1084980235	-0.00536285	 0.106989
H	-0.6503011502	 2.0050789201	-0.8417023792	 0.116142
H	-0.5948057727	 1.97742769	 0.9231722	 0.115553
H	 0.5832662974	-0.1923160495	-0.9087802544	 0.094263
H	 0.636748612	-0.2202095944	 0.8444871644	 0.09358
H	-1.8928226925	-0.2254627926	 0.9080866515	 0.101307
H	-1.9399631447	-0.2092362112	-0.8299551097	 0.107627
H	 0.3636901678	-2.3926322821	-1.2965397921	 0.122199
H	-0.7530923147	-3.7533833026	-1.3286150413	 0.09829
H	-1.1694257574	-2.2572099777	-2.1725878305	 0.126313
H	-1.1494694009	-2.325349183	 2.1741179674	 0.125327
H	-0.6933048831	-3.7788586043	 1.2798759355	 0.098605
H	 0.3789168694	-2.3849221909	 1.2821800633	 0.121518
H	-2.3606083505	-4.5746006277	 0.0583183376	 0.254482
H	-4.0466168482	-4.2007779915	 0.0055889724	 0.257869
9.2244	51.1659	95.0057	141.7397	145.6152	196.1538	239.7516	248.4726	290.7478	299.7177	313.1485	356.3567	368.4629	373.7353	515.4121	559.3948	588.6412	720.4521	739.1604	774.4436	836.9785	866.5974	924.3223	943.7164	979.3927	1016.2692	1053.7955	1066.7749	1078.0342	1109.7597	1192.5451	1210.4544	1245.312	1290.1872	1315.4503	1338.1086	1344.0927	1394.4547	1401.8035	1412.337	1426.9386	1473.0127	1481.0284	1492.8855	1494.1252	1499.7638	1504.7238	1508.1527	1513.0122	1614.4508	1783.7679	3022.6748	3029.1449	3033.4375	3038.7209	3042.599	3051.3307	3081.7936	3097.369	3100.5665	3100.9092	3102.8315	3110.3195	3112.6681	3608.3245	3745.1673
CCCC(C)(C)C(N)=O	CCCC(C)(C)C(=O)N	
InChI=1S/C7H15NO/c1-4-5-7(2,3)6(8)9/h4-5H2,1-3H3,(H2,8,9)	InChI=1S/C7H15NO/c1-4-5-7(2,3)6(8)9/h4-5H2,1-3H3,(H2,8,9)
