19
gdb 93881	2.107	1.58049	1.13557	1.4859	75.51	-0.2531	0.0318	0.2849	1132.1991	0.158664	-423.000713	-422.991522	-422.990578	-423.034727	34.944	
O	 0.3897353017	 0.9523770962	-0.7913967333	-0.436442
C	 0.0382083023	-0.1659332394	-0.0147924497	 0.137155
C	 0.4635085604	-0.0907153379	 1.4738919916	-0.238755
C	-0.5577309265	-0.9502194266	 2.2601193717	-0.238779
C	-1.5543320468	-1.5065618214	 1.2113366954	 0.137156
O	-2.8460258482	-1.7716765786	 1.6997229335	-0.436429
C	-1.4834671794	-0.4862482817	 0.0387683497	-0.242709
C	-2.2625495859	 0.709682276	 0.3344613578	 0.294978
C	-2.8821167521	 1.703507236	 0.6163863022	-0.469211
H	-0.140540133	 1.6968327936	-0.4800081425	 0.280571
H	 0.5310964745	-1.0162063795	-0.4988558001	 0.095687
H	 1.49729194	-0.4196278282	 1.6029168957	 0.107337
H	 0.4220088298	 0.9550032725	 1.7946751882	 0.104129
H	-0.0955467149	-1.760116221	 2.8293213031	 0.107339
H	-1.113566082	-0.3372497013	 2.9766910096	 0.104115
H	-1.1914893255	-2.4663948487	 0.827554564	 0.095694
H	-3.2516146537	-0.9224676526	 1.9158394774	 0.280573
H	-1.8353985009	-0.9260497374	-0.8991874183	 0.110557
H	-3.4456178198	 2.5763585001	 0.8388833241	 0.207036
65.0885	103.5605	122.8967	171.0085	290.7451	355.4209	396.4501	403.4289	411.414	423.672	477.1267	571.7894	632.5184	652.8598	654.0776	659.2954	801.283	844.4374	848.7956	946.9563	990.0972	1002.8889	1049.267	1099.8356	1101.6958	1137.7173	1155.869	1195.5872	1244.6818	1244.8137	1288.9623	1302.908	1305.0007	1351.3959	1354.354	1372.5797	1435.4166	1448.5777	1482.4734	1503.2432	2216.3395	3044.1902	3050.6341	3052.012	3062.0885	3071.0766	3093.8568	3113.5992	3497.5764	3770.7415	3773.0127
OC1CCC(O)C1C#C	O[C@H]1CC[C@@H](O)[C@H]1C#C	
InChI=1S/C7H10O2/c1-2-5-6(8)3-4-7(5)9/h1,5-9H,3-4H2	InChI=1S/C7H10O2/c1-2-5-6(8)3-4-7(5)9/h1,5-9H,3-4H2/t5-,6-,7+
