18
gdb 12855	3.05028	2.28842	1.81373	0.9389	66.47	-0.2458	0.0806	0.3264	814.4876	0.154731	-384.935833	-384.928688	-384.927744	-384.96689	27.797	
C	-0.0962503351	 1.5498063508	 0.0248973662	-0.464041
C	-0.0051292351	 0.0384974496	 0.0492144878	 0.408415
C	-1.32531635	-0.7245572058	-0.0824001636	-0.264804
C	-1.0081073735	-2.0620272183	 0.6017414999	-0.095574
O	-0.1026218649	-1.7403186299	 1.6613457519	-0.263616
C	 0.722831671	-0.6869079119	 1.2191387513	 0.031581
C	 1.7823465646	-1.0456202425	 0.1576863408	-0.113579
O	 0.9905379498	-0.4561124826	-0.8961230027	-0.33387
H	 0.8891173086	 2.0006543515	 0.1750705025	 0.121534
H	-0.4788852519	 1.8940493969	-0.9415879263	 0.128746
H	-0.7689550328	 1.912335472	 0.8089826375	 0.118996
H	-2.1188176315	-0.1944520263	 0.4545073683	 0.104471
H	-1.6202431276	-0.8369758861	-1.1284662172	 0.11438
H	-1.8757332801	-2.553830207	 1.0474539349	 0.110896
H	-0.5407158156	-2.7573899517	-0.1097447095	 0.104993
H	 1.0559526497	-0.1191055732	 2.0894258781	 0.085994
H	 2.7485833132	-0.5386013195	 0.2749133574	 0.099273
H	 1.9499220212	-2.118956816	 0.0121069826	 0.106204
124.9438	208.9539	223.8665	257.7057	347.001	390.029	429.4072	586.3084	652.091	663.6286	825.3171	830.255	887.6005	904.017	931.7716	969.5441	993.0485	1012.9248	1026.2979	1053.7863	1118.9855	1152.6836	1165.1944	1178.9652	1218.0934	1232.5589	1243.7926	1269.4774	1326.9308	1336.8513	1364.0454	1396.5933	1408.6161	1468.2988	1482.9408	1492.4327	1510.2917	1521.2901	3006.7995	3014.7508	3034.3495	3054.2436	3066.0298	3099.302	3103.5654	3105.1692	3110.9299	3117.2917
CC12CCOC1CO2	C[C@]12CCO[C@H]1CO2	
InChI=1S/C6H10O2/c1-6-2-3-7-5(6)4-8-6/h5H,2-4H2,1H3	InChI=1S/C6H10O2/c1-6-2-3-7-5(6)4-8-6/h5H,2-4H2,1H3/t5-,6-/m0/s1
