17
gdb 128390	3.58686	1.30707	1.14655	3.1534	73.75	-0.2424	0.0168	0.2591	1096.4425	0.139071	-414.156296	-414.148515	-414.147571	-414.189115	28.431	
C	 0.4801179511	 0.6473740832	 0.3515512242	-0.334193
N	-0.6432114785	 0.4877091074	-0.5676214807	-0.272233
C	-1.5458772616	-0.5900437493	-0.2852555655	-0.129769
C	-0.9853441075	-2.0736287085	-0.4803885818	-0.181595
N	-1.3715057071	-2.2867132001	 0.9235280969	 0.089974
N	-1.5852845575	-3.1302572074	 1.9541527639	-0.286058
C	-2.1924395437	-2.2871903528	 2.8006568605	 0.019327
N	-2.3997088555	-0.9999227176	 2.3644458195	-0.390085
C	-1.8569777221	-1.0725299084	 1.1597191786	 0.34325
H	 1.0619152866	 1.5217453584	 0.0495825687	 0.127501
H	 0.180157475	 0.7679513992	 1.4038687111	 0.127618
H	 1.1426976533	-0.2221376678	 0.2897817928	 0.129474
H	-1.1581079736	 1.355746769	-0.6465800626	 0.233999
H	-2.4581422993	-0.4404441081	-0.8682886279	 0.11516
H	-1.5385136253	-2.6908653964	-1.1916320882	 0.141519
H	 0.0879856928	-2.1451326286	-0.6653140844	 0.140488
H	-2.4972648871	-2.6183471722	 3.7828351649	 0.125623
79.1799	116.2118	148.6103	205.1697	277.0225	308.5715	501.663	532.1763	666.8161	679.3707	698.9544	754.7118	801.7205	871.762	888.7559	970.6291	1000.2746	1010.9069	1101.8387	1132.1417	1151.5736	1160.5243	1176.9777	1188.6975	1226.9097	1245.0915	1256.7572	1313.7101	1377.9523	1406.7928	1463.0476	1475.5032	1490.3131	1497.4092	1504.034	1521.2542	1553.4197	2989.8188	3072.9084	3076.3447	3085.0086	3117.2476	3137.2302	3254.8308	3555.4536
CNC1CN2N=CN=C12	CN[C@H]1Cn2ncnc12	
InChI=1S/C5H8N4/c1-6-4-2-9-5(4)7-3-8-9/h3-4,6H,2H2,1H3	InChI=1S/C5H8N4/c1-6-4-2-9-5(4)7-3-8-9/h3-4,6H,2H2,1H3/t4-/m0/s1
