20
gdb 19515	3.6048	1.58742	1.50499	0.1944	79.18	-0.2224	0.0231	0.2455	973.5369	0.178604	-311.871717	-311.864125	-311.86318	-311.903602	29.715	
C	-0.2328539031	 1.4847033047	-0.1062092308	-0.372113
C	 0.214239213	 0.0349833857	 0.1160131328	-0.201709
C	 0.7939866085	-0.5897912982	-1.1347374373	 0.013539
C	 0.9224080454	-2.0739958065	-1.3746176358	-0.086262
C	 0.0692710694	-3.047303165	-0.5556369622	-0.27028
C	-1.3527132776	-2.6972083346	-0.9439907767	-0.074002
C	-1.3948753688	-1.7365330623	-1.8712662054	-0.069621
C	-0.0342043265	-1.2502763806	-2.2344906563	-0.096599
H	 0.5992799499	 2.1099019092	-0.4492032832	 0.109944
H	-1.0202401612	 1.537902413	-0.8654295267	 0.116938
H	-0.6234675524	 1.9268664773	 0.8158200011	 0.107355
H	 0.972393706	 0.002055735	 0.9100962792	 0.09177
H	-0.6343171405	-0.5539684942	 0.4770734399	 0.103281
H	 1.6356257109	-0.0244810506	-1.5332483393	 0.077596
H	 1.8585727513	-2.4375575893	-1.7827919643	 0.079613
H	 0.3082088814	-4.0902020391	-0.8028312504	 0.104707
H	 0.2351187237	-2.9459150185	 0.525647203	 0.107444
H	-2.2153923051	-3.1681615407	-0.4855901594	 0.08959
H	-2.299839978	-1.3250109232	-2.3045857636	 0.089528
H	 0.1854223636	-0.9925756719	-3.2654016148	 0.07928
74.6201	152.4804	199.3715	252.481	293.5178	387.1386	507.8684	546.9532	688.608	736.9502	750.0072	782.283	798.4975	810.5135	892.5639	936.7087	942.6512	956.2097	980.5682	986.5452	1019.5522	1046.8384	1071.2573	1096.8144	1116.5852	1132.2746	1138.4751	1185.9863	1230.5077	1295.4474	1302.6069	1313.7152	1337.9404	1370.3137	1384.3145	1407.8047	1438.4315	1479.2224	1487.1123	1497.6531	1506.5514	1666.8464	3011.8433	3019.2856	3029.4361	3034.9018	3073.736	3097.8664	3102.7533	3112.2586	3156.0208	3170.4637	3180.7885	3205.8297
CCC1C2CC=CC12	CC[C@H]1[C@H]2CC=C[C@@H]12	
InChI=1S/C8H12/c1-2-6-7-4-3-5-8(6)7/h3-4,6-8H,2,5H2,1H3	InChI=1S/C8H12/c1-2-6-7-4-3-5-8(6)7/h3-4,6-8H,2,5H2,1H3/t6-,7+,8-/m1/s1
