16
gdb 51516	3.38618	1.12248	0.89445	5.3735	72.07	-0.243	-0.0403	0.2027	1245.4108	0.124072	-437.942588	-437.934426	-437.933482	-437.97605	29.769	
O	-1.0288389532	 1.4335964367	-0.6036116333	-0.23893
C	 0.0273505992	 1.0575017287	-0.1593254466	 0.155596
C	 1.3415139917	 1.7784332593	-0.3551855192	-0.301772
C	 1.2294356591	 3.0122077358	-1.2645420553	-0.015716
N	 0.3730301109	 4.0400549716	-0.7172632515	-0.327635
C	 0.9891910532	 5.2703727569	-0.6113533027	 0.403929
O	 0.4801249522	 6.3081344695	-0.2470124677	-0.382579
C	 2.4022267875	 5.0231272895	-1.0428231956	-0.199108
C	 2.5374113446	 3.7527642429	-1.4223999996	-0.087297
H	 0.092440655	 0.125777721	 0.4450413014	 0.095491
H	 1.7212394361	 2.0634164374	 0.6358926292	 0.144331
H	 2.0656579765	 1.0561460998	-0.758450411	 0.1287
H	 0.8605375008	 2.6769277851	-2.245973082	 0.112764
H	-0.6211897891	 3.9148204454	-0.6255376788	 0.26731
H	 3.1474786501	 5.8055766344	-1.0384890131	 0.126588
H	 3.4313510353	 3.2629519658	-1.7877644343	 0.118328
69.3219	101.9972	148.2849	178.8551	253.9285	339.7388	465.6077	482.4763	517.3456	625.4492	679.0934	700.216	763.3236	807.8015	835.9539	890.551	923.4198	956.0429	975.3667	1018.8646	1079.4921	1093.5863	1130.6277	1212.7174	1225.3383	1269.1223	1326.6307	1358.0655	1378.3928	1408.8974	1418.4338	1433.9867	1655.6152	1821.5913	1826.2331	2891.7292	2992.5009	3017.9799	3055.0298	3210.9134	3250.036	3670.8194
O=CCC1NC(=O)C=C1	O=CC[C@H]1NC(=O)C=C1	
InChI=1S/C6H7NO2/c8-4-3-5-1-2-6(9)7-5/h1-2,4-5H,3H2,(H,7,9)	InChI=1S/C6H7NO2/c8-4-3-5-1-2-6(9)7-5/h1-2,4-5H,3H2,(H,7,9)/t5-/m0/s1
