20
gdb 75519	2.47672	1.45185	1.07435	2.3061	82.09	-0.2371	0.0013	0.2384	1187.3721	0.17261	-403.150705	-403.142152	-403.141208	-403.183951	32.581	
C	-0.2180127186	 1.4789930825	 0.005830059	-0.462486
C	-0.0136914315	-0.0172694501	 0.008777158	 0.329204
C	-0.1299717737	-0.7038699264	-1.1339764306	-0.175351
C	 0.0308876936	-2.1845846473	-1.3631356751	-0.133645
O	 1.4086815327	-2.6172764027	-1.4386673572	-0.227179
C	 2.2369928347	-2.5069493496	-0.3728510894	 0.144137
N	 2.0719506852	-2.2595724485	 0.8527468408	-0.261671
C	 0.797656609	-2.0159061955	 1.5125791034	-0.190545
C	 0.3215951523	-0.5622063903	 1.3788550505	-0.272329
H	 0.6952118271	 1.9982533322	 0.3225047665	 0.130478
H	-0.4994569592	 1.8517723666	-0.9816409729	 0.122228
H	-1.0012460337	 1.7689082283	 0.7178023344	 0.124529
H	-0.3500819565	-0.1334630289	-2.0334260429	 0.084991
H	-0.5095312404	-2.7919684008	-0.6371180306	 0.120066
H	-0.3630289413	-2.4401547387	-2.3489803821	 0.116396
H	 3.2498855538	-2.699885028	-0.7303726992	 0.116432
H	 0.0099960179	-2.7151398484	 1.215718634	 0.101182
H	 0.9612811868	-2.1969114758	 2.5810106994	 0.10374
H	 1.1020303583	 0.0826402771	 1.8055749661	 0.121159
H	-0.5530477764	-0.4211704656	 2.0316950779	 0.108665
66.0031	140.9903	196.0435	226.3929	256.287	326.2932	347.7853	362.661	438.8528	509.5097	576.6858	640.9749	725.0598	791.6454	804.8932	857.8906	918.0523	934.9827	978.2303	991.4006	1025.6798	1046.0111	1063.0214	1079.9269	1121.4476	1148.443	1199.2069	1229.8924	1274.3314	1294.1091	1368.4416	1373.3492	1400.0485	1412.2103	1419.4271	1439.2293	1456.1455	1480.8326	1491.8099	1499.8026	1550.2645	1728.4814	1756.0253	2998.933	3020.2058	3028.8377	3037.2325	3058.5617	3067.5423	3087.422	3118.9312	3124.9339	3125.951	3149.5574
CC1=CCOC=NCC1	CC1=CCOC=NCC1	
InChI=1S/C7H11NO/c1-7-2-4-8-6-9-5-3-7/h3,6H,2,4-5H2,1H3/b7-3-,8-6-	InChI=1S/C7H11NO/c1-7-2-4-8-6-9-5-3-7/h3,6H,2,4-5H2,1H3/b7-3-,8-6-
