21
gdb 87780	3.7676	1.09123	1.0759	2.2694	84.58	-0.2204	0.078	0.2983	1260.3553	0.181913	-383.195642	-383.186782	-383.185838	-383.228722	34.551	
C	-0.2296135236	 1.3853916531	-0.0488160568	-0.313853
N	 0.0169065994	-0.0451623786	 0.0514227629	-0.123765
C	 1.3925786706	-0.5037353165	-0.1592557484	-0.334148
C	 0.7704510435	-0.5248013299	 1.1875990475	 0.430139
C	 1.2881656707	 0.2304974626	 2.4449474355	-0.367623
C	 0.9236144548	-1.026489448	 3.2622602529	 0.351902
C	 1.6481448555	-1.5510357488	 4.4616443824	-0.505872
N	-0.5399555333	-1.1862620175	 3.0820068038	-0.373272
C	 0.3969824693	-1.7115968269	 2.0439674552	-0.21354
H	 0.6088214121	 2.0079637016	 0.3056548314	 0.097168
H	-0.4263005988	 1.643422892	-1.0943844392	 0.119189
H	-1.1167046517	 1.6378339593	 0.5399054072	 0.131304
H	 1.5046759556	-1.413914036	-0.7443640797	 0.110636
H	 2.1649971585	 0.2462637637	-0.3336042407	 0.101012
H	 2.3618086175	 0.4333244749	 2.4106515317	 0.102504
H	 0.7477986226	 1.1356028101	 2.7338096294	 0.107867
H	 1.467376453	-0.9212863207	 5.3410969419	 0.128459
H	 1.3205620664	-2.5676206776	 4.7060601706	 0.117404
H	 2.7295784987	-1.5785485561	 4.2896600042	 0.124497
H	-0.8213738882	-1.9897083353	 3.6462369757	 0.220783
H	 0.3905006473	-2.7600869052	 1.7697852525	 0.089208
92.3051	151.4771	202.3327	217.9391	232.125	280.1615	341.9406	411.0299	416.6097	449.2039	505.2238	552.9892	670.254	756.6193	801.4992	845.4469	891.9199	893.9397	929.2363	966.1689	983.5325	1002.1298	1046.0663	1076.8463	1096.7655	1104.5045	1114.1812	1139.186	1163.6496	1176.9113	1200.0789	1217.0241	1228.7806	1293.9954	1323.877	1405.0748	1431.9649	1440.9609	1449.3723	1477.417	1483.4995	1493.9759	1495.6131	1498.8236	1518.0404	2964.1687	3021.5897	3057.3784	3067.3012	3075.7318	3082.738	3094.6387	3106.141	3113.8481	3161.9392	3183.998	3450.2821
CN1CC11CC2(C)NC12	CN1C[C@]21C[C@@]1(C)N[C@@H]21	
InChI=1S/C7H12N2/c1-6-3-7(4-9(7)2)5(6)8-6/h5,8H,3-4H2,1-2H3	InChI=1S/C7H12N2/c1-6-3-7(4-9(7)2)5(6)8-6/h5,8H,3-4H2,1-2H3/t5-,6-,7-,9?/m1/s1
