17
gdb 128368	5.35444	0.90654	0.78791	1.8558	73.85	-0.2097	0.0271	0.2368	1439.2654	0.135574	-455.127055	-455.117923	-455.116979	-455.161594	32.081	
C	 0.0465718637	 1.4132791137	 0.1747924353	-0.326067
N	-0.0486577412	 0.0198035933	-0.2250413158	-0.372476
C	-1.2411970784	-0.653458096	-0.0931856199	 0.483585
N	-1.2387911457	-1.9660037491	 0.0711224982	-0.278884
O	-2.6173989308	-2.3228443356	 0.0912925476	-0.232078
C	-3.3422267297	-1.2120286318	-0.0408693949	 0.575169
O	-4.6664576052	-1.3093317754	-0.041441357	-0.269471
C	-5.2237750149	-2.6211698654	 0.1035606164	-0.249944
C	-2.5555728256	-0.1056467485	-0.1601372525	-0.512536
H	 1.0604867624	 1.7669378663	-0.0257990523	 0.130088
H	-0.6369872466	 2.0224966551	-0.4241997352	 0.137483
H	-0.1803114316	 1.5868958686	 1.2374326089	 0.11925
H	 0.742928125	-0.5529561705	 0.0321554592	 0.247446
H	-6.3043327869	-2.4818949452	 0.0797361143	 0.141293
H	-4.9090043826	-3.271489523	-0.7174046118	 0.146221
H	-4.922102219	-3.0703645817	 1.0539548901	 0.145511
H	-2.8711527228	 0.9138613554	-0.2863534007	 0.11541
65.0002	85.3677	137.9052	160.7897	175.7926	229.9661	253.1968	389.9795	436.8485	508.9354	582.2117	670.8127	674.4871	713.5141	754.3705	759.8482	919.9117	980.534	1012.3782	1060.0209	1091.7504	1152.8724	1176.625	1183.1157	1198.0223	1236.6023	1343.7585	1426.4908	1455.6373	1473.4334	1485.3924	1490.0755	1500.2093	1514.9786	1534.9844	1593.4152	1673.4737	2990.7226	3044.9739	3078.574	3118.2558	3122.4041	3159.2401	3297.2246	3595.9959
CNC1=NOC(OC)=C1	CNc1noc(OC)c1	
InChI=1S/C5H8N2O2/c1-6-4-3-5(8-2)9-7-4/h3H,1-2H3,(H,6,7)	InChI=1S/C5H8N2O2/c1-6-4-3-5(8-2)9-7-4/h3H,1-2H3,(H,6,7)
