19
gdb 7861	4.0254	1.24782	1.11715	3.5125	72.39	-0.2215	-0.0136	0.2079	1141.343	0.162853	-365.049979	-365.040771	-365.039827	-365.084619	32.647	
C	-0.413739217	 1.3044891472	-0.0375426504	-0.318405
N	 0.0337655456	-0.0770417478	 0.0214337907	-0.060907
C	 1.4316942327	-0.3728485468	-0.2529842756	-0.271021
C	 0.8721075962	-0.5350102636	 1.1229979808	 0.042595
C	 1.3459919265	 0.35760921	 2.2504903978	-0.342124
C	 0.3107958655	 0.5626578291	 3.355449514	 0.384068
C	 0.8274065784	 1.1716064613	 4.6472897262	-0.473971
O	-0.8511008369	 0.2624615159	 3.2081029826	-0.285279
H	 0.3624132801	 2.0520144201	 0.1976097272	 0.087344
H	-0.7712122177	 1.5130400682	-1.0510379008	 0.122147
H	-1.246027632	 1.4362521057	 0.6591791183	 0.142483
H	 1.6290261574	-1.2349389523	-0.8855701756	 0.113179
H	 2.1118530482	 0.4658635793	-0.4092941555	 0.09758
H	 0.6103781969	-1.537926213	 1.4564178247	 0.095489
H	 2.2595074286	-0.0592848554	 2.6961946104	 0.119454
H	 1.6379129683	 1.3514261539	 1.8882896001	 0.126223
H	 1.489621339	 0.4585284093	 5.1527160059	 0.142425
H	 1.4227588384	 2.0693407071	 4.4481507036	 0.134393
H	-0.0079972582	 1.4143675118	 5.3048476856	 0.144327
37.9016	80.4269	122.8468	147.1575	203.4695	272.1128	315.8373	354.4807	412.4478	453.6249	509.4621	604.0104	747.2337	789.9776	809.0859	877.9568	928.6259	955.6316	1025.1847	1046.586	1085.7168	1118.1461	1130.5686	1146.6955	1174.1836	1178.5879	1201.5705	1236.4323	1340.5308	1349.0646	1383.5317	1418.9113	1441.3774	1449.6232	1464.0353	1477.6065	1492.4455	1505.1688	1516.0512	1813.6746	2959.6239	3023.6663	3035.9522	3058.5098	3068.0791	3075.0148	3095.4456	3116.2086	3116.9994	3152.9273	3163.9924
CN1CC1CC(C)=O	CN1C[C@H]1CC(=O)C	
InChI=1S/C6H11NO/c1-5(8)3-6-4-7(6)2/h6H,3-4H2,1-2H3	InChI=1S/C6H11NO/c1-5(8)3-6-4-7(6)2/h6H,3-4H2,1-2H3/t6-,7?/m1/s1
