20
gdb 122594	3.66345	0.79494	0.68774	2.6329	77.51	-0.2313	0.0251	0.2563	1673.2194	0.169807	-440.298404	-440.2885	-440.287556	-440.3345	34.655	
C	 0.0192884622	 1.4416697407	 0.2887376106	-0.383502
C	-0.0762094729	-0.0215380635	-0.1506895696	-0.184256
C	-1.461797446	-0.6034744374	 0.0842887498	-0.052813
O	-1.4627958999	-1.9560565049	-0.3683024143	-0.258563
C	-2.68534835	-2.5983472343	-0.1821012655	-0.009983
C	-2.6575151233	-4.1043195861	-0.5605116797	-0.192083
N	-3.070391521	-4.3900310987	 0.8184113123	-0.327357
C	-3.0067682894	-3.0942835121	 1.2683094745	 0.408204
O	-3.1276399612	-2.5904974293	 2.3536385496	-0.362519
H	 1.0237545524	 1.83816133	 0.1155652677	 0.117243
H	-0.6862390472	 2.0719994227	-0.2638531095	 0.116154
H	-0.2030385975	 1.5525532954	 1.3555460067	 0.122258
H	 0.1683811834	-0.1172531786	-1.2149821948	 0.103847
H	 0.6538197169	-0.6303161745	 0.394776401	 0.109024
H	-1.730088616	-0.5637498716	 1.1485155737	 0.126238
H	-2.2226957304	-0.0282810329	-0.4708137871	 0.08484
H	-3.518343534	-2.0376195303	-0.6324639023	 0.089424
H	-3.3715338371	-4.4253499671	-1.3240615112	 0.114554
H	-1.6499839662	-4.4479330428	-0.8111613774	 0.126942
H	-3.1728477429	-5.2612196347	 1.3177404253	 0.252347
51.3798	64.5014	94.1264	131.3337	158.5335	223.8643	239.9129	279.0602	358.4644	408.2881	507.2756	521.1918	732.2129	758.9046	767.2011	863.2573	900.0642	906.3539	930.9461	988.8157	1028.0847	1060.3271	1090.1891	1149.2295	1155.5806	1178.2088	1190.9711	1195.4566	1222.6283	1270.4329	1297.233	1316.1299	1331.7684	1359.2276	1395.5988	1413.0595	1445.1759	1493.3829	1500.1026	1508.7577	1520.4342	1528.7727	1887.0328	2960.1513	2994.4858	3032.9928	3033.849	3040.2985	3051.7884	3073.2655	3101.8141	3105.7691	3109.4238	3609.1949
CCCOC1CNC1=O	CCCO[C@H]1CNC1=O	
InChI=1S/C6H11NO2/c1-2-3-9-5-4-7-6(5)8/h5H,2-4H2,1H3,(H,7,8)	InChI=1S/C6H11NO2/c1-2-3-9-5-4-7-6(5)8/h5H,2-4H2,1H3,(H,7,8)/t5-/m0/s1
