14
gdb 130137	3.22242	1.47645	1.01622	6.143	69.56	-0.2236	-0.0521	0.1715	1077.5758	0.104161	-466.234212	-466.226634	-466.22569	-466.266111	29.332	
N	 0.0126969093	 1.3855740977	 0.1378135862	-0.585017
C	-0.0029010685	-0.0144899457	 0.0468602385	 0.312937
N	-1.116527752	-0.6652002967	 0.1364113331	-0.236695
N	-1.0188145911	-2.0046810213	 0.1147275644	-0.283365
C	 0.1451414824	-2.7653282061	-0.0810789826	 0.438818
O	 0.0706004563	-3.9719835818	-0.1655014149	-0.388746
N	 1.3214266598	-2.0338907421	-0.1351220389	-0.393587
C	 1.2592327418	-0.7364272577	-0.0619101668	 0.361869
N	 2.4019253437	 0.0064128323	-0.1182099109	-0.558445
H	 0.4536356372	 1.8220310154	-0.6659503419	 0.256724
H	-0.9289574294	 1.7459182885	 0.2471502009	 0.259332
H	-1.8911193529	-2.5072594012	 0.1841373403	 0.274786
H	 3.2595137888	-0.5197701389	-0.0335130374	 0.271666
H	 2.3798773246	 0.9098670577	 0.3304703899	 0.269725
97.2054	206.0391	278.8089	310.3524	359.3408	386.3283	411.8811	511.7452	539.4166	548.1693	591.1455	601.6325	639.3558	731.8968	763.9641	790.9753	817.3405	848.0541	956.3513	1111.2	1138.9586	1209.7235	1293.1665	1326.5906	1429.1759	1485.3133	1593.1353	1613.7889	1641.0364	1694.8166	1812.7361	3501.9385	3567.0288	3599.1564	3624.7579	3688.9953
NC1=NNC(=O)N=C1N	Nc1n[nH]c(=O)nc1N	
InChI=1S/C3H5N5O/c4-1-2(5)7-8-3(9)6-1/h(H2,5,7)(H3,4,6,8,9)	InChI=1S/C3H5N5O/c4-1-2(5)7-8-3(9)6-1/h(H2,5,7)(H3,4,6,8,9)
