12
gdb 21891	5.86853	1.66122	1.29472	0.7737	61.74	-0.2136	-0.079	0.1346	853.2639	0.08629	-410.844351	-410.838009	-410.837065	-410.874906	24.075	
O	-0.0492968368	 1.2998926946	-0.2473833435	-0.393036
C	 0.0312487745	-0.0225293335	-0.0196224961	 0.475989
N	 1.1895052548	-0.5963571244	 0.0145207776	-0.291485
N	 1.1754815504	-1.9312788679	 0.2506619558	-0.254157
C	 0.052938991	-2.7102591529	 0.4521982095	 0.362422
N	 0.1621747765	-3.9708264601	 0.6664245916	-0.559651
C	-1.168207359	-1.8972548316	 0.3793885933	-0.036811
N	-1.1939261824	-0.6294226129	 0.1578605557	-0.250467
H	 0.8536928409	 1.6262591656	-0.3562148655	 0.311731
H	 2.081284276	-2.3751781713	 0.2754662643	 0.279171
H	-0.7564148992	-4.391106341	 0.79230356	 0.217528
H	-2.1175432368	-2.4130812345	 0.5240581574	 0.138767
85.8995	312.1792	358.4858	363.3614	470.7421	486.8563	526.2697	526.5178	645.3717	652.2619	745.484	790.1492	822.6424	846.5027	980.3325	999.9486	1104.3082	1184.0794	1288.1024	1366.8488	1396.1248	1432.1038	1478.8434	1585.8711	1658.038	1706.2747	3137.5657	3505.4982	3626.3189	3794.0636
OC1=NNC(=N)C=N1	Oc1n[nH]c([NH])cn1	
InChI=1S/C3H4N4O/c4-2-1-5-3(8)7-6-2/h1H,(H2,4,6)(H,5,7,8)	InChI=1S/C3H9N4O/c4-2-1-5-3(8)7-6-2/h2-8H,1H2
