12
gdb 132255	3.40275	1.25921	0.91909	5.4927	70.97	-0.2808	-0.0775	0.2033	1128.4459	0.079144	-439.70932	-439.702617	-439.701673	-439.740783	24.985	
F	-0.0111321733	 0.0534069103	 0.0037925589	-0.060081
C	-0.0158224038	 1.3784483507	 0.010675074	 0.337898
N	-1.1929924739	 1.9526653315	 0.0299246445	-0.356927
C	-1.2096874405	 3.2959795883	 0.0370338285	 0.223457
C	-0.05847162	 4.0816520334	 0.0250968671	-0.1651
C	 1.1744648592	 3.4310244165	 0.0046727488	-0.061772
C	 1.2107324128	 2.0456346428	-0.002922571	-0.252346
C	-2.5036166693	 3.9270455032	 0.0581905608	 0.247075
N	-3.5249509286	 4.4691443774	 0.0751161554	-0.318987
H	-0.1345567378	 5.161206689	 0.0316754583	 0.136766
H	 2.09560832	 4.002688464	-0.0051744002	 0.13419
H	 2.1361049251	 1.4842196229	-0.0186341252	 0.135825
142.4146	154.5561	223.4938	407.9214	419.4734	480.4161	483.577	551.8738	602.8588	691.0625	720.9237	756.351	835.8668	925.0743	978.0082	1001.5479	1007.5002	1098.8194	1174.9949	1234.4	1321.4493	1339.6797	1459.4805	1482.779	1621.4646	1624.9789	2354.7243	3198.1007	3220.7714	3225.6665
FC1=NC(=CC=C1)C#N	Fc1nc(ccc1)C#N	
InChI=1S/C6H3FN2/c7-6-3-1-2-5(4-8)9-6/h1-3H	InChI=1S/C6H3FN2/c7-6-3-1-2-5(4-8)9-6/h1-3H
