17
gdb 17985	3.94502	1.69283	1.44947	4.1561	71.5	-0.2889	0.0278	0.3167	899.2023	0.14414	-326.717738	-326.710739	-326.709795	-326.749411	26.629	
N	 0.0893640874	-1.1592745282	 0.1651781552	-0.338927
C	 0.0357425855	-0.0077541728	 0.067344107	 0.276068
C	-0.0053294757	 1.4420762216	-0.026090619	-0.141871
C	-0.3779437112	 2.2545342107	 1.2637556374	-0.251101
C	 0.8781731565	 3.1493627641	 1.0671741283	-0.010792
C	 2.1110040575	 2.7255106676	 1.900988823	-0.222771
C	 2.4888527957	 1.6810077833	 0.8049941811	-0.239868
C	 1.3479182267	 2.2148287551	-0.1051802829	-0.028799
H	-0.6565889025	 1.7185492449	-0.8597988792	 0.122149
H	-1.3394232361	 2.7651925133	 1.190469645	 0.11738
H	-0.3683613162	 1.6632664043	 2.1821749922	 0.12123
H	 0.6876523297	 4.2150695338	 0.938459132	 0.072011
H	 2.8525020263	 3.5232340502	 1.9918240328	 0.105635
H	 1.9022371828	 2.3378513064	 2.9022973446	 0.103246
H	 3.4871028518	 1.8120569814	 0.3829542081	 0.11049
H	 2.3820624675	 0.6324194455	 1.0942394878	 0.128308
H	 1.6340337442	 2.5710706788	-1.0946736434	 0.077613
55.4931	147.2692	205.0146	331.9733	364.5339	520.698	557.0542	623.9686	734.3868	738.9155	768.083	848.7349	884.2105	900.7816	929.7147	956.1326	1010.0731	1030.1837	1049.5919	1078.0319	1101.0212	1148.0071	1180.8325	1211.0288	1216.7401	1255.2401	1258.0211	1274.4367	1292.595	1299.2065	1320.1739	1340.2399	1478.2096	1484.1133	1499.1125	2347.5698	3054.304	3069.1994	3070.0556	3072.2001	3094.9194	3104.2436	3108.5152	3124.2061	3131.2569
N#CC1CC2CCC12	N#C[C@H]1C[C@H]2CC[C@@H]12	
InChI=1S/C7H9N/c8-4-6-3-5-1-2-7(5)6/h5-7H,1-3H2	InChI=1S/C7H9N/c8-4-6-3-5-1-2-7(5)6/h5-7H,1-3H2/t5-,6-,7-/m1/s1
