22
gdb 60097	3.53413	1.03306	0.94816	1.9267	83.18	-0.2413	0.0747	0.3161	1359.6174	0.193433	-404.272988	-404.263821	-404.262877	-404.307752	34.88	
C	-0.0355406314	 1.5516295334	-0.0072295078	-0.38531
C	 0.0057710519	 0.0225410011	-0.0126249934	 0.118324
C	 0.8097432399	-0.5310477631	-1.183320748	-0.387725
O	 0.6264155047	-0.4740324495	 1.1823695572	-0.303852
C	-0.194432101	-0.6541975851	 2.2714510652	 0.384434
C	-1.4346490087	-1.5748276084	 2.4591638099	-0.232563
N	-1.2267996623	-0.9808388302	 3.8593405593	-0.142815
C	 0.2722204515	-1.2331013201	 3.6127099501	-0.218866
C	-0.997268853	 0.3551510819	 3.1427823834	-0.234437
H	 0.9800195047	 1.955435308	 0.053503288	 0.124153
H	-0.5021419011	 1.9259698035	-0.9243493995	 0.114108
H	-0.60722135	 1.9343500209	 0.8422633317	 0.121895
H	-1.0208653896	-0.3694977922	-0.063936909	 0.073215
H	 1.8464108916	-0.1840848445	-1.1264307144	 0.12526
H	 0.8139125071	-1.62392648	-1.1643152728	 0.120821
H	 0.3861562061	-0.1985796455	-2.1358713764	 0.112781
H	-2.3848550894	-1.2819668226	 2.005227582	 0.099464
H	-1.2826324123	-2.6565269157	 2.4174516895	 0.10273
H	 0.5482593878	-2.2898823588	 3.6488031419	 0.103216
H	 0.9258789867	-0.6211852396	 4.2392911536	 0.103304
H	-0.4373701774	 1.0802915464	 3.739133962	 0.102915
H	-1.9152790057	 0.7881737598	 2.7364427273	 0.098947
33.0162	70.2672	150.2745	206.6037	241.8962	302.6382	316.5661	396.8597	438.0592	469.5854	588.9509	594.7142	661.873	788.1544	797.9097	831.7656	888.5651	927.3232	939.5949	945.0725	959.3507	989.3707	995.0045	1024.3674	1025.6486	1140.3533	1145.6388	1149.7591	1171.7995	1172.7585	1180.5941	1188.4034	1194.5738	1217.4524	1258.3312	1313.5567	1364.0749	1388.4543	1399.894	1415.775	1479.5741	1484.7033	1493.6909	1507.1362	1508.1527	1510.1376	1565.6442	2993.8612	3037.5784	3042.8239	3048.7575	3052.5144	3062.1301	3107.2985	3115.6869	3118.1417	3120.3498	3122.7136	3124.1212	3127.2635
CC(C)OC12CN(C1)C2	CC(C)O[C@@]12CN(C1)C2	
InChI=1S/C7H13NO/c1-6(2)9-7-3-8(4-7)5-7/h6H,3-5H2,1-2H3	InChI=1S/C7H13NO/c1-6(2)9-7-3-8(4-7)5-7/h6H,3-5H2,1-2H3
