13
gdb 23714	5.6594	1.45512	1.15751	1.8824	63.32	-0.2174	-0.0109	0.2065	925.6002	0.096324	-406.632582	-406.626269	-406.625325	-406.66287	24.819	
O	 0.0842467649	 1.3677481496	 0.1298726417	-0.446589
C	 0.0655726333	 0.0056519963	 0.0389211688	 0.391295
C	 0.0790030258	-0.6704380952	-1.1814029292	-0.240619
C	 0.0587236896	-2.0632322388	-1.212383682	-0.225683
C	 0.0251526107	-2.7654441254	-0.0182952923	 0.28643
F	 0.0055509354	-4.1057191063	-0.0432115261	-0.08877
C	 0.0114047954	-2.1074328937	 1.2048960227	-0.229666
C	 0.0316755196	-0.7184983495	 1.2326162503	-0.171221
H	 0.1067937241	 1.7424770117	-0.7563711646	 0.296794
H	 0.1053699024	-0.1116304134	-2.1129074763	 0.092023
H	 0.0687578579	-2.6034125355	-2.1516792192	 0.111603
H	-0.0149500868	-2.686139017	 2.1207745655	 0.112182
H	 0.0216270277	-0.1785181928	 2.1720983507	 0.112221
159.9542	344.2718	345.4001	377.4603	428.7433	445.8622	461.8073	527.8678	651.2432	715.6022	760.6783	814.6606	849.8089	867.0893	917.9272	945.3878	1019.94	1107.7882	1169.6346	1194.6914	1266.8798	1304.3618	1312.6593	1361.966	1471.1207	1549.0805	1644.1643	1661.7824	3162.3457	3196.6358	3205.8788	3210.8871	3827.9714
OC1=CC=C(F)C=C1	Oc1ccc(F)cc1	
InChI=1S/C6H5FO/c7-5-1-3-6(8)4-2-5/h1-4,8H	InChI=1S/C6H5FO/c7-5-1-3-6(8)4-2-5/h1-4,8H
