20
gdb 107303	4.06183	1.04984	0.94135	2.2435	81.03	-0.2217	0.0173	0.239	1306.3489	0.171253	-403.134537	-403.125746	-403.124801	-403.167718	33.882	
C	 0.3270794069	 1.5333645949	 0.0706207831	-0.486629
C	 0.0292507601	 0.0699160752	 0.0042290632	 0.318802
C	-0.2422271702	-0.657682732	-1.0855387802	-0.155808
C	-0.3884750419	-2.1008032254	-0.7477490977	-0.136249
N	 0.8587125193	-2.6947502528	-0.1672957096	-0.372017
C	-0.2081597144	-2.2103628099	 0.7270002304	 0.317436
C	-0.9399076574	-3.2083457794	 1.5984445531	-0.190271
O	-1.189559409	-4.4425868736	 0.9410935028	-0.410085
C	 0.0426633202	-0.7983882538	 1.2551046277	-0.368464
H	 1.3453149019	 1.7140269407	 0.4381611523	 0.130177
H	 0.2342358616	 2.0076629498	-0.9101209101	 0.123689
H	-0.3497589961	 2.0468231262	 0.7659908886	 0.120896
H	-0.3012250785	-0.2708274783	-2.0964907498	 0.088775
H	-1.0418216778	-2.7533942321	-1.3191486587	 0.068909
H	 0.7506432961	-3.7102351734	-0.2059938475	 0.23079
H	-0.3222762048	-3.4600639344	 2.4692700622	 0.119887
H	-1.8696786007	-2.7597367548	 1.9803340577	 0.096408
H	-1.8850297168	-4.2935119008	 0.2926001529	 0.288998
H	 1.0014151172	-0.7316616647	 1.7836854553	 0.118336
H	-0.7355058457	-0.4841843716	 1.9663672544	 0.096422
90.4956	144.1045	178.1314	200.2062	270.2417	307.5854	346.0143	374.3562	416.0542	448.8851	512.0326	638.2289	671.6189	729.3701	826.641	849.4681	873.8472	926.8583	934.2576	952.73	1002.9214	1016.2316	1037.6435	1070.0179	1079.9687	1089.7967	1158.1338	1176.6293	1196.0041	1229.1116	1259.548	1296.8452	1323.2253	1358.4127	1392.8897	1411.6808	1420.4142	1430.9061	1463.7897	1478.5591	1487.7853	1501.8104	1704.5987	2987.0715	3001.6746	3015.6275	3051.5228	3054.605	3060.9086	3110.2992	3149.8466	3195.5281	3446.5846	3819.5956
CC1=CC2NC2(CO)C1	CC1=C[C@H]2N[C@@]2(CO)C1	
InChI=1S/C7H11NO/c1-5-2-6-7(3-5,4-9)8-6/h2,6,8-9H,3-4H2,1H3	InChI=1S/C7H11NO/c1-5-2-6-7(3-5,4-9)8-6/h2,6,8-9H,3-4H2,1H3/t6-,7-/m1/s1
