14
gdb 129702	2.41835	1.93168	1.07653	4.5806	72.9	-0.2013	-0.0477	0.1536	1024.0788	0.102786	-466.165138	-466.157381	-466.156436	-466.197154	29.555	
N	 0.0747169432	 1.4294339547	 0.1405244778	-0.59525
C	-0.0361356534	 0.0425690744	 0.0419545942	 0.306468
C	-1.1801308479	-0.6818636719	 0.0250077423	 0.275763
O	-2.4063249801	-0.1286438972	 0.0308617129	-0.448824
C	-1.0974842812	-2.1230772491	-0.0046833527	 0.320664
N	-2.2095906216	-2.7709502978	-0.0195059349	-0.589311
N	 0.1767672505	-2.7231867198	-0.0389671231	-0.284893
N	 1.2362717944	-2.0205651794	-0.017574776	-0.051254
N	 1.1401691496	-0.6834082215	 0.0261394798	-0.283481
H	 0.6067292497	 1.8495346154	-0.6146828295	 0.257563
H	-0.8420532902	 1.857757636	 0.1867280354	 0.276173
H	-3.0025698453	-0.9076828559	 0.0140362291	 0.309924
H	-2.0507204336	-3.776046746	-0.0623820061	 0.226546
H	 2.0278648258	-0.2161615918	 0.1308887909	 0.279912
127.0671	183.3634	223.1755	271.7698	309.6148	311.6585	466.0739	513.3667	522.609	564.3422	580.7705	628.9467	644.2784	702.1507	776.3328	785.9587	827.8044	931.2462	1036.5378	1057.5995	1136.9665	1175.6239	1297.3984	1339.3421	1367.1678	1431.7271	1496.5704	1554.5163	1647.1655	1666.6716	1751.533	3506.6106	3512.3942	3522.4678	3612.2599	3634.8605
NC1=C(O)C(=N)N=NN1	Nc1c(O)c([NH])nn[nH]1	
InChI=1S/C3H5N5O/c4-2-1(9)3(5)7-8-6-2/h(H,8,9)(H4,4,5,6,7)	InChI=1S/C3H10N5O/c4-2-1(9)3(5)7-8-6-2/h1-4,6-9H,5H2
