17
gdb 62106	2.50006	1.50011	1.09216	1.7438	64.93	-0.2524	0.0061	0.2585	1106.5974	0.137491	-492.305998	-492.297435	-492.296491	-492.339778	32.032	
O	-1.0481163733	 0.4816988362	 0.3072745473	-0.442764
C	 0.0666523737	-0.3423768603	-0.0160494661	 0.0072
C	-0.3775975353	-1.3181188478	-1.0979536789	-0.195141
N	-0.4051826421	-0.6858223284	-2.4117266842	-0.266294
C	 0.8799803708	-0.2579022788	-2.8168935553	 0.153342
N	 0.846645313	 0.5222571424	-3.9978429453	-0.495107
H	 0.3295234536	 1.3837368092	-3.8457878005	 0.238771
H	 1.7880005169	 0.7817137679	-4.2706035806	 0.252587
C	 1.2040541423	 0.5871955854	-0.4720762061	 0.376855
O	 1.6122315399	 0.5462977412	-1.7423018804	-0.269466
O	 1.6743172742	 1.3798797925	 0.30928653	-0.354134
H	-0.7001463543	 1.2102527177	 0.8373801844	 0.298126
H	 0.4270752818	-0.8800232945	 0.8733459718	 0.095124
H	 0.3120915951	-2.1690767305	-1.1408386358	 0.117162
H	-1.3705259785	-1.7043407737	-0.8550308825	 0.129814
H	-1.0749131848	 0.0779989135	-2.4256543892	 0.235511
H	 1.5363683768	-1.1216278618	-2.9573663087	 0.118415
45.9352	82.204	224.4404	251.9475	272.4586	341.642	366.352	421.7523	469.8124	486.0916	530.5902	603.1554	656.6784	691.2202	767.7945	842.327	867.5009	895.3769	911.1145	984.8917	1031.0511	1105.8458	1125.2365	1193.6378	1223.8842	1244.5679	1270.7352	1336.8431	1354.4506	1377.211	1391.7819	1424.7275	1447.3377	1479.7616	1515.5624	1672.965	1806.207	2996.4649	3048.492	3078.4761	3108.4115	3508.9348	3522.0564	3595.4113	3778.0824
OC(CNC=[NH2+])C([O-])=O	O[C@H]1CN[C@@H](N)OC1=O	
InChI=1S/C4H8N2O3/c5-2-6-1-3(7)4(8)9/h2-3,7H,1H2,(H2,5,6)(H,8,9)	InChI=1S/C4H8N2O3/c5-4-6-1-2(7)3(8)9-4/h2,4,6-7H,1,5H2/t2-,4+/m0/s1
