16
gdb 84200	3.29728	1.19004	0.92055	0.5421	74.94	-0.2446	-0.0857	0.1589	1230.3335	0.124495	-434.106512	-434.09807	-434.097126	-434.139885	30.697	
C	-0.3610947693	 1.4481517314	 0.0191919884	-0.381035
C	-0.0794093654	-0.0545763839	 0.0871168299	-0.047021
N	 0.4962592146	-0.5672759609	-1.1707675821	-0.280448
C	 1.6025718321	-1.1267382082	-0.8447125483	 0.26854
N	 1.9258045141	-1.1079633225	 0.4997630402	-0.382334
C	 0.9223208747	-0.4274313135	 1.1902674628	 0.385444
N	 0.804422705	-0.1442239873	 2.4205635313	-0.549178
C	 2.5165172646	-1.7703818019	-1.8191967908	 0.113847
O	 3.5555470381	-2.287114205	-1.4843812181	-0.264146
H	 0.554156072	 2.0015515104	-0.2095978263	 0.12386
H	-1.0986200322	 1.6607821704	-0.7580671404	 0.130535
H	-0.7386842924	 1.7869685507	 0.986725937	 0.147564
H	-1.0236341216	-0.5839500609	 0.2672225759	 0.129769
H	 2.7816827104	-1.48448793	 0.8739481431	 0.272117
H	 1.5905049784	-0.4863652277	 2.9748599366	 0.213386
H	 2.1611252567	-1.7298753813	-2.8653592493	 0.119099
86.5148	108.0932	170.3718	219.1423	224.7437	245.0856	409.1175	432.4348	456.7022	530.2986	625.0833	670.1205	683.3265	756.0017	808.8788	859.3545	912.713	998.7694	1032.0062	1044.1285	1084.791	1115.4687	1121.1476	1232.0231	1273.7857	1296.2935	1327.7805	1383.1702	1398.4566	1470.2035	1486.8608	1495.6018	1671.8925	1764.7495	1802.0011	2977.0268	3033.8445	3050.587	3126.5421	3141.0504	3464.1983	3656.7561
CC1N=C(NC1=N)C=O	C[C@H]1N=C(N[C]1[NH])C=O	
InChI=1S/C5H7N3O/c1-3-5(6)8-4(2-9)7-3/h2-3H,1H3,(H2,6,7,8)	InChI=1S/C5H7N3O/c1-3-5(6)8-4(2-9)7-3/h2-3H,1H3,(H2,6,7,8)/t3-/m1/s1
