18
gdb 87111	2.5006	1.25582	1.03034	0.8126	75.13	-0.2581	-0.0991	0.159	1222.4782	0.144647	-439.085464	-439.075633	-439.074688	-439.12074	34.607	
C	-0.2525531792	 1.5159086591	 0.642820956	-0.404648
C	-0.1352434911	 0.0394303376	 0.3593678723	-0.001201
N	 0.9888647658	-0.4346626837	-0.4347394991	-0.356574
C	 0.9338233064	-0.8423820977	 0.981534946	 0.184295
C	 2.0102917219	-0.2927036239	 1.8966280001	-0.477095
C	 0.4477825948	-2.2409241581	 1.1922964816	 0.239775
O	-0.0113814399	-2.9203822447	 0.293539833	-0.310314
C	 0.4376770774	-2.8872316158	 2.5865866822	 0.093898
O	 0.6291399834	-2.3142418191	 3.6253497075	-0.223231
H	 0.7250230299	 1.9830696656	 0.7706797822	 0.133378
H	-0.7523899037	 2.0122363923	-0.1960914979	 0.131269
H	-0.8499301404	 1.693771008	 1.5428450427	 0.12609
H	-1.0865611958	-0.4649521938	 0.1929557112	 0.100575
H	 0.6928999767	-1.2298239114	-1.0013837625	 0.24586
H	 2.3756852795	 0.6561911758	 1.5028466392	 0.133992
H	 1.6416636246	-0.1522561483	 2.9134071941	 0.147819
H	 2.864765311	-0.976188568	 1.9412242051	 0.122922
H	 0.1702336286	-3.9632077838	 2.5238675862	 0.11319
45.314	105.5943	122.3395	156.8121	167.7267	225.2324	254.0412	283.2453	368.0028	389.0739	476.1064	514.5954	590.3248	640.8822	683.7689	775.2355	825.0568	936.1949	989.2402	1016.5078	1052.3449	1086.0863	1098.0843	1106.406	1134.2354	1196.8248	1269.9695	1300.9082	1349.8665	1378.3396	1407.2152	1419.0711	1448.992	1479.3968	1488.383	1494.2553	1509.1667	1754.2876	1826.8763	2924.6344	3041.6102	3052.1974	3101.238	3113.3864	3122.1429	3145.1614	3159.6576	3466.7082
CC1NC1(C)C(=O)C=O	C[C@H]1N[C@]1(C)C(=O)C=O	
InChI=1S/C6H9NO2/c1-4-6(2,7-4)5(9)3-8/h3-4,7H,1-2H3	InChI=1S/C6H9NO2/c1-4-6(2,7-4)5(9)3-8/h3-4,7H,1-2H3/t4-,6+/m1/s1
