16
gdb 67387	2.85518	1.70788	1.50752	5.2743	68.02	-0.2723	0.0088	0.2811	932.8858	0.125216	-437.889195	-437.882177	-437.881232	-437.920525	27.498	
C	-0.0404873655	 1.5167822361	-0.030706787	-0.521959
C	 0.0535839727	 0.025945287	 0.0063883615	 0.330056
C	 0.4863529517	-1.0219433656	-0.9621636328	-0.103674
C	 1.2519503886	-1.7901824597	 0.1181812917	-0.261575
C	 0.4880308649	-0.9258616156	 1.1617707872	 0.014821
O	-0.7079157937	-1.6133403029	 1.5414892238	-0.230176
C	-1.4819253224	-1.7069181413	 0.4131697725	 0.449854
O	-2.4531080797	-2.3894679918	 0.3332352704	-0.337487
N	-0.9640261173	-0.8325076314	-0.6053095362	-0.226781
H	 0.9318127626	 1.9761573307	 0.174457744	 0.128623
H	-0.380842064	 1.8476619725	-1.0152646365	 0.146738
H	-0.7536371756	 1.8805850602	 0.7167444333	 0.140409
H	 0.7146540513	-0.9527387853	-2.0185806959	 0.117639
H	 1.1233874823	-2.8729718266	 0.198912011	 0.125279
H	 2.3155080544	-1.5399059224	 0.0833804369	 0.121274
H	 0.9931971098	-0.5612873039	 2.0523894361	 0.10696
136.6907	189.4441	207.7371	274.7907	396.3267	437.6523	527.7156	600.8289	680.0028	696.9652	707.5132	830.4687	848.6714	886.7384	890.7827	917.5257	936.8152	971.4069	1022.5414	1057.4181	1088.053	1105.458	1122.0287	1150.7331	1172.6362	1197.8644	1265.0454	1275.4155	1342.2523	1406.2602	1448.8632	1482.1553	1486.7529	1490.7468	1910.2502	3037.7161	3060.2052	3102.2005	3118.9285	3124.252	3160.0834	3197.3163
CC12C3CC1OC(=O)N23	C[C@@]12[C@H]3C[C@@H]1OC(=O)N23	
InChI=1S/C6H7NO2/c1-6-3-2-4(6)9-5(8)7(3)6/h3-4H,2H2,1H3	InChI=1S/C6H7NO2/c1-6-3-2-4(6)9-5(8)7(3)6/h3-4H,2H2,1H3/t3-,4+,6-,7?/m1/s1
