18
gdb 83716	2.73144	1.64466	1.1783	3.618	72.57	-0.2427	0.0296	0.2724	1055.6762	0.149037	-439.113737	-439.105764	-439.10482	-439.146554	29.64	
C	-0.0135755955	 1.4619479801	 0.1281697699	-0.352055
N	-0.0065964784	 0.0204684514	 0.0232541116	-0.060683
C	-1.2137831737	-0.7562172734	-0.0891224311	-0.062651
C	-1.8020893651	-0.8899879354	-1.512170048	-0.087215
O	-1.1301977488	-2.1533207558	-1.7044598242	-0.28858
C	-0.71363924	-2.205654397	-0.320068652	 0.109908
C	 0.7949621056	-2.1889836496	-0.1389511029	-0.362116
C	 1.1636480031	-0.7050320352	-0.0369024699	 0.40459
O	 2.2793424613	-0.2342909222	 0.0061080613	-0.383513
H	 1.0251960693	 1.7896295525	 0.1953811793	 0.169334
H	-0.4801546376	 1.9268013707	-0.7490316042	 0.124959
H	-0.5580884746	 1.7889794405	 1.0225030318	 0.123439
H	-1.9185748411	-0.5469487404	 0.7210539821	 0.086846
H	-2.8940086481	-1.0000858604	-1.5403015514	 0.102737
H	-1.4892861979	-0.135823771	-2.2427468322	 0.111621
H	-1.2302931255	-3.0019690707	 0.2239915998	 0.084469
H	 1.1215192569	-2.7014313477	 0.7715705969	 0.130023
H	 1.3074619401	-2.6489849763	-0.9868822068	 0.148888
97.9205	118.5722	154.9653	169.848	293.0593	360.8222	398.1395	484.9945	581.0936	613.6644	669.4276	743.7616	816.5187	872.7488	907.5274	924.1107	1003.9914	1018.4623	1033.6387	1064.7546	1073.3669	1126.103	1155.1181	1164.3553	1180.6445	1217.3961	1260.9881	1292.4724	1301.3709	1342.6036	1349.4087	1358.8522	1417.8902	1445.3603	1452.5788	1494.6954	1513.5653	1517.5452	1811.2979	3012.7138	3015.8871	3052.9455	3060.7043	3065.1919	3070.4229	3073.4832	3120.7531	3143.7449
CN1C2COC2CC1=O	CN1[C@H]2CO[C@H]2CC1=O	
InChI=1S/C6H9NO2/c1-7-4-3-9-5(4)2-6(7)8/h4-5H,2-3H2,1H3	InChI=1S/C6H9NO2/c1-7-4-3-9-5(4)2-6(7)8/h4-5H,2-3H2,1H3/t4-,5-/m0/s1
