25
gdb 85902	2.49468	1.35151	1.1838	0.2135	91.62	-0.2606	0.0823	0.3429	1242.5366	0.229414	-352.373731	-352.364318	-352.363374	-352.406843	38.122	
C	 0.0091211177	 1.6006309354	 0.0158097456	-0.399342
C	 0.0425085276	 0.0705196932	 0.0301107313	 0.025258
C	 0.7727737346	-0.5529695206	-1.1845128384	-0.26839
C	 1.2717915823	-1.9551711864	-0.7336729152	 0.296852
C	 0.1669813601	-3.0088310632	-0.9370254531	-0.42103
C	 2.5382675272	-2.3855851544	-1.4858897818	-0.427264
C	 1.5047276281	-1.7688823162	 0.770412419	-0.037446
C	 2.2584654131	-0.5466080478	 1.2341231137	-0.316697
C	 0.7477853949	-0.5471416289	 1.2350678298	-0.034913
H	 1.0233186196	 2.0146086375	 0.0388719674	 0.112451
H	-0.4875127055	 1.9790980759	-0.8843884368	 0.108384
H	-0.5306021235	 1.9946181826	 0.883666863	 0.108652
H	-0.9948365412	-0.2914250351	 0.0384977244	 0.070115
H	 0.1304384042	-0.6117840661	-2.0688207564	 0.089852
H	 1.6262951502	 0.0757607844	-1.4645024233	 0.090309
H	-0.0588490393	-3.1393742582	-2.0012074043	 0.106186
H	 0.4765805107	-3.9824948949	-0.5408103604	 0.107221
H	-0.7585668445	-2.723083013	-0.4272990253	 0.112871
H	 3.3568195306	-1.6774908121	-1.3218107051	 0.108904
H	 2.8787439163	-3.3724830389	-1.1524416496	 0.106225
H	 2.3562917208	-2.4464594658	-2.5651309108	 0.106191
H	 1.5589767384	-2.6633133972	 1.3838949149	 0.070736
H	 2.7530954805	-0.6088205971	 2.1974044107	 0.105467
H	 2.7934687897	 0.0599721406	 0.5102944612	 0.106103
H	 0.2381260475	-0.5287379536	 2.1930552696	 0.073306
128.4238	177.1768	220.9905	225.0036	239.3427	263.3218	289.3503	327.499	367.7429	406.4255	466.0954	492.6866	574.543	601.5811	736.9168	790.0309	833.5134	854.5539	893.8033	916.6257	941.7647	946.0496	972.7449	977.227	1016.3299	1017.9798	1056.6791	1065.6234	1072.6455	1093.1519	1111.873	1142.7413	1187.1568	1203.4758	1223.819	1248.0165	1258.3083	1305.3393	1337.324	1348.7236	1377.2266	1389.4258	1399.5142	1412.4649	1421.3371	1481.9456	1485.0293	1488.4697	1496.0952	1499.1999	1503.647	1507.7599	1509.4126	3005.5486	3021.12	3025.6863	3026.22	3034.7581	3077.3903	3084.4548	3091.0393	3093.0439	3096.4859	3098.5675	3101.0734	3127.8353	3146.5643	3159.1218	3208.2339
CC1CC(C)(C)C2CC12	C[C@H]1CC(C)(C)[C@H]2C[C@@H]12	
InChI=1S/C9H16/c1-6-5-9(2,3)8-4-7(6)8/h6-8H,4-5H2,1-3H3	InChI=1S/C9H16/c1-6-5-9(2,3)8-4-7(6)8/h6-8H,4-5H2,1-3H3/t6-,7-,8-/m0/s1
