19
gdb 56231	4.9445	0.65163	0.58565	5.267	74.52	-0.2199	-0.0108	0.2091	1858.5919	0.15634	-456.386681	-456.37594	-456.374996	-456.424041	36.847	
C	 0.0589239368	 1.4500842488	 0.0610583185	-0.476112
C	-0.0239839921	-0.0630846747	 0.036021457	 0.382541
O	-0.1163158621	-0.7263165561	 1.042160084	-0.289429
C	 0.0356166141	-0.7190165262	-1.3398423443	-0.229989
N	-0.395105002	-2.0896194052	-1.2839679989	-0.298465
C	 0.0820930381	-2.9389336276	-2.3458054173	-0.234246
C	 0.032071575	-4.3995748169	-1.890097437	 0.406583
N	-0.0368858472	-5.316322972	-2.8963595306	-0.521583
O	 0.1071319484	-4.7092725291	-0.7176785902	-0.350414
H	 0.8144847375	 1.820144117	-0.6396466429	 0.13339
H	-0.9043065246	 1.8688539855	-0.2542881902	 0.148502
H	 0.2800206518	 1.7944456231	 1.0719648581	 0.146339
H	-0.5689325199	-0.130186152	-2.0465696886	 0.109801
H	 1.0860484331	-0.5932808738	-1.6853019514	 0.097518
H	-0.1702917297	-2.500687417	-0.3812720435	 0.252505
H	-0.5120648023	-2.8025523863	-3.2614422002	 0.097195
H	 1.1351185548	-2.7359429429	-2.6329127085	 0.102813
H	-0.2539623175	-5.0513847048	-3.8410796511	 0.259479
H	-0.0990638722	-6.2894424999	-2.644510373	 0.263571
43.4173	53.0312	79.0894	109.7999	120.7328	194.7382	215.2692	242.5118	291.5452	401.2458	454.2959	481.9162	515.7238	595.688	620.4951	682.9261	765.647	809.3904	864.2301	901.3492	962.3784	1009.6001	1082.3436	1088.8115	1157.4236	1192.5204	1212.6325	1229.7194	1255.2309	1295.9086	1350.9151	1383.2225	1417.2665	1463.426	1475.3688	1478.212	1495.7573	1508.2264	1618.9864	1804.8655	1818.777	2860.8176	2885.3821	2997.2871	3000.429	3036.9276	3098.7787	3152.8125	3511.1515	3601.3212	3735.7456
CC(=O)CNCC(N)=O	CC(=O)CNCC(=O)N	
InChI=1S/C5H10N2O2/c1-4(8)2-7-3-5(6)9/h7H,2-3H2,1H3,(H2,6,9)	InChI=1S/C5H10N2O2/c1-4(8)2-7-3-5(6)9/h7H,2-3H2,1H3,(H2,6,9)
