26
gdb 123017	4.98601	0.51205	0.4879	1.1028	94.95	-0.2192	0.0898	0.3091	2390.445	0.238991	-369.594946	-369.583646	-369.582701	-369.632606	40.576	
C	 0.1934664557	 1.5480941876	 0.1250262342	-0.379511
C	 0.056770224	 0.0265929779	 0.2255222284	-0.161808
C	-1.3550312213	-0.4763683961	-0.0953685687	-0.160788
C	-1.4947804874	-1.9980535348	 0.0059128562	-0.173416
C	-2.9067342921	-2.4946589023	-0.3113236491	-0.144615
N	-2.9582562132	-3.9507998115	-0.2360825222	-0.079883
C	-3.3463060336	-4.5541700013	 1.0353851617	-0.254096
C	-4.2460705041	-4.6422142757	-0.1507113377	 0.031446
C	-5.5815594122	-3.9301773237	-0.1854457223	-0.411169
H	 1.2113269997	 1.8753612023	 0.3595654032	 0.110056
H	-0.0451840505	 1.9017356099	-0.8843895082	 0.112532
H	-0.4867807645	 2.0537785215	 0.8196576653	 0.111783
H	 0.773546707	-0.4521471521	-0.4546050567	 0.095185
H	 0.3350733375	-0.3006808216	 1.2361080318	 0.09341
H	-2.0725508069	 0.0053602083	 0.5841447191	 0.088789
H	-1.6334436759	-0.1493552246	-1.1073328202	 0.090564
H	-0.7907254017	-2.4893856384	-0.6762718744	 0.10401
H	-1.2218678611	-2.3270118551	 1.017680148	 0.093859
H	-3.6236745882	-1.9994707184	 0.3662446245	 0.077277
H	-3.1796009882	-2.2003582988	-1.3330081953	 0.097474
H	-2.7593692819	-5.4076306623	 1.3659422428	 0.109519
H	-3.6609978939	-3.88525949	 1.8374678882	 0.100044
H	-4.2437969378	-5.5791687529	-0.7076618752	 0.086553
H	-5.6031830884	-3.0449157247	 0.4543019889	 0.120423
H	-5.8382495255	-3.6194279504	-1.2045275608	 0.121533
H	-6.3705812755	-4.6066417529	 0.1601693885	 0.120828
50.7628	53.3403	79.3948	119.5131	137.8878	168.5359	206.5236	242.875	249.3724	330.2954	355.4486	433.5006	444.4833	539.4838	735.5597	753.5658	769.0019	812.5594	858.0567	900.2116	905.5074	949.2361	983.3688	1017.2022	1031.6129	1048.9791	1065.699	1069.3302	1112.5168	1132.1559	1146.8909	1152.7074	1189.6702	1202.8106	1243.5727	1268.8773	1304.0449	1322.7603	1333.1542	1338.7296	1348.9373	1394.6206	1399.3475	1408.727	1413.338	1421.4204	1483.6234	1484.2886	1490.9822	1493.3667	1498.9661	1499.4223	1504.5767	1512.7817	1518.2539	2946.6513	2999.7283	3013.7231	3019.4541	3025.4632	3027.8662	3034.1022	3037.0915	3049.3019	3071.8114	3078.287	3091.462	3093.9859	3095.3234	3099.5904	3123.5576	3165.5033
CCCCCN1CC1C	CCCCCN1C[C@H]1C	
InChI=1S/C8H17N/c1-3-4-5-6-9-7-8(9)2/h8H,3-7H2,1-2H3	InChI=1S/C8H17N/c1-3-4-5-6-9-7-8(9)2/h8H,3-7H2,1-2H3/t8-,9?/m1/s1
