20
gdb 19012	4.39207	1.86093	1.65036	0.1669	78.38	-0.2853	0.0961	0.3814	875.2356	0.179935	-311.840885	-311.834316	-311.833372	-311.87124	27.29	
C	-0.1248360792	 1.5498531057	-0.025244893	-0.403601
C	 0.0232481525	 0.0273076363	 0.001739678	 0.01444
C	 0.9353814872	-0.554410771	-1.123446257	-0.262632
C	 1.9778036493	-1.2810989034	-0.2758953666	 0.011517
C	 1.2658990522	-1.9618289609	 0.9396157711	-0.06287
C	 2.5199294467	-1.6985175191	 1.8046916851	-0.239686
C	 2.3208220567	-0.4083238398	 0.9754760173	-0.052537
C	 0.7779859752	-0.505395796	 1.2246553893	 0.011248
H	 0.8530149519	 2.04256159	 0.0228536699	 0.112844
H	-0.6195698047	 1.884517222	-0.9432806642	 0.11115
H	-0.7193524128	 1.9078323789	 0.8226508649	 0.109184
H	-0.9761310035	-0.4230725232	-0.044473441	 0.064181
H	 0.3992228942	-1.2319243609	-1.7961606103	 0.09293
H	 1.381629926	 0.2336640913	-1.7409145385	 0.091948
H	 2.7862013654	-1.8165264828	-0.7791997223	 0.05586
H	 0.6458391473	-2.8609365923	 0.9106391533	 0.060488
H	 2.3660891402	-1.6195527386	 2.8850898248	 0.085219
H	 3.408356256	-2.2961410631	 1.5791362681	 0.085164
H	 2.9329925997	 0.495987891	 0.9915166036	 0.061858
H	 0.3898226696	-0.2651412939	 2.2178104176	 0.053293
139.0756	233.7532	262.3598	362.0739	438.9667	459.4743	649.5505	692.0668	759.3143	811.7129	842.3276	872.1225	879.0884	914.5784	931.4092	943.6312	963.1019	999.2212	1004.6083	1031.9379	1057.5663	1065.0045	1088.3546	1110.1605	1132.2874	1136.1299	1171.6609	1196.346	1218.0592	1236.1618	1251.4607	1261.3367	1272.8497	1289.0895	1315.6507	1354.7269	1382.7706	1410.7323	1495.822	1499.6509	1500.7146	1518.5663	3019.8792	3024.144	3037.4827	3040.9155	3076.1591	3077.5138	3080.4692	3085.2874	3092.7988	3094.0964	3098.1336	3100.0134
CC1CC2C3CC2C13	C[C@H]1C[C@@H]2[C@H]3C[C@@H]2[C@@H]13	
InChI=1S/C8H12/c1-4-2-5-6-3-7(5)8(4)6/h4-8H,2-3H2,1H3	InChI=1S/C8H12/c1-4-2-5-6-3-7(5)8(4)6/h4-8H,2-3H2,1H3/t4-,5-,6-,7+,8+/m0/s1
