19
gdb 127119	3.90293	1.11334	0.88506	1.0529	81.45	-0.1933	0.0109	0.2042	1332.6124	0.159826	-415.385813	-415.376235	-415.37529	-415.421133	33.218	
C	-0.0794400558	 1.3700896192	 0.0350737539	-0.333641
N	 0.2125809066	-0.0494853801	-0.0096071624	-0.154227
C	-0.1816528805	-0.8205415982	 1.15770384	-0.328937
C	 0.1001211957	-0.6701236485	-1.2382947242	 0.407533
N	-0.0139772771	-1.9986169047	-1.3630874138	-0.369935
N	-0.0322900732	-2.1896825281	-2.6880306249	 0.163274
C	-0.1509269489	-3.5103712959	-3.2616201369	-0.309272
N	 0.0437527754	-1.0981189306	-3.4267408667	-0.226182
C	 0.1255821777	-0.1080542947	-2.5354874381	-0.15997
H	 0.4996134935	 1.9003462933	-0.7260707133	 0.132965
H	-1.1468772989	 1.601690355	-0.1195740448	 0.110725
H	 0.2178225465	 1.7639622667	 1.0106427474	 0.125198
H	-1.2742485033	-0.9403054634	 1.2427969146	 0.108366
H	 0.2623358279	-1.8152985148	 1.1039766708	 0.153222
H	 0.1833992913	-0.3159097319	 2.0567115836	 0.115274
H	-1.0881180361	-3.9783157656	-2.9470153609	 0.145773
H	-0.1367822869	-3.3974209328	-4.3446781125	 0.159582
H	 0.684261659	-4.1386013737	-2.9400617424	 0.1468
H	 0.1949736869	 0.9176946985	-2.8551453194	 0.113452
47.7834	66.0713	130.3765	164.717	170.8833	206.21	219.104	354.6654	379.4622	382.9052	532.6256	599.9954	655.0217	732.3313	756.5464	813.1359	958.5624	1014.3871	1037.1611	1083.5822	1089.0543	1129.0164	1150.2659	1173.2816	1192.6272	1266.7807	1281.9826	1366.4648	1381.1749	1431.4436	1446.7104	1449.0077	1456.8681	1474.1807	1475.6621	1485.2527	1494.8867	1501.1513	1511.789	1516.5387	1609.3546	2962.8707	2973.6381	3049.9404	3074.8975	3080.7956	3111.9999	3116.1591	3142.3135	3173.1264	3280.6911
CN(C)C1=NN(C)N=C1	CN(C)c1nn(C)nc1	
InChI=1S/C5H10N4/c1-8(2)5-4-6-9(3)7-5/h4H,1-3H3	InChI=1S/C5H10N4/c1-8(2)5-4-6-9(3)7-5/h4H,1-3H3
