12
gdb 130600	3.09242	1.55054	1.03273	1.9444	72.93	-0.2569	-0.0792	0.1778	1043.5885	0.076528	-435.437957	-435.430652	-435.429708	-435.469952	27.141	
O	 0.0582670854	-0.0505896476	 0.0019097913	-0.33599
C	-0.0134295012	 1.1629034149	 0.0096169484	 0.324639
C	-1.230433547	 1.9467641585	 0.0301698667	-0.26504
C	-1.1444229752	 3.2882047444	 0.0362517821	 0.109928
O	 0.0056167454	 3.9808999917	 0.0245097222	-0.218124
N	 1.226753821	 3.3323057107	 0.0044399464	-0.120375
C	 1.2144735101	 2.0315271814	-0.0026222866	 0.020064
C	 2.4878270889	 1.3982384214	-0.0224740383	 0.315572
C	 3.5473072179	 0.8306744961	-0.0391683324	-0.343722
H	-2.1915925514	 1.4496089994	 0.0404164726	 0.140399
H	-1.9888377946	 3.9686540801	 0.0513013645	 0.159024
H	 4.4839913906	 0.329144299	-0.0537292069	 0.213625
91.7891	140.5015	199.3971	365.8856	378.9089	434.2327	450.9172	548.7086	575.3217	586.588	660.2753	667.5395	686.7649	790.9387	865.7953	886.9016	924.5991	977.0938	1027.7923	1168.0569	1259.4453	1323.3707	1429.4999	1555.7567	1652.3676	1773.0219	2238.768	3202.6923	3229.0399	3499.9799
O=C1C=CON=C1C#C	O=c1cconc1C#C	
InChI=1S/C6H3NO2/c1-2-5-6(8)3-4-9-7-5/h1,3-4H	InChI=1S/C6H3NO2/c1-2-5-6(8)3-4-9-7-5/h1,3-4H
