19
gdb 87264	4.76346	0.67897	0.65437	4.0591	73.4	-0.243	-0.016	0.227	1693.9168	0.155717	-460.148143	-460.138178	-460.137234	-460.183882	35.968	
O	-0.0837722981	 1.3677452543	 0.0071111368	-0.430447
C	-0.015113822	-0.0320497219	 0.0776792726	 0.000867
C	-0.6143320033	-0.7455984181	 1.2742078096	-0.386809
C	-1.3490899166	-0.7123705615	-0.0560718258	 0.444885
O	-2.4581635907	 0.1309299644	-0.1590586085	-0.482316
C	-1.5093126806	-1.9668102773	-0.8818621555	-0.262544
C	-2.7269355269	-2.7991666108	-0.4359780924	-0.268876
C	-2.9939921694	-3.9513546378	-1.3727736054	 0.155442
O	-3.0574198218	-5.1098499488	-1.0499770896	-0.240509
H	 0.3870912387	 1.7397148825	 0.7597930822	 0.29811
H	 0.8572858069	-0.4672655275	-0.4074135318	 0.09705
H	-0.1447183799	-1.6649360914	 1.6086285114	 0.117837
H	-1.0302352307	-0.1242212043	 2.0605922446	 0.117139
H	-2.1079777022	 1.0330091792	-0.1861825446	 0.292162
H	-1.6265993493	-1.6779863878	-1.9341750424	 0.110508
H	-0.5973868642	-2.570407846	-0.8104936523	 0.106754
H	-2.5998496709	-3.1877852177	 0.5782130818	 0.119047
H	-3.60749925	-2.1430430601	-0.448079023	 0.143119
H	-3.132382719	-3.6484548795	-2.4386400476	 0.068579
50.7569	68.2813	97.4474	133.9444	240.9257	254.9484	282.6772	302.4243	363.4229	407.8841	449.3999	482.2762	520.5267	642.6928	723.498	772.2474	832.2231	863.24	883.7614	932.9662	997.4239	1009.6673	1042.8512	1060.8662	1091.4805	1114.3339	1162.3017	1192.3989	1227.9635	1260.9315	1275.3819	1295.0026	1346.4276	1361.6866	1394.1517	1426.1731	1433.4083	1463.5901	1480.7198	1489.8309	1835.8074	2844.5764	3024.341	3034.0356	3070.6387	3107.1358	3112.5902	3126.693	3220.412	3730.4766	3813.0339
OC1CC1(O)CCC=O	O[C@H]1C[C@]1(O)CCC=O	
InChI=1S/C6H10O3/c7-3-1-2-6(9)4-5(6)8/h3,5,8-9H,1-2,4H2	InChI=1S/C6H10O3/c7-3-1-2-6(9)4-5(6)8/h3,5,8-9H,1-2,4H2/t5-,6+/m0/s1
