25
gdb 118070	3.15743	0.76516	0.65045	2.1767	86.74	-0.247	0.0769	0.324	1812.5021	0.225315	-426.623655	-426.611627	-426.610683	-426.661721	42.605	
C	 0.0217818568	 1.5263867325	 0.1502046945	-0.383916
C	 0.0834775666	 0.0150803409	-0.0020000678	-0.038007
O	 0.6714036835	-0.5242290289	 1.1639937029	-0.259102
C	 0.7540416635	-1.9462501604	 1.2061781978	 0.142847
C	 1.9819379908	-2.4281289834	 0.4254487149	-0.412033
C	 0.7625281093	-2.3337135138	 2.6973934788	 0.02712
C	-0.5119180376	-1.8488667258	 3.4009258056	-0.399075
C	 0.9543789406	-3.8396017154	 2.897015266	-0.08872
O	 0.9595270922	-4.1030888455	 4.293894627	-0.421527
H	 1.0263999583	 1.9397718005	 0.2771143371	 0.125846
H	-0.4319827382	 1.9811946472	-0.7355668738	 0.112124
H	-0.573098699	 1.8000472531	 1.0262580411	 0.126138
H	-0.9286010759	-0.4006811057	-0.1423843113	 0.084866
H	 0.6651778482	-0.2483102284	-0.9000941108	 0.084953
H	-0.1545604768	-2.3694509306	 0.7423033084	 0.058343
H	 2.9030119702	-2.1134256757	 0.9267395633	 0.122549
H	 1.9952486069	-3.5170845422	 0.3232212103	 0.115188
H	 1.9856807531	-2.008679591	-0.5846336997	 0.115287
H	 1.6259709099	-1.8303155707	 3.1533211959	 0.086854
H	-1.3989846483	-2.3372917403	 2.977211507	 0.097258
H	-0.4755609044	-2.089213617	 4.4646680164	 0.130011
H	-0.6263263322	-0.7708422038	 3.2782164425	 0.122537
H	 0.1357387738	-4.3848559671	 2.3950663911	 0.079071
H	 1.8984970579	-4.170910954	 2.442500232	 0.08611
H	 1.0827433811	-5.0481776746	 4.4187873807	 0.285279
45.9833	54.8779	88.2891	96.8876	160.9343	206.5853	226.5137	241.7845	251.4528	255.1784	294.5351	335.4265	353.7068	390.236	459.4001	526.0522	550.4524	818.5138	827.0693	853.683	912.5026	927.8915	960.3438	985.6224	1046.5034	1065.4337	1094.9783	1122.4566	1141.8065	1150.6117	1171.108	1187.033	1197.5978	1251.2223	1268.4857	1296.6576	1308.6878	1352.7943	1363.1916	1387.4735	1395.0633	1402.6997	1407.9114	1437.5615	1457.2062	1483.186	1490.3821	1496.4755	1498.8312	1500.2471	1501.9101	1522.9866	1530.611	2941.6503	2949.5018	2960.1413	2985.4703	3006.7583	3023.6142	3033.6564	3040.9768	3043.8967	3111.1185	3113.0476	3114.1169	3117.9881	3120.7004	3149.3181	3834.8653
CCOC(C)C(C)CO	CCO[C@@H](C)[C@@H](C)CO	
InChI=1S/C7H16O2/c1-4-9-7(3)6(2)5-8/h6-8H,4-5H2,1-3H3	InChI=1S/C7H16O2/c1-4-9-7(3)6(2)5-8/h6-8H,4-5H2,1-3H3/t6-,7-/m0/s1
