23
gdb 115917	3.43177	1.05414	0.8926	1.7912	84.94	-0.2563	0.0824	0.3387	1390.1584	0.207472	-388.300624	-388.291821	-388.290877	-388.334165	34.337	
C	 0.1773272917	 1.541544391	 0.0224418989	-0.393499
C	 0.0102675163	 0.0199176351	-0.0406373033	-0.181532
C	-1.4463545592	-0.4728967884	-0.0154398013	 0.048355
C	-2.2389809893	-0.096267095	-1.277923394	-0.206519
C	-3.7256262221	-0.4519717613	-1.1313801856	-0.247604
C	-3.9282367432	-1.8895292223	-0.7111718238	 0.071592
O	-3.171766096	-2.8676455929	-1.4300106291	-0.258488
C	-2.8429446645	-2.6344727967	-0.0510053937	 0.031083
C	-1.4909263833	-1.9978122299	 0.2175962606	-0.236907
H	 1.2362062408	 1.8169408148	 0.051906545	 0.112837
H	-0.2650425543	 2.0406062159	-0.845211023	 0.119757
H	-0.297222409	 1.9541830966	 0.9200188654	 0.112486
H	 0.5007015402	-0.3689651914	-0.9436656669	 0.095572
H	 0.5432994523	-0.4297405621	 0.8075255003	 0.09039
H	-1.947110071	 0.0075652243	 0.8400027758	 0.062719
H	-2.1474757638	 0.9741363626	-1.4855973397	 0.092061
H	-1.8221709599	-0.6288362246	-2.1409629892	 0.110447
H	-4.194550654	 0.1940373636	-0.3763638748	 0.098834
H	-4.259670828	-0.2698333212	-2.0720445854	 0.10358
H	-4.959161356	-2.1856125989	-0.5091062609	 0.081677
H	-3.1135027472	-3.4672842128	 0.5990982886	 0.086192
H	-0.7548564887	-2.4922767155	-0.4304639729	 0.111206
H	-1.1898685218	-2.218128681	 1.2485383289	 0.095764
72.6095	108.3081	186.193	220.7217	251.8818	327.7438	341.7126	387.1462	436.5674	458.8591	549.9779	662.3526	758.3518	780.49	805.449	826.0557	889.561	904.5488	936.5905	952.223	1003.2212	1014.629	1044.2004	1048.9627	1082.134	1091.6154	1119.0792	1165.5483	1178.1996	1198.3173	1248.634	1273.3251	1291.8401	1305.4003	1313.6297	1346.2164	1367.1189	1376.2714	1381.5548	1395.2229	1404.066	1413.9149	1463.9332	1474.9491	1484.2989	1489.572	1492.7118	1500.5519	1508.986	2976.1984	3009.27	3015.7675	3019.8278	3032.5756	3038.5807	3042.2834	3056.235	3060.8698	3085.1939	3088.9138	3097.7902	3104.0992	3106.7419
CCC1CCC2OC2C1	CC[C@H]1CC[C@H]2O[C@H]2C1	
InChI=1S/C8H14O/c1-2-6-3-4-7-8(5-6)9-7/h6-8H,2-5H2,1H3	InChI=1S/C8H14O/c1-2-6-3-4-7-8(5-6)9-7/h6-8H,2-5H2,1H3/t6-,7+,8-/m0/s1
