19
gdb 35031	3.10155	1.42278	1.38173	1.2207	79.79	-0.2392	0.0479	0.2871	1027.7216	0.161383	-385.869584	-385.862099	-385.861154	-385.901242	30.376	
C	-0.0680727357	-1.2135281273	-0.1105068244	-0.44654
C	-0.0290315509	-0.014130941	-0.0280492397	 0.31177
C	 0.0186437484	 1.4324864775	 0.0587278606	-0.200295
C	-0.3246739399	 2.0551550078	 1.4460096323	-0.047809
C	 0.8134914767	 1.5099072203	 2.3393065862	-0.218113
C	 2.0490823452	 1.5473312061	 1.3819814266	-0.221214
C	 1.4298708499	 2.0811102652	 0.0780975689	 0.107884
O	 1.1221145354	 3.4674447205	 0.2473337469	-0.281861
C	-0.0152352508	 3.5260441332	 1.1322969012	-0.087761
H	-0.1038297314	-2.2719459988	-0.1874614961	 0.192945
H	-0.5842977291	 1.8767675912	-0.7403410434	 0.105521
H	-1.3342535462	 1.876910719	 1.8166904546	 0.076192
H	 0.9508853102	 2.1239465061	 3.2333748476	 0.098281
H	 0.5950261608	 0.4900917035	 2.6638067701	 0.112574
H	 2.8361297262	 2.2224837594	 1.7243366912	 0.107341
H	 2.4839041831	 0.5547076196	 1.2399749064	 0.11079
H	 2.034683628	 1.9699886352	-0.8217254398	 0.082697
H	-0.8439491214	 4.0335458058	 0.6213229528	 0.097906
H	 0.2406155916	 4.1005533968	 2.0311625181	 0.099694
140.6684	146.4092	192.7413	347.4817	369.4292	406.6043	491.1576	517.4982	605.5863	621.4632	637.1635	760.3071	779.9506	839.889	847.2673	878.1234	901.2566	921.2372	955.2149	973.1325	1022.2347	1041.4388	1053.6127	1065.7826	1092.0179	1151.1755	1165.3989	1197.771	1228.1512	1243.5086	1274.7263	1287.6798	1312.9315	1330.5855	1338.9526	1359.5702	1388.1657	1476.1862	1498.0312	1528.4385	2232.7587	3008.8286	3046.4631	3054.923	3061.9995	3071.2629	3103.4012	3117.6666	3123.6142	3125.6257	3503.6505
C#CC1C2CCC1OC2	C#C[C@H]1[C@H]2CC[C@@H]1OC2	
InChI=1S/C8H10O/c1-2-7-6-3-4-8(7)9-5-6/h1,6-8H,3-5H2	InChI=1S/C8H10O/c1-2-7-6-3-4-8(7)9-5-6/h1,6-8H,3-5H2/t6-,7-,8-/m0/s1
