20
gdb 83480	2.82834	1.50041	1.4423	3.2802	79.05	-0.2498	0.0358	0.2856	1033.4649	0.174248	-403.185799	-403.178269	-403.177324	-403.217432	30.59	
C	-0.1562732951	 1.5276938705	-0.0004642789	-0.437879
C	 0.0590664413	 0.0184600364	 0.031646933	 0.016281
C	 1.0827192292	-0.5767630835	-0.954669452	 0.088169
C	 2.4349700058	-0.0108528791	-0.4850977675	-0.222712
C	 2.2562498857	-0.0051079312	 1.0657336545	-0.229068
C	 0.8198716453	-0.5833577706	 1.2442676217	-0.109296
C	 0.9036080966	-2.0203785635	 0.7847129693	 0.426003
N	 0.8587279059	-3.0656344296	 1.4890452488	-0.568899
O	 1.0679505525	-1.9828349804	-0.5830340721	-0.262388
H	 0.7681752806	 2.0941883146	 0.1373776591	 0.123086
H	-0.5933554759	 1.8339988077	-0.9569347715	 0.121675
H	-0.8505227748	 1.830696998	 0.7896464898	 0.126514
H	-0.9039528809	-0.4860495343	-0.1027180918	 0.089574
H	 0.8686139444	-0.5094104852	-2.0210160815	 0.082311
H	 3.2511681489	-0.6552732786	-0.8175313277	 0.11653
H	 2.6117839351	 0.9897564332	-0.8890232181	 0.104757
H	 2.9973168256	-0.6188940852	 1.5812636285	 0.122526
H	 2.3196544661	 1.0041246609	 1.4794457616	 0.105564
H	 0.3880118311	-0.4695888578	 2.2360763071	 0.089138
H	 0.9629638426	-3.8959095926	 0.9018094777	 0.218114
141.7972	182.239	249.3066	264.9256	280.0353	409.458	442.7872	515.7807	588.4509	674.7701	732.3182	769.1558	806.8902	851.033	871.611	890.0902	900.1507	922.0905	947.	970.2263	987.0608	1034.5624	1056.9456	1062.0226	1105.2055	1124.7585	1155.9195	1190.645	1218.6972	1248.0246	1259.0031	1284.2016	1297.6028	1328.681	1344.4271	1360.8912	1399.4277	1415.528	1479.0371	1496.7405	1504.481	1511.3505	1790.0116	3039.5673	3051.8138	3065.4656	3074.3936	3100.1146	3108.4844	3118.6504	3126.4485	3126.8996	3147.8849	3460.8395
CC1C2CCC1C(=N)O2	C[C@H]1[C@H]2CC[C@@H]1[C]([NH])O2	
InChI=1S/C7H11NO/c1-4-5-2-3-6(4)9-7(5)8/h4-6,8H,2-3H2,1H3	InChI=1S/C7H11NO/c1-4-5-2-3-6(4)9-7(5)8/h4-6,8H,2-3H2,1H3/t4-,5+,6-/m1/s1
