18
gdb 9484	2.94646	1.69132	1.48481	1.0306	74.23	-0.2545	0.0366	0.291	957.6928	0.15145	-347.76143	-347.752705	-347.751761	-347.794084	33.079	
C	-0.0097906832	 1.5821944465	-0.0141699137	-0.411433
C	 0.0768033676	 0.0662152804	-0.0152634293	 0.023766
C	 1.0980016337	-0.6587947704	-0.9350786833	-0.24617
C	 1.3548652928	-1.6764003667	 0.2062705224	-0.262981
C	 0.7393483004	-0.6494261553	 1.2131754317	 0.208355
O	 1.7299102913	 0.220622333	 1.7494938208	-0.464772
C	-0.1320629187	-1.1670072789	 2.2595458313	 0.27186
C	-0.8348782795	-1.6110705681	 3.1293647646	-0.459078
H	 0.9672757332	 2.0293677863	 0.1825734986	 0.133524
H	-0.3669505019	 1.9430113586	-0.9850238744	 0.109505
H	-0.7049170028	 1.9392717527	 0.7529161165	 0.119937
H	-0.9153728138	-0.3731065512	-0.1580756025	 0.083161
H	 0.7246653786	-1.0515663936	-1.8829125739	 0.096373
H	 1.9748635621	-0.0364034067	-1.1301011339	 0.11133
H	 0.7377241312	-2.5734595918	 0.1174520866	 0.110011
H	 2.3875724235	-1.9646056469	 0.4159907398	 0.098985
H	 2.1643588788	-0.2452488021	 2.4721145056	 0.282936
H	-1.4621832633	-1.9959134858	 3.895098203	 0.194689
99.2918	137.89	182.23	214.6269	251.8552	278.984	331.6793	381.5441	468.4941	522.5623	552.8665	604.1065	624.1356	657.3019	701.3423	779.3623	890.4618	908.5183	942.6912	960.4795	986.5876	1040.5611	1120.0029	1128.5799	1166.0579	1191.625	1223.5039	1257.1452	1268.2385	1299.3928	1341.0554	1380.7809	1405.5068	1467.2892	1489.1174	1492.73	1499.373	2225.8043	3034.9103	3057.8681	3064.2463	3069.0514	3096.6701	3114.0826	3126.6106	3131.3735	3500.5799	3809.7794
CC1CCC1(O)C#C	C[C@H]1CC[C@]1(O)C#C	
InChI=1S/C7H10O/c1-3-7(8)5-4-6(7)2/h1,6,8H,4-5H2,2H3	InChI=1S/C7H10O/c1-3-7(8)5-4-6(7)2/h1,6,8H,4-5H2,2H3/t6-,7+/m0/s1
