18
gdb 46587	2.67498	1.80538	1.37213	2.9345	76.31	-0.2359	-0.0183	0.2176	977.9655	0.149843	-401.926776	-401.919587	-401.918642	-401.958213	29.03	
O	-0.2575223969	 0.2725791371	 0.9058653103	-0.323658
C	-0.1176299704	 1.2361368294	 0.1932803557	 0.330224
C	-1.2410151806	 1.8553831997	-0.6966487697	-0.352726
C	-0.9601052303	 3.3850094125	-0.7256139878	-0.310861
C	 0.5204585695	 3.4719041135	-0.4021263791	 0.249861
C	 1.3507618245	 4.2374161102	 0.6483501907	-0.27191
C	 1.913926337	 2.863114391	 1.1745998931	-0.282223
C	 1.044115377	 2.155372209	 0.1261452195	 0.133364
N	 1.4395441089	 2.6857600889	-1.2019813542	-0.374892
H	-1.2368992591	 1.4013777376	-1.6941269735	 0.126753
H	-2.2051614461	 1.6071663144	-0.2495915125	 0.138463
H	-1.2283478462	 3.8553967268	-1.6777341297	 0.11142
H	-1.5386704605	 3.8871656549	 0.0563641498	 0.119178
H	 2.0767916538	 4.9469045341	 0.2460480711	 0.114274
H	 0.7223740412	 4.736819482	 1.3887090076	 0.110912
H	 2.9879230617	 2.7034728673	 1.067768366	 0.11795
H	 1.608598028	 2.6416648105	 2.1981951853	 0.123598
H	 0.9362181785	 2.1905230614	-1.9345291126	 0.240273
110.6816	192.7955	236.9604	308.4012	394.2551	469.338	518.7575	549.2376	617.8025	664.0056	711.395	730.0023	769.809	799.8945	847.3347	923.5639	948.9709	962.2171	969.2927	1007.2775	1050.05	1064.925	1103.3596	1117.4036	1167.9619	1208.8074	1226.2435	1229.4412	1246.9899	1266.6252	1293.3614	1358.3096	1364.214	1374.0527	1467.1828	1471.0164	1485.7413	1500.1442	1815.5739	3042.0565	3050.7615	3070.106	3082.7158	3083.6391	3122.3998	3124.9504	3145.7182	3507.5522
O=C1CCC23CCC12N3	O=C1CC[C@@]23CC[C@@]12N3	
InChI=1S/C7H9NO/c9-5-1-2-6-3-4-7(5,6)8-6/h8H,1-4H2	InChI=1S/C7H9NO/c9-5-1-2-6-3-4-7(5,6)8-6/h8H,1-4H2/t6-,7-/m1/s1
