21
gdb 112251	2.5747	1.06254	0.79719	2.7582	80.56	-0.2372	-0.019	0.2182	1486.5197	0.179802	-424.230838	-424.220746	-424.219802	-424.266386	36.182	
C	 0.0038796122	 1.6589962626	 0.2370219041	-0.386116
C	 0.1308443838	 0.1466665445	 0.0225852551	-0.208563
C	-1.2213076212	-0.559545093	 0.0176280959	-0.107069
C	-1.317521483	-2.103466304	-0.1193261196	 0.107456
C	-2.3941843026	-2.1527079114	 1.0167922055	-0.383046
C	-2.0016146077	-0.7022537863	 1.3340198272	 0.385318
O	-2.1347736953	 0.0002433198	 2.2962323552	-0.300972
O	-1.6995299787	-2.5114269902	-1.4026709804	-0.242537
C	-1.7985374929	-3.9124782603	-1.5405226141	-0.240232
H	 0.9882278461	 2.1361918116	 0.2596230397	 0.111021
H	-0.5742604372	 2.1231752728	-0.5697285221	 0.113128
H	-0.5048983275	 1.8725384372	 1.1807337728	 0.147255
H	 0.6395220685	-0.0617116057	-0.9268569528	 0.106774
H	 0.7579031221	-0.2854830296	 0.8127505078	 0.099007
H	-1.8870889907	-0.1218750485	-0.7396078065	 0.112806
H	-0.3866470941	-2.6032805914	 0.1903668896	 0.07424
H	-3.4048332912	-2.2079862391	 0.5972954062	 0.136133
H	-2.2936868677	-2.8801535299	 1.8249960004	 0.12574
H	-2.0788063322	-4.1173303588	-2.5762454728	 0.131409
H	-0.8399147046	-4.4094639992	-1.3251775806	 0.108162
H	-2.564518476	-4.3374543811	-0.8747363605	 0.110088
71.9981	91.6078	92.2042	155.6665	171.9557	202.0035	257.9195	284.907	315.0578	395.4451	427.7665	480.2136	604.4477	652.8193	738.2563	775.6214	819.8132	931.306	945.3055	988.8598	1020.412	1025.4777	1061.0009	1114.9281	1145.9506	1153.1067	1163.5818	1182.3057	1195.2089	1203.5638	1246.0366	1262.6347	1291.9448	1336.2789	1369.2073	1389.4442	1413.2317	1431.5664	1484.3542	1488.4714	1489.1978	1498.6722	1508.4654	1512.8557	1881.6479	2976.1707	2985.553	3019.3254	3025.4944	3026.6005	3036.4731	3054.8336	3057.2751	3101.9164	3119.0773	3123.2021	3125.1693
CCC1C(CC1=O)OC	CC[C@H]1[C@@H](CC1=O)OC	
InChI=1S/C7H12O2/c1-3-5-6(8)4-7(5)9-2/h5,7H,3-4H2,1-2H3	InChI=1S/C7H12O2/c1-3-5-6(8)4-7(5)9-2/h5,7H,3-4H2,1-2H3/t5-,7-/m1/s1
