19
gdb 74694	2.92917	1.33283	1.32676	2.9777	81.57	-0.2194	-0.0049	0.2145	1091.043	0.160395	-385.913334	-385.905547	-385.904603	-385.945364	30.885	
C	-0.0724315391	 1.4800129482	 0.0440724089	-0.481685
C	-0.0037342145	-0.0173837621	-0.0237720922	 0.314133
C	-0.0380231348	-0.715685041	-1.1643071359	-0.163187
C	 0.0678257823	-2.232848005	-1.1208061232	-0.174611
C	 1.1808432354	-2.613738051	-0.0934418028	-0.238463
C	 0.1485360898	-2.2987205824	 1.0391914979	-0.148016
C	 0.0886980197	-0.7754175579	 1.289012572	-0.298194
C	-0.9146343964	-2.6711432151	-0.0135681024	 0.437768
O	-1.986622348	-3.1989865741	 0.0182972995	-0.325113
H	 0.8123239798	 1.8945641752	 0.5448274289	 0.123937
H	-0.140416592	 1.926471278	-0.9513668387	 0.12408
H	-0.9417148004	 1.8115024076	 0.6266083757	 0.127817
H	-0.1500135354	-0.2271654731	-2.1274117605	 0.091233
H	 0.0298881232	-2.7084450103	-2.099980866	 0.081282
H	 1.4384645	-3.6746990752	-0.1289243812	 0.110628
H	 2.0820988301	-1.99815518	-0.1186851873	 0.105131
H	 0.1750209852	-2.8720718337	 1.9675450499	 0.085178
H	 0.9650129434	-0.4446666492	 1.8653506621	 0.107584
H	-0.7856031185	-0.5415496587	 1.9126996053	 0.120497
109.2944	183.2199	190.6191	277.4536	317.9159	398.8622	451.7468	473.826	481.8219	521.5196	667.2684	763.2908	795.6483	825.4564	851.5837	867.1842	916.8197	943.7153	990.5851	1015.659	1034.1558	1048.1762	1059.9911	1082.758	1111.5745	1127.5724	1187.0028	1190.4462	1214.8242	1264.1218	1273.5842	1302.6773	1328.0571	1380.6445	1414.654	1476.8346	1477.4005	1485.6225	1491.1571	1714.5598	1893.1206	2997.6151	3015.0277	3026.5026	3059.9313	3065.5188	3099.5808	3112.5817	3122.997	3130.3025	3172.7177
CC1=CC2CC(C1)C2=O	CC1=C[C@H]2C[C@@H](C1)C2=O	
InChI=1S/C8H10O/c1-5-2-6-4-7(3-5)8(6)9/h2,6-7H,3-4H2,1H3	InChI=1S/C8H10O/c1-5-2-6-4-7(3-5)8(6)9/h2,6-7H,3-4H2,1H3/t6-,7+/m0/s1
