19
gdb 71609	2.12399	1.97392	1.69733	1.7982	74.34	-0.2481	0.0683	0.3163	941.7115	0.160187	-422.995606	-422.98786	-422.986916	-423.027126	31.704	
O	 0.106861949	 1.3502282572	 0.0614908134	-0.485334
C	 0.0742323853	-0.029957641	-0.0182189986	 0.368711
C	 0.6806733595	-0.9740928104	-1.0916264544	-0.316758
C	 0.0514116184	-1.8993135626	-0.0202347461	-0.142356
C	 0.5994966398	-0.9632307202	 1.1037769004	-0.045048
C	-0.3844713981	-0.9413420599	 2.2784247844	-0.248159
C	-1.7261735976	-0.9191600218	 1.499958203	-0.304653
C	-1.1898603805	-0.9405251601	 0.0666285608	 0.374629
O	-2.1012312089	-0.8248027077	-0.9860233302	-0.498254
H	-0.4437562847	 1.7010417337	-0.6478821496	 0.288395
H	 0.2019905143	-0.9735806149	-2.0724941954	 0.101002
H	 1.7709061734	-0.9868566093	-1.1679518029	 0.088911
H	 0.0402389277	-2.9879380403	-0.0043944132	 0.07013
H	 1.6708254553	-0.9741113057	 1.3055717176	 0.069377
H	-0.2799595131	-1.8220080478	 2.9192062952	 0.095292
H	-0.2505424617	-0.0552765293	 2.9051258362	 0.109993
H	-2.3639204549	-1.7841246386	 1.7161382835	 0.085666
H	-2.3147232847	-0.0155639066	 1.6847172524	 0.106372
H	-2.7690614286	-1.5115095447	-0.8899759866	 0.282083
194.0193	208.7314	220.6073	265.1981	304.1331	341.9929	428.504	438.1623	498.5743	646.1516	674.2225	694.0688	706.4068	756.9535	838.053	863.2523	907.6263	946.788	962.685	987.4032	995.4242	1029.4872	1046.4101	1091.4585	1106.6379	1117.4795	1159.2262	1170.5767	1196.7875	1219.4508	1237.0107	1251.0028	1272.8373	1289.845	1318.9601	1321.2946	1360.3505	1417.3563	1483.7149	1505.2323	1515.8787	3035.1317	3055.703	3062.4871	3080.4875	3101.2221	3116.2694	3130.3994	3131.6789	3799.2714	3811.4777
OC12CC3C1CCC23O	O[C@@]12C[C@H]3[C@@H]1CC[C@@]23O	
InChI=1S/C7H10O2/c8-6-2-1-4-5(6)3-7(4,6)9/h4-5,8-9H,1-3H2	InChI=1S/C7H10O2/c8-6-2-1-4-5(6)3-7(4,6)9/h4-5,8-9H,1-3H2/t4-,5-,6-,7-/m0/s1
