19
gdb 38107	2.59551	2.19846	1.64112	0.147	84.27	-0.2065	0.014	0.2206	894.805	0.162817	-348.723041	-348.71661	-348.715666	-348.753179	28.368	
C	-0.0755529103	 1.4904376813	 0.0297312705	-0.426413
C	 1.3129142723	 0.8584083756	 0.0257887652	-0.026428
C	 2.3281911344	 0.380609518	 1.0075326373	-0.120323
C	 2.2715862074	-0.9081183626	 1.3827146201	-0.052162
C	 1.0288655474	-1.7621864434	 1.0962884023	-0.099394
C	-0.1481049599	-0.7856100807	 1.2865146625	-0.251868
C	 0.0536123016	 0.0000575739	-0.0119560836	 0.306022
C	 0.2006187824	-1.1007388608	-1.0239874847	-0.181753
C	 0.8273925211	-2.1084898271	-0.3983775733	-0.079144
H	-0.4981191294	 1.9007535704	 0.9422627672	 0.116628
H	-0.3218129516	 2.0587632326	-0.8624105049	 0.114455
H	 1.7620739142	 0.9808007748	-0.9622785777	 0.096043
H	 3.1864611271	 1.0005974349	 1.2585906588	 0.081737
H	 3.0697679145	-1.3458777709	 1.9757999584	 0.088165
H	 1.0098419929	-2.6432203958	 1.7415877508	 0.059109
H	-1.1185997084	-1.2935026119	 1.2694647973	 0.091458
H	-0.0640730827	-0.1856347804	 2.1946830071	 0.093314
H	-0.0284207534	-1.0303006374	-2.080402413	 0.096265
H	 1.1926848004	-3.0199126105	-0.8551400501	 0.094287
244.468	298.9971	333.8431	432.4941	456.911	493.3008	565.5434	614.0328	667.7913	716.5597	733.7646	778.4436	813.2465	842.9434	854.9585	889.7149	916.0127	923.6959	951.287	977.7129	982.9704	1004.6929	1054.6567	1080.2402	1093.0491	1101.6508	1137.5366	1163.6175	1194.1879	1233.0882	1248.3108	1292.5785	1295.075	1323.587	1364.8195	1383.3309	1427.5521	1485.3844	1492.5836	1614.6824	1649.3062	3042.2654	3071.348	3080.8019	3110.6394	3116.629	3134.9036	3169.4744	3193.9791	3200.6792	3218.9631
C1C2C=CC3CC12C=C3	C1[C@H]2C=C[C@H]3C[C@@]12C=C3	
InChI=1S/C9H10/c1-2-8-6-9(8)4-3-7(1)5-9/h1-4,7-8H,5-6H2	InChI=1S/C9H10/c1-2-8-6-9(8)4-3-7(1)5-9/h1-4,7-8H,5-6H2/t7-,8-,9+/m1/s1
