14
gdb 57824	4.11769	0.71849	0.63269	1.7515	79.74	-0.2893	-0.1177	0.1716	1645.7556	0.098166	-436.680334	-436.670909	-436.669965	-436.715594	32.38	
C	-0.087695924	 1.5508097597	-0.153297513	-0.406683
C	 0.037838875	 0.046392841	 0.1303644848	 0.047923
O	 0.6627633394	-0.1780141607	 1.3608931401	-0.430821
C	-1.3224748282	-0.64418209	 0.1178829393	 0.163269
O	-1.7291548562	-1.2486379608	 1.0893490047	-0.297284
C	-2.1017860254	-0.5685970224	-1.1020783966	 0.046444
C	-2.7509726665	-0.5160740516	-2.1216914392	 0.153916
C	-3.4832178912	-0.4566435242	-3.271879859	 0.214346
N	-4.1030283579	-0.4028115091	-4.2526037536	-0.311623
H	 0.9080694135	 1.997194221	-0.109463463	 0.147659
H	-0.5118595131	 1.738079326	-1.1436371458	 0.129295
H	-0.7143684222	 2.0302881604	 0.6038621903	 0.136268
H	 0.6223272818	-0.4143085305	-0.6863498615	 0.108269
H	 0.0603648349	-0.7346342487	 1.8785440627	 0.299023
50.3993	66.8381	112.4724	199.0617	222.3628	257.3024	313.4345	334.9997	364.8952	390.6077	452.5306	537.1306	582.2304	588.014	688.4309	772.4116	908.0911	951.0609	1046.5651	1093.8768	1166.6713	1210.2052	1276.0243	1347.9515	1399.615	1422.5917	1487.6296	1497.3563	1746.7567	2252.6742	2385.2807	2948.9449	3049.0254	3128.2628	3136.5069	3701.6188
CC(O)C(=O)C#CC#N	C[C@@H](O)C(=O)C#CC#N	
InChI=1S/C6H5NO2/c1-5(8)6(9)3-2-4-7/h5,8H,1H3	InChI=1S/C6H5NO2/c1-5(8)6(9)3-2-4-7/h5,8H,1H3/t5-/m1/s1
