17
gdb 116834	11.05162	0.3733	0.37166	1.4185	96.05	-0.238	-0.0176	0.2204	2869.6276	0.132556	-421.747985	-421.737201	-421.736257	-421.786211	35.39	
C	 0.2786003775	 1.3999014064	 0.1170818779	-0.218175
O	 0.2927143219	-0.0093008745	 0.1508547364	-0.228758
C	 0.3695490924	-0.5688084191	-1.1449378338	-0.229194
C	 0.3860017872	-2.0205030805	-1.069666438	 0.158086
C	 0.40363909	-3.2301537053	-1.0472483991	-0.053719
C	 0.4232941122	-4.5883121604	-1.0143453355	-0.221819
C	 0.4449174231	-5.7978354243	-0.9864310235	 0.314072
C	 0.4279115547	-7.2515460581	-0.9484531916	-0.245796
O	 1.7564348273	-7.7524235271	-1.0135060567	-0.407116
H	 1.1925050966	 1.8077043811	-0.3434340879	 0.106906
H	-0.5890784203	 1.7876465392	-0.4401515871	 0.106275
H	 0.2185883743	 1.7452817325	 1.151208174	 0.134166
H	-0.4877283549	-0.2405725115	-1.759870624	 0.120901
H	 1.2784849593	-0.2175107699	-1.6656417425	 0.122394
H	-0.078898829	-7.5743036695	-0.0237239021	 0.125409
H	-0.1823924241	-7.6209321441	-1.7895128379	 0.124047
H	 1.7025002618	-8.713120125	-0.9785111687	 0.292323
22.5611	56.8861	58.5182	93.5248	152.0986	190.1283	220.385	229.7282	315.3448	328.2692	356.3373	428.9476	518.4373	577.7844	600.3257	695.4088	947.0612	981.6007	1017.681	1020.6937	1059.0801	1144.3937	1181.9082	1218.6754	1241.5217	1242.5719	1250.8089	1285.1456	1408.2053	1461.3512	1476.4934	1484.533	1490.9249	1495.3732	1514.209	2281.7732	2383.1834	2938.6318	2955.3769	2958.6412	2969.8578	2976.855	3013.8291	3123.5727	3816.5825
COCC#CC#CCO	COCC#CC#CCO	
InChI=1S/C7H8O2/c1-9-7-5-3-2-4-6-8/h8H,6-7H2,1H3	InChI=1S/C7H8O2/c1-9-7-5-3-2-4-6-8/h8H,6-7H2,1H3
