17
gdb 84285	3.29808	1.67101	1.49549	3.3784	71.36	-0.253	-0.0243	0.2288	933.9954	0.138024	-417.943922	-417.93711	-417.936166	-417.974968	27.253	
C	 0.0229424651	 1.5706077858	-0.0490202398	-0.382551
C	 0.0500324765	 0.046704074	 0.0035247933	 0.028277
N	 0.8952925976	-0.4790303707	-1.1010331582	-0.253635
C	 1.588481712	-1.3910812044	-0.5611705631	 0.292486
O	 2.9216035232	-1.5803323784	-0.7597468521	-0.242552
C	 3.3527451051	-0.7821082109	 0.3965137824	-0.101552
C	 2.1880762545	-0.9189302057	 1.423865411	-0.097642
C	 0.6993900633	-0.5835261543	 1.2488935841	-0.067988
N	 1.2512596474	-1.8610657907	 0.7817430748	-0.127037
H	 1.0375769034	 1.977746473	-0.02039053	 0.120423
H	-0.4570975752	 1.9134423994	-0.9688754161	 0.134275
H	-0.5364503001	 1.968912093	 0.8042720505	 0.114787
H	-0.9797907205	-0.3349798293	-0.055862597	 0.097535
H	 4.2613599667	-1.2398075299	 0.7924539728	 0.136188
H	 3.5508635787	 0.2401046275	 0.0638211702	 0.134413
H	 2.4914627658	-1.1563689312	 2.4411320987	 0.113287
H	 0.1128272763	-0.619052627	 2.1646200984	 0.101286
133.6253	214.0627	237.0894	285.9492	419.2736	530.6332	536.8407	639.7496	653.9165	718.1081	757.377	809.9522	853.3489	883.4897	916.2061	923.5479	946.952	977.0606	1025.6983	1059.0891	1078.5396	1108.3325	1117.8763	1147.4495	1183.6232	1197.2791	1210.9777	1291.6936	1330.8942	1337.3384	1365.0571	1383.2479	1406.4763	1484.4527	1494.2578	1495.8516	1683.7775	2999.0099	3040.7193	3064.2331	3112.1956	3124.9675	3127.7891	3134.1329	3143.2324
CC1N=C2OCC3C1N23	C[C@H]1[N][C]2OC[C@H]3[C@@H]1N23	
InChI=1S/C6H8N2O/c1-3-5-4-2-9-6(7-3)8(4)5/h3-5H,2H2,1H3	InChI=1S/C6H8N2O/c1-3-5-4-2-9-6(7-3)8(4)5/h3-5H,2H2,1H3/t3-,4+,5-,8?/m1/s1
