12
gdb 25172	3.1214	1.53996	1.03121	5.1069	72.03	-0.2629	-0.098	0.165	1035.6353	0.079424	-431.707949	-431.700924	-431.699979	-431.739794	25.582	
N	-0.0308591577	 1.2812903853	 0.3459689663	-0.512488
C	-0.0405209799	 0.0698730497	 0.005394265	 0.362589
O	 1.1340398804	-0.5773960653	-0.4284915666	-0.210657
C	 1.1152316154	-1.8684615516	-0.7896576849	 0.155328
N	 0.1046909347	-2.6525219322	-0.7956456465	-0.277428
C	-1.0897868645	-2.0953569607	-0.3829917052	-0.053791
C	-1.2145092146	-0.8005777554	 0.0098669017	 0.032189
C	-2.4680476672	-0.2696782804	 0.427697046	 0.264828
N	-3.5045446557	 0.1232835824	 0.7601681863	-0.320927
H	 0.8973373419	 1.6946772359	 0.2646947069	 0.24098
H	 2.1007698708	-2.2060625926	-1.0955899346	 0.164001
H	-1.9480606337	-2.7579389451	-0.3871355643	 0.155375
98.1605	153.2644	184.1999	324.1277	387.6367	467.1652	492.5123	566.6594	570.9804	602.4415	735.3514	767.0277	862.4931	887.1915	955.1834	968.3295	995.1476	1083.2995	1158.4123	1230.9609	1284.3199	1398.9914	1410.607	1591.3776	1655.2096	1767.6926	2348.9844	3199.9003	3205.1542	3510.3155
N=C1OC=NC=C1C#N	[NH]C1=C(CN=CO1)C#N	
InChI=1S/C5H3N3O/c6-1-4-2-8-3-9-5(4)7/h2-3,7H	InChI=1S/C5H4N3O/c6-1-4-2-8-3-9-5(4)7/h3,7H,2H2
