19
gdb 119208	1.91095	1.28786	0.90241	3.9574	77.22	-0.2538	0.0215	0.2753	1337.9482	0.157399	-419.178714	-419.168701	-419.167757	-419.213926	35.688	
C	-0.2523805504	 1.4328516154	 0.0826475502	-0.32385
N	 0.0318702909	 0.0046882268	 0.1096228186	-0.09661
C	 1.3817301272	-0.4426277876	-0.1592875624	-0.277476
C	 0.8028673315	-0.5785809791	 1.2224437486	 0.133865
C	 1.3818295701	 0.2378526232	 2.3703078726	-0.264888
C	 0.3842809798	 0.5087285833	 3.4949678886	-0.08367
O	 1.0725783724	 1.2603857568	 4.4801051282	-0.41817
C	 0.3131012483	-1.8882788391	 1.6210000284	 0.284254
N	-0.0537550402	-2.930170551	 1.9628468661	-0.34955
H	 0.578127876	 2.0751035242	 0.4098847768	 0.111909
H	-0.5017400175	 1.7043215365	-0.9474599546	 0.138193
H	-1.1249800435	 1.6403548529	 0.708249513	 0.13718
H	 1.4837567094	-1.3138010433	-0.7999961581	 0.137915
H	 2.1668407567	 0.3063494244	-0.2643440474	 0.119193
H	 2.238057523	-0.301639973	 2.789901055	 0.131687
H	 1.7660364182	 1.189923617	 1.9961379518	 0.118497
H	-0.4856139747	 1.0603783248	 3.1040942823	 0.092319
H	 0.0133372519	-0.4452173122	 3.8976638276	 0.117726
H	 0.4924110311	 1.36677033	 5.2394447047	 0.291476
75.9493	93.3148	127.2284	152.6361	180.3982	213.2581	254.681	287.9485	347.5654	372.3846	406.9294	460.1558	569.8549	581.4273	720.5088	774.0908	816.6673	889.1481	935.7573	1019.2707	1047.4554	1075.5661	1092.92	1130.5732	1143.4458	1147.1472	1198.4815	1218.5207	1249.8872	1265.3132	1310.3283	1332.6421	1377.0284	1447.7971	1463.8411	1478.4233	1488.6162	1503.2539	1509.3687	1528.3525	2353.1935	2973.885	2994.9618	3014.3773	3056.0699	3080.5577	3086.162	3108.7287	3115.1323	3185.2318	3833.7697
CN1CC1(CCO)C#N	CN1C[C@]1(CCO)C#N	
InChI=1S/C6H10N2O/c1-8-5-6(8,4-7)2-3-9/h9H,2-3,5H2,1H3	InChI=1S/C6H10N2O/c1-8-5-6(8,4-7)2-3-9/h9H,2-3,5H2,1H3/t6-,8?/m0/s1
