16
gdb 115134	2.65562	1.44574	1.09382	3.7878	68.32	-0.248	-0.078	0.17	1114.8908	0.123633	-475.028173	-475.019643	-475.018699	-475.062015	30.295	
C	-0.3534926395	 1.2362049622	-0.1160747131	-0.248669
O	 0.009500651	-0.1354282086	-0.0380866485	-0.251475
C	 0.8638690279	-0.567270672	-1.0832952278	 0.001162
C	 1.2886498428	-2.0000588849	-0.7886137569	-0.117315
O	 0.3374805288	-2.8697430949	-1.4496197013	-0.245151
C	-0.3571756644	-2.2059624566	-2.4092126372	 0.341497
N	-1.1862838243	-2.7057029628	-3.218627007	-0.505014
C	 0.016893604	-0.7362775687	-2.3566035236	 0.308432
O	-0.329883714	 0.1218160229	-3.1207433898	-0.28072
H	 0.536940364	 1.8804178652	-0.073768301	 0.112971
H	-0.9084477749	 1.4653483203	-1.0328393998	 0.145459
H	-0.9852857806	 1.4365001337	 0.7513887411	 0.137148
H	 1.7063286853	 0.1210964724	-1.2272795082	 0.098408
H	 2.2874998406	-2.216193307	-1.181388415	 0.125877
H	 1.2551512848	-2.2154575749	 0.2802125902	 0.142986
H	-1.2789435816	-3.7133424264	-3.069866822	 0.234405
55.0867	120.1424	137.763	174.5505	237.9587	295.545	331.371	401.902	438.6665	537.2622	626.2012	714.6309	748.682	839.108	853.4809	910.7377	953.7646	1018.2556	1047.6481	1089.7385	1122.7089	1160.3234	1186.4321	1218.5795	1240.8318	1271.0599	1295.9728	1358.2501	1405.4611	1476.2282	1486.5476	1501.5383	1512.3392	1755.9869	1858.2353	2998.0764	3029.6501	3056.9904	3073.3913	3131.5305	3133.1042	3462.8154
COC1COC(=N)C1=O	CO[C@H]1CO[C]([NH])C1=O	
InChI=1S/C5H7NO3/c1-8-3-2-9-5(6)4(3)7/h3,6H,2H2,1H3	InChI=1S/C5H7NO3/c1-8-3-2-9-5(6)4(3)7/h3,6H,2H2,1H3/t3-/m0/s1
