13
gdb 10673	2.95986	2.03212	1.37868	2.3895	60.51	-0.2533	-0.0012	0.2521	869.5698	0.093399	-398.569287	-398.561405	-398.56046	-398.601493	28.939	
N	 0.2734874136	 0.7767365994	 0.9197732903	-0.531829
C	-0.0458239816	 0.1319749916	-0.2336337579	 0.32219
O	 0.6243692324	 0.1299841501	-1.2426175018	-0.343139
C	-1.3455100066	-0.6674581947	-0.1350508329	 0.103093
C	-1.4217443119	-1.7356630559	 0.8923946263	-0.18853
O	-2.0906686197	-0.4955551033	 1.0903995364	-0.273837
C	-2.1128353556	-0.7772827534	-1.3463576999	 0.272786
C	-2.7643030813	-0.8607406672	-2.3513339439	-0.379269
H	 1.0792193439	 1.3800363917	 0.9157782391	 0.267387
H	-0.4224348393	 0.870948575	 1.6413760662	 0.276307
H	-2.0671947193	-2.5903779286	 0.7039784059	 0.138823
H	-0.5564806409	-1.9121057449	 1.5284292232	 0.132634
H	-3.3329467138	-0.9316733797	-3.245686571	 0.203384
70.7748	140.7027	212.055	259.3252	290.617	379.6692	418.4027	464.6436	531.9712	579.7823	615.8271	632.4609	670.9914	676.5061	764.8018	858.0646	894.5531	953.5451	1094.3383	1136.5451	1164.5047	1189.8131	1333.4027	1374.1866	1510.4169	1595.2638	1816.7226	2250.2154	3096.2173	3196.1703	3501.698	3593.0044	3730.3466
NC(=O)C1(CO1)C#C	NC(=O)[C@]1(CO1)C#C	
InChI=1S/C5H5NO2/c1-2-5(3-8-5)4(6)7/h1H,3H2,(H2,6,7)	InChI=1S/C5H5NO2/c1-2-5(3-8-5)4(6)7/h1H,3H2,(H2,6,7)/t5-/m1/s1
