16
gdb 128331	2.72513	1.28889	0.88106	2.8111	76.24	-0.2124	-0.0358	0.1766	1258.7073	0.125687	-434.096739	-434.088191	-434.087246	-434.13019	30.667	
C	-0.0903423141	 1.4243112014	-0.0282373384	-0.316422
N	-0.0287947498	-0.0187733942	 0.1412803594	-0.377618
C	-1.1862477553	-0.7542611808	 0.0600855352	 0.356952
N	-2.3785141341	-0.1632878515	 0.0682968232	-0.320862
N	-3.2625229267	-1.2047949429	 0.0364943568	-0.192218
C	-2.6798611752	-2.4051828226	-0.005798871	-0.07617
C	-1.3058686534	-2.1849840176	 0.0094281157	 0.03677
C	-0.2743517909	-3.2010904268	-0.002662171	 0.052641
O	-0.4737741746	-4.3989335792	-0.0540354297	-0.297311
H	 0.9138047673	 1.8348764732	 0.0976988621	 0.12079
H	-0.4834389549	 1.7259218509	-1.0093058234	 0.122162
H	-0.7427113338	 1.8533685979	 0.7360188163	 0.150673
H	 0.7808275842	-0.4637898922	-0.2600842949	 0.245709
H	-4.2461085724	-0.9951043216	 0.0387694415	 0.28123
H	-3.2339126204	-3.329555706	-0.0381693057	 0.167679
H	 0.7682771241	-2.808462678	 0.0441481139	 0.045996
97.0964	146.7196	156.9778	169.6584	222.0198	238.1414	363.5656	374.9815	470.5149	512.0597	569.1708	655.6878	724.5428	746.0754	830.1067	842.7274	941.1586	1033.8706	1060.2062	1075.5608	1133.9851	1158.9689	1191.1212	1237.2211	1348.4822	1372.8021	1441.9659	1450.0623	1472.5233	1480.3159	1509.448	1515.5124	1579.5372	1610.6389	1772.0078	2847.9197	3006.6083	3092.2682	3134.0522	3273.8264	3631.4206	3678.6998
CNC1=NNC=C1C=O	CNc1n[nH]cc1C=O	
InChI=1S/C5H7N3O/c1-6-5-4(3-9)2-7-8-5/h2-3H,1H3,(H2,6,7,8)	InChI=1S/C5H7N3O/c1-6-5-4(3-9)2-7-8-5/h2-3H,1H3,(H2,6,7,8)
