17
gdb 97274	2.37043	1.12621	0.82872	3.6188	74.84	-0.2307	-0.0317	0.199	1372.3395	0.132092	-455.172164	-455.161994	-455.16105	-455.208167	35.249	
C	 0.6719540646	 0.6370806627	 0.8617066094	-0.464361
C	-0.3243210289	 0.4559585624	-0.2565512318	 0.351526
O	-0.4045998175	 1.2054007198	-1.2039997687	-0.308808
C	-1.2660786851	-0.7603562388	-0.1900360249	-0.163163
C	-1.1056528815	-1.5566926222	-1.5044605391	 0.152093
O	-1.1969892118	-2.7519422519	-1.5718872535	-0.242447
N	-1.0930952651	-1.5610742492	 0.9864551332	-0.243749
C	-1.9942064361	-2.4214164355	 1.2525519696	 0.12882
N	-1.9323151834	-3.2285482489	 2.3542606876	-0.506553
H	 1.2684043713	 1.5307058447	 0.6752762391	 0.131966
H	 0.1504585191	 0.7106138189	 1.8209233961	 0.149386
H	 1.3111004894	-0.2479337461	 0.9398783103	 0.151203
H	-2.2785501807	-0.3239602599	-0.2913742684	 0.124331
H	-0.9249056868	-0.9143710389	-2.3891050515	 0.116875
H	-2.9133089777	-2.5536069843	 0.6691054235	 0.101469
H	-1.0306422008	-3.2937716177	 2.8034705734	 0.259606
H	-2.4744888788	-4.0763999749	 2.3432659458	 0.261808
48.3675	73.454	124.1544	142.6829	157.4339	176.0129	230.0822	328.5343	354.2082	412.3231	418.6656	487.1646	563.8232	590.825	605.5469	666.8641	822.0196	862.1058	932.3766	989.2956	1009.0835	1059.8184	1077.5013	1182.2302	1200.3538	1232.1934	1275.7999	1314.7151	1381.6394	1385.3468	1421.7617	1448.8007	1460.8019	1628.7257	1752.6995	1796.1788	1834.5761	2924.2261	2947.1239	3049.9343	3051.4733	3112.2765	3159.0962	3582.2182	3707.1157
CC(=O)C(C=O)N=CN	CC(=O)[C@@H](C=O)N=CN	
InChI=1S/C5H8N2O2/c1-4(9)5(2-8)7-3-6/h2-3,5H,1H3,(H2,6,7)	InChI=1S/C5H8N2O2/c1-4(9)5(2-8)7-3-6/h2-3,5H,1H3,(H2,6,7)/t5-/m1/s1
