21
gdb 36921	4.80815	0.8041	0.75071	1.6033	85.01	-0.2371	0.0258	0.2629	1563.6796	0.183427	-387.079927	-387.0713	-387.070356	-387.114236	32.331	
C	-0.128906686	 1.474885495	 0.3060375287	-0.240082
C	-0.2143220494	-0.0319696989	 0.2929530922	 0.096784
C	-1.3155262114	-0.7521925834	-0.3578345662	-0.183505
O	-0.0319890368	-0.6665771983	-0.9786723608	-0.236842
C	 1.3073037046	 2.0062452572	 0.1438845601	-0.001747
C	 1.373178716	 3.5531311086	 0.0144733431	-0.232852
C	 2.6667266035	 3.9887833001	 0.7472620498	-0.254479
C	 2.9590635709	 2.8068696605	 1.6413262514	-0.071744
C	 2.2325174957	 1.7399696076	 1.3144200515	-0.064054
H	-0.7491015337	 1.8644742419	-0.5102250469	 0.099984
H	-0.5548313137	 1.8517149898	 1.2458122938	 0.097815
H	 0.2989205521	-0.5441147075	 1.1090292241	 0.091132
H	-1.602077189	-1.7431315578	-0.0076163379	 0.112256
H	-2.1092109578	-0.1867874508	-0.8453622597	 0.111003
H	 1.7212952665	 1.5319668071	-0.7584680889	 0.094449
H	 1.3361317872	 3.8878764434	-1.0254287431	 0.09781
H	 0.505487198	 3.9877756511	 0.524519341	 0.098611
H	 3.4974023464	 4.155236919	 0.0466005456	 0.106135
H	 2.5423360939	 4.9268632064	 1.3000833279	 0.100922
H	 3.7109427948	 2.8357914836	 2.422780412	 0.089407
H	 2.3106216684	 0.7680601954	 1.7900871222	 0.088998
60.9071	68.0666	114.3229	152.5808	275.9015	317.227	362.1739	460.4534	508.7345	627.0994	744.1109	761.8053	791.66	839.9717	849.2684	872.6998	926.5273	930.9148	958.1652	972.0018	982.0587	1029.1083	1059.1739	1084.864	1105.3837	1126.5201	1146.3685	1160.4871	1169.3167	1181.0029	1227.1153	1239.2451	1278.8621	1298.258	1312.4323	1323.3179	1342.2031	1360.7828	1391.1614	1447.8345	1471.0395	1483.5565	1499.8611	1531.8396	1685.4833	2991.6476	3006.9647	3017.2872	3035.3389	3055.9137	3062.3234	3079.4905	3094.343	3095.8215	3165.1345	3176.5633	3202.3997
C(C1CO1)C1CCC=C1	C([C@H]1CO1)[C@H]1CCC=C1	
InChI=1S/C8H12O/c1-2-4-7(3-1)5-8-6-9-8/h1,3,7-8H,2,4-6H2	InChI=1S/C8H12O/c1-2-4-7(3-1)5-8-6-9-8/h1,3,7-8H,2,4-6H2/t7-,8+/m1/s1
