12
gdb 21931	6.85559	1.30002	1.12643	2.378	51.84	-0.2701	-0.0268	0.2433	970.9265	0.084034	-451.790591	-451.783467	-451.782523	-451.822964	24.947	
O	 0.4291801471	 0.5553830952	 0.9094762082	-0.398591
C	-0.0302775291	 0.0885598696	-0.3371244818	-0.17878
C	-1.4544323079	-0.3821271261	-0.2961111169	 0.422258
N	-1.9969957001	-1.3993738412	-0.894650281	-0.391023
C	-3.3110805584	-1.2756169763	-0.5090714377	 0.439677
O	-4.2513381993	-2.1303431218	-0.9025822365	-0.396853
N	-3.5861296	-0.2657168769	 0.277099723	-0.197615
O	-2.3179231729	 0.3430668066	 0.4154305508	-0.209075
H	-0.1508801224	 1.2682723666	 1.1985426947	 0.30366
H	 0.059771139	 0.8526654916	-1.1267718235	 0.128234
H	 0.5978961173	-0.756449174	-0.6269216202	 0.15603
H	-3.8219407733	-2.7900169732	-1.4612578789	 0.322079
30.7666	156.9033	223.1779	326.9989	338.18	388.2705	413.156	514.2696	631.5462	724.2933	771.3806	781.3035	929.749	989.9771	1038.1581	1055.5452	1094.8738	1205.0431	1222.7285	1328.5437	1370.5872	1413.9402	1446.1787	1488.648	1607.0047	1677.0534	2976.1042	3116.2352	3810.8031	3815.1072
OCC1=NC(O)=NO1	OCc1nc(O)no1	
InChI=1S/C3H4N2O3/c6-1-2-4-3(7)5-8-2/h6H,1H2,(H,5,7)	InChI=1S/C3H4N2O3/c6-1-2-4-3(7)5-8-2/h6H,1H2,(H,5,7)
