20
gdb 18520	5.27728	1.05203	0.99608	1.7944	74.75	-0.2491	0.0878	0.3369	1252.8972	0.176632	-348.970908	-348.96266	-348.961715	-349.004009	30.747	
C	-0.0190464463	 1.5794229999	 0.013671342	-0.37865
C	-0.0353084513	 0.0504014298	 0.0908736447	-0.164425
C	-1.4327445117	-0.5459177786	-0.1141157772	-0.182069
C	-1.4658475775	-2.0667774693	-0.0210225781	-0.008704
C	-1.2326455096	-2.7558011317	 1.3813326071	-0.269127
C	-2.6179177181	-3.3980833311	 1.2421292567	 0.03506
O	-3.5657849	-2.331255358	 1.1101343373	-0.245632
C	-2.8471666583	-2.7488150246	-0.057432501	 0.005261
H	 0.9891966697	 1.9776055659	 0.1653663679	 0.10966
H	-0.3725407318	 1.9308521608	-0.9622441062	 0.112931
H	-0.6701536981	 2.0198503909	 0.7768648835	 0.115849
H	 0.6501566701	-0.3625195283	-0.6615567079	 0.09059
H	 0.3575603936	-0.2700186085	 1.0647201999	 0.09771
H	-2.1265021484	-0.13598227	 0.629597402	 0.110043
H	-1.816229018	-0.2391219961	-1.0977484473	 0.088767
H	-0.8007585685	-2.5146094158	-0.7681612821	 0.072326
H	-0.4104881313	-3.4750054344	 1.3679208294	 0.104121
H	-1.1226745113	-2.0909531734	 2.2421468266	 0.107899
H	-2.9850174937	-4.3373772972	 1.6392603797	 0.101837
H	-3.4372493995	-3.0556397701	-0.9141747069	 0.096551
81.0814	95.6725	123.5688	216.1747	249.5864	317.2899	354.0949	445.3651	568.4462	723.2972	748.0392	813.5485	832.8509	852.016	879.2739	901.1373	925.0582	942.1574	989.5995	998.1521	1044.4984	1050.5344	1088.44	1121.5283	1130.548	1194.2749	1215.6746	1239.3928	1241.4055	1261.955	1275.748	1304.8519	1328.251	1368.8743	1385.6633	1404.5943	1413.7807	1471.1917	1485.2887	1494.8952	1499.6913	1510.8159	3006.4404	3014.332	3029.0429	3038.7512	3043.3328	3063.0987	3069.2078	3095.7578	3100.7641	3120.2192	3172.5829	3190.5459
CCCC1CC2OC12	CCC[C@H]1C[C@H]2O[C@@H]12	
InChI=1S/C7H12O/c1-2-3-5-4-6-7(5)8-6/h5-7H,2-4H2,1H3	InChI=1S/C7H12O/c1-2-3-5-4-6-7(5)8-6/h5-7H,2-4H2,1H3/t5-,6+,7-/m0/s1
