18
gdb 53514	5.45913	0.58773	0.55802	5.0495	82.33	-0.2558	0.0192	0.275	1955.6086	0.144542	-401.938926	-401.928081	-401.927137	-401.977036	36.46	
C	 0.0504043318	 1.51069679	-0.0603859332	-0.498711
C	 0.0326110808	 0.0561252344	-0.0083242406	 0.133755
C	 0.0158222381	-1.1464752671	 0.033078821	 0.026186
C	-0.0201979167	-2.6012264708	 0.0912750549	-0.401401
C	-1.4489169922	-3.1780186093	-0.0152406216	 0.140188
O	-2.1097427909	-2.782132207	-1.1945044868	-0.407382
C	-1.4042951176	-4.720059035	 0.1192885966	-0.367559
C	-2.7308317171	-5.3274173847	 0.065811588	 0.270897
N	-3.778062482	-5.8139963611	 0.0366217882	-0.300921
H	 0.8857458827	 1.876933533	-0.6672527575	 0.148818
H	-0.8743749099	 1.9011949815	-0.4988617843	 0.154094
H	 0.1523897992	 1.9443874009	 0.9404026116	 0.149356
H	 0.5902414605	-3.0289592385	-0.7192640997	 0.118247
H	 0.4354163374	-2.9536935234	 1.0262625761	 0.131831
H	-2.0555498272	-2.773086568	 0.8007635152	 0.12319
H	-1.5436046395	-2.9784276045	-1.9497368034	 0.284933
H	-0.7904307431	-5.1418567727	-0.6870281253	 0.142297
H	-0.925630794	-5.0032114875	 1.0638761009	 0.152182
23.0677	47.9816	66.354	81.0906	152.7553	212.1823	264.1383	270.4917	293.7132	381.7898	384.4395	396.8916	429.6604	472.5547	614.0905	768.3904	866.2671	871.1842	953.5929	1015.0909	1038.9879	1052.7998	1055.2222	1117.5189	1174.2113	1194.4312	1206.1506	1278.1964	1345.0185	1357.147	1375.0449	1414.9592	1424.9179	1456.198	1472.6888	1477.9369	1478.5585	2367.1973	2378.583	2988.8813	3028.811	3030.3607	3035.2726	3069.3309	3085.2651	3089.6293	3091.2655	3796.3139
CC#CCC(O)CC#N	CC#CC[C@@H](O)CC#N	
InChI=1S/C7H9NO/c1-2-3-4-7(9)5-6-8/h7,9H,4-5H2,1H3	InChI=1S/C7H9NO/c1-2-3-4-7(9)5-6-8/h7,9H,4-5H2,1H3/t7-/m1/s1
