19
gdb 26375	2.68041	1.32626	1.10113	3.082	78.31	-0.1865	0.0313	0.2179	1186.122	0.159047	-419.236867	-419.227821	-419.226876	-419.27157	33.723	
C	 0.0002977284	 1.5443211708	-0.0220893598	-0.38649
C	-0.0222150412	 0.012791885	 0.0455658455	 0.036744
C	 0.7740054369	-0.5309281445	 1.2376492719	-0.386492
N	-1.393088714	-0.4941356818	 0.0524083803	-0.098921
C	-2.3808167054	-0.2791071215	 1.0140680504	-0.119172
C	-3.4757345226	-0.9310223188	 0.6129193507	-0.059991
O	-3.2200745238	-1.5661437171	-0.590415239	-0.224207
C	-1.9139155753	-1.2947585818	-0.9461470335	 0.468717
N	-1.3034145036	-1.6976261081	-1.9850716192	-0.619077
H	 1.0307720875	 1.9032246411	-0.1015234208	 0.122085
H	-0.5577149043	 1.9028823788	-0.890992931	 0.132682
H	-0.4388073481	 1.991128806	 0.877055572	 0.111867
H	 0.4003345556	-0.3905826741	-0.8784553807	 0.13837
H	 0.367002446	-0.1698780347	 2.1889122754	 0.111868
H	 0.7570687609	-1.6238613931	 1.2499181506	 0.132679
H	 1.8158474144	-0.2025442391	 1.1766008032	 0.122089
H	-2.2091474852	 0.3182058238	 1.8925180884	 0.147017
H	-4.4613441948	-1.0482526101	 1.0253863059	 0.147056
H	-1.9110394214	-2.2735772507	-2.5602130802	 0.223176
23.7281	87.0401	196.6629	221.4421	230.0814	259.2098	299.0829	412.7755	427.1609	546.3934	583.0593	618.5698	666.582	698.5214	742.2095	775.0545	778.1998	879.891	912.8101	933.2338	948.7566	987.6981	1046.8482	1103.2926	1132.2896	1146.689	1174.5078	1210.9374	1267.8156	1282.6452	1363.2178	1400.4232	1415.3632	1421.0812	1451.1524	1483.8047	1489.2081	1500.991	1507.098	1659.3469	1765.7661	3033.7773	3037.3806	3083.0251	3100.4254	3113.6166	3121.5478	3124.1316	3285.4837	3315.2401	3548.505
CC(C)N1C=COC1=N	CC(C)N1C=CO[C@H]1[NH]	
InChI=1S/C6H10N2O/c1-5(2)8-3-4-9-6(8)7/h3-5,7H,1-2H3	InChI=1S/C6H11N2O/c1-5(2)8-3-4-9-6(8)7/h3-7H,1-2H3/t6-/m0/s1
