23
gdb 59574	2.92933	1.22473	1.02415	1.5929	85.01	-0.2391	0.0682	0.3073	1285.4718	0.20568	-388.263985	-388.254792	-388.253848	-388.298127	35.141	
C	 0.0654944979	 1.4260395585	-0.2046224287	-0.39433
C	-0.0000234927	-0.095460551	-0.0166218019	 0.035457
C	 0.7939108382	-0.5384383695	 1.2201663531	-0.397234
C	-1.4481201539	-0.5768208804	 0.0598513372	 0.034845
C	-2.3605405676	-0.4514752577	-1.2075919907	-0.275262
C	-2.7212675297	-1.9600183383	-1.106170315	-0.078169
C	-1.753627911	-2.8873810825	-1.8553118721	-0.074061
O	-0.8045506345	-2.8594740411	-0.7617152373	-0.293099
C	-1.7151733333	-2.1045853012	 0.0700745289	 0.089655
H	 1.1012142153	 1.7636068263	-0.3167186806	 0.109453
H	-0.4882385126	 1.7495193166	-1.0922481352	 0.111377
H	-0.3609112786	 1.947334217	 0.6612172577	 0.107826
H	 0.4544893973	-0.5748438254	-0.8929044701	 0.080937
H	 0.8013272972	-1.6282789992	 1.3164205315	 0.127205
H	 1.8342827242	-0.2019086067	 1.1597265409	 0.107872
H	 0.3635494111	-0.1178286762	 2.1374959283	 0.104701
H	-1.9415819984	-0.1196908995	 0.9278911461	 0.063232
H	-3.2075419345	 0.227555909	-1.0892891639	 0.101378
H	-1.8344044865	-0.182721566	-2.1294234744	 0.097266
H	-3.7733792391	-2.2368864031	-1.0621847384	 0.074771
H	-2.130103871	-3.9051672311	-2.0233324756	 0.098491
H	-1.3260200333	-2.504453377	-2.7908807596	 0.098564
H	-1.9069082045	-2.6050530813	 1.0235986399	 0.069124
63.5361	84.3451	153.6347	224.8847	232.494	256.8513	315.0879	365.9779	369.7123	443.0997	527.9831	679.4516	755.6324	788.4348	837.9478	881.3077	911.8855	921.0271	930.5491	944.6286	967.9841	997.2992	1006.5056	1021.6344	1040.272	1070.1514	1134.7232	1147.4394	1152.0368	1185.9672	1187.8206	1215.3793	1221.8149	1260.6957	1278.5942	1293.0563	1304.2897	1326.1619	1348.9109	1361.7934	1388.709	1398.8352	1420.3241	1482.2739	1487.7392	1493.076	1505.0355	1511.2217	1521.7924	3002.4115	3013.2529	3021.6154	3023.7159	3032.6236	3046.001	3049.3868	3063.8957	3085.4434	3092.0298	3097.3918	3104.9417	3106.4332	3123.8511
CC(C)C1CC2COC12	CC(C)[C@H]1C[C@H]2CO[C@@H]12	
InChI=1S/C8H14O/c1-5(2)7-3-6-4-9-8(6)7/h5-8H,3-4H2,1-2H3	InChI=1S/C8H14O/c1-5(2)7-3-6-4-9-8(6)7/h5-8H,3-4H2,1-2H3/t6-,7+,8+/m0/s1
