23
gdb 87960	3.0188	1.10301	0.95698	1.4598	86.36	-0.2194	0.0861	0.3055	1370.6887	0.205473	-388.293338	-388.283909	-388.282965	-388.327768	36.149	
C	-0.0332002059	 1.4947145726	-0.2534921558	-0.409994
C	 0.0451498943	 0.0006224912	-0.0359197061	-0.062392
C	 1.3735601626	-0.7377180514	-0.1293235115	-0.365192
C	 0.6778862616	-0.6067228523	 1.1903989209	 0.448156
C	 1.1930100272	 0.2099027681	 2.3767721787	-0.325328
C	 0.9949885089	-0.7404172929	 3.5783216634	 0.028883
C	 0.7419303213	-0.0487589772	 4.9145696575	-0.411326
C	-0.1635058724	-1.6093831779	 3.0711513244	-0.092733
O	 0.0936823311	-1.7996782391	 1.6896881828	-0.289617
H	 0.8481919195	 2.0061656587	 0.1473222593	 0.113443
H	-0.0914735667	 1.7342504653	-1.321250541	 0.117095
H	-0.9156727933	 1.9274260033	 0.2319565996	 0.114546
H	-0.8066636469	-0.5640271612	-0.4060235917	 0.090639
H	 1.3777745393	-1.7199041084	-0.5893499036	 0.11753
H	 2.2737482166	-0.1522799968	-0.2939635046	 0.104045
H	 2.2346097232	 0.5188894881	 2.2563733108	 0.105885
H	 0.5950422926	 1.1187679246	 2.514979221	 0.102122
H	 1.8785413382	-1.3847329796	 3.6630912409	 0.081074
H	-0.1418742131	 0.5975383441	 4.8614661622	 0.115329
H	 0.576266565	-0.7773861968	 5.715532775	 0.115536
H	 1.5928085491	 0.5748682524	 5.2069516615	 0.118073
H	-0.219313989	-2.5947125003	 3.5428359533	 0.103942
H	-1.1274831433	-1.0945828245	 3.230309683	 0.080284
38.2848	144.313	178.4145	188.1554	226.3948	234.1267	288.6881	386.0365	409.7731	429.9933	467.1294	501.9707	605.7573	769.7448	790.3391	859.2327	865.8176	889.5068	898.0529	929.9503	957.1515	967.4934	1008.5032	1032.7069	1073.546	1093.3333	1121.5841	1127.8019	1144.2937	1155.965	1181.5517	1209.5843	1218.7312	1269.9546	1281.588	1328.4157	1345.2035	1352.3016	1401.0375	1405.0563	1414.8578	1421.6312	1480.8355	1490.7371	1496.8924	1497.2306	1500.7132	1505.3685	1519.9184	2949.2031	3023.5373	3027.2001	3027.6034	3036.9198	3083.1585	3083.3022	3088.826	3093.0992	3096.2692	3099.8476	3119.554	3145.3461	3212.703
CC1CC11CC(C)CO1	C[C@H]1C[C@]21C[C@@H](C)CO2	
InChI=1S/C8H14O/c1-6-3-8(9-5-6)4-7(8)2/h6-7H,3-5H2,1-2H3	InChI=1S/C8H14O/c1-6-3-8(9-5-6)4-7(8)2/h6-7H,3-5H2,1-2H3/t6-,7+,8+/m1/s1
