17
gdb 131849	5.73954	0.78566	0.70611	4.7217	73.74	-0.2026	0.0206	0.2231	1540.8688	0.136586	-455.128209	-455.119548	-455.118604	-455.16263	31.151	
O	 0.0489620644	 1.3201748017	-0.2725026914	-0.423555
C	-0.0596805991	-0.0511744849	 0.0942841616	-0.095953
C	-1.540363028	-0.3906447734	 0.1115084594	-0.132414
N	-2.1010703651	-0.1198752095	-1.2059226738	-0.40931
C	-3.3840313537	-0.4632396313	-1.5132750729	 0.546949
C	-4.2408291166	-0.0731756666	-2.5132772275	-0.388771
C	-5.3797531687	-0.8782143732	-2.281711701	 0.053505
N	-5.2572952769	-1.6787680584	-1.2517524224	-0.170747
O	-3.9587931146	-1.4051641077	-0.7518274435	-0.222738
H	 0.9747851095	 1.5240084325	-0.4311553893	 0.296203
H	 0.4566608094	-0.6962751644	-0.6309527676	 0.104395
H	 0.3672043931	-0.2368949481	 1.09045031	 0.100827
H	-1.674365868	-1.4484034276	 0.3506403109	 0.137753
H	-2.0405451528	 0.1949756461	 0.8973306166	 0.11793
H	-1.7856981486	 0.757077038	-1.5947158039	 0.258517
H	-4.0756935144	 0.6616825287	-3.2819092346	 0.103629
H	-6.3050600798	-0.9009422618	-2.8419279705	 0.123778
47.1001	78.655	119.3874	184.5815	262.385	289.5363	302.3417	451.665	486.3103	597.3115	628.2914	715.0704	736.2127	748.9026	878.2656	898.5504	920.3533	928.7196	933.385	1020.0528	1062.3033	1084.8863	1098.0563	1139.0081	1202.5896	1230.2931	1263.9873	1297.2201	1340.9679	1352.2293	1391.6715	1458.2607	1479.2509	1503.834	1513.5545	1557.2902	1658.7896	2992.1333	2995.8068	3034.2036	3104.5574	3232.9988	3282.6173	3610.6419	3840.1313
OCCNC1=CC=NO1	OCCNc1ccno1	
InChI=1S/C5H8N2O2/c8-4-3-6-5-1-2-7-9-5/h1-2,6,8H,3-4H2	InChI=1S/C5H8N2O2/c8-4-3-6-5-1-2-7-9-5/h1-2,6,8H,3-4H2
