15
gdb 131231	3.22325	1.14869	0.89624	4.5155	68.43	-0.228	-0.0311	0.1969	1231.364	0.112077	-453.96363	-453.955139	-453.954195	-453.998574	29.684	
O	-0.1811480523	 1.3841106933	-0.1210679675	-0.431196
C	-0.0539320011	 0.0392853717	-0.1566001073	 0.451168
C	-0.0259368083	-0.8896439329	-1.1770591141	-0.382991
C	 0.1349015765	-2.119005898	-0.5001183936	 0.024797
N	 0.1994026239	-1.9731536198	 0.815960822	-0.280241
N	 0.0769331833	-0.6289270683	 1.0148032439	-0.027249
C	 0.1332360529	-0.0936155668	 2.3506885629	-0.251621
C	 1.4973726102	-0.3092994314	 3.0055447394	 0.159239
O	 1.6893224659	-0.1370517992	 4.1778386198	-0.230033
H	-0.2757967373	 1.7118704122	-1.0206083311	 0.317222
H	-0.1110208516	-0.7060188137	-2.2355100362	 0.10376
H	 0.2049313557	-3.1076027939	-0.930418737	 0.117128
H	-0.0646967101	 0.9813242901	 2.303098116	 0.167544
H	-0.6342994482	-0.552848213	 2.9806846393	 0.160066
H	 2.2996015205	-0.6277276803	 2.3054902933	 0.102407
24.1914	70.679	100.6056	241.007	262.3496	279.0907	356.5283	423.6094	503.0609	660.195	673.0693	682.616	723.8776	740.9624	825.5324	887.4058	938.868	1026.066	1036.5595	1065.894	1113.1218	1184.9334	1248.9466	1294.5889	1311.4044	1340.179	1381.5921	1409.9018	1444.6875	1466.147	1584.9401	1601.508	1844.8555	2909.336	3064.8852	3117.4736	3241.2663	3266.6679	3847.5631
OC1=CC=NN1CC=O	Oc1ccnn1CC=O	
InChI=1S/C5H6N2O2/c8-4-3-7-5(9)1-2-6-7/h1-2,4,9H,3H2	InChI=1S/C5H6N2O2/c8-4-3-7-5(9)1-2-6-7/h1-2,4,9H,3H2
