13
gdb 29467	3.44365	1.69876	1.139	1.6119	64.69	-0.2023	0.0027	0.2049	969.5453	0.091941	-452.754935	-452.74825	-452.747306	-452.785877	25.976	
N	 0.0151330279	 1.4153960855	 0.1757104418	-0.608712
C	 0.0382083842	 0.029858385	 0.046819637	 0.106046
C	-1.0194249596	-0.8433976268	-0.0040057075	-0.114556
O	-0.5979741499	-2.1945886401	-0.0451957176	-0.215358
C	 0.7190111134	-2.0794244673	-0.0251520387	 0.42021
C	 1.2045743436	-0.8181687964	 0.0290678874	 0.137577
N	 2.5961931539	-0.8889746461	 0.0297788158	-0.345707
C	 2.8282092968	-2.160903498	-0.0210723111	 0.032535
O	 1.7056986415	-2.9877939796	-0.0592134815	-0.208129
H	 0.8195297679	 1.8650638768	-0.2392900451	 0.26059
H	-0.8397372506	 1.8476713562	-0.146205677	 0.249684
H	-2.0864280918	-0.7107943594	-0.0004284317	 0.130668
H	 3.7744418527	-2.6759935798	-0.0368712718	 0.155152
173.7197	233.4102	245.3839	283.9713	420.8626	545.1447	557.0658	617.9158	628.5017	645.8693	692.4025	700.622	757.3014	786.8257	788.03	917.2081	1020.4362	1043.4079	1086.8427	1144.0591	1255.8962	1266.645	1321.0045	1457.8796	1516.2572	1544.1452	1592.205	1648.3636	1672.1765	3291.2979	3300.157	3553.8049	3648.643
NC1=COC2=C1N=CO2	Nc1coc2c1nco2	
InChI=1S/C5H4N2O2/c6-3-1-8-5-4(3)7-2-9-5/h1-2H,6H2	InChI=1S/C5H4N2O2/c6-3-1-8-5-4(3)7-2-9-5/h1-2H,6H2
