20
gdb 104576	2.28919	1.36331	1.07837	2.6994	75.32	-0.2434	-0.0158	0.2276	1210.2492	0.169338	-440.277097	-440.267261	-440.266317	-440.312348	35.885	
C	-1.0701633985	 1.178247677	 1.1390812094	-0.484567
C	-1.2958284642	 0.2631475955	-0.0416292664	 0.405699
O	-0.91264389	 0.5321863451	-1.1601786932	-0.3176
C	-2.0499642369	-1.0501840771	 0.2056748724	-0.385007
C	-1.1725129966	-2.2753829411	-0.049788744	 0.312147
C	-0.2136344966	-2.6289216885	 1.0671862702	-0.11507
O	 0.7470131079	-1.5983165974	 1.2523068351	-0.419216
C	-1.6447863032	-3.3259163402	-0.9892239514	-0.295635
N	-0.5512213734	-2.4229787727	-1.3790585409	-0.348368
H	-0.5841913478	 2.0996356371	 0.8158886223	 0.137867
H	-2.0208323404	 1.4088049462	 1.6332966109	 0.131901
H	-0.4383829754	 0.6550417182	 1.864509389	 0.168444
H	-2.4562433163	-1.0879963581	 1.2212339451	 0.106885
H	-2.8943933182	-1.0553342809	-0.4920770723	 0.123773
H	-0.7393913002	-2.733123721	 2.0225915604	 0.104822
H	 0.2717829804	-3.5875378544	 0.8378212903	 0.097786
H	 1.1985781081	-1.5010536901	 0.4043552882	 0.298412
H	-1.3531911231	-4.3627838453	-0.8429570189	 0.116796
H	-2.6238152166	-3.1941556519	-1.4432153767	 0.112814
H	-0.876554879	-1.6744103106	-1.9863077096	 0.248116
44.9826	84.3475	118.9804	158.2106	179.6998	242.5617	309.0843	341.5679	371.2175	407.561	483.5086	500.3433	548.695	597.1336	757.5601	799.3732	878.2004	891.7747	914.0288	948.3584	965.8714	992.1305	1023.2932	1040.8609	1067.0625	1100.2251	1148.1437	1160.5827	1202.8052	1228.3424	1268.0738	1315.5324	1339.8766	1364.4435	1378.3458	1408.1899	1433.1816	1462.7564	1470.9385	1481.1788	1496.4499	1512.4499	1797.2596	3009.4089	3036.8645	3043.2636	3073.5072	3093.292	3103.1118	3106.3992	3152.9987	3186.426	3508.9044	3781.3022
CC(=O)CC1(CO)CN1	CC(=O)C[C@@]1(CO)CN1	
InChI=1S/C6H11NO2/c1-5(9)2-6(4-8)3-7-6/h7-8H,2-4H2,1H3	InChI=1S/C6H11NO2/c1-5(9)2-6(4-8)3-7-6/h7-8H,2-4H2,1H3/t6-/m0/s1
