15
gdb 25674	5.87312	0.8361	0.73527	3.1681	88.57	-0.2448	-0.0464	0.1983	1493.4401	0.114077	-379.705165	-379.69701	-379.696066	-379.73996	28.415	
C	-0.0180564628	 1.4808734705	 0.0104529229	-0.507885
C	 0.0024673592	 0.0272824227	 0.0025732203	 0.234709
C	 0.0188011324	-1.1793319933	-0.0039471638	-0.127116
C	 0.0377778849	-2.5982645585	-0.0116255968	 0.074189
C	 1.2322006592	-3.3352873259	-0.0226791593	-0.053774
N	 1.2590704874	-4.6653146482	-0.0299286203	-0.24161
C	 0.0732969458	-5.2776921718	-0.0261158081	 0.077433
N	-1.1282803637	-4.6970506245	-0.0158478198	-0.241581
C	-1.1366782051	-3.3667641072	-0.008707684	-0.053846
H	 0.9974974743	 1.8906861017	 0.0030228612	 0.156738
H	-0.543683241	 1.8738328073	-0.8669095546	 0.157075
H	-0.5269497311	 1.8644789488	 0.9017152588	 0.157078
H	 2.1893559409	-2.8196537836	-0.025643268	 0.122701
H	 0.0877219149	-6.3645923495	-0.0319937674	 0.123137
H	-2.1071264654	-2.8766685086	-0.0003012911	 0.122752
16.0775	88.9954	94.9311	238.965	302.6829	375.1935	413.2512	420.0755	522.8746	552.6039	639.9545	749.2906	764.1005	940.9824	985.5546	994.7728	1013.9845	1048.5832	1052.0818	1059.6799	1150.4047	1214.8295	1232.6924	1309.5944	1367.7256	1412.8708	1447.311	1457.9483	1473.9886	1474.4832	1572.9881	1617.6432	2354.4275	3028.8633	3089.448	3094.8461	3163.4207	3163.7452	3172.1233
CC#CC1=CN=CN=C1	CC#Cc1cncnc1	
InChI=1S/C7H6N2/c1-2-3-7-4-8-6-9-5-7/h4-6H,1H3	InChI=1S/C7H6N2/c1-2-3-7-4-8-6-9-5-7/h4-6H,1H3
