20
gdb 75561	2.71444	1.41944	0.99748	3.5445	84.89	-0.213	0.0024	0.2155	1212.9712	0.172669	-403.199851	-403.191298	-403.190354	-403.233091	32.621	
C	-0.1677273066	 1.5416980093	-0.0386480739	-0.458991
C	-0.0316393339	 0.042758185	-0.0394755594	 0.344492
C	-0.0258415812	-0.6704198608	-1.17577519	-0.148985
C	 0.1223588933	-2.1636375039	-1.2666669303	-0.259894
C	 0.4805508257	-2.7728675911	 0.094648005	-0.207908
C	-0.3074341063	-2.0576221088	 1.1927745551	-0.181639
N	 0.0226462928	-0.6313458663	 1.2123233658	-0.121424
C	 0.42605312	-0.0592468151	 2.3945702994	 0.141857
O	 0.8067960758	 1.0770061965	 2.5691156172	-0.334812
H	 0.7236715036	 2.031653883	 0.3546643067	 0.159323
H	-0.3491924965	 1.8828399079	-1.0606049786	 0.110962
H	-1.0018019388	 1.864073773	 0.5929351326	 0.130319
H	-0.1386806394	-0.1248783365	-2.1070354069	 0.086696
H	-0.8105750614	-2.6063012925	-1.6458041042	 0.10896
H	 0.8883788747	-2.420147548	-2.0092987115	 0.110353
H	 0.2642483333	-3.8454955527	 0.1166962051	 0.102331
H	 1.5509514412	-2.6503763733	 0.294365167	 0.113456
H	-1.3846276413	-2.1760145808	 1.0134629998	 0.114762
H	-0.0855082592	-2.4752811469	 2.177765306	 0.115344
H	 0.3597733141	-0.791838268	 3.2231242949	 0.074801
57.7674	169.5526	200.2986	237.6493	273.9106	293.2941	335.1694	391.6523	414.7561	479.7492	582.7934	645.0288	653.1306	770.0166	805.6476	883.8604	892.633	930.1388	960.0188	1021.1091	1040.3722	1070.0154	1090.2512	1098.4467	1149.2357	1186.4835	1200.5712	1256.4897	1289.8122	1341.8749	1366.2793	1372.5722	1390.1047	1414.8316	1422.1255	1459.7031	1469.622	1477.9021	1485.7716	1492.958	1502.9291	1721.7244	1797.4456	2930.9572	2996.5813	3014.85	3034.4168	3048.1295	3048.6897	3089.8768	3097.8052	3113.4924	3143.691	3178.6777
CC1=CCCCN1C=O	CC1=CCCCN1C=O	
InChI=1S/C7H11NO/c1-7-4-2-3-5-8(7)6-9/h4,6H,2-3,5H2,1H3	InChI=1S/C7H11NO/c1-7-4-2-3-5-8(7)6-9/h4,6H,2-3,5H2,1H3
