16
gdb 127465	3.55027	1.10611	0.87967	2.4378	68.74	-0.2185	0.005	0.2234	1280.1918	0.125071	-471.245643	-471.236773	-471.235829	-471.279931	31.262	
C	-0.4019254331	 1.4474055796	 0.0928598619	-0.327129
N	-0.1918898319	 0.0277028632	-0.041600778	-0.065245
N	-0.4872889099	-0.6384738145	-1.2102440678	-0.299387
C	-0.1713551398	-1.8761618109	-0.9749285867	 0.354499
C	-0.3246255775	-3.0067450808	-1.9394805322	-0.174872
O	 0.8327008582	-3.8298386901	-1.9819699742	-0.413057
N	 0.3228553802	-2.0373239025	 0.2954801671	-0.396358
C	 0.3363809162	-0.7946591843	 0.9374386154	 0.465957
O	 0.7133403261	-0.5145007814	 2.0560649382	-0.433648
H	 0.1874082063	 1.9999856768	-0.6451512666	 0.138806
H	-1.4590996633	 1.6980995797	-0.0356479622	 0.140329
H	-0.0796523086	 1.7210336555	 1.0988842746	 0.168287
H	-1.1372100613	-3.669672851	-1.6207928821	 0.134882
H	-0.5963720252	-2.5890832709	-2.9166973748	 0.130525
H	 1.5539307102	-3.3067475688	-2.348714174	 0.293442
H	 0.6993891632	-2.8816890996	 0.6907189114	 0.282967
55.1032	111.9213	119.5497	172.4216	219.77	274.063	311.2297	385.1926	419.0268	511.7584	556.8532	636.9375	694.3336	724.176	757.166	839.6281	971.3669	1008.3169	1037.6341	1070.7061	1146.0188	1159.4635	1197.1743	1255.6326	1273.7176	1366.924	1411.8436	1418.4146	1447.5642	1480.3943	1484.4612	1492.086	1515.8668	1638.3323	1838.8735	3031.3081	3041.5614	3075.2803	3103.0935	3151.981	3685.9296	3806.8083
CN1N=C(CO)NC1=O	Cn1nc(CO)[nH]c1=O	
InChI=1S/C4H7N3O2/c1-7-4(9)5-3(2-8)6-7/h8H,2H2,1H3,(H,5,6,9)	InChI=1S/C4H7N3O2/c1-7-4(9)5-3(2-8)6-7/h8H,2H2,1H3,(H,5,6,9)
