18
gdb 13361	6.0078	0.99212	0.90872	0.1381	82.7	-0.2344	0.0245	0.2589	1316.8466	0.153886	-310.660167	-310.651679	-310.650735	-310.695101	30.033	
C	 0.0333525059	 1.5262652883	-0.0263684289	-0.497237
C	-0.0031373558	 0.0704525876	-0.0161377912	 0.054465
C	-0.0326726182	-1.1337465763	-0.0094739085	 0.07039
C	-0.071722957	-2.5929551505	 0.0080592946	-0.188124
C	 0.6837476825	-3.2372788359	 1.2136093086	-0.21173
C	-0.1209800367	-4.5108650497	 1.5687969052	-0.2581
C	-1.4842340161	-4.224211856	 0.9837381022	-0.06947
C	-1.4661361771	-3.190832399	 0.1467832804	-0.055522
H	 0.7747221297	 1.9115339205	 0.6827475134	 0.145344
H	 0.2937228516	 1.9133588051	-1.0179415839	 0.144733
H	-0.937966307	 1.9520137984	 0.2495298262	 0.145479
H	 0.368319056	-2.9547799972	-0.9351830067	 0.102037
H	 1.7334226725	-3.4350074393	 0.9850708392	 0.100939
H	 0.6532631383	-2.5363564565	 2.0520714988	 0.115272
H	 0.3137630596	-5.4108855429	 1.1106167338	 0.105663
H	-0.147791817	-4.6997705441	 2.6477793554	 0.103904
H	-2.355494453	-4.8315364236	 1.2038911999	 0.092925
H	-2.3067814183	-2.8087770291	-0.4199572085	 0.099032
14.6413	76.4953	99.7977	168.4461	282.2371	297.408	390.7768	455.4271	515.3669	573.5333	738.848	765.053	818.2975	852.3596	907.7404	925.3488	972.0787	993.4749	1025.1031	1052.4273	1054.2352	1069.8498	1123.1614	1164.1778	1183.3489	1220.9538	1275.5	1296.4229	1314.973	1334.7178	1377.1643	1415.2851	1479.3061	1479.6891	1483.865	1499.5142	1686.6869	2369.2522	2966.2821	3005.1547	3023.802	3052.6121	3068.1685	3083.1538	3083.386	3113.9786	3184.4047	3214.0337
CC#CC1CCC=C1	CC#C[C@H]1CCC=C1	
InChI=1S/C8H10/c1-2-5-8-6-3-4-7-8/h3,6,8H,4,7H2,1H3	InChI=1S/C8H10/c1-2-5-8-6-3-4-7-8/h3,6,8H,4,7H2,1H3/t8-/m1/s1
