20
gdb 119696	4.28042	0.94288	0.92008	1.8616	78.44	-0.2338	0.0817	0.3154	1343.5965	0.17169	-403.075627	-403.067339	-403.066395	-403.10903	31.836	
O	 0.0694195665	 1.4243125571	 0.0806515376	-0.418821
C	 0.0300411678	 0.008141899	 0.1527985611	-0.059126
C	-1.340449666	-0.56501964	-0.2289088052	-0.337786
C	-1.3650515102	-2.0622391396	-0.1867381252	 0.367202
C	-0.6933852421	-3.0594876288	-1.1385609345	-0.291381
C	-1.5044251613	-4.1521914029	-0.3932803726	-0.085564
C	-0.9154156578	-4.078487015	 1.0236415737	-0.145969
N	-1.4920100332	-2.7026168057	 1.181511265	-0.186389
C	-2.4731195402	-3.0071115627	 0.0973325255	-0.115401
H	-0.5269136366	 1.7671232429	 0.7539328396	 0.281242
H	 0.7938331068	-0.3430284132	-0.5497927748	 0.109645
H	 0.3109061124	-0.3571366017	 1.151590137	 0.105582
H	-2.0966437985	-0.1805195837	 0.467368176	 0.098669
H	-1.6101134252	-0.2098017119	-1.2308484659	 0.105702
H	-1.0523208513	-2.9071882575	-2.1601665822	 0.10603
H	 0.3986931065	-3.1529085515	-1.1396988581	 0.09444
H	-1.7673636607	-5.0894947461	-0.8796002805	 0.074237
H	-1.4090568191	-4.7411525753	 1.7395292213	 0.107816
H	 0.1729700375	-4.1506298478	 1.1394596088	 0.094647
H	-3.5453458155	-2.8926298255	 0.1927573432	 0.095228
71.7427	95.824	114.6404	298.4489	316.3952	325.2764	354.8482	442.7266	476.606	674.7153	703.8468	762.3712	789.3006	808.8181	852.0808	913.3411	925.8342	954.807	977.9283	994.9234	1011.4592	1026.6283	1045.5308	1073.8215	1090.3361	1118.1804	1144.0848	1151.5409	1159.7465	1196.5616	1230.159	1249.0558	1278.5489	1290.6211	1315.4174	1330.8125	1389.1965	1416.3831	1427.4023	1474.0052	1494.1643	1512.6106	1514.5998	2999.4999	3023.2081	3027.0438	3037.1201	3057.5927	3079.8892	3096.745	3100.0684	3133.8979	3196.7624	3815.8898
OCCC12CC3CN1C23	OCC[C@@]12C[C@H]3CN1[C@@H]23	
InChI=1S/C7H11NO/c9-2-1-7-3-5-4-8(7)6(5)7/h5-6,9H,1-4H2	InChI=1S/C7H11NO/c9-2-1-7-3-5-4-8(7)6(5)7/h5-6,9H,1-4H2/t5-,6+,7-,8?/m0/s1
