21
gdb 38186	4.10807	1.01536	0.91364	1.6964	82.26	-0.2487	0.0844	0.3331	1339.2037	0.183421	-387.038222	-387.030128	-387.029184	-387.071474	31.424	
C	-0.0695098131	 1.5596726002	-0.0692791901	-0.207156
C	 1.4773991776	 1.5372008056	 0.0600068863	-0.234819
C	 1.3729768014	 0.0765779085	 0.5890999771	 0.057011
C	-0.057814439	 0.0081074892	-0.0228808356	-0.237157
C	 2.4094365103	-0.9378262387	 0.1573883187	-0.03496
C	 3.8664135919	-0.8392113831	 0.7586054396	-0.281503
C	 3.6806203067	-2.254306435	 1.3190209782	 0.037832
O	 2.5354465688	-2.2220488298	 2.180474415	-0.245705
C	 2.3198178477	-2.3523768105	 0.7698224366	 0.01036
H	-0.5429013584	 1.9862680169	 0.8196728983	 0.102703
H	-0.4985293275	 2.0391244394	-0.9523043406	 0.093805
H	 1.9627033125	 1.5704021867	-0.9217182864	 0.092978
H	 1.951060325	 2.2818761705	 0.7046572732	 0.094205
H	 1.3121958272	 0.0761937998	 1.6820254507	 0.083256
H	-0.8363268027	-0.4946607572	 0.5560395027	 0.097546
H	-0.0402747288	-0.4242909806	-1.0295748695	 0.092032
H	 2.4579391772	-0.9951560474	-0.9362602503	 0.067636
H	 4.6357484383	-0.7709804664	-0.0139716203	 0.103967
H	 4.0342928831	-0.0650984397	 1.5117745914	 0.108365
H	 4.4222829577	-3.0198959234	 1.5155722717	 0.102026
H	 1.7457385541	-3.210032605	 0.4371845133	 0.097579
67.8904	104.6667	146.3817	170.609	344.9149	370.9104	389.5321	529.8666	654.234	734.3839	768.5041	785.3858	834.663	852.4895	885.2604	909.5833	918.5269	931.7259	936.9645	956.3403	988.2412	1000.7526	1005.8313	1050.3796	1066.5926	1106.7058	1127.513	1197.7303	1206.517	1215.2426	1238.9939	1240.5702	1245.5263	1256.7405	1266.454	1271.1817	1279.9749	1299.7544	1311.0993	1386.1679	1405.8387	1473.1773	1478.4394	1486.661	1510.4999	3038.4218	3040.2338	3043.3822	3057.8121	3062.2743	3064.4493	3094.9582	3098.5936	3115.7625	3121.4109	3174.6833	3191.0189
C1CC(C1)C1CC2OC12	C1CC(C1)[C@H]1C[C@H]2O[C@@H]12	
InChI=1S/C8H12O/c1-2-5(3-1)6-4-7-8(6)9-7/h5-8H,1-4H2	InChI=1S/C8H12O/c1-2-5(3-1)6-4-7-8(6)9-7/h5-8H,1-4H2/t6-,7-,8+/m1/s1
