20
gdb 107620	2.54052	1.51122	1.13629	4.065	75.44	-0.2371	0.0563	0.2934	1130.8242	0.171041	-440.259204	-440.2503	-440.249356	-440.292664	33.674	
C	 0.1171509238	 1.5649001841	-0.1446759706	-0.402969
C	 0.0426656275	 0.0520959884	-0.0200509899	 0.10741
O	 0.7448765823	-0.5290559455	-1.124920992	-0.274448
C	 1.3302251579	-1.7647473956	-0.743565816	-0.077031
C	 1.5220490436	-1.6812301222	 0.7558843664	-0.131891
N	 2.1665175216	-0.4219705226	 1.1742400284	-0.357389
C	 0.6938220288	-0.5465852924	 1.2244792601	 0.334549
C	-0.0351647169	-0.5588271651	 2.5351939465	-0.201305
O	-0.1089582504	 0.7732729094	 3.0290275704	-0.412208
H	 1.1597920042	 1.8846467142	-0.0814465874	 0.138017
H	-0.2945326757	 1.8855252846	-1.1056387647	 0.113807
H	-0.4478110767	 2.0352772204	 0.663766549	 0.122829
H	-1.0123719488	-0.2764171348	-0.0336102167	 0.056267
H	 0.6742637342	-2.6187781657	-0.982655288	 0.08521
H	 2.2660254096	-1.8766804833	-1.3011836923	 0.112523
H	 1.6570021401	-2.5852431325	 1.3417452117	 0.088856
H	 2.5399290421	-0.5263224175	 2.1157239809	 0.230552
H	-1.0417557646	-0.9816935159	 2.3875305167	 0.094819
H	 0.4977367715	-1.215077828	 3.2431669893	 0.081678
H	-0.675387704	 0.77503586	 3.8065025682	 0.290724
80.292	129.9316	177.3562	226.3542	250.1052	260.2071	311.9196	329.2061	395.629	456.6067	540.0393	641.019	679.5501	770.2322	832.5945	886.8374	887.8782	916.1754	981.0315	1015.6151	1047.7476	1051.1958	1070.6284	1100.1482	1103.8065	1115.3827	1148.3633	1163.3772	1232.5413	1237.9838	1250.1134	1290.4529	1316.5096	1358.1688	1386.6732	1397.3877	1406.0505	1435.3554	1477.2792	1485.7558	1500.8069	1508.3802	1509.7008	2935.9842	2958.6236	2965.2414	2992.1233	3051.3573	3068.3337	3127.5207	3139.8228	3160.9428	3489.0633	3827.0755
CC1OCC2NC12CO	C[C@H]1OC[C@H]2N[C@@]12CO	
InChI=1S/C6H11NO2/c1-4-6(3-8)5(7-6)2-9-4/h4-5,7-8H,2-3H2,1H3	InChI=1S/C6H11NO2/c1-4-6(3-8)5(7-6)2-9-4/h4-5,7-8H,2-3H2,1H3/t4-,5-,6+/m1/s1
