17
gdb 58080	1.86966	1.46002	1.28779	1.8147	76.22	-0.2656	0.0048	0.2703	1129.0673	0.130249	-421.742902	-421.732414	-421.73147	-421.777634	38.808	
C	-0.2574033974	 1.5206426111	 0.0431942018	-0.422463
C	-0.0029374503	 0.0179973285	-0.0294230526	 0.124611
O	 0.6615185648	-0.3642553378	-1.2137096152	-0.430613
C	 0.7804823953	-0.5128697332	 1.2224602364	-0.032257
O	 0.0430906105	-0.0709168778	 2.3608178213	-0.43739
C	 0.8506530515	-1.981305114	 1.1874414535	 0.328349
C	 0.8779788455	-3.181943393	 1.2107757261	-0.448871
C	 2.1480797341	 0.0430279507	 1.2215821643	 0.319863
C	 3.2517574858	 0.5199918236	 1.2066734004	-0.477648
H	 0.6871112766	 2.074444155	 0.0779494957	 0.118417
H	-0.808267874	 1.8307392405	-0.8485622954	 0.122318
H	-0.8371387165	 1.7777660471	 0.9315179988	 0.14058
H	-0.9534816792	-0.5235034171	-0.0333096811	 0.109829
H	 1.5129438594	 0.0904301465	-1.2289339893	 0.283809
H	 0.4231183707	-0.4949353946	 3.1384347066	 0.291468
H	 0.9056137761	-4.2438565625	 1.2140281225	 0.202753
H	 4.2324102771	 0.929264797	 1.2116511462	 0.207245
82.5	123.5075	138.3819	151.64	219.9821	247.2126	268.5246	285.7054	338.3677	365.327	400.7643	443.3693	507.2438	521.1139	562.9604	639.3618	642.34	654.5324	666.1423	669.4823	677.0662	902.3586	961.3255	1009.8584	1071.986	1105.2488	1116.9066	1166.6643	1300.3874	1341.2969	1359.7784	1399.2508	1422.0004	1488.0782	1496.6662	2225.7162	2236.8911	3043.6178	3075.5563	3116.3364	3143.2155	3496.4411	3500.3986	3778.0803	3809.259
CC(O)C(O)(C#C)C#C	C[C@@H](O)C(O)(C#C)C#C	
InChI=1S/C7H8O2/c1-4-7(9,5-2)6(3)8/h1-2,6,8-9H,3H3	InChI=1S/C7H8O2/c1-4-7(9,5-2)6(3)8/h1-2,6,8-9H,3H3/t6-/m1/s1
