17
gdb 73186	2.45785	1.4625	1.34137	2.4569	73.92	-0.2408	0.0152	0.256	1046.9528	0.133799	-421.750848	-421.742326	-421.741382	-421.784062	32.342	
O	-0.1548055807	 1.5283587442	 0.1393837817	-0.474172
C	-0.0356346343	 0.1513957096	-0.0050465325	 0.325071
C	 0.4349706166	-0.4321244416	-1.3641640395	-0.308367
C	-0.8305385598	-1.3507991617	-1.3991788523	-0.226803
C	-1.2643022962	-0.7963014785	-0.0245657836	 0.079678
O	-0.7317930761	-1.5715336814	 1.0723027823	-0.30323
C	 0.3928375048	-0.6676258806	 1.2556135514	-0.100876
C	 1.6881344249	-1.31786452	 1.288308811	 0.322213
C	 2.7754888493	-1.8321938528	 1.2989357831	-0.448821
H	 0.6658403993	 1.9395251594	-0.1540609853	 0.287295
H	 0.4331962962	 0.3293778706	-2.1478326033	 0.105039
H	 1.4042730565	-0.9342042158	-1.3494249119	 0.118748
H	-1.5210521727	-1.1062666567	-2.2098744072	 0.106633
H	-0.6450304107	-2.4259377038	-1.3939298581	 0.119657
H	-2.2981388591	-0.4863902506	 0.1401490469	 0.086251
H	 0.2468894449	-0.0595602355	 2.1585874332	 0.109087
H	 3.7314345574	-2.2947532449	 1.3218748041	 0.202596
62.6829	138.1219	177.3073	183.0387	278.7672	346.1683	373.2429	406.4348	510.3462	542.6331	614.6143	650.1213	660.0084	673.4978	739.6714	848.1933	878.9545	916.2903	947.0933	956.1419	1013.9982	1028.4989	1060.2916	1108.75	1163.4344	1185.8193	1191.2646	1227.3996	1247.3757	1264.0388	1298.1642	1312.3646	1358.06	1394.0277	1459.6189	1479.2658	2228.2916	3014.611	3065.2865	3071.209	3094.9491	3120.5873	3137.9413	3501.0825	3801.3266
OC12CCC1OC2C#C	O[C@]12CC[C@H]1O[C@H]2C#C	
InChI=1S/C7H8O2/c1-2-5-7(8)4-3-6(7)9-5/h1,5-6,8H,3-4H2	InChI=1S/C7H8O2/c1-2-5-7(8)4-3-6(7)9-5/h1,5-6,8H,3-4H2/t5-,6+,7-/m0/s1
