16
gdb 12898	3.27999	1.83591	1.51124	5.6859	69.55	-0.2314	0.0355	0.2669	885.2139	0.131224	-342.752425	-342.744936	-342.743992	-342.78401	28.034	
C	 0.0094309298	 1.5674565833	-0.032886552	-0.498488
C	-0.0049305887	 0.0705161042	 0.0641025375	 0.292514
C	-1.2598537773	-0.8168354791	 0.0607752536	-0.235311
N	-0.5757186535	-1.8305805985	 0.9389009785	-0.316974
C	 0.5788178615	-0.9274967884	 1.0456616413	-0.062742
C	 1.2065776863	-0.7796562055	-0.3255440634	-0.234064
C	 1.1588635518	-1.8132807437	-1.3243310502	 0.312959
N	 1.12287787	-2.6248874098	-2.1477495553	-0.349967
H	 0.9967761834	 1.9710981631	 0.2123373247	 0.126022
H	-0.2421845151	 1.9002994815	-1.0466411708	 0.135932
H	-0.7159998149	 2.0140364434	 0.6560066424	 0.125183
H	-2.0967573069	-0.31918057	 0.5602389781	 0.109707
H	-1.5940266588	-1.2190975931	-0.9005116609	 0.130543
H	-1.0545855165	-1.9163962604	 1.8286372337	 0.229778
H	 1.1603802666	-0.8119098324	 1.9534778795	 0.105932
H	 2.1319846121	-0.2104137647	-0.3253556268	 0.128977
133.0602	140.1882	196.2854	237.388	309.6703	364.2363	387.2935	550.6277	604.6608	619.8426	765.2988	792.2809	816.1742	891.5279	940.1756	961.3278	997.4322	1004.4302	1015.6298	1043.8246	1097.1271	1134.646	1161.7815	1241.0354	1265.0133	1272.8484	1344.5201	1358.8456	1417.815	1464.7046	1485.6249	1497.0123	1504.7979	2353.1933	3026.0655	3044.96	3087.8498	3097.2014	3102.6946	3156.1057	3179.006	3536.4992
CC12CNC1C2C#N	C[C@]12CN[C@H]1[C@H]2C#N	
InChI=1S/C6H8N2/c1-6-3-8-5(6)4(6)2-7/h4-5,8H,3H2,1H3	InChI=1S/C6H8N2/c1-6-3-8-5(6)4(6)2-7/h4-5,8H,3H2,1H3/t4-,5+,6-/m1/s1
