16
gdb 32185	2.13678	1.67105	0.99596	4.0915	73.46	-0.2278	-0.0467	0.1811	1155.2358	0.125638	-434.106709	-434.098342	-434.097398	-434.140353	29.71	
C	 0.3904719256	 0.8120444502	 0.5335727221	-0.334233
N	-0.1859114537	 0.110927031	-0.6247547493	-0.394129
C	-1.3874015573	-0.5713545189	-0.3949044333	 0.275603
C	-2.7065290116	-0.2537728091	-0.5331543581	-0.143859
N	-3.5179448555	-1.329312801	-0.1954832261	-0.266172
C	-2.7092402039	-2.2849350994	 0.1576686667	 0.031632
N	-1.3817171856	-1.9041213651	 0.0531878566	-0.092125
C	-0.2655735846	-2.7226250988	 0.2418198508	 0.175436
O	-0.3336317655	-3.857554739	 0.6331282637	-0.286377
H	 1.3238291787	 1.2915023344	 0.2273801107	 0.130489
H	-0.280138407	 1.5712969158	 0.9604669515	 0.122179
H	 0.6260282365	 0.0886879391	 1.3191735317	 0.135147
H	-0.29125359	 0.7450839042	-1.406531717	 0.245307
H	-3.1278778943	 0.6843034502	-0.8622274879	 0.114933
H	-2.9753164542	-3.2743260239	 0.4942635546	 0.162141
H	 0.6679593725	-2.2015089597	-0.0226008865	 0.124025
61.5688	144.8811	151.8397	164.4727	214.7348	249.4669	357.7173	401.2635	572.0307	632.79	670.4549	686.3552	751.3482	829.6015	843.7009	858.3492	931.1607	1038.5881	1053.393	1117.7589	1138.2453	1154.6246	1207.9437	1247.8087	1277.9425	1337.3189	1398.7182	1424.5886	1452.9366	1471.8827	1488.8469	1510.8782	1537.3553	1624.4837	1824.4136	3001.8628	3024.1064	3086.0425	3122.6976	3247.3406	3274.856	3562.1513
CNC1=CN=CN1C=O	CNc1cncn1C=O	
InChI=1S/C5H7N3O/c1-6-5-2-7-3-8(5)4-9/h2-4,6H,1H3	InChI=1S/C5H7N3O/c1-6-5-2-7-3-8(5)4-9/h2-4,6H,1H3
