22
gdb 82752	2.21464	2.06451	1.50033	1.725	84.68	-0.2203	0.0807	0.301	1010.3649	0.196087	-367.168025	-367.160137	-367.159192	-367.199717	32.589	
C	-0.1421524261	 1.512394609	-0.0023340475	-0.440498
C	 0.0815043123	 0.0006226518	 0.0315870886	 0.015303
C	 1.0992023612	-0.5911757144	-0.9756248574	-0.015411
C	 2.4278903543	 0.10489441	-0.6140276704	-0.245309
C	 2.2630279543	-0.751659035	 0.6382179938	-0.034299
N	 1.6253318239	-1.8432432121	-0.2237089088	-0.157012
C	 0.6731064544	-2.0980882809	 0.9081567219	-0.206339
C	 0.8058945974	-0.6042181031	 1.269762352	 0.299826
C	 0.527643155	-0.0561046787	 2.6493194329	-0.514366
H	 0.7490821631	 2.084853512	 0.2672219009	 0.119284
H	-0.4550665444	 1.8365560248	-1.0013409696	 0.115808
H	-0.9348893367	 1.7992086529	 0.6965085611	 0.116278
H	-0.8962243802	-0.4804134146	-0.0920363316	 0.06521
H	 0.7809696939	-0.7424387674	-2.0073270161	 0.06687
H	 3.2544840011	-0.275459857	-1.2182903931	 0.112619
H	 2.471151641	 1.1919744529	-0.5521198531	 0.095105
H	 3.08076774	-1.0352259165	 1.3040471574	 0.068663
H	-0.3144452338	-2.4933111553	 0.6448658874	 0.091129
H	 1.1621233319	-2.7753370962	 1.6161361064	 0.097612
H	 1.1197897467	-0.5776286784	 3.4092282506	 0.114652
H	 0.765018955	 1.0110786284	 2.7184553528	 0.118165
H	-0.5294668643	-0.1760483322	 2.9154845415	 0.116709
159.2813	204.0686	211.5136	234.2518	309.2258	338.6734	448.7149	469.0588	508.1635	604.1193	665.5378	724.4257	766.8625	787.5607	819.3236	863.5604	894.101	923.8193	955.8425	970.2137	1009.2676	1020.6111	1030.406	1039.3492	1074.5212	1087.962	1122.7125	1143.5081	1167.4304	1178.2123	1196.1545	1225.0052	1238.2573	1250.3011	1272.9623	1284.208	1306.8016	1357.984	1391.2969	1410.4523	1415.1263	1481.0365	1488.3269	1495.008	1497.5963	1509.8442	1514.3163	3022.0649	3022.5412	3032.1919	3034.7931	3077.4232	3084.1051	3086.9692	3090.7617	3093.2444	3095.4091	3111.259	3112.9536	3141.416
CC1C2CC3N2CC13C	C[C@H]1[C@H]2C[C@@H]3N2C[C@]13C	
InChI=1S/C8H13N/c1-5-6-3-7-8(5,2)4-9(6)7/h5-7H,3-4H2,1-2H3	InChI=1S/C8H13N/c1-5-6-3-7-8(5,2)4-9(6)7/h5-7H,3-4H2,1-2H3/t5-,6+,7-,8+/m0/s1
