19
gdb 58375	2.17753	1.19748	0.93194	4.2149	82.11	-0.2312	0.0217	0.2529	1321.3967	0.15669	-382.032605	-382.022246	-382.021302	-382.068298	36.923	
C	 1.015873272	-0.2895557231	-0.9177258667	-0.331925
N	 0.0197908721	 0.028176736	 0.0985976679	-0.035742
C	-0.0255172981	 1.4577416638	 0.3786703162	-0.325709
C	-1.3087000761	-0.53260213	-0.1425848347	-0.168368
C	-1.8900610043	-0.1873070191	-1.4523014496	 0.3391
C	-2.3203573302	 0.1037259507	-2.5369242299	-0.453354
C	-1.3226034687	-2.0742973974	 0.0407283273	-0.364102
C	-0.8629811791	-2.4797983702	 1.3665506039	 0.272436
N	-0.5216212345	-2.8149091393	 2.4180061911	-0.307439
H	 1.987648811	 0.0820608654	-0.5812566133	 0.129041
H	 1.1082040957	-1.3712670066	-1.0454283069	 0.121176
H	 0.7937484632	 0.157222312	-1.9012382899	 0.111
H	-0.3464861835	 2.0633870012	-0.4868305414	 0.108228
H	-0.7117948215	 1.6512775063	 1.2087386302	 0.124708
H	 0.9706559667	 1.7946539758	 0.6791958026	 0.126579
H	-1.9597410906	-0.1190791652	 0.6367311495	 0.126842
H	-2.7150706577	 0.3674683149	-3.4874687928	 0.204172
H	-2.3432140731	-2.4387530921	-0.1119692297	 0.163193
H	-0.7024248833	-2.555003363	-0.7211369338	 0.160163
51.8208	80.2145	115.8978	136.4169	215.7707	235.386	243.0832	282.3658	342.8811	385.4612	398.3289	425.4771	492.7002	586.3554	600.0115	646.2538	666.193	767.7584	934.3529	946.8101	974.976	1033.3913	1065.4094	1084.14	1120.4669	1185.7755	1188.145	1253.1748	1286.3472	1308.8545	1353.1973	1384.5129	1442.8547	1461.4705	1478.7874	1483.9174	1497.0012	1501.1505	1515.9308	2222.6656	2367.0115	2956.4531	2972.5302	3038.047	3066.1722	3068.8085	3079.8837	3105.9133	3111.3869	3117.6621	3499.486
CN(C)C(C#C)CC#N	CN(C)[C@@H](C#C)CC#N	
InChI=1S/C7H10N2/c1-4-7(5-6-8)9(2)3/h1,7H,5H2,2-3H3	InChI=1S/C7H10N2/c1-4-7(5-6-8)9(2)3/h1,7H,5H2,2-3H3/t7-/m0/s1
