17
gdb 75770	2.42969	1.33295	1.15594	3.3893	74.79	-0.2847	-0.0047	0.28	1143.0774	0.134425	-418.027437	-418.018346	-418.017401	-418.061222	33.224	
C	-0.3559181093	 1.4259240309	-0.0685443118	-0.417064
C	-0.0082219246	-0.0549397764	-0.0584513049	-0.181086
C	 1.2278720627	-0.5059115279	-0.8087787497	 0.442138
N	 1.6373440425	-0.3715062975	-1.9821406109	-0.53815
O	 1.8087367468	-1.13053631	 0.2840407432	-0.279544
C	 0.7239384087	-0.6978717339	 1.1751239101	 0.244793
C	 1.2491875068	 0.2107618789	 2.2759737521	-0.438335
C	 0.0312744337	-1.8635183493	 1.7338345229	 0.263838
N	-0.5371226963	-2.7627973913	 2.1845865067	-0.327199
H	 0.4972756179	 2.0529087123	 0.2006790843	 0.131013
H	-0.6693114029	 1.7107606648	-1.0764880097	 0.154343
H	-1.1798817324	 1.6415654302	 0.6179581504	 0.131979
H	-0.8786574745	-0.6502817212	-0.3462668054	 0.134591
H	 2.5445550451	-0.8172286221	-2.1263721441	 0.237099
H	 1.7956250511	 1.0494170616	 1.8406626756	 0.140747
H	 0.4245240601	 0.5956607943	 2.882218605	 0.146345
H	 1.9265210046	-0.3476669736	 2.926647036	 0.154492
69.2918	144.3056	186.3279	197.9719	207.6887	229.2616	276.5808	359.4849	409.165	443.6153	520.5366	593.3986	629.6297	647.3981	770.4974	827.0622	868.2931	873.8285	926.3472	1000.9492	1025.8774	1077.7605	1102.9392	1132.8563	1193.9001	1202.6074	1252.7366	1293.2821	1360.92	1406.8312	1416.5022	1476.0547	1484.046	1496.6635	1503.1062	1838.5119	2358.6334	3049.4632	3055.7597	3082.2759	3122.1556	3129.4794	3132.2712	3144.7326	3484.8134
CC1C(=N)OC1(C)C#N	C[C@H]1[C]([NH])O[C@]1(C)C#N	
InChI=1S/C6H8N2O/c1-4-5(8)9-6(4,2)3-7/h4,8H,1-2H3	InChI=1S/C6H8N2O/c1-4-5(8)9-6(4,2)3-7/h4,8H,1-2H3/t4-,6+/m0/s1
