23
gdb 115948	3.08315	1.19794	0.99132	1.5466	84.44	-0.239	0.076	0.315	1301.9602	0.207438	-388.292678	-388.283888	-388.282944	-388.326505	33.851	
C	-0.0182819248	 1.6267175818	-0.0511811084	-0.383876
C	 0.0256790748	 0.0968935867	 0.0468982877	-0.196743
C	-1.3551710347	-0.5601628197	-0.0260134655	 0.023104
C	-2.1072062518	-0.3823327031	-1.3581057414	-0.102568
O	-3.1267995672	-1.3740275619	-1.3612746485	-0.262343
C	-2.6368089117	-2.5261664878	-0.692878228	 0.113075
C	-1.7339490856	-3.4660359116	-1.5417400175	-0.238028
C	-0.4831637405	-2.9673814874	-0.7636217276	-0.239459
C	-1.3971340239	-2.0885873732	 0.1489723324	-0.063096
H	 0.9827096655	 2.0570148798	 0.0514767656	 0.11285
H	-0.421904867	 1.9587776127	-1.0135186358	 0.119752
H	-0.6474201873	 2.0558200702	 0.7366762351	 0.115446
H	 0.6671790796	-0.2983061508	-0.7501957108	 0.097554
H	 0.5043179357	-0.1902894892	 0.9915534077	 0.096144
H	-1.9856155905	-0.1286550734	 0.7636647818	 0.075074
H	-2.5934664747	 0.5904857563	-1.468048795	 0.107749
H	-1.4194128438	-0.51474534	-2.2113566267	 0.083793
H	-3.4844413462	-2.9986988101	-0.1905284235	 0.073177
H	-1.9545607853	-4.5274079834	-1.4022226571	 0.098617
H	-1.7551111547	-3.2460115996	-2.6119456581	 0.105272
H	 0.06719123	-3.7451101109	-0.2297069551	 0.100106
H	 0.2341393117	-2.4084091588	-1.3695866956	 0.0987
H	-1.3932033675	-2.3844080466	 1.1997036642	 0.065698
68.0812	90.527	153.8144	182.9013	235.2301	283.809	365.9211	401.8385	475.3189	599.0922	640.4315	735.2146	754.0658	777.5894	829.0761	865.1003	898.0507	932.0297	956.2248	960.8248	967.0465	1004.3893	1021.5545	1053.1938	1077.5177	1102.8203	1130.4259	1164.1896	1172.8596	1207.2766	1220.632	1244.6351	1249.8586	1269.1617	1273.3142	1287.9464	1311.6509	1329.7158	1339.7671	1368.0663	1381.808	1402.8741	1413.9758	1469.5934	1486.3098	1491.9569	1500.8221	1507.0034	1522.3238	2953.4333	3008.8826	3023.8059	3031.1597	3054.8326	3059.1162	3065.443	3073.4853	3086.4066	3091.1028	3098.6338	3103.2535	3104.3592	3123.1216
CCC1COC2CCC12	CC[C@H]1CO[C@H]2CC[C@@H]12	
InChI=1S/C8H14O/c1-2-6-5-9-8-4-3-7(6)8/h6-8H,2-5H2,1H3	InChI=1S/C8H14O/c1-2-6-5-9-8-4-3-7(6)8/h6-8H,2-5H2,1H3/t6-,7-,8-/m0/s1
