24
gdb 100973	2.39562	1.08527	0.99031	1.4878	86.05	-0.2214	0.0675	0.289	1404.552	0.214348	-405.522422	-405.511223	-405.510279	-405.558475	41.186	
C	-5.2461927704	-0.7268237798	 1.7960459251	-0.384535
C	-4.0819241323	-1.7076746809	 1.634009367	-0.198232
C	-3.2273624867	-1.4101453104	 0.3924970031	 0.068678
O	-2.6618464764	-0.0977882871	 0.4464847407	-0.441561
C	-2.1528708757	-2.4648503888	 0.1316507017	 0.342077
C	-1.1341529477	-2.668360919	 1.2398311314	-0.472324
C	-2.5106963076	-3.6227905629	-0.7455554444	-0.294401
N	-1.5771727056	-2.6056170647	-1.210537682	-0.121349
C	-1.985062183	-1.7329432984	-2.3031115104	-0.314669
H	-5.8061894414	-0.924064176	 2.714997152	 0.108736
H	-4.8791284267	 0.3023658907	 1.8284694947	 0.128551
H	-5.9450026097	-0.8029647783	 0.9555172251	 0.113782
H	-3.4443745885	-1.673063985	 2.5276261146	 0.091464
H	-4.4559061373	-2.7365625763	 1.5648853309	 0.100597
H	-3.8973766153	-1.3726455749	-0.4720582697	 0.080965
H	-2.0921375802	-0.0534472983	 1.2219860069	 0.279199
H	-1.5934839367	-3.0625274319	 2.1520092786	 0.117577
H	-0.3668068537	-3.3695861913	 0.9057999618	 0.132013
H	-0.6244191957	-1.7302123622	 1.4916605157	 0.106022
H	-2.0976165344	-4.6112644414	-0.555762825	 0.106726
H	-3.5113839717	-3.6300236927	-1.1800736281	 0.098734
H	-3.0734680224	-1.6172056772	-2.4206627325	 0.099374
H	-1.5529836314	-0.7401148956	-2.1527826227	 0.135886
H	-1.5948435596	-2.1468758275	-3.2386453745	 0.116686
50.8261	103.3257	132.5961	179.8428	191.0252	207.1497	230.2311	261.4788	263.0184	272.3337	310.3793	383.6248	449.2809	452.3767	513.5263	549.9378	747.655	760.3723	789.9732	877.0275	920.433	939.4807	980.4716	993.5226	1043.3219	1063.2048	1092.421	1101.7097	1119.4158	1130.0646	1160.8868	1166.484	1202.4854	1250.2586	1286.8108	1299.9825	1328.1012	1365.885	1393.3376	1405.8427	1414.3454	1427.3418	1451.3719	1480.8802	1483.6843	1488.6253	1495.6433	1498.8273	1507.1735	1508.5605	1516.2655	2979.7078	3016.4647	3026.8239	3036.8616	3052.6056	3064.5432	3069.9607	3074.6797	3089.4813	3102.1135	3116.3734	3121.2816	3128.9128	3158.2334	3806.8134
CCC(O)C1(C)CN1C	CC[C@@H](O)[C@@]1(C)CN1C	
InChI=1S/C7H15NO/c1-4-6(9)7(2)5-8(7)3/h6,9H,4-5H2,1-3H3	InChI=1S/C7H15NO/c1-4-6(9)7(2)5-8(7)3/h6,9H,4-5H2,1-3H3/t6-,7-,8?/m1/s1
