19
gdb 107851	3.43991	1.36237	1.29226	1.5936	74.3	-0.2375	0.0692	0.3067	1045.0856	0.160679	-422.975767	-422.968349	-422.967405	-423.007675	29.806	
O	-0.0415273672	 1.3916965186	 0.0737737954	-0.42393
C	-0.0131609983	-0.0259190976	-0.0511285977	-0.211955
C	-1.4266033057	-0.5305501405	 0.0204151851	 0.315436
C	-2.2870420693	-0.4420016504	 1.3126525775	-0.28463
C	-3.0651791428	-1.6157006218	 0.6978103196	-0.080045
C	-3.3653815613	-1.2970215745	-0.823701956	 0.063692
C	-2.4507996209	-0.0799208273	-1.0461961284	-0.238913
O	-2.4854928566	-2.3892838901	-1.2419127704	-0.297193
C	-1.7937957451	-2.101006304	-0.025917523	 0.054063
H	 0.8620437699	 1.7163489397	 0.0163074486	 0.287828
H	 0.4361267758	-0.3330459974	-1.0101460179	 0.090672
H	 0.5880154062	-0.4807775116	 0.7536046784	 0.081244
H	-1.7391833131	-0.7657802483	 2.2033350548	 0.09613
H	-2.7966766969	 0.5027020972	 1.5174242647	 0.103557
H	-3.7469065556	-2.2734258493	 1.2336772292	 0.075897
H	-4.357711911	-1.3384414199	-1.2702098424	 0.079268
H	-2.8985023119	 0.8881018126	-0.8112083767	 0.105409
H	-2.0637025954	-0.0717487937	-2.0675110524	 0.102992
H	-1.0787828806	-2.8511615917	 0.3110963516	 0.080477
83.9417	162.1963	242.8747	292.8831	349.3739	411.5366	469.7395	560.1149	645.0964	670.701	757.1703	805.9085	844.8466	857.0758	882.6169	905.0887	930.2339	958.7636	965.1142	992.5203	1024.6965	1044.9199	1059.2847	1078.0859	1111.6357	1140.7506	1174.307	1193.0491	1197.3549	1218.6534	1229.1242	1257.7201	1265.951	1276.0173	1302.699	1333.672	1354.8743	1465.4452	1477.3899	1504.8906	1515.7859	2955.7482	2983.8458	3051.0216	3070.9465	3107.1294	3122.6626	3126.2489	3130.5883	3142.0293	3825.7544
OCC12CC3C(C1)OC23	OC[C@@]12C[C@H]3[C@@H](C1)O[C@@H]23	
InChI=1S/C7H10O2/c8-3-7-1-4-5(2-7)9-6(4)7/h4-6,8H,1-3H2	InChI=1S/C7H10O2/c8-3-7-1-4-5(2-7)9-6(4)7/h4-6,8H,1-3H2/t4-,5+,6+,7+/m0/s1
