21
gdb 93968	2.78032	1.1902	0.87431	3.872	89.25	-0.2403	-0.0483	0.192	1356.5998	0.181739	-387.136049	-387.126538	-387.125594	-387.170299	35.193	
C	-0.0631552334	 1.5762372945	-0.0129482707	-0.406664
C	 0.0561568543	 0.0485235944	 0.0339210843	-0.049176
C	 0.8044245652	-0.5599158706	-1.1778401439	-0.229336
C	 1.5081262661	-1.8216252373	-0.6358317394	-0.309124
C	 1.6126258262	-1.5381521594	 0.8472190121	 0.127221
C	 2.4578859648	-2.3548716496	 1.7152133471	 0.062851
O	 3.12023863	-3.2932220512	 1.3199317487	-0.277428
C	 0.8190846126	-0.5131886561	 1.2253430917	 0.237911
C	 0.5919195021	 0.0292216633	 2.6009791077	-0.506651
H	 0.9263282722	 2.0470832992	-0.0149353879	 0.118686
H	-0.582295479	 1.8885526126	-0.9245770256	 0.121417
H	-0.6260022518	 1.9712140827	 0.8385092856	 0.11572
H	-0.9656345797	-0.3639799001	 0.0832945137	 0.087191
H	 0.1411367385	-0.7624883785	-2.0227054308	 0.099353
H	 1.5567754471	 0.1596957353	-1.5216781158	 0.102619
H	 0.9136819125	-2.729269347	-0.8046030541	 0.113086
H	 2.4837397862	-2.008287386	-1.0926707655	 0.120591
H	 2.4757271254	-2.0701549599	 2.7891398779	 0.059352
H	 1.1398303129	-0.5132298431	 3.3726133744	 0.135892
H	 0.8831831318	 1.0848412485	 2.6565214823	 0.140659
H	-0.4760245037	-0.0084820118	 2.8524607382	 0.13583
77.2702	125.1945	162.1275	188.1956	198.5783	228.016	272.2483	306.2442	356.8654	401.5955	492.7153	559.2284	603.8044	636.6827	752.8594	816.1948	880.9142	913.0706	960.7343	992.7217	997.4641	1035.6723	1053.5884	1073.2466	1104.5824	1125.979	1186.1735	1208.773	1227.1148	1274.253	1307.8417	1320.9359	1348.7918	1366.5383	1408.5678	1410.6389	1431.2174	1477.0805	1480.0972	1484.8595	1498.4516	1499.8539	1503.6933	1685.9702	1767.6334	2892.3806	2962.4225	3024.0813	3024.4762	3030.7148	3039.0352	3070.6996	3087.362	3096.9576	3101.172	3105.384	3135.1416
CC1CCC(C=O)=C1C	C[C@H]1CCC(=C1C)C=O	
InChI=1S/C8H12O/c1-6-3-4-8(5-9)7(6)2/h5-6H,3-4H2,1-2H3	InChI=1S/C8H12O/c1-6-3-4-8(5-9)7(6)2/h5-6H,3-4H2,1-2H3/t6-/m0/s1
