17
gdb 64552	2.71717	1.541	1.12737	3.3228	73.65	-0.2552	-0.0371	0.2181	1073.7593	0.134215	-421.797533	-421.789251	-421.788307	-421.830488	31.073	
C	-0.0672683045	 1.6277655118	-0.0563277609	-0.48093
C	 0.0123931072	 0.1073629676	-0.0699483942	 0.22086
C	-1.3421770045	-0.4950183399	-0.3819726722	 0.10868
O	-2.3402357316	 0.1462790883	-0.5894686411	-0.257076
C	 1.219098755	-0.6158702901	-0.814739919	-0.206375
C	 2.1253205723	-0.1830418061	 0.3916534685	-0.252625
C	 0.7986287492	-0.6549791329	 1.0849677377	-0.20631
C	 0.9267358373	-1.8242597885	 0.0923416199	 0.437904
O	 0.9288289698	-3.0148582051	 0.068263708	-0.327464
H	 0.8818415926	 2.1159577259	 0.1631743039	 0.119885
H	-0.4217062069	 1.9878519489	-1.0256936746	 0.140792
H	-0.7997861654	 1.9527427967	 0.6871654692	 0.140774
H	-1.364148044	-1.6072688516	-0.4096170267	 0.102938
H	 1.4522006072	-0.5766224345	-1.8766467128	 0.104602
H	 3.0180119849	-0.7826418437	 0.5768505823	 0.125855
H	 2.3431529483	 0.8795178094	 0.4616941039	 0.123907
H	 0.5616932231	-0.6598956961	 2.146743768	 0.104582
93.6254	119.4163	156.2832	199.9294	265.8154	364.9666	376.9332	461.3484	472.6399	511.2212	694.6281	699.1267	734.4387	759.5718	824.1532	884.6929	928.5178	935.3971	1015.2468	1018.7787	1046.8176	1060.393	1088.3711	1108.3171	1145.4804	1161.6693	1193.35	1217.5544	1220.3875	1271.2937	1415.547	1444.996	1482.3942	1487.3879	1530.0624	1825.2636	1916.2537	2892.9443	3060.4852	3091.5979	3121.4405	3143.8806	3147.0024	3149.5632	3174.4443
CC1(C=O)C2CC1C2=O	C[C@@]1(C=O)[C@H]2C[C@@H]1C2=O	
InChI=1S/C7H8O2/c1-7(3-8)4-2-5(7)6(4)9/h3-5H,2H2,1H3	InChI=1S/C7H8O2/c1-7(3-8)4-2-5(7)6(4)9/h3-5H,2H2,1H3/t4-,5+,7+
