20
gdb 55100	4.37984	0.89092	0.84275	3.7767	80.88	-0.2415	-0.0138	0.2277	1433.8289	0.169855	-403.131618	-403.122427	-403.121483	-403.166999	33.853	
C	 0.1187457071	 1.6652007435	-0.5856613442	-0.482703
C	-0.1653965754	 0.288785365	-0.0135823295	 0.375655
O	-0.5948735679	 0.1365736669	 1.1081040849	-0.303489
C	 0.1567557994	-0.8935871377	-0.9078820055	-0.081629
C	 1.5387741564	-1.5873008541	-0.60576466	-0.324891
C	 0.810362463	-2.931257979	-0.7117855288	 0.376437
C	 1.200902722	-4.0575492071	-1.5872414752	-0.307734
N	 1.1678290444	-4.207342995	-0.1147683407	-0.363069
C	-0.5498738405	-2.2434934928	-0.5970331033	-0.3054
H	-0.5581349846	 1.8618031948	-1.425817857	 0.141865
H	-0.0204218804	 2.4292108802	 0.1799899728	 0.141641
H	 1.1380857845	 1.71417742	-0.9853585374	 0.137125
H	 0.0935827696	-0.6133799999	-1.9623086994	 0.075851
H	 2.360574806	-1.3899792992	-1.2985687129	 0.105726
H	 1.8667964034	-1.3786697495	 0.4179853066	 0.120437
H	 0.4432462915	-4.6285876712	-2.1181662029	 0.118856
H	 2.1653688463	-4.0085990209	-2.0879499986	 0.108556
H	 2.1117487311	-4.1717657723	 0.2639863373	 0.228664
H	-0.9267592091	-2.245596009	 0.4288459369	 0.135517
H	-1.3389092866	-2.5609179627	-1.282038693	 0.102584
23.1784	58.261	142.7123	167.7697	240.3697	304.8994	311.847	370.6972	393.3717	539.1111	587.7317	604.1572	689.7532	810.7324	831.1574	881.4086	892.864	931.1849	931.8397	954.3143	971.6374	999.4545	1015.8809	1055.452	1084.2525	1110.0653	1130.5092	1177.9041	1200.1793	1235.126	1244.3978	1255.5096	1265.3681	1294.9014	1358.5509	1382.1625	1422.5811	1462.2929	1467.5501	1475.1261	1489.7818	1517.3967	1806.6035	3031.9911	3045.9362	3067.6264	3073.7791	3091.5328	3098.1489	3107.1193	3127.668	3151.7016	3182.8404	3489.4548
CC(=O)C1CC2(CN2)C1	CC(=O)[C@H]1C[C@]2(CN2)C1	
InChI=1S/C7H11NO/c1-5(9)6-2-7(3-6)4-8-7/h6,8H,2-4H2,1H3	InChI=1S/C7H11NO/c1-5(9)6-2-7(3-6)4-8-7/h6,8H,2-4H2,1H3/t6-,7+
