20
gdb 40679	3.74438	0.97606	0.89936	1.6913	80.39	-0.2495	0.0701	0.3196	1376.8235	0.171071	-403.08891	-403.080402	-403.079458	-403.122818	32.185	
C	 0.0987597424	 1.4712647568	 0.0189061462	-0.236609
N	 1.3617259204	 0.7188451895	 0.0600371312	-0.321323
C	 0.082510488	-0.0144594284	 0.0392008598	-0.034295
C	-0.2378536656	-0.7710337302	 1.2834082387	-0.035267
O	-1.5531781156	-1.3538059733	 1.3524033484	-0.300077
C	-0.4361355857	-2.2241344066	 1.3039343078	 0.452843
C	-0.1605509236	-3.2581847693	 0.2070407594	-0.311258
C	 0.5880259302	-4.1009984605	 1.2842938988	-0.211003
C	-0.0547581198	-3.2221890862	 2.3999385952	-0.310753
H	-0.1304189984	 2.024826991	 0.9255234807	 0.122703
H	-0.1901276737	 1.9701440393	-0.9022512078	 0.114573
H	 1.7906284838	 0.6981846965	-0.8607850185	 0.235399
H	-0.2121520541	-0.5123149132	-0.8818869762	 0.089264
H	 0.0947162841	-0.2845492451	 2.2020991628	 0.094049
H	-1.0857643629	-3.7357725902	-0.1289529933	 0.114169
H	 0.4076766265	-2.9351329488	-0.6687777583	 0.10161
H	 0.363807391	-5.1683469208	 1.3119300978	 0.104396
H	 1.6709672349	-3.9708698144	 1.2289061826	 0.110542
H	 0.5904227044	-2.8663457128	 3.206582171	 0.10703
H	-0.9438349663	-3.6877122432	 2.8360049038	 0.114007
51.7589	103.1793	137.9039	152.367	291.1099	346.4381	379.3517	422.4313	513.5528	573.9506	714.4701	782.5592	832.3862	860.2414	868.6896	885.7324	909.0684	913.6882	924.3078	955.5487	991.7283	1026.6713	1029.9022	1075.5771	1118.6475	1139.8842	1144.4624	1165.7842	1203.1369	1219.5905	1232.2984	1242.2028	1246.1199	1267.0894	1277.9495	1284.8523	1322.2692	1412.854	1467.7685	1479.9405	1496.1701	1509.2609	1533.752	3054.8262	3058.8716	3075.6516	3098.4128	3104.2905	3108.2742	3110.167	3132.9797	3135.1676	3193.9601	3512.236
C1NC1C1OC11CCC1	C1N[C@H]1[C@H]1OC21CCC2	
InChI=1S/C7H11NO/c1-2-7(3-1)6(9-7)5-4-8-5/h5-6,8H,1-4H2	InChI=1S/C7H11NO/c1-2-7(3-1)6(9-7)5-4-8-5/h5-6,8H,1-4H2/t5-,6-/m1/s1
