25
gdb 109388	2.9082	1.04765	0.84729	0.2479	95.63	-0.223	0.0273	0.2503	1496.8366	0.231051	-352.383499	-352.374017	-352.373073	-352.417668	36.901	
C	-0.0063166488	 1.6073968397	 0.2371587139	-0.369177
C	-0.0024074829	 0.1154709152	-0.1407675733	-0.276903
C	-1.3718983188	-0.5226334635	-0.0788692421	 0.342759
C	-2.002813899	-0.9067288218	-1.1925457822	-0.160181
C	-3.3711454824	-1.5426576021	-1.2710040253	-0.24658
C	-3.5153735516	-2.8697359746	-0.5004443672	-0.172849
C	-3.5687682595	-2.7200874031	 1.0260028126	-0.17654
C	-2.3098015645	-2.1467606876	 1.6911046401	-0.179324
C	-1.9763484784	-0.6916668581	 1.3042295733	-0.289823
H	 1.0062224257	 2.0219999427	 0.2019370432	 0.110172
H	-0.6336907864	 2.1791563072	-0.4539268165	 0.118076
H	-0.3944713984	 1.7675442882	 1.2482664671	 0.116927
H	 0.4096333255	 0.0015438458	-1.149465104	 0.095685
H	 0.6789559602	-0.4176567722	 0.538059216	 0.095187
H	-1.4932909109	-0.7547634889	-2.1426416164	 0.070722
H	-4.1365472669	-0.841671684	-0.9031363716	 0.099492
H	-3.6145913012	-1.7203276639	-2.323749856	 0.092618
H	-4.4386620141	-3.3636525685	-0.8282358217	 0.086792
H	-2.6894857576	-3.5367790679	-0.7787825559	 0.09265
H	-4.4253580804	-2.081656992	 1.2876727561	 0.088069
H	-3.7801094496	-3.7022778248	 1.4669768435	 0.088316
H	-2.4506760856	-2.1898286007	 2.7782996401	 0.087661
H	-1.4461642698	-2.7856984908	 1.4657028436	 0.092755
H	-1.2825815357	-0.285908908	 2.0484692371	 0.091545
H	-2.8920590489	-0.0884309864	 1.3915544256	 0.101949
77.5262	97.4458	169.3601	209.6422	217.2325	256.9313	317.8952	337.3449	389.0411	430.6736	474.3821	541.3818	643.6461	722.876	790.1097	791.751	829.7636	858.3754	871.9982	900.3196	940.9053	975.3919	980.9862	1027.445	1041.8337	1073.9742	1088.8216	1107.9689	1121.8829	1149.6957	1191.1795	1241.2966	1245.2194	1284.0369	1289.3053	1303.4043	1344.0135	1357.0396	1363.9988	1371.709	1392.8278	1396.0352	1402.6162	1408.2711	1475.8648	1480.1161	1481.5528	1485.1213	1489.5249	1496.8367	1498.3719	1507.9916	1731.3503	2989.2554	2998.0131	3001.1483	3002.6255	3014.7747	3015.9756	3034.2398	3045.8846	3054.0398	3059.1856	3060.6508	3061.0645	3063.2077	3103.1117	3108.0793	3134.2996
CCC1=CCCCCC1	CCC1=CCCCCC1	
InChI=1S/C9H16/c1-2-9-7-5-3-4-6-8-9/h7H,2-6,8H2,1H3	InChI=1S/C9H16/c1-2-9-7-5-3-4-6-8-9/h7H,2-6,8H2,1H3
