22
gdb 116676	2.15535	0.8924	0.69011	4.3717	84.21	-0.2455	0.0108	0.2563	1715.4351	0.191369	-441.479987	-441.468708	-441.467764	-441.517994	38.788	
C	 0.0566867983	 1.5748636588	 0.0631451159	-0.394478
C	 0.0069057289	 0.0504808408	-0.0472493296	-0.149286
C	-1.415942242	-0.5339027163	-0.0025605274	 0.010601
C	-1.3960444935	-2.0690955172	-0.1248758481	-0.053289
O	-0.7466078836	-2.6719061555	 0.9747330175	-0.422966
N	-2.0492093121	-0.2297923113	 1.2745608793	-0.233693
C	-3.0627875123	 0.5156503979	 1.2858399634	 0.13373
O	-3.6960033226	 0.7987172443	 2.4387582139	-0.194053
C	-4.8205449175	 1.6648936037	 2.3284064517	-0.250443
H	 1.0865262203	 1.9384855333	-0.005700892	 0.113505
H	-0.5167542552	 2.0535295147	-0.7400502336	 0.10233
H	-0.354624544	 1.9160329618	 1.0176138991	 0.124958
H	 0.4666822558	-0.2680886266	-0.9910842118	 0.091846
H	 0.5894054551	-0.4104276547	 0.7562676213	 0.115764
H	-1.995985318	-0.1271569147	-0.8515189142	 0.050727
H	-2.4334674306	-2.4292969922	-0.2247721969	 0.076387
H	-0.8503766278	-2.3671691279	-1.0270907363	 0.098699
H	-1.108713705	-2.2311579772	 1.7554307196	 0.291154
H	-3.505332461	 0.9827360992	 0.3922964521	 0.078768
H	-5.5944047108	 1.2370413571	 1.6798967801	 0.129759
H	-5.2211270315	 1.7764208372	 3.3363593272	 0.149651
H	-4.5308105907	 2.6508559147	 1.9458408187	 0.130327
34.5742	60.611	88.3416	103.4019	138.1534	156.046	215.8654	233.2446	256.0951	286.1628	362.9214	423.1705	470.1712	487.8183	557.2368	695.8065	786.0005	853.8101	919.6595	971.3516	992.8025	1005.4857	1052.4494	1061.1994	1097.6872	1139.1983	1159.8449	1176.951	1178.0229	1234.357	1274.5448	1278.5282	1303.5873	1358.6156	1367.7906	1396.0979	1406.6717	1418.1887	1441.1175	1481.8478	1485.9771	1494.8334	1498.374	1500.2769	1505.8865	1508.5354	1769.4297	2927.6036	2965.9326	2994.4927	3018.5959	3028.1235	3032.6067	3065.9331	3081.2897	3081.7616	3100.145	3113.605	3148.1402	3754.1333
CCC(CO)N=COC	CC[C@@H](CO)N=COC	
InChI=1S/C6H13NO2/c1-3-6(4-8)7-5-9-2/h5-6,8H,3-4H2,1-2H3	InChI=1S/C6H13NO2/c1-3-6(4-8)7-5-9-2/h5-6,8H,3-4H2,1-2H3/t6-/m0/s1
