19
gdb 52936	3.12065	1.00792	0.87041	1.9515	87.23	-0.2326	0.0245	0.2571	1421.0672	0.157125	-385.804162	-385.794874	-385.79393	-385.839913	33.901	
C	-0.0846234838	 1.4189737237	-0.0079656618	-0.518012
C	-0.0306379767	-0.0339456113	-0.0000314109	 0.385442
C	 0.0069505342	-1.2383201052	 0.0094085925	-0.389937
C	 0.0795096994	-2.6656144084	 0.0050836939	 0.345695
C	 0.6066907351	-3.6402071893	 1.0973628722	-0.260545
C	-0.0782635126	-4.4599384083	-0.0158504506	 0.002693
O	-1.1832553843	-3.4740481534	-0.0241023152	-0.343044
C	 0.6659446107	-3.6234486616	-1.0919116518	 5.*^-6
C	 0.1086437046	-3.5455187356	-2.4979637676	-0.431557
H	 0.5038106657	 1.83475526	-0.8331577887	 0.152555
H	-1.1158628955	 1.7695022931	-0.1253475074	 0.158014
H	 0.3049117101	 1.8374481692	 0.9264650464	 0.153116
H	 1.6889415345	-3.7256466144	 1.2222214864	 0.096141
H	 0.0627775913	-3.596203915	 2.0407536597	 0.111895
H	-0.3541759607	-5.5138034887	-0.0274656464	 0.094922
H	 1.7574883928	-3.7093723574	-1.072086124	 0.07062
H	-0.9801672992	-3.4708589647	-2.4705792357	 0.139678
H	 0.5056356683	-2.6704309916	-3.0232182002	 0.119656
H	 0.387313326	-4.4330343412	-3.0763528409	 0.112664
15.268	79.6258	102.1682	210.4056	229.5239	289.2576	327.0476	342.2384	458.2138	496.1155	503.564	537.2791	675.0899	729.9916	787.2195	803.2051	878.6012	941.747	948.0866	1014.8642	1033.3346	1047.0506	1051.9594	1055.3394	1080.3937	1101.9216	1148.8049	1170.4834	1210.8791	1222.3288	1239.9817	1343.3546	1388.6582	1408.8724	1413.6013	1474.2087	1476.2895	1484.6666	1497.3148	1504.4445	2365.3883	3028.4122	3036.1812	3052.6757	3068.0888	3090.6111	3092.1593	3094.6461	3127.0242	3136.2359	3155.1179
CC#CC12CC(O1)C2C	CC#C[C@@]12C[C@@H](O1)[C@H]2C	
InChI=1S/C8H10O/c1-3-4-8-5-7(9-8)6(8)2/h6-7H,5H2,1-2H3	InChI=1S/C8H10O/c1-3-4-8-5-7(9-8)6(8)2/h6-7H,5H2,1-2H3/t6-,7-,8+/m1/s1
