19
gdb 80037	2.84634	1.43744	1.203	2.3712	80.26	-0.2293	-0.0289	0.2004	1094.3515	0.159116	-385.863653	-385.855676	-385.854732	-385.896078	31.218	
C	-0.286185736	 1.5046706108	 0.8378648048	-0.436878
C	-0.0654550256	 0.049007042	 0.4696613991	 0.057938
C	 1.0135566435	-0.3801823689	-0.5930311629	-0.114123
C	 2.3050660164	 0.1305504627	 0.0609398343	-0.090552
C	 2.1602243064	-0.2160051939	 1.3436353882	-0.093567
C	 0.7957823076	-0.9184876968	 1.3735406483	-0.092633
C	 0.9414586543	-1.8122026223	 0.0947484703	-0.060772
C	-0.1965965245	-2.7082498438	-0.3092387136	 0.119455
O	-1.2027512326	-2.9091583277	 0.3262476521	-0.246623
H	 0.6499607731	 2.013935781	 1.0790223649	 0.119302
H	-0.7645293782	 2.0417895837	 0.0111593638	 0.113853
H	-0.9517097544	 1.5822833439	 1.7045781993	 0.118179
H	-1.0268212187	-0.4214725626	 0.2478647961	 0.098064
H	 0.8722644855	-0.2449812342	-1.6658180562	 0.065194
H	 3.1109753292	 0.6509363777	-0.436527237	 0.103601
H	 2.8191780494	-0.0578140018	 2.1853353072	 0.103709
H	 0.4171134462	-1.3222910294	 2.3109696222	 0.073569
H	 1.8730599292	-2.3822222426	 0.0039201901	 0.088461
H	-0.0325117008	-3.2207003877	-1.2872232011	 0.073821
86.3686	167.5346	219.3861	228.597	273.9895	295.0181	392.3378	539.3516	563.8774	668.5579	713.2543	732.5668	748.7945	792.9494	834.0233	895.2067	912.3697	918.8724	933.549	973.7156	1014.2867	1037.3735	1059.3836	1070.6738	1099.9419	1117.411	1161.885	1182.7694	1191.2422	1222.4232	1247.9787	1254.7513	1320.975	1348.3397	1401.5142	1419.5657	1425.6996	1494.2103	1501.3211	1620.2525	1814.468	2848.0108	3033.7948	3049.8891	3083.4021	3091.5218	3112.9651	3122.6038	3136.2194	3220.9917	3247.7479
CC1C2C=CC1C2C=O	C[C@H]1[C@H]2C=C[C@@H]1[C@H]2C=O	
InChI=1S/C8H10O/c1-5-6-2-3-7(5)8(6)4-9/h2-8H,1H3	InChI=1S/C8H10O/c1-5-6-2-3-7(5)8(6)4-9/h2-8H,1H3/t5-,6+,7-,8-
