18
gdb 123728	4.96964	0.97056	0.90191	4.9668	78.02	-0.2462	0.0027	0.2489	1306.9076	0.150629	-398.120326	-398.112656	-398.111712	-398.154519	28.561	
C	 0.0145549285	 1.6637373933	 0.0239637966	-0.214451
C	 1.5342320334	 1.5155590634	 0.2953657301	-0.220734
C	 1.2976822226	-0.0141865649	 0.5365603622	-0.103172
C	-0.0495345376	 0.1339680918	-0.2290137396	-0.225365
C	 2.3042037969	-0.9975854481	 0.0583036212	 0.354879
C	 2.5799436895	-1.5592520242	-1.1710016833	-0.159996
N	 3.6527957932	-2.3916385638	-1.0588647695	-0.18536
N	 4.0695276521	-2.3853194455	 0.1735011692	-0.119947
N	 3.2600939202	-1.5470486416	 0.8520131658	-0.249981
H	-0.5328213677	 1.9481254375	 0.9270734259	 0.107003
H	-0.2914571583	 2.3238817977	-0.7896140053	 0.105797
H	 2.1270891455	 1.675005641	-0.6092303502	 0.115152
H	 1.9753820826	 2.0908782121	 1.1126079708	 0.102329
H	 1.0968634668	-0.182473316	 1.6007457551	 0.077512
H	-0.9063027342	-0.423216137	 0.1555963672	 0.107463
H	 0.0713250927	-0.1012866734	-1.2898796491	 0.114712
H	 2.0740314088	-1.420347839	-2.1124358365	 0.118482
H	 3.416488145	-1.4035697834	 1.8373016692	 0.27568
13.5297	111.9522	139.7411	230.909	370.2611	393.9608	551.3619	584.3454	701.2053	724.2642	729.4541	787.4122	844.6689	865.4079	912.4774	935.7841	946.144	990.6395	1013.87	1030.3975	1071.4521	1080.9635	1117.2035	1147.139	1202.091	1212.2864	1243.4519	1254.7112	1256.304	1278.6944	1282.0786	1321.7797	1343.1098	1408.46	1440.9613	1478.0623	1487.8217	1510.1826	1603.3432	3035.6722	3060.3866	3062.5385	3066.7973	3108.183	3116.6362	3128.8027	3270.4388	3651.1181	13.5292	111.9521	139.7411	230.9089	370.2611	393.9608	551.3619	584.3453	701.2053	724.2642	729.4541	787.4122	844.6688	865.4079	912.4774	935.7841	946.144	990.6395	1013.87	1030.3975	1071.4523	1080.9635	1117.2036	1147.1389	1202.091	1212.2864	1243.452	1254.7113	1256.304	1278.6945	1282.0787	1321.7798	1343.1096	1408.46	1440.9613	1478.0624	1487.8218	1510.1827	1603.3431	3035.6722	3060.3865	3062.5385	3066.7973	3108.183	3116.6361	3128.8027	3270.4388	3651.1182
C1CC(C1)C1=CN=NN1	C1CC(C1)c1cnn[nH]1	
InChI=1S/C6H9N3/c1-2-5(3-1)6-4-7-9-8-6/h4-5H,1-3H2,(H,7,8,9)	InChI=1S/C6H9N3/c1-2-5(3-1)6-4-7-9-8-6/h4-5H,1-3H2,(H,7,8,9)
