21
gdb 87912	3.81514	1.02137	0.92819	2.9294	82.78	-0.2327	-0.0125	0.2202	1334.3385	0.182245	-387.119483	-387.110639	-387.109695	-387.153146	34.068	
C	-0.1321291894	 1.5219038242	-0.0125913538	-0.409746
C	 0.0278551411	 0.0168920264	 0.0305390606	-0.058369
C	 1.3769946793	-0.6328918758	-0.1894240408	-0.340305
C	 0.7131630974	-0.6876494964	 1.1698032855	 0.361322
C	 1.3387989524	 0.0407045975	 2.3634497807	-0.299211
C	 1.9889442814	-1.0890923092	 3.1801744244	-0.316033
C	 1.1317184915	-2.329523312	 2.9002528766	 0.403454
O	 1.1735008119	-3.3682080297	 3.5062927121	-0.312952
C	 0.2080761579	-2.01557581	 1.7153340281	-0.4013
H	 0.7448865864	 2.0340769305	 0.393898871	 0.115433
H	-0.2673728626	 1.869444182	-1.0425716201	 0.1193
H	-1.0043520069	 1.8488794674	 0.5647125746	 0.117493
H	-0.815466117	-0.5247469756	-0.3932873923	 0.082148
H	 1.4275710289	-1.5414844901	-0.7812259174	 0.109533
H	 2.2351576263	 0.0227491604	-0.3078413111	 0.107145
H	 2.0521567405	 0.8125533879	 2.0665655451	 0.10432
H	 0.5574586306	 0.5311374166	 2.9584515978	 0.104728
H	 2.9990916707	-1.3087313349	 2.8103809672	 0.133252
H	 2.0728464247	-0.902663892	 4.2532305455	 0.125362
H	-0.8133437539	-1.9262096272	 2.113324434	 0.127777
H	 0.198626909	-2.8387052201	 0.9961689321	 0.126649
59.3286	126.7991	166.0797	189.5859	222.0487	334.6794	373.6154	426.5095	466.6435	491.5169	533.6964	579.5065	720.4843	734.9318	806.9083	829.3723	875.5379	900.798	933.9321	946.8907	976.012	1008.5387	1032.6207	1049.9899	1077.4146	1130.6322	1139.8506	1169.2866	1180.1012	1193.7611	1208.2151	1250.7914	1281.578	1289.4876	1315.65	1353.6606	1411.4596	1430.0932	1447.2476	1449.7431	1489.3372	1491.9722	1501.4989	1507.3738	1847.9551	3012.4311	3024.6342	3030.2651	3036.6662	3088.3409	3095.3483	3096.7393	3103.6224	3110.1811	3116.8356	3126.8491	3201.4234
CC1CC11CCC(=O)C1	C[C@H]1C[C@]21CCC(=O)C2	
InChI=1S/C8H12O/c1-6-4-8(6)3-2-7(9)5-8/h6H,2-5H2,1H3	InChI=1S/C8H12O/c1-6-4-8(6)3-2-7(9)5-8/h6H,2-5H2,1H3/t6-,8+/m0/s1
