16
gdb 33685	3.91747	1.48988	1.39392	2.2283	79.35	-0.2248	0.0255	0.2503	955.7485	0.125292	-363.522117	-363.515477	-363.514532	-363.552896	27.548	
C	 0.0916185924	-1.1572143917	-0.0553341255	-0.33899
C	 0.0279222572	 0.0442889668	-0.0215749876	 0.060702
C	-0.0397541972	 1.4575210768	 0.0182830731	 0.294754
C	 0.0977979166	 2.3364385758	 1.2499358123	-0.130381
C	-1.0158424342	 3.3618160546	 1.2370270834	-0.24647
C	-1.1332742674	 3.5312819129	-0.2608744141	-0.050557
C	 0.1786077044	 3.3279741818	-0.9266761808	-0.05159
C	 1.0304826731	 2.5375275432	 0.0728171559	-0.171588
N	-0.8642494973	 2.2524298906	-0.9916930951	-0.199237
H	 0.1455548366	-2.216843874	-0.0887783178	 0.181103
H	 0.479390562	 1.8901285061	 2.1586412214	 0.108809
H	-1.9376230133	 2.9809338352	 1.6882029238	 0.117809
H	-0.7394754565	 4.2977436889	 1.7345195695	 0.112363
H	-1.9010789359	 4.1503487903	-0.7108282153	 0.10274
H	 0.5286508605	 3.8329878891	-1.818393941	 0.101473
H	 2.105231519	 2.4343673136	 0.0998851277	 0.109061
138.2888	157.1287	379.6322	449.1253	491.0327	510.3051	562.1869	590.7726	675.1373	709.4475	743.9765	762.553	795.2409	846.2203	864.2175	891.5948	907.3601	929.3991	975.5344	982.1157	1001.4275	1026.6237	1055.9787	1072.8212	1108.8158	1168.0215	1186.3706	1213.059	1241.0943	1290.1146	1312.	1370.1434	1410.873	1485.2733	2233.6393	3048.0527	3093.3336	3180.9352	3191.3941	3212.9171	3228.426	3504.1402
C#CC12C3CC4C(C13)N24	C#C[C@@]12[C@@H]3C[C@H]4[C@@H]([C@H]13)N24	
InChI=1S/C8H7N/c1-2-8-4-3-5-7(6(4)8)9(5)8/h1,4-7H,3H2	InChI=1S/C8H7N/c1-2-8-4-3-5-7(6(4)8)9(5)8/h1,4-7H,3H2/t4-,5+,6-,7+,8-,9?/m1/s1
