19
gdb 109205	5.1141	0.77037	0.6936	3.5221	79.33	-0.2376	-0.0178	0.2198	1578.5428	0.158192	-423.043248	-423.033939	-423.032995	-423.078378	33.214	
O	 0.0147898297	 1.391605472	 0.1692203576	-0.413
C	-0.0177695662	-0.0139001381	 0.0082873465	-0.17627
C	-1.4336807985	-0.4824139228	-0.0734864697	 0.316716
C	-2.534186607	 0.2654754314	-0.0253646389	-0.152142
C	-3.7950716259	-0.5593866842	-0.0905944987	-0.291
C	-3.2848673604	-1.9776322352	-0.4927284334	-0.051908
C	-1.7595834659	-1.9572692795	-0.1782743525	-0.345366
C	-4.006916101	-3.0745209529	 0.2497934501	 0.154584
O	-4.6525472073	-3.956689522	-0.2536834903	-0.252027
H	 0.9345489647	 1.6699080828	 0.1900654471	 0.291074
H	 0.5195526433	-0.3277909222	-0.9048540072	 0.096953
H	 0.4847412087	-0.5285151784	 0.8476052263	 0.095427
H	-2.5382138388	 1.3419631141	 0.0873513471	 0.112424
H	-4.3048049285	-0.5717211094	 0.8851198956	 0.109148
H	-4.5288787452	-0.1816619438	-0.8104431036	 0.118174
H	-3.4423590049	-2.1395011809	-1.561457595	 0.097514
H	-1.1837287133	-2.4780915263	-0.9518348096	 0.114231
H	-1.5318092945	-2.4710214376	 0.7688020321	 0.107891
H	-3.8971371589	-3.0057891171	 1.3603508464	 0.067577
47.9864	69.1163	100.18	192.7509	209.7696	243.3469	309.6424	347.283	375.7518	436.274	494.9854	647.8408	691.8976	823.4581	872.098	889.3421	917.1641	946.0206	998.5721	1010.1181	1037.4576	1072.3908	1094.4293	1107.7414	1156.5276	1183.8717	1210.4187	1216.2108	1255.1056	1280.2722	1291.2111	1317.9308	1331.3439	1347.9991	1427.8063	1468.3894	1484.9246	1492.6734	1507.6692	1734.5836	1834.9256	2829.7183	2935.6055	2947.2736	2988.7807	2993.2117	3051.6191	3060.7992	3091.2275	3222.651	3839.951
OCC1=CCC(C1)C=O	OCC1=CC[C@@H](C1)C=O	
InChI=1S/C7H10O2/c8-4-6-1-2-7(3-6)5-9/h1,5,7-8H,2-4H2	InChI=1S/C7H10O2/c8-4-6-1-2-7(3-6)5-9/h1,5,7-8H,2-4H2/t7-/m0/s1
