17
gdb 72107	2.95048	1.74068	1.59387	1.5963	65.89	-0.2269	0.0707	0.2976	897.7007	0.138034	-458.950805	-458.943984	-458.94304	-458.981704	27.946	
O	-0.0940061923	 1.384995432	-0.0756992912	-0.472895
C	 0.0214475525	 0.0031013632	 0.0044328979	 0.342281
C	 1.1918130656	-0.7377789184	-0.6227372676	-0.324601
C	 0.9446508807	-2.147965304	-0.0523896776	 0.170187
O	 0.5363006148	-1.9356381536	 1.2980913955	-0.253413
C	-0.3219616727	-0.8158546711	 1.2273413038	 0.013532
C	-1.2487790744	-0.8149305992	 0.0288002216	-0.156178
C	-1.3085266534	-2.0889241679	-0.7948907329	-0.089285
O	-0.0652549611	-2.8050790434	-0.775168745	-0.263032
H	 0.6413765796	 1.7762987239	 0.4106056868	 0.282751
H	 1.1904322288	-0.7477906023	-1.7147576559	 0.119244
H	 2.1440456596	-0.3269564855	-0.2665878187	 0.099011
H	 1.8061338314	-2.8149655399	-0.047231277	 0.097348
H	-0.6017196824	-0.4101957712	 2.190983281	 0.107558
H	-2.1726684348	-0.2534029474	 0.1186664167	 0.104821
H	-2.082066395	-2.7567477715	-0.3956021714	 0.115025
H	-1.5682182768	-1.8666049938	-1.839050116	 0.107645
146.8254	236.6601	314.4547	351.2502	396.7091	433.8384	508.5274	550.6175	603.0931	687.1806	710.0397	811.6879	844.2877	871.7317	900.1447	926.2356	961.7354	997.4148	1003.6897	1025.8839	1066.5021	1094.5957	1107.7235	1131.5128	1173.7098	1205.4852	1249.76	1250.9394	1281.4896	1307.6066	1334.5084	1357.484	1370.0175	1412.1989	1459.0529	1496.2047	1523.4433	3003.7265	3039.8359	3040.2843	3112.4621	3130.4155	3173.7171	3203.3101	3781.8136
OC12CC3OC1C2CO3	O[C@@]12C[C@H]3O[C@@H]1[C@@H]2CO3	
InChI=1S/C6H8O3/c7-6-1-4-8-2-3(6)5(6)9-4/h3-5,7H,1-2H2	InChI=1S/C6H8O3/c7-6-1-4-8-2-3(6)5(6)9-4/h3-5,7H,1-2H2/t3-,4+,5+,6+/m0/s1
