14
gdb 75107	3.12381	1.45091	0.99707	2.1045	66.49	-0.2469	-0.0596	0.1873	1090.6439	0.102715	-470.092168	-470.084333	-470.083388	-470.124831	29.101	
N	 0.003452954	 1.3325677961	 0.0997225065	-0.538303
C	-0.0487957349	-0.0230981595	 0.0277887955	 0.288875
N	-1.146096999	-0.6773027452	 0.0025883526	-0.323373
C	-1.118595183	-2.1192489788	-0.0180722321	-0.288081
C	 0.2181348784	-2.8472917366	-0.0160302117	 0.407042
O	 0.3330499601	-4.0484591539	-0.0230317339	-0.338851
N	 1.3401919486	-2.0177780373	-0.010229047	-0.391222
C	 1.3345839797	-0.6406535221	-0.0012321231	 0.412506
O	 2.3500419314	 0.0209231339	-0.0257029657	-0.352372
H	 0.8956289412	 1.7692945198	-0.0635301769	 0.277457
H	-0.844332629	 1.8531072584	-0.0461637201	 0.266429
H	-1.6839277167	-2.5078787619	 0.8397918629	 0.15581
H	-1.6673057265	-2.4833477261	-0.8973137761	 0.154836
H	 2.2453878658	-2.4743382168	-0.0264080008	 0.269246
64.0934	138.3409	213.3415	297.6693	340.1804	384.6612	441.9349	454.9671	510.7168	542.1765	565.9714	600.578	670.3328	743.5649	806.656	820.5962	901.2843	979.7685	988.6476	1213.0202	1248.6618	1251.5287	1326.1098	1344.4788	1408.5071	1433.6344	1447.3933	1597.0334	1742.7034	1801.2837	1827.0013	3022.2023	3041.2393	3571.8174	3604.8211	3739.6927
NC1=NCC(=O)NC1=O	NC1=NCC(=O)NC1=O	
InChI=1S/C4H5N3O2/c5-3-4(9)7-2(8)1-6-3/h1H2,(H2,5,6)(H,7,8,9)	InChI=1S/C4H5N3O2/c5-3-4(9)7-2(8)1-6-3/h1H2,(H2,5,6)(H,7,8,9)
