25
gdb 101820	2.50429	0.81187	0.6538	1.6675	86.41	-0.2515	0.0755	0.327	1814.0164	0.225144	-426.630896	-426.618931	-426.617987	-426.669303	42.67	
C	 0.7028477795	 1.8353548821	-0.4196628072	-0.389172
C	 0.2581833441	 0.3939703015	-0.1633587504	-0.172301
C	 0.6812232167	-0.581416244	-1.2636552533	 0.162244
C	 0.3442121113	-2.0315220526	-0.9066513688	-0.402467
O	 0.0159664596	-0.1767185277	-2.459403659	-0.263854
C	 0.6233284665	-0.5976323369	-3.6600361458	-0.071143
C	-0.2367117461	-0.1427205471	-4.8429894127	 0.109509
C	-0.4036700899	 1.3720462672	-4.9067562128	-0.400232
O	 0.3012220165	-0.6760390233	-6.0487887128	-0.430348
H	 1.7955045792	 1.9105043198	-0.4626974527	 0.107889
H	 0.3040716286	 2.1985208601	-1.3700180191	 0.131408
H	 0.3556446758	 2.5031246906	 0.3745937641	 0.109623
H	 0.6679600662	 0.0371444844	 0.7890976918	 0.092557
H	-0.8343527932	 0.3479606368	-0.0724996697	 0.103048
H	 1.7705866278	-0.4905768299	-1.4177044692	 0.060264
H	 0.6246217276	-2.7207772031	-1.7081714913	 0.11799
H	 0.878749981	-2.3395155239	-0.0022864617	 0.11325
H	-0.730464938	-2.1365723709	-0.7266305364	 0.122179
H	 1.6377651017	-0.1659693552	-3.7525710826	 0.068717
H	 0.7267401922	-1.6909636855	-3.7104926383	 0.096796
H	-1.2222182239	-0.6111540632	-4.7401786063	 0.097888
H	 0.5718854716	 1.8639054994	-5.0186027806	 0.0997
H	-1.0282052182	 1.6507525777	-5.7599007468	 0.120494
H	-0.8637087833	 1.7461400094	-3.9890400405	 0.138819
H	 1.1116937766	-0.1931062356	-6.2450907977	 0.277142
22.5343	57.9303	107.893	126.2941	142.7227	203.4249	215.2603	238.6527	251.1554	278.2867	287.7347	366.472	384.9334	447.8687	453.7633	490.8091	530.3774	773.1149	827.0763	853.0039	912.1556	928.7468	965.5693	979.8625	999.4065	1035.859	1079.0085	1118.7154	1130.9444	1139.0562	1165.533	1169.5033	1199.3031	1245.2782	1293.9637	1305.3696	1329.7745	1356.621	1375.5957	1393.6275	1395.2833	1404.0809	1406.3011	1416.1537	1433.3019	1474.1626	1488.6553	1491.3322	1494.5456	1495.6842	1498.134	1509.4726	1519.875	2929.7639	2952.5179	3014.0987	3021.3795	3027.5114	3035.3707	3038.9373	3053.9916	3065.4364	3099.2034	3099.9857	3108.979	3113.6608	3124.8895	3132.6793	3798.2202
CCC(C)OCC(C)O	CC[C@@H](C)OC[C@@H](C)O	
InChI=1S/C7H16O2/c1-4-7(3)9-5-6(2)8/h6-8H,4-5H2,1-3H3	InChI=1S/C7H16O2/c1-4-7(3)9-5-6(2)8/h6-8H,4-5H2,1-3H3/t6-,7-/m1/s1
