21
gdb 17673	3.88859	1.36262	1.33209	1.0469	79.74	-0.2244	0.0845	0.309	1070.6883	0.18755	-329.083471	-329.074622	-329.073677	-329.116771	33.608	
C	 1.9673775704	 0.890342478	-0.5920498368	-0.416736
C	 1.1618833225	-0.3175003589	-0.1669354109	-0.012459
C	 1.7965696499	-1.4866894493	 0.5532913479	-0.328197
C	 0.7839196369	-0.6210288473	 1.2693323722	 0.356827
C	 1.2573825648	 0.2827138066	 2.3937058069	-0.482692
N	-0.5190942607	-1.2542559503	 1.3665570315	-0.105424
C	-1.0042898599	-1.7931117793	 2.6288531038	-0.230353
C	-1.6369280407	-0.5869729978	 2.0177565275	-0.229276
H	 2.7790481496	 1.1153679037	 0.105807988	 0.112098
H	 2.4244412794	 0.7187571714	-1.5731057638	 0.118138
H	 1.34016084	 1.7856585062	-0.6728368167	 0.114879
H	 0.3806207121	-0.5996241691	-0.8666136419	 0.090324
H	 1.4891414509	-2.4887003035	 0.2782006483	 0.112486
H	 2.8363848627	-1.3925598566	 0.8516550281	 0.100507
H	 2.2786726442	 0.6240698287	 2.2131531557	 0.12096
H	 0.6311716389	 1.1755834285	 2.4980892626	 0.118118
H	 1.265063923	-0.2405204752	 3.3560626677	 0.11834
H	-1.4867227104	-2.7651596124	 2.5669107551	 0.112789
H	-0.4218592867	-1.6374186754	 3.5341005218	 0.108711
H	-1.4693303744	 0.3620214534	 2.5219745028	 0.108383
H	-2.5916320027	-0.6601982014	 1.5032406101	 0.112577
45.6347	164.8085	170.2264	198.2032	243.6127	300.37	320.5443	366.3905	424.5792	449.5574	520.9792	637.7083	787.2805	797.7188	828.9014	884.4397	904.8378	921.1574	959.1633	989.0482	1019.2043	1043.1872	1057.1028	1106.6285	1114.3562	1117.0846	1124.1181	1135.0522	1173.1433	1174.3287	1190.2334	1228.0031	1311.2158	1346.0017	1401.7542	1414.4909	1422.2524	1481.5218	1484.4731	1492.2163	1494.0093	1509.9353	1511.3816	1526.1914	3027.1632	3034.9576	3083.9858	3088.8521	3100.5418	3101.3033	3104.2408	3122.9019	3129.1467	3154.1354	3174.7021	3189.2477	3220.67
CC1CC1(C)N1CC1	C[C@H]1C[C@]1(C)N1CC1	
InChI=1S/C7H13N/c1-6-5-7(6,2)8-3-4-8/h6H,3-5H2,1-2H3	InChI=1S/C7H13N/c1-6-5-7(6,2)8-3-4-8/h6H,3-5H2,1-2H3/t6-,7-/m0/s1
