20
gdb 17704	5.66426	1.43282	1.39128	0.001	79.57	-0.2786	0.0958	0.3744	998.6975	0.177337	-311.800687	-311.793321	-311.792377	-311.831765	29.453	
C	-0.1922649352	 1.6204721734	-0.0970955508	-0.419525
C	-0.0571320987	 0.1062773042	-0.0411344313	-0.000265
C	 1.189148428	-0.5757246957	-0.6480848708	-0.048936
C	 2.0897325968	-0.2477523385	 0.5952376754	-0.051923
C	 2.5523250312	-1.7166528175	 0.7286844596	-0.000264
C	 2.9897834987	-2.2489712563	 2.0849455451	-0.419525
C	 1.0678083384	-1.8084107634	 0.3109079827	-0.048945
C	 0.6539883369	-0.5554206823	 1.1613401922	-0.051932
H	 0.7423995697	 2.121493499	 0.1758949251	 0.112533
H	-0.4673665518	 1.9548418004	-1.1038383933	 0.112549
H	-0.9709559844	 1.9721574108	 0.5892021068	 0.112348
H	-1.0039061239	-0.3779890611	-0.3153533816	 0.057622
H	 1.5247939678	-0.6079318221	-1.6871614203	 0.061096
H	 2.6693997542	 0.6630326652	 0.7551293707	 0.064507
H	 3.2529027982	-2.0320016998	-0.0560682195	 0.057622
H	 2.3034921618	-1.9428063569	 2.8814445298	 0.112534
H	 3.03119819	-3.3440946477	 2.0840362079	 0.112547
H	 3.9889150141	-1.8834860535	 2.3480193124	 0.11235
H	 0.4500753409	-2.6923831348	 0.1366285139	 0.061098
H	 0.3555524872	-0.5528047333	 2.2111197257	 0.064509
173.5839	189.5087	214.007	227.8027	290.2796	334.5157	498.4829	553.5309	707.6175	744.6849	807.7219	841.7486	843.111	854.9076	870.0895	872.818	962.6819	998.8111	1026.3041	1028.0982	1051.5318	1074.3377	1100.6351	1100.9152	1135.6875	1137.4497	1154.6538	1157.0263	1184.3123	1186.9089	1244.8241	1247.3298	1282.0658	1317.4747	1391.6604	1405.0806	1413.9335	1414.1181	1494.7856	1495.2771	1499.2873	1499.4613	3013.8327	3014.5387	3026.3136	3026.6486	3079.5981	3086.06	3086.9809	3087.0015	3088.7531	3098.3153	3100.1095	3104.8419
CC1C2C3C(C)C2C13	C[C@H]1[C@H]2[C@@H]3[C@@H](C)[C@H]2[C@H]13	
InChI=1S/C8H12/c1-3-5-7-4(2)8(5)6(3)7/h3-8H,1-2H3	InChI=1S/C8H12/c1-3-5-7-4(2)8(5)6(3)7/h3-8H,1-2H3/t3-,4-,5-,6+,7-,8+/m1/s1
