14
gdb 47216	2.08341	1.80448	1.32039	5.3938	67.37	-0.2486	-0.0534	0.1951	983.6532	0.102202	-432.894132	-432.886152	-432.885208	-432.927547	28.234	
O	-0.2047939329	 0.6455885553	-1.361826496	-0.288535
C	-0.0197652643	 1.3162505487	-0.3822385326	 0.384252
C	-1.1042925349	 1.54077703	 0.6653078557	-0.260887
N	-0.88175914	 2.767313129	 1.4157567421	-0.295215
C	 0.0965512677	 3.6497551221	 1.0661618474	 0.108539
N	 1.12562374	 3.4285110918	 0.3363954109	-0.258481
C	 1.3120758678	 2.038669383	-0.0962453789	-0.221282
C	 2.0396176787	 1.2725361957	 0.9287967017	 0.284876
N	 2.5773605647	 0.659557769	 1.7482992727	-0.320969
H	-2.0659048392	 1.5562234065	 0.1418639765	 0.153528
H	-1.1035846809	 0.6687016787	 1.3341574399	 0.165596
H	-1.6354020983	 3.1027320846	 1.9931531699	 0.26082
H	-0.0314082781	 4.6492127	 1.4821271228	 0.132477
H	 1.8963614998	 2.0184614655	-1.0206377322	 0.155279
57.1477	82.0829	132.3978	202.0487	356.3132	391.8117	444.6137	468.3122	508.8141	561.7513	612.4874	638.6977	741.1616	925.5825	937.0646	971.6545	990.0097	1008.7198	1029.8306	1159.2263	1227.2615	1252.5958	1263.6621	1305.5183	1330.5719	1406.1553	1469.7429	1535.1906	1713.666	1841.4358	2349.0915	3017.0309	3074.2557	3078.6644	3138.2213	3638.5748
O=C1CNC=NC1C#N	O=C1CNC=N[C@H]1C#N	
InChI=1S/C5H5N3O/c6-1-4-5(9)2-7-3-8-4/h3-4H,2H2,(H,7,8)	InChI=1S/C5H5N3O/c6-1-4-5(9)2-7-3-8-4/h3-4H,2H2,(H,7,8)/t4-/m0/s1
