20
gdb 47029	3.54034	1.31051	1.04794	3.4133	79.82	-0.2486	0.0341	0.2827	1165.7656	0.174299	-403.159963	-403.152327	-403.151383	-403.192432	30.24	
N	-0.0119285665	 0.8797664684	 1.1196520774	-0.51904
C	 0.0843830539	 0.07566592	 0.1456713288	 0.398167
C	-1.1056468214	-0.3304748914	-0.6891001675	-0.317107
C	-1.1603992432	-1.8572550062	-0.8577505877	 0.017923
C	-1.617423623	-2.4374670323	-2.2297357274	-0.240014
C	-0.2822681322	-3.231138276	-2.3353816117	-0.245175
C	 0.2468507775	-2.4976364155	-1.0701943202	-0.011405
C	 1.2808855988	-1.4071640767	-1.3069915041	-0.100181
O	 1.2829872018	-0.4810613831	-0.2096993176	-0.248213
H	 0.9079240668	 1.0246298721	 1.5428547954	 0.214391
H	-2.0018443855	 0.0799786973	-0.2233336931	 0.132402
H	-1.0086712165	 0.1420478728	-1.6757103327	 0.115456
H	-1.6916189192	-2.3048252253	-0.0146306668	 0.083391
H	-2.5280979778	-3.0399680697	-2.2130609668	 0.106838
H	-1.7351883189	-1.6712192267	-3.0013906687	 0.101319
H	-0.4014411404	-4.3062308192	-2.1850362837	 0.108548
H	 0.2964462191	-3.0815261862	-3.2515028465	 0.100537
H	 0.5865750444	-3.1453241533	-0.2580732807	 0.08001
H	 2.299911901	-1.7982183688	-1.3580490571	 0.119175
H	 1.0824834512	-0.8717803202	-2.2461951394	 0.102981
64.7953	115.9252	241.4375	304.8199	358.5393	422.4846	432.767	502.071	573.5224	660.1771	725.8032	772.4223	796.9669	839.998	866.7697	914.1415	942.6311	953.6331	976.2411	995.3348	1014.8327	1047.8123	1086.1359	1110.4329	1125.9863	1158.2428	1205.7012	1226.4312	1255.1943	1261.4976	1268.5287	1287.1471	1291.4875	1307.0916	1335.8772	1354.2004	1364.0489	1417.5573	1478.0628	1482.3536	1498.4923	1519.4662	1752.5809	3005.4653	3025.3579	3055.1389	3061.5104	3065.9475	3078.9133	3099.4284	3102.0657	3120.4129	3130.2759	3454.118
N=C1CC2CCC2CO1	[NH][C]1C[C@H]2CC[C@H]2CO1	
InChI=1S/C7H11NO/c8-7-3-5-1-2-6(5)4-9-7/h5-6,8H,1-4H2	InChI=1S/C7H11NO/c8-7-3-5-1-2-6(5)4-9-7/h5-6,8H,1-4H2/t5-,6+/m1/s1
