17
gdb 49017	2.70956	1.68348	1.31399	2.1896	72.01	-0.2494	-0.0322	0.2172	988.4603	0.135276	-421.771151	-421.763674	-421.76273	-421.803222	28.854	
O	-0.100553089	 0.0136138534	-0.2749996482	-0.263872
C	 0.0059337242	 1.1692091863	 0.0637032799	 0.063434
C	 1.277794735	 1.936349558	 0.0474100473	 0.22327
C	 1.4667073214	 3.1443332554	 1.0171669762	-0.291884
C	 1.7520418498	 4.1016672093	-0.1780888155	-0.221098
C	 1.5658153151	 2.9225135981	-1.1712025831	-0.113864
C	 2.8106472923	 2.0645943775	-1.4916074953	 0.027985
O	 3.6561753134	 2.0495937963	-0.3358481882	-0.243919
C	 2.5447724802	 1.1502348223	-0.369831326	-0.03132
H	-0.8839809267	 1.7516971552	 0.3982953538	 0.072041
H	 0.5504296665	 3.3856167102	 1.5631858739	 0.106281
H	 2.2836977995	 3.0216744831	 1.7286663441	 0.122986
H	 1.0051076025	 4.888949836	-0.2997715855	 0.104398
H	 2.7465195118	 4.5497953892	-0.1876683571	 0.120164
H	 0.8469969476	 3.0156207195	-1.9852374591	 0.091628
H	 3.287314937	 1.9023327173	-2.451499553	 0.111557
H	 2.7391066094	 0.0931974926	-0.2390927142	 0.122214
91.6364	148.3439	218.4975	236.953	291.8104	425.1518	448.6347	599.4413	653.6349	724.4983	737.7194	819.6508	831.1928	835.6886	875.2504	875.7552	954.6734	975.4992	984.4543	1009.4848	1050.7866	1069.8385	1107.2866	1127.963	1149.3952	1200.0587	1229.0146	1239.5761	1258.5662	1275.1266	1296.8054	1327.0743	1377.1703	1426.0759	1459.7439	1479.0701	1798.8365	2859.2892	3063.0362	3075.3571	3116.5903	3125.6509	3140.2904	3182.749	3205.8945
O=CC12CCC1C1OC21	O=C[C@]12CC[C@H]1[C@H]1O[C@@H]21	
InChI=1S/C7H8O2/c8-3-7-2-1-4(7)5-6(7)9-5/h3-6H,1-2H2	InChI=1S/C7H8O2/c8-3-7-2-1-4(7)5-6(7)9-5/h3-6H,1-2H2/t4-,5+,6+,7+/m0/s1
