21
gdb 63971	2.9872	1.34431	1.32081	0.3379	76.83	-0.243	0.0768	0.3198	1087.3764	0.18329	-424.22563	-424.217321	-424.216377	-424.257902	33.451	
C	 0.1854754046	 1.509783955	-0.1255128336	-0.448584
C	-0.0107551367	-0.004777572	-0.0035678394	 0.39805
O	-1.40663803	-0.3041023913	 0.053204651	-0.476382
C	 0.5582969558	-0.7986515947	-1.2093765169	-0.258606
C	 1.9908195433	-1.2188760116	-0.8522727154	-0.071383
C	 3.0864391158	-0.1420018986	-0.9572841227	-0.084925
O	 3.0222424616	 0.1325126859	 0.4602637364	-0.296871
C	 2.1292043351	-0.9921111026	 0.6802715544	 0.130616
C	 0.7608253252	-0.5929874806	 1.2102748637	-0.286437
H	 1.2449672175	 1.7748540128	-0.1249351003	 0.145537
H	-0.2884917368	 1.8884924752	-1.0360897624	 0.11545
H	-0.2706223029	 2.0182397257	 0.7340577954	 0.100172
H	-1.8109812884	 0.2933193957	 0.6909376967	 0.272668
H	-0.0711062267	-1.6852260256	-1.3328581599	 0.114477
H	 0.5007624402	-0.2280211468	-2.1416850986	 0.098191
H	 2.2588431068	-2.1972813376	-1.2519538584	 0.07513
H	 4.0747872678	-0.5212802051	-1.2479175642	 0.099453
H	 2.8534884358	 0.7432692161	-1.5621422185	 0.098046
H	 2.6232654365	-1.7697036253	 1.2733422939	 0.070863
H	 0.833095462	 0.0997019237	 2.0551630183	 0.100139
H	 0.2294082633	-1.4902340684	 1.5479102303	 0.104397
132.7488	156.2513	250.1732	276.8105	298.4236	328.4228	360.6593	374.0425	424.4105	451.3793	591.6647	642.2402	767.6384	797.0632	850.5992	871.1963	887.1267	892.6327	938.4562	961.2429	981.4109	1007.8413	1023.3965	1047.67	1092.0265	1111.021	1144.9033	1156.3673	1170.3783	1196.1195	1222.5053	1268.9651	1290.1496	1295.8034	1312.7812	1341.0885	1360.4423	1365.8093	1390.2625	1409.8886	1464.4581	1481.1084	1496.3823	1504.7124	1528.7405	3007.2876	3021.6693	3033.5818	3047.0592	3049.4097	3052.5176	3088.3326	3092.1283	3093.8399	3105.6907	3136.1525	3809.859
CC1(O)CC2COC2C1	C[C@@]1(O)C[C@H]2CO[C@H]2C1	
InChI=1S/C7H12O2/c1-7(8)2-5-4-9-6(5)3-7/h5-6,8H,2-4H2,1H3	InChI=1S/C7H12O2/c1-7(8)2-5-4-9-6(5)3-7/h5-6,8H,2-4H2,1H3/t5-,6-,7+/m0/s1
