17
gdb 71919	2.51406	2.09363	1.47974	4.5353	71.76	-0.2304	-0.0114	0.219	921.6795	0.136985	-417.955861	-417.948579	-417.947635	-417.987282	28.765	
C	-0.0409266166	 1.5585719955	 0.0438473746	-0.520206
C	 0.0913637795	 0.0631515386	 0.088597878	 0.170057
N	-1.1956743278	-0.7504693944	 0.1029740703	-0.349205
C	-0.5865031277	-1.7451391326	 1.0462039034	-0.032429
C	 0.279050688	-2.7534524783	 0.2575588234	-0.176666
N	 1.3702662098	-1.7059393596	 0.1076737137	-0.196833
C	 0.6895764188	-0.872593598	 1.1832823937	-0.054428
C	 0.9745770949	-0.7337567051	-0.8966441517	 0.41623
O	 1.2401201519	-0.6764065335	-2.0567408326	-0.31333
H	 0.9411528621	 2.0397517021	 0.0716142127	 0.13811
H	-0.5377243091	 1.8587177863	-0.8845675727	 0.151173
H	-0.6304045903	 1.9330087743	 0.8882854018	 0.117725
H	-1.8915289249	-0.2064759523	 0.6078120907	 0.223751
H	-1.2400978032	-2.0974757291	 1.8446941245	 0.081535
H	 0.6481063705	-3.5775973123	 0.8737688708	 0.120505
H	-0.1169363018	-3.1330755403	-0.6870518263	 0.136096
H	 1.2546075258	-0.5962357413	 2.0713178356	 0.087916
147.8669	188.0222	218.9494	260.2515	289.2425	423.6587	463.305	626.133	639.8107	696.5676	749.7708	799.6358	822.5896	826.8697	858.4715	882.107	924.089	942.9973	987.8216	1017.1826	1036.2831	1044.367	1123.4822	1146.1502	1155.3153	1183.3958	1202.3446	1225.5769	1263.0386	1305.8333	1333.5111	1397.1016	1412.0872	1485.2814	1487.2118	1489.2535	1907.6384	3031.4821	3059.8283	3100.5217	3105.9847	3114.0428	3126.6598	3134.9908	3492.9151
CC12NC3CN(C13)C2=O	C[C@]12N[C@H]3CN([C@@H]13)C2=O	
InChI=1S/C6H8N2O/c1-6-4-3(7-6)2-8(4)5(6)9/h3-4,7H,2H2,1H3	InChI=1S/C6H8N2O/c1-6-4-3(7-6)2-8(4)5(6)9/h3-4,7H,2H2,1H3/t3-,4+,6-/m0/s1
