17
gdb 51835	3.47368	1.10047	0.87591	4.2202	71.3	-0.2315	-0.0421	0.1894	1288.554	0.136327	-455.14699	-455.138435	-455.137491	-455.181122	30.727	
N	 0.0362075179	 1.2533963736	 0.0087434799	-0.44247
C	 0.0183407227	-0.0029765176	-0.0864498771	 0.138946
O	-1.1134542258	-0.6751086132	 0.2396299624	-0.187899
C	-1.1137041809	-2.0724662798	 0.0399637363	 0.003848
C	-2.3525320846	-2.7387464216	 0.6533774761	-0.220894
N	-2.592210823	-3.9541097502	-0.1444218659	-0.294934
C	-2.2439602673	-3.6108960562	-1.5289445602	-0.283495
C	-1.2273833268	-2.4680030263	-1.4521291795	 0.377387
O	-0.6398650273	-1.9372555204	-2.3560126116	-0.299925
H	 0.9555412406	 1.6069627495	-0.247709421	 0.231331
H	 0.8411493093	-0.6538062933	-0.4015647927	 0.0988
H	-0.195416626	-2.5282970594	 0.4433628441	 0.102556
H	-2.2398416167	-2.9859503453	 1.709755193	 0.122314
H	-3.2032142439	-2.054047316	 0.5538522913	 0.137455
H	-1.9813220916	-4.694563039	 0.1833757663	 0.228391
H	-1.8557356589	-4.4646571225	-2.0897304718	 0.139597
H	-3.1265759277	-3.2433350122	-2.0717850897	 0.148992
62.7313	80.407	123.6256	169.7524	233.4075	291.914	382.4539	420.3304	524.4521	566.725	661.8347	685.5005	741.1475	798.5981	816.0905	911.0539	974.1404	984.0583	1023.6277	1031.2718	1081.2411	1103.064	1116.1531	1176.5668	1191.2929	1263.8093	1279.5585	1290.4315	1304.9035	1334.6285	1378.9488	1426.9413	1457.7834	1464.4858	1500.3725	1745.7076	1858.3391	2980.2778	3014.6773	3047.5205	3062.8257	3104.7952	3126.339	3520.295	3526.3534
N=COC1CNCC1=O	[NH][CH]O[C@H]1CNCC1=O	
InChI=1S/C5H8N2O2/c6-3-9-5-2-7-1-4(5)8/h3,5-7H,1-2H2	InChI=1S/C5H8N2O2/c6-3-9-5-2-7-1-4(5)8/h3,5-7H,1-2H2/t5-/m0/s1
