17
gdb 70175	3.62774	1.34218	1.12682	5.0335	75.49	-0.2568	-0.0467	0.2101	1093.5019	0.136312	-421.860556	-421.852815	-421.851871	-421.892649	30.079	
C	 0.210948598	 1.5259183055	-0.040032617	-0.475553
C	-0.0415205604	 0.0328134469	 0.0134335979	 0.233349
C	-0.9852440844	-0.5269206596	 1.0871026411	-0.349206
C	 0.4842579177	-0.7886199411	 1.1707323856	 0.089839
O	 1.0161052427	-2.0739657798	 0.9724909714	-0.24491
C	 0.8961319873	-2.7303984536	-0.2214083759	 0.41017
O	 1.2693239978	-3.8722695932	-0.2938801142	-0.336817
C	 0.3622101613	-1.9678689871	-1.3650220778	-0.222124
C	-0.0295732496	-0.69264763	-1.2716790763	-0.101736
H	 1.1768977646	 1.7504062021	-0.5043435057	 0.132002
H	-0.5693208539	 2.0318770158	-0.6200756607	 0.127175
H	 0.2118799958	 1.9612005465	 0.9635221902	 0.123958
H	-1.412732588	 0.1755058666	 1.7949065668	 0.124399
H	-1.6331617674	-1.3459335135	 0.796563796	 0.134824
H	 1.0534416665	-0.2850291822	 1.9441765631	 0.11757
H	 0.3587752496	-2.5116694429	-2.3015303365	 0.12494
H	-0.3474333675	-0.1485794304	-2.1587775079	 0.11212
94.0723	187.5815	210.9534	264.0433	306.0593	401.7694	412.28	473.5985	493.5885	590.9911	682.7104	721.5771	748.912	814.8327	849.2453	873.2747	918.4795	940.536	968.5601	1009.7338	1041.4106	1050.1507	1112.6328	1117.0607	1144.8042	1196.4331	1234.6912	1266.856	1336.6001	1416.204	1417.7204	1422.8519	1473.6351	1490.1491	1500.9311	1688.2416	1824.8443	3029.9114	3094.1276	3109.2335	3132.951	3150.4241	3172.8399	3216.9233	3229.6031
CC12CC1OC(=O)C=C2	C[C@]12C[C@H]1OC(=O)C=C2	
InChI=1S/C7H8O2/c1-7-3-2-6(8)9-5(7)4-7/h2-3,5H,4H2,1H3	InChI=1S/C7H8O2/c1-7-3-2-6(8)9-5(7)4-7/h2-3,5H,4H2,1H3/t5-,7+/m1/s1
