15
gdb 20984	3.44412	2.15367	1.34755	3.9791	64.44	-0.2173	0.0106	0.2279	881.2511	0.11865	-395.986176	-395.978214	-395.977269	-396.018936	28.031	
C	 0.0181395943	 1.4245238728	 0.0077678662	-0.349001
N	 0.0103955814	-0.0231792204	 0.0238740032	-0.141599
C	-0.0233250166	-0.80704799	-1.122239539	 0.480669
N	-0.0515981245	-0.3747714914	-2.3121841649	-0.616753
O	-0.0186996895	-2.0977503887	-0.6791635326	-0.247701
N	 0.0180636144	-2.1193747122	 0.7504050418	-0.193337
C	 0.0336439991	-0.8748758982	 1.0983784389	 0.400694
C	 0.072729711	-0.4254837866	 2.5155451148	-0.500764
H	 0.924782496	 1.8217153065	 0.4747253367	 0.138953
H	-0.0076373112	 1.7255493995	-1.0404378049	 0.188928
H	-0.8582464696	 1.8317154463	 0.5215006113	 0.13895
H	-0.0729118554	-1.1398629331	-2.9804844357	 0.233104
H	 0.0849013772	-1.3005441239	 3.1659816886	 0.169083
H	 0.9658615255	 0.176711634	 2.7121827027	 0.149386
H	-0.8025545821	 0.1861347654	 2.7579882931	 0.149387
53.3889	133.7886	167.0317	187.6878	256.5691	319.835	329.4212	528.8052	608.2319	628.2969	717.3627	723.369	745.9582	787.5508	893.6883	994.8613	1025.3065	1051.07	1067.4444	1157.8662	1212.3168	1234.7067	1363.9124	1408.4432	1436.6451	1470.0948	1475.6815	1498.9419	1503.1055	1517.2933	1668.1041	1775.6969	3037.6676	3044.3914	3099.1513	3101.5702	3152.7793	3155.6402	3547.7173
CN1C(=N)ON=C1C	CN1[C@@H]([NH])ON=C1C	
InChI=1S/C4H7N3O/c1-3-6-8-4(5)7(3)2/h5H,1-2H3	InChI=1S/C4H8N3O/c1-3-6-8-4(5)7(3)2/h4-5H,1-2H3/t4-/m1/s1
