13
gdb 75676	3.00231	1.29891	1.11889	2.4189	65.35	-0.258	-0.0601	0.1979	1057.8948	0.088685	-452.711465	-452.703719	-452.702775	-452.744035	28.393	
O	 0.0474223172	 1.4441755733	-0.1286962625	-0.410234
C	 0.0553214101	 0.0667143514	-0.0052995737	-0.027411
C	 0.2823006237	-0.6235109143	 1.3994373039	 0.423673
O	 1.2007227347	-0.675865887	 2.1552652375	-0.282169
C	-1.0746427519	-1.3038360576	 1.3217659774	-0.245318
N	-2.024211339	-0.1630442228	 1.1410956482	-0.370218
C	-1.3058281242	-0.682896514	-0.0384380521	 0.205904
C	-1.973131814	-1.2575605211	-1.1567104552	 0.16894
N	-2.5076287482	-1.7107348834	-2.0777682843	-0.327952
H	-0.610752875	 1.7831638516	 0.4923639923	 0.304666
H	 0.7686937678	-0.3410421983	-0.7281748121	 0.143492
H	-1.4104639852	-2.2607787456	 1.6992272338	 0.149793
H	-2.9694242462	-0.5463442322	 1.150238627	 0.266834
83.043	141.4725	183.3438	230.7002	281.8388	428.4909	470.3323	505.2278	516.3236	563.232	596.3393	686.8687	713.5939	814.9069	841.9318	950.8429	964.4434	1007.6424	1036.6788	1108.4933	1154.1804	1171.166	1246.346	1269.1393	1321.8592	1377.6707	1433.2278	1917.6699	2350.4534	3085.4926	3216.5742	3484.2501	3774.3538
OC1C(=O)C2NC12C#N	O[C@H]1C(=O)[C@H]2N[C@@]12C#N	
InChI=1S/C5H4N2O2/c6-1-5-3(7-5)2(8)4(5)9/h3-4,7,9H	InChI=1S/C5H4N2O2/c6-1-5-3(7-5)2(8)4(5)9/h3-4,7,9H/t3-,4+,5-/m1/s1
