17
gdb 80229	2.21047	1.76847	1.32349	3.5039	72.79	-0.2426	-0.0371	0.2055	1014.7477	0.136018	-421.850769	-421.843057	-421.842113	-421.882892	29.896	
C	-0.1399221335	 1.6097659447	 0.0299565098	-0.437897
C	 0.0303441685	 0.0969580814	-0.0151082884	 0.00838
C	 0.85765754	-0.604589892	-1.1556083331	-0.166478
C	 2.2490044711	 0.0583179045	-1.0239177656	-0.345817
C	 2.3612400515	 0.061729268	 0.5188024966	 0.429406
O	 3.2553817366	 0.487301809	 1.1962699766	-0.327371
C	 1.0633192114	-0.6110007664	 0.9571386401	-0.259693
C	 0.9923742356	-1.7320770133	-0.1209306615	 0.424111
O	 0.9118308866	-2.9207062683	-0.1045976445	-0.309758
H	 0.8096119586	 2.1488600409	-0.0167688359	 0.135847
H	-0.764420653	 1.9481156534	-0.8030401621	 0.129055
H	-0.6369782877	 1.9044777933	 0.959275149	 0.134903
H	-0.9435086022	-0.3903611637	 0.0838920997	 0.105949
H	 0.4537836833	-0.7714367151	-2.1518470671	 0.095081
H	 3.0606986402	-0.5242364701	-1.4690022672	 0.143696
H	 2.2932057398	 1.0694636324	-1.4369326329	 0.137541
H	 0.8970644432	-0.7701588889	 2.0183331165	 0.103046
115.4734	150.9646	190.4402	259.3907	281.5812	420.2055	465.0305	502.8215	573.5823	605.5603	656.9546	699.362	738.0307	773.3786	796.97	919.7371	942.2034	955.1836	1007.6044	1037.259	1070.4749	1085.5493	1105.9975	1132.2317	1144.1496	1168.9408	1206.9405	1231.2802	1277.9411	1297.0836	1395.2786	1416.8833	1460.7585	1492.8331	1501.0314	1862.3347	1914.158	3043.0029	3067.9882	3070.3376	3107.5005	3113.617	3123.7229	3146.1167	3177.0281
CC1C2CC(=O)C1C2=O	C[C@H]1[C@H]2CC(=O)[C@@H]1C2=O	
InChI=1S/C7H8O2/c1-3-4-2-5(8)6(3)7(4)9/h3-4,6H,2H2,1H3	InChI=1S/C7H8O2/c1-3-4-2-5(8)6(3)7(4)9/h3-4,6H,2H2,1H3/t3-,4+,6+/m0/s1
