12
gdb 133581	2.77757	1.30724	1.10487	5.3337	52.45	-0.3049	-0.0026	0.3023	1040.1933	0.07417	-563.151191	-563.143337	-563.142393	-563.184651	27.736	
F	 0.3813871744	 0.1818344783	 0.0046960621	-0.057897
C	-0.0204394115	 1.4480611178	-0.0341632991	 0.323141
F	 1.0222487427	 2.2158578054	-0.380860984	-0.071213
F	-0.9475779781	 1.5653877471	-0.9954803527	-0.073957
C	-0.5891730566	 1.9184651274	 1.2859197847	-0.200028
N	-1.3605241331	 0.9483691209	 2.0421010806	-0.297946
C	-0.0912551284	 1.4356648592	 2.6096522838	-0.185938
C	 0.9814805074	 0.4813494622	 2.770485847	 0.346754
N	 1.8604340043	-0.2443918092	 2.9568364398	-0.323736
H	-0.9153123456	 2.9547375674	 1.2399723299	 0.132996
H	-2.1528125078	 1.3811121463	 2.5082817521	 0.260533
H	-0.1319193077	 2.1662587371	 3.4139322257	 0.14729
44.0366	112.9903	183.6483	236.9172	260.5695	362.7355	423.1411	525.011	530.5839	567.7421	623.5231	702.2589	782.8737	841.7189	901.4538	943.6038	1004.5391	1080.5362	1164.0381	1198.4036	1203.5145	1212.9939	1239.7309	1319.7302	1413.4694	1486.6692	2370.625	3142.3896	3152.4465	3524.7914
FC(F)(F)C1NC1C#N	FC(F)(F)[C@H]1N[C@H]1C#N	
InChI=1S/C4H3F3N2/c5-4(6,7)3-2(1-8)9-3/h2-3,9H	InChI=1S/C4H3F3N2/c5-4(6,7)3-2(1-8)9-3/h2-3,9H/t2-,3-/m0/s1
