17
gdb 16745	4.15627	1.52242	1.46127	4.3944	67.77	-0.2349	-0.0092	0.2257	913.3386	0.143707	-363.858991	-363.85185	-363.850906	-363.890902	26.846	
O	-0.6634275427	 0.6592180244	 0.0246513756	-0.263366
C	-0.0870755679	 1.7180401016	 0.0546399691	 0.148427
C	 1.4235846172	 1.8585549183	-0.0051192185	-0.078803
C	 1.8706223375	 2.7254409287	-1.2263327894	-0.24119
C	 2.1688883151	 4.0998316553	-0.6612605099	-0.021937
N	 1.0596799525	 4.6356441946	 0.1593006119	-0.335869
C	 2.2345950937	 4.0209350066	 0.8169162815	-0.021942
C	 1.9810270655	 2.5929013015	 1.2569477158	-0.241168
H	-0.6347941845	 2.6802908778	 0.1294569225	 0.103917
H	 1.8200810235	 0.843336527	-0.0768757629	 0.091716
H	 2.7794032322	 2.3037007838	-1.6686284964	 0.109679
H	 1.1094135294	 2.7533680399	-2.0134173193	 0.116098
H	 2.7827292692	 4.7932751862	-1.2269817455	 0.087791
H	 1.1357297145	 5.6481595388	 0.2099666338	 0.233047
H	 2.899348146	 4.6532471924	 1.3965631944	 0.087794
H	 1.292611927	 2.5334218077	 2.106805648	 0.116122
H	 2.9233904219	 2.1308496654	 1.5697302094	 0.109683
56.0958	116.6473	260.8515	322.0001	342.927	387.4938	450.6849	640.3578	752.4792	787.52	826.1022	858.5248	910.6038	913.1021	942.0959	943.5409	969.4072	992.8249	1078.5776	1099.4431	1116.395	1121.5892	1163.2134	1197.4324	1229.7875	1251.2673	1251.9478	1317.0489	1319.4281	1342.1245	1374.9711	1410.8538	1434.1645	1479.4278	1488.2117	1822.7954	2930.0904	3042.8046	3044.0962	3078.9325	3082.9361	3093.31	3159.1876	3170.0575	3506.843
O=CC1CC2NC2C1	O=C[C@H]1C[C@H]2N[C@H]2C1	
InChI=1S/C6H9NO/c8-3-4-1-5-6(2-4)7-5/h3-7H,1-2H2	InChI=1S/C6H9NO/c8-3-4-1-5-6(2-4)7-5/h3-7H,1-2H2/t4-,5+,6-
