19
gdb 96409	2.58266	1.4371	0.97978	3.6637	76.82	-0.2403	0.0213	0.2616	1194.0279	0.160876	-419.208876	-419.200471	-419.199526	-419.241755	31.822	
C	-0.0622045461	 1.4852987934	 0.0019576948	-0.337133
N	-0.0106767825	 0.0285311653	 0.0049288602	-0.08443
C	-1.3488666995	-0.557096066	-0.0749603851	-0.148651
C	-1.2647171233	-2.0775015659	-0.1163488638	-0.090459
O	-0.577787521	-2.5723069654	 1.0231729507	-0.243028
C	 0.7292814708	-2.058073177	 1.0845962576	-0.091567
C	 0.7072121888	-0.5130185129	 1.1610743669	-0.106029
C	 2.0890939519	-0.0197718051	 1.2084232413	 0.282517
N	 3.1869200553	 0.3349470637	 1.2696391861	-0.327481
H	 0.9503120912	 1.8962206085	 0.0052006792	 0.150464
H	-0.5653628993	 1.8229567084	-0.9085394267	 0.12639
H	-0.60883317	 1.8981946334	 0.8699876998	 0.10045
H	-1.9779129702	-0.253090422	 0.7842156705	 0.089631
H	-1.8319029273	-0.1876726431	-0.9859132144	 0.11091
H	-2.2635486127	-2.5206237708	-0.0966610324	 0.115317
H	-0.7514409097	-2.3974395575	-1.036529056	 0.10288
H	 1.1995823963	-2.4680808765	 1.9811305977	 0.129537
H	 1.3162312712	-2.3554851049	 0.2023685565	 0.114033
H	 0.2199996161	-0.2280203454	 2.1149997971	 0.106648
102.0626	152.862	179.2748	241.2925	282.4327	330.4596	355.9684	398.0975	420.6453	472.675	543.5614	558.3526	610.5981	796.4454	877.7744	899.3531	984.1474	1013.7883	1040.2628	1082.8073	1090.1773	1111.8668	1148.3226	1169.4132	1187.3812	1235.0387	1264.9231	1298.4176	1316.3321	1336.0655	1358.9508	1384.4125	1406.5526	1424.1803	1462.7065	1483.9545	1487.6515	1496.0934	1501.2736	1505.8211	2360.9854	2905.0827	2921.4833	2942.4163	2990.7774	2998.7406	3068.8497	3078.2201	3101.9726	3110.7339	3124.7055
CN1CCOCC1C#N	CN1CCOC[C@H]1C#N	
InChI=1S/C6H10N2O/c1-8-2-3-9-5-6(8)4-7/h6H,2-3,5H2,1H3	InChI=1S/C6H10N2O/c1-8-2-3-9-5-6(8)4-7/h6H,2-3,5H2,1H3/t6-/m1/s1
