17
gdb 124927	2.27983	1.83728	1.03024	3.6958	80.79	-0.2309	-0.0658	0.1651	1127.9747	0.134936	-418.006687	-417.997821	-417.996877	-418.041276	31.862	
C	 0.0530757402	 1.5337737567	 0.0170067591	-0.505948
C	-0.0180069043	 0.0278134709	-0.0312206667	 0.176192
C	-1.1680952794	-0.6852304245	 0.0243199639	 0.143248
C	-2.541535314	-0.1009521855	 0.1413688095	-0.479003
C	-1.092938357	-2.1449057309	-0.0325587698	 0.359195
N	-2.128732543	-2.8810012921	 0.0141530941	-0.526981
O	 0.1600881605	-2.7280059632	-0.1411577555	-0.288345
N	 1.3389563589	-1.996141863	-0.1980746424	-0.081256
C	 1.2163841628	-0.718077479	-0.1442799294	-0.01542
H	 1.0882822095	 1.8784328115	-0.0428289963	 0.132241
H	-0.4969641476	 1.9890886298	-0.8128793031	 0.148496
H	-0.3747333984	 1.9270448798	 0.9448351242	 0.148492
H	-3.1604473636	-0.4248478719	-0.7015892056	 0.157298
H	-3.0384639608	-0.4864521135	 1.0374621968	 0.1573
H	-2.5249698425	 0.9887829164	 0.1787901708	 0.11687
H	-1.871723381	-3.8675772127	-0.0387618706	 0.226711
H	 2.1655379098	-0.1905053088	-0.192280899	 0.130909
30.9508	101.4567	116.7003	149.2528	262.4175	305.505	327.6284	459.653	484.881	501.5756	536.4272	612.2337	659.1073	745.4375	839.6674	860.1428	898.91	921.6956	952.1463	1013.5384	1035.644	1035.7203	1069.2707	1146.0009	1192.0639	1256.3146	1360.3048	1368.4589	1414.221	1416.8959	1465.0862	1467.389	1490.372	1498.472	1622.2367	1687.7022	1718.7799	3039.9402	3048.2687	3097.4675	3099.8691	3119.9025	3146.1879	3169.4545	3484.613
CC1=C(C)C(=N)ON=C1	C[C]1C(=C([NH])ON=C1)C	
InChI=1S/C6H8N2O/c1-4-3-8-9-6(7)5(4)2/h3,7H,1-2H3	InChI=1S/C6H8N2O/c1-4-3-8-9-6(7)5(4)2/h3,7H,1-2H3
