21
gdb 69505	2.43632	1.61074	1.33467	1.7529	82.26	-0.2405	0.0875	0.328	1096.9269	0.180208	-387.054553	-387.045254	-387.04431	-387.087732	35.847	
C	-0.032576315	 1.5298501706	 0.0848518387	-0.497142
C	-0.0201553158	 0.0290352901	 0.0285799031	 0.289223
C	 1.1727741164	-0.804261515	-0.3865511913	-0.389783
C	 0.6238524114	-0.9739301562	 1.0123624784	 0.232604
C	 1.3944184703	-0.697639838	 2.2715975003	-0.501823
C	-0.6386223399	-1.8250677061	 0.9245537199	 0.375595
C	-0.7709811676	-3.3089479198	 1.0540632361	-0.50798
O	-1.7517370073	-1.0065892501	 1.3379370629	-0.302307
C	-1.2497779326	-0.8572391906	-0.0045811265	-0.124181
H	 0.9407033463	 1.9260349936	 0.3931796346	 0.116145
H	-0.2670961587	 1.9660705822	-0.8934523087	 0.119193
H	-0.7822986232	 1.883225987	 0.8003598704	 0.131464
H	 1.0681584278	-1.5949978688	-1.1259301508	 0.102954
H	 2.115038322	-0.2663921352	-0.4565809163	 0.109664
H	 2.0781346651	 0.1481972389	 2.1436998427	 0.117211
H	 0.7138185697	-0.4582284734	 3.095439716	 0.131095
H	 1.9987544507	-1.5620153721	 2.5719669058	 0.118945
H	-0.6472138142	-3.6218566401	 2.0971243192	 0.129156
H	-1.7577293489	-3.6382199508	 0.7185549433	 0.132897
H	-0.006524109	-3.8190038488	 0.4588433962	 0.124169
H	-1.9559866476	-1.0229339174	-0.8115905441	 0.092903
148.5982	177.3926	192.2835	199.4951	203.5456	216.4964	229.3132	308.8062	422.0286	433.7901	511.1763	572.9218	608.2195	650.9987	708.884	768.6531	817.816	868.2599	901.7619	959.1854	976.1648	977.9176	1001.7681	1022.9844	1078.6901	1083.0941	1099.1456	1113.6348	1153.1445	1208.2295	1216.0653	1284.1078	1336.183	1387.3459	1400.2022	1411.7647	1419.8886	1458.3899	1483.4334	1484.3552	1491.5475	1494.2494	1496.9289	1499.4601	1505.5198	3022.9085	3025.1163	3033.4304	3082.6488	3084.5797	3093.732	3098.1211	3100.0199	3102.3684	3120.7357	3171.7667	3183.0015
CC12CC1(C)C1(C)OC21	C[C@@]12C[C@]1(C)[C@@]1(C)O[C@@H]21	
InChI=1S/C8H12O/c1-6-4-7(6,2)8(3)5(6)9-8/h5H,4H2,1-3H3	InChI=1S/C8H12O/c1-6-4-7(6,2)8(3)5(6)9-8/h5H,4H2,1-3H3/t5-,6-,7-,8-/m0/s1
