19
gdb 60806	2.58314	1.02087	0.94757	2.5642	72.89	-0.2487	-0.0425	0.2062	1333.9537	0.154502	-460.194102	-460.183353	-460.182409	-460.231594	36.862	
C	-0.2352924164	 1.439487178	-0.1021149388	-0.420971
C	 0.0102086134	-0.0723334743	 0.0029855064	-0.09386
C	 0.7648068718	-0.5753793564	-1.2189871333	 0.159231
O	 0.4239677807	-1.5236458217	-1.8784154181	-0.25189
C	 0.843909925	-0.4381904621	 1.2661169088	 0.023611
O	 2.0809189818	 0.2188150037	 1.251576439	-0.438467
C	 0.0929482222	-0.1004075361	 2.5605451736	 0.366112
C	-1.2399113562	-0.757281447	 2.8243819665	-0.484582
O	 0.6030286055	 0.6813231669	 3.3353396265	-0.317707
H	 0.7160358281	 1.9770773934	-0.1194944363	 0.146062
H	-0.7904764748	 1.6833748569	-1.0122937291	 0.129484
H	-0.8125773119	 1.8096770729	 0.7509077406	 0.126804
H	-0.9315528865	-0.6299287503	 0.0312702356	 0.094568
H	 1.6820338944	 0.002305835	-1.46379881	 0.097811
H	 0.9951480492	-1.5312909302	 1.2623707923	 0.104445
H	 2.1032849158	 0.7328453385	 2.0768772319	 0.296491
H	-2.0179402104	-0.2603168619	 2.2331809789	 0.159983
H	-1.2326116651	-1.810246732	 2.5278172729	 0.148564
H	-1.4926275965	-0.6618996234	 3.8810467326	 0.154312
25.1943	58.8658	76.059	107.457	152.5534	186.4483	246.7215	255.4793	319.232	355.7405	404.5484	458.1246	502.7422	537.336	611.4402	691.3513	793.0012	865.3161	927.7188	970.8563	975.3747	1011.0336	1041.5092	1110.0073	1148.7329	1161.9756	1212.6063	1261.2238	1293.7879	1312.7152	1359.7266	1388.5061	1404.2176	1421.7227	1437.4281	1462.9727	1474.5036	1494.793	1502.0875	1794.3243	1828.9701	2905.941	2963.1681	3042.2955	3043.9565	3066.0636	3106.7293	3109.7863	3129.5787	3154.448	3652.2152
CC(C=O)C(O)C(C)=O	C[C@@H](C=O)[C@@H](O)C(=O)C	
InChI=1S/C6H10O3/c1-4(3-7)6(9)5(2)8/h3-4,6,9H,1-2H3	InChI=1S/C6H10O3/c1-4(3-7)6(9)5(2)8/h3-4,6,9H,1-2H3/t4-,6+/m0/s1
