21
gdb 77467	1.9673	1.47648	1.37919	0.8498	79.37	-0.2376	0.0735	0.3111	1140.1587	0.180213	-424.199181	-424.189204	-424.18826	-424.233067	37.849	
C	-0.0830462612	 1.5740292659	-0.0348241804	-0.421222
C	 0.113016638	 0.0707141642	-0.07103737	-0.122843
C	 0.7129826411	-0.740916192	-1.2031952031	 0.27276
C	-0.0094560034	-1.878209634	-1.866159754	-0.49428
C	 1.8917158821	 0.0254055208	-1.8217525098	-0.340487
C	 2.6205471291	-0.0305163822	-0.4322443528	 0.05341
O	 3.0433393977	 1.1636352058	 0.198917491	-0.436726
C	 1.3932265157	-0.6876360621	 0.175680491	 0.321883
O	 1.4767095319	-1.7094251702	 1.110434048	-0.468152
H	 0.8038227253	 2.1138647186	-0.3674576877	 0.136727
H	-0.9317872351	 1.8718867954	-0.6615395452	 0.107368
H	-0.2956231225	 1.9067773381	 0.9873131855	 0.111198
H	-0.7148893688	-0.4809013855	 0.3754442521	 0.081809
H	-0.7046784785	-1.5203357555	-2.635175241	 0.116638
H	 0.6925334734	-2.5669835164	-2.3503013205	 0.114696
H	-0.58712884	-2.4515510595	-1.1340924377	 0.124982
H	 2.4161807465	-0.538306279	-2.5982206622	 0.096097
H	 1.6751224966	 1.0292069261	-2.1980793676	 0.096746
H	 3.4377670829	-0.7632585203	-0.4655261223	 0.079333
H	 3.8660198098	 1.4474090215	-0.2121973571	 0.282744
H	 1.3348450895	-1.3318697698	 1.9851178838	 0.287319
138.0105	165.9055	170.1859	189.2972	211.8161	229.1965	260.071	284.4735	295.7239	346.9185	373.9833	456.688	521.3756	580.6508	620.0335	695.6976	754.1128	779.0017	849.902	930.8248	962.9557	1005.0807	1021.8183	1068.4434	1105.4642	1120.2516	1128.8531	1146.2059	1162.1641	1209.0986	1221.4785	1243.534	1281.1576	1310.6276	1336.4059	1349.5507	1415.0572	1415.7482	1430.2992	1468.8569	1485.7915	1492.8236	1497.4001	1508.7604	1521.0248	3014.3258	3019.833	3030.1528	3051.5939	3076.4726	3082.7836	3098.099	3101.9275	3106.6803	3147.088	3798.096	3814.6253
CC1C2(C)CC(O)C12O	C[C@H]1[C@@]2(C)C[C@@H](O)[C@@]12O	
InChI=1S/C7H12O2/c1-4-6(2)3-5(8)7(4,6)9/h4-5,8-9H,3H2,1-2H3	InChI=1S/C7H12O2/c1-4-6(2)3-5(8)7(4,6)9/h4-5,8-9H,3H2,1-2H3/t4-,5+,6+,7-/m0/s1
