19
gdb 30346	2.96427	1.56892	1.07146	1.4734	82.62	-0.1707	0.0504	0.2211	1125.4537	0.162812	-382.101988	-382.094109	-382.093165	-382.13403	31.324	
C	-0.2795794964	 1.532301624	-0.0241160359	-0.395153
C	 0.0230256373	 0.0330639005	 0.020828757	-0.123955
C	 0.9456598636	-0.4451364721	-1.1453337541	-0.173684
N	 1.6802824541	-1.6234653935	-0.6213291933	-0.416071
C	 1.7676348491	-1.4089299504	 0.768918204	 0.253831
C	 2.4496135217	-1.8855070658	 1.8596698798	-0.236711
N	 1.9032367983	-1.234028795	 2.9607953332	-0.244839
C	 0.9088001448	-0.3673716643	 2.5712386696	-0.251373
C	 0.8103125218	-0.4599718318	 1.2052366171	 0.281015
H	 0.6420831045	 2.1181523354	 0.0548074995	 0.114873
H	-0.7820949975	 1.808009146	-0.9579875396	 0.108813
H	-0.9351710368	 1.8249609992	 0.8023650934	 0.113229
H	-0.9290209253	-0.5143703947	-0.044616635	 0.084743
H	 0.3815883993	-0.7110477818	-2.0443923866	 0.098424
H	 1.6353879363	 0.3745835693	-1.4053637966	 0.086558
H	 2.5643014281	-1.7789271017	-1.0888497718	 0.224935
H	 3.248362221	-2.5986887181	 1.974601301	 0.107587
H	 2.2390779422	-1.332427814	 3.9016514143	 0.254601
H	 0.3787120239	 0.2266334887	 3.298509444	 0.113178
121.1739	166.2551	222.2766	262.3198	290.7177	367.2395	442.0436	499.5521	559.5207	609.3193	619.3975	632.8213	685.8141	731.8652	740.917	802.2831	904.5052	930.1837	953.0697	1009.213	1048.7491	1061.789	1102.7585	1119.6854	1131.9716	1170.598	1215.4544	1250.0968	1298.4905	1316.092	1337.4869	1364.6937	1399.2495	1411.1859	1457.7157	1466.9816	1495.376	1499.6422	1510.1926	1572.6345	1656.7902	2964.1421	2986.2628	3028.6105	3073.5432	3094.9708	3103.3763	3256.582	3269.2767	3555.8215	3695.6945
CC1CNC2=CNC=C12	C[C@H]1CNc2c[nH]cc12	
InChI=1S/C7H10N2/c1-5-2-9-7-4-8-3-6(5)7/h3-5,8-9H,2H2,1H3	InChI=1S/C7H10N2/c1-5-2-9-7-4-8-3-6(5)7/h3-5,8-9H,2H2,1H3/t5-/m0/s1
