13
gdb 129021	4.14615	1.7082	1.20977	3.5283	75.97	-0.2371	-0.0838	0.1533	918.524	0.093664	-411.791248	-411.785467	-411.784523	-411.821322	23.101	
N	 0.0095234304	 1.3255664111	 0.0094808517	-0.337248
N	 1.1220112345	 2.0837937347	 0.0030605179	-0.067863
N	 2.2704944858	 1.4932741894	-0.0113491079	-0.212571
C	 2.3844831165	 0.1360755811	-0.0201355591	-0.043829
C	 1.2866552766	-0.685889432	-0.0142164994	 0.260725
N	 1.1355967241	-2.0297766272	-0.0203910696	-0.349255
C	-0.1976197744	-2.2061186613	-0.0084954603	-0.011576
C	-0.9736924233	-1.0174860027	 0.0056741987	-0.320216
C	-0.0150635403	-0.0210183298	 0.0020914088	 0.419384
H	-0.8342863123	 1.8846176296	 0.0207731102	 0.288488
H	 3.4013042949	-0.2403084575	-0.0320711479	 0.147257
H	-0.6062559546	-3.2109462766	-0.010256308	 0.11763
H	-2.0483447679	-0.9312415488	 0.0165036389	 0.109074
220.338	239.6005	389.892	422.3686	584.7903	596.4072	618.6837	666.1458	739.1505	762.5412	790.6425	798.3862	896.4349	937.1363	951.5753	973.9769	1037.6394	1057.12	1152.88	1176.4897	1220.2271	1320.6814	1338.1197	1366.2554	1412.6233	1441.8633	1494.5434	1617.2436	1642.5641	3200.1826	3202.4487	3260.876	3584.07
N1N=NC=C2N=CC=C12	[nH]1nncc2nccc12	
InChI=1S/C5H4N4/c1-2-6-5-3-7-9-8-4(1)5/h1-3H,(H,7,8)	InChI=1S/C5H4N4/c1-2-6-5-3-7-9-8-4(1)5/h1-3H,(H,7,8)
