19
gdb 9407	5.36838	0.7686	0.72851	4.6006	70.37	-0.2409	0.0321	0.2729	1544.622	0.163992	-402.216428	-402.206547	-402.205602	-402.252363	33.347	
C	-0.2082994922	 1.4040992349	 0.0415303887	-0.348709
N	 0.0016870397	-0.0314007539	-0.0363264241	-0.027442
C	-0.018087866	-0.8147570517	 1.1862597799	-0.183321
C	-1.4114421253	-0.9562165303	 1.8131098301	-0.173428
C	-1.3912788915	-1.8082804722	 3.0760871586	-0.069192
O	-2.7106606579	-1.8419979921	 3.5935930681	-0.418202
C	 0.2370988156	-0.6135031408	-1.2474093686	 0.152717
O	 0.2704051941	-0.0396871189	-2.3157494345	-0.34302
H	 0.4969451694	 1.8557492824	 0.749635439	 0.121515
H	-0.0428809667	 1.8161563668	-0.9539940443	 0.169408
H	-1.226733312	 1.6481622272	 0.3636508606	 0.130881
H	 0.3819386195	-1.8075446296	 0.9500412745	 0.116262
H	 0.6719403618	-0.3600376127	 1.9115852246	 0.107443
H	-1.8186551943	 0.0275345084	 2.0700144169	 0.116159
H	-2.0969155864	-1.4061009108	 1.0864843394	 0.117582
H	-1.0284730611	-2.8219220054	 2.8372480294	 0.087824
H	-0.6861673771	-1.3766505759	 3.8062579328	 0.08682
H	-2.7106434401	-2.385195062	 4.3871002063	 0.288193
H	 0.4038954605	-1.7046283434	-1.1478400674	 0.068511
45.0477	68.7051	94.6014	120.4757	145.7626	234.0292	266.7724	296.1691	338.2829	369.7117	388.6498	477.1685	707.8097	761.7998	871.8507	881.8368	1024.9218	1028.1542	1035.8811	1083.0108	1098.1492	1131.5612	1160.2961	1216.2445	1239.1874	1279.4645	1304.7557	1313.0268	1323.1592	1407.926	1434.3982	1439.7194	1444.6191	1466.211	1484.4403	1498.5527	1501.3614	1522.029	1528.9787	1796.2771	2930.8559	2954.6018	2979.4487	3001.1708	3023.481	3046.5579	3059.7038	3075.4793	3095.6473	3155.6743	3830.7214
CN(CCCO)C=O	CN(CCCO)C=O	
InChI=1S/C5H11NO2/c1-6(5-8)3-2-4-7/h5,7H,2-4H2,1H3	InChI=1S/C5H11NO2/c1-6(5-8)3-2-4-7/h5,7H,2-4H2,1H3
