14
gdb 27843	2.12534	1.85286	0.99044	7.3586	70.8	-0.2221	-0.0164	0.2057	1103.6526	0.101772	-470.090246	-470.082086	-470.081142	-470.122698	30.953	
N	 0.066765672	 1.351802221	 0.1383170489	-0.565204
C	-0.0544998945	 0.0016219581	 0.0465249987	 0.495783
C	-1.2379880352	-0.6880549489	 0.0084833095	-0.356764
C	-1.1294482521	-2.1008546251	-0.0364482616	 0.433782
N	-2.2507480381	-2.8614679463	-0.1013500508	-0.554951
N	 0.0196051865	-2.7631475976	-0.0442422017	-0.428633
C	 1.1852833368	-2.101102976	-0.0169845959	 0.429362
O	 2.3043951598	-2.5173564396	-0.0240039096	-0.346537
O	 1.1130718524	-0.6179479764	 0.0319054784	-0.26777
H	 0.9762528679	 1.7367367562	-0.0604180437	 0.275679
H	-0.7298903855	 1.9239356384	-0.084509426	 0.268924
H	-2.1902095427	-0.176670535	 0.0138233287	 0.084388
H	-3.1521869544	-2.4649722492	 0.0957941365	 0.261452
H	-2.1307832027	-3.8561597096	-0.0008894314	 0.270489
120.1946	169.7502	201.1545	257.1932	307.3102	360.2114	365.4598	430.2402	493.3693	529.6818	537.6136	589.8002	632.0396	699.4793	711.3857	765.5988	766.6082	785.3641	969.8394	1035.3172	1058.2129	1094.0832	1247.9218	1272.2369	1444.2465	1503.3871	1566.1396	1626.0911	1645.0104	1682.3302	1902.2935	3219.9305	3603.8183	3609.5472	3726.9595	3743.014
NC1=CC(N)=NC(=O)O1	Nc1cc(N)nc(=O)o1	
InChI=1S/C4H5N3O2/c5-2-1-3(6)9-4(8)7-2/h1H,6H2,(H2,5,7,8)	InChI=1S/C4H5N3O2/c5-2-1-3(6)9-4(8)7-2/h1H,6H2,(H2,5,7,8)
