21
gdb 91630	2.87475	1.69754	1.50999	1.384	80.37	-0.2343	0.0908	0.3251	991.2438	0.185918	-387.086959	-387.07987	-387.078926	-387.117943	30.33	
C	-0.1815790825	 1.5419248962	-0.0482936126	-0.412641
C	 0.0441796249	 0.0399905009	 0.0351993	 0.169282
O	 0.8229428825	-0.4104298442	-1.1031349711	-0.302571
C	 1.8964106387	-1.2151340217	-0.5682330357	 0.097479
C	 1.2229147957	-1.8826368776	 0.6395084917	-0.255237
C	 0.8339109323	-0.5200253694	 1.2536884227	-0.076319
C	 2.1667011289	 0.2339939841	 1.3019419994	-0.010185
C	 3.4719649243	-0.5144968776	 1.413750076	-0.336968
C	 2.8956598883	-0.2358681008	 0.0482568755	-0.026709
H	 0.7611137379	 2.0935966722	-0.0400794608	 0.120825
H	-0.7026886036	 1.784779273	-0.9789063673	 0.124262
H	-0.8016412678	 1.8862157812	 0.7869453409	 0.107559
H	-0.9350545497	-0.4616434028	-0.005187742	 0.066623
H	 2.266382727	-1.8591788341	-1.3668191121	 0.069888
H	 0.3556433132	-2.4720603322	 0.3347011167	 0.103504
H	 1.8706397039	-2.5025201853	 1.2579291906	 0.100633
H	 0.2552113712	-0.542926744	 2.1788893889	 0.062012
H	 2.1565797823	 1.2788454374	 1.5873215413	 0.087356
H	 4.3258702601	 0.0963210326	 1.6880294137	 0.110747
H	 3.5226921056	-1.5209928896	 1.8123215655	 0.111149
H	 3.3939113469	 0.4583849715	-0.6180462214	 0.08931
160.3993	220.5357	276.0052	355.5834	377.0552	474.2287	504.2247	538.6975	567.8429	722.4472	762.8592	809.5269	826.7705	845.1857	867.4758	885.6965	906.5125	938.9306	943.4866	994.6972	999.8344	1022.7988	1037.6051	1063.6486	1076.3438	1091.7421	1094.6737	1119.7967	1142.3256	1145.9638	1197.9943	1216.1407	1276.6896	1280.1729	1299.8159	1300.7363	1344.8877	1355.2351	1378.954	1393.2165	1411.3505	1481.3489	1485.5738	1502.6635	1519.2528	2974.4387	3039.8433	3084.5767	3098.0515	3106.7353	3112.1239	3128.8392	3131.0118	3143.2204	3176.8911	3184.4704	3211.4479
CC1OC2CC1C1CC21	C[C@H]1O[C@@H]2C[C@H]1[C@H]1C[C@@H]21	
InChI=1S/C8H12O/c1-4-5-3-8(9-4)7-2-6(5)7/h4-8H,2-3H2,1H3	InChI=1S/C8H12O/c1-4-5-3-8(9-4)7-2-6(5)7/h4-8H,2-3H2,1H3/t4-,5-,6-,7-,8-/m1/s1
