17
gdb 9310	6.28632	0.78485	0.70987	3.7555	70.75	-0.2952	-0.084	0.2112	1545.7867	0.13989	-363.894458	-363.885156	-363.884211	-363.929494	31.545	
C	 0.0843311153	 1.5437269187	 0.0091461184	-0.382117
C	 0.0040617301	 0.0150252252	 0.0020557248	-0.177057
C	-1.4383294055	-0.5022769144	 0.0130470125	-0.170534
C	-1.5138172414	-2.028648994	 0.0059442536	-0.308259
C	-2.9247715346	-2.565466122	 0.0165897609	 0.285468
O	-3.9286791723	-1.8998229965	 0.0298456311	-0.261655
C	-3.019883749	-4.0458475293	 0.0095389224	 0.226586
N	-3.0787475177	-5.2006706796	 0.0040587666	-0.295015
H	 1.1233359114	 1.88624883	 0.0010792422	 0.117062
H	-0.4148907065	 1.9701354039	-0.8676733428	 0.119433
H	-0.3981786339	 1.9610604888	 0.8995820017	 0.119434
H	 0.5248603435	-0.3763517757	-0.88192096	 0.099539
H	 0.5414539928	-0.3853599513	 0.8719546618	 0.099539
H	-1.9671568173	-0.1209093525	 0.8941373489	 0.117692
H	-1.9836849141	-0.1119520056	-0.8539362347	 0.11768
H	-1.0072744496	-2.4570543586	-0.8715372404	 0.146095
H	-0.9908442912	-2.465926047	 0.8693082827	 0.14611
51.4636	80.5203	95.577	134.1518	182.5307	242.7632	276.08	295.2969	363.1371	494.3221	570.5286	611.2326	733.5875	803.5228	813.8484	916.0463	934.3053	1016.3546	1065.6425	1071.6216	1118.2021	1139.8679	1233.0591	1290.4431	1309.5729	1331.4639	1373.8076	1403.5002	1415.5964	1439.8298	1484.8963	1494.902	1499.2265	1511.417	1800.1057	2336.5166	3010.1039	3014.7063	3032.8948	3035.3091	3042.3153	3042.9883	3082.6832	3101.1144	3107.7018
CCCCC(=O)C#N	CCCCC(=O)C#N	
InChI=1S/C6H9NO/c1-2-3-4-6(8)5-7/h2-4H2,1H3	InChI=1S/C6H9NO/c1-2-3-4-6(8)5-7/h2-4H2,1H3
