15
gdb 44255	3.07543	1.49546	1.19453	3.4476	64.85	-0.2629	-0.0454	0.2175	1007.0983	0.113266	-457.811767	-457.804557	-457.803613	-457.844148	26.872	
O	 0.004830777	-0.0276503713	-0.3201763245	-0.279617
C	-0.03968181	 1.14041124	-0.0778496589	 0.402026
C	-1.171763367	 2.1363173901	 0.2283013323	-0.35335
C	-0.0662625842	 3.1807269915	 0.5929841401	-0.191691
C	 1.0505932268	 2.224664438	 0.1043607758	-0.172986
C	 1.9833055448	 2.0467980852	 1.3110623621	-0.102603
O	 1.2719098894	 2.56156881	 2.4463974722	-0.219275
C	 0.1693949282	 3.2833535756	 2.0951769774	 0.441433
O	-0.4938483044	 3.866833216	 2.9006484535	-0.333863
H	-1.736728959	 2.4017188598	-0.6706834925	 0.145949
H	-1.8776909827	 1.8544427368	 1.0137177604	 0.155793
H	-0.1723946613	 4.1696738798	 0.1506480462	 0.117895
H	 1.5821068953	 2.4684046717	-0.8170513051	 0.11753
H	 2.2282435102	 0.9991364246	 1.5038434022	 0.145396
H	 2.9128644768	 2.6142009021	 1.1996699586	 0.127363
59.4276	126.3479	204.0208	242.6424	426.2403	462.3274	530.2667	578.3325	683.2716	710.5734	740.9335	761.3289	811.3563	894.5549	945.927	966.0526	981.9197	1023.9173	1063.7519	1079.8574	1114.8421	1165.6078	1171.8364	1207.3385	1241.3683	1244.2912	1269.7851	1295.0429	1393.7207	1441.0604	1520.6868	1880.5934	1901.3353	3049.7579	3062.5121	3101.9527	3108.0711	3118.8398	3136.1401
O=C1CC2C1COC2=O	O=C1C[C@@H]2[C@H]1COC2=O	
InChI=1S/C6H6O3/c7-5-1-3-4(5)2-9-6(3)8/h3-4H,1-2H2	InChI=1S/C6H6O3/c7-5-1-3-4(5)2-9-6(3)8/h3-4H,1-2H2/t3-,4-/m1/s1
