18
gdb 127022	3.40123	1.11684	0.85428	2.9301	74.95	-0.2299	0.0293	0.2592	1352.1299	0.148375	-435.296425	-435.287201	-435.286257	-435.331756	31.673	
C	-0.0130655048	 1.5061555211	 0.1289943009	-0.39371
C	-0.0208587939	-0.0056774683	 0.024406948	-0.043972
O	 0.6836505401	-0.5224435471	 1.1723314444	-0.282782
C	 0.7738938634	-1.8490551151	 1.2388365987	 0.51093
N	 0.3017595504	-2.7435208043	 0.3929635522	-0.385983
C	 0.6959447991	-3.9135921427	 0.977312263	 0.028928
N	 1.3661590064	-3.794832498	 2.1053152562	-0.264425
N	 1.41395662	-2.4364768704	 2.272143209	-0.058948
C	 2.0721991558	-1.8330726476	 3.4076290091	-0.333755
H	 1.0101165894	 1.8922046451	 0.1342485914	 0.130864
H	-0.5399728948	 1.9366851074	-0.7274228145	 0.12729
H	-0.512883449	 1.8372236025	 1.0436167651	 0.130874
H	-1.0369140441	-0.4132018315	 0.0221099552	 0.128314
H	 0.4787724223	-0.3584545641	-0.883518227	 0.128373
H	 0.4769614041	-4.8806133174	 0.5491865455	 0.123205
H	 3.1305525762	-2.1069996022	 3.4218663267	 0.149326
H	 1.9770427975	-0.7502250916	 3.3222776636	 0.156051
H	 1.6062731419	-2.1687399759	 4.3379701325	 0.14942
56.3415	62.712	84.6651	140.6048	183.1993	245.8984	295.0494	330.0845	353.5194	520.9361	670.7362	673.9194	743.3876	810.3604	815.4644	899.4147	923.2285	987.5634	1025.4582	1070.0448	1128.704	1155.8536	1183.6436	1211.0947	1244.1248	1292.5162	1293.0903	1314.5657	1392.866	1419.275	1446.0889	1469.9048	1480.4802	1484.5986	1497.695	1510.3724	1522.6099	1566.1463	1603.5455	3047.4088	3049.8145	3051.8797	3089.226	3116.1517	3123.4973	3127.0209	3158.9158	3255.4491
CCOC1=NC=NN1C	CCOc1ncnn1C	
InChI=1S/C5H9N3O/c1-3-9-5-6-4-7-8(5)2/h4H,3H2,1-2H3	InChI=1S/C5H9N3O/c1-3-9-5-6-4-7-8(5)2/h4H,3H2,1-2H3
