15
gdb 68155	2.6809	1.79818	1.28759	4.3085	66.01	-0.2265	-0.0846	0.1418	966.6954	0.111316	-457.760871	-457.753138	-457.752194	-457.793066	28.987	
C	 0.0476416134	 1.5322672396	 0.0653931634	-0.501089
C	 0.0076763409	 0.040952536	-0.0455323909	 0.280681
C	 0.6323313352	-0.7989092009	-1.1911217336	-0.301356
C	 0.7216230861	-1.8285712465	-0.0464090484	-0.043246
O	 0.8513668584	-0.7210629914	 0.9148475005	-0.322857
C	-0.7421133871	-2.1730549184	 0.2462258166	 0.361444
O	-1.3023446123	-3.2136577899	 0.4244435351	-0.294035
C	-1.3010610182	-0.7075525685	 0.2549434713	 0.315461
O	-2.4081123821	-0.301327844	 0.4551103225	-0.300355
H	 1.0584040501	 1.9116571888	-0.104402974	 0.133568
H	-0.6276607049	 1.9719496623	-0.6749671411	 0.1452
H	-0.290176534	 1.8477429244	 1.0565484798	 0.151815
H	 0.0247873789	-1.0325580927	-2.0697733927	 0.126658
H	 1.6155172197	-0.417981212	-1.4766505109	 0.132231
H	 1.4784891059	-2.6049048068	 0.0340141826	 0.11588
104.3808	150.2322	212.88	234.5248	287.8358	315.1833	457.4258	522.1832	543.5372	564.8979	676.5588	704.2476	784.3169	822.2433	864.5645	882.6508	955.6244	966.5363	992.4876	1026.4614	1091.14	1126.9795	1207.1944	1229.8421	1246.7073	1262.5098	1345.6603	1417.8627	1473.4082	1480.6003	1486.3636	1879.7656	1896.4008	3047.83	3060.4195	3122.2103	3127.9425	3129.7926	3160.6456
CC12CC(O1)C(=O)C2=O	C[C@@]12C[C@@H](O1)C(=O)C2=O	
InChI=1S/C6H6O3/c1-6-2-3(9-6)4(7)5(6)8/h3H,2H2,1H3	InChI=1S/C6H6O3/c1-6-2-3(9-6)4(7)5(6)8/h3H,2H2,1H3/t3-,6+/m1/s1
