14
gdb 18332	3.50623	2.28262	1.62506	2.5505	56.86	-0.2403	-0.0446	0.1956	769.6116	0.107674	-419.661265	-419.654783	-419.653839	-419.692371	23.754	
O	-0.0302177547	 0.0731415451	 0.2240269079	-0.288696
C	-0.018206141	 1.2575556484	 0.0305289659	 0.386251
C	-1.2294176686	 2.1931623532	-0.0261635505	-0.199045
O	-0.8046421358	 3.3617687126	-0.7146557567	-0.267861
C	 0.6064780609	 3.4993915209	-0.6264718599	 0.067054
C	 1.1594131342	 4.0296611425	 0.7128818541	-0.101961
O	 1.6260807168	 2.7061504653	 1.0825666808	-0.289985
C	 1.2067626942	 2.1524813777	-0.1899459482	-0.02437
H	-2.0601120878	 1.7355497009	-0.5695488845	 0.144881
H	-1.5677691932	 2.4167297747	 0.997707646	 0.133172
H	 0.9546556295	 3.9865746233	-1.5369624899	 0.106038
H	 1.9929619669	 4.7368013941	 0.6321486917	 0.11406
H	 0.4062218064	 4.4215006521	 1.4048408448	 0.118227
H	 2.0169589122	 1.6732680991	-0.7435319015	 0.102236
87.6829	127.5667	222.1656	381.5102	437.5681	539.9174	618.8566	658.1064	795.2881	811.4683	873.1277	897.1647	957.6553	1009.4939	1021.9314	1024.7527	1055.7722	1107.8196	1154.3201	1192.9664	1209.4127	1236.5586	1254.2982	1278.4384	1320.6661	1339.5144	1373.6219	1482.0833	1509.837	1865.4943	2990.302	3029.6494	3083.892	3095.5107	3098.6482	3120.4774
O=C1COC2COC12	O=C1CO[C@H]2CO[C@@H]12	
InChI=1S/C5H6O3/c6-3-1-7-4-2-8-5(3)4/h4-5H,1-2H2	InChI=1S/C5H6O3/c6-3-1-7-4-2-8-5(3)4/h4-5H,1-2H2/t4-,5-/m0/s1
