17
gdb 32687	3.2565	1.41621	1.06385	3.924	74.49	-0.2244	0.0254	0.2498	1106.6658	0.138642	-418.001747	-417.994114	-417.99317	-418.034572	28.526	
O	-0.0578943769	 1.3917074291	 0.3511220869	-0.417545
C	-0.026140906	 0.0839920016	-0.1775906002	-0.065995
C	-1.4221782285	-0.5436849694	-0.1453711109	-0.166956
C	-1.5078221338	-2.1221302552	-0.2252256366	-0.20614
N	-2.0634028063	-2.085765764	 1.1523111709	 0.002113
C	-2.2187438894	-2.5925461295	 2.425152855	-0.172482
C	-2.2378212839	-1.4629859593	 3.2207181908	-0.08369
N	-2.0294599888	-0.2948370148	 2.4937185239	-0.377839
C	-1.9416082113	-0.7460567193	 1.2664738002	 0.361331
H	-0.3840748353	 1.328239768	 1.2590336858	 0.303105
H	 0.338036818	 0.1704692105	-1.206750183	 0.111128
H	 0.6773321897	-0.5625900016	 0.3727496571	 0.089922
H	-2.0940704645	-0.0167767485	-0.8276122462	 0.108332
H	-2.1930166016	-2.5415666233	-0.9647651593	 0.133047
H	-0.5369269821	-2.62115627	-0.2827982073	 0.136226
H	-2.3646059384	-3.6351113958	 2.6506258591	 0.13308
H	-2.4108576411	-1.4241865985	 4.2860520238	 0.112363
63.8288	110.5556	145.9712	224.0871	385.7792	417.1243	481.4901	534.2769	622.3112	705.1313	728.4524	742.527	783.6141	842.8275	859.4401	938.6118	968.2413	1013.6921	1063.7867	1082.9932	1105.4222	1133.8789	1139.6288	1162.5539	1192.3891	1231.4417	1252.1803	1276.9549	1327.2287	1388.1707	1402.4297	1423.1139	1439.1764	1470.2719	1506.5141	1509.0269	1581.6734	2967.6921	3065.2418	3068.3162	3085.2524	3124.6613	3246.1238	3285.7024	3756.956
OCC1CN2C=CN=C12	OC[C@H]1Cn2ccnc12	
InChI=1S/C6H8N2O/c9-4-5-3-8-2-1-7-6(5)8/h1-2,5,9H,3-4H2	InChI=1S/C6H8N2O/c9-4-5-3-8-2-1-7-6(5)8/h1-2,5,9H,3-4H2/t5-/m1/s1
