21
gdb 107660	3.11666	1.29076	1.0846	1.544	77.88	-0.2357	0.0751	0.3108	1201.6518	0.183311	-424.212903	-424.204355	-424.203411	-424.245986	33.149	
C	 0.0333880045	 1.4989737872	 0.2854994643	-0.378404
C	-0.0645578145	 0.0463288786	-0.1936895508	-0.238957
C	-1.4493755537	-0.5373618992	-0.0318594494	 0.459842
C	-1.8782625677	-1.117659442	 1.2904203273	-0.359603
C	-1.6510133191	-2.02745142	 0.0879443173	-0.137
C	-2.8471988863	-2.623852198	-0.6460141912	-0.105073
O	-3.3670830474	-1.741404814	-1.638260325	-0.225931
C	-3.5691632413	-0.4635498326	-1.1193658734	-0.003319
O	-2.3635952068	 0.198307971	-0.8130302433	-0.295076
H	 1.0426455922	 1.8928410027	 0.13262227	 0.107933
H	-0.6682448076	 2.1326411754	-0.2626258906	 0.135169
H	-0.2028393461	 1.5797756906	 1.3518422663	 0.112821
H	 0.2122447651	-0.0159013113	-1.2530773297	 0.106444
H	 0.6434325127	-0.5823271323	 0.3585197559	 0.092741
H	-1.1535858699	-1.1376173932	 2.0973751482	 0.112974
H	-2.9034262829	-0.9761614588	 1.6181449958	 0.113787
H	-0.7581262837	-2.6442788898	 0.0989244768	 0.092559
H	-2.5532341881	-3.5288579036	-1.1825920495	 0.117415
H	-3.6499517947	-2.8956495906	 0.0580394346	 0.09545
H	-4.0524800851	 0.1344898347	-1.8945679231	 0.118929
H	-4.2204735294	-0.5105578348	-0.2262579404	 0.0773
91.6092	127.1756	163.3078	211.9473	268.473	356.9701	362.5669	401.279	433.9023	523.5032	560.7518	665.5832	758.4581	782.2424	817.4702	882.7036	887.5814	930.0251	961.6123	983.2165	1004.9508	1035.9971	1051.4949	1072.9082	1096.1601	1107.1205	1129.6977	1160.2039	1198.345	1252.5667	1259.3059	1276.206	1325.5808	1327.3443	1366.9226	1398.4374	1407.7198	1414.2351	1447.4805	1474.8055	1487.7499	1495.6748	1499.306	1510.0893	1521.6931	2925.9635	2974.5224	3030.7346	3039.8093	3069.3451	3096.1704	3105.3016	3109.1947	3125.6661	3128.1448	3154.0788	3212.9405
CCC12CC1COCO2	CC[C@]12C[C@H]1COCO2	
InChI=1S/C7H12O2/c1-2-7-3-6(7)4-8-5-9-7/h6H,2-5H2,1H3	InChI=1S/C7H12O2/c1-2-7-3-6(7)4-8-5-9-7/h6H,2-5H2,1H3/t6-,7-/m0/s1
