18
gdb 55983	3.23913	1.07583	0.84496	3.9396	73.12	-0.2351	-0.0391	0.196	1331.0652	0.147098	-439.135233	-439.126256	-439.125312	-439.16997	32.909	
N	 0.6139899347	 0.2243453731	-0.8038111587	-0.515817
C	 0.1412541407	 0.0142005446	 0.4531444894	 0.361341
O	 0.6544889354	 0.490061897	 1.4488330177	-0.362015
C	-1.1131682336	-0.8661445547	 0.5380021766	-0.318505
C	-1.0057761363	-2.2221265337	-0.1648628502	-0.0957
C	-2.1805065851	-3.2506328075	-0.0439107541	-0.255838
C	-2.1031218679	-3.5359127052	-1.5745379827	-0.325866
C	-1.2122719791	-2.2976928681	-1.6871471885	 0.401302
O	-0.9144499806	-1.5675477943	-2.595779116	-0.313469
H	 1.428476137	 0.8074982711	-0.9039797519	 0.254693
H	 0.1778553036	-0.1782608904	-1.6236786809	 0.280125
H	-1.3027108274	-1.0172442629	 1.602869962	 0.134548
H	-1.9651331372	-0.3087836215	 0.1275094895	 0.119262
H	-0.0547331919	-2.70780958	 0.0891640059	 0.118651
H	-2.0064886134	-4.0985390019	 0.6185085176	 0.11854
H	-3.1178769497	-2.7649253619	 0.2368691897	 0.121048
H	-1.5506985859	-4.4495788918	-1.8170910749	 0.140722
H	-3.0246103333	-3.520521992	-2.1607953206	 0.136978
37.7925	82.8685	121.0005	182.0837	208.9796	303.4668	387.6911	418.6585	466.2043	538.1637	555.0744	620.8919	687.6006	720.1122	744.2596	785.2942	868.1214	893.2517	931.7535	937.617	1027.395	1046.5969	1090.2106	1122.7976	1138.1668	1189.1385	1199.8331	1230.1006	1251.7146	1260.6984	1313.6891	1339.0984	1372.5764	1440.3759	1470.2362	1493.2837	1645.0193	1796.383	1859.2438	3027.6972	3038.7096	3061.5591	3079.4727	3112.7276	3118.8404	3141.7762	3516.9622	3693.2871
NC(=O)CC1CCC1=O	NC(=O)C[C@H]1CCC1=O	
InChI=1S/C6H9NO2/c7-6(9)3-4-1-2-5(4)8/h4H,1-3H2,(H2,7,9)	InChI=1S/C6H9NO2/c7-6(9)3-4-1-2-5(4)8/h4H,1-3H2,(H2,7,9)/t4-/m1/s1
