14
gdb 24853	2.48871	1.76853	1.08376	2.7552	75.14	-0.2591	-0.0975	0.1617	1040.7754	0.103511	-432.906798	-432.899571	-432.898627	-432.939026	27.004	
N	-0.1324775681	 1.326654194	-0.2077702241	-0.505285
C	-0.0184072416	 0.0555704693	-0.085545929	 0.342502
N	 1.2003084481	-0.6275267709	-0.1612712927	-0.401662
C	 1.5414497	-1.9531421112	 0.1662662795	 0.39702
O	 2.5947635328	-2.177454533	 0.7119357193	-0.325351
N	 0.7362055878	-2.9994721632	-0.3013053275	-0.241311
C	-0.5383113342	-3.0229721703	-0.2637291125	 0.017562
C	-1.4837650028	-2.0005407721	 0.1732273061	-0.127498
C	-1.2565985571	-0.6787639078	 0.2078543992	-0.032316
H	 0.7646441997	 1.7735892695	-0.4074175217	 0.216446
H	 2.0110671955	-0.0290305994	-0.0552949226	 0.257639
H	-1.0023078947	-3.9399839413	-0.6382767051	 0.133354
H	-2.4915587716	-2.3527522955	 0.3746077808	 0.123145
H	-2.0734063039	-0.0028020683	 0.4352319804	 0.145756
76.6038	101.9218	253.6369	345.1508	374.7107	437.756	473.4564	543.6934	589.1946	668.3186	695.2294	762.7846	823.2936	838.1349	873.7708	887.4006	957.1935	979.906	1009.8096	1032.8262	1154.2838	1218.1788	1260.9981	1390.5594	1426.7711	1444.8541	1454.5156	1658.7445	1681.6031	1733.2362	1800.3374	3087.6066	3170.1789	3206.3696	3457.51	3565.5189
N=C1NC(=O)N=CC=C1	[NH]C1=C[CH]C=NC(=O)N1	
InChI=1S/C5H5N3O/c6-4-2-1-3-7-5(9)8-4/h1-3H,(H2,6,8,9)	InChI=1S/C5H5N3O/c6-4-2-1-3-7-5(9)8-4/h1-3H,(H2,6,8,9)
