25
gdb 118998	3.20409	0.86966	0.85932	1.4798	88.28	-0.2445	0.0766	0.3211	1553.1567	0.229054	-389.507031	-389.496757	-389.495813	-389.543142	38.171	
C	-0.0892795479	 1.6337250497	-0.081732471	-0.377272
C	 0.0143747561	 0.1079496812	 0.00647487	-0.182611
C	-1.3617904315	-0.5715008594	 0.0394440326	-0.2293
C	-1.3571254255	-2.1109720784	 0.0628599005	 0.318559
C	-0.6557299732	-2.6715080065	 1.3126537011	-0.437884
C	-2.8037706699	-2.6878970135	-0.0280206478	-0.290266
C	-2.6954419871	-3.8533248698	-1.0426596001	-0.074221
O	-1.3109520194	-4.0158714265	-1.3287020693	-0.24998
C	-0.7268707268	-2.7313512615	-1.2050677931	-0.111792
H	 0.9001283527	 2.1012012137	-0.1001082054	 0.111176
H	-0.621310805	 1.9433840421	-0.9882210416	 0.113528
H	-0.6352222852	 2.0430294073	 0.7757950929	 0.113874
H	 0.5911933691	-0.2651563451	-0.8497125502	 0.099742
H	 0.5876874701	-0.1616836506	 0.9009139625	 0.100846
H	-1.9179191551	-0.2053371697	 0.9137446118	 0.09102
H	-1.9341161246	-0.2419502024	-0.8392284064	 0.087658
H	-1.1558014195	-2.3350799309	 2.2277029441	 0.107234
H	-0.6750544976	-3.765379517	 1.2976289872	 0.125005
H	 0.3920319287	-2.3604868355	 1.3681589319	 0.112358
H	-3.154752973	-3.0273822537	 0.9500227085	 0.102461
H	-3.5085202417	-1.9292603228	-0.3803170503	 0.096412
H	-3.0695955562	-4.8069461293	-0.6602210859	 0.105959
H	-3.2480258722	-3.6177675876	-1.9657259086	 0.088148
H	-0.9526263154	-2.1103622019	-2.0905385664	 0.075293
H	 0.3566097801	-2.8640387719	-1.143859247	 0.104055
30.5625	77.6822	95.4102	161.6768	214.9931	244.9154	270.74	315.3673	326.5398	338.0158	418.003	422.7469	648.287	684.8573	743.206	786.3383	820.9567	864.4003	897.991	937.7198	946.9117	974.6769	984.7381	987.2465	1012.0771	1050.764	1065.112	1108.3848	1115.8828	1188.2595	1194.0468	1219.8615	1243.1298	1259.0883	1278.3763	1302.3846	1313.6699	1321.1576	1351.4279	1361.9076	1391.0051	1396.929	1412.6057	1417.2531	1477.6591	1492.2789	1493.2554	1498.7331	1500.0687	1505.4465	1508.8061	1513.5247	1527.4569	2942.5729	2977.7742	2998.2978	3022.7456	3028.5876	3030.7746	3032.2296	3056.01	3063.5063	3079.035	3088.5144	3096.1595	3098.6821	3101.9119	3102.2088	3109.7541
CCCC1(C)CCOC1	CCC[C@@]1(C)CCOC1	
InChI=1S/C8H16O/c1-3-4-8(2)5-6-9-7-8/h3-7H2,1-2H3	InChI=1S/C8H16O/c1-3-4-8(2)5-6-9-7-8/h3-7H2,1-2H3/t8-/m0/s1
