21
gdb 111525	3.35651	1.17177	1.07067	2.0723	83.4	-0.2238	0.0741	0.298	1239.1337	0.182835	-383.192149	-383.18354	-383.182596	-383.2256	33.384	
C	-0.2934390911	 1.4563886567	 0.2100280353	-0.373259
C	 0.2186983997	 0.0688420186	-0.1682445543	-0.112625
N	 0.7616156953	-0.6006157818	 1.0114692192	-0.078332
C	-0.0473636695	-1.3562505529	 1.9407150431	-0.043316
C	-1.1711312025	-2.1699722647	 1.2585837737	-0.354853
C	-0.0771927031	-2.8482682742	 0.4067410986	 0.354786
C	-0.021488122	-4.2741157219	 0.0271629904	-0.314851
N	-0.0868309709	-3.2186927473	-1.008377016	-0.364684
C	 1.0079528746	-2.0236088083	 1.0810935511	-0.119654
H	 0.5011966104	 2.04691565	 0.6747252862	 0.125327
H	-0.6547533546	 1.9899603388	-0.6744929457	 0.11047
H	-1.1212943717	 1.3871896494	 0.9239821895	 0.114439
H	-0.5782831144	-0.4998048192	-0.6676397407	 0.089031
H	 1.0384944845	 0.1504504568	-0.8901899681	 0.109431
H	-0.0129231454	-1.1020941232	 2.994114146	 0.094645
H	-1.6615832873	-2.8651469308	 1.9446224211	 0.111054
H	-1.9378835302	-1.5940158033	 0.7299208923	 0.102149
H	 0.9212463846	-4.8146984761	 0.0640064073	 0.119383
H	-0.9010701018	-4.8870722953	 0.2094774066	 0.11017
H	-1.0336788849	-3.1565273432	-1.3769319969	 0.228855
H	 2.0047903104	-2.371585418	 1.3316098612	 0.091836
59.5824	101.4481	195.0284	236.0826	248.2947	296.6733	356.6932	402.2434	473.7988	550.5193	637.9551	710.3405	802.4995	829.729	842.2833	851.8032	883.4464	907.3076	941.0234	964.2254	970.2529	992.5589	996.3663	1053.4511	1062.7394	1079.7949	1116.8871	1123.3674	1157.9685	1178.4449	1225.2836	1234.1153	1257.434	1269.2376	1293.1731	1302.0841	1365.3607	1385.6113	1409.0434	1417.7986	1475.1848	1488.9732	1497.4494	1513.2779	1513.8572	3006.1485	3036.6803	3045.9146	3063.1812	3098.3996	3102.0748	3105.2034	3118.3767	3162.9847	3176.791	3182.13	3486.6067
CCN1C2CC3(CN3)C12	CCN1[C@H]2C[C@]3(CN3)[C@@H]12	
InChI=1S/C7H12N2/c1-2-9-5-3-7(4-8-7)6(5)9/h5-6,8H,2-4H2,1H3	InChI=1S/C7H12N2/c1-2-9-5-3-7(4-8-7)6(5)9/h5-6,8H,2-4H2,1H3/t5-,6-,7-,9?/m0/s1
