19
gdb 127091	4.03511	1.05175	0.84873	3.3203	80.73	-0.1797	0.0565	0.2362	1361.4851	0.160259	-415.395039	-415.385295	-415.38435	-415.42979	35.228	
C	 1.3538986275	 0.413327494	 0.379989522	-0.330981
N	 0.0171580342	 0.1853618853	-0.1399568741	-0.16784
C	-1.0669858644	 0.2783036637	 0.8210013511	-0.3457
C	-0.0882160903	-0.7760042414	-1.131854125	 0.530109
C	 0.8793116922	-1.3570497747	-1.9402996079	-0.431024
C	 0.1499574562	-2.2178682854	-2.7995031023	 0.385352
N	 0.6665937196	-2.9765017708	-3.8531066419	-0.591981
N	-1.1511944474	-2.2051494248	-2.5510313248	-0.324882
N	-1.2764169903	-1.3029278773	-1.5233670576	-0.308478
H	 1.7538394041	-0.4465070723	 0.9418634554	 0.113187
H	 2.0377304839	 0.6312734259	-0.4442996039	 0.14096
H	 1.336222249	 1.2836563618	 1.0408327471	 0.122831
H	-2.0153897997	 0.4806829548	 0.3115743091	 0.12601
H	-1.1885367306	-0.6289189811	 1.4359988655	 0.116984
H	-0.8780993593	 1.1227270281	 1.4877409523	 0.13119
H	 1.9404333968	-1.1776163017	-1.9319753093	 0.087997
H	 1.5425481974	-3.4264911989	-3.6224601136	 0.239642
H	-0.0065712224	-3.6640304054	-4.168487219	 0.24495
H	-2.1893537065	-1.1248027797	-1.1501320629	 0.261674
44.5964	131.9641	166.9578	179.0587	185.8037	235.3956	257.8787	275.5476	366.7549	394.5731	434.8708	525.2042	585.2761	669.0963	686.89	712.5166	743.5757	795.7018	946.946	1005.7769	1045.9794	1080.7037	1087.3963	1129.3839	1164.169	1180.2856	1187.277	1253.1876	1297.0964	1357.9309	1438.7473	1448.4117	1477.9452	1488.2003	1492.619	1499.0218	1515.6448	1525.4367	1577.2853	1627.7866	1647.8216	2965.5598	2974.7134	3059.9714	3080.1801	3115.6428	3122.3386	3275.0922	3536.6168	3631.6824	3716.8855
CN(C)C1=CC(N)=NN1	CN(C)c1cc(N)n[nH]1	
InChI=1S/C5H10N4/c1-9(2)5-3-4(6)7-8-5/h3H,1-2H3,(H3,6,7,8)	InChI=1S/C5H10N4/c1-9(2)5-3-4(6)7-8-5/h3H,1-2H3,(H3,6,7,8)
