20
gdb 36307	3.0921	1.1159	1.05045	4.2282	81.88	-0.277	0.0406	0.3175	1234.884	0.173492	-366.030925	-366.022603	-366.021659	-366.064898	31.432	
N	-0.1985649511	-0.8860179411	-0.594235309	-0.312882
C	-0.1384606023	 0.1904889072	-0.1780659544	 0.267524
C	-0.042912833	 1.5553182315	 0.3449786166	-0.379616
C	 1.3578422151	 2.1348965602	 0.1878979309	-0.007157
C	 1.9651879317	 2.637326085	-1.1011989922	-0.041634
C	 1.0802958426	 2.985566444	-2.2918741031	-0.222364
C	 0.0343612933	 4.0116181349	-1.779023278	-0.228814
C	 0.5882873766	 4.5759885364	-0.4423908185	-0.218912
C	 1.6676494508	 3.6067432633	 0.0267557441	-0.078154
H	-0.8017147233	 2.1638716945	-0.1513525747	 0.151213
H	-0.3160136814	 1.5331772814	 1.406937958	 0.151698
H	 2.0730726717	 1.6087896033	 0.814945165	 0.102811
H	 2.9803793013	 2.3197575862	-1.3131358767	 0.088198
H	 1.7096049745	 3.4356079237	-3.0671639032	 0.106437
H	 0.6066291906	 2.1077405339	-2.7439668157	 0.115934
H	-0.1373458835	 4.8079540404	-2.5081578925	 0.104443
H	-0.9378306686	 3.5333694465	-1.6301520659	 0.108932
H	 1.0550743157	 5.5534957006	-0.604469746	 0.106958
H	-0.2049932057	 4.7310400522	 0.2978951833	 0.098802
H	 2.4619343052	 4.0090911659	 0.6467358021	 0.086584
31.1404	101.6565	160.3657	197.241	246.2585	382.9908	408.0843	467.4701	537.5453	662.9369	690.9161	755.9248	783.3943	807.7435	875.9944	884.6489	900.8151	926.284	950.1887	986.9088	1026.9287	1040.9963	1051.6084	1099.672	1111.4763	1123.8661	1186.059	1213.6932	1226.6736	1246.8927	1261.5623	1307.219	1314.1134	1325.9749	1328.0631	1361.7855	1382.6806	1445.844	1462.5944	1493.9495	1498.1095	1525.9444	2359.8482	3035.5447	3042.068	3044.7879	3058.8471	3067.8812	3075.0402	3099.6119	3108.8785	3138.9068	3157.9419	3170.5301
N#CCC1C2CCCC12	N#CC[C@H]1[C@H]2CCC[C@@H]12	
InChI=1S/C8H11N/c9-5-4-8-6-2-1-3-7(6)8/h6-8H,1-4H2	InChI=1S/C8H11N/c9-5-4-8-6-2-1-3-7(6)8/h6-8H,1-4H2/t6-,7+,8-
