19
gdb 106267	2.96516	1.25325	1.08195	1.7163	75.89	-0.237	0.0083	0.2453	1191.2722	0.157531	-423.002846	-422.993556	-422.992612	-423.037118	34.143	
C	-0.0280848134	 1.5434530871	-0.0137224886	-0.388769
C	 0.0473306911	 0.0110593241	-0.0299905267	-0.310818
C	 0.7264256938	-0.5233940724	-1.260578007	 0.194926
C	 2.1968999055	-0.2617349153	-1.7634659175	-0.318595
C	 1.5991222865	-1.2127198991	-2.8596561951	 0.280643
O	 2.2359177345	-1.7053046149	-3.9690798564	-0.466721
C	 0.9695424993	-2.0223124989	-1.6664721184	-0.337674
C	 0.3492964205	-0.3392118783	-2.7409975833	 0.364269
O	-0.465834533	 0.1857061096	-3.441087536	-0.35171
H	 0.9722268236	 1.9886166781	-0.0131756972	 0.118824
H	-0.5619797114	 1.9158668353	-0.8931385862	 0.141227
H	-0.5522331763	 1.8985016638	 0.8782015242	 0.115724
H	 0.5719619663	-0.3499482833	 0.8633536481	 0.104593
H	-0.9656289069	-0.4077662656	 0.0183008272	 0.111434
H	 2.4618726448	 0.7539602426	-2.0631911234	 0.111602
H	 2.9691285531	-0.7248994588	-1.1445356863	 0.109376
H	 1.7189357684	-1.4588527102	-4.7448954344	 0.302586
H	 1.7030326438	-2.5416922328	-1.0450591089	 0.109586
H	 0.0927296397	-2.6393506209	-1.873999844	 0.109498
68.4316	97.6351	141.3392	184.4347	199.5506	218.3625	272.2425	350.0607	434.7576	519.109	537.448	610.7066	658.442	752.5677	777.4258	806.2817	814.8168	853.044	963.821	977.3641	992.4878	1018.3822	1033.4079	1078.4754	1105.411	1118.6572	1123.8852	1143.8232	1184.6533	1301.1404	1323.3624	1328.0635	1368.4784	1411.1338	1423.1893	1483.5884	1490.6943	1499.8939	1509.7068	1536.8098	1899.8522	3023.91	3039.5224	3055.446	3060.2644	3062.6677	3108.4424	3116.912	3134.0428	3137.038	3796.801
CCC12CC(O)(C1)C2=O	CC[C@@]12C[C@@](O)(C1)C2=O	
InChI=1S/C7H10O2/c1-2-6-3-7(9,4-6)5(6)8/h9H,2-4H2,1H3	InChI=1S/C7H10O2/c1-2-6-3-7(9,4-6)5(6)8/h9H,2-4H2,1H3/t6-,7-
