14
gdb 9441	2.91095	1.78206	1.68569	4.1626	63.05	-0.288	-0.0058	0.2822	851.5036	0.106975	-378.731102	-378.723471	-378.722527	-378.763101	27.311	
C	-0.108258758	 1.5493486588	 0.1108602629	-0.443877
C	-0.022301414	 0.0210678803	 0.010907297	-0.004802
C	 0.8442431423	-0.5542633548	-1.1494951323	-0.108117
O	 1.8137860153	-1.0598288159	-0.1854028185	-0.248371
C	 1.0752526746	-0.6059922048	 0.8822918649	 0.43287
N	 1.2616262131	-0.6581556686	 2.1150018185	-0.529442
C	-1.3332723307	-0.6030621216	 0.1477891532	 0.260908
N	-2.3781159739	-1.0891660444	 0.2322228962	-0.328355
H	 0.8853366818	 1.9873850709	-0.0150062399	 0.137316
H	-0.7741899326	 1.9497537562	-0.6579501175	 0.143526
H	-0.4910389481	 1.8368357818	 1.0923970409	 0.165336
H	 0.3961127	-1.3660308607	-1.7241588981	 0.147578
H	 1.2917527922	 0.1945492345	-1.8064473807	 0.13364
H	 2.128518518	-1.1396559117	 2.3572081632	 0.241788
104.9479	137.2388	194.1158	216.6536	235.9164	335.467	415.034	545.4959	563.4126	627.9173	690.9628	767.2691	859.8146	895.9683	932.9135	973.8787	992.3976	1008.1185	1144.8984	1153.8749	1189.2896	1222.6682	1255.6005	1357.9285	1414.1229	1486.7337	1492.7482	1513.5077	1836.4618	2361.1211	3051.3524	3074.7026	3129.5927	3140.1619	3143.8168	3490.2774
CC1(COC1=N)C#N	C[C@]1(CO[C]1[NH])C#N	
InChI=1S/C5H6N2O/c1-5(2-6)3-8-4(5)7/h7H,3H2,1H3	InChI=1S/C5H6N2O/c1-5(2-6)3-8-4(5)7/h7H,3H2,1H3/t5-/m1/s1
