21
gdb 90556	2.50382	1.29235	1.01177	2.7159	82.87	-0.2445	-0.0194	0.2251	1246.5597	0.181885	-387.069239	-387.060219	-387.059275	-387.103349	33.949	
C	 1.0829714538	 2.2080915925	 2.9521315506	-0.430463
C	 0.5292076133	 0.8225856007	 2.6344200005	 0.048258
C	-0.1525818176	 0.5012825756	 1.2581278752	-0.2669
C	 0.7154299014	-0.7602802663	 1.138215158	-0.084145
C	 2.1794901718	-0.4282339229	 1.1010777993	-0.011119
C	 2.7972622475	 0.7316998542	 0.3265452516	-0.319294
C	 4.0980822407	 1.1810830815	 0.9514743621	 0.172001
O	 4.311301351	 2.287273964	 1.3793008853	-0.238601
C	 1.4622907016	-0.3842072883	 2.4298136079	-0.087855
H	 1.850512902	 2.5405411841	 2.2500417743	 0.142374
H	 0.2774031967	 2.9514475602	 2.952914406	 0.109465
H	 1.5363640025	 2.2165911674	 3.9499140749	 0.114461
H	-0.1846365302	 0.5524974583	 3.4202477931	 0.078215
H	-1.2181761426	 0.2851962358	 1.3574367133	 0.10313
H	-0.0317334112	 1.2434158153	 0.462210707	 0.097695
H	 0.3495332716	-1.7312567587	 0.825148658	 0.08574
H	 2.7877922471	-1.3297440842	 1.032608919	 0.090138
H	 3.0174281953	 0.3829433205	-0.6931145151	 0.115671
H	 2.1328829552	 1.5925094482	 0.2479083518	 0.125578
H	 4.8814572816	 0.3890845878	 1.0103633577	 0.074298
H	 1.7833939084	-1.0388871659	 3.2330859395	 0.081355
71.7334	78.3609	153.7727	189.79	223.1534	262.9416	313.3615	379.9773	444.5502	509.8595	599.3575	658.0159	722.7546	783.2061	814.1757	839.4651	866.8803	927.1198	959.0806	982.3443	997.9471	1012.9632	1053.7919	1067.8425	1081.8423	1107.1523	1127.0669	1138.4242	1186.8204	1204.4458	1226.5788	1249.223	1274.9766	1291.6954	1305.5002	1356.2028	1379.1112	1420.5112	1429.3442	1450.8592	1470.2206	1494.9312	1501.93	1505.3978	1829.1315	2856.6547	3010.9448	3030.0058	3038.6735	3048.0793	3087.324	3107.0072	3109.6226	3129.5379	3138.4101	3160.5228	3177.7007
CC1CC2C(CC=O)C12	C[C@H]1C[C@H]2[C@@H](CC=O)[C@@H]12	
InChI=1S/C8H12O/c1-5-4-7-6(2-3-9)8(5)7/h3,5-8H,2,4H2,1H3	InChI=1S/C8H12O/c1-5-4-7-6(2-3-9)8(5)7/h3,5-8H,2,4H2,1H3/t5-,6+,7-,8+/m0/s1
