16
gdb 63341	2.5298	1.56734	1.22607	3.0491	66.34	-0.2935	-0.0121	0.2813	1048.1082	0.123208	-475.099749	-475.091344	-475.0904	-475.132812	31.04	
C	-0.008514559	 1.5376741919	-0.0204512975	-0.412831
C	-0.0213691002	 0.0117136881	 0.0271500567	 0.243987
C	-1.4284504913	-0.5729840659	-0.069201905	-0.412818
O	 0.7779852505	-0.5006722126	-1.0734693045	-0.268008
C	 1.8212852193	-1.2133508877	-0.6222392139	 0.486462
O	 2.6457425568	-1.7530237572	-1.2805959824	-0.351274
O	 1.8099988942	-1.2377997812	 0.7631135378	-0.238808
C	 0.7321139077	-0.523053445	 1.2320582586	 0.380701
N	 0.4263025054	-0.3448634074	 2.4349003801	-0.523426
H	 1.0156375224	 1.9190242486	-0.001057949	 0.13549
H	-0.4966418226	 1.8882476323	-0.9333340357	 0.137179
H	-0.5422048595	 1.9303874362	 0.8479082012	 0.153425
H	-1.9173670212	-0.2243250717	-0.9823963482	 0.137191
H	-1.3958293308	-1.6654260516	-0.0833417024	 0.135487
H	-2.0120886489	-0.2538032398	 0.7971630558	 0.153411
H	 1.0833145673	-0.801643087	 3.0679672184	 0.243831
75.7633	148.9042	202.9799	219.22	234.8528	296.7714	320.5347	398.0462	430.7422	596.9789	628.7348	651.6554	698.9873	759.0212	776.1197	902.0655	904.2985	948.154	950.49	1014.7555	1023.8699	1032.4427	1131.5824	1208.4124	1217.5266	1282.0993	1353.8486	1398.1885	1417.439	1474.6045	1478.9237	1495.3405	1504.3872	1806.1678	1952.4523	3051.3832	3054.5873	3129.3372	3131.7305	3139.6891	3144.8722	3494.184
CC1(C)OC(=O)OC1=N	CC1(C)OC(=O)O[C]1[NH]	
InChI=1S/C5H7NO3/c1-5(2)3(6)8-4(7)9-5/h6H,1-2H3	InChI=1S/C5H7NO3/c1-5(2)3(6)8-4(7)9-5/h6H,1-2H3
