19
gdb 111742	2.20477	1.34976	1.04272	4.3576	78.14	-0.2407	-0.0149	0.2258	1214.6597	0.158473	-423.002283	-422.993343	-422.992399	-423.036444	32.923	
O	 0.2220754683	 0.4762258276	 0.9962431236	-0.41689
C	-0.1113167786	 0.1755497833	-0.3507647833	-0.109627
C	-1.4462228625	-0.5265903272	-0.3404851117	-0.064166
C	-1.9246934646	-1.5010470196	-1.3580599202	-0.132426
C	-0.8235656939	-2.4414380997	-1.8695931798	-0.229147
C	-0.4982018304	-2.8737115768	-0.40486207	-0.311473
C	-1.6159467137	-1.9649103677	 0.1091318724	 0.284832
C	-2.6092928981	-2.3414455716	 1.1174290318	 0.057834
O	-2.5792239039	-3.3640257202	 1.7627236994	-0.274647
H	 1.0489946411	 0.9675729476	 0.9989669457	 0.289438
H	-0.1986607628	 1.0916824407	-0.9566955896	 0.092462
H	 0.6580258349	-0.4514624896	-0.8219224271	 0.092714
H	-2.244061677	 0.1092988907	 0.0404514294	 0.102461
H	-2.9056747233	-1.3985015883	-1.8076238988	 0.101078
H	-1.2327587991	-3.2644310901	-2.4582783806	 0.114277
H	-0.0197511189	-1.9741612573	-2.4464675748	 0.103298
H	-0.7199606514	-3.9236808968	-0.2109067257	 0.130158
H	 0.5045869043	-2.6530633303	-0.029615915	 0.109801
H	-3.4368647904	-1.6035628945	 1.2421004942	 0.060023
59.3496	86.5138	177.7124	202.0376	238.9137	248.1863	277.9755	358.4198	448.8324	493.4773	545.9176	692.4605	729.0694	794.0124	796.2732	882.6563	948.9529	951.9634	971.2783	1004.379	1036.2721	1062.9542	1066.2322	1082.1474	1130.2443	1137.13	1213.5015	1222.335	1238.1419	1242.8898	1261.136	1281.7463	1332.8827	1341.4695	1417.5302	1439.8877	1484.3477	1488.6074	1504.7689	1523.8727	1797.8766	2850.4412	2974.4039	3016.3137	3055.4456	3069.6443	3110.4144	3127.578	3134.885	3180.3668	3827.6138
OCC1C2CCC12C=O	OC[C@H]1[C@H]2CC[C@@]12C=O	
InChI=1S/C7H10O2/c8-3-6-5-1-2-7(5,6)4-9/h4-6,8H,1-3H2	InChI=1S/C7H10O2/c8-3-6-5-1-2-7(5,6)4-9/h4-6,8H,1-3H2/t5-,6+,7+/m1/s1
