17
gdb 68758	2.53549	1.72947	1.25651	3.4185	68.51	-0.257	0.0021	0.2591	1017.7954	0.135245	-458.996768	-458.988382	-458.987437	-459.029419	31.664	
C	-0.0085989114	 1.5238744682	-0.0162654638	-0.486665
C	 0.0104159876	 0.0180725445	 0.027742348	 0.221075
C	 1.2605449825	-0.7700534688	-0.2949077119	-0.389397
C	 0.6938974789	-0.7816994009	 1.1106866621	 0.259913
O	 1.3905894514	-0.2483164218	 2.1767238935	-0.47185
C	-0.2098325918	-1.9300339465	 1.4151080557	 0.399096
O	-0.0977673734	-2.6889516172	 2.3391625414	-0.368562
O	-1.2140753257	-1.9819702531	 0.5070941459	-0.228919
C	-1.2727260785	-0.7542592132	-0.2570831448	-0.139501
H	 0.9332619909	 1.9296137166	 0.3620410053	 0.142996
H	-0.1499784199	 1.8911409327	-1.0386933493	 0.126153
H	-0.8173050783	 1.9259919279	 0.6033200659	 0.127711
H	 1.2029184987	-1.6587250928	-0.9172051497	 0.12458
H	 2.1749340762	-0.1941617226	-0.3914439696	 0.131925
H	 1.4098618363	-0.9432476863	 2.8504380882	 0.301537
H	-2.1588628158	-0.1984288164	 0.069142955	 0.12347
H	-1.3914111277	-1.0273032902	-1.3099097718	 0.126438
113.048	175.1331	184.7434	199.7785	269.6601	308.2836	331.1346	372.5147	469.6475	509.2733	568.2763	659.7617	704.1614	725.1408	816.4677	874.5569	912.0584	951.7131	981.2914	1021.881	1032.5286	1051.3001	1109.0585	1122.8868	1153.9815	1227.8757	1261.0959	1298.5419	1367.427	1402.7334	1420.4714	1440.7855	1486.9432	1494.6845	1506.2002	1520.0184	1863.7765	3032.2045	3041.4326	3090.7978	3094.374	3117.5982	3119.3824	3216.0305	3745.1304
CC12CC1(O)C(=O)OC2	C[C@@]12C[C@]1(O)C(=O)OC2	
InChI=1S/C6H8O3/c1-5-2-6(5,8)4(7)9-3-5/h8H,2-3H2,1H3	InChI=1S/C6H8O3/c1-5-2-6(5,8)4(7)9-3-5/h8H,2-3H2,1H3/t5-,6-/m0/s1
