20
gdb 24346	3.32181	1.46577	1.06102	1.5404	85.27	-0.1924	0.048	0.2404	1142.931	0.175626	-366.074954	-366.067556	-366.066612	-366.106535	30.385	
C	-0.0259287583	 1.5422317716	-0.0536007083	-0.190411
C	 1.3933664041	 2.1292991146	 0.0069139875	-0.190415
C	 2.0716662139	 1.8214060221	 1.3548706321	-0.319677
C	 1.8959506985	 0.3717810748	 1.716665499	 0.220795
C	 2.5612647037	-0.3891441815	 2.651827935	-0.204277
N	 2.0111777875	-1.6468599612	 2.6373462431	-0.242509
C	 1.0038793171	-1.7050627555	 1.7064232513	-0.204256
C	 0.9065669202	-0.4658664729	 1.1138803503	 0.220771
C	-0.0007547988	 0.0036351212	 0.0095511134	-0.319677
H	-0.6116840835	 1.9339008977	 0.788908983	 0.094336
H	-0.5339126274	 1.8673762448	-0.9682090085	 0.085677
H	 1.991946897	 1.7041307392	-0.8099497049	 0.094336
H	 1.3646726266	 3.2125012533	-0.1547210046	 0.085673
H	 3.1328921414	 2.0947187066	 1.3164826196	 0.0952
H	 1.6228731614	 2.4618922349	 2.1283114395	 0.100508
H	 3.3675548992	-0.1428724249	 3.3247953141	 0.11072
H	 2.3022882105	-2.4105905561	 3.2208381888	 0.256765
H	 0.4513139744	-2.6167514319	 1.5416969146	 0.110718
H	-1.0171640447	-0.3871647604	 0.1382715774	 0.09521
H	 0.3504341172	-0.3820065263	-0.9588428025	 0.100514
104.3976	202.4207	295.7148	313.4686	368.83	437.9255	452.3597	487.2725	632.623	647.9772	654.6791	679.6209	703.8955	747.1512	832.1353	857.7781	918.5485	923.7653	941.2389	962.4921	1068.9166	1083.0008	1100.2394	1121.1232	1153.9153	1170.2285	1198.6041	1224.5745	1267.3928	1292.5219	1313.1634	1356.9432	1368.139	1368.395	1383.2015	1411.2721	1471.3707	1481.3297	1485.6029	1490.3569	1501.3561	1557.367	1613.0759	2993.5178	2994.2426	3014.4827	3019.186	3045.9607	3046.4737	3065.4676	3068.1736	3252.0836	3254.9955	3689.7333
C1CCC2=CNC=C2C1	C1CCc2c[nH]cc2C1	
InChI=1S/C8H11N/c1-2-4-8-6-9-5-7(8)3-1/h5-6,9H,1-4H2	InChI=1S/C8H11N/c1-2-4-8-6-9-5-7(8)3-1/h5-6,9H,1-4H2
