17
gdb 112246	2.22401	1.43715	0.92477	5.901	73.5	-0.2449	-0.0157	0.2292	1230.0219	0.135427	-455.158502	-455.149419	-455.148474	-455.192868	32.185	
O	-0.1024832714	 1.4382102304	 0.2787365474	-0.41811
C	 0.0106992242	 0.0587101634	-0.0366638345	-0.08848
C	-1.3817635452	-0.5391976905	 0.0225215581	 0.043721
C	-1.4788162979	-2.0816772788	-0.1141153034	-0.418745
C	-2.0748715872	-2.0741910974	 1.3095227721	 0.437138
O	-2.4911057844	-2.8950768192	 2.069725429	-0.322332
N	-1.9471807623	-0.6764453679	 1.3806929791	-0.10093
C	-2.290281993	 0.3030484913	 2.302854668	 0.056627
N	-2.8096233513	 0.0249916561	 3.4272869281	-0.415068
H	 0.7806588865	 1.8091224037	 0.36384737	 0.296265
H	 0.4187110879	-0.0912484761	-1.0489488969	 0.100613
H	 0.6630605917	-0.46867481	 0.6757074104	 0.100897
H	-2.0455681428	 0.0154914859	-0.6491536322	 0.104068
H	-2.1593650241	-2.4475052075	-0.8841809519	 0.141151
H	-0.523737709	-2.6064291461	-0.1923468148	 0.134794
H	-2.0429591073	 1.2999127617	 1.925064228	 0.120109
H	-2.9844736145	 0.8848113008	 3.9455362733	 0.228281
77.2569	97.3042	141.813	168.2268	186.8161	232.3053	257.243	374.703	431.072	480.197	541.0016	573.0159	729.26	767.5211	822.2893	872.0199	973.8565	1005.5985	1052.7223	1067.6809	1072.6823	1090.3361	1113.0703	1137.5375	1204.8796	1234.2215	1260.2141	1266.7938	1285.2085	1371.4708	1401.1144	1419.7974	1462.139	1463.4466	1512.4827	1712.4118	1902.4887	2974.7959	3013.0496	3058.1688	3082.0378	3083.1935	3141.8548	3495.7993	3834.2872
OCC1CC(=O)N1C=N	OC[C@H]1CC(=O)N1[CH][NH]	
InChI=1S/C5H8N2O2/c6-3-7-4(2-8)1-5(7)9/h3-4,6,8H,1-2H2	InChI=1S/C5H8N2O2/c6-3-7-4(2-8)1-5(7)9/h3-4,6,8H,1-2H2/t4-/m1/s1
