17
gdb 78496	2.55341	1.63987	1.30842	2.1394	67.68	-0.2369	0.0612	0.2981	1013.806	0.134596	-458.893747	-458.885641	-458.884696	-458.925923	31.744	
C	 0.0316751075	 1.3495830643	-0.0262437653	-0.509477
C	-0.0021892954	-0.1378481466	 0.0279753769	 0.402701
O	 0.9897250073	-0.8978841023	-0.6887881327	-0.333025
C	 0.1607281844	-2.0744359326	-0.4610262637	-0.082968
C	 0.3550925219	-2.3098058511	 1.0631971777	 0.19482
O	 1.6664878737	-2.4278893328	 1.5251519478	-0.446413
C	-0.4159901408	-0.9983562976	 1.2545197715	-0.315713
C	-1.0783645597	-1.151122638	-0.1187433606	 0.279146
O	-2.366388969	-1.0489141648	-0.5633267368	-0.449266
H	 0.9339899818	 1.7394734938	 0.4562330682	 0.133147
H	 0.0130627447	 1.6997178471	-1.062612776	 0.139024
H	-0.8386309398	 1.7622592238	 0.4916979724	 0.135083
H	 0.2785857587	-2.8477445734	-1.2167330779	 0.090313
H	-0.2150280877	-3.1711575174	 1.4218841393	 0.087885
H	 2.1735591339	-1.781431943	 1.0144515038	 0.284874
H	-0.8092954404	-0.5533694419	 2.1600279595	 0.09465
H	-2.9248700411	-1.6402380274	-0.0458381242	 0.295219
158.626	174.4473	180.4645	255.1405	284.2513	306.8904	373.11	430.5142	502.4185	577.1165	590.5055	667.4892	700.5884	732.0422	792.0053	850.7709	886.3878	921.2331	955.4561	967.6287	1007.4667	1034.1761	1094.917	1101.092	1112.2272	1157.5029	1191.6208	1245.1846	1276.6185	1281.6954	1309.542	1354.58	1418.7303	1440.4527	1473.0335	1493.2452	1540.5856	3039.4189	3083.9332	3105.8535	3120.8746	3151.6705	3200.8919	3751.8579	3786.6479
CC12OC3C(O)C1C23O	C[C@@]12O[C@H]3[C@@H](O)[C@@H]1[C@@]23O	
InChI=1S/C6H8O3/c1-5-3-2(7)4(9-5)6(3,5)8/h2-4,7-8H,1H3	InChI=1S/C6H8O3/c1-5-3-2(7)4(9-5)6(3,5)8/h2-4,7-8H,1H3/t2-,3-,4-,5+,6-/m0/s1
