19
gdb 7379	3.86966	1.04091	0.98428	2.7782	69.09	-0.2419	0.0325	0.2745	1272.1193	0.163215	-402.227512	-402.217285	-402.21634	-402.263978	34.707	
C	-0.1652682417	 1.3009955728	 0.0814852913	-0.22909
O	-0.0019941434	-0.0932041744	-0.0182013447	-0.238236
C	 0.6409968	-0.6501607637	 1.1077499788	-0.046331
C	 0.8183561999	-2.1531633023	 0.8707064928	-0.109896
C	 1.7072164568	-2.42701599	-0.3537528008	-0.387204
C	 1.4545813744	-2.7680211357	 2.1181941763	 0.408007
N	 0.7832939395	-3.8237233015	 2.6624597675	-0.526247
O	 2.4926699908	-2.3429153083	 2.5912043534	-0.37681
H	 0.8016372359	 1.8204865723	 0.1715634192	 0.107376
H	-0.6650834382	 1.6386742206	-0.8297851835	 0.125402
H	-0.7837921588	 1.5790626072	 0.9498649153	 0.103276
H	 1.6263557364	-0.1892868086	 1.2736761494	 0.111961
H	 0.0403280903	-0.4741768919	 2.0166440061	 0.085922
H	-0.1757674212	-2.5840216401	 0.7000883286	 0.072253
H	 1.7568032932	-3.497375196	-0.5762575079	 0.109472
H	 1.3089759124	-1.9053059471	-1.2259852382	 0.133976
H	 2.7235123911	-2.0717805637	-0.1606701813	 0.137212
H	-0.0509356306	-4.2019416578	 2.2509461001	 0.259216
H	 1.1905744429	-4.2909850119	 3.4563417876	 0.259741
19.9096	87.6747	98.6071	141.0891	157.2275	221.4196	234.1812	240.3172	307.6875	340.4821	370.8131	532.9188	593.9488	621.3987	772.5922	808.7554	917.88	937.35	994.9866	1043.4372	1102.9502	1121.5885	1155.4409	1170.4743	1194.902	1224.0764	1258.4518	1275.9379	1347.7193	1379.8876	1406.564	1417.9063	1480.5756	1485.2415	1494.3742	1502.7982	1505.7493	1528.0004	1615.0901	1789.3944	2955.7224	2971.9366	3010.0095	3014.9029	3036.4851	3045.0054	3112.6877	3114.8197	3138.8026	3601.1949	3741.606
COCC(C)C(N)=O	COC[C@@H](C)C(=O)N	
InChI=1S/C5H11NO2/c1-4(3-8-2)5(6)7/h4H,3H2,1-2H3,(H2,6,7)	InChI=1S/C5H11NO2/c1-4(3-8-2)5(6)7/h4H,3H2,1-2H3,(H2,6,7)/t4-/m1/s1
