16
gdb 64999	3.70501	1.04121	0.87302	5.3629	68.68	-0.247	-0.0315	0.2155	1290.4904	0.122813	-475.055816	-475.046949	-475.046004	-475.089957	32.105	
O	 0.1134225816	 1.375026994	-0.0043192364	-0.46815
C	 0.0139974796	-0.0265374939	 0.0624554766	 0.260971
C	-0.6466831176	-0.6668059646	 1.2607138443	-0.306159
C	-1.376727605	-0.6108416963	-0.0502211943	-0.27059
C	 1.1160464811	-0.8088831543	-0.6129489504	 0.374178
O	 1.1908795247	-2.0117607881	-0.5466237729	-0.331518
N	 1.9934785064	 0.0129298365	-1.3226430404	-0.365486
C	 3.1054881847	-0.361140274	-2.0687801013	 0.166639
O	 3.542872299	-1.4706441809	-2.1966995083	-0.254102
H	 0.5753666527	 1.6801849308	 0.7847318061	 0.294157
H	-0.2420200601	-1.6196985591	 1.5795178371	 0.152242
H	-0.9678219572	 0.007985997	 2.0467231875	 0.119594
H	-2.1754129775	 0.1132635453	-0.1577372696	 0.132177
H	-1.4764119632	-1.5281438223	-0.6174121325	 0.147684
H	 1.7443924109	 0.9935514337	-1.3129056291	 0.263035
H	 3.5587422001	 0.5322169362	-2.5459052865	 0.085328
55.713	86.3352	158.1835	214.5508	265.5782	275.5486	309.1249	373.4252	411.9977	452.2175	524.7422	648.4858	742.8583	763.5286	781.5881	864.5319	908.2974	936.5213	948.7192	999.2852	1031.6786	1058.9533	1090.2253	1092.7732	1162.059	1203.5073	1268.875	1315.3603	1348.2884	1439.2733	1444.6598	1475.0924	1510.7441	1796.6561	1866.7061	2920.9912	3140.5173	3150.2741	3237.6397	3252.7042	3584.2099	3796.243
OC1(CC1)C(=O)NC=O	OC1(CC1)C(=O)NC=O	
InChI=1S/C5H7NO3/c7-3-6-4(8)5(9)1-2-5/h3,9H,1-2H2,(H,6,7,8)	InChI=1S/C5H7NO3/c7-3-6-4(8)5(9)1-2-5/h3,9H,1-2H2,(H,6,7,8)
