15
gdb 53925	1.85346	1.62745	1.25568	5.5573	73.14	-0.253	-0.0048	0.2481	1078.9059	0.111145	-412.950464	-412.940872	-412.939927	-412.984664	35.33	
N	-0.047471112	 1.3602151056	 0.1461062921	-0.530911
C	 0.0864139634	 0.010868831	-0.0343809969	 0.34673
N	 1.1254868679	-0.6861557466	-0.2604334516	-0.495094
C	-1.2883655841	-0.7153296793	-0.0291382574	-0.138991
N	-2.1361523605	-0.1375753906	 1.0351991092	-0.5363
C	-1.9477789508	-0.5018525786	-1.32342782	 0.40848
C	-2.502257425	-0.3291241484	-2.3731746488	-0.471106
C	-1.0830931705	-2.1715901067	 0.1722745052	 0.302733
N	-1.0441424894	-3.3027276634	 0.4024453793	-0.348217
H	 0.7837301817	 1.9022038881	 0.3163931808	 0.254368
H	-0.9010501319	 1.6695604906	 0.588580814	 0.270758
H	 1.9723233408	-0.1154038722	-0.2756216801	 0.210143
H	-3.0899583361	-0.4660172945	 0.9183613147	 0.257833
H	-1.8106970819	-0.4741261895	 1.9385253863	 0.254126
H	-2.9810689614	-0.1807287256	-3.3101016768	 0.215447
58.1713	125.0525	144.1189	174.5585	240.5295	281.0244	326.463	368.6662	420.4373	425.7443	470.1682	502.489	560.7912	574.2079	615.78	652.3069	667.9174	670.3385	712.3649	862.5207	893.2479	989.2641	1058.0954	1112.19	1117.2916	1149.4304	1309.7267	1400.6776	1611.0611	1650.9169	1744.4941	2248.2404	2359.7487	3461.9411	3488.1739	3499.4268	3565.8838	3576.7222	3696.8657
NC(=N)C(N)(C#C)C#N	NC(=N)[C@@](N)(C#C)C#N	
InChI=1S/C5H6N4/c1-2-5(9,3-6)4(7)8/h1H,9H2,(H3,7,8)	InChI=1S/C5H6N4/c1-2-5(9,3-6)4(7)8/h1H,9H2,(H3,7,8)/t5-/m1/s1
