17
gdb 65493	2.99965	1.2262	1.02423	3.0132	73.14	-0.2564	0.0079	0.2643	1174.5942	0.135458	-417.974441	-417.965989	-417.965045	-418.007625	32.138	
O	 0.3578156875	 1.3918028894	-0.5442746059	-0.456848
C	-0.0050595038	 0.1551531803	 0.017733474	 0.275141
C	 0.1095230667	-0.0014691816	 1.5785031707	-0.381745
C	-1.3348910793	-0.51249983	 1.574086968	 0.386585
C	-1.8269434977	-1.7641411161	 2.187389493	-0.300698
N	-2.3247144683	-0.4440814625	 2.6343239064	-0.363332
C	-1.549548803	-0.0083021326	 0.1454640189	-0.33507
C	 0.6390673787	-0.9573897988	-0.69552294	 0.22911
N	 1.1793462963	-1.8153514017	-1.2511911268	-0.336594
H	 1.3193498585	 1.4410050863	-0.5995333684	 0.293856
H	 0.8933395433	-0.6552306272	 1.9664071121	 0.122949
H	 0.1990969343	 0.9962441253	 2.0194180358	 0.122248
H	-2.5605210546	-2.3748019947	 1.6680080919	 0.127981
H	-1.1503575089	-2.3172167686	 2.8342348914	 0.118714
H	-1.8875476096	-0.1811594479	 3.5147681098	 0.233332
H	-2.0112764286	 0.9820225082	 0.1206128321	 0.134937
H	-2.0414373115	-0.6668042177	-0.5710632229	 0.129433
55.7895	164.9141	184.5426	270.185	296.7477	313.1901	345.115	413.1872	426.063	450.9238	587.8892	610.3503	682.9813	789.1474	843.4496	876.9159	904.7143	916.8974	965.3272	976.3231	992.4403	1029.3758	1082.8027	1096.2052	1125.9728	1171.9642	1223.8518	1247.6499	1261.3389	1273.0071	1293.3909	1364.1149	1425.8775	1459.7923	1483.9207	1518.1041	2348.3841	3055.2534	3076.3218	3105.7246	3122.7124	3142.0812	3192.2045	3493.2893	3798.5572
OC1(CC2(CN2)C1)C#N	O[C@]1(C[C@]2(CN2)C1)C#N	
InChI=1S/C6H8N2O/c7-3-6(9)1-5(2-6)4-8-5/h8-9H,1-2,4H2	InChI=1S/C6H8N2O/c7-3-6(9)1-5(2-6)4-8-5/h8-9H,1-2,4H2/t5-,6+
