18
gdb 16973	3.87119	2.25911	2.14278	0.1893	76.84	-0.2158	0.0129	0.2288	747.4554	0.155977	-310.561179	-310.555327	-310.554382	-310.590502	25.803	
C	-0.0368555652	 1.6074783942	-0.2442840047	-0.280321
C	 1.5237387684	 1.4796379935	 0.0602252838	-0.3213
C	 1.1260138065	 0.2506312692	 0.929706673	 0.252071
C	 1.1089474024	-1.3304372636	 1.0947508116	-0.302212
C	-0.4737196017	-1.0214970239	 1.1271115127	-0.131338
C	-0.5532373972	-0.1852998379	 2.4023469886	-0.070924
C	 0.4844618372	 0.6425177178	 2.2778463317	-0.120777
C	-0.0940076556	 0.0704459617	 0.0412064886	 0.048995
H	-0.5281435247	 2.2176577801	 0.5157418105	 0.117075
H	-0.3344588707	 1.9445642002	-1.2400409706	 0.093371
H	 2.081928649	 1.2146899946	-0.8414918147	 0.105949
H	 2.0136799263	 2.3232197374	 0.5560419354	 0.095124
H	 1.4313921582	-1.8834211241	 0.2073541722	 0.09719
H	 1.534142774	-1.7609891935	 2.0056498043	 0.094735
H	-1.2095325675	-1.8094994283	 0.958867116	 0.061193
H	-1.2748859324	-0.2951465524	 3.1993192045	 0.097561
H	 0.8545838355	 1.4112338274	 2.9431302611	 0.090288
H	 0.1804515475	-0.4430420026	-0.8873912741	 0.073321
291.9955	299.6155	393.2747	473.3477	538.5398	592.6954	653.2677	696.4617	725.7398	762.6486	809.128	824.0602	837.263	876.4813	906.443	910.987	932.255	984.4676	1013.5395	1021.9317	1051.5905	1086.9392	1088.8898	1123.2787	1149.2688	1173.6953	1193.9487	1204.3528	1210.4235	1230.4701	1247.8934	1256.7078	1322.5269	1391.0546	1473.6197	1484.2939	1491.1779	1628.9302	3033.3645	3046.0693	3050.1796	3068.9802	3103.0092	3108.5076	3117.3546	3135.3334	3209.4301	3240.6325
C1CC23CC(C=C2)C13	C1C[C@@]23C[C@@H](C=C2)[C@@H]13	
InChI=1S/C8H10/c1-3-8-4-2-7(8)6(1)5-8/h1,3,6-7H,2,4-5H2	InChI=1S/C8H10/c1-3-8-4-2-7(8)6(1)5-8/h1,3,6-7H,2,4-5H2/t6-,7-,8-/m1/s1
