17
gdb 54866	3.49545	1.36193	1.05668	1.0916	75.64	-0.2373	-0.0232	0.2141	1122.9163	0.136844	-418.036996	-418.029113	-418.028168	-418.069705	29.674	
C	-0.0322787312	 1.4924932647	 0.0099856041	-0.504209
C	-0.0105961438	-0.0241985519	 0.0537320932	 0.404339
O	-0.0774547383	-0.6589422864	 1.0852461668	-0.341905
N	 0.0928108138	-0.6708579097	-1.1688769816	-0.102646
C	 0.0800924039	-0.1365742072	-2.4599826381	 0.053519
N	-0.0173443102	-0.9787494447	-3.4167516173	-0.25651
C	-0.0438479388	-2.2948906516	-2.8189029813	-0.013898
C	 1.193644499	-2.7238213362	-2.0605171628	-0.305427
C	 0.0465924383	-2.1095960857	-1.3057766602	-0.016888
H	 0.8766192448	 1.8908021618	-0.4519545279	 0.145921
H	-0.889047066	 1.8624041886	-0.562030256	 0.147944
H	-0.1020957243	 1.8545339663	 1.0349377637	 0.155735
H	 0.1587221587	 0.9337099474	-2.6024397612	 0.141113
H	-0.6600533841	-3.0361587567	-3.312618777	 0.107541
H	 1.3339863456	-3.7903588279	-1.926635627	 0.127517
H	 2.1041693247	-2.1497606235	-2.1962056431	 0.124941
H	-0.503918612	-2.6385959374	-0.5413151642	 0.132912
97.0403	107.5597	145.4024	210.3021	344.3099	367.7473	433.5526	524.5844	588.661	626.5648	631.1201	748.3945	760.7134	819.4184	896.9043	918.0559	943.7771	974.0233	999.6813	1051.2486	1053.274	1071.0555	1086.923	1103.3539	1117.48	1192.4485	1278.6293	1294.9919	1337.7461	1348.9582	1390.8797	1423.3317	1466.7859	1474.2597	1485.2897	1649.8902	1784.7609	3046.9831	3111.0516	3133.6494	3165.7609	3186.0658	3221.0148	3223.6457	3230.1761
CC(=O)N1C=NC2CC12	CC(=O)N1C=N[C@H]2C[C@@H]12	
InChI=1S/C6H8N2O/c1-4(9)8-3-7-5-2-6(5)8/h3,5-6H,2H2,1H3	InChI=1S/C6H8N2O/c1-4(9)8-3-7-5-2-6(5)8/h3,5-6H,2H2,1H3/t5-,6+/m0/s1
