17
gdb 97698	2.95917	0.78637	0.68429	1.4267	85.86	-0.2376	0.0228	0.2604	1657.6567	0.133033	-384.603117	-384.593235	-384.592291	-384.639173	35.395	
O	 0.2796098562	 1.0120389776	-0.763527684	-0.402438
C	-0.0120798042	 0.0925030185	 0.2807938912	-0.196786
C	-1.3620066822	-0.4634443545	 0.2149745046	 0.094451
C	-2.4957965926	-0.8679423467	 0.1499602188	-0.040628
C	-3.8434626926	-1.3698722296	 0.0664823187	 0.030758
C	-4.3206241633	-1.9003031766	-1.2961284333	-0.285145
C	-4.0276271239	-2.8723580995	-0.2052974559	-0.284301
C	-4.8212861123	-0.7226939162	 0.9056637927	 0.252554
C	-5.6447839038	-0.1894474259	 1.6004264275	-0.459977
H	-0.4318930581	 1.6607267553	-0.7797002754	 0.28751
H	 0.7313212677	-0.7071735691	 0.1875449652	 0.138741
H	 0.1394817352	 0.5500183122	 1.2717538927	 0.120457
H	-5.3548148687	-1.6989433914	-1.5475206611	 0.137126
H	-3.6156598855	-1.8088065332	-2.1132687393	 0.138372
H	-3.1189342374	-3.4589298339	-0.2624501868	 0.136805
H	-4.8578657141	-3.347430341	 0.3029048079	 0.137368
H	-6.3651521503	 0.2864693441	 2.2182778567	 0.195133
27.9113	82.8361	89.3317	176.1724	208.1107	217.889	268.9291	331.5358	412.1124	457.4642	502.7669	565.1418	573.6839	593.6073	621.5698	655.8105	780.9368	831.4998	849.6784	958.849	964.4607	984.1809	1034.163	1063.9174	1084.7173	1089.1493	1199.4943	1215.5316	1269.2214	1326.5748	1356.8213	1418.7345	1461.2366	1487.9073	1489.8403	2239.5698	2354.8529	2976.0572	3060.7199	3148.8862	3152.4497	3238.232	3252.8269	3503.8512	3815.7135
OCC#CC1(CC1)C#C	OCC#CC1(CC1)C#C	
InChI=1S/C8H8O/c1-2-8(5-6-8)4-3-7-9/h1,9H,5-7H2	InChI=1S/C8H8O/c1-2-8(5-6-8)4-3-7-9/h1,9H,5-7H2
