20
gdb 112192	2.51733	1.27589	0.94776	3.7584	80.98	-0.2429	0.0319	0.2748	1298.2749	0.170402	-403.165684	-403.156424	-403.15548	-403.199877	34.38	
C	 0.1235530737	 1.5591240432	 0.1386093781	-0.387799
C	-0.153168852	 0.0681293342	-0.0772018434	-0.179186
C	 0.6242204953	-0.5198056863	-1.2475470392	-0.019641
N	 2.0872295696	-0.6203721007	-1.0490637724	-0.367764
C	 2.1603904067	-1.9828881207	-1.2704658846	 0.40775
O	 3.0781816418	-2.7572803932	-1.340190294	-0.375793
C	 0.651594191	-2.0551826641	-1.4101544443	 0.165535
C	-0.2589157615	-3.1159105495	-0.8625205791	-0.319454
C	-0.1002573844	-2.9513092948	-2.3504929657	-0.319398
H	 1.1810530783	 1.7345665527	 0.3635826852	 0.11743
H	-0.1319229651	 2.1452707047	-0.7513269769	 0.115905
H	-0.4606898633	 1.9525158158	 0.9754923854	 0.12026
H	 0.0955668558	-0.4967657451	 0.8283782703	 0.105636
H	-1.2241494258	-0.0849074468	-0.2645558433	 0.098267
H	 0.3660316511	 0.0010309017	-2.1797368638	 0.081928
H	 2.8089729168	 0.08199308	-1.1121467701	 0.247124
H	 0.2101767995	-3.9693694942	-0.3848112348	 0.135239
H	-1.191331945	-2.7949903304	-0.4099906488	 0.119475
H	-0.9248860088	-2.52023215	-2.9086245475	 0.118356
H	 0.4820767664	-3.6899730565	-2.8911642014	 0.13613
82.533	102.635	136.7451	193.6882	201.3533	229.371	281.2686	339.4942	387.7116	493.9461	557.3355	626.0868	730.3022	742.8478	778.2884	807.3987	843.0389	914.251	945.0238	954.1308	963.1196	1008.9614	1057.0357	1071.1423	1082.1045	1095.3109	1155.4384	1156.2905	1193.6576	1203.0452	1269.5858	1288.9833	1341.0785	1358.7075	1395.4742	1410.2772	1412.7071	1458.1153	1478.4133	1499.1768	1500.7982	1506.7498	1888.6843	3009.6121	3023.7334	3031.9651	3068.1847	3099.9207	3108.1839	3129.281	3132.1366	3211.4394	3225.6252	3615.5959
CCC1NC(=O)C11CC1	CC[C@H]1NC(=O)C21CC2	
InChI=1S/C7H11NO/c1-2-5-7(3-4-7)6(9)8-5/h5H,2-4H2,1H3,(H,8,9)	InChI=1S/C7H11NO/c1-2-5-7(3-4-7)6(9)8-5/h5H,2-4H2,1H3,(H,8,9)/t5-/m1/s1
