23
gdb 118520	3.10911	0.77176	0.65527	0.6997	89.17	-0.2397	0.05	0.2897	1787.4509	0.201824	-388.254986	-388.24339	-388.242445	-388.293357	40.671	
C	-0.0318311346	 1.5592483423	 0.0540893993	-0.3814
C	-0.0040626879	 0.029157035	 0.0220558251	-0.175221
C	-1.4036396867	-0.5926796276	 0.0233419884	-0.171123
C	-1.3906332524	-2.1229271357	-0.0471741571	 0.108153
C	-2.8357620585	-2.6822366202	 0.0292589157	-0.356511
C	-2.9395217101	-4.1118696953	 0.2962421859	 0.288692
C	-3.0386049026	-5.2836465019	 0.5485082529	-0.438719
O	-0.7587213857	-2.4779605667	-1.2655867922	-0.249207
C	-0.0742423432	-3.7151407355	-1.2758831079	-0.241593
H	 0.9804503239	 1.975415325	 0.0530634874	 0.111194
H	-0.5578932814	 1.9636824129	-0.8179175997	 0.114574
H	-0.543293558	 1.9322028766	 0.9489162765	 0.110446
H	 0.5307356207	-0.3183844995	-0.8673433087	 0.114505
H	 0.5580841742	-0.3458396393	 0.8881139474	 0.088923
H	-1.9459330854	-0.286732789	 0.9271274321	 0.090362
H	-1.9775272592	-0.2125445655	-0.832658061	 0.101725
H	-0.8121761905	-2.5220533182	 0.8013467778	 0.073708
H	-3.3767212571	-2.1412394176	 0.8159970898	 0.127482
H	-3.3328828278	-2.439427234	-0.9178313137	 0.137499
H	-3.1243131193	-6.3200275259	 0.7625188826	 0.194093
H	 0.6562128671	-3.7775390452	-0.45489675	 0.102882
H	-0.7550601031	-4.5704613152	-1.200195607	 0.128294
H	 0.4629162675	-3.7685788897	-2.2267646539	 0.121244
21.3443	68.8561	77.0933	108.3998	118.8749	182.7108	196.603	250.7878	288.7257	332.1047	340.7267	350.9976	397.6771	499.8773	593.9545	613.1819	630.6337	743.9058	818.3338	861.9866	895.5793	966.6215	974.1496	1014.0778	1054.2578	1068.1944	1124.6385	1140.5924	1156.6395	1183.6688	1215.8867	1238.1892	1268.1284	1280.3206	1325.9691	1331.2223	1366.5382	1391.3965	1399.2575	1413.8933	1453.8579	1474.5308	1480.4767	1491.5409	1494.5892	1500.9758	1510.9735	1514.6672	2233.0324	2976.8235	2989.4658	3012.5216	3019.2667	3025.7319	3028.3725	3053.0059	3065.4095	3065.6114	3076.7798	3099.1988	3101.2302	3110.6291	3505.8323
CCCC(CC#C)OC	CCC[C@@H](CC#C)OC	
InChI=1S/C8H14O/c1-4-6-8(9-3)7-5-2/h1,8H,5-7H2,2-3H3	InChI=1S/C8H14O/c1-4-6-8(9-3)7-5-2/h1,8H,5-7H2,2-3H3/t8-/m1/s1
