19
gdb 73967	3.38794	1.8	1.51085	0.9917	86.21	-0.1855	-0.0274	0.1581	935.9567	0.15967	-348.638127	-348.631115	-348.630171	-348.669206	29.198	
C	-0.089455519	 1.3039060698	-0.3338066581	-0.469502
C	-0.0275826012	-0.0455349649	 0.3013932852	 0.258589
C	-1.0574163022	-0.9220653956	 0.3677000893	-0.037359
C	-1.66318362	-1.5350268707	-0.8886198104	-0.112943
C	-0.370355064	-2.3605302608	-1.3224357037	-0.085903
C	-1.4496827922	-2.9405014762	-0.4288129113	-0.08966
C	-0.6007318645	-2.3603158767	 0.7407524133	-0.092604
C	 0.6634145421	-2.2537338523	-0.1404361901	-0.014
C	 1.2604586077	-0.8751246839	 0.3056010017	-0.316834
H	 0.5152599715	 1.3374227673	-1.2517367727	 0.119041
H	-1.1189471969	 1.5806444803	-0.5804023226	 0.121765
H	 0.3124886259	 2.0849451528	 0.3256589242	 0.127104
H	-2.3369215078	-1.1563681029	-1.6476680813	 0.08807
H	-0.1769590903	-2.5778268181	-2.366375138	 0.08133
H	-2.0538783365	-3.8314678773	-0.522593555	 0.086863
H	-0.5908991911	-2.7077898161	 1.772281193	 0.068208
H	 1.3646564624	-3.0949350733	-0.1445833207	 0.059204
H	 1.9866763884	-0.4234011611	-0.3814522362	 0.101591
H	 1.7793706778	-1.0063238603	 1.2661333637	 0.10704
119.804	159.8094	253.7539	356.3906	467.2998	511.5447	531.9246	609.3167	683.9368	729.0974	762.6098	806.3061	829.7676	840.5487	871.2813	893.9486	909.4485	937.8823	941.1488	992.7146	1002.5334	1018.0368	1026.991	1049.689	1054.3188	1074.9743	1123.5389	1153.9811	1168.0086	1191.2748	1215.6688	1228.9878	1250.1051	1270.3837	1317.4091	1338.8551	1402.226	1457.3743	1470.3752	1487.393	1614.2405	2996.2359	3001.5459	3042.2062	3052.338	3058.4778	3099.7887	3128.2772	3179.7763	3186.1445	3217.1618
CC1=C2C3C4C3C2C4C1	C[C]1[C]2[C@H]3[C@@H]4[C@H]3[C@H]2[C@@H]4C1	
InChI=1S/C9H10/c1-3-2-4-6-5(3)8-7(4)9(6)8/h4,6-9H,2H2,1H3	InChI=1S/C9H10/c1-3-2-4-6-5(3)8-7(4)9(6)8/h4,6-9H,2H2,1H3/t4-,6-,7+,8-,9+/m0/s1
