13
gdb 21007	7.54065	1.31096	1.12478	4.6166	70.74	-0.2382	-0.0122	0.226	1001.6044	0.095603	-357.611831	-357.604548	-357.603604	-357.643666	25.952	
C	 0.0041364606	 1.4636519865	 0.0475432856	-0.333085
N	 0.0012995773	 0.0183023059	-0.0652469293	 0.075666
C	 0.0584957687	-0.75514221	-1.1688255626	-0.212918
C	 0.0225578903	-2.0508963667	-0.6894234182	 0.191244
N	-0.0532594483	-1.9898089215	 0.681706947	-0.26069
N	-0.0661286077	-0.7468638566	 1.0485216015	-0.14043
C	 0.0551498522	-3.2636273895	-1.4139294001	 0.292248
C	 0.0833372422	-4.2924297968	-2.0369881249	-0.442015
H	 0.9235727529	 1.8806279798	-0.37177972	 0.152484
H	-0.85788716	 1.8918893727	-0.4707258233	 0.152489
H	-0.0533470284	 1.7018006926	 1.1093737212	 0.175751
H	 0.1172472903	-0.3546033846	-2.1662999153	 0.152211
H	 0.10788977	-5.2040626517	-2.5808729816	 0.197044
76.4228	131.6048	150.79	248.9592	350.1577	482.8805	541.8664	555.4246	586.4341	667.7298	673.8643	730.6965	737.7781	813.8685	1011.8256	1046.0792	1076.6436	1151.7213	1157.4983	1257.4705	1286.6604	1369.7246	1439.5238	1482.7356	1485.2475	1512.544	1562.0975	2243.9858	3053.2056	3120.661	3166.6475	3288.3142	3503.8557
CN1C=C(N=N1)C#C	Cn1cc(nn1)C#C	
InChI=1S/C5H5N3/c1-3-5-4-8(2)7-6-5/h1,4H,2H3	InChI=1S/C5H5N3/c1-3-5-4-8(2)7-6-5/h1,4H,2H3
