19
gdb 30193	4.56501	1.11886	0.94619	3.5911	84.34	-0.2054	0.0435	0.2488	1285.7144	0.160206	-382.090703	-382.082176	-382.081232	-382.124167	31.73	
C	-0.3918956808	 1.5261787485	-0.6083142136	-0.398132
C	-0.0270790086	 0.1927581426	 0.0163392805	 0.055047
C	 1.0117238753	-0.7310906408	-0.7452299511	-0.395245
C	 1.8420203259	-0.5913558082	 0.5161353457	 0.364732
N	 2.8212225157	-0.9937163347	 1.2867243987	-0.415314
C	 2.5500732656	-0.3453853376	 2.4910387004	 0.274242
C	 3.47224622	-0.4856412613	 3.6596146479	-0.483685
C	 1.3872242795	 0.4040158275	 2.4223643643	-0.263699
N	 0.9757681886	 0.2507338477	 1.1148596649	 0.013834
H	 0.50615856	 2.0693401442	-0.9171224197	 0.132232
H	-1.0235851205	 1.3677441331	-1.488381258	 0.127904
H	-0.9478209493	 2.1517766228	 0.0970893892	 0.129136
H	-0.922223883	-0.3580949355	 0.3229939076	 0.104474
H	 0.6472301927	-1.7368779387	-0.9675529838	 0.130449
H	 1.4275398578	-0.2884869899	-1.6545130848	 0.125114
H	 3.0710428845	 0.0229986706	 4.5407193682	 0.113249
H	 3.6256408802	-1.5404619244	 3.9110343775	 0.131539
H	 4.4588187655	-0.0611556284	 3.4419752334	 0.13004
H	 0.898625791	 1.0350488124	 3.1452309927	 0.124084
54.1743	116.7099	179.5278	213.0672	244.3339	270.0899	331.234	411.1919	511.1256	584.8806	652.1616	689.5955	713.9518	735.8002	797.7823	870.0555	914.753	976.3601	1000.2505	1036.4223	1059.8136	1063.6859	1098.3396	1117.6715	1170.3229	1177.7988	1226.9748	1244.6039	1281.7496	1362.8955	1378.95	1410.4109	1413.9333	1438.4727	1475.1311	1482.4526	1486.9384	1488.4823	1496.2435	1549.675	1586.9926	3031.675	3037.9993	3056.0031	3063.5956	3085.7929	3109.1021	3112.9942	3114.5251	3119.4171	3276.3128
CC1CC2=NC(C)=CN12	C[C@H]1Cc2nc(C)cn12	
InChI=1S/C7H10N2/c1-5-4-9-6(2)3-7(9)8-5/h4,6H,3H2,1-2H3	InChI=1S/C7H10N2/c1-5-4-9-6(2)3-7(9)8-5/h4,6H,3H2,1-2H3/t6-/m0/s1
