18
gdb 102976	3.89708	0.71207	0.6276	3.8122	71.77	-0.2626	-0.0437	0.2189	1719.898	0.145021	-476.215705	-476.205508	-476.204564	-476.252797	34.272	
O	-0.082001628	 1.4242506469	-0.1340312514	-0.424742
C	-0.058881536	 0.0224498991	-0.0089657044	-0.073996
C	-1.4682745754	-0.5936704326	-0.0571252739	-0.126016
C	-1.4298254123	-2.1234785401	-0.0846564267	-0.104919
O	-2.7594561951	-2.5921114605	-0.3079209273	-0.190668
C	-2.923288638	-3.9322109728	-0.3542391878	 0.131064
N	-4.0761914678	-4.4162125128	-0.5100267684	-0.430959
C	-2.3402528481	-0.09474412	 1.0839803327	 0.156228
O	-2.0575743112	 0.8498569423	 1.7853066218	-0.262556
H	-0.5675698792	 1.7457555525	 0.6374309662	 0.296947
H	 0.5337303947	-0.361126264	-0.8468952125	 0.109872
H	 0.4428044208	-0.2964952065	 0.9195681204	 0.094438
H	-1.9641349667	-0.2651631718	-0.9827291755	 0.134171
H	-0.766193638	-2.4627912789	-0.8910027805	 0.122025
H	-1.0426619913	-2.5231352783	 0.8632394625	 0.119265
H	-1.9836933712	-4.4923637317	-0.2496698371	 0.090441
H	-4.0300658241	-5.4327152335	-0.5307737572	 0.234667
H	-3.2818520628	-0.6566402275	 1.243014459	 0.124738
37.0549	59.4575	88.5036	113.3378	132.2382	152.9372	235.0494	292.6161	332.8677	347.2424	478.2316	577.9743	628.5568	663.2052	824.2942	827.3968	915.594	925.7601	992.9933	1044.915	1081.4675	1089.1546	1124.4224	1132.8869	1148.4457	1219.4006	1241.8434	1268.3208	1292.1847	1360.6144	1390.9432	1403.1475	1425.1253	1430.2939	1452.7018	1502.3331	1519.1023	1752.8005	1803.4473	2946.9811	2970.1192	2997.3261	3016.9642	3025.7418	3044.8399	3064.7954	3522.1748	3758.9795
OCC(COC=N)C=O	OC[C@@H](CO[CH][NH])C=O	
InChI=1S/C5H9NO3/c6-4-9-3-5(1-7)2-8/h1,4-6,8H,2-3H2	InChI=1S/C5H9NO3/c6-4-9-3-5(1-7)2-8/h1,4-6,8H,2-3H2/t5-/m0/s1
