15
gdb 61377	2.76062	0.99767	0.83911	1.7993	69.79	-0.2673	-0.0881	0.1793	1367.3604	0.10805	-457.755616	-457.745925	-457.74498	-457.79146	33.171	
C	-0.0621477244	 1.569522568	-0.1879702816	-0.402329
C	-0.0135710354	 0.0571322659	 0.0365823162	-0.064488
O	-1.3759072615	-0.4550035589	 0.1689777212	-0.22427
C	-1.8826162172	-0.4664184464	 1.3996633316	 0.351143
O	-1.3392218279	-0.0913785898	 2.4099726087	-0.345313
C	-3.3092867856	-1.0319826305	 1.4379686737	 0.09335
O	-3.9323946191	-1.3775983558	 0.4756639433	-0.20652
C	 0.6113205839	-0.6618188814	-1.064322766	 0.333044
C	 1.1578017239	-1.2250599384	-1.9727812363	-0.4333
H	 0.9525779764	 1.9526179463	-0.3222936546	 0.139955
H	-0.6459762713	 1.800985597	-1.0816525655	 0.143932
H	-0.5100535621	 2.0582439765	 0.6802327754	 0.14246
H	 0.505134698	-0.1591223005	 0.9755264276	 0.14521
H	-3.6947462839	-1.0716947848	 2.4763951783	 0.117685
H	 1.6373472662	-1.732866917	-2.773247712	 0.209442
37.2997	70.3039	119.1932	132.8064	183.1706	221.6574	242.5831	304.969	391.3428	500.1811	525.0851	541.1924	609.7998	632.2477	685.0652	695.6412	856.704	879.401	965.5079	1028.5169	1039.3791	1108.3132	1138.2986	1296.4795	1349.3381	1366.913	1378.1988	1401.3383	1486.5518	1492.2744	1800.1275	1844.6934	2248.8743	2947.1408	3055.2495	3071.2486	3135.7144	3143.8104	3501.7033
CC(OC(=O)C=O)C#C	C[C@@H](OC(=O)C=O)C#C	
InChI=1S/C6H6O3/c1-3-5(2)9-6(8)4-7/h1,4-5H,2H3	InChI=1S/C6H6O3/c1-3-5(2)9-6(8)4-7/h1,4-5H,2H3/t5-/m1/s1
