15
gdb 48681	3.74244	1.25052	1.09938	3.2861	66.74	-0.2658	-0.0455	0.2204	1074.6762	0.113312	-453.969422	-453.961768	-453.960824	-454.001896	28.268	
O	-0.5145819727	 0.5198040702	-0.6964236749	-0.254027
C	 0.100936956	 1.0008266656	 0.221142305	 0.099057
C	 1.3186345055	 1.8392466765	 0.0440301863	 0.216307
C	 1.611996962	 2.9279393088	 1.0226621111	-0.283938
N	 2.3801787599	 1.6804737084	 1.0777469881	-0.180894
C	 3.645015367	 1.7923542994	 0.3608218425	 0.41812
O	 4.7229482217	 1.7438408733	 0.8884148491	-0.356863
N	 3.3735090379	 1.954337698	-0.9718654984	-0.325906
C	 1.9705660298	 1.9104218286	-1.3323424423	-0.252569
H	-0.1993684574	 0.8548388407	 1.2803721736	 0.097977
H	 2.1009301718	 3.8190704832	 0.6366526395	 0.144994
H	 0.9467208818	 3.090007513	 1.865813832	 0.140484
H	 4.1255119882	 1.9920108489	-1.6397526924	 0.26567
H	 1.7049276137	 1.0176347255	-1.9091164579	 0.144028
H	 1.6610859246	 2.7913399201	-1.9062037014	 0.127561
85.0645	129.9077	200.881	210.1568	347.584	361.7029	460.6071	479.6216	513.4566	663.7035	696.5888	764.7835	806.8998	818.38	854.2236	932.4748	976.6846	1023.0133	1068.9756	1077.4752	1126.8066	1138.4243	1194.5592	1211.4268	1311.0845	1326.6093	1365.6446	1423.4125	1446.1368	1498.9481	1536.378	1820.7073	1873.9446	2915.1732	3034.0453	3071.1728	3109.0871	3201.5968	3660.8068
O=CC12CN1C(=O)NC2	O=C[C@@]12CN1C(=O)NC2	
InChI=1S/C5H6N2O2/c8-3-5-1-6-4(9)7(5)2-5/h3H,1-2H2,(H,6,9)	InChI=1S/C5H6N2O2/c8-3-5-1-6-4(9)7(5)2-5/h3H,1-2H2,(H,6,9)/t5-,7?/m1/s1
