20
gdb 112527	3.8177	0.9673	0.86232	4.7264	80.23	-0.2631	0.0298	0.2929	1376.8767	0.170019	-403.14855	-403.138903	-403.137959	-403.183276	34.832	
C	 0.171790526	 1.0830826839	-0.363116419	-0.247801
O	-0.4145522688	 0.120473019	 0.4890449963	-0.234442
C	 0.4962703874	-0.5154215309	 1.3369116576	 0.15632
C	-0.1627305427	-1.3937367248	 2.4148214597	-0.280099
C	 0.9794378739	-2.4350802444	 2.2014285372	-0.153701
C	 0.6400768025	-3.8460057878	 2.2334325424	 0.279443
N	 0.3636526078	-4.9691194345	 2.2429914676	-0.335647
C	 1.2873011113	-1.7657745391	 0.8100471178	-0.062792
C	 0.6493662057	-2.4581191554	-0.388607742	-0.396112
H	 0.9053832034	 0.6375800637	-1.0502147935	 0.11186
H	-0.6346765198	 1.5272931196	-0.9506391038	 0.133905
H	 0.6735528231	 1.8761812444	 0.2120192915	 0.109946
H	 1.1860225866	 0.2189352105	 1.7810202936	 0.069166
H	-0.284069811	-0.9817278254	 3.4173241404	 0.117509
H	-1.1219252752	-1.7751622532	 2.0603713827	 0.138963
H	 1.8012624687	-2.2591287197	 2.9009526639	 0.12293
H	 2.3537694033	-1.6058089637	 0.6316083051	 0.080328
H	-0.4269806865	-2.5963071389	-0.2567606456	 0.135232
H	 0.7957106313	-1.865367101	-1.296051704	 0.120087
H	 1.0989236228	-3.4423976922	-0.5485997577	 0.134906
63.8822	100.1292	147.1812	169.6627	192.6129	224.3382	252.4221	274.6489	355.7904	419.7628	511.7828	554.9728	587.961	659.1018	761.4233	801.8622	907.5721	920.7029	1003.2102	1006.4162	1026.9752	1068.1321	1108.9792	1136.4451	1139.0976	1170.4209	1182.8307	1214.8048	1243.095	1254.5896	1273.8255	1290.4529	1338.3789	1362.0553	1398.7919	1423.0635	1480.9621	1485.0102	1487.9037	1494.3857	1495.9191	1509.2427	2351.0608	2976.9736	2985.4698	3033.5096	3047.3911	3065.31	3077.2029	3085.0177	3115.1201	3121.8147	3124.6418	3145.6013
COC1CC(C#N)C1C	CO[C@H]1C[C@@H](C#N)[C@H]1C	
InChI=1S/C7H11NO/c1-5-6(4-8)3-7(5)9-2/h5-7H,3H2,1-2H3	InChI=1S/C7H11NO/c1-5-6(4-8)3-7(5)9-2/h5-7H,3H2,1-2H3/t5-,6+,7+/m1/s1
