17
gdb 35395	3.06517	1.59648	1.33173	2.2223	76.77	-0.2435	0.0481	0.2916	986.7712	0.135498	-384.587545	-384.580174	-384.57923	-384.619278	29.536	
C	-0.1660237948	-1.2829253263	-0.2292638142	-0.474131
C	-0.0817845765	-0.0925969253	-0.0797544242	 0.350351
C	 0.0104264278	 1.3438144986	 0.076025204	-0.177944
C	-0.2053148851	 1.9841402914	 1.499757204	-0.255528
C	 1.139007129	 2.7563324295	 1.3573674104	-0.067341
C	 2.3936078717	 2.0523952212	 1.9336095961	 0.014082
O	 2.1803172874	 0.642859504	 1.8305484601	-0.22598
C	 2.6245850407	 1.3365724077	 0.6618791994	 0.02049
C	 1.4157687665	 2.0357499842	-0.0013487856	-0.071745
H	-0.2321361956	-2.3359775746	-0.3459615041	 0.191574
H	-0.6559204461	 1.8252964132	-0.6475518774	 0.103197
H	-1.089947307	 2.6208907266	 1.5569465583	 0.102276
H	-0.2227577198	 1.2572711151	 2.3109103373	 0.125739
H	 1.1280887863	 3.8432147599	 1.4266428967	 0.076742
H	 3.0782241513	 2.3915620726	 2.7031602341	 0.103782
H	 3.5312707876	 0.9697418229	 0.1944584458	 0.105991
H	 1.6571610165	 2.5910451094	-0.907694181	 0.078447
97.9562	138.2773	238.5937	290.9716	384.7968	484.9816	523.2326	604.2688	613.5714	630.9061	696.8054	726.8459	785.2458	817.0472	832.7809	870.0225	891.3669	911.2791	972.7185	981.5473	1022.1126	1027.2058	1053.3593	1079.7976	1108.4412	1146.7416	1195.445	1207.9634	1225.9749	1248.1301	1269.1378	1288.6996	1304.6178	1340.5798	1381.3237	1468.742	2233.9659	3044.5585	3081.5669	3112.1487	3124.9465	3151.2683	3172.971	3188.5656	3505.4464
C#CC1CC2C3OC3C12	C#C[C@H]1C[C@H]2[C@H]3O[C@H]3[C@@H]12	
InChI=1S/C8H8O/c1-2-4-3-5-6(4)8-7(5)9-8/h1,4-8H,3H2	InChI=1S/C8H8O/c1-2-4-3-5-6(4)8-7(5)9-8/h1,4-8H,3H2/t4-,5+,6-,7+,8-/m0/s1
