19
gdb 88283	3.50713	1.16733	0.96391	2.7784	78.47	-0.244	0.0264	0.2704	1263.1979	0.158692	-419.186763	-419.177702	-419.176758	-419.22111	32.813	
C	-0.2022128833	 1.2626643628	 0.4751672736	-0.403308
C	 0.1158254507	-0.1361754492	 0.0035869293	 0.021438
C	 1.5383815007	-0.6063605548	-0.1179838436	-0.250745
N	 0.6598813366	-1.1268031722	 0.9135951323	-0.103336
C	 0.8129772666	-0.935930969	 2.2824189158	 0.376283
O	-0.0687780519	-0.5294833417	 3.007460328	-0.372173
N	 2.0939257496	-1.2807919666	 2.7403312582	-0.098966
C	 2.6086970699	-2.6414927131	 2.6628538107	-0.224803
C	 2.2481474017	-2.0179146796	 3.9757314568	-0.212178
H	 0.6011842361	 1.6675006932	 1.0966787031	 0.128617
H	-0.337987873	 1.9231808517	-0.3873088658	 0.117269
H	-1.117958954	 1.2715409676	 1.0715722015	 0.149993
H	-0.6033214061	-0.5546195119	-0.6992278458	 0.098906
H	 1.8253148269	-1.3075630569	-0.8975191156	 0.118815
H	 2.3205912697	 0.0820361015	 0.192839653	 0.131949
H	 1.9447989695	-3.4058019989	 2.2680673389	 0.136162
H	 3.6499384116	-2.7381997988	 2.3679797604	 0.122293
H	 3.0305502597	-1.6640430646	 4.6405457712	 0.123741
H	 1.336505749	-2.3483444595	 4.4653261979	 0.140041
64.7633	78.2799	148.4825	174.9606	201.0094	229.815	282.0125	378.5938	416.7781	515.3162	559.3514	703.2403	783.4749	824.8607	835.0985	864.5467	910.5972	961.0819	970.0732	1040.0437	1045.0084	1060.8576	1120.4187	1123.7065	1131.6759	1136.1946	1161.0042	1168.7972	1177.8153	1193.2366	1195.4963	1349.6921	1389.6784	1408.8436	1430.4533	1484.4423	1490.4913	1497.5442	1513.6991	1524.5365	1780.7223	3043.5527	3103.2594	3107.1759	3110.765	3118.7669	3119.6575	3129.9394	3191.8652	3195.382	3210.8851
CC1CN1C(=O)N1CC1	C[C@H]1CN1C(=O)N1CC1	
InChI=1S/C6H10N2O/c1-5-4-8(5)6(9)7-2-3-7/h5H,2-4H2,1H3	InChI=1S/C6H10N2O/c1-5-4-8(5)6(9)7-2-3-7/h5H,2-4H2,1H3/t5-,8?/m0/s1
