20
gdb 69434	3.72024	1.14705	0.99377	1.7463	84.85	-0.2434	0.0493	0.2927	1247.2587	0.171166	-365.976699	-365.968005	-365.967061	-366.009698	34.055	
C	-0.0062255309	 1.5093539298	-0.0461442615	-0.465571
C	-0.0317118346	 0.0046885795	 0.0480977738	 0.334649
C	-1.3083984029	-0.7339052405	-0.3438173977	-0.280872
C	-1.1420354653	-2.1661568625	 0.2044686498	-0.254618
C	-0.2050582594	-2.0182743547	 1.4419670097	-0.180371
C	 0.5642865931	-3.2205831944	 1.7391588894	 0.311354
C	 1.2031333934	-4.2139044338	 1.9649014672	-0.451624
C	 0.6417643194	-0.7826427335	 1.1190451864	-0.062282
N	 1.2455761207	-0.683030135	-0.2143529338	-0.367509
H	 0.9575713718	 1.8982959925	 0.290650554	 0.130006
H	-0.1562482471	 1.8374964853	-1.0812809772	 0.118448
H	-0.7992524763	 1.9557342315	 0.5643229425	 0.11183
H	-2.1634708259	-0.2339909758	 0.1281359318	 0.103693
H	-1.4900443323	-0.7199871283	-1.4247536765	 0.102345
H	-2.0912570725	-2.6347629009	 0.4720728039	 0.113777
H	-0.6706968269	-2.8197628067	-0.5344833513	 0.116591
H	-0.8154716891	-1.7691676358	 2.3214445627	 0.10545
H	 1.7698547637	-5.0874512157	 2.1724547303	 0.194533
H	 1.2112399634	-0.3298980524	 1.9256244475	 0.093102
H	 1.1262083176	-1.5434383186	-0.743556111	 0.227067
89.587	134.5893	191.1489	206.7481	264.5403	311.589	368.0883	421.9834	496.2402	520.1331	574.5783	624.0024	630.7084	654.2418	699.1876	807.2867	842.8771	862.9611	923.2903	965.5768	1000.2976	1008.8205	1019.6373	1052.0367	1073.8028	1090.1039	1108.0568	1162.3158	1186.473	1244.637	1270.2577	1289.116	1303.7026	1311.8578	1336.5483	1355.5646	1408.0186	1440.8492	1485.8561	1489.0294	1499.6795	1505.5621	2234.526	3005.8873	3025.2578	3030.5898	3059.3195	3072.3357	3087.3593	3113.7849	3122.9152	3150.4023	3494.5824	3504.6223
CC12CCC(C#C)C1N2	C[C@]12CC[C@@H](C#C)[C@H]1N2	
InChI=1S/C8H11N/c1-3-6-4-5-8(2)7(6)9-8/h1,6-7,9H,4-5H2,2H3	InChI=1S/C8H11N/c1-3-6-4-5-8(2)7(6)9-8/h1,6-7,9H,4-5H2,2H3/t6-,7-,8+/m1/s1
