23
gdb 95225	3.06395	1.29788	1.02899	0.3172	91.13	-0.2319	0.0196	0.2515	1256.2515	0.208025	-351.158667	-351.150239	-351.149295	-351.191113	34.379	
C	 0.1439923839	 1.6756353223	-0.0180044602	-0.410909
C	-0.0321125796	 0.1538726696	 0.0479593891	 0.002294
C	 0.3753152801	-0.5062186286	-1.2970785623	-0.19356
C	 0.5656990563	-2.0334027385	-1.2309602865	-0.223487
C	-0.5016700844	-2.765452747	-0.435596831	 0.000747
C	-0.0950953858	-3.9106615377	 0.4609367631	-0.312187
C	-0.5282962857	-2.5941681938	 1.0699269155	-0.056529
C	 0.4524441055	-1.6696460848	 1.7092534473	-0.099737
C	 0.6876809294	-0.4409821792	 1.2434193217	-0.038798
H	 1.2008852026	 1.9417433122	-0.1390768784	 0.11265
H	-0.4042661256	 2.1007359675	-0.8651953604	 0.108977
H	-0.2194494695	 2.1589270894	 0.894860439	 0.111967
H	-1.1012126843	-0.0517191685	 0.1847482111	 0.085768
H	-0.3910756335	-0.250470409	-2.0398176848	 0.091794
H	 1.3087422381	-0.0549783959	-1.6577431364	 0.09026
H	 0.614533846	-2.4396422447	-2.2486806453	 0.09044
H	 1.5383292198	-2.2433405082	-0.775286663	 0.101513
H	-1.4686177807	-2.8519278054	-0.9251267143	 0.075169
H	-0.7605390433	-4.7612809094	 0.5618209613	 0.105761
H	 0.9601957023	-4.1637900479	 0.496206453	 0.109421
H	-1.511026108	-2.6147592604	 1.5397664975	 0.088987
H	 0.9845553121	-2.0275106461	 2.5892941768	 0.082004
H	 1.426686314	 0.1863129543	 1.7395595372	 0.077454
107.077	198.2736	230.6035	245.2148	299.4824	304.7844	344.8241	390.5799	424.1862	552.2169	572.0652	687.1008	737.5439	765.8947	814.7771	828.1395	848.341	870.5758	916.4965	951.8998	987.0767	999.0135	1010.304	1035.472	1058.2165	1076.8687	1105.6884	1114.5439	1131.3306	1147.2396	1165.1005	1214.473	1230.8232	1254.8716	1269.8137	1327.0853	1328.8529	1356.4632	1359.1628	1382.4816	1406.9408	1418.052	1429.4447	1481.0568	1490.73	1492.8891	1498.5634	1499.4988	1701.3411	3013.06	3014.719	3024.6122	3034.5124	3050.0309	3077.9051	3091.2132	3099.645	3101.3553	3123.7718	3124.7682	3134.9611	3148.4456	3210.0181
CC1CCC2CC2C=C1	C[C@H]1CC[C@H]2C[C@H]2C=C1	
InChI=1S/C9H14/c1-7-2-4-8-6-9(8)5-3-7/h2,4,7-9H,3,5-6H2,1H3	InChI=1S/C9H14/c1-7-2-4-8-6-9(8)5-3-7/h2,4,7-9H,3,5-6H2,1H3/t7-,8-,9+/m1/s1
