17
gdb 99250	4.76535	0.68771	0.62663	2.5046	66.8	-0.2586	-0.0372	0.2214	1712.8909	0.13437	-492.33379	-492.323828	-492.322884	-492.370315	34.829	
N	-0.1741716497	 1.2721542673	 0.3092421496	-0.561219
C	-0.0073824401	-0.0815380417	 0.0731646431	 0.454927
O	 1.0162517904	-0.6827784752	 0.342297517	-0.386215
N	-1.1203041716	-0.6894083618	-0.4823019413	-0.34939
C	-1.1636796066	-2.1305650189	-0.5319450231	-0.246283
C	-2.5066840475	-2.6536300347	-0.0665533212	 0.340851
O	-3.4209180774	-1.9100629986	 0.2286787697	-0.3268
C	-2.7077282245	-4.1579314263	 0.0125660801	-0.126548
O	-4.0163065974	-4.4830442348	 0.3737499275	-0.418133
H	 0.6931604715	 1.7505547402	 0.4973529376	 0.263746
H	-0.8141998495	 1.7802105103	-0.2818374123	 0.253024
H	-2.0228697258	-0.2676022098	-0.3050746745	 0.253616
H	-0.9913813921	-2.5152739134	-1.5492458571	 0.13611
H	-0.3556450192	-2.5399410931	 0.0866442062	 0.168164
H	-2.4442737179	-4.5996524689	-0.9618114048	 0.122109
H	-1.9760070596	-4.5553637388	 0.7368644052	 0.125804
H	-4.454823733	-3.6355350819	 0.5464375182	 0.296241
30.9454	58.5084	88.5005	101.4039	214.1199	257.0025	306.4928	362.0763	378.9017	413.6191	467.508	499.4805	523.5777	573.4423	660.9637	712.3402	774.9059	837.8233	875.2102	989.2814	1058.3655	1089.0281	1104.0359	1151.0637	1201.751	1226.6511	1267.9352	1306.2392	1320.8894	1390.0809	1450.8716	1478.751	1492.3175	1521.6777	1626.5126	1787.2276	1804.4429	2968.9939	2988.4841	3000.528	3061.4492	3575.4491	3582.7863	3697.5429	3702.3813
NC(=O)NCC(=O)CO	NC(=O)NCC(=O)CO	
InChI=1S/C4H8N2O3/c5-4(9)6-1-3(8)2-7/h7H,1-2H2,(H3,5,6,9)	InChI=1S/C4H8N2O3/c5-4(9)6-1-3(8)2-7/h7H,1-2H2,(H3,5,6,9)
