14
gdb 57233	3.09105	0.8234	0.74621	3.334	84.72	-0.2691	-0.0471	0.222	1509.6544	0.097204	-399.495979	-399.486348	-399.485404	-399.530589	34.499	
C	-0.0117775215	 1.5424677094	 0.0636200146	-0.389724
C	 0.0100154526	 0.0047653556	 0.00145023	-0.053558
O	 0.6919882121	-0.4285624488	 1.1698371605	-0.407619
C	-1.3864546335	-0.5137663874	 0.0133640433	 0.279978
N	-2.4657277887	-0.9244100323	 0.047175836	-0.332148
C	 0.6749027521	-0.4696434985	-1.2193710438	 0.582015
C	 1.2508636456	-0.8671134853	-2.2057798422	-0.389157
C	 1.895105416	-1.3122981956	-3.3178175841	 0.307667
C	 2.4681994443	-1.7082103022	-4.3034302987	-0.551554
H	 1.0180579052	 1.9037879677	 0.0557693963	 0.149088
H	-0.5511667607	 1.9533669155	-0.7911196562	 0.148781
H	-0.4998387022	 1.8531750055	 0.9896485799	 0.151241
H	 0.793234104	-1.3871056742	 1.1260149889	 0.300785
H	 2.9698962348	-2.0555042795	-5.1729742643	 0.204206
69.5913	88.4215	178.5162	185.0537	236.2873	241.0579	277.8925	337.0582	369.1675	452.1318	480.4387	508.3951	554.3737	574.2402	604.9372	613.1035	629.0031	657.4309	857.2781	940.1687	1025.0988	1087.2637	1161.9087	1234.5376	1362.1548	1402.4092	1478.9586	1485.2268	2184.3725	2355.4925	2363.6878	3063.4014	3151.7034	3157.2725	3500.793	3798.597
CC(O)(C#N)C#CC#C	C[C@@](O)(C#N)C#CC#C	
InChI=1S/C7H5NO/c1-3-4-5-7(2,9)6-8/h1,9H,2H3	InChI=1S/C7H5NO/c1-3-4-5-7(2,9)6-8/h1,9H,2H3/t7-/m0/s1
