20
gdb 62705	2.83017	1.74827	1.54152	0.4861	77.2	-0.2275	0.0829	0.3103	969.8537	0.171435	-403.106534	-403.0986	-403.097656	-403.138508	31.734	
C	-0.2945463457	 1.6078298887	 0.0064181179	-0.45452
C	-0.0194278002	 0.110746941	-0.0109072012	 0.305413
C	-1.3280160355	-0.6783198781	 0.0062683417	-0.422131
C	 0.9884456221	-0.4825098431	-1.0423639294	 0.044134
O	 1.9963117461	 0.4510841771	-1.4060878251	-0.265534
C	 2.74604741	 0.7515856058	-0.22314699	-0.117809
C	 2.2805204824	-0.2513577888	 0.8152442643	-0.054564
C	 1.5392196593	-1.3190495395	 0.1323097549	-0.071172
N	 0.8307770415	-0.4353436407	 1.1321703929	-0.183804
H	 0.5924433455	 2.2074809629	-0.1941822451	 0.127343
H	-1.0435569956	 1.8671063737	-0.7490669808	 0.11703
H	-0.6927189236	 1.8931620062	 0.9864064924	 0.123546
H	-1.9419290951	-0.4196177596	-0.862682241	 0.112297
H	-1.1456274787	-1.7569114343	-0.0100113198	 0.11571
H	-1.8969827779	-0.4501715676	 0.9126125542	 0.125484
H	 0.6027679841	-0.9517182791	-1.9476078306	 0.080038
H	 3.8157848662	 0.6139676932	-0.429885899	 0.10989
H	 2.593157739	 1.7944245612	 0.0789073825	 0.108586
H	 2.9196907011	-0.4634708571	 1.6652339084	 0.103674
H	 1.6552055049	-2.3896690221	 0.2427114427	 0.096389
101.5967	199.9184	228.7262	242.354	289.7735	336.6207	370.3394	474.8365	525.9596	610.0695	689.6294	750.6949	772.4667	807.3309	852.8955	872.9874	916.1086	942.2761	947.6089	962.513	993.3141	1006.4808	1036.458	1046.5704	1076.3993	1110.1004	1166.745	1177.9352	1216.1478	1234.3094	1243.3396	1263.6131	1288.4948	1325.9433	1360.0932	1398.3586	1404.9857	1416.2416	1477.854	1478.7745	1497.4713	1503.9345	1529.1325	3014.616	3034.889	3042.4805	3047.2071	3099.0365	3108.7681	3111.7428	3117.1445	3155.7803	3177.4615	3194.7206
CC1(C)C2OCC3C2N13	CC1(C)[C@H]2OC[C@@H]3[C@H]2N13	
InChI=1S/C7H11NO/c1-7(2)6-5-4(3-9-6)8(5)7/h4-6H,3H2,1-2H3	InChI=1S/C7H11NO/c1-7(2)6-5-4(3-9-6)8(5)7/h4-6H,3H2,1-2H3/t4-,5-,6+,8?/m1/s1
