20
gdb 23391	2.81761	1.33129	1.24629	1.1378	81.96	-0.2354	0.0184	0.2538	1120.2587	0.173463	-403.106723	-403.098838	-403.097894	-403.13895	31.531	
O	-0.1736655785	 1.3235268211	 0.0558781811	-0.402916
N	-0.0081436656	-0.083450798	 0.0392870399	-0.296052
C	-1.1294374459	-0.6682001558	 0.0373934943	 0.476015
C	-2.5954031856	-0.2912938122	-0.0425734803	-0.110191
C	-2.7649067672	-1.6485529662	-0.8085096968	-0.246099
C	-1.4840496274	-2.1352702669	-0.0460766847	-0.102972
C	-1.8560097139	-2.6159086416	 1.37782563	-0.208597
C	-3.0872352619	-1.844916137	 1.9162306462	-0.201464
C	-3.187160621	-0.3933229402	 1.3839185076	-0.20958
H	 0.7388932366	 1.6294741631	 0.0267596701	 0.302944
H	-2.8583482671	 0.6418912391	-0.541409958	 0.087184
H	-3.6910898875	-2.2083762256	-0.6601947374	 0.096789
H	-2.5746952393	-1.5314721082	-1.8770323667	 0.10894
H	-0.7884888579	-2.8109411967	-0.5466530584	 0.078973
H	-2.0731005421	-3.6900155067	 1.3660277001	 0.096287
H	-0.9859604097	-2.4761928418	 2.0287007068	 0.11265
H	-3.9900807903	-2.3849219222	 1.6140453694	 0.10584
H	-3.0912719633	-1.8502838395	 3.0103631436	 0.098657
H	-2.6496977859	 0.305720226	 2.0335903326	 0.116759
H	-4.2360891568	-0.0762498706	 1.3785734007	 0.09683
96.578	172.7333	214.2738	264.3101	315.4234	388.161	402.4364	466.3362	516.2842	575.5563	670.3632	752.3556	789.5875	809.7751	818.3314	877.6653	895.1015	920.0318	928.1043	955.2537	1042.6339	1046.8065	1077.7764	1085.2377	1101.335	1106.977	1172.6856	1194.0248	1224.6519	1234.7844	1271.2418	1283.6251	1302.8783	1308.0935	1352.0378	1372.8403	1374.04	1405.9624	1484.6241	1493.8781	1496.2437	1516.2659	1791.3407	3032.6409	3034.7892	3048.0747	3067.1409	3069.1111	3073.9991	3092.5086	3097.7612	3109.0049	3126.7657	3820.841
ON=C1C2CC1CCC2	ON=C1[C@H]2C[C@@H]1CCC2	
InChI=1S/C7H11NO/c9-8-7-5-2-1-3-6(7)4-5/h5-6,9H,1-4H2	InChI=1S/C7H11NO/c9-8-7-5-2-1-3-6(7)4-5/h5-6,9H,1-4H2/t5-,6+
