27
gdb 118052	3.40746	0.70852	0.61682	0.9392	93.9	-0.25	0.0851	0.335	1945.2085	0.249332	-390.691542	-390.679316	-390.678372	-390.730167	43.5	
C	 0.1344864897	 1.5455321246	 0.0308926541	-0.389993
C	 0.0062380607	 0.026216217	-0.1294149231	-0.173599
C	-1.4359075885	-0.5161728301	-0.0154552493	 0.049752
C	-2.268741967	-0.0663501539	-1.2290698806	-0.409683
C	-1.4407022507	-2.0573057667	 0.1837537216	 0.008133
C	-0.8219515844	-2.4779655149	 1.5271952224	-0.403874
C	-2.8501069072	-2.6507354208	 0.069550567	-0.069622
O	-2.7757531918	-4.0534817081	 0.2326720475	-0.231786
C	-4.0286183876	-4.6821399865	 0.1337463072	-0.226523
H	 1.1837713658	 1.8533523676	-0.020053486	 0.111299
H	-0.4027325482	 2.0961196111	-0.7471329858	 0.11687
H	-0.2592607346	 1.8727685255	 0.9999048491	 0.11308
H	 0.4195312621	-0.2780059859	-1.1012125052	 0.090834
H	 0.6381600893	-0.44725551	 0.627738144	 0.096805
H	-1.8875094771	-0.071883968	 0.8853808278	 0.06429
H	-1.9442089511	-0.5830151274	-2.1405915226	 0.112765
H	-3.3365825308	-0.2588968592	-1.0971956088	 0.115131
H	-2.1602635524	 1.0074855473	-1.403770964	 0.111577
H	-0.8470737299	-2.5050475801	-0.6269622889	 0.075104
H	-0.9138609425	-3.5573543863	 1.659032196	 0.134353
H	 0.2366256203	-2.2183184177	 1.5979546574	 0.111607
H	-1.3428836595	-1.991653107	 2.3615924923	 0.104233
H	-3.5108595773	-2.2120909566	 0.8405753226	 0.077509
H	-3.2976688267	-2.4235001592	-0.9088383439	 0.085195
H	-4.4981260582	-4.5094782721	-0.8484130072	 0.100759
H	-3.8696699168	-5.7556978684	 0.2637088467	 0.124471
H	-4.7273173059	-4.330387014	 0.9101131198	 0.101312
28.9655	55.158	89.4479	94.7469	143.6328	194.2208	219.8672	230.3345	253.6783	264.2774	309.3825	328.7992	366.7137	376.6475	449.0317	485.1006	548.3901	768.1622	815.3742	859.5287	926.8745	930.2157	969.4354	986.0008	997.3244	1005.7798	1044.6086	1086.3011	1146.9783	1154.4158	1173.4683	1180.2465	1187.8249	1196.7464	1228.6653	1264.9261	1291.1589	1308.2125	1342.9679	1357.5943	1373.9831	1384.9107	1403.5993	1408.6369	1416.1822	1427.5065	1479.5649	1481.9057	1485.1428	1495.1736	1495.9245	1499.7639	1504.2704	1506.5495	1510.8984	1515.1871	1532.5648	2933.4787	2964.7748	2980.3233	2998.8704	3005.7101	3012.1549	3018.234	3031.9847	3032.992	3034.1415	3073.9497	3097.0627	3100.1114	3105.1583	3109.4066	3109.8353	3115.3536	3137.7938
CCC(C)C(C)COC	CC[C@@H](C)[C@@H](C)COC	
InChI=1S/C8H18O/c1-5-7(2)8(3)6-9-4/h7-8H,5-6H2,1-4H3	InChI=1S/C8H18O/c1-5-7(2)8(3)6-9-4/h7-8H,5-6H2,1-4H3/t7-,8+/m1/s1
