13
gdb 42382	3.59533	1.03516	0.80374	4.8281	77.37	-0.264	-0.0729	0.1911	1308.4875	0.088564	-411.764391	-411.755526	-411.754582	-411.79951	31.037	
N	-0.6261247535	-0.2855356821	-1.5910672726	-0.48588
C	-0.1853636583	-0.3581157594	-0.3980646317	 0.24207
N	-1.0213257981	-0.1759221784	 0.6997021877	-0.356244
C	-2.3750073398	 0.0962241085	 0.7365113885	 0.332944
N	-2.9368450952	 0.2234511642	 1.8778994521	-0.507946
C	-3.1205677569	 0.2303143266	-0.4994597368	 0.274486
N	-3.8915259364	 0.3743930615	-1.3494318182	-0.340287
C	 1.1782395806	-0.6266651153	-0.0246204796	 0.268701
C	 2.3245709297	-0.8528228812	 0.2593891284	-0.426837
H	 0.1175367232	-0.4435531759	-2.2658418074	 0.243318
H	-0.6098287791	-0.2467053035	 1.6189820291	 0.279877
H	-3.9296987918	 0.4214824106	 1.7763716743	 0.25282
H	 3.3402814957	-1.0533037457	 0.5010568663	 0.222977
18.8183	95.2702	120.9006	185.2515	255.2322	277.5396	324.1124	409.4631	467.3318	587.2882	597.3838	658.5733	668.2385	680.695	715.6343	729.3149	795.8726	836.3047	862.9559	962.1696	1092.6566	1175.2297	1296.6962	1415.4028	1516.4602	1670.8882	1695.2734	2232.4258	2347.5912	3493.8642	3529.2977	3536.1039	3624.9141
N=C(NC(=N)C#N)C#C	N=C(NC(=N)C#N)C#C	
InChI=1S/C5H4N4/c1-2-4(7)9-5(8)3-6/h1H,(H3,7,8,9)	InChI=1S/C5H4N4/c1-2-4(7)9-5(8)3-6/h1H,(H3,7,8,9)
