16
gdb 28219	4.89163	1.21833	0.99363	1.8316	72.46	-0.2244	0.0019	0.2262	1157.9166	0.125637	-437.907775	-437.900091	-437.899147	-437.94041	27.746	
C	 0.0204617483	 1.4321695793	 0.091609441	-0.493768
C	 0.0025676116	-0.0442724316	-0.0630764089	 0.34203
N	-0.0740451222	-0.7447093062	-1.1570394223	-0.376924
C	-0.0506084309	-2.0535995272	-0.7046129196	 0.20486
C	 0.0384261986	-2.0716105333	 0.6303416005	 0.249827
C	 0.0691682253	-3.4462245093	 1.1908609714	-0.174809
O	-0.0143035198	-4.2450355097	-0.005391312	-0.287286
C	-0.0916895945	-3.4536994474	-1.2169064586	-0.17678
O	 0.0758863867	-0.7966259706	 1.0925328958	-0.220958
H	 0.940362956	 1.7674688528	 0.5818790661	 0.147675
H	-0.0435796861	 1.8890278558	-0.8961039491	 0.160227
H	-0.8221680994	 1.7763764146	 0.7002973627	 0.147672
H	 0.9946999853	-3.6892307142	 1.7327557929	 0.119535
H	-0.7786339369	-3.6807267512	 1.8508384821	 0.119512
H	-1.0188287207	-3.7045452385	-1.7496886022	 0.11958
H	 0.7536184688	-3.7130978734	-1.86845283	 0.119606
94.8988	118.5593	134.5769	253.672	269.5889	278.8265	480.7033	530.4318	656.8066	690.6417	726.289	745.8186	871.6908	876.196	931.2136	1021.2455	1025.0263	1048.5268	1063.1493	1072.632	1137.9073	1148.4414	1206.2877	1240.0334	1310.7497	1321.4271	1403.9925	1422.4146	1439.313	1473.9191	1481.4281	1521.297	1529.9863	1602.5559	1680.6373	2989.1889	3005.5999	3011.3203	3031.7962	3043.6831	3097.6202	3158.3396
CC1=NC2=C(COC2)O1	Cc1nc2c(COC2)o1	
InChI=1S/C6H7NO2/c1-4-7-5-2-8-3-6(5)9-4/h2-3H2,1H3	InChI=1S/C6H7NO2/c1-4-7-5-2-8-3-6(5)9-4/h2-3H2,1H3
