27
gdb 109583	2.38646	1.15465	0.9571	0.099	95.23	-0.2687	0.0691	0.3378	1441.9877	0.251257	-353.560387	-353.549444	-353.5485	-353.595521	41.823	
C	 0.9632943446	 0.7791387678	 0.4241352635	-0.384666
C	 0.7955407243	-0.7131826855	 0.1119927927	-0.198454
C	 1.3877787849	-1.1114173946	-1.2369731202	 0.043872
C	 2.9393952537	-1.2186110377	-1.4431867247	-0.015342
C	 3.7899698683	-1.4686129807	-0.1978980552	-0.409105
C	 2.6714839093	-2.4576090849	-2.3631949471	 0.03492
C	 3.61218447	-3.6560038018	-2.3428438967	-0.416645
C	 1.2243141095	-2.5711805243	-1.7779105358	-0.033728
C	 0.9836557965	-3.6694664363	-0.7418814272	-0.402946
H	 2.0190065153	 1.0691748452	 0.4487930127	 0.118338
H	 0.4725265793	 1.3970778205	-0.3362911147	 0.112009
H	 0.5264715616	 1.0358264279	 1.3945315816	 0.108693
H	 1.2413343151	-1.3077017708	 0.9176933752	 0.092919
H	-0.2747022645	-0.9599424028	 0.1140196563	 0.091084
H	 0.9912539257	-0.4227934241	-1.9937413986	 0.061656
H	 3.3709621496	-0.3656467095	-1.9780172425	 0.058162
H	 3.4276306221	-2.3024180527	 0.4098553506	 0.117208
H	 4.8246420383	-1.6956459754	-0.4772072087	 0.111931
H	 3.8134419581	-0.5827148798	 0.4453954275	 0.114065
H	 2.5932069246	-2.1035027852	-3.3974802111	 0.065969
H	 3.7450361129	-4.0701618551	-1.3390505904	 0.113431
H	 3.2324407803	-4.460635359	-2.9827868044	 0.110443
H	 4.603989212	-3.3807220114	-2.7192034732	 0.110342
H	 0.4498746372	-2.6645901479	-2.5475466416	 0.057375
H	 1.7085408084	-3.655571566	 0.0768571454	 0.115731
H	-0.0122934325	-3.5710259949	-0.2967544502	 0.111973
H	 1.0363111456	-4.659197941	-1.2082523533	 0.110766
92.358	113.3542	155.7907	207.2523	216.6169	235.3582	236.8454	243.0073	259.8627	270.2201	296.2433	416.3287	445.166	485.752	527.8177	715.3202	734.3096	759.5358	799.2828	814.7165	880.0655	952.8962	980.9149	986.9122	1018.2026	1028.2539	1034.9509	1044.9504	1061.0578	1090.7816	1170.7362	1176.6601	1191.2013	1193.9795	1202.9765	1269.6541	1283.9112	1290.1988	1295.4493	1339.0397	1364.7181	1370.6116	1384.068	1398.874	1407.1952	1410.9959	1416.4944	1423.0721	1482.0905	1487.1765	1492.1877	1498.278	1498.3771	1503.1828	1507.7087	1509.6136	1511.0229	3009.9739	3017.3082	3022.241	3027.9689	3029.3401	3029.7927	3033.8038	3035.2342	3047.8618	3057.9995	3085.2011	3091.9161	3092.5072	3097.0571	3100.8354	3104.301	3105.1181	3117.163
CCC1C(C)C(C)C1C	CC[C@H]1[C@@H](C)[C@@H](C)[C@H]1C	
InChI=1S/C9H18/c1-5-9-7(3)6(2)8(9)4/h6-9H,5H2,1-4H3	InChI=1S/C9H18/c1-5-9-7(3)6(2)8(9)4/h6-9H,5H2,1-4H3/t6-,7+,8-,9+
