16
gdb 54232	2.33256	1.51852	1.29855	1.5564	64.59	-0.2602	-0.0098	0.2503	1035.9103	0.123773	-475.086693	-475.077865	-475.07692	-475.120466	31.907	
C	-0.1027129916	 1.572083174	-0.1537141155	-0.454488
C	-0.0243156232	 0.044903239	-0.0539781855	-0.002569
C	 0.8732796516	-0.6733597691	-1.0790635327	-0.115199
O	 1.7791573049	-1.0917314216	 0.0068223153	-0.243157
C	 1.0004512825	-0.493291414	 0.9492417326	 0.448915
O	 1.1370178247	-0.4882877448	 2.1354360572	-0.35158
C	-1.4305615776	-0.5509450295	 0.0974961928	 0.353234
N	-1.8542997787	-0.6341302319	 1.3855700348	-0.525401
O	-2.0953504727	-0.8608837357	-0.870450997	-0.366559
H	 0.8900519011	 2.0064245255	-0.3033477358	 0.133089
H	-0.7403303483	 1.8543395853	-0.9962380456	 0.149828
H	-0.5291087681	 1.9947651831	 0.759686022	 0.14421
H	 0.4290905801	-1.5372646104	-1.5723987779	 0.151352
H	 1.4004001565	-0.0353669171	-1.7897353028	 0.128448
H	-1.2054364205	-0.5189667837	 2.1501585075	 0.282941
H	-2.7564967908	-1.0456919591	 1.5633016506	 0.266935
58.5701	127.7128	159.4326	212.1921	226.9079	234.6951	326.5588	394.2771	412.0723	465.9025	606.7567	624.7486	664.1513	726.6421	784.5996	792.389	885.5781	918.8236	961.2225	987.8585	1110.4234	1133.9303	1146.6916	1183.5691	1195.8098	1223.2895	1347.0518	1353.0419	1410.1074	1487.8471	1497.0064	1517.0971	1629.2436	1803.3461	1907.0245	3043.3162	3090.0407	3118.6916	3127.2966	3162.1828	3566.3695	3705.7962
CC1(COC1=O)C(N)=O	C[C@]1(COC1=O)C(=O)N	
InChI=1S/C5H7NO3/c1-5(3(6)7)2-9-4(5)8/h2H2,1H3,(H2,6,7)	InChI=1S/C5H7NO3/c1-5(3(6)7)2-9-4(5)8/h2H2,1H3,(H2,6,7)/t5-/m0/s1
