22
gdb 73123	2.35658	1.75261	1.52228	1.5279	83.85	-0.2229	0.0807	0.3036	1029.1179	0.196525	-367.186557	-367.178749	-367.177805	-367.218256	32.345	
C	 0.2619354737	 1.5098689437	-0.1374552777	-0.483874
C	-0.0705844574	 0.0302826935	 0.0123889929	 0.355384
C	-1.4605507432	-0.305975896	 0.6464375891	-0.272819
C	-0.7653620588	-1.2339160553	 1.6830952452	-0.239724
C	 0.6292828438	-0.7633214457	 1.1708017398	-0.047493
C	 1.6029546599	-1.7552523904	 0.503323227	-0.188591
N	 1.3626374166	-1.7615721366	-0.9572955162	-0.097448
C	 0.0153832607	-2.2062654916	-1.3341616441	-0.267133
C	 0.3127623035	-0.7540337867	-1.2401326591	-0.0756
H	 1.3099238411	 1.6539249904	-0.4244723043	 0.12029
H	-0.3612990133	 1.9794039965	-0.90789801	 0.115747
H	 0.0923767412	 2.0488156997	 0.8004230399	 0.109822
H	-1.9327318192	 0.5667585588	 1.1058048818	 0.096201
H	-2.1873151267	-0.7741877096	-0.0212809224	 0.0988
H	-0.9739169396	-0.9976428672	 2.7293324417	 0.097007
H	-0.9572006998	-2.3011997029	 1.541663203	 0.100651
H	 1.1451706927	-0.1298003931	 1.8969814827	 0.068361
H	 2.6384229641	-1.4327913	 0.6566833089	 0.104875
H	 1.5168937926	-2.7722583256	 0.9030293224	 0.102294
H	-0.0500508541	-2.6817476882	-2.3095720264	 0.111576
H	-0.6170864025	-2.6621195412	-0.5777916618	 0.109727
H	 0.4405089445	-0.1856455425	-2.1587959925	 0.081947
134.2872	222.0727	227.0193	250.2063	324.171	355.8232	387.0172	471.4651	564.2203	637.3371	680.8519	735.4254	772.2752	783.0337	844.6579	863.5235	880.0842	918.2279	941.9318	970.1848	993.189	1016.2682	1026.5871	1059.3334	1101.0622	1112.2796	1133.1903	1146.7389	1166.7046	1175.7434	1223.4616	1229.2283	1242.8382	1257.4384	1271.1264	1276.2908	1288.5577	1329.1569	1345.126	1393.1019	1412.8987	1478.892	1492.5472	1495.1171	1497.1371	1499.7874	1515.3846	3020.8566	3033.6078	3053.5752	3058.4518	3063.7182	3075.6843	3085.7341	3094.9418	3097.0198	3107.0889	3114.8246	3127.0276	3188.9856
CC12CCC1CN1CC21	C[C@]12CC[C@H]1CN1C[C@@H]21	
InChI=1S/C8H13N/c1-8-3-2-6(8)4-9-5-7(8)9/h6-7H,2-5H2,1H3	InChI=1S/C8H13N/c1-8-3-2-6(8)4-9-5-7(8)9/h6-7H,2-5H2,1H3/t6-,7-,8-,9?/m0/s1
