19
gdb 121313	3.03431	0.98274	0.81214	2.9048	71.84	-0.2715	0.0028	0.2743	1448.3697	0.158885	-460.2079	-460.198729	-460.197785	-460.242939	32.315	
C	-0.1968073507	 1.5139707307	-0.0673586186	-0.385118
C	 0.0059540321	-0.001493681	 0.0006022458	-0.173968
C	 0.7173567572	-0.5605895081	-1.2354075069	-0.183732
C	 0.8932739487	-2.0818769388	-1.1794742448	-0.061794
O	-0.3390233888	-2.7977563431	-1.1764213621	-0.256623
C	-0.5348102477	-3.3147106713	-2.4699997551	 0.027162
O	 0.7376399592	-3.3800007241	-3.1062138501	-0.218229
C	 1.6222630341	-2.6171083192	-2.4080757945	 0.427541
O	 2.7493056865	-2.4251241001	-2.7527464499	-0.335847
H	 0.7604005378	 2.0398076592	-0.1538164434	 0.118362
H	-0.8067439261	 1.7941836743	-0.933314227	 0.116443
H	-0.7020412761	 1.8859537678	 0.8290422241	 0.116855
H	 0.5892616538	-0.2566901669	 0.8952129918	 0.099444
H	-0.961198511	-0.5048128647	 0.110532842	 0.114631
H	 0.1580517549	-0.2954749889	-2.1426217236	 0.101182
H	 1.7152288925	-0.1181054093	-1.3420021014	 0.125446
H	 1.4492086399	-2.3621558549	-0.2777004195	 0.121165
H	-0.9509418152	-4.323837813	-2.3984918985	 0.133709
H	-1.1935251513	-2.6734369487	-3.0745157183	 0.113371
59.4358	92.8361	109.8484	130.809	169.3879	247.7399	274.308	321.9414	427.4978	540.9614	664.7568	704.9674	749.2899	752.7411	844.3532	887.4298	927.1546	950.5436	1013.2026	1042.1973	1064.158	1111.0101	1119.3008	1147.0236	1150.7764	1217.6542	1226.9913	1261.6771	1265.6371	1326.5138	1335.1482	1371.24	1397.378	1415.3371	1444.9623	1475.2428	1493.5525	1500.2788	1510.0295	1550.1478	1897.681	2992.9864	3016.9059	3026.3524	3032.1881	3050.6789	3059.6454	3077.9332	3086.0912	3100.4989	3106.1275
CCCC1OCOC1=O	CCC[C@H]1OCOC1=O	
InChI=1S/C6H10O3/c1-2-3-5-6(7)9-4-8-5/h5H,2-4H2,1H3	InChI=1S/C6H10O3/c1-2-3-5-6(7)9-4-8-5/h5H,2-4H2,1H3/t5-/m1/s1
