16
gdb 96793	3.00122	1.386	1.01296	1.7231	74.03	-0.2493	-0.0235	0.2258	1148.0953	0.125632	-434.083269	-434.075305	-434.074361	-434.116298	29.473	
C	 0.0617006755	 1.4040571618	-0.0093568352	-0.343417
N	 0.0446754924	-0.0496439221	 0.0174883191	-0.321035
C	-1.0693603907	-0.647024968	-0.0207656112	 0.478952
N	-2.3683707838	-0.1193485005	-0.0608963818	-0.3971
C	-3.3860239282	-1.0582022483	 0.0951210413	 0.467189
O	-4.5591721805	-0.8098028968	 0.210366459	-0.3577
C	-2.6961129569	-2.4033254026	 0.1105631489	-0.182476
N	-1.9760598571	-2.6326711136	-1.1678629384	-0.328933
C	-1.2386160805	-2.1347587515	 0.0179616368	-0.14622
H	 1.0412612907	 1.7581661971	 0.320610711	 0.13392
H	-0.0975903218	 1.7820521908	-1.0286925104	 0.12982
H	-0.6976361607	 1.8622019893	 0.6432423349	 0.107593
H	-2.5828437213	 0.8575491622	-0.1829661412	 0.267701
H	-3.1432702115	-3.2254621241	 0.6534755718	 0.123264
H	-1.7998006028	-3.632520915	-1.2553379814	 0.246705
H	-0.4739325128	-2.7398797887	 0.4860885167	 0.121737
66.2985	121.1566	164.3084	212.7801	277.7405	375.1406	441.5466	480.3059	563.899	617.7069	647.647	732.5435	764.1292	856.026	861.5774	883.6564	895.7036	922.4266	1027.6301	1039.6906	1106.5692	1118.5876	1130.6901	1167.0495	1195.4315	1251.955	1338.6884	1351.6987	1368.5367	1392.6845	1435.5899	1489.8836	1511.1833	1786.7003	1858.9346	2979.4247	3040.5526	3105.292	3208.7998	3217.717	3484.7175	3653.2913
CN=C1NC(=O)C2NC12	CN=C1NC(=O)[C@H]2N[C@@H]12	
InChI=1S/C5H7N3O/c1-6-4-2-3(7-2)5(9)8-4/h2-3,7H,1H3,(H,6,8,9)	InChI=1S/C5H7N3O/c1-6-4-2-3(7-2)5(9)8-4/h2-3,7H,1H3,(H,6,8,9)/t2-,3+/m1/s1
