20
gdb 100828	2.52911	0.93482	0.71575	2.825	74.46	-0.2601	0.0227	0.2828	1564.3312	0.168078	-477.412525	-477.401749	-477.400805	-477.449174	37.863	
C	 0.0134865502	 1.570455606	-0.0479082808	-0.402528
C	 0.039181223	 0.0471506278	-0.0394299639	 0.106613
O	 0.725589755	-0.4574634184	-1.197237259	-0.197154
C	 0.0057419343	-0.6049839493	-2.3243957335	 0.128761
N	 0.5701520306	-0.9627948584	-3.3954854991	-0.446069
C	 0.7760465805	-0.5164052924	 1.1770102093	 0.128018
O	 0.0735842762	-0.0688520769	 2.3222692886	-0.450829
C	 0.8468175991	-2.0423170707	 1.1720650408	-0.114585
O	 1.3965097553	-2.4010331731	 2.4386385117	-0.435231
H	 1.0321159709	 1.9636311651	-0.1189115203	 0.131407
H	-0.5603938411	 1.9466284597	-0.9001129908	 0.113992
H	-0.4425081719	 1.9356046751	 0.87470014	 0.148691
H	-0.9871033884	-0.3469523617	-0.0256944906	 0.087093
H	-1.0658872031	-0.4004637826	-2.1890712386	 0.086083
H	-0.1202664079	-1.0448484788	-4.1388460427	 0.228011
H	 1.8076758046	-0.1269367302	 1.1753453811	 0.084756
H	 0.3792104772	-0.6321439195	 3.0449406186	 0.295462
H	-0.1666734321	-2.4552695717	 1.0527253395	 0.088749
H	 1.4721161622	-2.3931184222	 0.3431563863	 0.122138
H	 1.3253146152	-3.352913988	 2.5485240035	 0.296622
51.7765	72.2612	103.1026	123.3466	166.2083	216.9735	233.3468	236.3203	307.6529	343.7313	381.8218	430.631	459.4558	490.4121	577.7469	650.9571	818.7166	872.0757	903.7608	962.0729	1017.4656	1042.9147	1064.8516	1083.6897	1120.1092	1128.2329	1138.628	1161.8214	1238.8741	1254.6754	1276.2299	1303.7931	1345.626	1362.3822	1377.0722	1404.3118	1421.9998	1438.0915	1463.7247	1489.2132	1496.4	1514.0286	1743.2396	2969.7959	2988.4316	3006.8698	3019.1727	3045.7229	3064.2857	3115.8008	3141.1276	3517.7843	3773.3343	3845.5816
CC(OC=N)C(O)CO	C[C@@H](O[CH][NH])[C@@H](O)CO	
InChI=1S/C5H11NO3/c1-4(9-3-6)5(8)2-7/h3-8H,2H2,1H3	InChI=1S/C5H11NO3/c1-4(9-3-6)5(8)2-7/h3-8H,2H2,1H3/t4-,5+/m1/s1
