19
gdb 82990	3.71741	1.56581	1.46124	2.5052	73.42	-0.2427	0.0877	0.3304	965.423	0.162129	-423.015652	-423.008849	-423.007905	-423.046533	28.145	
C	-0.1444538155	 1.5948754404	-0.0197922488	-0.431512
C	 0.0312002015	 0.0862012128	 0.0186321448	 0.025033
C	 1.1937249911	-0.5876327847	-0.7583935923	 0.062276
O	 2.3529044766	 0.1189079523	-0.2662665502	-0.283832
C	 2.2203097609	-0.1417872604	 1.1425521472	 0.21082
O	 3.0018555677	-1.2587276214	 1.477919075	-0.254891
C	 2.4436296767	-2.3414577158	 0.7069040842	-0.112032
C	 1.0977016848	-1.7923392797	 0.2358611544	-0.074699
C	 0.7459291703	-0.6160438512	 1.2050863885	-0.121178
H	 0.8182303532	 2.1042983003	 0.0676255733	 0.133507
H	-0.6076297487	 1.9109547997	-0.9608100719	 0.11525
H	-0.7916141732	 1.9345549174	 0.7960617104	 0.114543
H	-0.9131390954	-0.4275996773	-0.1909808265	 0.074536
H	 1.2449245036	-0.6814982505	-1.84263978	 0.077618
H	 2.5553701627	 0.7113056377	 1.7299969097	 0.090952
H	 3.1121647079	-2.5915954765	-0.1256020633	 0.10953
H	 2.342602205	-3.2194882558	 1.3538602241	 0.106267
H	 0.3104933671	-2.515365676	 0.029826261	 0.082874
H	 0.3098426138	-0.7556155115	 2.1930215204	 0.074938
189.0546	209.0776	227.6631	278.1274	438.8745	486.0308	566.8458	634.0948	710.1856	753.3854	777.6531	825.7935	869.3341	877.4578	922.1597	926.4322	949.7841	963.6368	986.9935	1028.2591	1036.1811	1063.1578	1082.7915	1106.8687	1110.8195	1137.4271	1170.4844	1201.8312	1226.5714	1239.8607	1250.3057	1286.3047	1307.0894	1322.1196	1350.8996	1386.9583	1396.3494	1411.7489	1491.8388	1504.9428	1516.9146	3027.7285	3034.9686	3052.763	3069.6345	3093.7628	3124.5334	3126.6892	3129.4704	3138.2754	3146.1425
CC1C2OC3OCC2C13	C[C@H]1[C@H]2O[C@@H]3OC[C@H]2[C@H]13	
InChI=1S/C7H10O2/c1-3-5-4-2-8-7(5)9-6(3)4/h3-7H,2H2,1H3	InChI=1S/C7H10O2/c1-3-5-4-2-8-7(5)9-6(3)4/h3-7H,2H2,1H3/t3-,4+,5+,6-,7+/m1/s1
