18
gdb 17541	4.27271	1.80512	1.68553	1.8236	70.54	-0.2565	0.0806	0.3372	844.1032	0.155513	-347.786904	-347.780281	-347.779337	-347.817392	26.964	
C	 0.0016076734	 1.4936394669	 0.0065036021	-0.28999
C	 1.3225124719	 0.7631431198	-0.0045300726	-0.031702
C	 2.0092698267	 0.5584258909	 1.3386467975	-0.285693
C	 0.901505121	 0.016704941	 2.2401957235	 0.408062
C	 1.057358979	-0.2253417674	 3.6749236557	-0.257094
O	 0.3612187552	 0.9337054881	 3.2084138153	-0.272058
C	-0.1107869799	-0.7082255511	 1.3552478554	-0.285695
C	 0.0188430094	-0.0157448034	 0.0056793547	-0.031702
H	-0.3004041354	 2.0109972182	 0.9114999125	 0.135154
H	-0.2995885684	 1.9857383943	-0.9117810298	 0.106538
H	 1.9349679053	 0.8127904514	-0.8975803013	 0.079653
H	 2.8135736861	-0.1815163041	 1.2389082021	 0.101419
H	 2.4399227414	 1.4686465178	 1.766990208	 0.112139
H	 0.4395000264	-0.9755770369	 4.1683304553	 0.108879
H	 2.016426498	-0.0334257462	 4.1559753421	 0.108879
H	 0.1585226158	-1.7678056497	 1.2596988498	 0.101419
H	-1.1113873215	-0.6531223965	 1.79479768	 0.112139
H	-0.3253758943	-0.5376676031	-0.8798799502	 0.079653
115.1263	260.2674	308.0649	377.7032	397.0224	409.3855	539.904	629.3563	765.1844	775.5812	823.0673	828.677	866.6339	870.7404	924.1502	933.7546	983.7427	1024.0933	1044.3774	1049.8997	1084.5253	1106.1949	1116.7129	1126.994	1162.3521	1180.4389	1201.5382	1230.9378	1236.8713	1287.7946	1302.2997	1349.6262	1390.335	1430.5769	1471.7685	1479.9287	1492.8729	1535.0394	3025.7261	3030.0612	3073.347	3084.6446	3085.6182	3131.4378	3155.7643	3167.5981	3176.3092	3218.1286
C1C2CC3(CO3)CC12	C1[C@H]2C[C@]3(CO3)C[C@@H]12	
InChI=1S/C7H10O/c1-5-2-7(4-8-7)3-6(1)5/h5-6H,1-4H2	InChI=1S/C7H10O/c1-5-2-7(4-8-7)3-6(1)5/h5-6H,1-4H2/t5-,6+,7+
