18
gdb 97040	3.0117	1.26474	0.92869	1.1844	75.47	-0.2483	-0.0382	0.2101	1253.1988	0.145936	-439.12173	-439.112345	-439.111401	-439.15684	32.889	
C	 0.0740517832	 1.4342359178	 0.0328672557	-0.331579
N	 0.1030700667	-0.0200913833	 0.0046405714	-0.313352
C	 0.6291680627	-0.6176298679	-0.9667542471	 0.435416
O	 1.1908968588	 0.0121105925	-2.0605444818	-0.255279
C	 1.8797563465	-0.9063973946	-2.9036964084	-0.196166
C	 1.7186649796	-2.2848639316	-2.2621941306	 0.377555
O	 2.2823109687	-3.2876906227	-2.6083333318	-0.300669
C	 0.7301668437	-2.1198285475	-1.1162021036	-0.242489
C	 1.0875159402	-2.8887518301	 0.1553464345	-0.389115
H	 0.8314107729	 1.9064406474	-0.6028706201	 0.12331
H	-0.9120169565	 1.7884487749	-0.2922341444	 0.128169
H	 0.2110818703	 1.7698700847	 1.0650684502	 0.124719
H	 1.4447404459	-0.8919684567	-3.9102277265	 0.145026
H	 2.9379155466	-0.6329511212	-2.9798256094	 0.14696
H	-0.2366162915	-2.4833448319	-1.4981542552	 0.140329
H	 2.0483201637	-2.5530377445	 0.5551778695	 0.126699
H	 0.325397989	-2.7188520866	 0.9177453966	 0.145179
H	 1.1593264794	-3.9568600788	-0.0624343889	 0.135286
49.2345	66.6369	137.9504	167.2728	183.692	209.4758	238.8026	332.4348	414.6968	499.4764	572.9074	606.9125	659.2295	705.3928	758.4998	818.8522	927.7469	1008.0201	1039.6323	1064.4103	1084.6986	1102.4645	1127.4653	1132.9031	1178.7454	1208.56	1219.1871	1256.1926	1315.6193	1353.1936	1406.0868	1439.3794	1483.2307	1490.5495	1491.0072	1498.1128	1499.7457	1804.0753	1868.5768	2997.8864	3018.196	3035.7469	3055.3528	3076.7328	3080.2577	3098.6266	3128.0913	3146.4836
CN=C1OCC(=O)C1C	CN=C1OCC(=O)[C@H]1C	
InChI=1S/C6H9NO2/c1-4-5(8)3-9-6(4)7-2/h4H,3H2,1-2H3	InChI=1S/C6H9NO2/c1-4-5(8)3-9-6(4)7-2/h4H,3H2,1-2H3/t4-/m1/s1
