19
gdb 64533	3.98345	1.20581	1.07226	3.195	80.01	-0.2237	-0.0205	0.2032	1153.0087	0.158662	-385.820717	-385.812723	-385.811779	-385.852949	31.843	
C	-0.2092670832	 1.6516611317	 0.0195140722	-0.51563
C	 0.0347309612	 0.1493744007	 0.0736222976	 0.213073
C	-1.168268499	-0.6542631352	-0.3434212258	 0.14572
O	-2.2283404902	-0.1983092346	-0.689404053	-0.280542
C	 1.2760301015	-0.6558441794	-0.3211518443	-0.109683
C	 2.6570863449	-0.1169698986	 0.1437375074	-0.071001
C	 2.6406809599	 1.142987327	 0.9639329675	-0.306621
C	 2.1741694728	-0.1434069089	 1.586875102	-0.07101
C	 0.7974051471	-0.6820441663	 1.1091690677	-0.109646
H	 0.4587887414	 2.1533457124	-0.6840401419	 0.130499
H	-1.2358259269	 1.8104628137	-0.3210005705	 0.146492
H	-0.1044837392	 2.1225285506	 0.9994521725	 0.130507
H	-1.007474356	-1.7562242495	-0.3099791012	 0.075
H	 1.2069460264	-1.4416002279	-1.0645298078	 0.095645
H	 3.5735370449	-0.5267114065	-0.2601696598	 0.097644
H	 3.6321787395	 1.434407252	 1.3010653097	 0.115686
H	 1.9943341502	 1.9823443434	 0.7630076972	 0.120564
H	 2.6675848157	-0.5762966817	 2.4471423222	 0.097646
H	 0.3035774789	-1.4910243129	 1.6349752183	 0.095658
102.316	145.2749	229.9371	272.1171	334.2336	346.1815	358.9306	471.3056	476.2853	637.9341	680.5865	722.0709	741.9859	765.682	851.6893	859.8481	868.19	920.5316	973.8299	988.6265	1015.4915	1034.3508	1041.5635	1051.4463	1057.555	1086.6882	1088.7853	1105.2123	1150.6991	1201.616	1264.1639	1280.5948	1294.373	1322.7169	1396.3892	1409.3483	1445.164	1488.6917	1514.3796	1514.9993	1823.1171	2868.6248	3050.7662	3121.7826	3125.9012	3140.4706	3167.3449	3175.6105	3192.6639	3202.9258	3263.6391
CC1(C=O)C2C3CC3C12	C[C@@]1(C=O)[C@H]2[C@H]3C[C@H]3[C@@H]12	
InChI=1S/C8H10O/c1-8(3-9)6-4-2-5(4)7(6)8/h3-7H,2H2,1H3	InChI=1S/C8H10O/c1-8(3-9)6-4-2-5(4)7(6)8/h3-7H,2H2,1H3/t4-,5+,6-,7+,8+
