16
gdb 12899	3.34934	1.81596	1.50087	2.1259	71.38	-0.2303	0.0478	0.2781	894.3025	0.12876	-346.52595	-346.518232	-346.517288	-346.557644	29.217	
C	-0.0020480253	 1.567440369	 0.0007745648	-0.500082
C	 0.0002573364	 0.0692201962	 0.0529096967	 0.244467
C	-1.2341058042	-0.8342899506	 0.0794022081	-0.138076
O	-0.5750454175	-1.7751909983	 0.9736583394	-0.280784
C	 0.5703618956	-0.9386974061	 1.0170767977	 0.057741
C	 1.2051493451	-0.7908012013	-0.3551627226	-0.307966
C	 1.1553088534	-1.8105756486	-1.3600492683	 0.340098
C	 1.105649708	-2.6585664907	-2.2119757848	-0.44323
H	 0.9821977253	 1.9726055466	 0.2554689808	 0.125782
H	-0.2578121207	 1.9292657057	-1.0019567195	 0.130933
H	-0.7291868625	 1.9868963561	 0.7050294879	 0.125159
H	-2.0926395905	-0.3724289926	 0.5797339839	 0.108562
H	-1.5439234199	-1.300781847	-0.8613026293	 0.120653
H	 1.1187195665	-0.8624147683	 1.9500407218	 0.109857
H	 2.1298998578	-0.2173529122	-0.3224122248	 0.112791
H	 1.0686839726	-3.4168795378	-2.9540520317	 0.194095
126.6134	142.2732	193.3787	249.9446	307.4378	361.5025	362.6197	533.1046	577.2351	613.2587	645.6559	655.4362	784.5818	808.9818	896.7512	925.4455	946.1271	990.5769	1008.7108	1043.9749	1064.1248	1101.3275	1128.6733	1166.3624	1237.3953	1263.4947	1291.2726	1348.8242	1416.8502	1462.0378	1486.8788	1497.0871	1507.3432	2234.1334	3024.9922	3033.1628	3085.8799	3089.985	3101.7864	3128.1074	3171.9055	3504.0342
CC12COC1C2C#C	C[C@]12CO[C@H]1[C@H]2C#C	
InChI=1S/C7H8O/c1-3-5-6-7(5,2)4-8-6/h1,5-6H,4H2,2H3	InChI=1S/C7H8O/c1-3-5-6-7(5,2)4-8-6/h1,5-6H,4H2,2H3/t5-,6+,7-/m1/s1
