25
gdb 101845	3.25399	0.68692	0.61979	1.1288	90.43	-0.2477	0.086	0.3337	1937.9291	0.226986	-389.476108	-389.465054	-389.46411	-389.51341	39.869	
C	-0.114725854	 1.4719251906	-0.040872451	-0.232817
O	-0.0682462075	 0.0935674102	 0.2364245211	-0.243756
C	-1.2883256924	-0.6076068695	 0.0109783212	 0.139423
C	-1.5355808798	-0.8470951648	-1.4812956614	-0.402779
C	-1.1941431826	-1.9177221647	 0.7942484826	-0.180111
C	-1.0536602601	-1.7187393849	 2.3084052897	-0.21124
C	-0.9323840045	-3.0214965674	 3.0693056917	 0.035004
C	 0.4108752871	-3.6922642458	 3.2231198773	-0.254569
C	-0.26280631	-3.0628655063	 4.4187313132	-0.277367
H	 0.8441093206	 1.8957113615	 0.2696308355	 0.12424
H	-0.2568103804	 1.6884169768	-1.1100212623	 0.104215
H	-0.919836334	 1.9735542757	 0.5195153355	 0.101124
H	-2.1209857695	-0.0070946504	 0.4196029371	 0.057648
H	-0.7214100663	-1.4404799595	-1.9095305742	 0.121968
H	-2.4752197826	-1.3881835882	-1.631708548	 0.113286
H	-1.6033193388	 0.0924395656	-2.0372620785	 0.113284
H	-2.0878714365	-2.5167329048	 0.5779235926	 0.087696
H	-0.3350499021	-2.4862993722	 0.4164383117	 0.104159
H	-0.1734849134	-1.0956467955	 2.5009363686	 0.107872
H	-1.91997709	-1.1539747034	 2.681826386	 0.085833
H	-1.7787049045	-3.6941039621	 2.9451596373	 0.074485
H	 0.4632300992	-4.7743031055	 3.1710448383	 0.10623
H	 1.2770912722	-3.1866475824	 2.8080373042	 0.111699
H	 0.1535203619	-2.1374476715	 4.8037752839	 0.108138
H	-0.6724973222	-3.7151089819	 5.1823162578	 0.106335
48.0355	63.8083	70.8657	119.8983	147.3746	197.1162	219.9265	263.8479	290.9165	304.891	386.5114	420.6036	487.4955	532.7113	758.1357	777.941	804.4428	827.1114	851.2001	901.7348	934.2702	947.9593	986.5439	1034.1566	1047.9376	1067.1556	1077.6685	1118.8318	1122.8819	1141.5346	1158.2631	1174.0134	1184.9412	1198.8794	1222.4198	1229.4399	1260.9355	1280.61	1325.6013	1357.1221	1383.4769	1397.538	1402.7692	1417.7482	1468.7257	1472.8447	1478.1764	1483.2449	1493.6409	1497.3727	1503.2625	1508.6779	1513.4101	2940.1651	2972.693	3005.6923	3018.8745	3023.1514	3038.9617	3058.0826	3077.1647	3105.3844	3108.9188	3113.1272	3124.6962	3126.4297	3132.3031	3203.8257	3219.1121
COC(C)CCC1CC1	CO[C@@H](C)CCC1CC1	
InChI=1S/C8H16O/c1-7(9-2)3-4-8-5-6-8/h7-8H,3-6H2,1-2H3	InChI=1S/C8H16O/c1-7(9-2)3-4-8-5-6-8/h7-8H,3-6H2,1-2H3/t7-/m0/s1
