15
gdb 5643	3.50147	1.89041	1.34233	4.606	62.36	-0.2131	0.0227	0.2358	906.3867	0.119457	-399.855468	-399.848035	-399.847091	-399.888093	26.753	
C	-0.0129543507	 1.5751102691	 0.123935354	-0.377065
C	-0.0400524662	 0.0556895918	-0.0521714669	-0.160496
N	-1.3797966307	-0.5039705711	 0.0163177082	-0.120664
C	-2.1598130205	-0.7202603777	 1.1527811406	-0.127662
C	-3.3298538542	-1.2129717853	 0.7308244288	-0.036172
O	-3.3239429885	-1.3120632867	-0.6429820501	-0.214657
C	-2.1003291516	-0.862808597	-1.1041163824	 0.490006
O	-1.7792576226	-0.8179326591	-2.2627089964	-0.414954
H	 1.0162710131	 1.9415232317	 0.0633356768	 0.125667
H	-0.5990426622	 2.0634094138	-0.6593899054	 0.143323
H	-0.421708634	 1.8719161113	 1.095018072	 0.120998
H	 0.3495049209	-0.222607634	-1.0344320662	 0.153005
H	 0.5802039819	-0.4341988705	 0.7066250351	 0.116774
H	-1.8015639557	-0.5114820753	 2.1463183541	 0.148478
H	-4.222139079	-1.5307594208	 1.2397073178	 0.15342
38.467	105.1018	211.3265	247.9838	310.3227	383.6422	536.4505	593.5106	645.9233	682.9059	768.8344	778.985	781.6423	796.1351	910.5401	951.8032	1037.3915	1066.7373	1102.62	1122.4625	1158.8124	1260.707	1279.6439	1380.6128	1396.8911	1411.6357	1439.5729	1483.7071	1491.7741	1502.5255	1653.5709	1873.6141	3041.7024	3045.8158	3102.9824	3119.0501	3128.5131	3280.4751	3311.0026
CCN1C=COC1=O	CCn1ccoc1=O	
InChI=1S/C5H7NO2/c1-2-6-3-4-8-5(6)7/h3-4H,2H2,1H3	InChI=1S/C5H7NO2/c1-2-6-3-4-8-5(6)7/h3-4H,2H2,1H3
