13
gdb 21592	3.62959	1.97806	1.28244	3.0007	69.76	-0.2009	-0.0022	0.1987	878.7469	0.09691	-357.625686	-357.618443	-357.617498	-357.656842	27.435	
N	 0.001162316	 1.4298847504	 0.1693600802	-0.621349
C	-0.0259622949	 0.0395091806	 0.0502867425	 0.111439
C	-1.1086708283	-0.8165370099	 0.0348343953	-0.104919
N	-0.5885816344	-2.0776303643	-0.0238961135	-0.190573
N	 0.7416320228	-2.1152193125	-0.0432623209	-0.296194
C	 1.1089171531	-0.8228990855	-0.0016141159	 0.186352
C	 2.4589994961	-0.4022520148	-0.0156928585	 0.249862
C	 3.5823470966	 0.0334160848	-0.0346932091	-0.428523
H	 0.9026992762	 1.81181532	-0.0881159813	 0.251317
H	-0.7340219938	 1.9000732864	-0.3409751313	 0.245596
H	-2.1704669659	-0.6347943545	 0.0643450655	 0.128768
H	-1.0967365729	-2.9449011273	-0.0528520569	 0.27792
H	 4.5822326496	 0.3903475866	-0.0421019262	 0.190305
135.6411	166.2712	221.9755	310.9757	351.7963	462.9416	507.5625	541.5291	545.9791	602.2143	650.5877	676.8268	700.9525	714.1673	742.6508	783.3099	947.3386	1073.7189	1104.0118	1198.9079	1264.6749	1342.1758	1386.6917	1464.0956	1519.4829	1620.9749	1654.6231	2228.3228	3268.9147	3502.8462	3538.2915	3631.3	3676.9499
NC1=CNN=C1C#C	Nc1c[nH]nc1C#C	
InChI=1S/C5H5N3/c1-2-5-4(6)3-7-8-5/h1,3H,6H2,(H,7,8)	InChI=1S/C5H5N3/c1-2-5-4(6)3-7-8-5/h1,3H,6H2,(H,7,8)
