19
gdb 77751	1.98547	1.60629	1.42364	3.3028	77.24	-0.2387	0.001	0.2397	1078.814	0.157798	-419.168276	-419.158946	-419.158001	-419.201826	34.931	
C	 0.0487095596	 1.5367304203	-0.0872957624	-0.435908
C	 0.0793768875	 0.0413546106	 0.1449537955	-0.029623
N	 1.275023978	-0.8075397139	-0.1535837815	-0.192021
C	 2.4127169213	-0.0378976577	 0.3038165165	 0.316149
N	 3.361920031	 0.3943035998	-0.3981240865	-0.514727
C	 1.9853830466	-0.0669729601	 1.7790571894	-0.026069
O	 2.0178779369	 1.0705995032	 2.599471663	-0.423196
C	 0.6792918111	-0.6976313938	 1.2785176431	 0.262123
C	 0.0065702977	-1.8570227527	 1.9518347416	-0.494888
H	 0.9735576834	 2.0408105981	 0.2024816494	 0.123225
H	-0.0995681458	 1.7445659788	-1.1517834522	 0.145157
H	-0.7864524597	 1.9855795687	 0.461059795	 0.127415
H	-0.8088096507	-0.4526222339	-0.2464408545	 0.105581
H	 4.03892962	 0.8819899001	 0.1937703137	 0.229358
H	 2.5747216928	-0.826453581	 2.305303839	 0.121944
H	 1.4633871176	 1.7507476319	 2.2048657702	 0.290023
H	-0.5225479152	-1.5217877809	 2.8513438042	 0.131866
H	-0.7218667087	-2.3301712037	 1.2873858904	 0.133159
H	 0.7356640468	-2.615939644	 2.2540377959	 0.130433
109.5144	156.323	175.591	177.5342	212.6552	237.0577	289.8179	313.6679	338.6338	406.359	534.7536	569.0532	615.6451	651.4873	693.4903	740.7241	867.3353	889.7706	916.3001	931.7994	973.4579	1031.6739	1071.6485	1088.3552	1131.0214	1133.719	1156.8442	1206.7384	1264.2449	1276.0978	1319.274	1338.5001	1411.4654	1414.6259	1428.0369	1459.2538	1482.9805	1489.7585	1495.7175	1505.4069	1798.0085	3031.8863	3039.6596	3057.3008	3095.3319	3103.0553	3110.8038	3114.3275	3129.6703	3449.5486	3829.2979
CC1N2C(=N)C(O)C12C	C[C@H]1N2[C]([NH])[C@@H](O)[C@@]12C	
InChI=1S/C6H10N2O/c1-3-6(2)4(9)5(7)8(3)6/h3-4,7,9H,1-2H3	InChI=1S/C6H10N2O/c1-3-6(2)4(9)5(7)8(3)6/h3-4,7,9H,1-2H3/t3-,4-,6-,8?/m1/s1
