19
gdb 61948	5.60971	0.61396	0.58419	3.7944	83.65	-0.2373	0.0271	0.2644	1844.3855	0.156789	-382.031961	-382.021615	-382.020671	-382.068339	36.331	
C	-0.0851951325	 1.5482495465	-0.0031108245	-0.338491
N	-0.0020334174	 0.0924142975	 0.0412721286	-0.067281
C	 0.6779637477	-0.4001690602	 1.2305971851	-0.130815
C	 2.2031503883	-0.1817457444	 1.1382737068	-0.349452
C	 2.9023168776	-0.7614172757	 2.2815183178	 0.25919
N	 3.4361087269	-1.2284953212	 3.1937513649	-0.303533
C	-1.3221839774	-0.5296771811	-0.1093907326	-0.309359
C	-1.9364271681	-0.2523447339	-1.4053412492	 0.295643
C	-2.4627049326	-0.0317847026	-2.4625315553	-0.418894
H	 0.9149919779	 1.9885684648	-0.0067133285	 0.121479
H	-0.5860349634	 1.8538004736	-0.9238991304	 0.145172
H	-0.6438129395	 1.9693495886	 0.8540295435	 0.098778
H	 0.2997410726	 0.0609454649	 2.1616838157	 0.103328
H	 0.4960797157	-1.4758074125	 1.3138269679	 0.122994
H	 2.5752828611	-0.6364174254	 0.2144915342	 0.16314
H	 2.4458706586	 0.884475995	 1.0920619863	 0.154754
H	-1.1988094334	-1.6138587507	-0.0027769058	 0.137575
H	-2.0220979794	-0.2157810881	 0.6905360468	 0.114356
H	-2.9239030325	 0.1572919048	-3.4003810715	 0.201416
47.3565	50.1331	103.8755	123.0486	162.8342	235.0868	280.8374	336.5871	353.7997	363.6834	403.1216	405.3249	513.7234	605.7272	614.2087	670.1369	781.207	861.8817	952.9672	962.2725	998.499	1040.832	1054.657	1062.8221	1148.9122	1172.492	1207.3967	1261.9204	1299.9943	1306.7927	1338.7256	1378.3504	1421.747	1462.2459	1469.0428	1478.8214	1494.246	1502.2496	1507.4396	2242.3267	2363.6876	2905.4815	2933.536	2939.0799	3046.1475	3056.8395	3075.4227	3085.993	3102.9334	3131.7806	3503.9732
CN(CCC#N)CC#C	CN(CCC#N)CC#C	
InChI=1S/C7H10N2/c1-3-6-9(2)7-4-5-8/h1H,4,6-7H2,2H3	InChI=1S/C7H10N2/c1-3-6-9(2)7-4-5-8/h1H,4,6-7H2,2H3
