27
gdb 99765	1.5117	1.33519	0.98101	1.5313	92.18	-0.2601	0.0648	0.3249	1482.2332	0.249257	-390.70254	-390.690375	-390.689431	-390.740313	44.695	
C	 0.9385930673	 0.6837395776	-1.1206032298	-0.394624
C	 0.1016564458	 0.3539238014	 0.1212324296	-0.184533
C	 0.8942338751	-0.3096083729	 1.2696358632	 0.045548
C	 0.1952137846	-0.1648312376	 2.6535996378	 0.024811
C	 0.328328692	 1.2693785743	 3.1929387639	-0.397475
C	-1.2755314751	-0.6128616567	 2.6742548616	-0.389263
C	 1.2957477514	-1.7540276546	 0.8948163178	 0.120245
C	 2.1954774405	-2.454565272	 1.9161650063	-0.419164
O	 0.1048680071	-2.5109021572	 0.6619910767	-0.427922
H	 1.3478495119	-0.2134825359	-1.5955869504	 0.116557
H	 0.3311852923	 1.1973574864	-1.8727938065	 0.109563
H	 1.7805179018	 1.3398203309	-0.8705575407	 0.108919
H	-0.3466158195	 1.2833553553	 0.4885470889	 0.090003
H	-0.7279123837	-0.3013346965	-0.1610678469	 0.118537
H	 1.8517955048	 0.2258059847	 1.3572070924	 0.059274
H	 0.7401886896	-0.8069305087	 3.3562513044	 0.066735
H	 1.3765659825	 1.5832176398	 3.2478575732	 0.10383
H	-0.2036149606	 1.9931929568	 2.5657382672	 0.114464
H	-0.0955212695	 1.3425426849	 4.200165099	 0.107152
H	-1.3825851932	-1.6381292223	 2.3181932596	 0.133744
H	-1.6750824899	-0.5494011647	 3.6925197385	 0.096402
H	-1.8970284469	 0.030181223	 2.0415838637	 0.107291
H	 1.8647285103	-1.6870468103	-0.046463966	 0.062615
H	 1.663943675	-2.6543050266	 2.8501757878	 0.130179
H	 2.5427958216	-3.4157493863	 1.5185202557	 0.101089
H	 3.0828024741	-1.8530910455	 2.1400980011	 0.11591
H	 0.3648115608	-3.4019528574	 0.4088187118	 0.280113
26.6234	59.416	105.1553	195.5461	202.4949	208.2054	225.7974	237.9057	259.5715	277.568	284.2576	311.3256	321.1365	381.1804	421.7776	491.5282	533.544	629.5527	725.5068	815.6591	854.1157	893.3022	928.584	939.2869	964.11	973.135	1036.7717	1040.788	1048.6582	1060.151	1096.5302	1148.3241	1171.3261	1185.926	1206.4355	1246.0317	1284.1395	1314.9554	1341.8676	1362.1028	1375.0484	1390.2381	1393.7845	1400.8413	1405.6853	1411.9025	1415.9101	1429.5495	1482.5926	1488.6107	1492.2304	1497.2459	1500.0852	1503.5614	1506.3454	1508.741	1516.3862	2963.4861	2990.0445	3024.5229	3025.6296	3028.8559	3030.5651	3034.4517	3046.2992	3079.4756	3088.385	3089.7341	3093.4986	3096.3484	3098.2094	3105.2071	3121.899	3144.7537	3820.7176
CCC(C(C)C)C(C)O	CC[C@@H](C(C)C)[C@@H](C)O	
InChI=1S/C8H18O/c1-5-8(6(2)3)7(4)9/h6-9H,5H2,1-4H3	InChI=1S/C8H18O/c1-5-8(6(2)3)7(4)9/h6-9H,5H2,1-4H3/t7-,8+/m1/s1
