15
gdb 84973	2.95788	1.34673	0.96462	5.4997	69.64	-0.2396	-0.09	0.1496	1145.2052	0.111907	-457.794174	-457.786067	-457.785122	-457.82728	29.819	
O	-0.0677267247	 1.4542462896	-0.0049354254	-0.42302
C	 0.0406547658	 0.0370705027	-0.0164461965	 0.052208
C	-1.3837908393	-0.51604143	 0.1081524305	-0.325829
C	-1.4670190561	-1.9976168373	-0.2060668008	 0.284362
O	-2.0896766034	-2.7889133636	 0.453142866	-0.273691
C	-0.7061395984	-2.4550819613	-1.4790027686	 0.298852
O	-0.9988286743	-3.4896600343	-2.0343051689	-0.297922
C	 0.3791147354	-1.5663129407	-1.9346220026	-0.159963
C	 0.7208657607	-0.453645326	-1.271232738	-0.075948
H	 0.7985613008	 1.8297451207	 0.1828188497	 0.291081
H	 0.6311905885	-0.3044786469	 0.8505550793	 0.105734
H	-1.8064278231	-0.3230003192	 1.0956900946	 0.137445
H	-1.9929355228	 0.0176504185	-0.634605724	 0.148398
H	 0.9125504613	-1.889253549	-2.8235217958	 0.123883
H	 1.5480419096	 0.1582653969	-1.6266791494	 0.11441
62.2542	109.1015	233.8375	243.538	320.2465	343.7852	362.0777	408.2789	453.9553	538.8991	611.2098	663.7398	691.2425	770.0525	847.8266	901.427	977.7593	1023.7931	1043.7303	1084.871	1109.601	1135.6887	1180.7637	1255.0151	1276.9813	1296.8638	1347.8778	1391.0153	1421.4037	1461.0694	1674.8692	1784.8986	1829.4074	2957.1411	3029.9873	3123.4701	3147.5881	3186.5581	3819.7396
OC1CC(=O)C(=O)C=C1	O[C@H]1CC(=O)C(=O)C=C1	
InChI=1S/C6H6O3/c7-4-1-2-5(8)6(9)3-4/h1-2,4,7H,3H2	InChI=1S/C6H6O3/c7-4-1-2-5(8)6(9)3-4/h1-2,4,7H,3H2/t4-/m1/s1
