18
gdb 87322	1.86929	1.65556	1.04819	3.0728	78.6	-0.2416	-0.0259	0.2157	1184.5416	0.143922	-401.89001	-401.880315	-401.879371	-401.924627	35.179	
C	-0.3226416281	 1.4233122834	 0.3036925706	-0.32023
N	-0.0192123901	 0.0001535429	 0.2145881942	-0.106446
C	 1.313587	-0.4026394952	-0.164889086	-0.289992
C	 0.8162255716	-0.6320735431	 1.241691047	 0.213508
C	 1.4520655122	 0.1252863206	 2.4046676968	-0.451699
C	 0.4815333055	 0.5701167622	 3.401054334	 0.325419
C	-0.3221976742	 0.9417056921	 4.2131983535	-0.456987
C	 0.3762366891	-2.0291969126	 1.5607317314	 0.145067
O	 0.7036505726	-2.6358106513	 2.5485607727	-0.262675
H	 0.5348358392	 2.0516070694	 0.5868748488	 0.106754
H	-0.6780569683	 1.7564552065	-0.6758877254	 0.130462
H	-1.1187798435	 1.5764205929	 1.0355384097	 0.146826
H	 1.3921033168	-1.2258171173	-0.8713567588	 0.125514
H	 2.0831241865	 0.3629926922	-0.2677022139	 0.117883
H	 2.1660914604	-0.557895799	 2.8786527241	 0.15935
H	 2.0265995431	 0.9817122064	 2.0383630504	 0.130234
H	-1.0266230498	 1.260303262	 4.9410608457	 0.200172
H	-0.2779428827	-2.4697557623	 0.777196865	 0.086841
63.4313	107.6935	117.1251	186.1282	216.9706	257.499	266.6343	339.1439	366.5256	397.274	423.9916	506.2095	585.3803	622.7599	647.3339	742.8113	795.3758	889.3752	918.9202	964.0255	976.685	1034.3163	1066.6763	1117.8107	1124.5873	1151.1815	1198.5006	1229.769	1300.46	1336.7175	1356.6656	1415.4893	1448.6071	1456.4375	1487.4843	1498.8022	1508.0254	1823.6265	2240.5887	2903.6952	2991.8527	3045.1939	3077.649	3081.7597	3084.8154	3129.2658	3167.1118	3505.8945
CN1CC1(CC#C)C=O	CN1C[C@]1(CC#C)C=O	
InChI=1S/C7H9NO/c1-3-4-7(6-9)5-8(7)2/h1,6H,4-5H2,2H3	InChI=1S/C7H9NO/c1-3-4-7(6-9)5-8(7)2/h1,6H,4-5H2,2H3/t7-,8?/m1/s1
