20
gdb 23272	2.6282	1.4308	1.12599	0.9466	82.02	-0.2285	0.0138	0.2424	1150.4182	0.171672	-403.115545	-403.107032	-403.106088	-403.148281	33.486	
C	 0.8487230796	 1.5475587812	-0.2509973582	-0.405054
C	 0.173097504	 0.1987916437	 0.0539423186	-0.073043
C	 0.264305312	-0.8503422832	-1.0950325167	-0.254406
C	 1.20291217	-1.9554097618	-0.6168736305	-0.034367
C	 2.5857612273	-1.5569267007	-0.1955310836	-0.294952
C	 1.5018613552	-1.7328083506	 0.8575046532	-0.112577
C	 0.7672988782	-0.51230212	 1.2627013913	 0.421045
N	 0.6185597428	-0.2198925477	 2.4954401028	-0.254634
O	-0.1789272569	 0.9359079185	 2.6542348887	-0.399354
H	 1.9104622607	 1.4305168774	-0.4895184592	 0.116612
H	 0.3664921519	 2.0253393339	-1.1102426973	 0.112449
H	 0.7640926068	 2.2159473724	 0.6084967157	 0.141073
H	-0.8751345278	 0.4125755296	 0.2870424193	 0.105319
H	-0.7243843523	-1.2771168193	-1.2925347434	 0.104659
H	 0.6065771432	-0.3945341301	-2.0307708287	 0.100337
H	 1.0515693582	-2.9590658678	-0.9977320035	 0.087734
H	 3.3550209321	-2.3212801535	-0.212579858	 0.117109
H	 2.9484285663	-0.5599202505	-0.4199738361	 0.119723
H	 1.5998306827	-2.5386981495	 1.5735899524	 0.097943
H	-0.2286061739	 1.0117099381	 3.6127417632	 0.304385
101.7479	167.3507	205.8147	219.2516	274.5949	315.5336	365.4379	386.0683	424.0348	480.9601	612.9684	666.1666	690.1963	750.6426	789.3752	827.9705	878.1678	910.8165	945.0747	972.102	974.0078	987.1315	1051.534	1062.3358	1076.8361	1106.2613	1124.966	1132.0278	1200.2439	1227.5712	1251.7157	1260.5743	1322.8837	1338.2404	1340.7723	1378.1864	1406.0777	1418.3489	1481.6021	1496.1203	1498.8996	1507.9573	1739.1341	3036.1179	3040.5784	3051.5717	3077.9282	3102.9836	3131.7811	3135.7754	3171.7484	3195.8399	3220.7063	3822.4647
CC1CC2CC2C1=NO	C[C@H]1C[C@H]2C[C@H]2C1=NO	
InChI=1S/C7H11NO/c1-4-2-5-3-6(5)7(4)8-9/h4-6,9H,2-3H2,1H3	InChI=1S/C7H11NO/c1-4-2-5-3-6(5)7(4)8-9/h4-6,9H,2-3H2,1H3/t4-,5-,6+/m0/s1
