18
gdb 29756	4.62768	1.23627	1.13167	2.0765	83.78	-0.1964	0.0243	0.2207	1126.5031	0.14959	-364.78517	-364.777941	-364.776996	-364.816638	29.038	
C	-0.1793842522	 1.3805456504	 0.0892904204	-0.424267
C	 0.0887370719	-0.1072263588	 0.1242903293	-0.011189
C	 1.4730977555	-0.585426473	-0.2468788313	-0.043499
C	 1.0169268516	-0.6542598976	 1.2093954503	-0.218427
C	 1.079157381	-2.1575630883	 1.0460616175	 0.225325
C	 0.5152140441	-3.4003822066	 1.2168367831	-0.268119
C	 0.6697343343	-4.063663986	-0.0461781202	-0.123554
C	 1.2325980875	-3.1880412942	-0.9571683306	-0.15222
N	 1.5517114901	-2.0549380004	-0.2477960163	 0.020268
H	 0.7074450279	 1.9529233371	 0.3826534285	 0.119033
H	-0.4699223936	 1.7049044201	-0.9155277311	 0.125929
H	-0.9889080832	 1.6478077374	 0.7762807716	 0.128579
H	-0.7446904452	-0.7395727957	-0.1720943315	 0.109129
H	 2.2355270571	 0.0255931743	-0.713377412	 0.110527
H	 1.3542767378	-0.052702317	 2.042838057	 0.102193
H	 0.0662215232	-3.8127399189	 2.1070328457	 0.094615
H	 0.4349050098	-5.0996668574	-0.2464187235	 0.091642
H	 1.5222265624	-3.3342205255	-1.985786187	 0.114035
111.8328	202.4436	227.2842	288.9385	304.845	477.0476	490.6744	615.2428	706.009	724.7312	752.5355	787.1245	797.0834	809.3455	844.3767	846.5441	870.7133	943.6652	1006.3859	1011.9525	1034.2536	1040.7885	1071.8519	1108.7495	1120.0117	1137.0493	1195.8551	1213.93	1244.4386	1250.0196	1273.7218	1374.8431	1401.656	1414.6532	1420.5469	1463.6681	1492.9667	1498.4595	1575.888	3030.4657	3095.8621	3099.3543	3141.576	3192.7889	3205.7502	3228.2966	3253.4137	3262.7003
CC1C2C1C1=CC=CN21	C[C@H]1[C@H]2[C@@H]1c1cccn21	
InChI=1S/C8H9N/c1-5-7-6-3-2-4-9(6)8(5)7/h2-5,7-8H,1H3	InChI=1S/C8H9N/c1-5-7-6-3-2-4-9(6)8(5)7/h2-5,7-8H,1H3/t5-,7+,8+/m1/s1
