25
gdb 105235	1.79832	1.3911	1.11855	1.036	89.12	-0.2438	0.0839	0.3277	1335.4677	0.2258	-389.477861	-389.46658	-389.465636	-389.514088	41.64	
C	 0.9270663515	 1.2239310511	 0.2929088999	-0.249382
O	 0.0814385987	 0.1740289298	-0.131046427	-0.28639
C	 0.5212960662	-0.533402882	-1.2677600287	 0.438714
C	 1.7052649094	-1.4496942768	-1.0502151257	-0.378378
C	 0.3043956862	-2.0215839951	-1.1684922307	-0.044788
C	-0.3806315477	-2.6476370628	 0.0259107003	-0.404393
C	 0.2640388404	 0.2253406786	-2.5727720666	-0.027671
C	 0.9071335407	-0.3987703443	-3.8178258683	-0.409975
C	-1.2483292257	 0.4196189669	-2.7699777293	-0.382681
H	 1.9521433396	 0.8727915455	 0.4768373143	 0.106121
H	 0.9703916612	 2.0495368186	-0.4310534114	 0.108681
H	 0.509146315	 1.606211317	 1.2276793672	 0.123591
H	 2.416559262	-1.6230222038	-1.8493522167	 0.107934
H	 2.1421043107	-1.4405688427	-0.0565139341	 0.110334
H	 0.08915792	-2.5146683631	-2.1130480405	 0.080386
H	-0.1909554735	-2.0673618331	 0.9309110922	 0.126519
H	-1.4657429818	-2.690174087	-0.1185448418	 0.114919
H	-0.0243399869	-3.6711002348	 0.1868119572	 0.109257
H	 0.7147741063	 1.2202856255	-2.4514742687	 0.070155
H	 0.5252326931	-1.4063860174	-4.0153386171	 0.118278
H	 0.6774537364	 0.2103455967	-4.6978788655	 0.113299
H	 1.9960208769	-0.4571891303	-3.7340397193	 0.115479
H	-1.703418306	 0.8484470988	-1.8740046202	 0.127023
H	-1.4524322453	 1.0843003847	-3.6157567956	 0.102432
H	-1.7395180973	-0.53933692	-2.9711670341	 0.110535
42.1046	97.1351	149.4849	172.8093	186.1237	197.3488	223.0506	229.341	263.0684	294.3078	324.3619	391.8277	446.2159	455.1029	498.1548	591.7243	646.4458	799.8088	874.3675	885.9395	910.0664	928.434	939.8959	965.7318	991.3483	1041.6061	1067.9366	1103.8754	1130.7917	1138.6338	1144.5427	1177.4878	1182.933	1191.1781	1217.4087	1241.2649	1287.9376	1345.5461	1372.4973	1394.1647	1400.4061	1415.7701	1421.078	1473.474	1483.071	1489.3376	1490.8335	1492.2963	1495.6812	1502.7538	1505.0491	1509.3097	1514.2621	2990.9919	3004.5156	3030.182	3032.9921	3036.1176	3043.5358	3088.4906	3092.7625	3099.59	3108.6338	3111.7352	3123.1849	3124.9385	3131.4904	3142.457	3217.7542
COC1(CC1C)C(C)C	CO[C@]1(C[C@H]1C)C(C)C	
InChI=1S/C8H16O/c1-6(2)8(9-4)5-7(8)3/h6-7H,5H2,1-4H3	InChI=1S/C8H16O/c1-6(2)8(9-4)5-7(8)3/h6-7H,5H2,1-4H3/t7-,8-/m1/s1
