18
gdb 113412	4.46731	1.00365	0.94379	1.084	72.75	-0.243	0.0685	0.3115	1268.4686	0.147908	-438.976478	-438.968513	-438.967569	-439.009435	30.5	
O	 0.0561448303	 1.3024559399	-0.6624524575	-0.414941
C	 0.0707325924	 0.1861162318	 0.2088440405	-0.078595
C	-1.3028512025	-0.4168630906	 0.3538541514	-0.139503
O	-1.7646128984	-1.1353480749	-0.8364775889	-0.332273
C	-1.5403728924	-1.8543193638	 0.3506398564	 0.545167
C	-0.7450058893	-3.1646498805	 0.4963934673	-0.147201
C	-1.3276752624	-3.2697049602	 1.9298614852	-0.193567
C	-2.501823101	-2.8605383362	 1.0028649078	-0.149215
N	-1.986767147	-3.9268466901	 0.0365356701	-0.326336
H	-0.301763033	 0.9926636482	-1.5023922627	 0.294235
H	 0.7738782541	-0.5881415867	-0.1328891076	 0.093088
H	 0.4206659174	 0.5554878726	 1.179203699	 0.115259
H	-2.0622110857	 0.2447334925	 0.7719956271	 0.106603
H	 0.2537914554	-3.4200118659	 0.1432401061	 0.091991
H	-1.3936540756	-4.2879451544	 2.3118014063	 0.116826
H	-0.9886522185	-2.5445542364	 2.6712406854	 0.100601
H	-3.5598425198	-2.7563997075	 1.2420722077	 0.092844
H	-2.214276494	-3.6422328979	-0.9213993436	 0.225017
65.7442	118.6179	179.2152	213.02	332.1595	397.5344	413.275	483.3967	513.6557	644.1598	686.0662	784.3945	792.5743	818.5768	868.48	907.2007	944.6066	976.4435	1002.085	1039.4018	1062.4638	1073.8856	1080.7935	1099.461	1127.6277	1147.2429	1170.3245	1190.9308	1212.8619	1221.8072	1240.7422	1295.44	1304.5218	1325.535	1383.3846	1423.6284	1481.031	1489.5209	1538.8901	2995.0495	3071.6505	3083.182	3113.8743	3121.9228	3126.5222	3165.5106	3395.7858	3800.0447
OCC1OC11C2CC1N2	OC[C@H]1O[C@]21[C@H]1C[C@@H]2N1	
InChI=1S/C6H9NO2/c8-2-5-6(9-5)3-1-4(6)7-3/h3-5,7-8H,1-2H2	InChI=1S/C6H9NO2/c8-2-5-6(9-5)3-1-4(6)7-3/h3-5,7-8H,1-2H2/t3-,4+,5-,6-/m1/s1
