16
gdb 112372	2.35339	1.46628	0.95271	2.8778	67.	-0.2958	-0.0156	0.2802	1202.6517	0.124281	-475.093359	-475.085099	-475.084155	-475.126931	29.783	
C	-0.0122910613	 1.5636544933	-0.0628173336	-0.395646
C	-0.0031983967	 0.0375678966	 0.0439640282	-0.187625
C	-1.405029751	-0.5640732922	 0.0448997612	 0.018693
O	-2.0839575503	-0.3143786586	-1.2030497903	-0.248537
C	-2.4552207372	-1.4706930889	-1.781640174	 0.499712
O	-3.025725313	-1.5883820746	-2.8128793367	-0.349397
O	-2.0701991481	-2.5371431635	-0.9881827895	-0.232895
C	-1.4262529899	-2.0728895002	 0.1380596076	 0.389189
N	-0.9413724758	-2.7713838935	 1.0586438268	-0.521149
H	 1.0085720576	 1.9547858055	-0.0632384017	 0.126289
H	-0.5016419266	 1.8902880047	-0.9844450396	 0.142534
H	-0.5442095074	 2.0161700327	 0.7810972445	 0.122703
H	 0.5642782905	-0.4039423545	-0.783541579	 0.115129
H	 0.4794545685	-0.2911828848	 0.9703357714	 0.139294
H	-2.0106804157	-0.1236404767	 0.8447500949	 0.135834
H	-1.0757646336	-3.7691244553	 0.8925103998	 0.245872
74.7904	107.9478	149.4684	169.9525	234.7792	306.7027	402.1924	420.7021	587.6716	630.4464	650.9728	715.259	774.728	791.1776	868.6739	902.2807	937.1397	953.1578	1009.8523	1063.7837	1078.0857	1130.0341	1132.716	1151.9783	1285.7954	1299.4147	1333.6769	1370.6346	1394.0148	1414.8237	1476.8649	1497.8176	1507.1775	1810.4034	1955.6289	3040.2678	3043.0585	3057.2132	3088.6902	3112.4821	3125.5331	3495.0654
CCC1OC(=O)OC1=N	CC[C@H]1OC(=O)O[C]1[NH]	
InChI=1S/C5H7NO3/c1-2-3-4(6)9-5(7)8-3/h3,6H,2H2,1H3	InChI=1S/C5H7NO3/c1-2-3-4(6)9-5(7)8-3/h3,6H,2H2,1H3/t3-/m1/s1
