15
gdb 76365	2.09001	1.46677	1.1886	4.9883	73.63	-0.2472	0.0083	0.2555	1095.8699	0.110838	-416.755779	-416.746637	-416.745692	-416.789429	33.644	
N	-0.0310456551	 1.4016448453	 0.1466318647	-0.522595
C	 0.0025640109	-0.0320401312	 0.0406148483	-0.125141
C	-0.4351161608	-0.740875329	 1.2825301272	 0.125691
O	-0.7760031307	 0.0028392936	 2.3754190181	-0.406034
C	-1.3826517051	-0.7308612673	 0.0220193347	-0.08374
C	-2.5677205649	 0.0727730619	 0.0497555613	 0.261319
C	-3.5573274658	 0.7547079822	 0.0682284689	-0.419201
C	-1.4469720517	-1.9565743112	-0.7289905873	 0.235219
N	-1.4600454413	-2.9546939094	-1.3144053822	-0.341735
H	 0.9077700293	 1.7838948885	 0.1414964673	 0.253587
H	-0.5571134628	 1.8248171678	-0.6105534465	 0.258216
H	 0.7496009664	-0.5020872774	-0.595869076	 0.119355
H	-0.0217301405	-1.7124259152	 1.5284103696	 0.141311
H	-0.7486699443	 0.9300003644	 2.0769625993	 0.298257
H	-4.4423906237	 1.341311727	 0.0937476927	 0.205493
110.0241	125.4111	146.8763	162.1388	202.4485	260.6045	334.7475	369.7008	478.0219	488.9923	575.1112	592.0462	594.5477	620.9121	649.4441	674.7713	678.4078	766.1466	862.3813	885.1759	996.5405	1062.6502	1100.0501	1164.1631	1205.4256	1262.1246	1287.9433	1351.3546	1392.1365	1465.6143	1645.1499	2240.2962	2347.7495	3122.6809	3187.2887	3501.1014	3514.0869	3598.3178	3629.6023
NC1C(O)C1(C#C)C#N	N[C@H]1[C@@H](O)[C@]1(C#C)C#N	
InChI=1S/C6H6N2O/c1-2-6(3-7)4(8)5(6)9/h1,4-5,9H,8H2	InChI=1S/C6H6N2O/c1-2-6(3-7)4(8)5(6)9/h1,4-5,9H,8H2/t4-,5+,6+/m0/s1
