16
gdb 45473	3.52559	1.42919	1.14564	2.7978	70.66	-0.2508	-0.0441	0.2067	1036.772	0.126908	-437.905671	-437.898507	-437.897563	-437.937653	27.468	
O	-0.0130141608	-0.0852894992	-0.1168147855	-0.374554
C	-0.0251159489	 1.1307848159	-0.0419296745	 0.399809
N	-1.1878837842	 1.8559398909	-0.1267000638	-0.346012
C	-1.2977586035	 3.2748680672	 0.0756350903	-0.032376
C	-1.3652995854	 3.8682558379	 1.5082964976	-0.094441
O	-0.2908404567	 4.7862619802	 1.2037440984	-0.285109
C	 0.0127581081	 4.0880328707	-0.0325328224	 0.052452
C	 1.2553049652	 3.2603250247	 0.0915524494	-0.079081
C	 1.222799434	 1.9272255411	 0.113275915	-0.153148
H	-2.0248004487	 1.3012504224	-0.2269654841	 0.24897
H	-2.0877848019	 3.6723147419	-0.5651572951	 0.105334
H	-2.2815976872	 4.3949228425	 1.7945429503	 0.110997
H	-1.0909784501	 3.1490510883	 2.2903877445	 0.111534
H	 0.0864431265	 4.7958824396	-0.8666885257	 0.094093
H	 2.1934444379	 3.801385061	 0.1869454728	 0.118086
H	 2.1186017755	 1.3250682747	 0.2151551527	 0.123447
88.4805	107.5347	233.6139	380.1962	408.4812	444.8724	479.6951	537.7934	569.4572	690.306	737.4141	796.836	834.0097	864.3965	890.3724	952.4437	1004.4524	1008.8697	1018.6877	1045.4966	1073.8612	1140.8192	1160.1537	1178.4519	1263.8421	1278.4569	1314.686	1337.1518	1375.7364	1398.4266	1413.6776	1477.3564	1516.3062	1695.9032	1784.5532	3019.6064	3032.9105	3073.1793	3089.8146	3162.9311	3205.7062	3619.3168
O=C1NC2COC2C=C1	O=C1N[C@H]2CO[C@H]2C=C1	
InChI=1S/C6H7NO2/c8-6-2-1-5-4(7-6)3-9-5/h1-2,4-5H,3H2,(H,7,8)	InChI=1S/C6H7NO2/c8-6-2-1-5-4(7-6)3-9-5/h1-2,4-5H,3H2,(H,7,8)/t4-,5-/m0/s1
