14
gdb 26788	3.60606	1.16915	0.88779	0.5289	79.25	-0.2105	-0.037	0.1735	1234.0864	0.09941	-436.693457	-436.685019	-436.684075	-436.7265	30.759	
C	 0.1854447793	 1.4924195625	 0.1113759856	-0.510546
C	-0.012650106	 0.0288486565	 0.0048529756	 0.227205
C	-1.091234289	-0.7822028678	-0.1943276894	 0.252739
O	-2.3744243048	-0.4053301838	-0.359654058	-0.437603
N	-0.7117200136	-2.0979444074	-0.2097467919	-0.392853
C	 0.5824673897	-2.0617859228	-0.0207465393	 0.214806
O	 1.0735411288	-0.8058584691	 0.1173096498	-0.198934
C	 1.4822594139	-3.1421683676	 0.0515979661	 0.259924
C	 2.2528961332	-4.0642029262	 0.1138233613	-0.364399
H	 0.8598508761	 1.8700715178	-0.6658591707	 0.142732
H	-0.780099771	 1.9904378742	-0.0017326126	 0.153002
H	 0.6070778609	 1.77710143	 1.0823209482	 0.142728
H	-2.8897042913	-1.2123510217	-0.4774893386	 0.308312
H	 2.9293572039	-4.8813386946	 0.1679770839	 0.202888
117.3944	128.2442	142.6095	221.5209	246.0533	334.3314	342.5631	408.054	460.1919	554.0992	586.9647	595.2238	652.8608	696.0688	697.1256	748.1742	809.7005	984.4575	1020.9351	1064.6913	1135.0948	1192.8402	1308.5638	1323.1138	1407.383	1443.7623	1473.1332	1491.7993	1548.4164	1712.7147	2239.4014	3027.7884	3077.2845	3131.904	3501.2059	3810.1359
CC1=C(O)N=C(O1)C#C	Cc1c(O)nc(o1)C#C	
InChI=1S/C6H5NO2/c1-3-5-7-6(8)4(2)9-5/h1,8H,2H3	InChI=1S/C6H5NO2/c1-3-5-7-6(8)4(2)9-5/h1,8H,2H3
