17
gdb 35675	4.39006	0.97402	0.92131	0.3247	75.91	-0.3248	0.0115	0.3364	1256.82	0.138213	-380.919033	-380.910753	-380.909809	-380.95366	30.03	
N	 0.2000816409	-1.2018351342	 0.2491418086	-0.32248
C	 0.0662692196	-0.0593197175	 0.1330566088	 0.267322
C	-0.0915675544	 1.3903644033	 0.0037302123	-0.140807
C	-0.7432138833	 1.9962042873	 1.2757735204	-0.222819
C	 0.4492113333	 2.2510770912	 2.2020098441	-0.222778
C	 1.5289376507	 2.833927996	 1.2511595212	-0.14088
C	 1.2974790088	 2.1037333894	-0.1146333672	-0.245781
C	 1.3781986646	 4.2832466952	 1.1096465559	 0.267359
N	 1.2434000535	 5.4255979997	 0.9930979735	-0.322501
H	-0.7031950234	 1.576936855	-0.8829581365	 0.134674
H	-1.2216471381	 2.9437151756	 1.0075069083	 0.13233
H	-1.5021537962	 1.343624957	 1.7104483142	 0.131938
H	 0.22007392	 2.9167663181	 3.0357682447	 0.131941
H	 0.8169780584	 1.3050471293	 2.6124135013	 0.132294
H	 2.5365044101	 2.6433158223	 1.6300949342	 0.134659
H	 2.0942087999	 1.383252522	-0.3021571572	 0.142769
H	 1.2935000255	 2.8125246303	-0.9432608167	 0.142761
14.2044	102.4427	159.4792	212.4455	251.2161	298.2604	441.8395	472.4588	567.9252	590.1348	652.9839	734.6329	781.6705	794.6757	862.3224	904.3171	928.5243	947.7906	1020.5577	1034.9143	1059.1125	1085.7913	1175.0599	1187.2948	1209.7381	1220.7706	1286.7723	1314.7933	1338.1261	1343.0083	1353.0966	1371.5829	1485.6176	1488.8615	1499.4305	2354.1944	2354.3639	3056.2303	3062.5348	3079.1721	3079.5897	3095.4527	3123.5139	3128.3589	3143.2523
N#CC1CCC(C1)C#N	N#C[C@H]1CC[C@@H](C1)C#N	
InChI=1S/C7H8N2/c8-4-6-1-2-7(3-6)5-9/h6-7H,1-3H2	InChI=1S/C7H8N2/c8-4-6-1-2-7(3-6)5-9/h6-7H,1-3H2/t6-,7-/m0/s1
