27
gdb 102641	2.43604	0.88421	0.7163	1.6122	92.84	-0.2617	0.0685	0.3302	1742.4029	0.249751	-390.704265	-390.692277	-390.691333	-390.741787	43.944	
C	 0.7006318847	-0.5796935454	 1.304969377	-0.380765
C	 0.1022415977	-0.0838172735	-0.0167152988	-0.170932
C	 0.836816327	-0.5353404942	-1.3001411692	 0.022469
C	 2.2765456377	 0.0128833838	-1.4032636136	-0.171739
C	 2.3930654602	 1.5402309475	-1.3750486593	-0.393256
C	 0.8606069436	-2.0633316925	-1.5173585421	-0.172461
C	-0.4962833141	-2.7576011766	-1.6641198859	 0.115281
C	-0.3633046397	-4.1468283076	-2.2922788935	-0.399045
O	-1.076842874	-2.8555084543	-0.3611005243	-0.424187
H	 0.644823163	-1.6687841933	 1.3786068809	 0.130478
H	 1.7467508786	-0.2792226729	 1.4279610489	 0.105821
H	 0.1434437426	-0.1666087943	 2.1522526467	 0.104359
H	-0.9350107468	-0.4242648013	-0.0735849744	 0.103554
H	 0.0668432087	 1.012059548	-0.0087118007	 0.082496
H	 0.2748511909	-0.1051438821	-2.1444233899	 0.058241
H	 2.8921447831	-0.4153557074	-0.6016286331	 0.095739
H	 2.7151129697	-0.3550837253	-2.3400361089	 0.086043
H	 1.7635373673	 1.9997502454	-2.1459219987	 0.110046
H	 2.0925882899	 1.9590656464	-0.4100513731	 0.120551
H	 3.4252048096	 1.8548681801	-1.5600561402	 0.108051
H	 1.4317582304	-2.2605596216	-2.4330212764	 0.086994
H	 1.4049496654	-2.5608579697	-0.7047928948	 0.103935
H	-1.1409232928	-2.1379863463	-2.3114162205	 0.061079
H	 0.3036999468	-4.7749511944	-1.6928984092	 0.123755
H	-1.3388604174	-4.6444752281	-2.3481163596	 0.100124
H	 0.0354881639	-4.0852840916	-3.3100048187	 0.114412
H	-1.930758746	-3.2907787688	-0.4478763686	 0.278957
43.3893	75.6803	85.2758	147.2492	151.4785	223.7131	226.2189	243.2405	266.4055	287.3523	302.0537	319.8774	341.9365	442.3691	467.6651	513.0221	544.3835	747.7313	770.1669	812.0656	846.9923	899.2928	927.5846	939.5801	996.39	1021.7833	1029.7488	1040.1001	1065.0572	1079.7732	1105.2167	1150.4261	1172.8318	1180.4169	1215.3901	1280.6891	1296.765	1305.9582	1312.7759	1353.8486	1368.6624	1388.6741	1393.614	1395.72	1405.5544	1409.7757	1416.1202	1427.6309	1468.0544	1484.1989	1490.2648	1493.135	1498.0858	1499.567	1503.9071	1511.9255	1515.0792	2947.6802	2972.9976	3014.1984	3022.6138	3027.0061	3030.1399	3035.554	3039.4498	3046.2497	3064.7048	3085.4234	3090.8267	3094.6103	3099.6956	3106.5017	3110.6643	3121.2518	3816.7874
CCC(CC)CC(C)O	CCC(CC)C[C@@H](C)O	
InChI=1S/C8H18O/c1-4-8(5-2)6-7(3)9/h7-9H,4-6H2,1-3H3	InChI=1S/C8H18O/c1-4-8(5-2)6-7(3)9/h7-9H,4-6H2,1-3H3/t7-/m1/s1
