21
gdb 94671	2.17278	1.72624	1.32924	2.2919	78.1	-0.2254	0.063	0.2884	1077.4708	0.18228	-424.231879	-424.222849	-424.221905	-424.264767	35.804	
C	 0.1090061364	 1.5202823894	 0.1292802712	-0.487129
C	-0.0655772377	 0.0229829427	 0.1245487937	 0.284182
C	 1.0738311362	-0.8572419886	-0.3750882414	-0.40735
C	 0.7135033931	-0.8789203051	 1.0757422718	 0.432812
O	 1.6594540063	-0.4053059709	 1.9774857046	-0.485237
C	-0.2201403414	-1.9640606863	 1.5771665286	 0.032409
O	-0.6690727765	-1.4829028228	 2.852890116	-0.456611
C	-1.3556534548	-2.0117571486	 0.538930408	-0.25785
C	-1.4624190068	-0.5699702657	-0.0180527467	-0.26276
H	 1.115564273	 1.7884405001	 0.4635709082	 0.127715
H	-0.0463500868	 1.951666327	-0.866484738	 0.111393
H	-0.606053543	 1.9958207591	 0.8112037182	 0.11137
H	 0.8780874877	-1.7165744519	-1.0096620778	 0.10258
H	 2.0025132236	-0.3426712554	-0.5985543414	 0.119532
H	 1.1907212684	-0.3252501927	 2.8189624437	 0.287485
H	 0.2815614356	-2.9338599093	 1.7010570157	 0.067055
H	-1.0957939911	-2.2079910692	 3.3176618121	 0.28844
H	-1.1006342675	-2.72231399	-0.2539351349	 0.104432
H	-2.2893425368	-2.3592031395	 0.9902777628	 0.092843
H	-2.1615001863	 0.0193967416	 0.586717161	 0.102548
H	-1.8353604314	-0.5575088838	-1.0487166753	 0.092141
119.7904	183.5649	196.6383	219.9385	235.6972	274.5499	337.9442	394.701	431.9779	448.6403	478.6317	510.6624	555.0403	658.463	711.381	757.7521	817.8905	879.032	902.8691	926.5108	968.3515	971.5602	989.0729	1035.4756	1057.21	1069.7332	1115.8617	1121.3742	1191.5714	1206.0354	1228.5455	1259.5764	1273.3726	1307.132	1323.4742	1358.3704	1368.5603	1411.1807	1421.7753	1435.2299	1479.4924	1488.4077	1492.0665	1498.1204	1511.7562	3004.4178	3021.2486	3029.802	3051.5075	3065.8521	3077.5476	3095.5035	3106.334	3121.0881	3208.472	3765.6683	3839.2739
CC12CC1(O)C(O)CC2	C[C@@]12C[C@]1(O)[C@@H](O)CC2	
InChI=1S/C7H12O2/c1-6-3-2-5(8)7(6,9)4-6/h5,8-9H,2-4H2,1H3	InChI=1S/C7H12O2/c1-6-3-2-5(8)7(6,9)4-6/h5,8-9H,2-4H2,1H3/t5-,6+,7-/m0/s1
