22
gdb 99030	3.26181	0.93818	0.87557	2.2336	80.62	-0.2465	0.0668	0.3133	1481.3343	0.190827	-441.54622	-441.534912	-441.533968	-441.582868	40.357	
C	 0.2464343074	 1.3631353839	 0.074406747	-0.32757
N	-0.0465679633	-0.0524803481	 0.0793477675	-0.343071
C	-1.3186573511	-0.5379487456	 0.0311788266	 0.514323
O	-2.3202212135	 0.1471126962	-0.0198538594	-0.422542
O	-1.2720738	-1.8921812241	 0.0498119482	-0.328112
C	-2.5021084143	-2.6842284675	 0.0069210054	 0.376605
C	-3.2563021942	-2.4218333646	-1.3011374653	-0.416565
C	-1.9770532657	-4.1212140962	 0.0468405748	-0.400023
C	-3.364780737	-2.3908969883	 1.2391699913	-0.416557
H	 0.8522478111	 1.6466647734	-0.7942629412	 0.122949
H	-0.7053272284	 1.8935391638	 0.0280444888	 0.169035
H	 0.7777202815	 1.6682650479	 0.9835884765	 0.12295
H	 0.6993216534	-0.7258591738	 0.1192714682	 0.249865
H	-2.6033242883	-2.6087726972	-2.1594724011	 0.111758
H	-4.1131273009	-3.0992507337	-1.3734838548	 0.1096
H	-3.6139056576	-1.3934596211	-1.3463544861	 0.153227
H	-1.4034278159	-4.2965870766	 0.9612643318	 0.117025
H	-2.8114314371	-4.827704297	 0.0198518444	 0.115501
H	-1.327814881	-4.3181929215	-0.8108672667	 0.11702
H	-3.7237964871	-1.3620744022	 1.2287545469	 0.153226
H	-4.225404363	-3.0671865979	 1.2546273585	 0.109597
H	-2.787556315	-2.5563067895	 2.1543282485	 0.111759
55.2199	70.891	97.5709	136.2501	160.8673	198.8209	249.0021	265.8496	286.4792	325.8158	345.8739	357.5951	425.5656	454.1784	470.0081	515.5151	726.8564	765.0738	780.5846	878.0516	922.5095	923.5895	965.78	966.056	1052.0227	1058.855	1159.2855	1169.2004	1174.4289	1202.1582	1263.4354	1265.1578	1283.8418	1393.8939	1397.1217	1423.8508	1444.2225	1467.3656	1488.7071	1488.8816	1492.9794	1498.2544	1498.6408	1504.3756	1527.1376	1563.4697	1795.3851	3021.4347	3040.9996	3041.0889	3048.8027	3069.3958	3104.5093	3107.3896	3119.4474	3123.062	3152.5919	3156.4689	3159.3292	3662.3342
CNC(=O)OC(C)(C)C	CNC(=O)OC(C)(C)C	
InChI=1S/C6H13NO2/c1-6(2,3)9-5(8)7-4/h1-4H3,(H,7,8)	InChI=1S/C6H13NO2/c1-6(2,3)9-5(8)7-4/h1-4H3,(H,7,8)
