20
gdb 103816	2.37606	1.31316	1.04895	6.3774	76.08	-0.2447	0.0255	0.2702	1226.832	0.170518	-440.309183	-440.299824	-440.298879	-440.343147	35.138	
C	 0.3446759149	 0.2043679376	 1.4708626833	-0.3404
N	-0.0473460166	 0.0132600491	 0.0693306335	-0.36027
H	 0.2093854518	 0.8273418277	-0.4804095944	 0.233626
H	 0.5737966092	-1.5929777473	-0.3233620191	 0.310824
C	-1.4484872018	-0.3077780722	-0.1599973961	 0.314024
C	-2.4901168729	 0.6045161645	 0.4624316584	-0.457267
C	-1.73228264	-0.9086417487	-1.5025404639	-0.344653
C	-1.7799844792	-1.7954631156	-0.2641394293	-0.181442
C	-0.7781712559	-2.9077895211	-0.0985422122	 0.413337
O	-1.1223343997	-4.0309345086	 0.1672227098	-0.348992
O	 0.5106911451	-2.5834602275	-0.2889014465	-0.392773
H	 1.4211655086	 0.3885535614	 1.5141156244	 0.134579
H	-0.1697812468	 1.036976942	 1.9685383154	 0.120387
H	 0.1367583132	-0.7131332883	 2.0282874557	 0.150872
H	-2.3507869975	 1.6388142911	 0.1255414087	 0.117086
H	-3.4974142946	 0.2927182356	 0.1739742435	 0.129247
H	-2.4422390035	 0.5940010326	 1.555615312	 0.130746
H	-2.6712789902	-0.6723251583	-1.9899520021	 0.126448
H	-0.8944210958	-1.0584706478	-2.1746578088	 0.131632
H	-2.7632178582	-2.0941159562	 0.0782457976	 0.112988
81.727	141.277	148.3692	194.0393	221.5274	269.1644	282.0566	327.614	375.1312	418.8548	466.8599	537.8041	646.7883	685.9302	748.4642	814.4629	820.4516	884.9919	917.186	941.0266	977.6427	994.4633	1049.9714	1071.8244	1088.4804	1103.0257	1121.9615	1161.8175	1189.9996	1241.6801	1281.6804	1323.125	1387.2044	1416.6055	1451.8602	1455.32	1483.417	1487.0857	1490.1125	1501.445	1508.346	1520.8895	1847.9975	3013.6452	3030.3511	3090.8071	3096.501	3116.6493	3125.6293	3138.9118	3190.825	3224.8765	3228.8844	3512.0162
C[NH2+]C1(C)CC1C([O-])=O	CN[C@@]1(C)C[C@H]1C(=O)O	
InChI=1S/C6H11NO2/c1-6(7-2)3-4(6)5(8)9/h4,7H,3H2,1-2H3,(H,8,9)	InChI=1S/C6H11NO2/c1-6(7-2)3-4(6)5(8)9/h4,7H,3H2,1-2H3,(H,8,9)/t4-,6-/m0/s1
