13
gdb 129052	2.57557	1.82678	1.18927	1.0211	73.82	-0.2482	-0.1045	0.1437	974.0673	0.087932	-448.850381	-448.842656	-448.841712	-448.882976	28.149	
N	-0.0386470705	 1.3241336435	-0.5706334225	-0.480996
C	-0.0422744974	 0.150548886	-0.060869067	 0.28467
C	-1.2686008834	-0.4917235374	 0.3656013716	-0.15858
C	-1.4016528803	-1.7431943929	 0.8425624845	 0.063742
O	-0.4612403553	-2.6492594647	 1.1630037362	-0.272153
N	 0.8311018655	-2.159763932	 1.8818343896	 0.027412
N	 1.4608492815	-1.2875617744	 1.3563094697	-0.056393
C	 1.2311048272	-0.6340575219	 0.0873111922	 0.276846
N	 2.1382974671	-0.6391677354	-0.7893256385	-0.442963
H	 0.9037512439	 1.5748131254	-0.8777402535	 0.240785
H	-2.1741252072	 0.0779814413	 0.1938266336	 0.125682
H	-2.395782414	-2.1514041363	 1.0198903829	 0.137155
H	 2.9701226527	-1.1449340213	-0.4770125288	 0.254792
73.6787	100.1648	232.5364	301.3295	313.7235	345.8196	383.481	449.2991	521.156	595.8181	693.5187	731.2471	811.81	841.9238	852.8436	907.8171	940.0672	953.9611	973.7111	1011.2907	1148.1716	1257.5071	1285.8822	1361.8014	1432.7907	1637.3312	1666.1604	1710.458	1778.6354	3144.457	3211.3411	3460.6474	3467.3985
N=C1C=CON=NC1=N	[NH]C1=C[CH]ON=N[C]1[NH]	
InChI=1S/C4H4N4O/c5-3-1-2-9-8-7-4(3)6/h1-2,5-6H	InChI=1S/C4H4N4O/c5-3-1-2-9-8-7-4(3)6/h1-2,5-6H
