19
gdb 36803	8.45258	0.50817	0.49682	3.3594	78.26	-0.2555	0.0304	0.2859	2135.3514	0.158711	-419.180531	-419.170791	-419.169847	-419.216988	33.423	
N	-0.0761968639	-1.0590069459	-0.1471508785	-0.300694
C	-0.0025117407	 0.0933298359	-0.1851375564	 0.247148
C	 0.1161129884	 1.5470284267	-0.227372035	-0.33897
C	 1.54201597	 2.0178069429	 0.085425132	-0.048745
O	 1.5302790471	 3.4212556904	 0.011120886	-0.246277
C	 2.7893608076	 4.0091265148	 0.2909952364	-0.087108
C	 2.6460251783	 5.5043921107	 0.2490698958	 0.015891
C	 3.7872046889	 6.3320940227	-0.2154006145	-0.245819
N	 2.5748270721	 6.2083834608	-1.0384045284	-0.302698
H	-0.1750320348	 1.908090511	-1.2191433987	 0.164435
H	-0.5779757057	 1.9910754588	 0.4935805321	 0.16467
H	 1.8433820614	 1.6727413395	 1.0871348104	 0.111437
H	 2.250147734	 1.5841611401	-0.6385862801	 0.109669
H	 3.145133814	 3.6864144655	 1.2839709913	 0.099897
H	 3.5385809379	 3.6781957718	-0.4493624011	 0.08473
H	 1.9761061686	 5.9108764093	 1.0034435569	 0.102438
H	 3.9530826934	 7.315126921	 0.2150014992	 0.125378
H	 4.6931037445	 5.8202781978	-0.5318464122	 0.112622
H	 2.7317129891	 5.5520846561	-1.8001725652	 0.231996
39.2423	57.461	86.3174	111.0296	143.1071	179.843	298.8111	324.7982	398.8587	441.782	488.2145	568.5596	797.0905	808.9344	837.2102	929.5172	941.7391	956.7687	1012.8259	1026.587	1050.8683	1091.6395	1094.7403	1129.4687	1153.0883	1162.3081	1211.0731	1233.7906	1251.6968	1278.884	1301.5847	1303.3337	1313.49	1369.1862	1418.053	1461.1993	1470.6446	1502.3852	1515.7168	1531.4608	2366.9363	2948.4576	2974.7671	2983.4339	3005.6968	3058.2915	3101.2969	3108.6796	3137.7117	3194.3629	3493.065
N#CCCOCC1CN1	N#CCCOC[C@H]1CN1	
InChI=1S/C6H10N2O/c7-2-1-3-9-5-6-4-8-6/h6,8H,1,3-5H2	InChI=1S/C6H10N2O/c7-2-1-3-9-5-6-4-8-6/h6,8H,1,3-5H2/t6-/m1/s1
