19
gdb 81592	3.33787	1.22837	1.05378	3.0373	75.42	-0.251	0.0745	0.3254	1177.0058	0.15954	-422.937559	-422.92961	-422.928666	-422.970467	30.945	
O	-0.5588852372	 1.1743728601	-0.8604804095	-0.451115
C	-0.3449599451	-0.1240910595	-0.3873517031	 0.19168
C	 0.0009121109	-0.3944649864	 1.1138054936	-0.122182
C	-1.4973661643	-0.1120189367	 1.4418576279	-0.262324
C	-1.5255105099	-1.0015148788	 0.1601135882	-0.112571
C	-0.4440675758	-1.8742081539	 0.8691388689	 0.008105
C	 0.4126399045	-2.8762223999	 0.1373044258	 0.027022
C	-0.1771708734	-3.9530215855	-0.6721699872	-0.174891
O	 0.4952160931	-2.8559629099	-1.2908767378	-0.221728
H	-1.10172499	 1.6640760295	-0.2351405846	 0.280207
H	 0.2910521525	-0.6054679641	-1.1249984689	 0.117835
H	 0.8752759891	-0.0565793101	 1.6730428681	 0.071652
H	-1.8899758693	-0.560520513	 2.3583201903	 0.095594
H	-1.8561086026	 0.9172360122	 1.3550453814	 0.07857
H	-2.405783299	-1.3520049711	-0.3807415579	 0.073675
H	-0.8072538921	-2.3526177225	 1.7868318831	 0.077247
H	 1.36729928	-3.0915492138	 0.6228481284	 0.093595
H	 0.3273924177	-4.9149403637	-0.7496775635	 0.114509
H	-1.255857339	-3.9790858429	-0.8204336531	 0.115119
51.4846	163.0281	182.2273	242.3373	308.7483	366.8194	414.332	428.4506	572.2329	662.3532	773.1954	780.2939	820.9202	861.8302	887.1131	893.6098	898.1612	917.2206	985.3161	1005.3439	1038.4127	1073.3457	1077.3292	1087.5028	1100.4864	1127.0357	1155.9099	1169.567	1172.5842	1186.8416	1202.5124	1234.199	1245.5683	1265.0478	1286.7504	1299.3531	1401.1309	1427.1879	1477.0186	1527.6486	1537.099	3031.8614	3053.1393	3081.2574	3085.8781	3097.6049	3104.3094	3105.7364	3170.5127	3171.2543	3821.0234
OC1C2CC1C2C1CO1	O[C@H]1[C@H]2C[C@@H]1[C@H]2[C@H]1CO1	
InChI=1S/C7H10O2/c8-7-3-1-4(7)6(3)5-2-9-5/h3-8H,1-2H2	InChI=1S/C7H10O2/c8-7-3-1-4(7)6(3)5-2-9-5/h3-8H,1-2H2/t3-,4+,5-,6-,7-/m1/s1
