17
gdb 18912	3.89613	2.37806	2.12557	1.6429	70.21	-0.2192	0.0833	0.3025	732.93	0.144128	-326.677797	-326.671679	-326.670735	-326.707568	25.283	
C	-0.0486311577	 1.4927943425	 0.086481151	-0.504969
C	 0.0216335741	 0.0039156995	 0.0076329613	 0.377646
C	 1.1331568313	-0.8492298691	-0.5465049408	-0.121529
C	 0.5546306076	-1.8923039602	-1.4803398864	-0.243622
C	-0.7789152581	-2.0730557378	-0.7908129786	-0.047369
C	-0.655871602	-1.8712744757	 0.6752182622	-0.043809
C	 0.630807615	-1.0634089002	 0.8814237252	-0.166236
N	-1.262645588	-0.7959991789	-0.177016627	-0.196192
H	 0.9347630982	 1.914763492	 0.3170356685	 0.117168
H	-0.386283294	 1.9168490354	-0.8664950707	 0.124751
H	-0.7506103122	 1.8141757352	 0.8627010828	 0.128395
H	 2.1127688457	-0.4117333058	-0.6947890645	 0.087933
H	 0.4452846838	-1.5211110741	-2.505218391	 0.107423
H	 1.1333182885	-2.8222824334	-1.5047801946	 0.105512
H	-1.5611089193	-2.698353548	-1.2069963971	 0.093634
H	-1.230656749	-2.3859800969	 1.4362218817	 0.092093
H	 1.2404097561	-0.9938394047	 1.771353928	 0.089171
194.8448	220.5492	290.0221	402.1266	552.2748	586.9718	703.8977	744.6536	756.2974	777.1253	837.4298	852.7626	876.2531	897.8708	927.7973	950.6687	974.9883	991.3939	1025.8599	1035.5984	1056.6405	1073.5861	1122.9102	1148.3429	1176.4378	1198.2135	1223.8025	1238.9421	1291.291	1318.5673	1372.5072	1406.5089	1459.2711	1476.5108	1488.7513	1499.4813	3027.0166	3041.7537	3084.1513	3090.1402	3105.5873	3172.479	3183.6257	3195.7871	3213.1455
CC12C3CC4C(C13)N24	C[C@@]12[C@@H]3C[C@H]4[C@@H]([C@H]13)N24	
InChI=1S/C7H9N/c1-7-3-2-4-6(5(3)7)8(4)7/h3-6H,2H2,1H3	InChI=1S/C7H9N/c1-7-3-2-4-6(5(3)7)8(4)7/h3-6H,2H2,1H3/t3-,4+,5-,6+,7-,8?/m1/s1
