17
gdb 32967	4.75658	0.77926	0.70232	2.4794	71.38	-0.1991	0.0474	0.2465	1551.4323	0.136861	-455.1823	-455.173388	-455.172444	-455.216656	32.343	
O	-0.112989698	 1.454589468	 0.1233775543	-0.416423
C	 0.0128735417	 0.0427449812	 0.1163424097	-0.06168
C	-1.379841432	-0.5426413932	-0.1406663528	-0.310543
C	-1.4096065989	-2.0327677244	-0.1397899847	 0.283538
C	-1.5316442505	-2.9611357265	-1.1339772022	-0.177093
N	-1.4834451951	-4.2553267129	-0.6341586262	-0.362232
C	-1.333139774	-4.0967694366	 0.6510361918	 0.439559
O	-1.2369319713	-5.0630457394	 1.5815707756	-0.426612
N	-1.2758634803	-2.7942181451	 1.0266301556	-0.358757
H	 0.7630206478	 1.8365283037	 0.229198694	 0.288134
H	 0.70134969	-0.3036513166	-0.6691372648	 0.097485
H	 0.40387918	-0.329189842	 1.0780626487	 0.077648
H	-2.066955735	-0.1296685731	 0.6096527092	 0.11181
H	-1.7311834187	-0.184024309	-1.1128305135	 0.127129
H	-1.6566697335	-2.7768438984	-2.1902922308	 0.105967
H	-1.3067578596	-5.8997377102	 1.1047627494	 0.313696
H	-1.1885033025	-2.4559706155	 1.9698016967	 0.268375
61.2601	90.473	98.9142	249.9092	255.9596	291.3618	342.4581	390.4853	414.7249	457.5416	469.1817	647.4814	695.3189	729.238	775.8059	793.9898	833.5343	999.9149	1008.781	1033.4691	1066.3779	1080.4322	1152.9248	1199.3986	1211.9687	1237.5347	1242.8135	1291.0357	1315.492	1340.4785	1391.3307	1454.2948	1481.8994	1526.7172	1556.7002	1604.2421	1643.8223	2961.385	3001.7266	3025.873	3092.1896	3249.0303	3671.2984	3803.6566	3832.5921
OCCC1=CN=C(O)N1	OCCc1cnc(O)[nH]1	
InChI=1S/C5H8N2O2/c8-2-1-4-3-6-5(9)7-4/h3,8H,1-2H2,(H2,6,7,9)	InChI=1S/C5H8N2O2/c8-2-1-4-3-6-5(9)7-4/h3,8H,1-2H2,(H2,6,7,9)
