17
gdb 5577	3.34564	1.78941	1.18766	1.5618	72.46	-0.1776	0.0295	0.207	1009.5462	0.14224	-363.884746	-363.876379	-363.875435	-363.918199	29.905	
C	 0.2284081967	 1.4801518051	-0.1011807119	-0.322969
N	-0.055609228	 0.0585649881	 0.0014142707	-0.393203
C	 0.5492500987	-0.6592538501	 1.0408082897	 0.175358
C	 0.6458582866	-2.0207437901	 1.1533733893	 0.280082
C	 0.2211349683	-3.1458098615	 0.2813311966	-0.502811
O	 1.2676105474	-2.3391502272	 2.335987269	-0.179637
C	 1.55374077	-1.1789696538	 2.9685055963	-0.019284
C	 1.144368805	-0.1137109443	 2.2320413704	-0.251352
H	 1.3021042653	 1.7211816965	-0.1691715597	 0.107905
H	-0.2713563813	 1.8771964211	-0.9884006533	 0.120598
H	-0.1796517414	 2.0066767585	 0.7678970008	 0.131909
H	 0.033234843	-0.4096563526	-0.8889554725	 0.230503
H	-0.4672423127	-2.7827632895	-0.4876525529	 0.125555
H	 1.0630145247	-3.6367817856	-0.2247936343	 0.128666
H	-0.3055781398	-3.9151345982	 0.85708271	 0.137964
H	 2.0457425334	-1.2696391244	 3.9229072738	 0.126559
H	 1.2500080741	 0.925889928	 2.4966431177	 0.104157
44.8095	88.4981	183.0891	202.3116	221.9711	288.1316	329.0019	463.0793	574.4998	607.7616	641.0248	689.8354	730.278	759.8526	801.9288	909.9607	955.4119	1052.2173	1059.6445	1104.2301	1110.2753	1153.7562	1195.851	1210.4342	1248.5491	1325.0376	1411.6537	1450.7033	1466.1224	1474.3827	1488.0503	1492.3784	1495.0061	1522.1217	1545.6773	1680.3451	2967.1611	3012.1044	3065.3808	3066.2765	3107.5072	3113.6211	3259.2534	3282.8823	3584.2284
CNC1=C(C)OC=C1	CNc1c(C)occ1	
InChI=1S/C6H9NO/c1-5-6(7-2)3-4-8-5/h3-4,7H,1-2H3	InChI=1S/C6H9NO/c1-5-6(7-2)3-4-8-5/h3-4,7H,1-2H3
