19
gdb 93811	2.40972	1.51354	1.13826	2.8194	71.58	-0.2389	-0.0277	0.2112	1127.1802	0.158698	-460.187368	-460.178588	-460.177643	-460.220968	33.232	
C	 0.0807543087	 1.5424652121	-0.0917810351	-0.399275
C	 0.1363783025	 0.0304029622	 0.0185627752	 0.026727
O	 0.7870817064	-0.4832979845	-1.1491029807	-0.270445
C	 0.8345692027	-1.9034808382	-1.1813108021	-0.111385
C	 1.7848462027	-2.3886972622	-0.0872341057	 0.12204
O	 3.0912002732	-1.8958346669	-0.3287285811	-0.436616
C	 1.2556670603	-1.9255056506	 1.2849390062	-0.326263
C	 0.8601815992	-0.4543879813	 1.2889047043	 0.365484
O	 1.068982829	 0.2786504261	 2.2253761101	-0.298189
H	 1.0905227577	 1.9565135474	-0.1534643954	 0.131121
H	-0.4748711201	 1.8323648422	-0.9864366719	 0.122801
H	-0.403733423	 1.9632727132	 0.79084237	 0.139615
H	-0.8887398429	-0.3846819246	 0.059328826	 0.087623
H	-0.1729638589	-2.3326914141	-1.0595371433	 0.092556
H	 1.2192155311	-2.1765511154	-2.1673894196	 0.121688
H	 1.8601976162	-3.4815505291	-0.1045953858	 0.089705
H	 2.9897365325	-0.9805963415	-0.6208011886	 0.287386
H	 0.3500392648	-2.4990976516	 1.531529441	 0.120716
H	 1.990853748	-2.1002214333	 2.0730724263	 0.134711
60.9472	104.1031	178.2484	238.5745	279.0144	331.4907	366.4509	382.3951	439.7034	466.8412	493.983	539.9142	618.1698	717.839	820.0174	833.2936	855.2201	894.5962	966.9541	1011.8111	1032.4735	1060.3191	1112.6457	1117.6178	1150.7735	1171.6717	1217.8733	1262.077	1279.1805	1314.2784	1344.3984	1358.5225	1375.9345	1394.3388	1408.6269	1429.0146	1446.7195	1479.7155	1486.8295	1492.7215	1820.3716	2926.6963	2981.4205	3014.8112	3055.3325	3059.1494	3100.1904	3117.0809	3132.9453	3148.7464	3768.1907
CC1OCC(O)CC1=O	C[C@H]1OC[C@@H](O)CC1=O	
InChI=1S/C6H10O3/c1-4-6(8)2-5(7)3-9-4/h4-5,7H,2-3H2,1H3	InChI=1S/C6H10O3/c1-4-6(8)2-5(7)3-9-4/h4-5,7H,2-3H2,1H3/t4-,5+/m1/s1
