19
gdb 77950	3.29734	1.34704	1.09928	2.7187	76.29	-0.2416	0.0656	0.3073	1128.6568	0.159548	-422.947942	-422.940111	-422.939167	-422.979698	32.191	
O	 0.2546715355	 1.3712282439	-0.2402448872	-0.459172
C	 0.0716456423	 0.0060836157	-0.0579612235	 0.199014
C	-0.0033549452	-0.6412471262	 1.3773978973	-0.237729
C	-1.4516376491	-0.0956265682	 1.4962643304	 0.144462
O	-1.5680339217	 1.300108591	 1.7347781296	-0.456653
C	-1.363634437	-0.6392655452	 0.0292688115	-0.265645
C	-0.6522273454	-1.8424407676	 0.6673570152	 0.474909
C	-0.0781800482	-3.0871753911	 0.0895916023	-0.37024
C	-1.1533685019	-3.1505389815	 1.1737895108	-0.375427
H	-0.3197676162	 1.8161886824	 0.3992155353	 0.286159
H	 0.7496908189	-0.5058855277	-0.7446183793	 0.085511
H	 0.7606119939	-0.659135032	 2.155511288	 0.076462
H	-2.1145776412	-0.6544225033	 2.1667065462	 0.078762
H	-2.4882571937	 1.5514980669	 1.6041752644	 0.290971
H	-2.1488545117	-0.6563481112	-0.7286942633	 0.069035
H	-0.361078232	-3.3749288735	-0.918119936	 0.115525
H	 0.9317729965	-3.3739987157	 0.3653625945	 0.116517
H	-0.8514163971	-3.4803507328	 2.163029364	 0.114818
H	-2.1446354367	-3.4818852938	 0.8799942898	 0.112721
167.1838	214.6704	228.0165	283.0818	303.9746	338.247	434.4141	455.3198	476.9539	562.0991	630.0566	721.5981	725.5473	780.3619	827.366	859.0602	909.0693	928.4173	934.9754	949.3641	987.9545	1036.0232	1049.7748	1082.2125	1087.8217	1101.776	1111.2288	1124.0714	1167.3324	1177.8737	1186.5833	1204.4719	1222.6349	1264.6807	1305.8544	1338.4237	1409.9795	1439.6519	1463.935	1489.1999	1521.7107	3039.1648	3088.2915	3100.1697	3113.1474	3119.9354	3124.1102	3196.6809	3210.8691	3722.7025	3815.3831
OC1C2C(O)C1C21CC1	O[C@H]1[C@H]2[C@@H](O)[C@@H]1C12CC1	
InChI=1S/C7H10O2/c8-5-3-6(9)4(5)7(3)1-2-7/h3-6,8-9H,1-2H2	InChI=1S/C7H10O2/c8-5-3-6(9)4(5)7(3)1-2-7/h3-6,8-9H,1-2H2/t3-,4+,5-,6+
