16
gdb 61042	2.77417	1.17435	0.9876	4.9004	66.85	-0.2618	-0.0156	0.2462	1209.7896	0.123481	-475.05818	-475.049354	-475.048409	-475.093007	30.376	
C	 0.1715014986	 1.4424211383	-0.0497051402	-0.355757
N	-0.108282804	 0.0171066398	 0.0676174921	-0.063212
C	-0.3247175718	-0.5308220697	 1.3091326717	 0.152381
O	-0.3012061342	 0.0882174503	 2.3486780308	-0.33088
C	-0.0614161281	-0.7806793251	-1.1203019382	-0.158259
C	 1.206053113	-1.584101015	-1.5195807135	-0.093179
O	 0.4001616165	-2.8009943782	-1.617077062	-0.229412
C	-0.7257236695	-2.1797363218	-1.1474576692	 0.437893
O	-1.7857907003	-2.6559661884	-0.9109994979	-0.313928
H	 1.1941345271	 1.6216395361	-0.4021035231	 0.129317
H	-0.5284382914	 1.9124089675	-0.7493751013	 0.133579
H	 0.0533334731	 1.8833770804	 0.9395047358	 0.178367
H	-0.5397453889	-1.6124219499	 1.2587506807	 0.107368
H	-0.4379363958	-0.1899503793	-1.9618914087	 0.134175
H	 1.6686965456	-1.348571685	-2.4792646116	 0.133428
H	 1.9548191102	-1.67517955	-0.7300834054	 0.138119
36.842	96.2057	131.9338	139.5635	196.6954	299.9658	321.973	332.5173	415.3189	521.5584	587.4469	730.2908	767.1367	845.1735	924.4434	953.5752	977.5706	1021.0643	1066.1008	1114.236	1118.8142	1158.0686	1160.669	1199.9495	1262.9078	1325.258	1354.6849	1422.6569	1450.8419	1453.4022	1499.5314	1512.296	1516.9195	1800.5621	1943.9974	2988.8741	3024.9069	3063.0453	3076.0059	3080.4374	3144.5809	3163.9652
CN(C=O)C1COC1=O	CN(C=O)[C@H]1COC1=O	
InChI=1S/C5H7NO3/c1-6(3-7)4-2-9-5(4)8/h3-4H,2H2,1H3	InChI=1S/C5H7NO3/c1-6(3-7)4-2-9-5(4)8/h3-4H,2H2,1H3/t4-/m0/s1
