16
gdb 21288	3.23234	1.97646	1.24554	1.5876	67.51	-0.2089	0.0354	0.2443	957.6263	0.131228	-379.940922	-379.932776	-379.931832	-379.973636	28.842	
C	-0.0487540396	 1.3880616093	 0.0904530973	-0.232407
O	-0.0204241011	-0.0339844839	 0.0486570711	-0.265558
C	 0.6325483459	-0.6346069253	 1.0609459527	 0.396235
N	 1.2215742817	 0.0295551713	 2.0451049066	-0.328727
N	 1.7417069076	-0.9544282576	 2.8215179842	-0.220398
C	 1.486916834	-2.1946359378	 2.3391503976	-0.09872
C	 0.7579496559	-2.0444815847	 1.1788381604	 0.090172
C	 0.2182680784	-3.0862469206	 0.2519779237	-0.506556
H	 0.9646496596	 1.80273043	 0.0605952255	 0.130023
H	-0.6108338774	 1.704976092	-0.7894356661	 0.123587
H	-0.5407639475	 1.7450318518	 1.0016496549	 0.130085
H	 2.2495135949	-0.7010023367	 3.649538805	 0.270507
H	 1.8345527535	-3.08287598	 2.8443498521	 0.131118
H	-0.872724709	-3.0256618845	 0.1686763888	 0.1317
H	 0.6191760458	-2.9711287418	-0.7613720763	 0.131707
H	 0.4717316471	-4.0916297115	 0.5995366626	 0.117232
86.1618	109.3395	183.6662	189.8263	247.3008	298.8498	327.1061	386.038	534.1235	619.783	647.197	733.8935	764.1154	790.8584	939.2551	1007.1147	1056.4313	1067.874	1082.4817	1181.0867	1182.0803	1210.7927	1265.0047	1323.9883	1413.004	1424.2532	1452.6905	1478.9289	1481.1199	1486.0642	1502.3972	1504.7609	1561.9454	1635.1443	3028.3257	3029.7026	3078.308	3092.4572	3109.4411	3139.6427	3251.9433	3697.9909
COC1=NNC=C1C	COc1n[nH]cc1C	
InChI=1S/C5H8N2O/c1-4-3-6-7-5(4)8-2/h3H,1-2H3,(H,6,7)	InChI=1S/C5H8N2O/c1-4-3-6-7-5(4)8-2/h3H,1-2H3,(H,6,7)
