17
gdb 29834	3.87257	1.06188	0.84215	7.0646	84.76	-0.222	-0.0001	0.2218	1331.6856	0.136796	-380.937148	-380.928275	-380.927331	-380.970993	31.896	
C	 0.0084403031	 1.4474103405	 0.0304905562	-0.340999
N	 0.0128968223	-0.0027051973	 0.0151441227	-0.041221
C	 0.0018601997	-0.772068493	-1.1104702787	-0.195065
C	 0.01210133	-2.1005965947	-0.7244429331	 0.164594
C	 0.0304420325	-2.118673423	 0.7048475365	-0.364023
C	 0.0307237214	-0.8156528757	 1.1373586132	 0.324592
C	 0.046336031	-0.2572338211	 2.5212243533	-0.50312
C	 0.0053177654	-3.216984239	-1.5940779768	 0.195073
N	-0.0001038274	-4.1363337909	-2.2999741698	-0.35722
H	 0.9056156228	 1.837779755	 0.520965145	 0.147469
H	-0.0128790321	 1.8124013727	-0.997070533	 0.150365
H	-0.8716957492	 1.8314737911	 0.5554391958	 0.147504
H	-0.0124192807	-0.3317302434	-2.0940125161	 0.143197
H	 0.0418025117	-2.9973676944	 1.3299621427	 0.117922
H	 0.9293790481	 0.3657704435	 2.7098467331	 0.132963
H	-0.836701086	 0.3583918783	 2.7327472591	 0.132976
H	 0.0590905875	-1.0753427787	 3.2441305199	 0.144992
75.2144	123.6339	144.4185	161.3401	205.1524	269.8484	272.0857	408.714	510.1806	518.114	590.2194	631.7281	631.8491	668.1003	740.546	784.6095	819.5287	1000.4307	1010.8725	1064.0366	1083.2345	1150.8038	1162.7741	1187.7903	1236.952	1361.7569	1397.3199	1416.7444	1433.4221	1467.9418	1476.1428	1486.9489	1489.745	1516.2335	1563.2352	1608.9982	2341.1616	3020.4128	3041.1298	3065.1804	3100.0645	3129.5322	3146.5127	3261.9378	3269.7231
CN1C=C(C=C1C)C#N	Cn1cc(cc1C)C#N	
InChI=1S/C7H8N2/c1-6-3-7(4-8)5-9(6)2/h3,5H,1-2H3	InChI=1S/C7H8N2/c1-6-3-7(4-8)5-9(6)2/h3,5H,1-2H3
