18
gdb 5522	3.08943	1.79422	1.23282	3.4612	74.8	-0.2061	0.0377	0.2438	1017.7916	0.154862	-344.040277	-344.031885	-344.030941	-344.073702	30.249	
C	 0.1813216027	 1.4668310502	 0.4058563345	-0.365118
C	 0.0207584721	 0.0108888803	-0.0693817587	-0.307138
C	-1.3979255862	-0.4576153047	-0.1251932335	 0.233281
C	-2.256228899	-0.740918273	-1.1634769535	 0.204896
C	-2.0033825132	-0.6734596746	-2.6357045978	-0.490917
N	-3.4911094124	-1.1283884451	-0.6766387956	-0.308351
C	-3.3880454255	-1.0807950212	 0.6284980719	-0.001099
N	-2.1463807481	-0.6802195323	 1.0197745137	-0.295357
H	 1.2363287777	 1.7578401774	 0.4234974995	 0.114694
H	-0.3542785142	 2.1526022575	-0.2570400164	 0.127672
H	-0.2191083859	 1.6047616409	 1.4159417723	 0.108141
H	 0.4551543507	-0.0932866014	-1.0682990189	 0.118814
H	 0.6092163529	-0.6489965634	 0.5833153904	 0.103525
H	-0.9652206312	-0.4101651397	-2.8558597038	 0.112263
H	-2.21897423	-1.635242167	-3.1131589735	 0.132227
H	-2.6481932239	 0.0725253068	-3.1137300787	 0.130533
H	-4.1658482406	-1.3236401947	 1.3376235456	 0.122949
H	-1.8216417559	-0.5781186358	 1.9666378924	 0.258987
48.0041	91.3475	150.9884	203.5024	254.5119	283.6429	367.724	431.6995	504.8563	621.751	676.5435	696.2312	724.3165	783.9521	805.4776	957.384	965.8365	983.6422	1041.6065	1062.3592	1081.1074	1118.9698	1169.3651	1245.3638	1279.1955	1308.937	1353.2831	1383.2665	1410.7401	1414.1658	1461.2068	1475.1276	1480.2919	1495.9571	1497.5152	1504.9529	1526.9029	1634.857	3010.0727	3032.6133	3034.7346	3077.3315	3085.2865	3103.8583	3112.9807	3115.2922	3245.7439	3661.9228
CCC1=C(C)N=CN1	CCc1c(C)nc[nH]1	
InChI=1S/C6H10N2/c1-3-6-5(2)7-4-8-6/h4H,3H2,1-2H3,(H,7,8)	InChI=1S/C6H10N2/c1-3-6-5(2)7-4-8-6/h4H,3H2,1-2H3,(H,7,8)
