21
gdb 121298	4.20282	0.88204	0.76042	0.2264	81.56	-0.2418	0.0257	0.2675	1533.968	0.182468	-424.219529	-424.210315	-424.209371	-424.254055	33.731	
C	 0.7284079599	 1.414034169	 0.1947960287	-0.222365
O	 0.867123777	 0.014134205	 0.2153576857	-0.236885
C	-0.1756418023	-0.6313632163	 0.9105423306	-0.08528
C	 0.0948555017	-2.1299256651	 0.8883438129	 0.100562
C	 1.4218038384	-2.5182796679	 1.5476755648	-0.244285
C	 1.4628526609	-4.004542904	 1.7855114017	-0.072254
C	 0.3605190073	-4.7481448874	 1.7368157754	-0.064526
C	-0.9940305655	-4.1435699077	 1.4902152854	-0.115502
O	-0.9988721207	-2.7311623431	 1.5688543531	-0.268804
H	 0.7336864228	 1.8399372447	 1.2107019776	 0.104748
H	 1.5761080903	 1.8195834664	-0.3629603422	 0.126262
H	-0.2050219844	 1.7247914233	-0.3007296525	 0.104939
H	-0.2299496642	-0.2849834345	 1.9564671393	 0.092321
H	-1.1522800602	-0.4270797429	 0.4434686624	 0.093678
H	 0.1108807191	-2.4672732939	-0.1616236229	 0.07392
H	 2.251485103	-2.2011050622	 0.90708111	 0.119393
H	 1.5402517399	-1.973179217	 2.4953558804	 0.106691
H	 2.4277783957	-4.4609639718	 1.9896955204	 0.087985
H	 0.3946376021	-5.8259266955	 1.8724319846	 0.089071
H	-1.3822207762	-4.4773987381	 0.5094313931	 0.095245
H	-1.7114174846	-4.4897332911	 2.2443943614	 0.115086
68.2966	94.0479	118.5308	163.7337	212.2497	242.3172	323.8701	373.0185	391.9554	472.7922	528.7094	559.1089	668.3169	796.787	863.8656	914.3993	930.726	968.71	995.1032	1002.2833	1037.0508	1057.7953	1113.2754	1122.847	1135.9108	1174.9525	1182.5916	1210.0219	1213.8957	1232.4189	1255.21	1270.0272	1320.1551	1353.4709	1384.9032	1407.0984	1410.2584	1429.8433	1470.5409	1481.5987	1485.8861	1489.235	1503.8393	1528.1879	1727.1459	2928.3232	2958.4987	2964.4541	2973.8288	3000.9064	3009.3583	3014.6408	3045.0012	3073.0305	3113.3085	3151.3245	3174.5419
COCC1CC=CCO1	COC[C@H]1CC=CCO1	
InChI=1S/C7H12O2/c1-8-6-7-4-2-3-5-9-7/h2-3,7H,4-6H2,1H3	InChI=1S/C7H12O2/c1-8-6-7-4-2-3-5-9-7/h2-3,7H,4-6H2,1H3/t7-/m1/s1
