23
gdb 95239	2.60611	1.45678	1.17089	1.2374	84.99	-0.2343	0.0796	0.3139	1173.0782	0.207809	-388.286778	-388.278312	-388.277367	-388.319343	34.21	
C	-0.1548509395	 1.5672776447	 0.0884465446	-0.387294
C	 0.0314259534	 0.0444443838	 0.0041384244	 0.028496
C	 0.5308526079	-0.4142366593	-1.384739089	-0.201073
C	 1.9517434468	 0.0462655279	-1.764730382	-0.22219
C	 3.0446258985	-0.7444905921	-1.0631187631	-0.032076
C	 4.1814433748	-0.0343542062	-0.3495714686	-0.335547
C	 3.1176179602	-0.727966626	 0.4425000752	 0.12216
O	 2.2230454987	 0.0707561193	 1.1552241899	-0.251945
C	 0.8976565536	-0.4565746882	 1.1702186708	-0.077035
H	 0.807120473	 2.0865119086	 0.0853544865	 0.130798
H	-0.7503427173	 1.941336418	-0.7507133049	 0.105958
H	-0.6700783824	 1.8440145262	 1.0144432245	 0.108578
H	-0.9556463205	-0.4189350127	 0.1509645648	 0.066478
H	 0.4864793728	-1.5102279227	-1.439933018	 0.086772
H	-0.1781491286	-0.042956915	-2.1356353183	 0.087858
H	 2.0860947145	-0.053803915	-2.8482005325	 0.094384
H	 2.0628201769	 1.1133599881	-1.5487472068	 0.104233
H	 3.2879014938	-1.6950160968	-1.5318018831	 0.080863
H	 5.176733101	-0.4643457967	-0.3692473992	 0.109726
H	 4.1549546528	 1.0501154698	-0.3457419286	 0.120928
H	 3.3796287325	-1.6566749704	 0.9523377612	 0.078046
H	 0.4529982162	-0.1300933489	 2.1178189527	 0.09762
H	 0.9305789009	-1.5560414661	 1.1806092095	 0.084261
103.8185	179.8003	210.189	269.286	275.0683	303.0062	379.3189	382.6981	419.204	478.1991	608.6659	676.7406	741.2008	758.3066	798.3221	846.5159	887.1862	921.38	932.2653	952.1667	993.7599	1005.9931	1020.0274	1049.6267	1064.864	1088.9451	1107.9507	1131.5411	1161.6026	1169.9319	1180.9703	1237.3181	1249.4757	1251.3494	1309.3915	1343.6812	1350.6066	1364.8139	1386.1298	1389.1112	1404.6148	1411.8752	1428.2074	1475.9753	1482.558	1488.7488	1491.6054	1502.5463	1511.9946	2986.2863	2998.2542	3014.7163	3033.5722	3036.4135	3049.5946	3056.6424	3079.354	3080.5013	3097.2965	3116.9374	3132.1452	3135.5714	3221.7212
CC1CCC2CC2OC1	C[C@H]1CC[C@H]2C[C@H]2OC1	
InChI=1S/C8H14O/c1-6-2-3-7-4-8(7)9-5-6/h6-8H,2-5H2,1H3	InChI=1S/C8H14O/c1-6-2-3-7-4-8(7)9-5-6/h6-8H,2-5H2,1H3/t6-,7-,8+/m0/s1
