19
gdb 99146	4.06821	0.79646	0.70871	3.8233	75.44	-0.2214	0.0648	0.2862	1614.2441	0.158121	-456.355854	-456.345628	-456.344684	-456.392265	36.117	
C	-0.0180445141	 1.3876365067	 0.0933089057	-0.322249
N	-0.0959955312	-0.0439611867	-0.1263699511	-0.365631
C	 0.6606761863	-0.6329714779	-1.1207465446	 0.501544
O	 1.2718910809	 0.0036134452	-1.9632506313	-0.411058
N	 0.6524121609	-2.0136650005	-1.0762438435	-0.386081
C	 1.1984362143	-2.7609691469	-2.1668297956	 0.063531
C	 2.1212437169	-3.9319322982	-1.8874761379	-0.342685
C	 0.6984791397	-4.1631874013	-2.3471880438	 0.057025
O	-0.2644413763	-4.5689717861	-1.411362299	-0.427618
H	 0.7452668574	 1.6646385766	 0.8333905179	 0.116059
H	 0.2446423451	 1.8532766323	-0.8566919469	 0.167197
H	-0.9864198497	 1.7711202738	 0.42868217	 0.117587
H	-0.3341152177	-0.6150533988	 0.6688640565	 0.233888
H	-0.090894066	-2.483236349	-0.5793256395	 0.245874
H	 1.3900449932	-2.147827856	-3.0383369174	 0.131611
H	 2.9334941372	-4.1393514253	-2.5757516378	 0.117957
H	 2.3319022497	-4.1377330388	-0.84308352	 0.113364
H	 0.5285028248	-4.5290362046	-3.3586023791	 0.095585
H	-0.0488366514	-5.4607904145	-1.1208712927	 0.2941
34.7943	69.9628	96.5196	123.5482	150.9159	231.5525	289.9389	308.5381	332.6935	395.362	433.8513	500.6641	533.5339	593.3125	744.6738	755.8515	773.5112	829.5383	914.8597	963.3717	1001.7695	1015.8355	1063.8596	1125.6694	1134.9789	1151.3141	1170.6381	1174.5496	1206.235	1240.8256	1255.4166	1299.9992	1360.0718	1411.5161	1440.2092	1470.2628	1492.5475	1500.6935	1521.5891	1561.3646	1781.9979	3009.0806	3079.6883	3110.9458	3129.3402	3156.535	3199.6482	3223.7887	3598.9779	3626.4128	3814.4337
CNC(=O)NC1CC1O	CNC(=O)N[C@H]1C[C@H]1O	
InChI=1S/C5H10N2O2/c1-6-5(9)7-3-2-4(3)8/h3-4,8H,2H2,1H3,(H2,6,7,9)	InChI=1S/C5H10N2O2/c1-6-5(9)7-3-2-4(3)8/h3-4,8H,2H2,1H3,(H2,6,7,9)/t3-,4+/m0/s1
