21
gdb 120509	4.58631	0.70193	0.65486	2.3326	80.97	-0.247	0.0117	0.2587	1722.0355	0.182302	-424.227487	-424.217852	-424.216908	-424.262744	35.529	
O	-0.1463675948	 1.5080645406	 0.0846956813	-0.420051
C	 0.0187529326	 0.0987898819	 0.0328611248	-0.079486
C	-1.3678749132	-0.5288902854	-0.0400786342	-0.178645
C	-1.3568958254	-2.0649722239	-0.0654748928	-0.034627
C	-2.7667912819	-2.6995611215	 0.0585255746	-0.266378
C	-2.759528724	-3.9633580555	-0.8398938591	 0.10908
O	-3.9873066417	-4.2112085305	-1.5129315683	-0.433689
C	-1.5834532359	-3.7126185815	-1.7560612971	-0.130522
C	-0.8359628801	-2.6901346176	-1.3453304083	-0.064916
H	 0.72542989	 1.9123987573	 0.116698301	 0.285309
H	 0.6193254614	-0.1956222536	-0.8426888225	 0.085216
H	 0.5457123274	-0.2742732874	 0.927039383	 0.084199
H	-1.9399472456	-0.1831621567	 0.8294019996	 0.106927
H	-1.8844589974	-0.1455837706	-0.9286193471	 0.101953
H	-0.7308959676	-2.4089476709	 0.7731653703	 0.079639
H	-3.0537428926	-2.9106255393	 1.0914554563	 0.102107
H	-3.513407451	-2.0060757133	-0.348669825	 0.095752
H	-2.5990972433	-4.8720830018	-0.245209856	 0.093136
H	-4.1392982521	-3.4704191378	-2.1107342132	 0.272281
H	-1.3947405325	-4.3386190794	-2.6215118952	 0.097404
H	 0.0715114076	-2.3482091029	-1.8324068423	 0.095312
49.7461	82.4514	101.38	167.5476	228.9307	266.2014	303.2777	323.6053	354.3262	433.4585	454.0801	578.7615	622.2673	742.4762	783.1396	799.3062	863.6423	875.9707	956.7437	979.6916	989.4421	1025.7205	1044.9255	1072.1027	1074.2564	1116.1324	1123.6623	1152.5056	1170.5529	1220.7444	1240.9896	1255.6533	1284.8567	1301.2737	1310.7716	1325.0563	1334.4467	1364.5266	1385.4979	1428.8839	1463.0282	1484.9191	1492.9128	1526.6997	1680.4787	2958.282	2974.4135	2986.3499	3022.7598	3028.6254	3035.7056	3072.8726	3101.7725	3176.1527	3203.5034	3793.7168	3830.1519
OCCC1CC(O)C=C1	OCC[C@H]1C[C@@H](O)C=C1	
InChI=1S/C7H12O2/c8-4-3-6-1-2-7(9)5-6/h1-2,6-9H,3-5H2	InChI=1S/C7H12O2/c8-4-3-6-1-2-7(9)5-6/h1-2,6-9H,3-5H2/t6-,7-/m0/s1
