17
gdb 127979	3.35583	1.29757	0.94857	4.3931	74.29	-0.2031	0.0326	0.2357	1217.4995	0.135528	-451.316959	-451.307375	-451.306431	-451.352467	33.115	
C	 0.0419205012	 1.3760991723	-0.092161631	-0.319767
N	 0.0211891106	-0.0790222116	-0.0804596699	-0.403762
C	-1.1015725277	-0.6517486455	-0.0267274599	 0.539702
O	-2.343003083	-0.0887238945	 0.0125174467	-0.262356
N	-3.3452278068	-1.1207639514	 0.0650031634	-0.231136
C	-2.6590541599	-2.2208512404	 0.0850883766	 0.445756
N	-3.2087825195	-3.4754504489	 0.239786771	-0.597239
N	-1.3070201309	-2.0284844955	 0.0185749283	-0.168521
C	-0.2474165159	-3.0086284735	 0.1040545163	-0.355523
H	 1.0806540549	 1.7154102381	-0.0777917745	 0.115314
H	-0.4364792829	 1.7891295248	-0.9909439889	 0.118573
H	-0.471870805	 1.8105545387	 0.7764167872	 0.119162
H	-4.219830071	-3.4430606351	 0.2062991572	 0.274671
H	-2.8400458408	-4.1738860853	-0.393031016	 0.263891
H	-0.0571660815	-3.4896029442	-0.8624612484	 0.13483
H	 0.6559511738	-2.4778571504	 0.409521224	 0.180449
H	-0.5022630155	-3.7706055675	 0.8454817079	 0.145956
29.2721	92.9038	116.7842	137.0295	177.7911	262.7612	268.1541	306.6474	347.5347	373.285	582.523	625.821	642.7321	715.8137	751.5117	755.233	775.9984	916.8742	969.7221	1082.5093	1124.0089	1147.7695	1155.8201	1163.6316	1179.4272	1268.9999	1366.3477	1430.8544	1447.3363	1490.8151	1494.3843	1500.8795	1511.3667	1556.8901	1626.4965	1691.2221	1799.1579	2996.1916	3030.2462	3043.459	3099.6082	3101.2745	3148.3847	3543.6523	3640.8608
CN=C1ON=C(N)N1C	CN=c1onc(N)n1C	
InChI=1S/C4H8N4O/c1-6-4-8(2)3(5)7-9-4/h1-2H3,(H2,5,7)	InChI=1S/C4H8N4O/c1-6-4-8(2)3(5)7-9-4/h1-2H3,(H2,5,7)
