21
gdb 75497	2.18384	1.79037	1.22101	1.4941	84.57	-0.2266	0.0203	0.247	1115.9478	0.182399	-387.087657	-387.078885	-387.07794	-387.12046	34.345	
C	-0.0999349542	 1.4990022473	 0.0294893788	-0.4881
C	-0.0267983756	-0.0027582275	-0.0097417106	 0.253696
C	-0.036831992	-0.7064138809	-1.1435377913	-0.174556
C	 0.1057137678	-2.2069362781	-1.1388453684	-0.128567
O	 0.9053924151	-2.6721605323	-0.0569168566	-0.258137
C	 0.5240031492	-2.1688558718	 1.1888610654	 0.064471
C	 1.42578363	-1.1391933352	 1.8210901988	-0.345137
C	 0.0505818906	-0.7434865327	 1.2913254543	 0.217332
C	-1.0288672345	-0.4229682106	 2.3113800844	-0.468965
H	 0.7597584912	 1.919779125	 0.5661590502	 0.126423
H	-0.1138183946	 1.9211030549	-0.97885491	 0.119839
H	-0.9971339345	 1.8482063206	 0.554498604	 0.12582
H	-0.1208450328	-0.2122180565	-2.108078645	 0.084017
H	-0.8849890329	-2.6941334519	-1.1224204121	 0.097003
H	 0.6138796781	-2.5483246944	-2.0462824662	 0.113124
H	 0.0520684381	-2.9111719326	 1.832319531	 0.082183
H	 1.5764684241	-1.1616488967	 2.8959008379	 0.104835
H	 2.2912961611	-0.8508390665	 1.2356270996	 0.119597
H	-0.9488165504	 0.6080748533	 2.6724692633	 0.120097
H	-2.0293796994	-0.5535728831	 1.8837236202	 0.119252
H	-0.9476363044	-1.0810509505	 3.182122542	 0.115774
112.2943	177.8252	202.548	232.5675	242.1475	275.1467	293.9626	374.6472	432.2032	469.292	535.7639	595.9629	649.8117	730.4699	790.0314	817.6085	868.4448	920.8478	934.6456	953.8502	1025.7132	1033.9638	1045.0483	1063.0232	1068.3731	1086.8909	1105.588	1122.5274	1168.7295	1190.9101	1256.5558	1268.4148	1297.7844	1369.6128	1391.1558	1408.5262	1415.2735	1418.7227	1473.0028	1478.0581	1487.8544	1496.3684	1497.0764	1505.4742	1730.3105	2949.2379	3020.3121	3026.3704	3069.2651	3071.3871	3090.3611	3096.6373	3102.0178	3111.8835	3127.7536	3159.2515	3224.2165
CC1=CCOC2CC12C	CC1=CCO[C@H]2C[C@@]12C	
InChI=1S/C8H12O/c1-6-3-4-9-7-5-8(6,7)2/h3,7H,4-5H2,1-2H3	InChI=1S/C8H12O/c1-6-3-4-9-7-5-8(6,7)2/h3,7H,4-5H2,1-2H3/t7-,8-/m0/s1
