19
gdb 42014	3.38586	1.50201	1.09881	2.872	77.3	-0.2121	0.0249	0.237	1099.5987	0.163374	-419.22315	-419.215814	-419.21487	-419.254934	28.596	
C	 0.0165576829	 1.4270004659	-0.1070027802	-0.170453
C	 1.4711341627	 1.8482720379	 0.2242270248	-0.189444
N	 2.1672372537	 0.5621965927	 0.1175122911	-0.108793
C	 3.4451564208	 0.3612209985	 0.7797335568	-0.160824
C	 3.8282688866	-1.1146965492	 0.6882760736	-0.084284
O	 2.7924259558	-1.9367580477	 1.1933403114	-0.241212
C	 1.6204882955	-1.8383965862	 0.39885454	-0.188861
C	 1.1778125569	-0.4107765229	 0.2296954468	 0.369276
N	-0.0372130828	-0.029940669	 0.1234640051	-0.326802
H	-0.7258515678	 1.9446261781	 0.5062300895	 0.111343
H	-0.2268206902	 1.6337080374	-1.1574594851	 0.109486
H	 1.8837708672	 2.5890520576	-0.4666588132	 0.108878
H	 1.56080221	 2.2469338484	 1.2480256452	 0.096185
H	 4.215860017	 0.9759431523	 0.2990202047	 0.107573
H	 3.3910590274	 0.6632512645	 1.839892135	 0.101195
H	 4.0522620879	-1.3787212133	-0.3583691581	 0.097276
H	 4.715570002	-1.3144364446	 1.2942994795	 0.116139
H	 1.7963153805	-2.2816805187	-0.5962063495	 0.110854
H	 0.8335373138	-2.4077340017	 0.8946698526	 0.142468
121.9872	157.356	228.9707	270.5295	352.9587	367.0677	457.8448	520.3081	601.5261	666.2344	741.7489	774.5565	869.2376	884.3254	948.5647	956.4258	979.163	1002.9982	1028.3782	1098.5876	1114.4811	1135.0328	1154.5198	1200.3587	1222.8133	1236.8308	1257.0181	1262.2187	1295.0609	1322.1014	1337.0043	1364.2632	1379.4469	1412.5855	1445.363	1476.1739	1491.9715	1496.064	1506.8433	1532.1432	1713.676	2956.2493	2964.4515	2968.9792	2977.6742	3020.1285	3047.4137	3074.8822	3087.2364	3100.4751	3130.6706
C1CN2CCOCC2=N1	C1CN2CCOC[C]2[N]1	
InChI=1S/C6H10N2O/c1-2-8-3-4-9-5-6(8)7-1/h1-5H2	InChI=1S/C6H10N2O/c1-2-8-3-4-9-5-6(8)7-1/h1-5H2
