20
gdb 93965	4.02775	0.96501	0.88418	0.367	74.97	-0.2439	0.0692	0.3132	1354.7009	0.172164	-440.253762	-440.245137	-440.244192	-440.287922	32.418	
O	-0.4132534997	 1.2827988389	 0.8513505842	-0.442932
C	-0.128733247	 0.1996466241	-0.0201748842	 0.142133
C	 0.844074834	-0.7925696043	 0.614367817	-0.119733
O	 0.0301738523	-1.5376289779	 1.5194461896	-0.27845
C	-1.278479848	-1.7061290324	 0.9389789446	 0.098991
C	-1.3491394507	-0.7113816541	-0.2476390432	-0.286951
C	-1.5050028803	-3.1470565319	 0.5465305334	 0.015863
C	-2.0668041034	-4.1084669002	 1.5217890313	-0.244376
N	-2.8786947983	-3.6505407594	 0.3778462309	-0.324221
H	-0.5316742949	 0.9136327246	 1.7344353483	 0.288411
H	 0.2468806555	 0.6418363328	-0.9461048855	 0.089679
H	 1.3044218863	-1.444091415	-0.144607377	 0.09302
H	 1.6348959483	-0.3043203467	 1.1897080014	 0.11629
H	-2.0075953034	-1.444695116	 1.719515248	 0.068479
H	-2.2754501956	-0.1352250898	-0.2680978492	 0.11681
H	-1.2554920254	-1.2445945211	-1.1993520625	 0.111901
H	-0.8115529477	-3.5187204474	-0.2068172444	 0.090668
H	-1.7768764647	-5.1543377241	 1.4855418321	 0.121737
H	-2.3080511991	-3.7390847306	 2.5155071489	 0.113912
H	-3.5446891582	-2.9467477294	 0.6915765764	 0.228765
46.483	81.5414	131.4906	196.9665	302.5084	333.9446	376.8486	406.9347	441.0505	475.833	712.4623	769.2981	813.2721	860.4544	865.9167	886.6564	890.2626	930.2864	965.3233	966.3571	990.4889	1044.5576	1062.3335	1084.083	1108.2364	1129.4702	1158.9295	1175.1476	1221.8958	1235.735	1250.0031	1269.7633	1291.8814	1301.399	1305.634	1343.1069	1346.031	1376.6144	1430.5515	1442.7497	1480.0013	1511.0906	1512.4023	2985.003	2994.4376	3056.6241	3092.8599	3098.7333	3109.1986	3116.4076	3125.4908	3195.6373	3478.4983	3792.5755
OC1COC(C1)C1CN1	O[C@H]1CO[C@@H](C1)[C@H]1CN1	
InChI=1S/C6H11NO2/c8-4-1-6(9-3-4)5-2-7-5/h4-8H,1-3H2	InChI=1S/C6H11NO2/c8-4-1-6(9-3-4)5-2-7-5/h4-8H,1-3H2/t4-,5-,6+/m1/s1
