16
gdb 22356	3.54895	1.07257	0.84967	2.1018	68.7	-0.2594	-0.0405	0.2189	1278.0369	0.122727	-475.009072	-475.000608	-474.999664	-475.042414	31.711	
O	-0.1349020366	 1.2614189739	-0.6272750765	-0.390267
N	 0.039655982	-0.0606690069	-0.1902912314	-0.211547
C	-1.0671851155	-0.576346843	 0.1634042259	 0.382371
C	-1.1571565199	-2.0021968626	 0.6678994296	-0.31954
C	-2.577413029	-2.4233853672	 0.2453643666	 0.060171
O	-3.1395311641	-3.4629660766	 0.9881214766	-0.440539
C	-3.3691072878	-1.1197223605	 0.3843305219	 0.356434
O	-4.5143520689	-1.0891237452	 0.7598194771	-0.322263
C	-2.442814053	 0.0524114876	 0.0925382519	-0.41957
H	 0.7584339281	 1.5126990213	-0.886091221	 0.311317
H	-0.3628690071	-2.6372059818	 0.2748660193	 0.135086
H	-1.1051386244	-2.0277435883	 1.7645335208	 0.134301
H	-2.5601485726	-2.667784862	-0.8341525578	 0.102325
H	-4.0450598448	-3.1811720836	 1.1902340762	 0.294118
H	-2.591004347	 0.8593766326	 0.8179704052	 0.163112
H	-2.6344394993	 0.4892468322	-0.8945589243	 0.16449
72.262	102.093	198.4113	267.9452	299.6797	350.2655	381.856	393.6625	435.4965	489.4114	518.1642	607.0305	616.7318	674.9978	752.395	837.434	902.4117	937.6506	984.7879	1016.6116	1097.1345	1142.8586	1157.307	1175.3929	1235.657	1241.5117	1251.017	1284.3476	1371.9984	1399.7031	1417.6285	1422.3524	1479.607	1758.0537	1846.8786	2925.3356	3031.0495	3051.3527	3086.7029	3131.1336	3708.7309	3816.0361
ON=C1CC(O)C(=O)C1	ON=C1C[C@@H](O)C(=O)C1	
InChI=1S/C5H7NO3/c7-4-1-3(6-9)2-5(4)8/h4,7,9H,1-2H2	InChI=1S/C5H7NO3/c7-4-1-3(6-9)2-5(4)8/h4,7,9H,1-2H2/t4-/m1/s1
