20
gdb 93039	2.76058	1.49946	1.13284	2.0981	79.84	-0.2273	0.0009	0.2282	1114.629	0.172766	-403.117302	-403.109325	-403.108381	-403.149414	32.132	
O	 0.2514455998	 1.2694193109	-0.3842865183	-0.430462
C	 0.066044596	-0.083478123	 0.0156277243	 0.124742
C	 0.7799518265	-0.404115245	 1.3536227741	-0.275769
C	-0.0216843288	-0.0508089574	 2.5865596339	-0.082027
C	-1.1459858613	-0.6954534467	 2.9066941844	-0.072529
C	-1.6543317997	-1.8283005504	 2.076913482	-0.046397
C	-2.9716287435	-1.7972134822	 1.3812014194	-0.254644
N	-1.7306109452	-1.715864379	 0.608711258	-0.095602
C	-1.4373251668	-0.3995978428	 0.044951936	-0.167451
H	-0.1922146786	 1.8288915955	 0.2631166381	 0.278338
H	 0.5502690456	-0.6720088833	-0.7696040677	 0.097108
H	 0.9987568037	-1.4785052691	 1.366276473	 0.122094
H	 1.7407785126	 0.1173090587	 1.3427497044	 0.106974
H	 0.3341624798	 0.7563194129	 3.2221919023	 0.091976
H	-1.6975590988	-0.4382044466	 3.8081034714	 0.092259
H	-1.3038422686	-2.8105820539	 2.3997346362	 0.101108
H	-3.5507219971	-2.7089504597	 1.2621678403	 0.114538
H	-3.5659850254	-0.8891569528	 1.4725047862	 0.109803
H	-1.9355753837	 0.410840535	 0.6043245677	 0.074977
H	-1.8309991166	-0.3691593609	-0.9759321356	 0.110965
108.6908	181.8468	265.4428	296.1424	299.8467	345.2983	383.9921	428.615	476.5479	524.901	593.2171	709.6896	737.5171	809.2869	819.0681	846.4669	916.0244	935.479	960.3835	990.5797	1026.9608	1050.8519	1060.9273	1098.754	1109.7469	1120.275	1129.2105	1171.9243	1206.9127	1234.2526	1256.0897	1278.4282	1312.0719	1321.0325	1349.6177	1380.5103	1401.4179	1421.3144	1426.8362	1477.6515	1490.8903	1507.1358	1698.6915	2950.5883	3034.2791	3064.1069	3077.1224	3078.7751	3091.1185	3095.4744	3142.1188	3166.252	3178.9655	3795.9736
OC1CC=CC2CN2C1	O[C@H]1CC=C[C@H]2CN2C1	
InChI=1S/C7H11NO/c9-7-3-1-2-6-4-8(6)5-7/h1-2,6-7,9H,3-5H2	InChI=1S/C7H11NO/c9-7-3-1-2-6-4-8(6)5-7/h1-2,6-7,9H,3-5H2/t6-,7-,8?/m0/s1
