15
gdb 28125	5.27385	1.27972	1.03318	2.9758	75.96	-0.167	0.0319	0.199	1083.5023	0.116794	-413.031396	-413.02404	-413.023096	-413.062845	28.68	
N	 0.1667889863	 1.3819587249	 0.1124489791	-0.605355
C	-0.002645406	-0.0112365707	 0.0200299607	 0.329892
C	-1.1510799414	-0.7855456193	-0.0216541614	-0.411522
C	-0.6824450648	-2.1313860016	-0.0106112978	 0.338456
C	 0.7003470609	-2.1271614485	 0.0237095303	 0.337781
N	 1.126057081	-0.8152458647	 0.0301099645	-0.421917
N	 1.2520858491	-3.3716071263	 0.0110804349	-0.360832
C	 0.1934520388	-4.1623161228	-0.0252885496	-0.019498
N	-1.0033500461	-3.4734611533	-0.0429494045	-0.407615
H	 0.5680725404	 1.7829346201	-0.7307744548	 0.244847
H	-0.7184411482	 1.8403513421	 0.2873978541	 0.247234
H	-2.1589924328	-0.4065834616	-0.0810949917	 0.085153
H	 2.0488368899	-0.4801758429	 0.2451819294	 0.261639
H	 0.2223150542	-5.2410213914	-0.0378065846	 0.121551
H	-1.9176469513	-3.8881977739	-0.0804390786	 0.260187
152.3357	152.7476	264.8667	316.7326	335.5755	394.8494	440.3819	522.7368	570.4869	636.1691	648.9934	704.5258	737.2079	764.6939	770.7287	807.144	849.418	961.919	1006.2915	1087.5431	1136.1595	1162.2317	1190.1931	1247.1411	1294.0021	1381.586	1439.0297	1462.323	1496.391	1529.1406	1578.3212	1606.0995	1651.5332	3250.7813	3258.0276	3488.1589	3604.1701	3682.4936	3683.6914
NC1=CC2=C(N1)N=CN2	Nc1cc2c([nH]1)nc[nH]2	
InChI=1S/C5H6N4/c6-4-1-3-5(9-4)8-2-7-3/h1-2,9H,6H2,(H,7,8)	InChI=1S/C5H6N4/c6-4-1-3-5(9-4)8-2-7-3/h1-2,9H,6H2,(H,7,8)
