18
gdb 98784	4.05045	0.99423	0.91731	3.1664	72.43	-0.2448	-0.0223	0.2225	1323.8461	0.147003	-439.117138	-439.108125	-439.10718	-439.152387	31.47	
C	-0.3274264847	 1.5099989059	 0.0661714948	-0.3779
C	 0.056441558	 0.0361867809	-0.036603774	-0.294093
C	 0.7002153197	-0.3323319256	-1.3642668856	 0.362766
O	 1.0134235654	 0.4811154643	-2.1977917351	-0.291168
C	 0.8902167979	-1.8329330002	-1.6026357167	-0.010158
C	-0.3819236023	-2.4814114224	-2.2498527005	-0.199864
N	 0.0566986596	-2.8857171908	-3.5920586088	-0.256571
C	 1.2889147887	-2.6053365137	-3.6549458817	 0.130255
O	 1.9142539713	-2.0514987095	-2.5875638684	-0.205307
H	 0.5452632989	 2.147875735	-0.0912267507	 0.139666
H	-1.0656143761	 1.7758085021	-0.6951707424	 0.132047
H	-0.7502571533	 1.7318214467	 1.0496013567	 0.114027
H	 0.7696029827	-0.2428947955	 0.7530464904	 0.130273
H	-0.8109992648	-0.6193265079	 0.1248845422	 0.123586
H	 1.1909901246	-2.3331468986	-0.6775330316	 0.103761
H	-0.7345067564	-3.3529894982	-1.6893554834	 0.12425
H	-1.2173514626	-1.7773943096	-2.3259311153	 0.126124
H	 1.9336556035	-2.7783405627	-4.5086378198	 0.148307
46.4883	62.8583	70.4361	172.133	199.0321	236.0178	311.7252	357.4039	490.3783	552.0271	656.9343	747.3071	794.6813	809.895	881.3804	937.9211	959.3935	978.3594	980.5063	1007.854	1020.2519	1076.3147	1101.8742	1126.4138	1139.8946	1199.7429	1270.1463	1287.8098	1313.0561	1330.6331	1358.3089	1385.0443	1414.6659	1450.4285	1493.0065	1496.4647	1498.4813	1713.562	1824.6374	3010.6771	3036.9616	3042.4643	3053.6793	3064.6389	3082.0294	3123.7046	3132.6074	3226.4783
CCC(=O)C1CN=CO1	CCC(=O)[C@H]1CN=CO1	
InChI=1S/C6H9NO2/c1-2-5(8)6-3-7-4-9-6/h4,6H,2-3H2,1H3	InChI=1S/C6H9NO2/c1-2-5(8)6-3-7-4-9-6/h4,6H,2-3H2,1H3/t6-/m1/s1
