15
gdb 56724	2.82449	1.34513	1.02363	2.0887	71.82	-0.2672	-0.0028	0.2644	1127.2369	0.110528	-416.740332	-416.731254	-416.73031	-416.774278	32.997	
O	 0.4146253745	 1.5140427907	-0.1002606219	-0.389945
C	 0.1131699746	 0.1439419227	 0.0396085604	-0.075986
C	 0.4718507755	-0.5979428567	-1.1909147488	 0.255796
N	 0.79003739	-1.1633703993	-2.147465754	-0.323456
C	 0.7740836002	-0.4848810701	 1.2776620268	 0.019866
C	 1.056733514	-1.9517277525	 1.3149175895	-0.26304
N	 2.1636826622	-1.0001839577	 1.1837639585	-0.335999
C	 0.4420965444	 0.2094598242	 2.4970233481	 0.298636
C	 0.1278898412	 0.7786652621	 3.5070148933	-0.379063
H	 1.3723310337	 1.6240971754	-0.0574523033	 0.301139
H	-0.9743606614	 0.097019772	 0.1610648757	 0.157066
H	 0.9965126634	-2.4572922502	 2.2730243235	 0.141209
H	 0.7746557011	-2.5477626729	 0.4517319199	 0.144302
H	 2.4741491505	-0.9802017644	 0.2124278701	 0.24731
H	-0.135339754	 1.2843682566	 4.4032976022	 0.202165
53.7029	125.9103	168.6137	193.4499	226.0568	257.7369	314.9252	365.4314	416.5933	501.9682	543.8686	554.6671	611.5067	626.0387	673.3105	735.4232	871.7311	882.9624	935.2065	965.5232	999.9976	1076.5631	1101.2735	1149.0548	1242.2025	1269.5286	1279.8055	1315.663	1369.7312	1417.2632	1503.4638	2245.4044	2351.5928	3067.3069	3121.9893	3216.128	3470.1421	3501.2129	3793.1762
OC(C#N)C1(CN1)C#C	O[C@@H](C#N)[C@]1(CN1)C#C	
InChI=1S/C6H6N2O/c1-2-6(4-8-6)5(9)3-7/h1,5,8-9H,4H2	InChI=1S/C6H6N2O/c1-2-6(4-8-6)5(9)3-7/h1,5,8-9H,4H2/t5-,6+/m0/s1
