21
gdb 56888	3.00561	1.05298	0.91073	3.1612	83.38	-0.2338	0.0326	0.2664	1376.4188	0.182107	-383.267767	-383.258058	-383.257114	-383.302475	35.528	
C	-0.0350875999	 1.5638445959	 0.0300526545	-0.39136
C	 0.0532198158	 0.0314388439	 0.0184067202	-0.096748
C	 0.9736698118	-0.4426453956	 1.0890513471	 0.25411
N	 1.6382395217	-0.8488991545	 1.9441242617	-0.336101
N	-1.2616147216	-0.5688806493	 0.1107610025	-0.064449
C	-2.0543684263	-0.4755223277	 1.3584405047	-0.192201
C	-2.6077320197	-1.8982377405	 1.0692426522	 0.012832
C	-3.9845208353	-1.9293374244	 0.4179622544	-0.394961
C	-1.4148168976	-2.0395997349	 0.0845803014	-0.192521
H	 0.9546883305	 2.0114775962	-0.0874590724	 0.135624
H	-0.6798886795	 1.8882505933	-0.7896712618	 0.134158
H	-0.4601529783	 1.9191346968	 0.9727061287	 0.138823
H	 0.4912250267	-0.2907487986	-0.9349019793	 0.127992
H	-1.4365032109	-0.4431567267	 2.2678928784	 0.109382
H	-2.7730304354	 0.3508938528	 1.379728143	 0.101866
H	-2.5689517819	-2.5773468958	 1.9229254972	 0.083278
H	-4.0249275724	-1.2485217805	-0.4387408737	 0.126707
H	-4.229589378	-2.9358411355	 0.0622141366	 0.116699
H	-4.7628145799	-1.6275839483	 1.1270929125	 0.116493
H	-1.620813506	-2.4534438751	-0.9092034607	 0.100882
H	-0.5651539738	-2.5762167016	 0.5317609427	 0.109494
76.1215	84.4596	139.6925	169.5646	220.0298	244.7189	249.2226	315.1243	333.954	395.2583	427.871	555.6316	579.5692	700.0719	794.239	810.5724	891.7907	891.8908	917.8071	956.5871	993.7541	1051.0665	1071.3546	1097.2166	1117.961	1152.3574	1160.1047	1171.4661	1219.8949	1236.3931	1263.5076	1292.5733	1321.3887	1342.52	1364.4449	1375.4249	1405.6989	1413.0135	1487.615	1496.3881	1497.0839	1497.9467	1505.854	1525.1485	2337.5832	2990.942	2997.751	3029.9625	3033.0072	3052.9697	3056.1969	3061.7759	3085.5275	3096.8984	3109.3111	3129.7356	3139.6514
CC(C#N)N1CC(C)C1	C[C@@H](C#N)N1C[C@@H](C)C1	
InChI=1S/C7H12N2/c1-6-4-9(5-6)7(2)3-8/h6-7H,4-5H2,1-2H3	InChI=1S/C7H12N2/c1-6-4-9(5-6)7(2)3-8/h6-7H,4-5H2,1-2H3/t7-/m0/s1
