18
gdb 44144	3.40281	1.16581	1.06234	2.3995	77.64	-0.2314	-0.0205	0.2109	1188.4775	0.147205	-401.896862	-401.889013	-401.888069	-401.92989	30.295	
O	 0.0233200488	 0.0126307102	 0.2106036262	-0.304693
C	 0.0033857519	 1.1973274264	 0.0430736648	 0.404309
C	-1.1424202613	 2.2502154648	 0.0380262158	-0.379541
C	-0.0376915491	 3.3206368956	 0.0254280099	-0.035317
C	 1.0769983139	 2.2684601564	-0.0044338151	-0.174483
N	 0.8346330478	 3.1975665484	-1.1063803737	-0.088073
C	 0.4064388297	 2.7655800908	-2.4127847107	 0.063498
C	 0.3230370908	 3.8354823435	-3.4681463986	-0.275502
C	 1.444222311	 2.825828256	-3.4998133933	-0.270027
H	-1.8561918036	 2.25247176	-0.7887923482	 0.127879
H	-1.6901154872	 2.1921137551	 0.9835169394	 0.134028
H	-0.0406895416	 4.2453291626	 0.5908683449	 0.111127
H	 2.0588593968	 2.2397153161	 0.4548872993	 0.111794
H	-0.3161541892	 1.954447006	-2.4751666172	 0.095039
H	-0.4679622115	 3.7641211599	-4.2060337509	 0.115411
H	 0.5707302897	 4.8441905166	-3.1588584193	 0.122861
H	 2.4303482739	 3.168748599	-3.2099850471	 0.124183
H	 1.4314302294	 2.0530378525	-4.2596738662	 0.117506
56.1056	92.0315	195.255	238.9888	327.7984	434.8074	454.598	507.6518	614.5193	657.1964	712.422	781.4347	823.099	837.3338	859.4227	875.5305	927.2145	965.3988	972.6394	989.4213	1002.3494	1044.7729	1059.6676	1078.1256	1083.8946	1123.474	1131.8641	1146.9739	1196.1313	1197.3778	1231.2444	1241.907	1279.7139	1363.6254	1401.2677	1457.5635	1459.2158	1497.5469	1883.9686	3064.7877	3113.7352	3119.3709	3140.6851	3145.7985	3176.5985	3186.6906	3225.1815	3239.0677
O=C1CC2C1N2C1CC1	O=C1C[C@H]2[C@@H]1N2C1CC1	
InChI=1S/C7H9NO/c9-6-3-5-7(6)8(5)4-1-2-4/h4-5,7H,1-3H2	InChI=1S/C7H9NO/c9-6-3-5-7(6)8(5)4-1-2-4/h4-5,7H,1-3H2/t5-,7-,8?/m0/s1
