17
gdb 108156	3.40082	1.46006	1.23209	4.3394	74.	-0.2135	-0.0442	0.1693	1032.9966	0.134156	-417.850564	-417.842558	-417.841614	-417.882986	30.823	
C	-0.2433655074	 1.456731559	 0.2257062475	-0.332225
N	 0.2067130403	 0.0862842154	-0.0112163292	-0.365341
C	 0.8691499446	-0.5465327968	 1.0560483409	 0.32106
C	 2.3130793833	-0.1154721218	 1.4358999571	-0.200445
N	 2.6157066539	-0.9500246973	 2.6385791315	-0.230186
C	 1.708504464	-1.829833887	 2.5659744444	 0.280639
O	 0.6451223766	-1.9130501251	 3.4662729609	-0.264125
C	-0.0606557721	-1.3852442024	 2.2419765101	-0.023017
C	 0.8409469785	-2.0067443623	 1.2770394721	-0.276464
H	 0.6172179467	 2.0952354044	 0.4441497861	 0.138609
H	-0.7174130742	 1.8395297271	-0.6815781026	 0.125799
H	-0.9526538123	 1.5471375351	 1.0629641559	 0.113108
H	-0.5355600682	-0.4853305804	-0.3947290269	 0.231184
H	 2.9842679411	-0.2483602294	 0.5741633444	 0.116683
H	 2.3935932542	 0.9226040337	 1.7723277218	 0.130244
H	-1.1407189879	-1.3297955405	 2.3191732173	 0.123015
H	 0.7639315288	-2.8658673418	 0.6178441586	 0.111462
85.3734	151.8952	185.4392	239.2911	293.7388	357.842	439.1899	472.9734	544.773	580.3648	623.0663	699.4576	704.7819	751.6853	807.4281	836.3425	903.1411	959.5774	988.7212	1011.7321	1031.5262	1048.1359	1090.0248	1149.98	1150.4435	1164.0834	1181.3995	1235.0988	1266.2569	1318.862	1377.5248	1464.3907	1479.4247	1483.1306	1499.0839	1522.2097	1636.3922	2984.9154	2994.3814	3077.2732	3084.3968	3121.8297	3150.4527	3185.4183	3554.3012
CNC12CN=C3OC1C23	CN[C@@]12C[N][C]3O[C@@H]1[C@@H]23	
InChI=1S/C6H8N2O/c1-7-6-2-8-5-3(6)4(6)9-5/h3-4,7H,2H2,1H3	InChI=1S/C6H8N2O/c1-7-6-2-8-5-3(6)4(6)9-5/h3-4,7H,2H2,1H3/t3-,4-,6-/m1/s1
