20
gdb 5944	4.38998	1.139	1.11976	1.5518	76.83	-0.2556	0.0439	0.2995	1171.321	0.172962	-348.979959	-348.96989	-348.968945	-349.01418	37.237	
C	-0.2009279	 1.527496046	-0.0643945393	-0.395849
C	 0.0386201549	 0.0173549503	 0.0061294454	-0.190198
C	 0.8173586564	-0.4524322019	 1.2557475871	 0.349747
C	 2.2106036917	 0.1723962897	 1.3420217708	-0.401777
O	 0.1423810276	-0.0396509161	 2.4435637862	-0.451318
C	 0.9133180975	-2.0056710357	 1.211885619	-0.407564
C	 1.5505921103	-2.6055557544	 2.3762500736	 0.324218
C	 2.0772662932	-3.1089945695	 3.3321744678	-0.445925
H	 0.7290437962	 2.0800168484	-0.2276909962	 0.119301
H	-0.8779654742	 1.7727974651	-0.888122012	 0.109411
H	-0.6460558749	 1.8875469072	 0.8670058809	 0.128966
H	-0.9312685283	-0.5010801652	 0.0021701089	 0.081164
H	 0.5660397706	-0.3243425596	-0.8934850052	 0.094555
H	 2.1344780764	 1.2537509932	 1.4737307476	 0.125783
H	 2.7519389952	-0.2387725685	 2.1968033014	 0.13756
H	 2.7841652443	-0.0305401442	 0.4324488619	 0.107962
H	-0.716135689	-0.476414862	 2.4705017357	 0.276328
H	-0.1027149916	-2.4119267454	 1.1052729061	 0.114999
H	 1.4507551515	-2.3028601608	 0.3023105508	 0.129438
H	 2.5403068123	-3.5498979967	 4.1797339894	 0.193198
72.5112	106.8197	128.4078	200.6443	232.4339	260.2469	283.959	330.2356	339.4092	352.1455	398.2383	410.6092	445.8031	608.1981	615.0706	638.8259	762.9476	786.0659	870.1596	909.6594	949.4668	977.8557	1008.3662	1031.6285	1072.7664	1140.5443	1173.0745	1180.8569	1244.6882	1292.9988	1335.3409	1369.4533	1384.7664	1405.9911	1424.5849	1461.5433	1480.5379	1485.2081	1495.5792	1506.0368	1513.3519	2238.3231	2998.2081	3007.0509	3042.0512	3044.5324	3049.2958	3053.6521	3108.2767	3123.1143	3125.7474	3137.856	3507.0348	3799.1987
CCC(C)(O)CC#C	CC[C@@](C)(O)CC#C	
InChI=1S/C7H12O/c1-4-6-7(3,8)5-2/h1,8H,5-6H2,2-3H3	InChI=1S/C7H12O/c1-4-6-7(3,8)5-2/h1,8H,5-6H2,2-3H3/t7-/m1/s1
