19
gdb 36729	5.39744	0.70754	0.66659	0.9205	77.57	-0.2569	0.056	0.3129	1662.159	0.158478	-422.991372	-422.982159	-422.981215	-423.026675	32.958	
C	 0.024737024	-1.1990114877	-0.1211287188	-0.437298
C	-0.0054054692	 0.0008186543	-0.0543074223	 0.291266
C	-0.0068304689	 1.455760679	 0.0269154142	-0.355395
C	 1.413179822	 2.0553021078	 0.0432696011	-0.199427
C	 1.3967884402	 3.5772675021	 0.1234933951	 0.112555
C	 2.792357119	 4.23344082	 0.0776420069	-0.135108
O	 2.5857196825	 5.4053499249	-0.6946865796	-0.231913
C	 1.6295425299	 5.0282780547	-1.6494109537	 0.025925
O	 0.7257786534	 4.1477586247	-1.0089915738	-0.272837
H	 0.0357084922	-2.2588607121	-0.1813155476	 0.193134
H	-0.5548974352	 1.8787621693	-0.8225171602	 0.151025
H	-0.547664593	 1.7721284901	 0.9288448546	 0.127827
H	 1.9698885809	 1.6568443762	 0.900256436	 0.110918
H	 1.9487390327	 1.7451266752	-0.8608253158	 0.113278
H	 0.8536910794	 3.895651719	 1.0246999398	 0.082827
H	 3.1728774209	 4.526290764	 1.0578897116	 0.122327
H	 3.5221738363	 3.5653607783	-0.4070790408	 0.096711
H	 1.0970094322	 5.9210096315	-1.9915044589	 0.119612
H	 2.1081434908	 4.5207376289	-2.5070155077	 0.084574
42.4354	76.5189	99.8746	115.5708	215.1377	269.3094	346.3646	351.3366	433.1024	528.2079	615.7329	637.5326	675.413	741.3018	767.6272	862.9981	943.8945	954.1943	975.4474	1018.4532	1030.933	1073.5066	1104.3484	1114.4072	1125.5161	1177.0966	1206.7989	1216.3412	1262.5332	1273.3949	1314.1639	1334.4103	1369.2002	1372.7904	1407.1937	1435.9541	1471.0545	1485.6742	1510.2267	1546.6284	2239.5723	2933.3708	2978.05	3001.8613	3021.2781	3035.9424	3064.2893	3079.1091	3086.9322	3113.2532	3507.5246
C#CCCC1COCO1	C#CCC[C@H]1COCO1	
InChI=1S/C7H10O2/c1-2-3-4-7-5-8-6-9-7/h1,7H,3-6H2	InChI=1S/C7H10O2/c1-2-3-4-7-5-8-6-9-7/h1,7H,3-6H2/t7-/m0/s1
