19
gdb 119676	3.87425	1.0179	0.93488	1.5782	75.26	-0.232	0.075	0.307	1296.4658	0.158522	-422.927861	-422.919627	-422.918683	-422.961228	31.447	
O	 0.1279283439	 1.3918933736	 0.0089199083	-0.41768
C	 0.0877717438	-0.0249327647	-0.0371312306	-0.064021
C	-1.3455970336	-0.5711502874	-0.0030175316	-0.372455
C	-1.3912917907	-2.0666357251	-0.0405774582	 0.498467
O	-0.7563550819	-2.8158586652	 1.0521004366	-0.366668
C	-1.2931890158	-3.8394012302	 0.1666780747	 0.088119
C	-2.5979848558	-3.0576345606	-0.1736691357	-0.14459
C	-2.3818025243	-3.2270358679	-1.6927804834	-0.2804
C	-0.9433656278	-3.0862913193	-1.1505779463	-0.134541
H	-0.1704806732	 1.6664697789	 0.8817432369	 0.282438
H	 0.5683919959	-0.3059354209	-0.9801044882	 0.114386
H	 0.6735113441	-0.4784204305	 0.7743761808	 0.114228
H	-1.8466146477	-0.2307692133	 0.9133542446	 0.104108
H	-1.9119251607	-0.1664432252	-0.8498922708	 0.117521
H	-1.1537126717	-4.8869973901	 0.4312544217	 0.094341
H	-3.5185826316	-3.0394523173	 0.4101870464	 0.081005
H	-2.6493925375	-4.1984993338	-2.1170705257	 0.100431
H	-2.7463141642	-2.4199834874	-2.3342074039	 0.102275
H	 0.0114980288	-3.1035361838	-1.6763340256	 0.083036
77.0004	88.6097	128.7106	255.4456	297.3439	338.7785	360.2388	460.9061	544.7234	696.8384	732.7044	768.4393	776.821	813.6757	854.6534	878.3139	901.3804	925.2811	969.9503	994.6258	1028.8723	1049.1006	1072.0245	1076.6922	1101.6077	1105.219	1142.8895	1162.7835	1177.8495	1190.6324	1233.7904	1249.5519	1277.0476	1292.4817	1326.2009	1381.8739	1407.0544	1420.8827	1467.5352	1513.1159	1514.9522	3013.0917	3020.1994	3053.4431	3065.0194	3086.3194	3108.6929	3114.3822	3116.1055	3132.2223	3817.0125
OCCC12OC3C1CC23	OCC[C@@]12O[C@H]3[C@@H]1C[C@@H]23	
InChI=1S/C7H10O2/c8-2-1-7-4-3-5(7)6(4)9-7/h4-6,8H,1-3H2	InChI=1S/C7H10O2/c8-2-1-7-4-3-5(7)6(4)9-7/h4-6,8H,1-3H2/t4-,5+,6-,7+
