19
gdb 63414	3.88506	1.00986	0.97433	3.6109	80.17	-0.2439	-0.0218	0.2222	1292.4637	0.159062	-419.257202	-419.248143	-419.247199	-419.291838	33.212	
C	-0.0211009342	 1.5333046308	 0.0254965135	-0.411726
C	-0.0034515792	 0.0008292918	-0.0170147427	 0.294488
C	-1.4299465146	-0.5608454003	-0.0014126483	-0.411717
C	 0.8184041935	-0.5363088273	-1.2439037971	-0.251505
N	 1.9024300285	-1.274291204	-0.5866267493	-0.078787
C	 2.9252275397	-1.9551821533	-1.1963733034	 0.151439
O	 3.7996775978	-2.5513168644	-0.6095388882	-0.312673
C	 1.7186768558	-1.1683987273	 0.7951342447	 0.072603
N	 0.7134754937	-0.4969363584	 1.1837441337	-0.278483
H	 0.9969310878	 1.9344637119	 0.0267510352	 0.119909
H	-0.5522755645	 1.9398027742	-0.8419098886	 0.112973
H	-0.5217514	 1.8788130794	 0.9336615579	 0.132858
H	-1.9963144768	-0.2066754595	-0.8694979589	 0.112972
H	-1.4177845641	-1.6548518722	-0.0193617693	 0.11991
H	-1.9494677743	-0.2433698825	 0.9063861087	 0.132858
H	 0.2257026549	-1.1993300815	-1.8817170045	 0.122671
H	 1.2169279125	 0.2737015679	-1.8625841906	 0.122667
H	 2.8603035691	-1.8973902298	-2.299678657	 0.084605
H	 2.4366020945	-1.6597663253	 1.4401477844	 0.164939
20.7123	138.0539	202.8651	224.187	230.2381	267.6417	311.3918	317.0418	386.321	387.2315	505.5424	605.8292	671.2602	781.6495	811.642	865.1526	930.6007	947.3841	963.0708	971.8138	985.3023	1030.1636	1036.0608	1190.0193	1193.2978	1208.969	1253.5307	1274.8378	1294.2013	1326.5622	1396.3886	1406.6605	1423.9006	1441.6006	1476.792	1486.6189	1495.4467	1505.7873	1520.4787	1697.4496	1799.6783	2952.0368	3033.1713	3036.0339	3042.9875	3082.9752	3104.2543	3107.8369	3121.1895	3125.3161	3230.9187
CC1(C)CN(C=O)C=N1	CC1(C)CN(C=O)C=N1	
InChI=1S/C6H10N2O/c1-6(2)3-8(5-9)4-7-6/h4-5H,3H2,1-2H3	InChI=1S/C6H10N2O/c1-6(2)3-8(5-9)4-7-6/h4-5H,3H2,1-2H3
