17
gdb 126086	3.17052	1.54718	1.10541	1.3587	74.19	-0.2294	0.0179	0.2474	1072.2817	0.138913	-418.019993	-418.012453	-418.011509	-418.052285	28.495	
C	 0.0950855177	 1.5740901618	-0.1361733174	-0.382873
C	-0.0530900518	 0.0705365336	 0.0732098612	 0.008983
O	 0.5316646362	-0.625085707	-1.0635266518	-0.295321
C	 1.472379109	-1.632131163	-0.6789599041	-0.181441
C	 1.5515294972	-1.4626581826	 0.801869592	 0.312344
C	 0.6851653858	-0.5015134684	 1.2447809002	 0.191132
C	 0.8641417701	-0.4713245683	 2.6425365348	-0.171965
N	 1.7853908151	-1.3571652972	 3.0268295293	-0.222184
N	 2.1942389681	-1.9568270322	 1.8791585277	-0.32448
H	 1.1515728954	 1.855165973	-0.1583734042	 0.119999
H	-0.3686565087	 1.8711875325	-1.0809021679	 0.124737
H	-0.3955442524	 2.1200852011	 0.6764929605	 0.115026
H	-1.1237327213	-0.1837507769	 0.1018421353	 0.088637
H	 1.1071521161	-2.6265077493	-0.9794981938	 0.113355
H	 2.4260108231	-1.4584733118	-1.1976284289	 0.116733
H	 0.3808503026	 0.1407762264	 3.3896543545	 0.113299
H	 2.8993169177	-2.6716088718	 1.9338521426	 0.274019
75.3586	154.1186	214.6108	230.1205	299.6271	446.9913	458.5015	494.6376	597.8507	667.0348	681.8764	722.6147	786.017	852.5996	883.1618	971.7481	1011.3282	1041.2347	1053.1105	1075.669	1101.2403	1113.7579	1156.044	1189.9089	1237.9746	1293.0476	1314.8407	1367.991	1375.0189	1402.7473	1420.8276	1452.7466	1485.9191	1494.1537	1523.5641	1554.4915	1606.5895	2977.0734	2981.1623	3008.3279	3039.1117	3112.6358	3124.7909	3246.2872	3677.509
CC1OCC2=C1C=NN2	C[C@H]1OCc2c1cn[nH]2	
InChI=1S/C6H8N2O/c1-4-5-2-7-8-6(5)3-9-4/h2,4H,3H2,1H3,(H,7,8)	InChI=1S/C6H8N2O/c1-4-5-2-7-8-6(5)3-9-4/h2,4H,3H2,1H3,(H,7,8)/t4-/m1/s1
