19
gdb 15443	4.8689	0.84788	0.79811	3.0951	68.41	-0.2481	0.0693	0.3175	1440.4277	0.165036	-402.157643	-402.148324	-402.14738	-402.192694	32.807	
O	 0.0489638609	 1.3473694337	 0.3276122634	-0.42167
C	-0.0612133453	-0.0658467435	 0.3921605399	-0.067335
C	-1.3400313838	-0.466700582	-0.3363671426	-0.187598
C	-1.5265751142	-1.9662780284	-0.351160322	-0.021998
N	-2.0821609936	-2.5952175609	 0.8643256965	-0.350462
C	-2.8352925222	-2.6725430353	-0.4056613403	-0.044453
C	-4.1906969553	-2.0044571439	-0.374321541	-0.064851
O	-5.0818245972	-2.7201047493	 0.4656498382	-0.42262
H	 0.8226173289	 1.6126060255	 0.8330736026	 0.28576
H	 0.8071222135	-0.5551493061	-0.0810594295	 0.078044
H	-0.1127509284	-0.421271498	 1.4326090032	 0.099776
H	-2.1830290089	 0.0236979946	 0.1564366937	 0.116806
H	-1.2952247077	-0.0869974327	-1.3644157396	 0.107658
H	-0.7061937882	-2.5010245891	-0.8319873232	 0.082647
H	-1.6166253439	-3.4774239528	 1.0566611032	 0.232659
H	-2.8374255844	-3.6375774825	-0.9105882312	 0.088702
H	-4.0969019596	-0.9586755025	-0.0522186025	 0.093025
H	-4.638066977	-2.0065707536	-1.3739885085	 0.107792
H	-4.6437737938	-2.773266253	 1.3235931397	 0.28812
50.6866	79.1253	95.7759	124.107	208.6885	257.8833	283.9112	343.1783	438.4392	466.2726	487.8153	571.3796	774.4563	822.4311	856.619	900.5427	968.3569	988.4671	1021.2457	1033.8267	1065.6877	1074.2019	1086.2355	1156.519	1183.0295	1216.5764	1237.2114	1257.5846	1272.7222	1280.3713	1314.2154	1326.6596	1365.8462	1404.7255	1442.4528	1459.1214	1477.9518	1484.8528	1500.2727	1528.6061	2955.3953	3000.6689	3013.7912	3043.3279	3074.5352	3088.7009	3108.2627	3120.7923	3509.3669	3787.9543	3831.7534
OCCC1NC1CO	OCC[C@H]1N[C@H]1CO	
InChI=1S/C5H11NO2/c7-2-1-4-5(3-8)6-4/h4-8H,1-3H2	InChI=1S/C5H11NO2/c7-2-1-4-5(3-8)6-4/h4-8H,1-3H2/t4-,5+/m1/s1
