21
gdb 62756	3.28405	1.18617	1.16044	2.7851	82.1	-0.2386	-0.0147	0.2239	1185.3065	0.181879	-387.122116	-387.113241	-387.112296	-387.155323	34.571	
C	 0.1314213957	 1.5474498037	 0.1050344563	-0.475299
C	 0.0766595862	 0.0312176683	 0.0407831121	 0.329814
C	-1.2648832891	-0.4901508439	-0.4467924406	-0.449858
C	 1.2817827802	-0.7922689239	-0.3710129293	-0.094342
C	 2.6580153483	-0.1589571581	-0.385471398	-0.342902
C	 2.9171372919	 0.3325790509	 1.0493587179	 0.385202
O	 3.8251453406	 1.0443127044	 1.3900180191	-0.313057
C	 1.8262882293	-0.2290349306	 1.9778663897	-0.342902
C	 0.7739576871	-0.8350622882	 1.0719741514	-0.09434
H	 1.0886164007	 1.9417143286	 0.4535351865	 0.132727
H	-0.0560223765	 1.980012552	-0.8847177312	 0.118814
H	-0.6420848637	 1.9306053567	 0.7808569286	 0.118815
H	-1.4893605434	-0.1177382397	-1.4532113924	 0.115308
H	-1.280845241	-1.5838408848	-0.4848482974	 0.112953
H	-2.0766404014	-0.1672349732	 0.2155797707	 0.115309
H	 1.1053325618	-1.6331214921	-1.0330352784	 0.081765
H	 3.4287274039	-0.8999666094	-0.6330478501	 0.129876
H	 2.7864279282	 0.6714648286	-1.0869502564	 0.130239
H	 2.2860783368	-0.9962381648	 2.6137735955	 0.129875
H	 1.472021409	 0.5607204803	 2.6479001336	 0.130239
H	 0.2376816755	-1.7062359948	 1.4323983026	 0.081764
72.992	164.2006	188.5482	214.3588	241.3595	277.0417	346.7457	423.8612	441.6351	466.9565	477.1444	635.6715	665.9829	685.5703	771.6886	772.9295	843.2119	852.2889	954.0279	970.4608	988.1606	1006.5782	1026.3722	1051.0252	1073.3758	1115.7447	1136.553	1161.1874	1165.4478	1195.0707	1223.4077	1279.0573	1292.7838	1322.3681	1335.8864	1411.5666	1419.3842	1435.9814	1448.4501	1458.5249	1482.4601	1492.0233	1501.4951	1513.0283	1843.3677	3021.1848	3028.6494	3035.5088	3038.5264	3080.826	3082.2901	3082.5231	3083.7063	3098.1864	3117.1915	3155.8338	3165.1052
CC1(C)C2CC(=O)CC12	CC1(C)[C@H]2CC(=O)C[C@@H]12	
InChI=1S/C8H12O/c1-8(2)6-3-5(9)4-7(6)8/h6-7H,3-4H2,1-2H3	InChI=1S/C8H12O/c1-8(2)6-3-5(9)4-7(6)8/h6-7H,3-4H2,1-2H3/t6-,7+
