19
gdb 67436	2.31081	2.00691	1.8217	1.2127	80.96	-0.2199	-0.0091	0.2108	915.7855	0.16011	-385.833082	-385.825859	-385.824914	-385.864137	29.754	
C	-0.1388788186	 1.6412855097	-0.1953433815	-0.520935
C	-0.0562781122	 0.1491711748	-0.0066685485	 0.278239
C	 0.6290870315	-0.8764431645	-0.9352085164	 0.077555
C	 1.8471208805	-0.9952764781	 0.0649336792	-0.309612
C	 0.8277602829	-0.4935075711	 1.0772527154	 0.081838
C	 0.1174253457	-1.2039443284	 1.9600291067	-0.126649
C	-1.3608635331	-1.1965356549	 1.5703481715	-0.272675
C	-1.2450887035	-0.8144440785	 0.0793350085	 0.071259
O	-0.4752725513	-1.7942742769	-0.707260859	-0.324737
H	 0.8583955639	 2.0870659729	-0.2769513902	 0.122609
H	-0.6976984575	 1.8985250173	-1.101552024	 0.120721
H	-0.639102163	 2.1160696192	 0.6562085196	 0.125707
H	 0.8465869948	-0.7482108926	-2.0004120978	 0.077249
H	 2.2992014388	-1.9719522421	 0.2488585841	 0.11297
H	 2.6150605122	-0.2781997961	-0.248792779	 0.106727
H	 0.5308470302	-1.9640166885	 2.6146525288	 0.09467
H	-1.7948649101	-2.1934571799	 1.704148896	 0.116788
H	-2.0064385488	-0.4894903789	 2.1108080468	 0.104315
H	-2.1884788426	-0.5740766634	-0.4245880005	 0.063962
199.9563	206.8133	232.7063	274.1179	357.1399	395.3266	432.8047	582.3337	633.4853	706.8234	732.4444	798.9217	809.8086	833.6696	862.7433	894.3633	906.6765	928.8371	943.0968	974.3783	1008.6866	1023.2487	1044.2958	1089.5825	1132.0625	1157.6361	1169.2751	1205.5078	1217.6694	1257.9056	1263.6598	1284.9844	1297.8088	1332.4794	1371.534	1413.0677	1460.1073	1470.1396	1491.4617	1493.3291	1662.3512	3006.1614	3026.1041	3034.2879	3042.9397	3059.2691	3072.0672	3091.7571	3095.265	3117.0568	3182.1184
CC12C3CC1=CCC2O3	C[C@@]12[C@H]3C[C]1[CH]C[C@@H]2O3	
InChI=1S/C8H10O/c1-8-5-2-3-6(8)9-7(8)4-5/h2,6-7H,3-4H2,1H3	InChI=1S/C8H10O/c1-8-5-2-3-6(8)9-7(8)4-5/h2,6-7H,3-4H2,1H3/t6-,7+,8+/m0/s1
