16
gdb 127865	2.67605	1.58831	1.00327	1.0389	82.03	-0.1946	-0.0351	0.1596	1131.637	0.126146	-430.2354	-430.22703	-430.226086	-430.268225	31.21	
C	-0.0562095209	 1.3626279836	 0.1251988395	-0.328089
N	-0.0127473942	-0.0846240964	 0.0266151449	-0.351477
C	 0.5477978322	-0.6082564415	-1.012070938	 0.225788
C	 1.1697999012	 0.0223097745	-2.1494639503	-0.079792
N	 1.726150592	-0.6477565529	-3.1320949779	-0.193335
N	 1.70168691	-1.9560687336	-3.0476668591	-0.089089
N	 1.1643029326	-2.7274218921	-2.076345188	-0.333728
C	 0.5925107288	-2.0778957936	-1.093695143	 0.408495
N	-0.0108939008	-2.749023678	-0.0901204532	-0.549041
H	 0.9472237448	 1.8161138037	 0.1244270108	 0.113364
H	-0.6208973875	 1.8233669898	-0.7000229985	 0.114793
H	-0.5470267642	 1.6461959392	 1.0597668238	 0.118092
H	 1.2081690251	 1.0997021343	-2.2447445945	 0.119054
H	 2.1324166258	-2.4612216718	-3.8037199999	 0.289286
H	 0.1367775851	-3.7377538999	 0.0113716878	 0.261112
H	-0.2880960699	-2.1779198254	 0.6949432555	 0.274565
98.6596	141.3463	210.2936	212.2578	275.9318	306.6428	347.8744	417.6196	512.9897	539.265	541.6262	587.0818	612.0293	646.434	769.5212	796.8291	883.5269	936.2065	1001.8789	1065.7195	1101.1098	1156.2453	1181.8183	1241.0746	1287.7244	1394.5652	1433.9563	1442.3779	1485.7461	1502.3586	1504.9011	1556.4259	1592.7325	1651.9415	1667.9169	2971.388	3016.6262	3096.9908	3214.2035	3573.5574	3665.7345	3728.3547
CN=C1C=NNN=C1N	CN=c1cn[nH]nc1N	
InChI=1S/C4H7N5/c1-6-3-2-7-9-8-4(3)5/h2H,1H3,(H,6,9)(H2,5,7,8)	InChI=1S/C4H7N5/c1-6-3-2-7-9-8-4(3)5/h2H,1H3,(H,6,9)(H2,5,7,8)
