15
gdb 20562	4.5897	1.60809	1.24041	6.1453	61.82	-0.2723	-0.0068	0.2655	940.2917	0.12096	-392.145304	-392.137911	-392.136966	-392.177228	26.873	
C	 0.1705724613	 1.5529934416	-0.2141059573	-0.386831
C	 0.0901279526	 0.0410725052	 0.0314190732	-0.092689
N	 0.7831399153	-0.4485899952	 1.2360747084	-0.531576
H	-1.1851652994	-2.0472015445	 1.4561554486	 0.292007
H	 1.786972805	-0.3910326725	 1.0962150474	 0.241327
H	 0.5729260861	 0.1657109114	 2.0198726002	 0.236188
C	-1.3355119419	-0.4275545112	 0.0976745562	 0.466053
N	-1.7393313786	-1.4728336829	 0.8401450905	-0.2449
N	-3.0622990924	-1.6538727595	 0.6652607732	-0.094058
N	-3.4365190535	-0.7381201747	-0.165084319	-0.10505
N	-2.3874508449	 0.0463135382	-0.538076395	-0.296511
H	 1.2141076538	 1.8578835139	-0.3366219218	 0.111262
H	-0.3895473134	 1.8315713333	-1.1098883799	 0.156356
H	-0.2570180638	 2.1026568034	 0.6310071984	 0.124555
H	 0.5546479539	-0.4738869065	-0.8202457431	 0.123868
68.9036	180.3174	195.7102	252.9027	295.1992	340.8335	464.8685	481.3872	629.6101	671.887	753.2746	770.2946	876.2159	940.2768	1007.6129	1024.959	1050.8505	1074.3495	1084.4297	1114.6772	1160.8209	1228.7573	1250.2831	1329.3297	1358.8522	1407.0225	1408.6204	1439.2869	1486.9858	1495.2665	1574.4544	1662.5391	3021.7534	3039.9267	3111.6705	3132.4019	3482.5223	3567.5272	3658.6633
CC([NH3+])C1=N[N-]N=N1	C[C@@H](N)c1[nH]nnn1	
InChI=1S/C3H6N5/c1-2(4)3-5-7-8-6-3/h2H,4H2,1H3/q-1/p+1	InChI=1S/C3H7N5/c1-2(4)3-5-7-8-6-3/h2H,4H2,1H3,(H,5,6,7,8)/t2-/m1/s1
