21
gdb 89854	2.75654	1.33852	1.04009	1.7113	83.73	-0.2416	0.0167	0.2584	1210.9529	0.183915	-387.092573	-387.084253	-387.083309	-387.125131	33.555	
O	 0.1048995597	 1.4137149346	 0.142773304	-0.437112
C	 0.058593992	-0.0076166409	 0.0243968301	 0.101493
C	-1.3820945791	-0.5410455826	 0.0588084933	-0.313641
C	-1.4175555699	-2.017828656	-0.2889801401	 0.382316
C	-1.1429045029	-3.0116514486	 0.8172218601	-0.29772
C	-2.5325792957	-2.8803645457	 0.2377227921	-0.332603
C	-0.8663352855	-2.3049662981	-1.6783859187	-0.331094
C	 0.3644663015	-1.4875225682	-1.9778809163	-0.054994
C	 0.7814499414	-0.4785349976	-1.2137030908	-0.096299
H	-0.2944165464	 1.7786770769	-0.6550603087	 0.273371
H	 0.5943086348	-0.3628293922	 0.914906009	 0.097941
H	-1.8239646574	-0.3518912036	 1.0423346165	 0.098426
H	-1.9760942608	 0.0251958675	-0.6739385857	 0.083596
H	-0.570769836	-3.9022550497	 0.5794934909	 0.109529
H	-0.9718067239	-2.6294567828	 1.8184537736	 0.110747
H	-3.2999523168	-2.413945992	 0.8469240105	 0.109556
H	-2.8965018319	-3.6835586029	-0.3954047936	 0.107736
H	-0.6400086264	-3.3737997522	-1.7861647073	 0.102647
H	-1.632968773	-2.0925861121	-2.44073526	 0.107999
H	 0.9235879801	-1.7554273342	-2.8718470945	 0.087827
H	 1.6840282462	 0.0743715905	-1.4635754843	 0.090277
107.5226	125.2484	255.058	290.109	310.4495	350.493	366.0496	414.8157	458.391	466.5968	543.1759	671.9813	729.0584	781.1057	802.8329	869.0058	899.969	913.1261	948.7949	965.9378	988.3439	994.9023	1010.1118	1038.1302	1055.3065	1076.3218	1081.2125	1104.3698	1150.4236	1188.2224	1210.0537	1216.3642	1254.1169	1304.2025	1323.2315	1341.7288	1364.3157	1397.7675	1401.9866	1427.1193	1465.5159	1473.9198	1488.1345	1506.087	1718.3052	2981.3973	2998.9792	3020.3681	3032.4552	3076.1666	3123.0953	3127.9263	3141.2868	3165.9529	3201.1474	3215.7292	3795.1345
OC1CC2(CC2)CC=C1	O[C@H]1CC2(CC2)CC=C1	
InChI=1S/C8H12O/c9-7-2-1-3-8(6-7)4-5-8/h1-2,7,9H,3-6H2	InChI=1S/C8H12O/c9-7-2-1-3-8(6-7)4-5-8/h1-2,7,9H,3-6H2/t7-/m1/s1
