17
gdb 65645	3.11388	1.32611	1.28985	1.8847	68.33	-0.2457	-0.0362	0.2095	1049.955	0.133695	-458.92605	-458.917694	-458.91675	-458.959489	30.536	
C	 0.3240117233	 1.4804701544	-0.2070264376	-0.453194
C	 0.0720429786	-0.0084827582	-0.0596332539	 0.288435
O	 0.9410878493	-0.8355800139	-0.8999959539	-0.348168
C	 1.3835319788	-1.6082435641	 0.2333189057	 0.062554
C	 2.6243680362	-1.019244757	 0.9176459019	-0.099572
O	 1.7953771709	-0.1578558639	 1.7461435221	-0.29154
C	 0.589176492	-0.7232708339	 1.2124193278	 0.020064
C	-1.369572134	-0.3587073232	-0.3945877276	 0.121456
O	-2.2582019442	-0.4084506818	 0.4158512253	-0.253873
H	 1.3347345758	 1.7160906733	 0.1324727666	 0.146102
H	 0.2145668707	 1.7830401153	-1.2529569937	 0.131746
H	-0.3920946807	 2.0450344439	 0.398149545	 0.141155
H	 1.2992937434	-2.6845091075	 0.0795393666	 0.098731
H	 3.1920684819	-1.7254978082	 1.5353302074	 0.11234
H	 3.2990691113	-0.4604873543	 0.2614564643	 0.118815
H	-0.1371680937	-1.0151637643	 1.9702832154	 0.109501
H	-1.5291961495	-0.5819166466	-1.4732628414	 0.095447
51.2119	128.8781	168.7967	203.9346	257.2431	287.3244	319.1424	418.7373	486.9232	576.4604	643.9466	795.9126	806.61	880.542	894.3095	931.5898	949.7898	986.2941	988.4816	1003.387	1062.97	1072.4603	1138.7634	1160.426	1185.3747	1197.3546	1227.5089	1250.45	1297.9555	1328.0671	1358.3864	1390.7504	1400.3525	1478.6473	1486.7171	1503.6429	1826.3008	2889.7786	3027.3166	3043.6197	3089.9549	3107.8554	3117.049	3127.0701	3137.1156
CC1(OC2COC12)C=O	C[C@]1(O[C@H]2CO[C@@H]12)C=O	
InChI=1S/C6H8O3/c1-6(3-7)5-4(9-6)2-8-5/h3-5H,2H2,1H3	InChI=1S/C6H8O3/c1-6(3-7)5-4(9-6)2-8-5/h3-5H,2H2,1H3/t4-,5+,6-/m0/s1
