17
gdb 15949	3.64126	1.78661	1.46305	1.1326	63.58	-0.2339	0.0498	0.2837	885.9488	0.143324	-400.939407	-400.932069	-400.931125	-400.971308	27.585	
O	 0.0125752506	 1.4296185148	-0.2528679146	-0.419663
C	 0.0645173315	 0.0797500198	 0.1739989914	-0.150195
C	-1.3092699324	-0.550447825	 0.0697847911	 0.291107
C	-2.3160056853	-0.4795318426	 1.2332578273	-0.119256
O	-2.6558943065	-1.8795907038	 1.0783111087	-0.292593
C	-1.6771327473	-2.0595244068	 0.0377483778	 0.038684
C	-2.2612186849	-1.8318497163	-1.367848646	-0.183077
N	-1.8994127672	-0.3803047045	-1.2890883673	-0.383202
H	-0.3470282882	 1.3931962735	-1.1494792232	 0.286762
H	 0.7793258054	-0.5032448853	-0.4285715839	 0.088737
H	 0.4229517829	 0.0830902052	 1.2084704102	 0.107842
H	-1.8664530371	-0.2863772446	 2.2165056185	 0.104819
H	-3.1802778683	 0.1828383567	 1.0971863651	 0.099808
H	-1.006382095	-2.9012660494	 0.2244011609	 0.083273
H	-1.7333160202	-2.3380371276	-2.1837793003	 0.10946
H	-3.330339175	-2.0546923435	-1.4343855867	 0.113867
H	-2.7011102831	 0.2421689395	-1.307450559	 0.223628
72.7418	131.2084	188.9246	303.9701	359.1831	395.1911	442.3488	503.0835	660.8071	705.9023	814.7958	844.7904	911.8315	927.6612	941.7544	984.4423	998.0236	1024.8145	1057.267	1060.1624	1119.615	1133.0913	1137.9679	1158.5768	1219.1738	1252.7941	1275.0297	1304.8085	1322.7847	1359.6058	1380.4258	1381.5351	1434.7398	1494.0295	1501.0469	1517.4565	2976.1562	3003.2169	3032.3481	3051.0076	3077.2086	3085.052	3091.9199	3516.9664	3756.421
OCC12COC1CN2	OC[C@]12CO[C@H]1CN2	
InChI=1S/C5H9NO2/c7-2-5-3-8-4(5)1-6-5/h4,6-7H,1-3H2	InChI=1S/C5H9NO2/c7-2-5-3-8-4(5)1-6-5/h4,6-7H,1-3H2/t4-,5-/m0/s1
