18
gdb 43410	2.33735	1.92385	1.17651	4.2039	79.27	-0.2403	-0.0291	0.2112	1048.1693	0.15002	-401.964622	-401.9572	-401.956256	-401.996389	29.285	
O	-0.2088236362	 0.1599265215	 0.8180527179	-0.353892
C	-0.0975672744	 1.2061835322	 0.2116985062	 0.322713
C	-1.2712749766	 1.8596657151	-0.4352306588	-0.13283
C	-1.5381574355	 3.165185758	-0.5510058226	-0.038298
C	-0.7420083822	 4.3552310465	-0.0849367894	-0.255432
C	 0.3997697143	 4.0562564175	 0.8985819958	-0.243114
C	 1.4628822896	 3.1888602201	 0.270447197	 0.000267
C	 2.1118861062	 2.0616613075	 1.0260107054	-0.258337
N	 1.1407771597	 1.8060031784	-0.013140213	-0.07851
H	-2.0200708317	 1.1401298042	-0.7538330343	 0.115499
H	-2.4870857258	 3.4281489965	-1.0165575472	 0.102847
H	-0.3435638309	 4.8810892587	-0.9657266634	 0.121916
H	-1.4398388078	 5.0667873637	 0.3755592444	 0.115243
H	 0.8453763581	 4.9981265396	 1.2378529167	 0.107607
H	-0.0058039705	 3.5549070252	 1.785713969	 0.1174
H	 2.0492239956	 3.6738746562	-0.5104639295	 0.097515
H	 3.1376504448	 1.7800289046	 0.805007639	 0.125898
H	 1.7942860633	 1.8840926043	 2.0507551768	 0.133507
107.98	182.032	240.949	302.3054	332.4663	405.7606	416.1774	503.8625	589.7667	629.5996	676.0998	773.0067	794.0784	835.9676	883.2987	928.091	944.5107	973.2913	999.9476	1021.0567	1074.3057	1101.187	1113.0267	1131.8477	1162.4972	1188.9226	1228.7651	1254.9419	1276.1831	1346.9351	1378.7652	1389.6852	1420.5494	1437.9772	1468.7772	1485.3425	1512.6311	1697.6011	1767.9461	3002.6817	3029.58	3042.544	3074.5745	3104.7701	3109.0413	3135.117	3177.4668	3197.1814
O=C1C=CCCC2CN12	O=C1C=CCC[C@H]2CN12	
InChI=1S/C7H9NO/c9-7-4-2-1-3-6-5-8(6)7/h2,4,6H,1,3,5H2	InChI=1S/C7H9NO/c9-7-4-2-1-3-6-5-8(6)7/h2,4,6H,1,3,5H2/t6-,8?/m0/s1
