14
gdb 129917	3.29711	1.69042	1.11912	4.7156	71.19	-0.192	-0.0088	0.1832	996.2548	0.103618	-432.856717	-432.849326	-432.848382	-432.888514	27.792	
N	 0.0515920235	 1.4287454965	 0.1623391964	-0.61413
C	 0.0201650628	 0.0291041522	 0.0449802035	 0.07442
C	-1.0857123549	-0.8073847789	 0.0123057171	-0.124453
N	-0.6915039993	-2.1421234046	-0.0169846052	-0.428506
C	 0.6767772882	-2.1661178382	-0.0101750546	 0.209297
C	 1.1243539125	-0.8618388114	 0.0315248057	 0.380155
O	 2.4708192301	-0.8240882079	 0.0316558698	-0.255705
N	 2.925985416	-2.1585236634	-0.0119105684	-0.150809
C	 1.8609712675	-2.9352192728	-0.0356888554	-0.099106
H	 0.8493623739	 1.8328270044	-0.3120931601	 0.253126
H	-0.7923959209	 1.8665414021	-0.1841517645	 0.243298
H	-2.1325837402	-0.5468817887	 0.0170109271	 0.117485
H	-1.3154031842	-2.9266410842	-0.0425536795	 0.266413
H	 2.0091041751	-4.0048697953	-0.0695938618	 0.128514
139.7417	152.6945	194.495	256.5377	262.4745	428.6852	535.1293	598.8248	606.1172	620.2844	684.1652	703.1766	732.8983	773.0115	821.7225	872.867	878.952	960.3665	1080.725	1095.5436	1159.3715	1217.7252	1261.3219	1326.4326	1374.604	1433.8026	1486.1881	1542.3744	1618.8487	1635.2566	1660.5401	3245.1667	3255.5513	3533.8995	3623.5751	3709.9784
NC1=CNC2=C1ON=C2	Nc1c[nH]c2c1onc2	
InChI=1S/C5H5N3O/c6-3-1-7-4-2-8-9-5(3)4/h1-2,7H,6H2	InChI=1S/C5H5N3O/c6-3-1-7-4-2-8-9-5(3)4/h1-2,7H,6H2
