20
gdb 104635	2.57619	1.20703	0.97829	4.9187	81.05	-0.2304	0.0265	0.2569	1299.9221	0.170201	-399.300174	-399.290486	-399.289542	-399.334704	35.29	
C	-0.005353819	 1.4995941689	 0.0815203814	-0.343594
N	-0.1391747119	 0.0588808068	-0.1290106896	-0.334396
C	 0.6673357469	-0.4830532434	-1.1976693804	 0.123302
C	 2.2413034722	-0.5461293031	-1.0915768496	-0.207851
N	 2.1778686017	-1.9262300816	-1.5887571196	-0.054001
C	 3.1013649383	-2.9064619407	-1.0667465888	-0.322751
C	 0.7539496001	-2.037994717	-1.2495819473	-0.214339
C	 0.2449967199	 0.0881810663	-2.4814965608	 0.318269
N	-0.0753909222	 0.5506577329	-3.4908467687	-0.348784
H	 1.025816844	 1.8311034917	 0.2880541742	 0.105902
H	-0.3603893494	 2.030952938	-0.8061558126	 0.155961
H	-0.636338565	 1.7933898312	 0.9239735945	 0.128186
H	 0.078622767	-0.4420816694	 0.7250761809	 0.224026
H	 2.8412933998	 0.1409393632	-1.6950051956	 0.12323
H	 2.5408962221	-0.4643054821	-0.0315583473	 0.082148
H	 3.0678551925	-2.990659902	 0.0367916944	 0.089163
H	 2.8757152992	-3.89048457	-1.4903791801	 0.129359
H	 4.1235078082	-2.6431692896	-1.3569821269	 0.129401
H	 0.5641741862	-2.454470271	-0.2441662104	 0.085776
H	 0.1310743194	-2.5630336091	-1.9785893577	 0.130994
75.5989	100.6309	165.1456	177.0127	195.2512	231.7562	258.3	322.9674	328.5983	408.5304	429.8397	498.0313	587.6194	635.1157	724.2828	748.3396	874.0167	964.0863	965.2813	991.4259	1021.312	1048.353	1104.3748	1124.1063	1129.9305	1163.0204	1171.9013	1197.2201	1232.1193	1265.3436	1296.5555	1303.2775	1346.4943	1451.3769	1458.8906	1478.9653	1485.8012	1493.8014	1497.5716	1498.7271	1517.3583	1525.7013	2358.3624	2921.4323	2940.2045	2952.8934	2968.9426	3061.8868	3079.2941	3081.6715	3086.717	3104.9187	3124.167	3535.1787
CNC1(CN(C)C1)C#N	CNC1(CN(C)C1)C#N	
InChI=1S/C6H11N3/c1-8-6(3-7)4-9(2)5-6/h8H,4-5H2,1-2H3	InChI=1S/C6H11N3/c1-8-6(3-7)4-9(2)5-6/h8H,4-5H2,1-2H3
