18
gdb 50688	2.13269	1.6052	1.10037	5.4458	73.62	-0.2414	-0.0387	0.2027	1131.7652	0.14804	-439.130339	-439.121753	-439.120809	-439.16449	30.635	
O	-0.086361536	-0.1234826923	 0.3279286896	-0.231763
C	-0.0522249061	 1.0715447781	 0.2171003789	 0.163559
C	 1.2197677271	 1.9011459458	 0.0420721115	-0.104377
C	 1.4241164313	 2.8562292233	 1.2433646673	-0.241812
C	 2.2865136108	 2.0176609884	 2.2031395682	-0.229872
C	 3.2227228766	 1.2445738362	 1.2636579158	-0.147875
N	 2.4341508871	 1.1072674962	 0.0349927922	-0.01985
C	 2.7644891466	 0.2095368883	-0.9309356106	 0.148769
O	 3.7530539619	-0.4928787744	-0.9002022903	-0.337659
H	-0.9813256589	 1.688351746	 0.2326476848	 0.083264
H	 1.0928527057	 2.4711190033	-0.8896863195	 0.11
H	 1.9656940377	 3.7466486393	 0.9110819509	 0.122532
H	 0.4777996895	 3.1863276717	 1.6802715014	 0.115715
H	 2.8291500842	 2.6292780155	 2.9266150861	 0.114588
H	 1.6553100977	 1.3185972853	 2.7612368844	 0.125456
H	 4.1472140161	 1.799359163	 1.0599690194	 0.117665
H	 3.5075438728	 0.2590886828	 1.6384342142	 0.14036
H	 2.036443396	 0.1984140134	-1.7653140445	 0.071299
57.3116	87.4175	110.5314	201.3144	228.0824	277.2349	344.2314	358.7732	510.4596	594.1791	654.6347	730.9956	816.7331	861.1468	888.7447	927.1613	955.7502	960.1653	998.8649	1031.0356	1044.1789	1132.1474	1185.8541	1187.1072	1223.0508	1256.5505	1268.9607	1324.199	1342.9055	1352.0697	1375.309	1389.9768	1415.3066	1448.6005	1491.6573	1500.1561	1526.8743	1793.3059	1843.5771	2862.0249	2942.2746	3004.6458	3027.9647	3058.3192	3060.896	3103.8031	3104.9919	3120.5809
O=CC1CCCN1C=O	O=C[C@H]1CCCN1C=O	
InChI=1S/C6H9NO2/c8-4-6-2-1-3-7(6)5-9/h4-6H,1-3H2	InChI=1S/C6H9NO2/c8-4-6-2-1-3-7(6)5-9/h4-6H,1-3H2/t6-/m1/s1
