21
gdb 104523	2.14811	1.36194	1.01704	1.971	83.7	-0.2407	0.049	0.2897	1273.5934	0.180276	-387.04569	-387.035803	-387.034859	-387.080806	36.621	
C	 1.3306492858	-1.0409677408	 1.2417049622	-0.397846
C	 0.2912227309	-0.4166137729	 0.3046311951	-0.227244
C	 0.6792128819	-0.4307821434	-1.1720097454	 0.434434
C	 1.9851752525	 0.3312455278	-1.4802722712	-0.406637
C	 2.0022763562	 1.7061520489	-0.9980741804	 0.315406
C	 2.0153490708	 2.836980296	-0.590826416	-0.4457
C	 0.5907477374	-1.8042321134	-1.8900269621	-0.3357
C	-0.5414883949	-1.1502770437	-2.7034378212	-0.070356
O	-0.4121797078	 0.0897324033	-1.981028028	-0.318922
H	 1.5884779604	-2.0617891942	 0.9368562659	 0.113032
H	 2.253680227	-0.4539439836	 1.2702814364	 0.127673
H	 0.9443205004	-1.0914800307	 2.2637988959	 0.11899
H	-0.6633580751	-0.9470908416	 0.3964639048	 0.095065
H	 0.1011483849	 0.6229383015	 0.5922168079	 0.122642
H	 2.8266513163	-0.2245461953	-1.0468042421	 0.129792
H	 2.1316775322	 0.3210218719	-2.5667110686	 0.129274
H	 2.0243207541	 3.8394606974	-0.2412011473	 0.194846
H	 1.4762854281	-2.0936515772	-2.459424831	 0.106541
H	 0.2894566089	-2.6361593967	-1.2509907237	 0.109298
H	-0.3451759625	-1.0242491638	-3.7754151407	 0.101832
H	-1.5365886975	-1.5939989596	-2.5797492903	 0.103581
55.1671	81.1977	115.8144	146.4042	201.8406	257.1714	310.3193	351.5174	360.3796	396.7646	433.4769	515.2191	617.9314	635.367	707.9261	785.4836	791.7751	843.294	875.4413	928.604	953.4969	978.901	1007.4345	1021.0611	1027.4999	1046.166	1106.2135	1161.8341	1190.6491	1207.0492	1230.7602	1256.6228	1283.9993	1309.2347	1334.3632	1365.9954	1372.215	1411.7039	1458.8068	1483.353	1496.2716	1502.4944	1511.4465	1532.6115	2237.7098	3015.6171	3025.2201	3034.0963	3040.8762	3053.2306	3062.1976	3073.9143	3079.0581	3102.2927	3112.4093	3127.9854	3506.2004
CCC1(CC#C)CCO1	CC[C@@]1(CC#C)CCO1	
InChI=1S/C8H12O/c1-3-5-8(4-2)6-7-9-8/h1H,4-7H2,2H3	InChI=1S/C8H12O/c1-3-5-8(4-2)6-7-9-8/h1H,4-7H2,2H3/t8-/m1/s1
