19
gdb 109170	2.84342	1.16796	0.90749	1.8391	73.21	-0.2446	0.0143	0.259	1287.5985	0.159063	-460.162514	-460.153211	-460.152267	-460.197041	34.401	
O	 0.1148294412	 1.3529201889	-0.3599029134	-0.407508
C	-0.0461894174	-0.0524507227	-0.2953232436	-0.159222
C	-1.4494271672	-0.4977934036	-0.0067514672	 0.235768
C	-2.5408930154	 0.2615284758	 0.0909862726	-0.175476
C	-3.7813110156	-0.5283641752	 0.4246485707	-0.263204
C	-3.3349564492	-2.0001545003	 0.3048576571	 0.075829
O	-3.867526036	-2.5228187938	-0.9054333671	-0.436001
C	-1.7661157877	-1.9586203685	 0.2339092711	 0.013991
O	-1.2440118879	-2.8287853454	-0.7645912658	-0.439036
H	-0.1294260311	 1.710425487	 0.5001869691	 0.28233
H	 0.2752783026	-0.4387406917	-1.2697967993	 0.128401
H	 0.6376971824	-0.5069703573	 0.443064493	 0.095909
H	-2.5511118547	 1.3377233469	-0.0406158524	 0.096705
H	-4.1427536021	-0.3020986717	 1.4358683725	 0.106656
H	-4.6142802472	-0.3308411599	-0.2587677944	 0.124053
H	-3.6766174669	-2.6034769564	 1.1557476638	 0.066371
H	-3.5331343091	-3.4238214324	-0.9861409615	 0.284876
H	-1.3194568121	-2.3149607372	 1.1706335475	 0.088652
H	-1.6540116666	-2.5498687127	-1.5934851326	 0.280907
51.3034	90.1417	172.206	187.6143	213.961	270.7838	311.621	331.2918	386.5443	421.1297	551.1747	583.1267	622.1323	704.3722	784.6705	798.8786	853.8995	886.5901	931.8045	975.8031	998.2628	1024.6192	1065.7506	1083.0555	1103.52	1169.5065	1199.7347	1208.8755	1242.0524	1264.6828	1273.0746	1303.163	1327.1175	1353.7075	1388.024	1417.4216	1421.2498	1435.3053	1477.9579	1489.2282	1724.0661	2952.2122	3007.0821	3027.2748	3036.4106	3054.0179	3070.2082	3197.0776	3772.4141	3793.9244	3810.6874
OCC1=CCC(O)C1O	OCC1=CC[C@@H](O)[C@H]1O	
InChI=1S/C6H10O3/c7-3-4-1-2-5(8)6(4)9/h1,5-9H,2-3H2	InChI=1S/C6H10O3/c7-3-4-1-2-5(8)6(4)9/h1,5-9H,2-3H2/t5-,6+/m1/s1
