16
gdb 9230	4.46534	1.20581	1.06947	1.3985	68.76	-0.2347	0.0432	0.2778	1119.6273	0.128871	-379.890537	-379.881514	-379.88057	-379.924195	32.196	
C	 0.2463284804	 1.1281276177	-0.4423115213	-0.223441
O	-0.0827471368	-0.1173228363	 0.1712454819	-0.252139
C	-1.3973968049	-0.4104882752	 0.254517223	 0.478795
N	-1.5702588895	-1.6829087447	 0.757016073	-0.566573
N	-2.2853545322	 0.4131001933	-0.144379733	-0.345561
C	-3.6797920652	-0.0095344634	-0.0980612581	-0.308096
C	-4.2059064413	-0.272934538	 1.2484834674	 0.302229
C	-4.6024258385	-0.5125488898	 2.3594159889	-0.469946
H	 1.3364638314	 1.1730574016	-0.4445681273	 0.12316
H	-0.1427568261	 1.1738933176	-1.4628065896	 0.134984
H	-0.1716013083	 1.9635926471	 0.1251341494	 0.137421
H	-0.7449223249	-2.0695051823	 1.1904763492	 0.256281
H	-2.4169817785	-1.8164490956	 1.2929709646	 0.26581
H	-4.2837424153	 0.7822515199	-0.5550072975	 0.137543
H	-3.8416124752	-0.9115150805	-0.7111632001	 0.130286
H	-4.973304025	-0.6950932114	 3.3377563594	 0.199247
67.2093	110.6147	149.3539	173.729	221.1715	269.1762	310.3534	334.1752	443.418	487.4053	552.6815	603.8088	620.5891	650.4816	701.455	745.0393	851.5675	923.7568	1005.2304	1018.4445	1126.3486	1173.9784	1184.5405	1224.6149	1274.737	1351.0073	1386.8671	1475.2761	1475.4115	1484.4237	1503.7408	1641.4722	1740.7883	2220.5309	2970.7932	3048.1676	3052.472	3122.1975	3147.6354	3502.711	3553.9768	3666.5743
COC(N)=NCC#C	COC(=NCC#C)N	
InChI=1S/C5H8N2O/c1-3-4-7-5(6)8-2/h1H,4H2,2H3,(H2,6,7)	InChI=1S/C5H8N2O/c1-3-4-7-5(6)8-2/h1H,4H2,2H3,(H2,6,7)
