18
gdb 10214	2.64934	1.19229	0.87077	2.6399	65.96	-0.245	-0.0336	0.2113	1301.0551	0.150228	-422.063946	-422.054055	-422.05311	-422.099662	33.235	
C	-0.2781964238	 1.3618602413	 0.298445008	-0.244072
O	 0.1073752078	 0.0011421823	 0.3017600785	-0.243184
C	 0.563225794	-0.4618027798	-0.9539696754	 0.028094
C	 1.2883427374	-1.7956667807	-0.7371647497	-0.224849
C	 2.5332634285	-1.6523694182	 0.1454851957	-0.071294
O	 3.2164338688	-2.8835000171	 0.3113941748	-0.415281
C	-0.6124928649	-0.6826859149	-1.903765917	 0.135549
O	-0.5301162114	-0.6816339174	-3.1032580707	-0.241994
H	 0.5641912468	 2.0176561224	 0.0326399389	 0.116055
H	-1.1020077504	 1.5598575668	-0.4035469028	 0.115376
H	-0.6135578575	 1.6037579394	 1.3092093715	 0.135434
H	 1.2508378493	 0.2626368103	-1.4195565636	 0.09056
H	 0.5890233522	-2.504064042	-0.2728536557	 0.09976
H	 1.5750206642	-2.204825233	-1.7108362962	 0.129844
H	 3.2496649187	-0.9770437567	-0.3358886145	 0.111868
H	 2.2551226935	-1.2056763544	 1.1087187701	 0.109196
H	 2.667890554	-3.4547657391	 0.8581370895	 0.283162
H	-1.5708092173	-0.8880427293	-1.3707393513	 0.085775
58.2982	87.258	98.0914	103.1846	169.7647	201.5934	261.5288	285.0976	298.6374	363.2708	415.728	521.1913	572.8682	776.6226	909.7013	933.8533	998.1859	1068.7844	1073.5111	1090.3828	1107.2539	1146.816	1174.6881	1184.7839	1239.5079	1264.8817	1315.036	1330.3737	1354.2268	1395.7723	1402.3142	1416.8282	1475.4981	1482.4404	1488.9607	1507.278	1514.899	1837.8514	2860.8369	2978.8818	2986.0144	3020.4409	3026.044	3032.1489	3069.2966	3099.3683	3123.9359	3818.3696
COC(CCO)C=O	CO[C@@H](CCO)C=O	
InChI=1S/C5H10O3/c1-8-5(4-7)2-3-6/h4-6H,2-3H2,1H3	InChI=1S/C5H10O3/c1-8-5(4-7)2-3-6/h4-6H,2-3H2,1H3/t5-/m0/s1
