17
gdb 45235	3.30233	1.66754	1.47793	1.8973	70.16	-0.2356	-0.0252	0.2104	914.6396	0.138784	-421.82995	-421.823715	-421.822771	-421.860481	26.136	
O	-0.0476491774	-0.0515751939	-0.1599754746	-0.320634
C	-0.0517182417	 1.1447298818	-0.0238721914	 0.397741
C	-1.2858200207	 2.0594394824	 0.0724715965	-0.338369
C	-0.6796391845	 3.3702124284	 0.5950449432	-0.063219
C	-0.0078203879	 3.0844657389	 1.9745632019	-0.229756
C	 1.4018077309	 2.8146031141	 1.4191837379	 0.066953
O	 1.6421778978	 4.0478600706	 0.677788958	-0.293455
C	 0.6542035321	 3.5097344866	-0.2277860408	 0.078462
C	 1.1460742028	 2.0691951549	 0.0527799242	-0.146707
H	-1.7016523619	 2.1765277859	-0.937886837	 0.127997
H	-2.0671836394	 1.6258217174	 0.7016770561	 0.129951
H	-1.3428266999	 4.233502304	 0.5690392289	 0.080051
H	 0.0159913162	 3.9542837053	 2.6329253428	 0.117258
H	-0.4575208333	 2.2417910397	 2.5071693082	 0.107903
H	 2.2089540038	 2.5257994031	 2.0907622645	 0.094022
H	 0.6316704077	 3.9750296377	-1.2127633838	 0.091209
H	 2.0564421355	 1.734780303	-0.4386355744	 0.100592
121.6605	291.3171	374.6542	424.9855	538.6035	553.9898	570.5975	602.2995	729.2209	792.149	824.4308	855.8447	862.8895	884.6859	890.6533	945.7477	956.6195	975.4246	1010.7669	1036.5637	1048.4664	1077.5615	1124.5183	1141.4853	1162.5255	1200.7054	1217.1632	1238.7572	1249.0912	1287.9858	1300.4652	1306.4696	1321.2339	1343.5243	1451.4902	1487.682	1848.1391	3026.214	3065.9493	3103.5897	3119.2825	3126.7692	3131.757	3136.0636	3159.0132
O=C1CC2CC3OC2C13	O=C1C[C@H]2C[C@@H]3O[C@H]2[C@H]13	
InChI=1S/C7H8O2/c8-4-1-3-2-5-6(4)7(3)9-5/h3,5-7H,1-2H2	InChI=1S/C7H8O2/c8-4-1-3-2-5-6(4)7(3)9-5/h3,5-7H,1-2H2/t3-,5-,6+,7+/m0/s1
