16
gdb 27112	3.09614	1.30994	0.98146	1.9655	74.72	-0.1948	-0.0286	0.1662	1158.0735	0.124109	-437.916529	-437.908077	-437.907133	-437.950074	30.984	
N	-0.2562396298	 1.3483844589	-0.3893428572	-0.613407
C	-0.0774595859	-0.0058993117	-0.1135061976	 0.159921
C	-1.0402966867	-0.9758134797	 0.0007460763	 0.27016
C	-2.5315993328	-0.9079831853	-0.0380564068	-0.38915
C	-2.9320682479	-0.3272535842	-1.3843890715	 0.152405
O	-3.1536953315	 0.845993487	-1.5624228786	-0.249621
O	-0.4471615004	-2.2050868134	 0.1669791325	-0.181746
C	 0.8899374596	-1.9982209899	 0.1885141158	-0.015534
C	 1.18300218	-0.6830801677	 0.0204454207	-0.231281
H	 0.3372723671	 1.9656845416	 0.1464109298	 0.245654
H	-1.2205669627	 1.6532985538	-0.3783559991	 0.258356
H	-2.9364686078	-1.9169375435	 0.0823597444	 0.132524
H	-2.9342031036	-0.261748664	 0.7515507464	 0.126274
H	-2.9402868205	-1.0496771376	-2.2286984294	 0.093215
H	 1.4987634003	-2.8764026281	 0.328747708	 0.134114
H	 2.1655557128	-0.2389895363	-0.0201991838	 0.108115
71.3207	83.9388	149.6975	237.759	280.8127	303.8285	342.9857	417.8345	497.4741	606.2119	631.4864	649.6759	707.2436	726.5372	753.8044	816.9032	881.12	903.3252	965.3666	1047.2503	1062.5763	1080.5652	1144.8177	1201.7593	1248.9082	1262.9354	1303.2919	1327.5932	1414.0535	1452.94	1473.4766	1538.6354	1641.8953	1681.292	1808.3478	2904.1978	3027.4817	3104.5729	3251.5796	3281.1723	3545.4803	3645.493
NC1=C(CC=O)OC=C1	Nc1c(CC=O)occ1	
InChI=1S/C6H7NO2/c7-5-2-4-9-6(5)1-3-8/h2-4H,1,7H2	InChI=1S/C6H7NO2/c7-5-2-4-9-6(5)1-3-8/h2-4H,1,7H2
