16
gdb 75760	2.52856	1.29208	1.12686	3.1692	72.44	-0.2495	0.0069	0.2564	1135.1746	0.121011	-437.866084	-437.856499	-437.855555	-437.900588	34.696	
C	 0.0076792521	 1.5002103405	 0.0551462694	-0.417876
C	-0.0081082165	-0.0287605433	 0.0384092821	 0.079533
N	 1.0707266481	-0.6389980895	-0.7648464004	-0.344869
C	 1.8021751397	-1.1442815809	 0.2781720007	 0.377893
O	 2.8791945842	-1.6729352052	 0.3523911454	-0.362151
C	 0.7173697852	-0.7029858085	 1.2967088482	-0.053027
O	 1.0898122878	 0.0872573953	 2.3787114826	-0.41078
C	-1.3340995989	-0.5549827612	-0.2587773135	 0.299259
C	-2.4321967383	-0.9834562051	-0.495340053	-0.444479
H	 1.0119213107	 1.8697086583	 0.2779721447	 0.110799
H	-0.3038321703	 1.899239865	-0.9141402792	 0.128493
H	-0.67846974	 1.8727285856	 0.8196672612	 0.145994
H	 1.2037474769	-0.6876094444	-1.7648350846	 0.256656
H	 0.1280944839	-1.5441618566	 1.6695700152	 0.128982
H	 1.9497434246	 0.4815282838	 2.1987110924	 0.302156
H	-3.4008983991	-1.3663287639	-0.7038296313	 0.203416
53.1198	119.2083	145.5773	180.2611	195.7465	247.822	269.2248	360.1206	398.1175	430.4897	496.0024	509.7268	593.4977	630.3964	633.158	658.1637	722.9629	806.4012	881.2059	902.033	944.8027	1092.0053	1126.7096	1144.6115	1188.1129	1217.2821	1264.0289	1311.2531	1356.8303	1408.4852	1420.1563	1477.8825	1489.8488	1891.9936	2233.0937	3048.1183	3092.8073	3123.2298	3132.849	3499.2363	3606.1018	3815.206
CC1(NC(=O)C1O)C#C	C[C@]1(NC(=O)[C@H]1O)C#C	
InChI=1S/C6H7NO2/c1-3-6(2)4(8)5(9)7-6/h1,4,8H,2H3,(H,7,9)	InChI=1S/C6H7NO2/c1-3-6(2)4(8)5(9)7-6/h1,4,8H,2H3,(H,7,9)/t4-,6+/m1/s1
