16
gdb 17186	4.12153	1.85901	1.61233	2.0151	64.12	-0.2393	0.0679	0.3073	827.6506	0.13036	-383.639385	-383.632622	-383.631678	-383.670379	26.296	
O	-0.0018551762	 1.4093858494	-0.0462177712	-0.414624
C	-0.0007923824	-0.0062122165	-0.0420598398	-0.204906
C	-1.3958493548	-0.538833141	 0.0611254144	 0.462137
O	-2.3245109435	-0.1402773859	-1.0072304179	-0.374497
C	-3.1226314003	-0.9557569042	-0.0977522154	 0.089012
C	-1.9838952015	-1.980797883	 0.2043238056	-0.148459
C	-2.1657608644	-1.8254836412	 1.730216702	-0.280072
C	-2.4632702119	-0.4061452671	 1.2005857411	-0.124438
H	-0.6690488813	 1.6789017358	-0.6888479074	 0.296281
H	 0.4737792377	-0.4161285614	-0.9481071514	 0.101183
H	 0.5900819683	-0.3301644173	 0.8214744961	 0.118113
H	-4.1721485412	-1.126320335	-0.3349220753	 0.09761
H	-1.7179589978	-2.8543801015	-0.3907691358	 0.085365
H	-3.0056526097	-2.3645559157	 2.1763380153	 0.10206
H	-1.2700857782	-1.9420333444	 2.3460554335	 0.104511
H	-2.7301213827	 0.5056365489	 1.7332503662	 0.090722
93.1474	161.4787	256.0633	348.1917	412.9755	470.8466	547.5727	669.1989	737.6823	774.4117	788.3189	855.8843	867.828	910.9335	923.8955	948.8241	1014.4281	1038.3123	1061.8396	1078.2717	1088.1044	1107.0755	1143.3079	1167.8958	1179.9419	1214.0382	1240.4073	1256.1371	1280.2762	1361.028	1376.9665	1443.6153	1490.5803	1516.4303	2979.8133	3055.9004	3074.055	3111.4388	3118.4248	3126.2703	3137.4261	3792.3445
OCC12OC3C1CC23	OC[C@@]12O[C@H]3[C@@H]1C[C@@H]23	
InChI=1S/C6H8O2/c7-2-6-3-1-4(6)5(3)8-6/h3-5,7H,1-2H2	InChI=1S/C6H8O2/c7-2-6-3-1-4(6)5(3)8-6/h3-5,7H,1-2H2/t3-,4+,5-,6+
