22
gdb 10300	2.40266	1.58732	1.02234	0.5918	84.23	-0.2582	0.0556	0.3138	1227.0783	0.197438	-313.050924	-313.04067	-313.039725	-313.0857	37.81	
C	 0.0149100797	 1.6073967848	 0.0677648103	-0.389358
C	-0.0308580422	 0.0798593077	-0.0180080488	-0.185565
C	 0.7220685509	-0.4997753059	-1.2416332854	-0.141255
C	 2.1234563168	-0.0758476314	-1.2154015093	 0.334995
C	 3.2759076475	 0.2648990671	-1.157516148	-0.471109
C	 0.6193442287	-2.0517860171	-1.3580211902	 0.038634
C	-0.8369562808	-2.538413555	-1.3751266954	-0.40229
C	 1.3559339509	-2.5618476588	-2.604507566	-0.397141
H	 1.0431984854	 1.9701886568	 0.1472029951	 0.13274
H	-0.4333252417	 2.0658105303	-0.8211267891	 0.111544
H	-0.5409011087	 1.9631730676	 0.9407255645	 0.110147
H	 0.3934775825	-0.3582198097	 0.8938261003	 0.10224
H	-1.0749915514	-0.2424250733	-0.0680751535	 0.100286
H	 0.2588346837	-0.0761262701	-2.146916338	 0.095673
H	 4.2922293222	 0.5704521111	-1.1228962028	 0.191555
H	 1.114419007	-2.4722028498	-0.4721919106	 0.081019
H	-0.8699910995	-3.6190476712	-1.546596442	 0.111744
H	-1.3601214618	-2.34126529	-0.4364040901	 0.117767
H	-1.4021906095	-2.0603662616	-2.1846788359	 0.111489
H	 2.4011659234	-2.2446874339	-2.6113639151	 0.13015
H	 1.3287997974	-3.655316798	-2.6478186772	 0.108065
H	 0.8821841695	-2.1829381096	-3.5185624928	 0.108672
59.5879	89.9152	157.4933	185.7094	194.9842	241.3364	250.9278	267.195	341.6048	371.5164	419.0046	421.226	522.5237	559.5766	622.229	629.7191	762.1528	830.3808	877.0422	931.2253	946.2756	966.3644	973.9993	1041.9904	1072.9117	1117.23	1142.2387	1177.0733	1188.5129	1273.9604	1287.3313	1339.1903	1349.92	1363.5513	1371.1568	1401.0528	1411.6271	1421.0451	1483.8281	1489.6044	1495.1397	1498.4701	1505.1749	1508.222	1516.038	2225.8554	2979.9501	3015.7566	3026.829	3032.7203	3033.646	3035.9236	3082.9385	3089.5589	3096.7742	3100.2025	3117.4714	3121.9059	3125.1485	3503.5407
CCC(C#C)C(C)C	CC[C@@H](C#C)C(C)C	
InChI=1S/C8H14/c1-5-8(6-2)7(3)4/h1,7-8H,6H2,2-4H3	InChI=1S/C8H14/c1-5-8(6-2)7(3)4/h1,7-8H,6H2,2-4H3/t8-/m1/s1
