22
gdb 105389	1.71681	1.48525	1.07642	3.257	83.15	-0.244	0.0304	0.2745	1290.1213	0.192578	-404.371487	-404.361072	-404.360127	-404.407122	37.957	
C	-0.816771436	 1.4276545225	 0.4774858688	-0.384356
C	-0.0580476109	 0.1834564221	 0.0020880441	-0.238538
C	 0.8331777022	-0.4240068294	 1.0758971323	 0.341669
C	 0.2465675136	-1.3315232154	 2.1343406215	-0.356717
C	 1.1791861951	-1.8965123203	 1.0875459392	-0.005535
C	 0.7124896466	-2.8704356607	 0.0297922835	-0.417804
N	 1.8856108043	 0.4523837466	 1.5392451712	-0.324593
C	 3.008808096	 0.7122323774	 0.8145978441	 0.147766
O	 3.2922698387	 0.1991103049	-0.2466659223	-0.325539
H	-0.1271727582	 2.2157061783	 0.7970040856	 0.110541
H	-1.4355726737	 1.8382958159	-0.3257937925	 0.116224
H	-1.4745519902	 1.1940804912	 1.3220550726	 0.112214
H	-0.7753096708	-0.5691102538	-0.3389167918	 0.096157
H	 0.5697913577	 0.4319130668	-0.8608082358	 0.127185
H	 0.6043527931	-1.2380140896	 3.1544804475	 0.106415
H	-0.8111766204	-1.5617108426	 2.0503792998	 0.112624
H	 2.1875119932	-2.0891616637	 1.4407266843	 0.097912
H	-0.3335715999	-2.7143039499	-0.2483407785	 0.114617
H	 1.3207893371	-2.7823402247	-0.8762171918	 0.136623
H	 0.8002123163	-3.8990300709	 0.3960154856	 0.1172
H	 1.7210153466	 1.0107948989	 2.362935483	 0.245143
H	 3.6592818995	 1.4549124065	 1.3215045297	 0.070794
49.3302	93.0648	127.2377	156.7398	206.1967	213.2216	218.7076	252.1918	299.7653	398.8101	427.9161	436.7818	522.4214	547.7968	665.0111	780.6848	785.1741	838.0553	890.3166	908.1272	952.6904	994.5912	1028.1561	1033.2978	1049.8657	1062.2237	1095.5986	1128.6607	1144.1962	1186.1371	1194.1467	1259.9213	1298.6937	1325.1	1371.6011	1405.4659	1407.2227	1423.4844	1431.4992	1477.3232	1489.8276	1494.5647	1498.506	1502.3902	1505.8012	1510.439	1804.665	2917.9965	3033.024	3034.3052	3048.6181	3082.5755	3096.4082	3104.4063	3107.3614	3110.7764	3123.1203	3157.8381	3208.8444	3613.117
CCC1(CC1C)NC=O	CC[C@]1(C[C@H]1C)NC=O	
InChI=1S/C7H13NO/c1-3-7(8-5-9)4-6(7)2/h5-6H,3-4H2,1-2H3,(H,8,9)	InChI=1S/C7H13NO/c1-3-7(8-5-9)4-6(7)2/h5-6H,3-4H2,1-2H3,(H,8,9)/t6-,7-/m1/s1
