21
gdb 122563	5.18861	0.69698	0.67618	1.1533	79.77	-0.2353	0.0851	0.3204	1735.0244	0.18136	-424.16756	-424.15825	-424.157306	-424.202641	33.87	
C	-0.1506980088	 1.3453114502	 0.1247360721	-0.22788
O	 0.1406055958	-0.0201077466	-0.0443767634	-0.232176
C	 0.6038964217	-0.6309539384	 1.1408748672	-0.048713
C	 0.8469520341	-2.1086518719	 0.8570838461	-0.229418
C	 1.3836276554	-2.8440685856	 2.070170456	 0.13694
O	 0.4877440753	-2.8121395485	 3.2280958605	-0.308799
C	 0.6046586627	-4.2299505444	 3.3694875455	 0.113592
C	 0.0188994361	-4.9343663448	 2.1896823412	-0.297747
C	 1.4266559821	-4.372730885	 2.1111406198	-0.15464
H	 0.7394723628	 1.9206333495	 0.4270414568	 0.100997
H	-0.5063242734	 1.7269281277	-0.8356845212	 0.124426
H	-0.9332517151	 1.5066321607	 0.8833904471	 0.103804
H	 1.5354313667	-0.1459773292	 1.4838945462	 0.07959
H	-0.1348515167	-0.5216433819	 1.950669855	 0.107099
H	-0.0881938016	-2.5639996451	 0.516932229	 0.109529
H	 1.5725129092	-2.2029356937	 0.0395796972	 0.107457
H	 2.3516571666	-2.4219845588	 2.374250314	 0.080216
H	 0.7112959627	-4.6340945087	 4.3692850983	 0.103344
H	-0.0183082785	-6.0171006968	 2.2622064474	 0.114789
H	-0.8059309399	-4.481549897	 1.6477190445	 0.118864
H	 2.2935057028	-4.9831532218	 1.8985495608	 0.098726
57.6806	81.9279	106.9213	125.5162	218.9338	236.5724	279.6135	343.8427	439.9706	486.8031	559.8775	719.1422	767.5096	798.4615	816.176	896.1029	948.5845	970.4015	976.2657	1014.1524	1023.2187	1043.1559	1050.4365	1080.6609	1084.4765	1103.5837	1146.7342	1165.3588	1185.2114	1200.5107	1223.766	1237.143	1262.2541	1280.7056	1309.6391	1316.4145	1367.0202	1403.8635	1428.72	1473.97	1481.265	1483.2794	1485.1513	1505.6898	1534.5902	2944.1897	2967.2482	2995.8831	3006.4526	3008.7852	3040.6377	3095.4441	3110.8622	3120.535	3181.0127	3202.8419	3212.5673
COCCC1OC2CC12	COCC[C@H]1O[C@H]2C[C@@H]12	
InChI=1S/C7H12O2/c1-8-3-2-6-5-4-7(5)9-6/h5-7H,2-4H2,1H3	InChI=1S/C7H12O2/c1-8-3-2-6-5-4-7(5)9-6/h5-7H,2-4H2,1H3/t5-,6+,7-/m0/s1
