16
gdb 50132	4.87456	0.91933	0.83894	2.7583	73.64	-0.2434	-0.0465	0.1969	1316.1081	0.122828	-437.854622	-437.84635	-437.845405	-437.888245	29.819	
O	-0.0105383499	-0.0676348963	-0.0590552121	-0.250455
C	 0.0119721741	 1.1150454119	 0.1712035201	 0.153442
C	 1.2469164115	 1.9744215386	 0.0418050665	-0.076555
C	 1.171800356	 3.2023998973	-0.9498128365	-0.31372
C	 1.4721051572	 4.1343789169	 0.2211254566	 0.269505
N	 0.4012812922	 3.9163415699	 1.2276262321	-0.352192
C	 1.5095201067	 2.9699445424	 1.1908726008	-0.127722
C	 2.3419692254	 5.3122985289	 0.2613449505	 0.048831
O	 2.8810410149	 5.7980261484	-0.7037429396	-0.258899
H	-0.8968630978	 1.6639865441	 0.4958693431	 0.10082
H	 2.1087871101	 1.3388448304	-0.1640199656	 0.10798
H	 1.9707724171	 3.1780059262	-1.6902465213	 0.14457
H	 0.2124250725	 3.3758101831	-1.4411096641	 0.125864
H	 0.5504175526	 4.5575781985	 2.0079193075	 0.244141
H	 2.1543572468	 2.8204099645	 2.0487024769	 0.120307
H	 2.4901848305	 5.7264627854	 1.2878596452	 0.064083
65.6723	86.1245	163.6552	168.4473	288.7982	307.7147	384.8023	431.0581	484.4551	565.3629	697.6158	752.6378	810.8698	858.3011	875.6882	933.7797	952.5445	1012.2773	1017.844	1069.8078	1083.0475	1105.426	1118.8154	1172.5894	1215.9583	1234.6068	1263.1378	1302.7819	1356.4381	1398.0883	1420.8759	1438.5148	1475.6643	1802.8787	1825.2927	2840.9076	2919.1367	3085.4403	3114.7623	3154.7337	3191.6509	3466.866
O=CC1CC2(NC12)C=O	O=C[C@H]1C[C@]2(N[C@@H]12)C=O	
InChI=1S/C6H7NO2/c8-2-4-1-6(3-9)5(4)7-6/h2-5,7H,1H2	InChI=1S/C6H7NO2/c8-2-4-1-6(3-9)5(4)7-6/h2-5,7H,1H2/t4-,5+,6+/m1/s1
