17
gdb 75782	2.45389	1.30518	1.1851	2.1297	70.44	-0.2584	-0.0421	0.2163	1115.4821	0.132212	-458.977178	-458.967707	-458.966763	-459.011677	33.796	
C	-0.0906179283	 1.7139765501	 0.4194512412	-0.47083
C	-0.0910908968	 0.218620715	 0.1251805827	 0.146366
C	 0.984092875	-0.2593276086	-0.9038117644	-0.369988
C	 1.880989823	-0.5281452422	 0.2966387646	 0.335033
O	 3.0448379253	-0.357897721	 0.5363373362	-0.310757
C	 0.6977572112	-0.6239122414	 1.2567729687	 0.030965
O	 0.8547718203	-0.1308422427	 2.5410231655	-0.415575
C	-1.4729122	-0.3395611201	-0.1038655051	 0.099868
O	-1.6999532546	-1.3511659133	-0.7200367353	-0.258723
H	 0.9240520599	 2.0822263342	 0.5985567194	 0.130582
H	-0.505696567	 2.2805100637	-0.4201524405	 0.129884
H	-0.6821283834	 1.933731574	 1.3131483392	 0.140834
H	 0.644132894	-1.1749467278	-1.3975815325	 0.157195
H	 1.3498879889	 0.457521248	-1.6403011186	 0.135036
H	 0.2705844969	-1.6335837892	 1.2835956619	 0.129763
H	 1.7304784369	 0.2750696057	 2.5885099908	 0.302714
H	-2.2965322014	 0.2355258857	 0.3754744261	 0.087634
66.4895	90.1112	164.7524	176.4243	219.2137	234.1721	244.6871	315.9798	341.2501	409.5902	473.6266	582.9165	643.705	691.211	758.0245	790.0286	811.6381	903.0181	950.5551	996.4786	1042.267	1097.578	1123.4182	1134.0801	1200.0483	1206.5094	1239.5425	1281.3779	1325.8467	1409.0824	1414.8436	1422.7503	1446.9963	1489.4567	1496.0348	1811.8527	1869.8444	2882.9637	3038.8852	3044.4192	3066.9153	3107.7983	3114.6934	3139.1527	3764.1998
CC1(CC(=O)C1O)C=O	C[C@]1(CC(=O)[C@H]1O)C=O	
InChI=1S/C6H8O3/c1-6(3-7)2-4(8)5(6)9/h3,5,9H,2H2,1H3	InChI=1S/C6H8O3/c1-6(3-7)2-4(8)5(6)9/h3,5,9H,2H2,1H3/t5-,6+/m1/s1
