18
gdb 13598	4.26739	1.19042	1.11294	3.2974	69.38	-0.2481	-0.026	0.2221	1155.8469	0.150918	-384.944946	-384.935885	-384.934941	-384.979193	31.892	
C	-0.3343882913	 1.6980212928	-0.121285232	-0.379391
C	-0.4242195504	 0.1894797263	-0.3317962793	-0.289708
C	 0.8244975369	-0.4107945539	-0.960901811	 0.371078
O	 1.7510867237	 0.2640328241	-1.3482423625	-0.307992
C	 0.826304335	-1.9157921746	-1.0523124805	-0.049686
O	 1.7169398655	-2.5249564407	-1.9814339765	-0.233349
C	 1.9900109235	-2.7296739978	-0.6036280951	 0.085959
C	 3.2656071174	-2.1543049427	-0.0489860927	-0.432949
H	 0.4911719801	 1.9503658333	 0.5494532613	 0.130179
H	-0.1499521353	 2.2102966151	-1.0684936183	 0.137594
H	-1.2615615138	 2.0845666302	 0.3103390147	 0.111668
H	-0.6181034294	-0.3398183609	 0.612290091	 0.122449
H	-1.2746272024	-0.0709568147	-0.9787692468	 0.129065
H	-0.1591837765	-2.3810075017	-0.9938871886	 0.093552
H	 1.7403302053	-3.7342088838	-0.2531255803	 0.096056
H	 3.4290514686	-1.1423516131	-0.4201662939	 0.166148
H	 3.232471368	-2.1426032213	 1.0457672683	 0.118224
H	 4.1112746952	-2.7812923667	-0.3503683277	 0.131103
51.1233	75.0317	167.9375	175.3388	196.8795	228.4862	286.3432	358.552	389.1209	439.3442	580.7217	664.1848	774.4766	806.9814	836.7585	873.1978	963.1096	1005.3441	1022.135	1040.0277	1070.1656	1102.8281	1128.8322	1168.6124	1174.9068	1275.0929	1288.1506	1360.0489	1393.9231	1414.3388	1414.7616	1449.5427	1449.9743	1491.8399	1493.2153	1498.0372	1502.5099	1805.6389	3010.0804	3035.6961	3040.9044	3052.8567	3077.4585	3098.815	3100.759	3123.2793	3130.3975	3157.5271
CCC(=O)C1OC1C	CCC(=O)[C@H]1O[C@H]1C	
InChI=1S/C6H10O2/c1-3-5(7)6-4(2)8-6/h4,6H,3H2,1-2H3	InChI=1S/C6H10O2/c1-3-5(7)6-4(2)8-6/h4,6H,3H2,1-2H3/t4-,6-/m0/s1
