17
gdb 86637	2.16207	1.57216	1.04708	2.1228	69.93	-0.2449	-0.0517	0.1932	1154.8191	0.133655	-458.996233	-458.987531	-458.986587	-459.030123	31.454	
C	-0.0216652122	 1.4928709744	 0.0450990016	-0.406004
C	 0.1000305573	-0.0155587153	 0.1268439225	 0.128688
C	 0.5008110948	-0.7288855071	-1.1712449521	-0.349835
C	 1.3028763428	-1.9289658907	-0.6781509423	 0.362388
O	 1.639332962	-2.908898398	-1.2836974333	-0.297291
C	 1.5912035343	-1.6436692059	 0.8157850964	-0.098082
O	 1.1631107183	-0.3332358156	 1.0517610164	-0.253871
C	 0.866955768	-2.69171137	 1.6647061494	 0.140714
O	-0.0838445562	-2.4459749455	 2.3554703822	-0.230033
H	 0.906142707	 1.9329910351	-0.3334710438	 0.124002
H	-0.8419566192	 1.7743289397	-0.6219272278	 0.122939
H	-0.2234167635	 1.9093973558	 1.0354378635	 0.137992
H	-0.8338751324	-0.4472719859	 0.5125428713	 0.101534
H	-0.3311279031	-1.0453483525	-1.8033899351	 0.141725
H	 1.1673954828	-0.0994888922	-1.774554683	 0.140337
H	 2.6687124732	-1.7348302335	 1.0047515828	 0.131773
H	 1.2886856161	-3.7154523928	 1.5655441514	 0.103025
80.3044	97.7976	111.9636	215.0135	231.6478	265.7634	303.5458	443.5271	466.2463	529.1132	589.7036	603.5103	763.8701	795.6775	833.2252	867.658	901.0978	915.8531	971.6739	1043.1626	1104.0164	1131.6344	1152.495	1168.3086	1194.1483	1219.2594	1253.9063	1323.071	1355.6351	1395.3718	1404.4531	1416.7037	1446.0758	1483.8073	1498.0272	1827.5131	1861.989	2902.1751	3012.2313	3038.1112	3041.1532	3043.7694	3116.8258	3121.6624	3125.2417
CC1CC(=O)C(O1)C=O	C[C@H]1CC(=O)[C@@H](O1)C=O	
InChI=1S/C6H8O3/c1-4-2-5(8)6(3-7)9-4/h3-4,6H,2H2,1H3	InChI=1S/C6H8O3/c1-4-2-5(8)6(3-7)9-4/h3-4,6H,2H2,1H3/t4-,6-/m0/s1
