17
gdb 91530	2.57106	1.55684	1.13895	4.5359	69.21	-0.248	0.0008	0.2488	1073.8405	0.137665	-455.130093	-455.121953	-455.121009	-455.163083	30.866	
N	-0.168324792	 1.4512514992	 0.0790884358	-0.539373
H	 0.2192142211	 0.5263905972	-0.0844518165	 0.251163
H	 1.137309885	 2.6590210197	 1.5194600651	 0.315269
H	-0.7208883531	 1.710157161	-0.7313344051	 0.239105
C	-0.9451661575	 1.4443018735	 1.3010050877	-0.057991
C	-2.0355838783	 0.3641347531	 1.7155865346	-0.255039
C	-1.1868350689	 0.061203366	 2.9574893089	-0.122641
N	 0.0879406266	-0.4442100441	 2.4257898443	-0.373516
C	-0.1382303221	 1.031673788	 2.5228721842	 0.243421
C	 0.8668941063	 1.8611942187	 3.2360188938	 0.323217
O	 1.1923161682	 1.7184162577	 4.3847234118	-0.343333
O	 1.4255683396	 2.8007750014	 2.4405235294	-0.379761
H	-1.3654371954	 2.4437620532	 1.4495178395	 0.103016
H	-3.0094879776	 0.8101286219	 1.9240381355	 0.110045
H	-2.1467788729	-0.4867539468	 1.0400677896	 0.11241
H	-1.5095171985	-0.1693359135	 3.9641704953	 0.1226
H	 0.6812434597	-0.6776163163	 3.2241744562	 0.251408
75.1723	118.8027	168.5	200.6642	312.1749	390.1296	416.8972	458.9038	471.2138	637.125	666.5021	708.0803	735.5944	764.7568	818.2889	858.846	895.6277	905.2738	956.8647	988.2794	1032.3174	1051.4168	1094.8752	1149.361	1158.2094	1165.3	1225.6247	1226.6875	1264.3077	1314.2497	1343.0626	1368.3268	1416.08	1444.2396	1477.4442	1648.0675	1857.8762	3065.7595	3073.6201	3136.4185	3211.9698	3461.233	3499.596	3584.2422	3609.7557
[NH3+]C1CC2NC12C([O-])=O	N[C@H]1C[C@H]2N[C@@]12C(=O)O	
InChI=1S/C5H8N2O2/c6-2-1-3-5(2,7-3)4(8)9/h2-3,7H,1,6H2,(H,8,9)	InChI=1S/C5H8N2O2/c6-2-1-3-5(2,7-3)4(8)9/h2-3,7H,1,6H2,(H,8,9)/t2-,3+,5-/m0/s1
