17
gdb 51302	3.03906	1.08501	0.88094	4.0645	76.93	-0.2453	-0.0534	0.1919	1309.9675	0.134906	-421.879225	-421.870537	-421.869593	-421.914061	30.668	
O	-0.5581904171	 0.6176081945	 0.6672192172	-0.233833
C	 0.1988060953	 0.8906586228	-0.2266458033	 0.152856
C	 1.3645752585	 1.8639802881	-0.0876276549	-0.385402
C	 1.3213207641	 2.9285032914	-1.143043973	 0.191547
C	 0.9766654445	 4.2198593213	-1.0352501835	-0.153823
C	 1.0589423191	 4.9777457547	-2.3368012931	-0.264972
C	 1.5325178135	 3.9243919488	-3.3577264313	-0.328386
C	 1.6825870078	 2.6282699164	-2.5536779052	 0.338492
O	 2.0311991285	 1.5488356939	-2.9782349375	-0.337579
H	 0.1005542334	 0.4386077726	-1.2360724371	 0.103472
H	 1.3521276988	 2.2782438407	 0.9227776798	 0.124648
H	 2.28192722	 1.2747461439	-0.2271495899	 0.143804
H	 0.6700353644	 4.7033283185	-0.1128557351	 0.118535
H	 0.0859451864	 5.4113234372	-2.5978491743	 0.126864
H	 1.7513680503	 5.8239902609	-2.2527658831	 0.125617
H	 0.8213132491	 3.7651239048	-4.1732884639	 0.13929
H	 2.4905768234	 4.1761429295	-3.8216294719	 0.13887
45.3911	66.6724	93.4555	153.6809	232.3159	276.9907	393.1469	433.6652	510.4229	601.2325	645.2011	694.7459	771.8393	803.3679	810.8516	892.1908	926.8184	1002.3395	1025.9912	1041.2827	1052.7943	1074.5055	1151.603	1195.7089	1216.2657	1230.7958	1268.6774	1294.5441	1322.7363	1357.0602	1415.9147	1447.1863	1449.5499	1482.6127	1691.1691	1801.9256	1834.1456	2917.649	3021.396	3032.9105	3057.385	3068.2519	3108.1037	3116.4573	3185.9126
O=CCC1=CCCC1=O	O=CCC1=CCCC1=O	
InChI=1S/C7H8O2/c8-5-4-6-2-1-3-7(6)9/h2,5H,1,3-4H2	InChI=1S/C7H8O2/c8-5-4-6-2-1-3-7(6)9/h2,5H,1,3-4H2
