19
gdb 62084	2.74678	1.04245	0.80571	8.1756	76.87	-0.2273	0.0121	0.2394	1418.926	0.15793	-456.361515	-456.351721	-456.350777	-456.396483	35.557	
C	-0.3547299456	 1.4328523452	 0.9327243878	-0.39241
C	-0.0967588828	 0.4099092144	-0.1785722636	-0.125401
C	 0.7250444672	 1.0599122638	-1.3168326324	-0.161211
N	 0.484964381	 0.501157133	-2.6538218077	-0.221684
C	 0.2677462003	-0.7866796322	-2.8802255766	-0.002098
N	 0.1018391915	-1.1352789105	-4.1570758511	-0.476872
H	-0.070101631	-2.0984814357	-4.3848896563	 0.280149
H	 0.1361842295	-0.4895856223	-4.9420548392	 0.229498
C	 0.5759643041	-0.8538444239	 0.4118407993	 0.396157
O	 0.8788220941	-0.9176943731	 1.5802072143	-0.344129
O	 0.7867960799	-1.856263765	-0.4292426117	-0.386286
H	 0.585844976	 1.8163830645	 1.3384604177	 0.129151
H	-0.9429886781	 2.2750017076	 0.5532962804	 0.096208
H	-0.8921133754	 0.9688493563	 1.7607565215	 0.138504
H	-1.0546251939	 0.0966240978	-0.6130196223	 0.102094
H	 0.4545345796	 2.1188260913	-1.3739723625	 0.11068
H	 1.796313208	 1.0192048585	-1.0797630353	 0.131816
H	 0.5575092939	 1.174847847	-3.4156065239	 0.214092
H	 0.5007037217	-1.6069624967	-1.3794384982	 0.281742
57.9561	94.7429	150.618	189.6331	210.4664	236.7761	265.9503	318.9	334.717	393.1089	421.391	516.4952	584.7457	616.1506	681.774	728.5494	742.7666	817.568	896.8175	936.0797	1016.3623	1065.9518	1084.8021	1113.0871	1131.1722	1174.6685	1241.0599	1271.6251	1291.702	1341.3384	1356.443	1403.6125	1417.6284	1423.2425	1487.0093	1493.1257	1504.2916	1536.0771	1598.7177	1661.7595	1829.4401	2676.3704	3019.3812	3034.8372	3041.9716	3074.2715	3111.1487	3142.6597	3426.3891	3460.4371	3697.3891
CC(CNC=[NH2+])C([O-])=O	C[C@@H](CN[C]N)C(=O)O	
InChI=1S/C5H10N2O2/c1-4(5(8)9)2-7-3-6/h3-4H,2H2,1H3,(H2,6,7)(H,8,9)	InChI=1S/C5H10N2O2/c1-4(5(8)9)2-7-3-6/h4,7H,2,6H2,1H3,(H,8,9)/t4-/m0/s1
