18
gdb 104235	2.22673	1.43096	1.07609	1.5327	71.03	-0.2538	0.0149	0.2687	1184.0328	0.146412	-476.207332	-476.197907	-476.196962	-476.241909	33.813	
C	-0.0042540223	 1.3065447044	 0.2580162418	-0.345206
N	-0.108418577	-0.1430115349	 0.3796469136	-0.355934
C	-1.1382142265	-0.7307224351	-0.0251409886	 0.434091
O	-2.3181071079	-0.2650158493	-0.5685065433	-0.270505
C	-2.8727680053	-1.6221604503	-0.6250246628	-0.130773
C	-1.5840133512	-2.190584812	 0.0018191479	 0.228722
O	-0.9039984328	-3.0732295249	-0.8482853657	-0.468564
C	-1.6043442866	-2.7281786587	 1.4315391108	-0.130004
O	-0.2585976914	-2.8977375621	 1.8496006088	-0.430215
H	 0.8712151967	 1.552213026	-0.352306217	 0.134564
H	-0.8882127973	 1.7771941079	-0.1863102892	 0.132166
H	 0.1640959738	 1.7382017573	 1.2503528348	 0.130286
H	-3.7899697171	-1.691755298	-0.0355340561	 0.122222
H	-3.0370510998	-1.9409010977	-1.6554840031	 0.136928
H	-0.1532371998	-3.3995115396	-0.3314456489	 0.293051
H	-2.1646429724	-2.0546838885	 2.0963130784	 0.099974
H	-2.0731524029	-3.7173210315	 1.4587968367	 0.118276
H	 0.1627781898	-2.025865773	 1.7840104318	 0.300921
81.7563	97.5993	120.1512	141.2112	194.7568	236.6981	311.8536	340.7848	362.524	452.5681	470.2529	584.2113	624.1253	722.5728	741.9621	784.8032	917.5477	939.9583	958.5416	1026.479	1054.514	1071.6055	1121.3783	1131.1408	1145.8843	1151.8774	1187.775	1229.3643	1273.6313	1336.5923	1365.553	1429.7508	1438.7837	1450.3902	1493.3348	1496.6287	1498.267	1502.7345	1836.8163	3000.4742	3022.9602	3070.4934	3081.149	3089.7221	3095.8025	3140.3696	3695.9094	3744.006
CN=C1OCC1(O)CO	CN=C1OC[C@]1(O)CO	
InChI=1S/C5H9NO3/c1-6-4-5(8,2-7)3-9-4/h7-8H,2-3H2,1H3	InChI=1S/C5H9NO3/c1-6-4-5(8,2-7)3-9-4/h7-8H,2-3H2,1H3/t5-/m1/s1
