12
gdb 5190	8.28246	1.23584	1.07538	2.681	59.45	-0.2357	-0.0124	0.2233	1002.1546	0.084929	-414.676084	-414.669399	-414.668455	-414.708249	23.164	
N	-0.1018263909	 1.2911613795	 0.0099092773	-0.429493
C	-0.0044655403	 0.0363337007	 0.0020596191	 0.101176
O	-1.159678413	-0.694096591	 0.0071949323	-0.222508
C	-1.0892865055	-2.0443051056	-0.0003832348	 0.372073
C	-2.1490768376	-2.8911532593	 0.0024418195	-0.152061
O	-1.6350632237	-4.1646107745	-0.0075926732	-0.134169
C	-0.3034933462	-3.9974586235	-0.0159552651	 0.096212
N	 0.0895509882	-2.7620644771	-0.0121216041	-0.339844
H	 0.8280510432	 1.7062161997	 0.0050473169	 0.236997
H	 0.8945581065	-0.5804919085	-0.0082257376	 0.14547
H	-3.2171140722	-2.7810211789	 0.0103121021	 0.162871
H	 0.3057046417	-4.8871357114	-0.0247274424	 0.163275
36.4248	101.4455	191.9414	331.9639	463.4702	489.8388	638.986	687.3885	744.6243	800.9423	833.1484	839.4414	936.5587	986.6614	1060.0869	1072.2705	1087.2123	1164.0043	1242.454	1281.8183	1332.4152	1351.0147	1405.5491	1550.9951	1647.7081	1748.8009	3135.0557	3281.0608	3319.1114	3517.1066
N=COC1=COC=N1	[NH][CH]Oc1cocn1	
InChI=1S/C4H4N2O2/c5-2-8-4-1-7-3-6-4/h1-3,5H	InChI=1S/C4H4N2O2/c5-2-8-4-1-7-3-6-4/h1-3,5H
