18
gdb 9309	6.2679	0.78785	0.71208	2.7088	76.1	-0.2627	-0.0546	0.2081	1569.0655	0.150476	-347.793789	-347.784177	-347.783232	-347.829043	33.352	
C	 0.0871140521	 1.5388783296	 0.0091623185	-0.380115
C	 0.0024482671	 0.0102543537	 0.0020417149	-0.176599
C	-1.4401582241	-0.5057278544	 0.0129197143	-0.161437
C	-1.523235653	-2.0313551175	 0.0057888851	-0.305909
C	-2.9443095049	-2.5662016705	 0.0164691885	 0.225134
O	-3.9268077933	-1.8568779264	 0.0298760152	-0.287334
C	-3.0595805128	-4.0182620489	 0.0096025021	 0.247208
C	-3.1344147203	-5.2197168114	 0.0037775605	-0.393182
H	 1.1266361408	 1.8809084258	 0.0011759498	 0.111801
H	-0.4118620039	 1.9664319858	-0.8674139545	 0.11685
H	-0.3952797341	 1.9572831335	 0.8993299531	 0.116852
H	 0.5236991433	-0.3817699216	-0.8816776708	 0.094516
H	 0.5401648795	-0.3908510958	 0.8717091353	 0.094516
H	-1.968792873	-0.121541635	 0.8930275671	 0.111796
H	-1.9851872011	-0.1124800863	-0.8530782485	 0.111777
H	-1.0163228835	-2.4572886381	-0.8719805458	 0.130481
H	-0.9999438338	-2.4662738444	 0.8694394958	 0.1305
H	-3.2203855351	-6.2792615681	-0.0010716907	 0.213145
47.6631	79.0224	95.5132	132.3656	177.9185	239.1882	248.6847	297.9417	358.2624	501.9724	566.7935	608.6836	643.5853	702.313	732.9859	804.3016	824.7946	914.3313	934.4519	1020.0275	1068.7043	1081.2223	1114.2704	1144.9378	1232.573	1288.5481	1309.1235	1329.0052	1370.7172	1401.3502	1414.1558	1445.9637	1484.2193	1494.9011	1499.062	1511.4833	1769.7348	2210.4645	3010.3506	3013.5169	3030.7498	3036.3375	3039.7459	3041.4565	3080.4105	3098.8901	3103.5839	3495.1884
CCCCC(=O)C#C	CCCCC(=O)C#C	
InChI=1S/C7H10O/c1-3-5-6-7(8)4-2/h2H,3,5-6H2,1H3	InChI=1S/C7H10O/c1-3-5-6-7(8)4-2/h2H,3,5-6H2,1H3
