16
gdb 18377	3.05799	2.6211	1.76074	1.5513	70.28	-0.2323	-0.0002	0.2321	774.8774	0.132641	-346.587182	-346.580851	-346.579907	-346.617241	25.547	
C	-0.0340701932	 1.4981963584	 0.2770632549	-0.312943
C	 1.3091602666	 2.1165819612	-0.0626689232	-0.093798
C	 2.4764359453	 1.759815661	 0.4822896828	-0.022158
C	 2.6677803587	 0.7286358313	 1.5237459872	-0.003706
O	 1.6282617383	 0.5068733095	 2.4799093682	-0.246683
C	 1.8754673753	-0.5480272045	 1.5471187491	-0.003704
C	 0.8496272738	-0.8614967134	 0.5302788853	-0.022158
C	 0.0027815291	 0.0115857527	-0.0241338078	-0.093799
H	-0.2777469272	 1.6686815988	 1.3290464645	 0.146986
H	-0.8173691539	 1.9734177074	-0.3184271302	 0.09784
H	 1.3181859167	 2.8729935055	-0.8430615326	 0.09649
H	 3.3902095999	 2.2317618565	 0.1308043521	 0.086484
H	 3.6675538164	 0.681976385	 1.9555009213	 0.094088
H	 2.3682625592	-1.4115882788	 1.9938316859	 0.094087
H	 0.8267981212	-1.8987311868	 0.2064256338	 0.086485
H	-0.6836548861	-0.3526178336	-0.7840107014	 0.09649
188.6731	257.7061	296.536	364.931	368.5587	559.1071	580.0672	671.1366	714.9022	748.3423	781.1665	821.952	877.4094	887.9847	943.4668	952.7738	987.5898	990.1566	1023.7002	1045.9977	1092.425	1144.9497	1215.895	1227.8665	1261.4724	1289.2408	1341.8748	1377.981	1421.726	1426.9136	1438.7714	1479.1452	1706.1288	1708.2397	3062.8996	3101.4447	3102.3403	3113.2637	3149.5241	3152.2036	3171.8396	3174.509
C1C=CC2OC2C=C1	C1C=C[C@H]2O[C@H]2C=C1	
InChI=1S/C7H8O/c1-2-4-6-7(8-6)5-3-1/h2-7H,1H2	InChI=1S/C7H8O/c1-2-4-6-7(8-6)5-3-1/h2-7H,1H2/t6-,7+
