16
gdb 15596	3.57955	1.75125	1.38027	1.3205	66.07	-0.248	0.0426	0.2906	905.4305	0.130203	-383.700503	-383.692695	-383.691751	-383.732959	28.982	
O	 0.0999156934	 1.4953034202	 0.4522986649	-0.421287
C	 0.035219873	 0.1428933019	 0.0655392894	 0.137787
C	 0.7166155528	-0.766402292	 1.0902717957	-0.117372
O	-0.2387177678	-0.8410837676	 2.1423502191	-0.2566
C	-1.5029480195	-1.0680724419	 1.526086192	-0.09472
C	-1.417319311	-0.4474848387	 0.0885848359	-0.260324
C	-2.4671240727	 0.5101691225	-0.207291808	 0.335417
C	-3.3562368122	 1.2863870499	-0.4344958656	-0.456683
H	-0.2047018439	 1.5472817602	 1.3664171456	 0.287937
H	 0.4744705993	 0.0864777106	-0.9327196214	 0.097414
H	 0.9305650912	-1.7632763864	 0.6700053106	 0.089759
H	 1.6370486493	-0.3350537627	 1.4885066786	 0.122225
H	-1.710628381	-2.1452830524	 1.4625494741	 0.102177
H	-2.2719262148	-0.5981488623	 2.1420943546	 0.125993
H	-1.4577999873	-1.2579183217	-0.6481615842	 0.111552
H	-4.1309260587	 1.9815614404	-0.6441484715	 0.196724
50.5617	145.0681	189.645	218.0291	344.7942	376.2163	417.1972	489.7024	544.7989	626.8891	629.177	722.1969	755.9584	812.47	885.3901	934.4893	941.7851	1004.1218	1044.8117	1067.9882	1114.6038	1134.7231	1211.3795	1235.1254	1253.8142	1266.8229	1313.1305	1348.6968	1352.9039	1391.2998	1435.9965	1497.9787	1521.0284	2238.6467	2969.4763	3003.4586	3039.78	3099.9489	3110.7772	3116.9156	3504.8971	3789.6009
OC1COCC1C#C	O[C@H]1COC[C@H]1C#C	
InChI=1S/C6H8O2/c1-2-5-3-8-4-6(5)7/h1,5-7H,3-4H2	InChI=1S/C6H8O2/c1-2-5-3-8-4-6(5)7/h1,5-7H,3-4H2/t5-,6+/m1/s1
