17
gdb 77038	2.823	1.12509	1.04366	4.1959	74.86	-0.2497	-0.0563	0.1934	1202.4989	0.134293	-417.993821	-417.984607	-417.983663	-418.028234	32.591	
C	-1.8901523079	 0.6250939575	-0.7268190139	-0.346158
N	-0.8292281006	-0.3603705561	-0.5210660463	-0.083335
C	 0.3758089833	-0.3549216756	-1.2961671715	-0.002293
C	 0.6969674876	 0.6877261321	-2.3632499809	-0.389218
C	-0.047240311	 0.4371656155	-3.5973820754	 0.269684
N	-0.6424990999	 0.2298970059	-4.5658203958	-0.306159
C	 0.4201551992	-0.0182036476	 0.1858923859	-0.133687
C	 0.7476279258	 1.354851295	 0.6518442107	 0.14992
O	 0.4335795031	 2.3922672901	 0.1080490715	-0.27344
H	-1.5480839305	 1.6588872189	-0.8333468716	 0.149039
H	-2.4446579178	 0.3310502547	-1.6220130371	 0.151879
H	-2.5681235864	 0.5722605707	 0.1293826307	 0.133654
H	 0.7322112644	-1.3518051317	-1.5538865563	 0.12339
H	 0.4844690739	 1.6973957362	-2.0042722782	 0.193356
H	 1.7684716439	 0.6459302522	-2.5899491419	 0.158366
H	 0.7620398172	-0.7944517792	 0.8677611677	 0.108568
H	 1.3272665656	 1.3712125414	 1.6000050023	 0.096436
55.1524	108.3492	167.197	181.7561	202.6668	213.9131	264.0611	369.1007	391.6603	403.8608	473.0277	564.562	710.0498	758.5284	822.1361	850.5755	947.2549	972.1213	988.8366	1025.2688	1083.1257	1117.1102	1147.937	1164.0469	1174.2637	1232.6461	1317.6882	1349.3789	1382.7409	1419.5503	1431.2826	1452.4316	1469.9692	1485.1478	1518.6321	1785.5127	2362.8061	2900.3789	3039.706	3053.7124	3104.6531	3110.9416	3120.6059	3124.0388	3129.5795
CN1C(CC#N)C1C=O	CN1[C@@H](CC#N)[C@H]1C=O	
InChI=1S/C6H8N2O/c1-8-5(2-3-7)6(8)4-9/h4-6H,2H2,1H3	InChI=1S/C6H8N2O/c1-8-5(2-3-7)6(8)4-9/h4-6H,2H2,1H3/t5-,6+,8?/m0/s1
