19
gdb 112346	2.42618	1.30361	0.88485	3.7462	80.68	-0.2339	-0.0419	0.192	1312.5014	0.157754	-423.061383	-423.052086	-423.051142	-423.095874	33.602	
C	 0.4360813988	 1.243955231	 0.3828560114	-0.235227
O	-0.3542495207	 0.4500849518	-0.4750577143	-0.248946
C	 0.3995633622	-0.3337254654	-1.381737583	 0.034772
C	 1.0839498062	-1.5714033817	-0.7684309852	-0.365019
C	 0.6643489256	-2.7409801037	-1.6744052099	 0.388343
O	 1.1052203279	-3.8657668663	-1.6273822093	-0.332135
C	-0.3658314268	-2.2192054318	-2.5950379352	-0.302032
C	-0.545530728	-0.9006945459	-2.4295177476	 0.322199
C	-1.5034843164	-0.0011405876	-3.1332123223	-0.492023
H	 1.0703586847	 0.6356614809	 1.043942445	 0.113319
H	 1.0858773564	 1.9283812696	-0.1848626607	 0.106741
H	-0.2479659376	 1.8329816694	 0.998008007	 0.131345
H	 1.1425706271	 0.3144615949	-1.8806673575	 0.078363
H	 2.1722638581	-1.5096267446	-0.698566718	 0.124403
H	 0.6912813976	-1.749542152	 0.2383253569	 0.140858
H	-0.8836757943	-2.8542023838	-3.303625935	 0.111736
H	-2.1222718139	-0.5437253327	-3.8510430848	 0.130696
H	-2.1494895325	 0.4970082752	-2.4028981318	 0.157884
H	-0.9665473644	 0.7948049627	-3.6647589258	 0.134725
68.217	103.6927	140.8134	176.6246	181.7153	220.725	273.843	369.537	407.4682	509.0163	538.1651	557.6194	571.9935	672.1448	828.4134	845.0272	883.4525	953.1566	993.6225	1013.0343	1046.5938	1065.3164	1140.3104	1153.6882	1181.9838	1184.4407	1191.0399	1219.0416	1253.1283	1300.7064	1343.0969	1374.4178	1405.9184	1446.4068	1472.0185	1478.6419	1480.725	1487.919	1509.2451	1687.6629	1815.5689	2937.0078	2978.1442	3028.9961	3029.7371	3061.1034	3088.0149	3115.378	3118.9754	3130.5092	3212.0182
COC1CC(=O)C=C1C	CO[C@H]1CC(=O)C=C1C	
InChI=1S/C7H10O2/c1-5-3-6(8)4-7(5)9-2/h3,7H,4H2,1-2H3	InChI=1S/C7H10O2/c1-5-3-6(8)4-7(5)9-2/h3,7H,4H2,1-2H3/t7-/m0/s1
