17
gdb 19823	3.64169	2.20175	1.88426	2.9174	67.15	-0.2282	0.0676	0.2958	778.1537	0.143104	-363.779379	-363.772783	-363.771839	-363.809759	26.469	
C	-0.2031198417	 1.5774046172	-0.0879706107	-0.413318
C	 0.0614792851	 0.0924078206	 0.0425757774	 0.152243
O	 1.1203019758	-0.4120371492	-0.8321699361	-0.309158
C	 1.7337588478	-1.1308373079	 0.2475235764	 0.128449
C	 2.9153429664	-0.4426967916	 0.9839173275	-0.07831
N	 2.6510453523	 1.0100708472	 0.9902089546	-0.31466
C	 1.9559042326	 0.1483297903	 1.9716899162	-0.0672
C	 0.7534741242	-0.5415660204	 1.2812278486	-0.114621
H	 0.6994358022	 2.1542085488	 0.1078753771	 0.151919
H	-0.5584675006	 1.8020906139	-1.099291516	 0.119455
H	-0.9892269905	 1.8756015372	 0.6154369379	 0.105116
H	-0.8618403167	-0.4641540117	-0.1774688048	 0.069862
H	 1.8510327468	-2.2012767897	 0.0585250106	 0.075246
H	 3.9228116943	-0.8197395624	 1.1139637167	 0.090886
H	 3.4305053426	 1.4458288051	 1.4825777821	 0.231869
H	 2.0702370362	 0.321486127	 3.0348749104	 0.093742
H	 0.152660433	-1.1708529944	 1.9360985923	 0.078479
179.2434	206.7613	219.5406	329.7846	393.0111	506.5122	627.5521	659.4275	750.5908	767.2421	796.8609	853.5466	880.2244	890.1009	931.5721	944.2846	949.7458	1006.7241	1024.9917	1068.9195	1093.5112	1110.4093	1125.2347	1156.6782	1185.2938	1208.0911	1219.8406	1279.677	1303.8514	1324.6825	1349.9905	1368.063	1392.7318	1407.5482	1478.1651	1507.6629	2981.5385	3036.9965	3072.3503	3095.3568	3124.0084	3166.9546	3177.6116	3191.0852	3471.3317
CC1OC2C3NC3C12	C[C@H]1O[C@H]2[C@H]3N[C@H]3[C@@H]12	
InChI=1S/C6H9NO/c1-2-3-4-5(7-4)6(3)8-2/h2-7H,1H3	InChI=1S/C6H9NO/c1-2-3-4-5(7-4)6(3)8-2/h2-7H,1H3/t2-,3-,4+,5+,6-/m1/s1
