25
gdb 40955	3.02392	1.23289	1.10018	0.1097	91.75	-0.2714	0.0781	0.3495	1263.2939	0.232299	-352.376487	-352.368074	-352.36713	-352.409123	34.624	
C	 0.1465169548	 1.3927154269	-0.6108080352	-0.210469
C	 1.4293421207	 1.6220039923	 0.2316853916	-0.279614
C	 1.3002985713	 0.1764771213	 0.8040930953	 0.390182
C	-0.1667447242	 0.1422952681	 0.2525601577	-0.256808
C	 2.2252306516	-0.8201238157	 0.0860070615	-0.244527
C	 2.0108089219	-2.266080799	 0.5578049919	-0.198888
C	 2.1598636421	-2.3858258899	 2.0807874513	-0.176076
C	 1.2298714415	-1.4019343975	 2.804026833	-0.195613
C	 1.4601868586	 0.0377516412	 2.3208933935	-0.263724
H	-0.5965231665	 2.1935336813	-0.6107910418	 0.093771
H	 0.3684971868	 1.1377647384	-1.6504024807	 0.100627
H	 2.3515347817	 1.8532039052	-0.3101474872	 0.088772
H	 1.2870432562	 2.3814280578	 1.0071763058	 0.090584
H	-0.902691483	 0.3510446615	 1.0354269186	 0.092236
H	-0.4807777069	-0.7616248303	-0.2769028157	 0.091689
H	 2.083684955	-0.7512732508	-0.999770231	 0.084889
H	 3.2677604118	-0.5284484625	 0.2798438813	 0.087031
H	 1.0056838388	-2.6006538773	 0.2670727353	 0.093907
H	 2.715967198	-2.9338724628	 0.0498260865	 0.087644
H	 1.9566659545	-3.4129904419	 2.4044566911	 0.086381
H	 3.2008607308	-2.170445286	 2.3606147671	 0.089511
H	 0.1852454015	-1.6853807452	 2.6144612803	 0.093902
H	 1.3749641987	-1.4636720458	 3.8885776443	 0.087144
H	 2.4762691309	 0.3544099483	 2.6000475548	 0.086425
H	 0.7722257631	 0.7246715624	 2.8294035907	 0.081026
106.8441	128.3424	193.9347	275.1149	291.0919	362.5673	386.0107	428.6994	451.6267	523.8447	630.1509	703.2576	787.0976	794.8278	827.978	853.9897	859.0083	878.3041	937.6773	946.0625	947.6818	958.2769	985.1486	990.1717	1046.4007	1051.9575	1083.1793	1110.4307	1120.2948	1166.4868	1183.6883	1211.6405	1215.3211	1256.5723	1264.4225	1274.6979	1285.7487	1288.0256	1318.4729	1325.3782	1355.8744	1368.5039	1377.3126	1378.452	1392.2803	1473.7061	1476.5082	1483.3454	1485.3394	1486.4385	1490.5009	1503.3304	1508.8694	2994.7679	3001.3983	3006.2579	3011.9407	3014.9893	3039.6745	3042.1867	3045.5129	3047.369	3057.843	3058.0986	3061.1139	3064.7157	3084.9674	3091.8722	3113.926
C1CC2(C1)CCCCC2	C1CC2(C1)CCCCC2	
InChI=1S/C9H16/c1-2-5-9(6-3-1)7-4-8-9/h1-8H2	InChI=1S/C9H16/c1-2-5-9(6-3-1)7-4-8-9/h1-8H2
