23
gdb 104396	2.30915	1.39859	1.13949	1.1141	80.5	-0.2388	0.0678	0.3066	1209.7475	0.204901	-425.434007	-425.42385	-425.422906	-425.469147	37.903	
C	 0.3079240311	 1.6690512794	-0.2132347014	-0.414875
C	 0.0268810867	 0.2029056113	 0.121586831	 0.096577
O	 0.4264813474	-0.6467384173	-0.9554623184	-0.275938
C	 1.7460935158	-1.1458694758	-0.7181852726	-0.08271
C	 2.1170703708	-0.778706725	 0.7314321984	-0.27383
C	 0.7683455022	-0.3586469688	 1.3615744969	 0.291333
C	 0.9255164762	 0.6226516711	 2.5270656289	-0.459414
C	-0.0017319957	-1.6031653109	 1.8391507802	-0.114711
O	 0.7651546693	-2.2660916447	 2.8364008072	-0.427432
H	 1.3816242368	 1.8705149066	-0.2866117374	 0.114444
H	-0.1457773409	 1.9077775807	-1.1789721929	 0.122886
H	-0.1151803829	 2.3400795744	 0.5405551876	 0.113746
H	-1.0586910715	 0.0720528111	 0.2260051914	 0.07113
H	 1.7291011599	-2.2300239701	-0.8820879491	 0.099863
H	 2.4480871839	-0.7141383484	-1.4437105831	 0.094016
H	 2.5697068373	-1.6079575291	 1.2772166184	 0.12181
H	 2.8201704392	 0.0592031256	 0.7553841546	 0.09596
H	 1.5351656014	 1.4870740934	 2.2509440315	 0.110989
H	-0.0494386764	 0.9913719683	 2.8672690168	 0.107101
H	 1.4030272606	 0.1226877993	 3.3733083248	 0.135653
H	-0.976142596	-1.2847989103	 2.2440955989	 0.0831
H	-0.1972782377	-2.2646143048	 0.9833252597	 0.101932
H	 0.2988031522	-3.066594486	 3.0922463886	 0.28837
39.6272	108.3707	144.8618	194.9458	234.5788	238.8477	260.6168	295.7158	319.6541	335.7806	367.8085	468.4113	499.6295	613.8379	722.7616	759.6634	811.7847	871.4778	891.2907	933.1759	967.0522	991.1954	1005.977	1040.3071	1057.4863	1067.3674	1107.3951	1128.8231	1169.4154	1196.523	1204.3772	1229.3187	1251.6497	1275.3772	1290.0431	1321.8397	1349.7575	1383.2142	1392.9046	1403.7905	1406.3909	1451.108	1483.2856	1492.7013	1496.6535	1500.057	1510.9469	1524.5487	1536.5315	2967.0627	3008.3451	3013.9436	3018.6369	3032.2472	3038.1725	3040.438	3060.4076	3099.9618	3109.1334	3117.175	3123.3568	3125.7899	3837.6522
CC1OCCC1(C)CO	C[C@H]1OCC[C@]1(C)CO	
InChI=1S/C7H14O2/c1-6-7(2,5-8)3-4-9-6/h6,8H,3-5H2,1-2H3	InChI=1S/C7H14O2/c1-6-7(2,5-8)3-4-9-6/h6,8H,3-5H2,1-2H3/t6-,7-/m1/s1
