15
gdb 66050	2.396	1.38076	1.14005	4.5866	72.15	-0.2565	-0.0036	0.2528	1104.0325	0.110965	-416.748375	-416.739558	-416.738613	-416.78193	32.358	
O	 0.093388946	 1.3963737788	 0.0543574064	-0.437357
C	 0.0733992273	-0.0058839693	 0.0053903327	 0.220597
C	 0.1287209579	-0.5564113584	 1.4575164821	-0.20151
N	-1.342793906	-0.7223001613	 1.4481634804	-0.309219
C	-1.3911610332	-0.6243112229	-0.0216894278	-0.199832
C	-2.4323259991	 0.2362827615	-0.5764386023	 0.306999
N	-3.2217456004	 0.930463725	-1.0568874351	-0.323703
C	 0.9954821505	-0.5509332121	-0.978462665	 0.282392
C	 1.7407545517	-0.9880675682	-1.8141773153	-0.454566
H	-0.1033551736	 1.7401642207	-0.8257327991	 0.298675
H	 0.7049196575	-1.4855653734	 1.527893715	 0.114594
H	 0.4938334137	 0.1699328925	 2.187817779	 0.137012
H	-1.6957373937	-1.5933051779	 1.8258606918	 0.234894
H	-1.3969379578	-1.5828903293	-0.555427305	 0.120851
H	 2.4079395193	-1.3716697457	-2.546871278	 0.210173
79.5801	122.5783	143.1333	182.3337	242.312	313.8361	356.8881	387.9635	459.7451	503.8426	563.3313	597.1602	612.3422	654.4613	675.5155	723.8284	866.8469	935.2424	976.245	987.678	1020.8946	1063.6234	1117.6424	1155.8636	1165.9688	1256.54	1313.662	1350.3323	1374.7283	1394.1596	1502.9663	2234.9203	2355.7327	3027.9435	3039.0397	3105.6665	3497.8633	3552.814	3792.862
OC1(CNC1C#N)C#C	O[C@]1(CN[C@H]1C#N)C#C	
InChI=1S/C6H6N2O/c1-2-6(9)4-8-5(6)3-7/h1,5,8-9H,4H2	InChI=1S/C6H6N2O/c1-2-6(9)4-8-5(6)3-7/h1,5,8-9H,4H2/t5-,6-/m0/s1
