15
gdb 132185	1.95428	1.83521	0.95206	5.8157	73.49	-0.2162	-0.016	0.2001	1154.2447	0.113382	-458.145451	-458.137535	-458.136591	-458.178007	29.559	
C	 0.0289285864	 1.49666901	-0.0121311666	-0.496123
C	-0.0535065797	 0.0030251596	-0.0044958303	 0.362365
C	-1.1723744793	-0.7334072295	-0.1122870336	-0.201221
C	-1.1322334525	-2.1968048179	-0.092739448	 0.336168
N	-2.2082351516	-2.8805763105	-0.1967068252	-0.538875
N	 0.1471730737	-2.7964461819	 0.045757724	-0.399863
C	 1.1515490809	-2.0348586703	 0.1414873194	 0.39747
F	 2.3722820321	-2.5370094957	 0.2729537411	-0.068088
N	 1.1619677862	-0.6741565239	 0.1283326403	-0.434891
H	 0.6524771207	 1.8544489543	-0.8405077573	 0.142008
H	-0.9654702522	 1.9311215948	-0.1196381917	 0.154902
H	 0.4706439717	 1.8734937835	 0.9184007512	 0.142015
H	-2.1386033683	-0.2586705363	-0.2171027544	 0.116786
H	-1.9734834008	-3.8743423697	-0.1619468172	 0.215267
H	 2.0368828328	-0.1828227265	 0.2129954484	 0.272082
117.9847	156.1088	176.797	233.0279	285.2642	362.8276	389.9502	496.4221	530.1419	550.6561	579.6347	618.883	693.58	750.9268	878.5473	911.3176	922.6088	987.0131	1007.105	1068.4095	1085.3372	1135.9508	1199.1058	1269.2001	1343.076	1388.5388	1420.675	1477.7116	1481.7227	1516.1764	1671.481	1715.8175	1751.9937	3026.0395	3076.3696	3146.2483	3228.2466	3466.6312	3651.3964
CC1=CC(=N)N=C(F)N1	C[C@H]1C=C([NH])N=C(F)N1	
InChI=1S/C5H6FN3/c1-3-2-4(7)9-5(6)8-3/h2H,1H3,(H2,7,8,9)	InChI=1S/C5H7FN3/c1-3-2-4(7)9-5(6)8-3/h2-3,7H,1H3,(H,8,9)/t3-/m0/s1
