16
gdb 54240	2.38933	1.48192	1.33082	2.6261	67.09	-0.2408	0.0157	0.2565	1034.1904	0.124053	-471.224174	-471.215153	-471.214209	-471.257999	33.349	
N	-0.1159504883	 1.4047467033	-0.1435881124	-0.535346
C	 0.0852784012	 0.0853129089	 0.07929797	 0.367898
O	 1.1660547656	-0.4269187676	 0.300119413	-0.372644
C	-1.2050991714	-0.7520671057	 0.0510871927	 0.239433
O	-2.3042682561	-0.0391642369	-0.4674895056	-0.493563
C	-0.9619749815	-2.1991238382	-0.4976528534	-0.199062
N	-1.1077747893	-2.6672294076	 0.8934550385	-0.325982
C	-1.5325690169	-1.4557515731	 1.3791415946	 0.332746
N	-2.1137525502	-0.9705269481	 2.3932789982	-0.559983
H	 0.679114247	 2.0202682689	-0.1704284102	 0.262935
H	-1.0290750227	 1.7261448407	-0.4158943173	 0.269771
H	-2.9336068741	 0.0494545224	 0.2617313078	 0.299285
H	-1.7643924163	-2.5181626321	-1.1694251875	 0.114922
H	 0.0245438902	-2.3812215941	-0.9250471234	 0.136447
H	-1.3264749757	-3.5922515668	 1.2318700716	 0.246597
H	-2.3405320714	-1.674956484	 3.0958294434	 0.216546
55.5913	111.6922	152.7482	233.8707	271.2165	276.8634	329.6658	402.0915	420.1825	443.7121	510.804	520.6715	632.714	671.8809	708.3333	737.2015	810.2631	828.4639	914.1066	970.6789	1011.9466	1056.869	1093.208	1133.507	1167.856	1225.4488	1247.6936	1322.4218	1355.1225	1381.3411	1391.397	1498.9383	1587.8144	1796.2614	1803.0167	3055.4826	3135.8295	3476.6828	3604.1857	3612.3361	3744.5576	3748.4246
NC(=O)C1(O)CNC1=N	NC(=O)[C@@]1(O)CN[C]1[NH]	
InChI=1S/C4H7N3O2/c5-2-4(9,1-7-2)3(6)8/h9H,1H2,(H2,5,7)(H2,6,8)	InChI=1S/C4H7N3O2/c5-2-4(9,1-7-2)3(6)8/h9H,1H2,(H2,5,7)(H2,6,8)/t4-/m1/s1
