19
gdb 52771	3.5688	1.0474	0.90111	1.8517	85.76	-0.2396	0.0434	0.283	1356.2613	0.158157	-385.812365	-385.803304	-385.80236	-385.847419	33.698	
C	 0.0906357073	 1.507531682	-0.0630489957	-0.50567
C	 0.0263827733	 0.0534915301	-0.0317399621	 0.124843
C	-0.0427965278	-1.1497680068	-0.0043504528	-0.054085
C	-0.0385519357	-2.6078427597	-0.0175077754	 0.325543
O	 0.7825482083	-3.0843386754	-1.067496534	-0.493363
C	 0.0357885305	-3.3644349671	 1.3648551535	-0.103871
C	-1.432243538	-2.9099558277	 1.6001002831	-0.237446
C	-1.3848748379	-3.3852107427	 0.1191597742	-0.081379
C	-0.5492504393	-4.6029800615	 0.6230885649	-0.255786
H	 0.7573338133	 1.8962663733	 0.7146519596	 0.149201
H	 0.4610210062	 1.8672684182	-1.029294608	 0.150691
H	-0.8988480148	 1.9499645515	 0.0965856426	 0.15249
H	 1.5403320638	-2.4947846061	-1.1298186434	 0.281282
H	 0.8633938516	-3.3361731467	 2.0754260674	 0.069831
H	-2.0159766798	-3.5399955283	 2.2740330729	 0.09285
H	-1.6081108888	-1.8486748152	 1.7812712777	 0.105914
H	-2.1968074759	-3.3845295882	-0.609033252	 0.075475
H	 0.0935162204	-5.097979574	-0.1015720893	 0.116663
H	-1.0894879267	-5.3154056158	 1.2507976671	 0.086816
20.2598	96.7269	100.045	237.2006	261.0047	294.2896	351.7327	364.9674	449.1517	512.4893	517.5222	582.2992	657.7191	785.4935	808.9487	897.4514	902.2712	910.1801	920.4296	1008.8936	1022.5162	1051.7491	1053.575	1058.8788	1062.8814	1088.4942	1112.7019	1147.4223	1187.6018	1197.4482	1213.0281	1236.1955	1248.8135	1249.7782	1373.4541	1414.0915	1476.9352	1478.234	1494.3196	1531.7966	2358.2354	3026.851	3070.1114	3073.4518	3087.5696	3089.1139	3100.2241	3110.0075	3138.362	3163.4526	3826.5063
CC#CC1(O)C2CC1C2	CC#C[C@@]1(O)[C@H]2C[C@@H]1C2	
InChI=1S/C8H10O/c1-2-3-8(9)6-4-7(8)5-6/h6-7,9H,4-5H2,1H3	InChI=1S/C8H10O/c1-2-3-8(9)6-4-7(8)5-6/h6-7,9H,4-5H2,1H3/t6-,7+,8-
