23
gdb 117884	3.65647	0.55691	0.51001	1.074	93.34	-0.2427	0.0592	0.302	2270.0725	0.202763	-388.264616	-388.252879	-388.251935	-388.303325	40.266	
C	 0.2145833617	 1.3786573138	-0.4860396201	-0.362488
C	-0.031948748	 0.1541855749	 0.4144274378	-0.313791
C	-1.3974882225	-0.3547127144	 0.3272012072	 0.074891
C	-2.5307501248	-0.7524517218	 0.2273328269	 0.039935
C	-3.9005656629	-1.2563243077	 0.1373987515	-0.164392
C	-3.9415616104	-2.7440004092	-0.2623431953	-0.381819
C	-4.6381909004	-1.0093117843	 1.4634384481	-0.045075
O	-5.9897278571	-1.3751348881	 1.2945292392	-0.232137
C	-6.7537854493	-1.2100852034	 2.4641100007	-0.227983
H	 1.2481704614	 1.7242378047	-0.3879880444	 0.112274
H	 0.0313421114	 1.1314736481	-1.5352184575	 0.12741
H	-0.4518682229	 2.2013713539	-0.2131043217	 0.126522
H	 0.6728685145	-0.6437772499	 0.1469562886	 0.126814
H	 0.1941471253	 0.4157994287	 1.4563171494	 0.125835
H	-4.4386982626	-0.6814954816	-0.6289288138	 0.109287
H	-3.4002527055	-3.3520767555	 0.4695302333	 0.117087
H	-4.9772156096	-3.0875853638	-0.3048096468	 0.130939
H	-3.4742574448	-2.894706109	-1.2387644533	 0.118172
H	-4.169762048	-1.6024268761	 2.2672365038	 0.090478
H	-4.5551739855	 0.0521744065	 1.7463853663	 0.092966
H	-7.7768124355	-1.5177421452	 2.2339399481	 0.12662
H	-6.3736289268	-1.8295505642	 3.291994298	 0.104356
H	-6.7653307777	-0.1610415462	 2.8004449043	 0.104099
25.6886	72.837	73.2025	92.1105	128.0479	178.2291	209.8404	221.7818	236.2829	267.5815	317.2914	350.1736	411.2821	496.4297	528.6122	539.1642	733.6019	786.2736	877.7726	933.4158	955.7724	992.6254	1042.0392	1079.4744	1103.4971	1118.8902	1137.8474	1165.6776	1180.339	1198.6843	1226.7733	1263.5385	1287.3207	1313.9335	1345.2018	1352.8699	1394.3621	1408.713	1417.5926	1476.1514	1480.3376	1485.6587	1492.2039	1494.7421	1499.7692	1503.5177	1505.7732	1527.2641	2363.5902	2956.7901	2971.954	2993.4337	3013.0552	3017.2403	3018.0553	3043.5309	3044.3739	3045.0629	3112.779	3115.8225	3116.3993	3123.4405	3137.0184
CCC#CC(C)COC	CCC#C[C@@H](C)COC	
InChI=1S/C8H14O/c1-4-5-6-8(2)7-9-3/h8H,4,7H2,1-3H3	InChI=1S/C8H14O/c1-4-5-6-8(2)7-9-3/h8H,4,7H2,1-3H3/t8-/m1/s1
