22
gdb 61397	2.68203	0.94117	0.83633	5.025	82.93	-0.2805	0.043	0.3235	1487.9586	0.191012	-404.377823	-404.36677	-404.365825	-404.414191	40.516	
C	-0.3727405657	 1.7432565949	-0.8434514888	-0.398009
C	-0.1401341586	 0.3605385999	-0.2001709818	-0.131894
C	-1.4656840834	-0.3720539862	 0.1540660947	-0.20412
C	-2.0068781741	-0.1002760549	 1.5721472563	 0.326002
C	-3.4478645697	-0.621674517	 1.6727001046	-0.415957
C	-1.1296486479	-0.7551025406	 2.6505976733	-0.414354
O	-1.9957145235	 1.3236834819	 1.7378688054	-0.451143
C	 0.6766582735	-0.4759490662	-1.0866056636	 0.25946
N	 1.3119058615	-1.1372469312	-1.7909003217	-0.331128
H	 0.5774293508	 2.2448385951	-1.0446895396	 0.127373
H	-0.9087652769	 1.6382765018	-1.7914172254	 0.128454
H	-0.9679498312	 2.3541471301	-0.1649209217	 0.153078
H	 0.4425964004	 0.5049403108	 0.7162739083	 0.128068
H	-2.2240961016	-0.0797925195	-0.5799573833	 0.112305
H	-1.3312878692	-1.4525255749	 0.0524157262	 0.121258
H	-3.500520637	-1.6957329478	 1.4681865433	 0.121252
H	-3.8480596552	-0.4555229171	 2.6795815798	 0.105772
H	-4.0897395993	-0.0983579926	 0.9587822992	 0.125653
H	-0.100459443	-0.3887495776	 2.6107774051	 0.125935
H	-1.5244540427	-0.5288266113	 3.6479314267	 0.108031
H	-1.1123554991	-1.8439392127	 2.5415288734	 0.124443
H	-2.3176172682	 1.522738545	 2.6233316395	 0.279523
28.2441	85.7827	153.3953	202.556	218.4734	231.5644	246.5067	274.8011	277.6454	303.6038	335.6468	371.8365	406.4072	448.5943	518.346	555.195	580.5495	768.6212	839.6156	869.1275	907.3716	926.6421	960.9358	966.177	1008.9965	1055.3415	1073.8918	1129.4021	1154.6086	1197.6677	1205.9338	1286.3547	1294.0176	1337.5054	1356.9548	1392.8645	1400.5884	1407.4094	1420.5088	1473.5799	1479.9349	1488.7487	1497.9243	1501.5119	1504.6187	1508.2972	2352.7434	3027.9854	3033.2759	3047.0687	3050.6312	3057.5478	3093.1657	3096.3428	3101.5545	3117.4195	3120.5089	3120.7578	3161.7806	3809.504
CC(CC(C)(C)O)C#N	C[C@@H](CC(C)(C)O)C#N	
InChI=1S/C7H13NO/c1-6(5-8)4-7(2,3)9/h6,9H,4H2,1-3H3	InChI=1S/C7H13NO/c1-6(5-8)4-7(2,3)9/h6,9H,4H2,1-3H3/t6-/m0/s1
