16
gdb 26854	2.89746	1.47274	0.98836	3.8543	77.74	-0.2383	-0.0746	0.1636	1156.2523	0.123042	-437.946147	-437.93751	-437.936566	-437.980153	30.818	
C	 0.1831404308	 1.5069926658	-0.1308550227	-0.475163
C	-0.0483829415	 0.0347018022	-0.0259526787	 0.328849
C	-1.2239171609	-0.6455471059	 0.003321119	 0.179384
C	-2.5921838283	-0.025703857	-0.0674785582	-0.472575
N	-1.2231680195	-2.0276201315	 0.105839451	-0.245986
C	-0.1031553013	-2.6600317826	 0.1728303053	-0.123621
C	 1.209024075	-2.0136670013	 0.1484395577	 0.381623
O	 2.2843452654	-2.544111359	 0.207030534	-0.331704
O	 1.1353318787	-0.6319064403	 0.044743635	-0.242646
H	 0.7834933913	 1.7288250217	-1.019856135	 0.154543
H	-0.7488371234	 2.0663928658	-0.1887369496	 0.141796
H	 0.7524466414	 1.8587944338	 0.7363686739	 0.154545
H	-2.5665254243	 1.0612646113	-0.1468599271	 0.123528
H	-3.138574231	-0.4199704242	-0.9306819724	 0.143177
H	-3.1709014855	-0.2911678155	 0.8234172551	 0.14319
H	-0.1018804668	-3.7443295833	 0.2532846128	 0.141059
66.6477	84.8791	97.6802	179.0843	306.7972	317.2495	332.8287	434.2938	467.5842	515.6573	562.9782	611.4259	696.3895	767.2013	780.2684	875.9943	931.6248	981.4996	1038.2289	1053.5633	1069.1908	1111.4712	1176.3267	1245.8459	1310.985	1384.5891	1412.7512	1424.921	1468.2438	1476.4829	1477.5314	1489.9322	1583.6431	1680.4031	1841.2178	3041.9487	3044.1958	3094.2586	3095.1553	3144.1361	3165.3354	3168.8446
CC1=C(C)N=CC(=O)O1	Cc1c(C)ncc(=O)o1	
InChI=1S/C6H7NO2/c1-4-5(2)9-6(8)3-7-4/h3H,1-2H3	InChI=1S/C6H7NO2/c1-4-5(2)9-6(8)3-7-4/h3H,1-2H3
