19
gdb 102788	2.15198	1.08602	0.7848	1.8678	74.03	-0.2401	-0.0306	0.2095	1457.6449	0.154141	-460.175881	-460.165022	-460.164078	-460.21333	36.42	
C	-0.0333846727	 1.4884163677	 0.2002178001	-0.248472
O	 0.0354975501	 0.0924602389	-0.0379420596	-0.230235
C	-1.1938467046	-0.5776105934	 0.0065004711	-0.001891
C	-0.9675087664	-1.9598654868	-0.6369333918	-0.304807
C	-0.6122704511	-1.8493153122	-2.107173499	 0.155555
O	-1.1117058587	-2.5250679962	-2.9698706811	-0.239092
C	-1.7455081315	-0.7287716644	 1.4411195925	 0.364734
C	-3.1201784562	-1.3618474777	 1.581226564	-0.483055
O	-1.106641654	-0.3590384135	 2.395668459	-0.288722
H	 0.9736666846	 1.8813057994	 0.045513009	 0.133566
H	-0.7175804755	 1.9782893371	-0.5096362388	 0.103716
H	-0.3524436485	 1.7090189823	 1.2235924877	 0.137641
H	-1.9589554282	-0.0287943266	-0.5754136402	 0.084435
H	-0.1225511124	-2.4257245967	-0.1122826728	 0.146416
H	-1.8406481629	-2.6085633581	-0.542150902	 0.126078
H	 0.1573610069	-1.0839119751	-2.3376164171	 0.100174
H	-3.7705067418	-1.1354304524	 0.7314349646	 0.134897
H	-3.0150713255	-2.451669679	 1.6342898628	 0.157361
H	-3.5799430716	-1.0221143334	 2.5106450514	 0.151699
51.0537	63.5648	73.3617	107.2654	123.9956	162.9682	185.7317	241.6119	278.6864	315.5088	427.4259	439.313	491.2777	589.4648	620.2258	798.0451	815.0374	911.7806	954.3669	993.5358	1031.1191	1092.8647	1103.0178	1156.4883	1176.5506	1190.8007	1208.5915	1251.5682	1274.3404	1333.1378	1374.2977	1383.294	1416.1586	1445.4512	1465.7784	1477.6807	1479.6986	1484.5093	1513.9092	1819.1231	1830.6583	2923.9756	2927.0965	2989.2984	3033.9948	3041.4251	3081.8793	3106.8807	3123.5035	3129.8958	3148.882
COC(CC=O)C(C)=O	CO[C@@H](CC=O)C(=O)C	
InChI=1S/C6H10O3/c1-5(8)6(9-2)3-4-7/h4,6H,3H2,1-2H3	InChI=1S/C6H10O3/c1-5(8)6(9-2)3-4-7/h4,6H,3H2,1-2H3/t6-/m0/s1
