13
gdb 15736	2.952	1.74939	1.27033	4.7746	59.04	-0.2767	-0.0584	0.2183	926.7953	0.09387	-398.595443	-398.587689	-398.586744	-398.6287	26.438	
O	 0.0771865544	-0.5911411627	-0.985957091	-0.278771
C	-0.010717073	 0.5299997692	-0.558428161	 0.362657
C	 0.6701425704	 0.9504300278	 0.7638369525	-0.424
C	 1.8713771085	 1.7376573761	 0.5036473667	 0.273094
N	 2.830359682	 2.3430906022	 0.2836493262	-0.29658
C	-0.7891135078	 1.5853175442	-1.2882652701	-0.013245
C	-1.9136567378	 2.2754440819	-0.6197279283	-0.17202
O	-0.671594988	 2.9287528933	-0.8286016739	-0.20341
H	-0.0103445989	 1.5457242303	 1.3807002524	 0.167548
H	 0.936135439	 0.0362659315	 1.3001037631	 0.175378
H	-0.8330235311	 1.4432619295	-2.3661619263	 0.136141
H	-2.7435514879	 2.6211462158	-1.232635071	 0.143952
H	-2.1606417397	 2.041508661	 0.4148311108	 0.129258
44.0077	86.9694	133.6597	228.1289	264.7465	375.8224	445.7827	473.5847	504.7988	678.2743	787.2544	883.4802	891.6686	908.7129	960.0067	997.9053	1082.8581	1147.7763	1160.3423	1178.0263	1252.3359	1268.6723	1291.969	1390.3455	1440.3336	1525.517	1828.6523	2365.0601	3063.7868	3091.3189	3122.5976	3145.9727	3183.8059
O=C(CC#N)C1CO1	O=C(CC#N)[C@H]1CO1	
InChI=1S/C5H5NO2/c6-2-1-4(7)5-3-8-5/h5H,1,3H2	InChI=1S/C5H5NO2/c6-2-1-4(7)5-3-8-5/h5H,1,3H2/t5-/m1/s1
