22
gdb 98291	3.73859	0.91403	0.79092	3.3692	85.25	-0.2213	0.0351	0.2564	1534.6093	0.19288	-404.362296	-404.351938	-404.350994	-404.398374	37.346	
C	-0.0078682815	 1.5619322304	-0.1905225039	-0.370922
C	-0.0215462746	 0.0394996455	-0.0600113048	-0.317345
C	-1.4485871768	-0.5126637276	-0.0235557947	 0.420241
O	-2.4097361637	 0.2286327458	-0.1584399691	-0.379621
N	-1.5983825947	-1.8689846131	 0.1668234273	-0.103364
C	-0.487673049	-2.7760853177	 0.3879742697	-0.348896
C	-2.9473330005	-2.3734055222	 0.2847829292	 0.072523
C	-3.4207018597	-3.6087081561	-0.4337450475	-0.286383
C	-3.2878396597	-3.6061390183	 1.0768158109	-0.299765
H	 1.0213317868	 1.9312472518	-0.2256653151	 0.101209
H	-0.5266906099	 1.8789181603	-1.0975227657	 0.134581
H	-0.5185177062	 2.03045337	 0.6539893468	 0.130709
H	 0.5186504608	-0.4148570908	-0.900844405	 0.122389
H	 0.5159376763	-0.2724166218	 0.8438570148	 0.117277
H	-0.2844286991	-2.9386217526	 1.4554294252	 0.127266
H	-0.7004118977	-3.7485322416	-0.0657047875	 0.132683
H	 0.4193856772	-2.3988130643	-0.0809212926	 0.139568
H	-3.6384793752	-1.5440385191	 0.3324762208	 0.139982
H	-4.4092648883	-3.5863495857	-0.8785430719	 0.12152
H	-2.6996607062	-4.1949392698	-0.9935787905	 0.113523
H	-2.4842547604	-4.1970914656	 1.5014089143	 0.112932
H	-4.184605498	-3.5836428175	 1.6861640893	 0.119892
41.394	74.2359	115.1617	134.2302	185.3668	192.4925	211.8854	296.3033	346.2775	363.7703	427.8088	507.9603	579.5933	616.832	728.7116	782.0812	817.2916	823.8853	836.7207	931.7048	971.4047	1009.5054	1055.4106	1073.0754	1077.804	1091.9408	1093.5191	1143.0669	1146.9385	1154.5916	1197.6143	1223.8479	1290.7698	1312.1165	1319.1064	1388.0358	1412.3961	1439.5495	1462.0319	1467.3329	1477.7507	1489.4324	1495.4713	1497.8842	1511.1641	1525.2523	1747.602	3008.4383	3022.2408	3052.0444	3056.4324	3085.6664	3122.9936	3134.7703	3136.4546	3139.151	3156.2048	3212.1174	3218.1881	3231.4028
CCC(=O)N(C)C1CC1	CCC(=O)N(C)C1CC1	
InChI=1S/C7H13NO/c1-3-7(9)8(2)6-4-5-6/h6H,3-5H2,1-2H3	InChI=1S/C7H13NO/c1-3-7(9)8(2)6-4-5-6/h6H,3-5H2,1-2H3
