20
gdb 104531	2.16966	1.40074	1.03701	4.6034	79.07	-0.2636	0.0306	0.2943	1229.8081	0.169845	-403.146105	-403.136634	-403.13569	-403.180716	34.666	
C	-1.5436373977	 0.0039267109	-0.1698698378	-0.261895
O	-0.1425761337	 0.1237182715	-0.0209683105	-0.279876
C	 0.6412669436	-0.6547508145	-0.888672871	 0.435848
C	 0.4772383744	-0.2282140604	-2.3666125347	-0.415714
C	 0.7787229962	 1.1847612893	-2.5841693331	 0.276827
N	 1.0224409957	 2.3006838898	-2.7581376159	-0.310199
C	 2.1202741766	-0.702534274	-0.4350497073	-0.272444
C	 2.1278105095	-2.2322548319	-0.7022548676	-0.222747
C	 0.5743154901	-2.2077836569	-0.7298304912	-0.283355
H	-1.908484916	 0.4557282691	-1.1028487787	 0.116263
H	-1.8716271679	-1.0448310216	-0.1336694837	 0.109592
H	-1.9938817622	 0.5409487823	 0.6676172774	 0.137765
H	 1.1431285967	-0.8304162416	-2.9938534337	 0.153378
H	-0.5424004781	-0.4310282086	-2.7115193832	 0.147711
H	 2.8300845435	-0.0748713753	-0.9781805096	 0.115828
H	 2.1786582966	-0.4671192831	 0.6293611732	 0.122267
H	 2.5599636832	-2.4893794573	-1.6728582295	 0.10745
H	 2.5951090955	-2.8627180232	 0.0555667221	 0.11059
H	 0.1463831056	-2.4644129596	 0.2422879769	 0.115718
H	 0.0651068384	-2.783153865	-1.5075420321	 0.096993
58.5333	110.4697	132.2556	143.9853	198.1937	255.8954	322.0243	338.827	395.5509	404.6611	459.8171	541.3984	659.7744	737.3441	794.4214	844.6776	885.6549	896.9248	935.473	956.2251	971.0269	1046.7767	1073.2464	1089.7213	1153.3035	1181.7341	1183.2316	1201.0287	1229.4183	1250.5427	1254.7124	1272.5309	1284.7359	1318.1692	1329.4471	1456.5337	1469.9792	1478.3823	1486.1709	1500.3147	1506.3488	1509.0261	2363.2071	2991.8493	3043.4285	3052.4344	3058.3292	3068.2287	3075.6239	3088.9329	3110.1357	3122.4558	3123.3019	3137.042
COC1(CC#N)CCC1	COC1(CC#N)CCC1	
InChI=1S/C7H11NO/c1-9-7(5-6-8)3-2-4-7/h2-5H2,1H3	InChI=1S/C7H11NO/c1-9-7(5-6-8)3-2-4-7/h2-5H2,1H3
