16
gdb 72349	2.5213	1.69769	1.38148	1.8958	74.72	-0.2339	0.0097	0.2436	989.1689	0.123479	-400.713969	-400.705985	-400.705041	-400.746234	30.512	
C	-0.0537817223	 1.5019085502	-0.0595277514	-0.478477
C	 0.015462441	 0.012064253	 0.0836774883	 0.385918
O	-1.2188179851	-0.6455896724	-0.1833797182	-0.234849
C	-1.2495145698	-1.719366525	 0.6486860156	 0.091628
N	-0.2844453632	-1.8940581926	 1.4592266957	-0.250426
C	 0.648297557	-0.8373014095	 1.1688319989	-0.07921
C	 1.252377147	-0.8114209549	-0.2507589036	-0.343095
C	 1.2116860107	-1.9368882459	-1.130031183	 0.358241
C	 1.1706610574	-2.8780470566	-1.8776625173	-0.431313
H	 0.9053638318	 1.9509237239	 0.2116849963	 0.130027
H	-0.2825963151	 1.7851758727	-1.091786969	 0.141711
H	-0.8276995357	 1.9175125399	 0.5929692947	 0.136032
H	-2.1269797163	-2.345639564	 0.5517364496	 0.147179
H	 1.2488577169	-0.463163951	 1.9891854326	 0.109741
H	 2.1534344208	-0.2065411293	-0.3093530331	 0.120362
H	 1.1413244749	-3.7117245286	-2.5343682163	 0.196531
125.1234	130.1227	188.4748	225.4227	312.2517	338.6651	371.9196	504.096	579.9113	586.4109	650.624	662.9707	692.8415	744.422	780.6017	874.5082	913.7355	922.4875	948.928	976.787	1046.2803	1085.5296	1104.2794	1117.601	1136.1853	1214.7753	1239.789	1320.8728	1337.7784	1409.9348	1436.4625	1477.444	1497.7266	1663.7293	2237.4879	3040.9287	3109.3176	3122.3675	3143.5647	3184.7067	3239.7158	3504.2248
CC12OC=NC1C2C#C	C[C@]12OC=N[C@H]1[C@H]2C#C	
InChI=1S/C7H7NO/c1-3-5-6-7(5,2)9-4-8-6/h1,4-6H,2H3	InChI=1S/C7H7NO/c1-3-5-6-7(5,2)9-4-8-6/h1,4-6H,2H3/t5-,6+,7-/m1/s1
