15
gdb 22757	2.61606	1.17793	1.02423	3.4818	69.92	-0.2673	-0.0251	0.2422	1181.7944	0.111321	-453.896183	-453.887444	-453.8865	-453.930101	31.591	
O	-0.0201965243	 1.3325778765	 0.1739320836	-0.382561
N	 0.0792586769	-0.062651706	 0.1845850518	-0.21838
C	-1.0584341459	-0.607092957	 0.0866268191	 0.358827
C	-2.4751523842	-0.1404026625	-0.1779373242	-0.328005
C	-2.791626748	-1.5875084025	-0.7005363522	-0.239878
C	-2.7760527115	-1.6957825673	-2.1469900432	 0.283641
N	-2.7093578482	-1.7849357063	-3.2982346022	-0.318938
C	-1.4094433605	-2.0784496428	-0.0593051834	 0.075359
O	-0.5853545872	-2.9530209032	-0.7449069304	-0.39921
H	 0.902672535	 1.607186472	 0.2188410918	 0.314855
H	-3.0350474065	 0.106855044	 0.7278469133	 0.140354
H	-2.5811573994	 0.6743186061	-0.8952191493	 0.15694
H	-3.6859524495	-2.0641147352	-0.2964024767	 0.12963
H	-1.6219396544	-2.5408155378	 0.9105743984	 0.126151
H	-0.2863510225	-2.526968298	-1.5577180864	 0.301214
51.6357	127.7487	151.3197	212.5744	221.7582	303.2987	359.2319	382.4293	436.5849	500.643	506.8007	609.097	641.8701	746.0545	787.8831	803.3056	884.0874	981.5464	996.1115	1040.1958	1087.2055	1123.7389	1162.376	1189.7098	1236.8904	1249.3067	1303.8258	1342.1545	1410.9951	1434.0692	1464.487	1783.7814	2352.0922	3060.361	3074.4422	3106.2423	3136.6509	3790.7838	3810.8266
ON=C1CC(C#N)C1O	ON=C1C[C@@H](C#N)[C@H]1O	
InChI=1S/C5H6N2O2/c6-2-3-1-4(7-9)5(3)8/h3,5,8-9H,1H2	InChI=1S/C5H6N2O2/c6-2-3-1-4(7-9)5(3)8/h3,5,8-9H,1H2/t3-,5+/m0/s1
