19
gdb 108882	3.10742	0.98089	0.90169	3.7333	82.47	-0.2374	-0.0001	0.2374	1380.7726	0.160307	-382.08964	-382.080576	-382.079632	-382.124102	32.993	
C	 0.1465367867	 1.4687352664	 0.3276775937	-0.37874
C	 0.0022588245	 0.0186947852	-0.1683340552	-0.293612
C	-1.3986068624	-0.5053525992	-0.0782011626	 0.353321
C	-2.1761631412	-0.9216849413	-1.075652489	-0.191494
C	-3.5309907934	-1.3644601802	-0.5637870935	-0.140069
N	-3.323790487	-1.4223437945	 0.8912498582	-0.313175
C	-2.1386775514	-0.621662038	 1.2348595625	-0.252512
C	-4.5956675252	-0.4160030528	-0.9692727924	 0.247507
N	-5.4388768198	 0.323387318	-1.2521766384	-0.328198
H	 1.181787426	 1.806659353	 0.2259538351	 0.120821
H	-0.4910470257	 2.1449433355	-0.2498078009	 0.129719
H	-0.131638855	 1.5632558064	 1.3819017795	 0.124048
H	 0.3466170901	-0.0515888918	-1.2054410768	 0.110328
H	 0.6643890371	-0.626018929	 0.4261570126	 0.112472
H	-1.927357475	-0.9384528248	-2.1286866162	 0.112738
H	-3.8210046098	-2.3510143503	-0.9524362347	 0.12716
H	-4.1496257786	-1.1531339732	 1.4092993842	 0.236393
H	-1.5389358665	-1.131999726	 2.0016436862	 0.112868
H	-2.3818621537	 0.3770433067	 1.634426588	 0.110427
58.2688	90.6778	117.7106	182.8037	224.4962	243.9348	321.8975	358.3602	463.6301	509.3137	566.9989	611.4471	674.5084	791.0525	812.4147	853.0567	885.9502	926.5581	966.9515	974.9755	1007.415	1032.273	1072.3011	1104.6029	1125.2937	1200.8934	1206.6093	1261.0058	1272.9986	1323.9239	1343.6286	1357.4091	1366.327	1412.5535	1450.8379	1480.7936	1501.0859	1506.629	1515.4692	1723.3126	2340.6557	2962.2335	2999.1868	3010.0724	3015.8796	3041.1683	3069.356	3112.8121	3115.8882	3221.6281	3577.4793
CCC1=CC(NC1)C#N	CCC1=C[C@@H](NC1)C#N	
InChI=1S/C7H10N2/c1-2-6-3-7(4-8)9-5-6/h3,7,9H,2,5H2,1H3	InChI=1S/C7H10N2/c1-2-6-3-7(4-8)9-5-6/h3,7,9H,2,5H2,1H3/t7-/m1/s1
