16
gdb 80317	3.7628	1.20349	1.16155	2.7539	78.86	-0.2199	-0.0281	0.1918	1097.9977	0.125221	-396.877195	-396.869114	-396.86817	-396.909584	31.247	
N	 0.0761580087	 1.4865725785	 0.0445252926	-0.529581
C	 0.0026747217	 0.0585519459	-0.0203847454	-0.004922
C	-1.319681391	-0.6579404189	 0.0542496643	-0.074064
N	-2.4449744063	 0.1462696826	-0.3400047176	-0.346676
C	-2.2893746116	 0.435547595	-1.697504308	 0.182636
N	-1.216250004	-0.0228774086	-2.2513293237	-0.28578
C	-0.4838820449	-0.7255582589	-1.2483530547	-0.062317
C	-3.2799219089	 1.2133501965	-2.3617237119	 0.271258
C	-4.1481768997	 1.8564388967	-2.889461429	-0.383461
H	 0.4155031215	 1.8785458851	-0.8276385361	 0.240771
H	-0.8458693409	 1.879192487	 0.2073917648	 0.237014
H	 0.800978995	-0.4640926805	 0.5036121829	 0.097829
H	-1.5037784807	-1.4664062107	 0.7511195649	 0.103144
H	-3.3655250751	-0.0477762978	 0.0230781985	 0.255246
H	 0.0926523817	-1.5825097144	-1.5776898147	 0.094097
H	-4.9018442054	 2.4274015826	-3.3737603268	 0.204804
101.5884	159.5237	166.6248	252.2797	263.2103	399.6994	411.5552	524.7938	558.1811	581.2406	628.6077	642.9059	671.1659	675.7781	764.1082	775.9998	823.1834	842.9276	933.7853	972.9372	1015.0781	1026.7118	1078.8961	1098.481	1128.4398	1241.7287	1254.9532	1261.9097	1323.3746	1351.4424	1392.4246	1451.095	1613.8294	1664.7314	2242.0271	3116.7384	3171.6104	3185.4529	3500.1025	3501.6357	3572.6562	3622.4029
NC1C2NC(=NC12)C#C	N[C@H]1[C@H]2NC(=N[C@@H]12)C#C	
InChI=1S/C6H7N3/c1-2-3-8-5-4(7)6(5)9-3/h1,4-6H,7H2,(H,8,9)	InChI=1S/C6H7N3/c1-2-3-8-5-4(7)6(5)9-3/h1,4-6H,7H2,(H,8,9)/t4-,5+,6-
