16
gdb 29721	2.40643	1.64817	0.98848	1.5103	68.44	-0.1656	0.0579	0.2235	1137.1956	0.124347	-471.234018	-471.224563	-471.223618	-471.268383	33.778	
C	-0.0287532655	 1.4615955699	 0.0351175805	-0.344958
N	 0.0308547184	 0.0171510062	 0.0217862946	-0.102032
C	 0.0865650164	-0.8070387628	-1.0453592644	 0.431049
O	 0.0737132694	-0.2929878225	-2.2914073603	-0.432464
N	 0.1432459027	-2.0781055338	-0.7366797878	-0.428236
C	 0.1251284736	-2.1076380687	 0.6474627865	 0.204029
N	 0.2259570051	-3.3203443578	 1.342551179	-0.606094
C	 0.0695423517	-0.8388303504	 1.1442918304	 0.180589
O	-0.0523981051	-0.3459208437	 2.4113003282	-0.438255
H	 0.9711345221	 1.9121683332	 0.0332477316	 0.132168
H	-0.5691687613	 1.8108964939	-0.846266122	 0.153574
H	-0.5555074571	 1.7825382633	 0.9358319597	 0.15079
H	 0.0904456497	-1.0504608487	-2.8896183719	 0.310323
H	-0.1040889393	-4.083612321	 0.7645531394	 0.245745
H	-0.2937595022	-3.3023703595	 2.2117343894	 0.242293
H	 0.8236050214	-0.2457181676	 2.8042266271	 0.30148
50.9716	117.8409	169.4805	203.4268	254.8258	265.5101	286.5362	300.5873	323.8352	368.8033	400.5259	580.6477	634.2786	636.3245	658.5929	712.0216	749.4226	809.6027	928.0474	1051.687	1123.6197	1153.7525	1189.7808	1231.281	1274.8534	1325.7783	1365.4319	1437.1095	1451.1953	1491.3568	1513.7339	1594.262	1602.5417	1633.5077	1710.936	3028.9698	3107.2516	3149.8307	3526.1956	3621.6316	3739.7125	3806.1453
CN1C(O)=NC(N)=C1O	Cn1c(O)nc(N)c1O	
InChI=1S/C4H7N3O2/c1-7-3(8)2(5)6-4(7)9/h8H,5H2,1H3,(H,6,9)	InChI=1S/C4H7N3O2/c1-7-3(8)2(5)6-4(7)9/h8H,5H2,1H3,(H,6,9)
