20
gdb 82937	2.10091	1.78226	1.47286	1.2576	77.99	-0.2273	0.0698	0.2971	1029.844	0.171797	-403.107711	-403.099465	-403.098521	-403.139929	33.057	
C	-0.3664342826	 1.4886560951	-0.1871995868	-0.419904
C	-0.002566804	 0.0352488707	 0.0361360528	-0.067959
C	 1.3307139114	-0.633562488	-0.2765950614	-0.118026
C	 2.6484567402	 0.1535019638	-0.3328068914	-0.242229
C	 2.9548842857	 0.5871892081	 1.1038901359	-0.02503
N	 2.0295050298	 1.5991576216	 1.6530879761	-0.33708
C	 1.8283523453	 0.1689708342	 1.9764665203	-0.123868
C	 0.8113767907	-0.598220241	 1.1454584645	 0.377594
O	 0.3443302567	-1.7805115971	 1.7356842927	-0.4693
H	 0.4711082141	 2.1590835112	-0.009853578	 0.150909
H	-0.7254202111	 1.6217705262	-1.2147961582	 0.102512
H	-1.1778182229	 1.7921400121	 0.4845859127	 0.105001
H	-0.8181009149	-0.6380208977	-0.22918025	 0.082946
H	 1.2825903679	-1.5603774809	-0.8382929203	 0.089551
H	 3.4451875872	-0.5080197216	-0.6881887055	 0.104257
H	 2.6137442577	 1.0114355725	-1.0129849835	 0.110911
H	 3.9848331057	 0.5945555756	 1.447247711	 0.085728
H	 2.4703740202	 2.0604581292	 2.4456183399	 0.228767
H	 1.9719868657	-0.1728039683	 2.9959209413	 0.08422
H	-0.4372244127	-1.5624138856	 2.254902998	 0.281001
139.7857	157.5539	226.1477	244.9918	286.1324	317.5219	362.7096	391.8205	507.4506	549.0019	599.1345	676.4332	700.715	780.9463	819.1989	856.2867	879.711	885.3199	909.6555	962.8897	1001.6625	1023.1054	1032.9871	1070.9972	1107.935	1109.723	1130.8106	1147.449	1176.8829	1207.7412	1218.3177	1244.066	1273.4312	1317.6136	1326.8595	1349.0096	1371.2214	1410.1534	1419.5656	1457.9897	1479.6741	1490.8882	1509.6617	3026.6578	3044.8386	3076.2895	3082.4097	3099.8687	3152.8404	3164.0226	3171.7426	3175.1229	3489.8562	3795.4697
CC1C2CC3NC3C12O	C[C@H]1[C@H]2C[C@H]3N[C@H]3[C@@]12O	
InChI=1S/C7H11NO/c1-3-4-2-5-6(8-5)7(3,4)9/h3-6,8-9H,2H2,1H3	InChI=1S/C7H11NO/c1-3-4-2-5-6(8-5)7(3,4)9/h3-6,8-9H,2H2,1H3/t3-,4+,5+,6+,7+/m0/s1
