21
gdb 115509	3.07495	1.00821	0.85592	1.751	75.11	-0.2528	0.0885	0.3413	1427.1921	0.182258	-461.368663	-461.359145	-461.358201	-461.403849	34.687	
C	 0.313873453	 1.085364937	-0.2177044865	-0.385545
C	-0.1066840835	-0.3316150023	 0.1796379545	-0.206155
C	-1.5932683203	-0.5697417627	-0.0004443923	 0.231543
O	-1.9517609188	-0.4880970695	-1.3596476258	-0.249041
C	-3.154433614	-1.2337456815	-1.469555905	-0.137337
C	-2.9380506118	-2.3957643732	-0.4836664309	 0.088093
C	-2.3626031504	-3.6539527834	-1.1314465947	-0.06169
O	-1.9141570962	-4.5718505442	-0.1587297053	-0.423223
O	-1.9550139307	-1.8797144665	 0.4271137629	-0.301716
H	 1.3881763426	 1.2271171117	-0.0711398132	 0.117151
H	 0.0833424763	 1.2787311224	-1.2687168336	 0.136841
H	-0.2063639833	 1.8383386806	 0.3844897866	 0.116399
H	 0.423858933	-1.0791129174	-0.4199474626	 0.108582
H	 0.1334945354	-0.5256156781	 1.2307325453	 0.109792
H	-2.1838760863	 0.162261716	 0.5835529483	 0.062695
H	-4.025110653	-0.6238643449	-1.1877123538	 0.100936
H	-3.2664487259	-1.5566331951	-2.5077849872	 0.120691
H	-3.8443830714	-2.6441982808	 0.080560362	 0.088046
H	-3.1359231076	-4.1595307204	-1.7210510946	 0.104147
H	-1.5523182456	-3.3558923011	-1.8176610373	 0.090127
H	-1.3628358915	-4.0591366366	 0.4454618432	 0.289664
41.0301	94.7301	127.8304	164.7974	197.1408	223.7477	264.2181	379.4207	391.7013	468.0478	487.7485	499.7589	708.5475	754.5059	784.8571	837.5075	888.3879	935.3479	953.9271	1001.4005	1020.6151	1062.5396	1066.7043	1097.221	1107.9782	1140.5162	1153.0347	1180.1457	1222.6498	1249.8348	1287.8415	1308.5324	1333.206	1349.9141	1354.9269	1388.9856	1401.9174	1411.9778	1441.1639	1442.3649	1477.5405	1498.7489	1501.3555	1509.2074	1513.5429	2916.8094	2968.1275	2997.576	3039.504	3042.2293	3045.3245	3067.3268	3085.0711	3098.6249	3107.9755	3124.0092	3782.1691
CCC1OCC(CO)O1	CC[C@H]1OC[C@@H](CO)O1	
InChI=1S/C6H12O3/c1-2-6-8-4-5(3-7)9-6/h5-7H,2-4H2,1H3	InChI=1S/C6H12O3/c1-2-6-8-4-5(3-7)9-6/h5-7H,2-4H2,1H3/t5-,6+/m1/s1
