15
gdb 20978	4.80081	1.68111	1.2701	2.1974	64.06	-0.2131	-0.0151	0.198	922.9143	0.120299	-392.139519	-392.131751	-392.130806	-392.171973	26.856	
C	-0.0858852003	 1.4063921128	-0.0213735235	-0.338081
N	 0.2256256427	-0.0133058113	-0.0376406168	-0.146952
C	 0.0579828795	-0.7406711661	 1.2070485116	-0.330931
C	 0.0707657958	-0.6987442068	-1.2072662873	 0.522707
N	 0.0174072637	-2.0314607553	-1.297305693	-0.333502
N	-0.0689227998	-2.1788254241	-2.6234888006	-0.073033
N	-0.087210879	-1.0587190207	-3.3115647041	-0.098741
N	-0.0026069271	-0.0929742872	-2.431502878	-0.301274
H	 0.4784334583	 1.8858140232	 0.7840823099	 0.123139
H	 0.2008635143	 1.8533305633	-0.9727807412	 0.16764
H	-1.1573516058	 1.5990348272	 0.1445107076	 0.115776
H	-1.000844396	-0.8960227787	 1.4672476777	 0.116766
H	 0.5372912087	-1.7176559624	 1.1306318402	 0.155819
H	 0.5322615193	-0.1750940992	 2.0140957335	 0.12383
H	-0.1297858241	-3.0829529348	-3.0651507662	 0.296835
84.1654	119.1617	157.4457	179.2067	241.6619	354.1081	369.6612	513.2177	519.2049	629.8557	714.6447	783.6992	965.2209	1025.8446	1069.3951	1089.7182	1130.628	1162.0643	1176.052	1182.3243	1237.7734	1268.1396	1310.4351	1380.4483	1448.7289	1464.4935	1484.3644	1493.8102	1498.1023	1506.2028	1516.2157	1637.8941	2982.9384	2988.2288	3079.1501	3082.1969	3141.5425	3156.985	3660.0144
CN(C)C1=NNN=N1	CN(C)c1n[nH]nn1	
InChI=1S/C3H7N5/c1-8(2)3-4-6-7-5-3/h1-2H3,(H,4,5,6,7)	InChI=1S/C3H7N5/c1-8(2)3-4-6-7-5-3/h1-2H3,(H,4,5,6,7)
