19
gdb 58134	1.90868	1.37996	1.32336	2.8382	77.95	-0.2526	-0.0412	0.2114	1155.9226	0.153689	-422.997102	-422.986247	-422.985302	-423.032543	39.129	
C	 0.1832209127	 1.544217403	-0.032993793	-0.415529
C	 0.1065099809	 0.0129672492	 0.0489264676	 0.015882
C	 0.9106413978	-0.536209956	 1.235549253	-0.417983
C	-1.3488929962	-0.5396282313	 0.0546032003	 0.082941
O	-1.3526824854	-1.9706314129	 0.0324084656	-0.457855
C	-2.1627485957	-0.211384529	 1.3315139594	 0.15834
O	-1.9626616792	 0.7079736091	 2.0750077615	-0.238837
C	-2.1405494233	-0.0256641893	-1.0690687204	 0.294637
C	-2.8119122015	 0.352629633	-1.9928289613	-0.452891
H	 1.2285768111	 1.8539131659	-0.1312640035	 0.109882
H	-0.3633244946	 1.9279890345	-0.8986316383	 0.121582
H	-0.2285898158	 2.0048740516	 0.8667577367	 0.148478
H	 0.5424791111	-0.3957741773	-0.8739921907	 0.072679
H	 0.5674379248	-0.1017877962	 2.1784879003	 0.136423
H	 0.8229446918	-1.623245403	 1.3006821704	 0.12553
H	 1.9684942323	-0.2830627019	 1.1163672208	 0.110112
H	-1.1961401487	-2.2514961161	-0.8755051612	 0.290246
H	-2.9832349718	-0.9431275973	 1.4862253831	 0.107695
H	-3.3984875603	 0.6961180941	-2.8096016202	 0.208669
71.5567	94.9457	138.8289	169.5146	205.1339	210.1703	219.3843	249.0805	274.8556	336.4796	354.4775	434.4912	440.3834	485.0515	519.8919	637.7413	641.1025	666.0462	724.6618	889.3805	933.0921	946.4894	969.2638	976.939	1081.1597	1091.9842	1155.7028	1169.5508	1211.212	1310.9879	1345.7482	1372.2608	1396.2383	1411.2804	1418.7009	1489.6224	1500.9846	1503.6254	1522.2646	1843.4738	2220.6895	2921.0214	2999.3828	3045.1294	3048.6449	3110.81	3115.0242	3130.8037	3143.2388	3496.5706	3816.741
CC(C)C(O)(C=O)C#C	CC(C)[C@@](O)(C=O)C#C	
InChI=1S/C7H10O2/c1-4-7(9,5-8)6(2)3/h1,5-6,9H,2-3H3	InChI=1S/C7H10O2/c1-4-7(9,5-8)6(2)3/h1,5-6,9H,2-3H3/t7-/m0/s1
