22
gdb 6054	2.99737	1.48687	1.26642	2.2886	74.1	-0.2539	0.0634	0.3172	1099.7467	0.19742	-387.352042	-387.341825	-387.34088	-387.386054	38.57	
C	 0.1316613354	 1.5906299789	-0.0591367215	-0.393987
C	-0.0125800281	 0.072549047	 0.0776102236	-0.202548
C	-1.4747781039	-0.4407540634	 0.0409295646	 0.385182
C	-2.2777204868	 0.0712397517	 1.2366661119	-0.428989
O	-2.1399354553	 0.0346847164	-1.1295691458	-0.478047
C	-1.4575625588	-1.9929222277	-0.0129933292	 0.114489
C	-2.8390579836	-2.6384282023	 0.0631111964	-0.427156
O	-0.8321691624	-2.3045652224	-1.2664700917	-0.455527
H	 1.1845676422	 1.8676766055	-0.1700824831	 0.104976
H	-0.4123921517	 1.9466161012	-0.9378959507	 0.128528
H	-0.2549843439	 2.1250100618	 0.8142985627	 0.110584
H	 0.5314910676	-0.4181921296	-0.7356128266	 0.110088
H	 0.455385088	-0.2691608505	 1.0103889513	 0.083415
H	-2.2421231254	 1.1619687764	 1.27693482	 0.126948
H	-3.3267742506	-0.2200464907	 1.1548938265	 0.121832
H	-1.8736694879	-0.3195095805	 2.1762976732	 0.107951
H	-1.763905747	-0.4755533056	-1.8593944531	 0.28129
H	-0.8300290063	-2.363990776	 0.8125371316	 0.064732
H	-3.5090868642	-2.1840235808	-0.6715398037	 0.136351
H	-2.7674858155	-3.7136941587	-0.1415241349	 0.099024
H	-3.2798426333	-2.529873169	 1.0572745566	 0.124829
H	-1.0082728583	-3.2272135119	-1.4711869882	 0.286037
95.3599	108.5185	190.3918	205.6473	225.3007	253.5894	262.8248	306.7557	335.4751	362.1643	369.5479	380.6483	477.7612	498.8922	512.6997	628.8778	735.1749	789.67	855.6364	921.5728	932.2571	1003.3951	1016.1689	1021.4181	1058.2913	1091.9579	1118.2322	1168.4133	1183.4596	1202.4726	1261.081	1304.6096	1361.5997	1365.3091	1386.4632	1403.3435	1407.9237	1411.5017	1436.9951	1478.3784	1490.3486	1492.4927	1497.2736	1502.9815	1512.3995	1520.4568	2977.6182	3022.9329	3030.357	3041.5367	3049.619	3075.9904	3099.355	3104.2328	3122.0688	3123.06	3131.6443	3136.5913	3761.2637	3835.4768
CCC(C)(O)C(C)O	CC[C@@](C)(O)[C@@H](C)O	
InChI=1S/C6H14O2/c1-4-6(3,8)5(2)7/h5,7-8H,4H2,1-3H3	InChI=1S/C6H14O2/c1-4-6(3,8)5(2)7/h5,7-8H,4H2,1-3H3/t5-,6-/m1/s1
