22
gdb 9551	2.72198	1.59348	1.47424	1.6802	77.65	-0.2383	0.0812	0.3195	1048.9936	0.198628	-350.203362	-350.193873	-350.192929	-350.237184	35.17	
C	 0.357595527	 1.5625632286	 0.1257129027	-0.393712
C	 0.1362295155	 0.0540469564	-0.0349747019	-0.208987
C	 0.6276044879	-0.4996152322	-1.3779996372	 0.430983
C	-0.1003668919	 0.0985266473	-2.5739427801	-0.442811
O	 2.0704182984	-0.2945700493	-1.5018324202	-0.326261
C	 2.3355216971	-1.6997213217	-1.3403950729	-0.084135
C	 0.8383364112	-2.049619571	-1.438999731	-0.07143
C	 0.2267630782	-2.9839972634	-0.4053807281	-0.420289
H	 1.4017200515	 1.8121712898	-0.0829941709	 0.137316
H	-0.2744076184	 2.1474221562	-0.5491065332	 0.114375
H	 0.127689106	 1.8794716156	 1.1473663655	 0.108132
H	 0.6715453133	-0.4633022576	 0.7685208389	 0.094914
H	-0.9263166621	-0.1924139333	 0.0886151973	 0.090696
H	 0.0270246275	 1.1838670538	-2.6129542308	 0.126174
H	 0.2934276673	-0.3182699773	-3.5050283538	 0.115506
H	-1.1735130913	-0.118557472	-2.5221697028	 0.111126
H	 2.9947942723	-2.0884013118	-2.1252860426	 0.098227
H	 2.7856920918	-1.923608876	-0.3618652716	 0.089977
H	 0.5889506288	-2.4109715309	-2.441499005	 0.075333
H	 0.4784170309	-2.6925382321	 0.6184817649	 0.119854
H	-0.8650600379	-3.0147160808	-0.4881253463	 0.118261
H	 0.5934893469	-4.0055898781	-0.5547491207	 0.116752
75.0468	99.7013	179.2288	187.5764	214.1946	235.8324	276.3751	310.9619	353.457	388.3978	479.822	502.2633	646.9838	721.0188	788.2566	871.3378	900.2177	906.6881	926.0375	995.8388	1016.0492	1028.8182	1036.6139	1075.0286	1130.9667	1147.3256	1172.019	1175.823	1223.2061	1235.8091	1285.6471	1318.3644	1347.6993	1375.5816	1393.3856	1403.3405	1406.1664	1414.7572	1471.7782	1483.1636	1491.745	1496.5025	1501.5358	1508.0894	1512.865	1528.5405	2989.5082	3024.4041	3032.2183	3035.0591	3041.7323	3043.4096	3058.895	3066.1434	3091.8459	3104.8549	3107.3248	3110.5952	3118.3578	3123.0798
CCC1(C)OCC1C	CC[C@@]1(C)OC[C@H]1C	
InChI=1S/C7H14O/c1-4-7(3)6(2)5-8-7/h6H,4-5H2,1-3H3	InChI=1S/C7H14O/c1-4-7(3)6(2)5-8-7/h6H,4-5H2,1-3H3/t6-,7-/m1/s1
