14
gdb 13229	6.36974	1.02986	0.99832	5.9315	65.39	-0.2754	0.0018	0.2772	1154.8982	0.107505	-378.723414	-378.715835	-378.714891	-378.757358	25.995	
N	 0.316132834	-1.1217889228	 0.8147246641	-0.307715
C	 0.225899996	-0.0079269978	 0.5228846769	 0.275029
C	 0.0931713997	 1.4037485794	 0.1407025366	-0.302632
N	 1.3984435209	 2.0612774693	 0.1257213868	-0.323698
C	 1.8104448021	 2.5110111852	-0.9699189846	 0.481529
C	 3.0580630553	 3.234424305	-1.4228558211	-0.374394
C	 2.371072632	 3.1975838467	-2.8039262778	-0.07833
O	 1.2244255449	 2.4997063779	-2.2184904681	-0.256798
H	-0.4374209099	 1.4508481858	-0.8189346578	 0.161105
H	-0.5373156367	 1.8953617451	 0.8910261684	 0.15903
H	 3.1991800692	 4.2222348342	-0.9821754399	 0.147914
H	 3.978136354	 2.6563623682	-1.3271481644	 0.151767
H	 2.0658456025	 4.158801577	-3.2223486044	 0.13217
H	 2.848327746	 2.5810331569	-3.5681025649	 0.135024
13.323	111.7934	152.8043	218.098	279.1602	376.0235	458.3142	541.0536	613.4219	761.0643	791.2714	906.0564	928.2241	958.9036	992.9294	1017.7123	1061.0574	1066.2121	1153.9011	1158.6756	1199.8229	1240.6485	1266.3825	1354.1198	1364.4474	1465.206	1476.0686	1520.3604	1831.7733	2366.2235	3025.4094	3065.3339	3074.7874	3094.8998	3131.265	3152.5391
N#CCN=C1CCO1	N#CCN=C1CCO1	
InChI=1S/C5H6N2O/c6-2-3-7-5-1-4-8-5/h1,3-4H2	InChI=1S/C5H6N2O/c6-2-3-7-5-1-4-8-5/h1,3-4H2
