19
gdb 65167	2.46065	1.32988	1.17466	2.721	81.9	-0.229	0.0402	0.2692	1163.6596	0.158035	-381.977065	-381.967911	-381.966967	-382.011043	34.757	
C	-0.002286065	 1.4592396741	-0.7180325418	-0.469556
C	 0.0040377656	 0.0779676316	-0.0943474016	 0.311245
C	 1.1243516223	-0.8542645305	-0.3986764717	-0.274438
N	 1.0046826738	-0.2336165717	 0.9309236073	-0.31844
C	-1.3752411745	-0.4807754723	 0.1326081333	-0.060899
N	-1.5412986411	-1.5935046438	 1.0597897019	-0.318983
C	-2.1508191953	-0.2849195496	 1.4029443822	-0.264807
C	-1.650185985	 0.4368215639	 2.5402521538	 0.404455
C	-1.3082479099	 1.0871474651	 3.491788119	-0.44445
H	 1.0159818787	 1.7923717194	-0.9425582865	 0.112781
H	-0.5721254161	 1.4739253046	-1.6544137676	 0.118449
H	-0.4594941298	 2.186953931	-0.0382712778	 0.134693
H	 0.9435759648	-1.9254420416	-0.4045594443	 0.120912
H	 1.9032172589	-0.5127808407	-1.0763558245	 0.104004
H	 1.6523914198	 0.5454585768	 1.0193533644	 0.225881
H	-1.9838421638	-0.4828568887	-0.7728290276	 0.083273
H	-2.2685789025	-2.2239350958	 0.7321528981	 0.235291
H	-3.2296024659	-0.2044872391	 1.2783843393	 0.107415
H	-0.980530265	 1.6405415473	 4.3364514143	 0.193174
52.6835	101.6347	174.7592	219.106	243.8612	255.7102	325.4185	370.1104	428.0751	496.3051	561.0688	594.5596	616.4015	650.7941	711.7051	812.6863	827.1144	868.5967	912.5541	926.3445	957.0068	967.0822	991.7549	1017.128	1051.9073	1104.0891	1118.8699	1152.8604	1189.8926	1220.1695	1243.1113	1261.4054	1305.811	1377.0377	1412.3598	1418.7696	1465.5876	1486.6403	1501.524	1511.0175	2240.2095	3024.6936	3087.3827	3093.2149	3101.5332	3103.9827	3114.6582	3192.4719	3498.7312	3503.0705	3505.8627
CC1(CN1)C1NC1C#C	C[C@]1(CN1)[C@H]1N[C@H]1C#C	
InChI=1S/C7H10N2/c1-3-5-6(9-5)7(2)4-8-7/h1,5-6,8-9H,4H2,2H3	InChI=1S/C7H10N2/c1-3-5-6(9-5)7(2)4-8-7/h1,5-6,8-9H,4H2,2H3/t5-,6-,7-/m0/s1
