15
gdb 128424	4.81851	0.86392	0.76878	4.8658	64.47	-0.2527	-0.0233	0.2294	1445.1487	0.112231	-491.084945	-491.076601	-491.075657	-491.119197	28.968	
C	-0.2901395592	 1.4241285087	 0.4371574179	-0.313958
N	-0.2735195063	-0.0347986603	 0.422894298	-0.286009
C	-1.1150361404	-0.6013678973	-0.6215490376	-0.252319
C	-1.1913840643	-2.0830015076	-0.4861493298	 0.434313
N	-0.728460956	-2.9318190703	-1.3282761784	-0.170468
O	-1.0379566161	-4.1945227684	-0.7625060796	-0.227489
C	-1.6847698173	-4.0065844776	 0.4177369204	 0.510896
O	-2.0910108705	-4.8381303764	 1.1563550736	-0.354749
O	-1.7835121407	-2.6373184031	 0.5978528432	-0.214002
H	 0.3990703811	 1.7825045972	 1.205853443	 0.132899
H	-0.0113646825	 1.8902165018	-0.5236913732	 0.104513
H	-1.2946397149	 1.773398536	 0.6999571204	 0.132688
H	 0.6778432589	-0.366656512	 0.3017032735	 0.231688
H	-2.1274607282	-0.1950293618	-0.5038276815	 0.143545
H	-0.7910442936	-0.3834220789	-1.6528638399	 0.128452
56.4963	76.2663	102.6255	219.4187	234.8567	305.3455	331.64	396.438	540.6267	649.6492	730.4512	771.5629	783.626	807.6412	890.3166	934.4597	982.6117	990.1352	1008.8901	1135.2699	1139.5824	1165.546	1182.7214	1274.9321	1356.3112	1414.3997	1459.6055	1485.6088	1488.0631	1496.2544	1518.1813	1690.2672	1954.2614	2957.7594	2973.1575	3054.1467	3065.3591	3117.3626	3521.9056
CNCC1=NOC(=O)O1	CNCc1noc(=O)o1	
InChI=1S/C4H6N2O3/c1-5-2-3-6-9-4(7)8-3/h5H,2H2,1H3	InChI=1S/C4H6N2O3/c1-5-2-3-6-9-4(7)8-3/h5H,2H2,1H3
