16
gdb 51689	3.62918	0.98885	0.83595	1.1373	67.27	-0.2606	-0.0378	0.2228	1326.003	0.12324	-475.04046	-475.03193	-475.030986	-475.075504	29.633	
N	 0.1846187684	 1.1662761439	-0.1612132697	-0.52735
C	 0.0876868338	-0.0792891444	-0.0196478751	 0.383335
C	-1.0719734623	-0.9457911204	-0.4582661267	-0.17666
O	-0.8154344774	-2.206585277	 0.1430628756	-0.251315
C	 0.5525981462	-2.2596009199	 0.4664056914	 0.187721
C	 1.3700308985	-3.0292985603	-0.5819515964	-0.303745
C	 2.8523086406	-3.0384821615	-0.2585588128	 0.153151
O	 3.4755639613	-4.0325110885	 0.0097470246	-0.229088
O	 1.011141315	-0.9072363373	 0.5579801891	-0.23955
H	 1.0709939077	 1.515254097	 0.2049596121	 0.233139
H	-2.0272343435	-0.5595752311	-0.0969700317	 0.154184
H	-1.1123373801	-1.0126280462	-1.5542018219	 0.134479
H	 0.6550900083	-2.7201796731	 1.4546706371	 0.122952
H	 1.0066406386	-4.0583698603	-0.6321603432	 0.139485
H	 1.2222147217	-2.5428918401	-1.5547454201	 0.12355
H	 3.3369312932	-2.0390203407	-0.2774113922	 0.095711
39.9105	63.7639	99.5021	111.6588	221.9481	371.5331	411.5845	468.6799	519.1	532.6116	665.5309	759.7703	853.6831	856.6427	888.1887	903.8695	970.0095	1024.3042	1032.7633	1059.9195	1075.1591	1098.313	1166.1482	1206.7232	1220.7886	1277.1657	1288.8927	1349.0623	1388.5071	1400.3278	1426.7182	1455.6236	1505.7909	1802.9231	1833.3381	2908.4823	3016.7163	3035.8621	3063.0833	3110.5419	3123.2832	3487.6581
N=C1COC(CC=O)O1	[NH][C]1CO[C@@H](CC=O)O1	
InChI=1S/C5H7NO3/c6-4-3-8-5(9-4)1-2-7/h2,5-6H,1,3H2	InChI=1S/C5H7NO3/c6-4-3-8-5(9-4)1-2-7/h2,5-6H,1,3H2/t5-/m1/s1
