17
gdb 65958	2.29544	1.48464	1.39945	1.7643	74.51	-0.2519	0.0223	0.2742	1045.4437	0.132986	-421.751662	-421.742766	-421.741822	-421.785	33.606	
O	-0.0103221034	 1.4020063	-0.4783647582	-0.468827
C	-0.0172829036	 0.0439191358	-0.0867674085	 0.15519
C	 0.0595192475	-0.2563808545	 1.4568120289	-0.281829
C	-1.1508871815	-1.224556697	 1.3185367804	-0.32353
C	-1.4328120254	-0.5732839074	-0.0337205168	 0.429971
C	-2.649209305	 0.0678863282	-0.5275051211	-0.257129
O	-2.1208536138	-1.1317571802	-1.1231227538	-0.274689
C	 0.9254408386	-0.7480492879	-0.8668342914	 0.293797
C	 1.7300768065	-1.3715742916	-1.5067661684	-0.483349
H	 0.8572951656	 1.6066438558	-0.8419598001	 0.28834
H	 0.997285367	-0.6695947184	 1.8278096655	 0.112228
H	-0.1940177335	 0.6529015384	 2.0053691281	 0.11904
H	-0.8387963098	-2.26592278	 1.2045742784	 0.125922
H	-1.9344788609	-1.1647195183	 2.0754796126	 0.11201
H	-3.5815732086	-0.0571422415	 0.0215989765	 0.114956
H	-2.5671848737	 0.9639051915	-1.137755232	 0.13377
H	 2.4257228739	-1.9324130332	-2.0811846299	 0.20413
83.925	121.7335	170.2089	205.624	244.0565	283.4754	324.7046	392.3724	477.6221	486.3252	542.6232	618.0438	637.8934	668.3872	677.318	756.8958	877.6161	887.4065	905.6305	933.3949	953.2451	988.3207	1089.2036	1115.4044	1138.4212	1151.9314	1165.5461	1196.652	1213.4038	1255.3657	1261.6518	1356.2046	1436.1713	1473.3532	1491.1587	1533.0837	2230.7187	3071.4979	3082.5034	3090.3281	3125.094	3150.1894	3188.7692	3499.5909	3821.1696
OC1(CCC11CO1)C#C	O[C@]1(CC[C@]21CO2)C#C	
InChI=1S/C7H8O2/c1-2-6(8)3-4-7(6)5-9-7/h1,8H,3-5H2	InChI=1S/C7H8O2/c1-2-6(8)3-4-7(6)5-9-7/h1,8H,3-5H2/t6-,7+/m0/s1
