19
gdb 104632	2.60496	1.17411	0.96068	3.6376	77.17	-0.2322	0.0234	0.2556	1289.0028	0.15846	-419.187702	-419.178208	-419.177263	-419.222268	34.346	
C	 0.0459589032	 1.561036445	 0.0772838156	-0.325958
N	 0.1227749373	 0.1182590546	 0.06800506	-0.058302
C	 1.0618455978	-0.5374209679	-0.8531400215	-0.210395
C	 1.3676257201	-1.5960812615	 0.2534356488	 0.091894
C	 2.8412977028	-1.9489195606	 0.5072700263	-0.127956
O	 3.0176409181	-2.6861856909	 1.695931279	-0.41399
C	 0.7060517713	-0.5716758117	 1.2294992429	-0.192164
C	 0.5966051175	-2.8260335536	 0.1115369711	 0.262445
N	 0.0443507289	-3.8383938518	 0.0200348767	-0.348434
H	 1.0245994281	 2.0479757639	 0.2518426902	 0.092251
H	-0.3463726585	 1.9170029473	-0.8808339113	 0.128762
H	-0.6421691766	 1.8885680725	 0.8632003573	 0.130248
H	 0.626669079	-0.8930587802	-1.7912993443	 0.125899
H	 1.9633344117	 0.0594737434	-1.0748397573	 0.092153
H	 3.2480936594	-2.4728315718	-0.371099042	 0.108767
H	 3.4047544879	-1.019702939	 0.6336015229	 0.117473
H	 2.601942836	-3.5484706285	 1.5787170244	 0.300811
H	 1.4809102432	 0.0082861363	 1.7566772512	 0.098479
H	-0.0159872172	-0.9520779457	 1.9566511901	 0.128017
67.5615	90.5669	145.9526	175.1683	218.1114	247.7064	306.394	330.6189	368.6228	394.8557	427.6353	501.9685	587.053	679.6831	733.0367	859.6405	933.7982	964.9439	981.9504	1006.9379	1050.1215	1095.5563	1112.3976	1122.8783	1132.4168	1178.0301	1203.9131	1237.8831	1263.6577	1302.4058	1306.5741	1347.7971	1385.5899	1419.0305	1451.3022	1485.0446	1497.2614	1498.4809	1504.294	1527.6436	2346.4593	2925.0848	2955.2397	2974.8205	2992.6814	3062.2634	3078.9599	3085.5303	3089.0129	3105.0291	3796.2337
CN1CC(CO)(C1)C#N	CN1CC(CO)(C1)C#N	
InChI=1S/C6H10N2O/c1-8-3-6(2-7,4-8)5-9/h9H,3-5H2,1H3	InChI=1S/C6H10N2O/c1-8-3-6(2-7,4-8)5-9/h9H,3-5H2,1H3
