23
gdb 115383	3.11424	1.05691	0.93523	1.8115	81.73	-0.2453	0.076	0.3213	1378.2459	0.206705	-425.446076	-425.436767	-425.435823	-425.479994	36.07	
C	 0.0480932774	 1.5534044211	-0.0361785223	-0.386837
C	 0.0346502265	 0.0234931513	 0.0115844507	-0.186229
C	 0.7366088422	-0.5524003366	 1.2375396842	 0.14961
C	 0.6457874958	-2.0808105105	 1.3290738256	-0.218776
C	 1.5043534807	-2.620694459	 2.4841563321	-0.23279
C	 2.9263265459	-2.0391811922	 2.4139334564	 0.143935
O	 3.6406954556	-2.5374299751	 1.2890988608	-0.447729
C	 2.8401326363	-0.5141794201	 2.3371539629	-0.10911
O	 2.1076348832	-0.1386184129	 1.1781291018	-0.275837
H	 1.0740781857	 1.9288181047	-0.0201742241	 0.134311
H	-0.4403287674	 1.9234095544	-0.9425546358	 0.109994
H	-0.4790619072	 1.9801490665	 0.8245752285	 0.109695
H	-0.9974582439	-0.3475823495	 0.0053272586	 0.095821
H	 0.5199696264	-0.3840363654	-0.8842029875	 0.100155
H	 0.2886952719	-0.1148420878	 2.1491671544	 0.060382
H	-0.4006347023	-2.3815723781	 1.4507250119	 0.096096
H	 0.9928722274	-2.5114333658	 0.3814760235	 0.101877
H	 1.0546847061	-2.3420335181	 3.4466873774	 0.090225
H	 1.5544822977	-3.7131391317	 2.4518145689	 0.105143
H	 3.4992759884	-2.3350910621	 3.3002182059	 0.076979
H	 3.3717950801	-1.99286405	 0.5391406435	 0.284103
H	 2.3701649833	-0.1012003356	 3.2444699172	 0.087683
H	 3.8372000001	-0.0780302575	 2.2273817555	 0.111299
79.8944	108.4288	177.3599	202.4977	229.5741	270.037	363.1434	393.0381	396.923	410.4237	488.0324	512.9984	515.7595	726.0659	756.8733	820.0876	844.5274	867.782	906.4217	939.2775	986.2095	998.5024	1031.2401	1043.0163	1069.1737	1098.6372	1120.2193	1138.6496	1166.9747	1210.9386	1229.5734	1253.1744	1286.4467	1312.6876	1323.5457	1345.7408	1359.4533	1381.9517	1384.6108	1404.5915	1405.6988	1412.1292	1429.158	1471.7131	1478.0488	1486.1025	1493.6116	1497.0927	1509.9708	2931.2647	2978.1493	3020.8886	3024.4297	3032.055	3037.1274	3049.4756	3062.5615	3075.548	3085.2245	3089.4894	3101.6657	3127.3714	3779.8306
CCC1CCC(O)CO1	CC[C@H]1CC[C@@H](O)CO1	
InChI=1S/C7H14O2/c1-2-7-4-3-6(8)5-9-7/h6-8H,2-5H2,1H3	InChI=1S/C7H14O2/c1-2-7-4-3-6(8)5-9-7/h6-8H,2-5H2,1H3/t6-,7+/m1/s1
