17
gdb 99946	2.55061	1.17981	1.04393	2.9597	71.83	-0.2587	-0.0614	0.1973	1212.4485	0.131207	-458.931226	-458.920868	-458.919924	-458.967106	37.122	
C	-0.2928708895	 1.750650033	-0.0344027706	-0.424597
C	 0.0495077278	 0.2536132867	-0.0179249264	 0.266778
O	 0.8342126414	-0.0847512946	 1.1085652436	-0.474098
C	-1.2292832192	-0.6122358233	-0.0154199803	-0.110761
O	-1.8353842852	-0.4164972124	 1.2576598933	-0.433952
C	 0.8263380781	-0.1184538063	-1.2896199291	 0.159844
O	 0.4257516673	 0.2143956814	-2.3854952237	-0.309981
C	 2.0276210948	-0.9138845789	-1.1318533654	 0.338653
C	 3.0332611824	-1.5726210666	-1.0716730812	-0.427414
H	 0.6185345823	 2.3367580194	 0.1076598467	 0.127368
H	-0.7498053124	 2.0276492057	-0.9870934568	 0.136009
H	-0.9865302091	 1.9778209862	 0.7788794076	 0.128276
H	 0.2061081275	-0.2083229237	 1.8325930412	 0.287718
H	-1.8894610012	-0.3058185247	-0.8363033446	 0.117863
H	-0.9531205005	-1.6663292342	-0.1583207672	 0.105029
H	-2.4670628893	-1.1242785065	 1.4110153766	 0.29967
H	 3.9218930947	-2.1521086413	-1.0063813436	 0.213596
20.8314	120.7941	154.5258	169.084	225.903	236.5028	249.2154	275.7632	317.8312	352.7526	382.373	433.6488	472.19	507.0376	637.137	657.3411	718.044	735.5047	754.958	847.1631	940.0566	986.69	1062.8551	1093.585	1135.5366	1177.6258	1203.3125	1249.2509	1295.0948	1385.4642	1404.9068	1437.3025	1493.0283	1493.6623	1511.5156	1756.647	2211.414	3001.7034	3052.213	3056.7287	3131.6598	3139.6546	3495.1947	3763.9947	3845.3154
CC(O)(CO)C(=O)C#C	C[C@@](O)(CO)C(=O)C#C	
InChI=1S/C6H8O3/c1-3-5(8)6(2,9)4-7/h1,7,9H,4H2,2H3	InChI=1S/C6H8O3/c1-3-5(8)6(2,9)4-7/h1,7,9H,4H2,2H3/t6-/m1/s1
