16
gdb 22861	3.2211	1.2401	0.93424	2.8494	78.78	-0.2469	-0.0776	0.1693	1197.976	0.123703	-437.885573	-437.877155	-437.876211	-437.918804	31.137	
C	-0.0887192305	 1.574811347	 0.0308912802	-0.390394
C	 0.0370734709	 0.0470884956	 0.0449917499	-0.209177
C	 0.8511654629	-0.4873840278	-1.1501833541	 0.38297
O	 0.6450268517	-0.227939033	-2.3126576255	-0.329088
C	 1.9269500451	-1.3519808655	-0.6048824002	-0.193946
C	 1.8783822209	-1.3671853884	 0.7405853032	-0.127935
C	 0.7772166286	-0.5357210716	 1.2304524211	 0.362948
N	 0.4286431836	-0.2858068217	 2.4363204123	-0.217759
O	 1.2529810261	-0.9249420838	 3.3654188064	-0.382913
H	 0.8930488728	 2.0490504735	 0.1253391636	 0.121927
H	-0.5354454653	 1.8959214031	-0.9134040093	 0.138727
H	-0.7124814363	 1.9159348907	 0.8599848743	 0.133038
H	-0.965527999	-0.3947548155	-0.0195935544	 0.126277
H	 2.6370386903	-1.8684979209	-1.2380706126	 0.128834
H	 2.5418277978	-1.9010599619	 1.406775793	 0.142823
H	 0.8714078405	-0.6469217198	 4.2050215323	 0.313667
61.124	170.0557	205.5387	220.8349	235.9924	278.5476	338.8357	409.8901	447.1257	523.4186	603.7635	694.8557	699.4478	728.1494	790.9023	829.8342	878.312	974.301	1010.8213	1018.9819	1079.6682	1082.8223	1104.1606	1170.5102	1248.6365	1256.2141	1315.0057	1356.232	1398.7926	1413.971	1494.3228	1497.9981	1608.2189	1715.0309	1814.2847	3034.8104	3047.216	3119.839	3135.6036	3219.9037	3245.7983	3819.6126
CC1C(=O)C=CC1=NO	C[C@H]1C(=O)C=CC1=NO	
InChI=1S/C6H7NO2/c1-4-5(7-9)2-3-6(4)8/h2-4,9H,1H3	InChI=1S/C6H7NO2/c1-4-5(7-9)2-3-6(4)8/h2-4,9H,1H3/t4-/m1/s1
