18
gdb 13382	5.97424	0.9749	0.89365	1.5954	70.88	-0.2269	0.0204	0.2473	1282.5661	0.153493	-384.934981	-384.926429	-384.925485	-384.969136	29.797	
O	-0.0929809272	 1.4462299292	-0.0601721564	-0.416979
C	 0.0202444915	 0.034698568	-0.1352738184	-0.067057
C	-1.3647427119	-0.5485227595	 0.1608325029	-0.298
C	-1.4040742955	-2.0445617101	 0.1097985028	 0.300996
C	-1.6231025874	-2.9032799155	 1.1027448974	-0.210974
C	-1.5937660122	-4.3142461347	 0.5931977402	-0.101863
O	-1.3161512883	-4.2012146085	-0.8010708869	-0.264693
C	-1.2098704626	-2.8308769532	-1.1662196257	-0.148438
H	 0.7718583026	 1.8280572531	-0.2357409371	 0.287602
H	 0.3600783975	-0.2851843694	-1.1328280676	 0.089895
H	 0.7442776413	-0.3535751155	 0.5980634959	 0.092797
H	-1.6812192863	-0.1961322071	 1.1474972213	 0.115086
H	-2.0665713849	-0.1241235352	-0.5695418491	 0.115454
H	-1.8131939284	-2.6509294501	 2.1389352091	 0.098634
H	-0.8163001144	-4.9265833751	 1.0776541514	 0.102916
H	-2.5529000553	-4.8361659041	 0.7446854708	 0.102746
H	-1.9735457767	-2.57676335	-1.9208540107	 0.10107
H	-0.2288243517	-2.6495148523	-1.63397032	 0.10081
52.6219	85.9772	101.4444	131.99	254.2943	285.7354	329.6358	351.5327	490.1295	681.0986	778.2722	796.3789	829.8422	909.7715	928.1791	968.2968	1003.1883	1026.8238	1057.6604	1071.4205	1086.6786	1113.6108	1173.4199	1206.6022	1217.3427	1227.7222	1239.5627	1296.3082	1321.6228	1337.3364	1371.3204	1396.9195	1456.1707	1486.7834	1517.1024	1527.9989	1530.296	1729.895	2957.3226	2968.0338	2968.4745	2978.4292	2982.2117	2999.1096	3025.1401	3085.6945	3209.0833	3831.0721
OCCC1=CCOC1	OCCC1=CCOC1	
InChI=1S/C6H10O2/c7-3-1-6-2-4-8-5-6/h2,7H,1,3-5H2	InChI=1S/C6H10O2/c7-3-1-6-2-4-8-5-6/h2,7H,1,3-5H2
