15
gdb 67726	2.35563	1.99039	1.76528	3.7343	69.97	-0.2515	-0.0077	0.2437	862.4656	0.112108	-420.629163	-420.621769	-420.620824	-420.661415	28.815	
O	-0.0031916891	 1.4156638973	 0.0216490463	-0.496669
C	 0.0906851142	 0.0261453308	 0.0040225774	 0.252674
C	 0.6002795328	-0.6485467023	-1.2627531973	-0.147104
C	 0.1817940414	-1.9215763323	-1.2697135085	-0.085369
C	-0.62188317	-2.1740667554	-0.0047055191	-0.22604
C	 0.2359446172	-1.9490791247	 1.2295779478	-0.085489
C	 0.6547909959	-0.6761628975	 1.2321807824	-0.146756
C	-1.3030374502	-0.7399947455	 0.0259199089	 0.4055
O	-2.4245250355	-0.368350679	 0.0541211553	-0.297397
H	 0.8854681291	 1.7849485535	 0.000560161	 0.28589
H	 1.1614553089	-0.1215111144	-2.0231054429	 0.110849
H	 0.3363591491	-2.6643221655	-2.0403696125	 0.115233
H	-1.2772513228	-3.0418490918	-0.0000441038	 0.088542
H	 0.4231264649	-2.7084883955	 1.9763933265	 0.115208
H	 1.2487330242	-0.1655595576	 1.9787033686	 0.11093
38.2797	163.9084	242.9441	351.1279	404.0472	424.2942	481.6029	549.805	638.8447	656.6924	677.3056	732.0883	747.253	776.8505	793.941	864.8632	911.4577	921.2277	929.4708	973.1218	1000.453	1048.3701	1092.7584	1108.6544	1170.2044	1241.2828	1263.0586	1306.1417	1314.2312	1374.8656	1587.745	1635.0417	1923.742	3149.0889	3211.3567	3212.3432	3234.5732	3236.7403	3819.8249
OC12C=CC(C=C1)C2=O	O[C@@]12C=C[C@@H](C=C1)C2=O	
InChI=1S/C7H6O2/c8-6-5-1-3-7(6,9)4-2-5/h1-5,9H	InChI=1S/C7H6O2/c8-6-5-1-3-7(6,9)4-2-5/h1-5,9H/t5-,7-
