17
gdb 78678	3.25684	1.40935	1.12169	2.498	73.15	-0.2372	0.0034	0.2406	1091.0129	0.134827	-421.771756	-421.763743	-421.762798	-421.804077	30.76	
C	-0.1737737549	 1.5829387461	-0.0229571603	-0.427121
C	-0.017392127	 0.0716540617	-0.0132230027	-0.014613
C	 1.2237436842	-0.580215509	-0.6665511555	-0.110317
C	 2.1500496526	-0.2704350894	 0.563966579	-0.209408
C	 0.7269542776	-0.6228318888	 1.1532351507	-0.077404
C	 1.0798394956	-1.8729293641	 0.2717760088	 0.252981
O	 0.2456517888	-2.9457364421	 0.111903649	-0.471498
C	 2.5540762629	-1.7431262344	 0.6455363002	 0.375837
O	 3.5105396083	-2.4282291357	 0.8502773541	-0.340678
H	 0.756097488	 2.0936899745	 0.2462276348	 0.115553
H	-0.4750613065	 1.936542773	-1.0152086718	 0.120088
H	-0.9472142974	 1.8989476059	 0.6857935911	 0.120888
H	-0.9604545234	-0.4186767523	-0.2793001007	 0.085742
H	 1.5498803439	-0.5872696233	-1.7073767704	 0.085275
H	 2.7216509824	 0.6342951911	 0.7361794145	 0.102485
H	 0.4849964359	-0.6635230448	 2.2157605658	 0.090478
H	 0.703925289	-3.6169256383	-0.4061845467	 0.301712
138.351	156.1585	188.5079	220.5437	263.7606	280.2246	399.6292	415.0781	575.295	664.3214	695.7547	711.9347	774.6573	797.1909	844.1439	866.1265	890.615	921.1896	995.3011	1015.9437	1020.81	1056.1715	1068.0602	1115.6052	1124.241	1165.9251	1174.3476	1190.7752	1235.1807	1284.7334	1305.14	1400.3269	1410.7397	1419.8294	1494.3742	1498.5051	1906.9061	3030.3987	3046.4637	3092.8036	3104.7	3106.6621	3112.4961	3193.8609	3808.4408
CC1C2C3C1C2(O)C3=O	C[C@H]1[C@H]2[C@H]3[C@@H]1[C@]2(O)C3=O	
InChI=1S/C7H8O2/c1-2-4-3-5(2)7(4,9)6(3)8/h2-5,9H,1H3	InChI=1S/C7H8O2/c1-2-4-3-5(2)7(4,9)6(3)8/h2-5,9H,1H3/t2-,3-,4-,5+,7-
