17
gdb 35604	2.55504	1.66603	1.24329	4.8634	78.46	-0.2367	-0.0074	0.2293	1030.3118	0.138295	-380.846314	-380.838835	-380.837891	-380.87848	28.759	
N	-0.113430348	-1.1714742923	-0.0301212235	-0.330382
C	-0.0602385873	-0.0172801764	-0.0086480577	 0.306664
C	-0.045251502	 1.4436461632	 0.0197633148	-0.218828
C	-0.5351138842	 1.9870487732	 1.422197148	-0.259235
C	 0.7604151911	 2.1453365952	 2.2151580572	-0.213948
C	 1.7754385242	 2.2389254407	 1.3683411877	 0.279466
C	 3.1950697796	 1.8272526719	 1.048449975	-0.257778
N	 2.6306678552	 1.2122799642	-0.2062186957	-0.317246
C	 1.3946618265	 2.0358301472	-0.0666056188	-0.005682
H	-0.6906331505	 1.7988296073	-0.7899638436	 0.116169
H	-1.0716765984	 2.9349180875	 1.2866007295	 0.117332
H	-1.2311994298	 1.2935717355	 1.9014643034	 0.134188
H	 0.7951087388	 2.0880259501	 3.2959584383	 0.109475
H	 3.8763339648	 2.6685638654	 0.8601549686	 0.107801
H	 3.6776057613	 1.117906011	 1.7268421274	 0.130386
H	 3.1690902618	 1.4061683103	-1.0447030143	 0.223087
H	 1.3959930668	 2.938746296	-0.6939023361	 0.078534
79.5384	137.1087	225.8952	261.558	332.8341	377.8573	468.2397	564.5407	649.6431	681.7978	734.4109	780.6663	829.3239	840.2483	870.2733	927.1961	954.6142	970.5432	983.7373	1011.8667	1031.2629	1093.323	1112.8016	1126.9513	1184.5184	1190.6412	1223.8094	1254.5614	1310.563	1321.8868	1328.3631	1364.6887	1379.9424	1486.4399	1500.6596	1753.6916	2359.5614	2992.7482	3006.2699	3025.4898	3065.3355	3084.2574	3095.137	3212.1549	3517.649
N#CC1CC=C2CNC12	N#C[C@H]1C[CH][C]2CN[C@@H]12	
InChI=1S/C7H8N2/c8-3-5-1-2-6-4-9-7(5)6/h2,5,7,9H,1,4H2	InChI=1S/C7H8N2/c8-3-5-1-2-6-4-9-7(5)6/h2,5,7,9H,1,4H2/t5-,7+/m1/s1
