17
gdb 67224	2.58687	2.01761	1.46294	3.265	71.64	-0.2245	-0.0154	0.2091	923.6318	0.136516	-421.796781	-421.789587	-421.788643	-421.828204	28.495	
C	-0.0521103509	 1.5746283549	 0.0455713995	-0.516619
C	-0.0298944269	 0.0737045845	 0.0457176376	 0.158032
C	 0.9101902766	-0.7606414032	-0.9147660776	 0.055748
C	 1.9717471568	-0.8521416298	 0.2009085363	-0.254429
C	 0.7273031833	-0.8922143157	 1.1015568459	-0.107867
C	-0.2408880139	-1.9748075561	 0.4657385096	-0.071868
O	 0.3008521543	-2.0678643399	-0.8629168726	-0.270911
C	-1.2396337444	-0.8159599881	 0.2901598795	 0.424682
O	-2.3965158699	-0.6182046544	 0.5229736467	-0.32642
H	 0.9542373922	 1.9982338115	 0.1301142405	 0.123838
H	-0.4935951568	 1.9530102511	-0.8827300629	 0.136973
H	-0.6549953764	 1.953114355	 0.8766971527	 0.138785
H	 1.1183764953	-0.4704921428	-1.9431808288	 0.090996
H	 2.647584336	-1.7097266393	 0.1755076313	 0.110709
H	 2.5273577049	 0.0783561032	 0.3355014227	 0.112285
H	 0.7082510314	-0.7401419969	 2.1781902501	 0.096542
H	-0.4664574017	-2.9479932739	 0.8929479493	 0.099524
133.5411	174.2632	217.4762	263.5675	347.3208	486.9386	512.8681	580.1455	619.8316	645.5846	779.0699	796.2204	829.7169	847.7042	867.3346	920.1468	928.695	968.0944	991.8016	1025.6411	1045.9998	1080.6346	1107.7921	1145.0543	1159.0983	1182.9794	1195.5694	1226.5478	1241.7929	1270.8987	1310.9888	1354.5476	1415.7734	1484.78	1485.2353	1494.3997	1888.6018	3032.8112	3069.6635	3096.4726	3106.575	3131.6826	3140.0526	3150.8786	3168.7809
CC12C3CC1C(O3)C2=O	C[C@@]12[C@H]3C[C@@H]1[C@H](O3)C2=O	
InChI=1S/C7H8O2/c1-7-3-2-4(7)9-5(3)6(7)8/h3-5H,2H2,1H3	InChI=1S/C7H8O2/c1-7-3-2-4(7)9-5(3)6(7)8/h3-5H,2H2,1H3/t3-,4-,5+,7+/m1/s1
