20
gdb 87840	2.7781	1.41276	1.20549	2.3564	79.77	-0.226	0.0902	0.3161	1135.1231	0.169058	-403.081571	-403.072726	-403.071782	-403.114669	33.939	
C	-0.2326054486	 1.3671964026	-0.046641496	-0.315321
N	 0.1019372033	-0.0473832269	 0.0285287869	-0.126794
C	 1.5111562806	-0.4136557014	-0.1278832035	-0.324202
C	 0.8289836986	-0.5128270104	 1.1874124919	 0.326219
C	 1.2424251047	 0.2272943442	 2.4931350407	-0.35391
C	 0.8737992649	-1.0677781769	 3.2361672549	-0.045673
O	-0.5089126356	-1.3193192361	 2.9616455226	-0.290896
C	 0.4688902704	-1.7547401328	 1.9931043683	 0.351214
C	 0.4544698455	-3.1826106636	 1.5607581017	-0.517556
H	 0.5441289435	 2.0301874151	 0.369191568	 0.099457
H	-0.3909054813	 1.6422733742	-1.0940985163	 0.122692
H	-1.1641827806	 1.5454034999	 0.499041696	 0.131407
H	 1.7074432794	-1.2960334834	-0.7327188	 0.113164
H	 2.242350831	 0.38707574	-0.2421215249	 0.103962
H	 2.3055328987	 0.4782744135	 2.5284878333	 0.108586
H	 0.6459265667	 1.0962008625	 2.781606308	 0.114772
H	 1.2851983107	-1.4638719672	 4.1574387914	 0.102825
H	-0.3458320923	-3.3528140551	 0.832423941	 0.1417
H	 1.4039222766	-3.4574760459	 1.090478763	 0.124467
H	 0.2830619238	-3.8379964624	 2.418441083	 0.133887
112.9733	137.786	179.8984	206.5631	225.6759	255.2191	319.4887	418.2203	430.7263	485.9868	499.2048	597.7223	667.5204	766.0786	797.4453	858.1749	872.5382	887.2549	940.2528	960.6287	1029.2255	1044.0435	1056.2426	1090.6	1098.0496	1114.3146	1153.1056	1165.5078	1183.0457	1210.5439	1217.4787	1259.8893	1266.6142	1396.4881	1414.3045	1450.0252	1455.9096	1475.8778	1486.797	1494.0862	1494.5203	1496.6179	1515.3158	2967.442	3037.7291	3062.7251	3069.6856	3079.319	3101.1542	3107.1599	3118.9734	3123.7582	3165.4114	3186.4179
CN1CC11CC2OC12C	CN1C[C@]21C[C@H]1O[C@@]21C	
InChI=1S/C7H11NO/c1-6-5(9-6)3-7(6)4-8(7)2/h5H,3-4H2,1-2H3	InChI=1S/C7H11NO/c1-6-5(9-6)3-7(6)4-8(7)2/h5H,3-4H2,1-2H3/t5-,6-,7-,8?/m1/s1
