19
gdb 13512	3.21839	1.58614	1.41397	3.4196	71.43	-0.2411	0.0289	0.2701	983.3138	0.165339	-365.094499	-365.085535	-365.084591	-365.128666	32.272	
C	-0.7356734663	 1.300750433	 0.2077621006	-0.397551
C	-0.2498862284	-0.1421454415	 0.1190765327	 0.01334
C	 0.7969497148	-0.4067563113	-1.0033858291	-0.224071
C	 1.9192625303	-0.4382701804	 0.0660308209	-0.228233
C	 0.8481443369	-0.5661383075	 1.1757263621	-0.095299
C	 1.0192742935	 0.3275570523	 2.3902515343	 0.40483
N	 0.3462368125	-0.0804659959	 3.507527813	-0.527743
O	 1.6804827125	 1.3505856104	 2.3738183181	-0.36879
H	 0.1005916895	 2.00278231	 0.2684169608	 0.142433
H	-1.334224911	 1.5514783143	-0.6747331395	 0.1079
H	-1.3609614032	 1.4580487363	 1.0935066969	 0.110564
H	-1.1117100612	-0.8163903849	 0.102970861	 0.064857
H	 0.6496911279	-1.3741083519	-1.4915251141	 0.095372
H	 0.8746196078	 0.3605303957	-1.7785663129	 0.097711
H	 2.6545345059	-1.2431204259	-0.0001402657	 0.094765
H	 2.4431927348	 0.5144910754	 0.1638012691	 0.131918
H	 0.6934696983	-1.6044020327	 1.4857518211	 0.064161
H	-0.236090245	-0.8988011056	 3.5145855018	 0.255861
H	 0.3565804805	 0.5163533102	 4.318415459	 0.257973
48.5371	77.784	104.1311	163.468	246.9976	262.6642	341.1517	372.0696	418.3695	570.5582	617.8695	653.8542	741.5471	770.3879	803.475	885.0821	912.8548	931.7279	966.9006	998.085	1056.4536	1067.3825	1095.7675	1141.5902	1159.851	1225.5121	1239.0574	1260.8135	1271.9498	1276.4785	1296.5354	1358.3252	1406.661	1416.3049	1482.0015	1492.4544	1498.0784	1502.7754	1614.9456	1784.0404	3030.9936	3041.0244	3051.4569	3059.2257	3072.603	3092.8342	3099.6947	3118.1693	3132.6093	3601.7411	3740.5041
CC1CCC1C(N)=O	C[C@H]1CC[C@H]1C(=O)N	
InChI=1S/C6H11NO/c1-4-2-3-5(4)6(7)8/h4-5H,2-3H2,1H3,(H2,7,8)	InChI=1S/C6H11NO/c1-4-2-3-5(4)6(7)8/h4-5H,2-3H2,1H3,(H2,7,8)/t4-,5+/m0/s1
