16
gdb 29334	2.03442	1.84412	0.97318	2.4342	82.36	-0.1922	0.0135	0.2057	1160.6635	0.123199	-400.762203	-400.753118	-400.752174	-400.795803	33.846	
C	-0.0373043048	 1.5113363355	 0.1083630826	-0.518869
C	 0.0102684031	 0.0242120847	 0.0159755103	 0.218284
C	 0.0312908763	-0.8007885636	-1.105328702	 0.007938
C	 0.0127537201	-0.4379187036	-2.4670933277	 0.185033
C	-0.0007045037	-0.2037338312	-3.6516578617	-0.465117
C	 0.0774779096	-2.1563799476	-0.6318548752	 0.215612
O	 0.1095181992	-3.2687047531	-1.4075271344	-0.446683
C	 0.0833178366	-2.1265607478	 0.7368888511	-0.177507
N	 0.0419800284	-0.7891565213	 1.1065493614	-0.302079
H	 0.8370007339	 1.9199444192	 0.6299005762	 0.131119
H	-0.0558567751	 1.937335496	-0.8968703267	 0.152362
H	-0.9311353502	 1.8628541747	 0.6383385483	 0.131133
H	-0.013262982	 0.0257635731	-4.6878950419	 0.184773
H	 0.0957516546	-2.9787880171	-2.3281551889	 0.297127
H	 0.1124817439	-2.9195650192	 1.4633936569	 0.125172
H	 0.0364642901	-0.4637599887	 2.0571466218	 0.261701
84.1836	117.645	136.3959	206.1956	267.2693	324.3082	350.1995	396.5751	432.5116	464.7598	513.4401	538.815	569.5262	617.362	665.6453	676.1114	681.1644	725.6522	770.5828	978.4229	1055.5959	1057.5476	1104.2891	1181.8871	1245.4442	1317.7964	1344.1461	1414.7436	1447.835	1474.2946	1482.9589	1517.2776	1572.6978	1663.0478	2213.003	3019.4592	3065.5371	3130.3384	3286.1166	3501.3545	3684.4489	3781.3164
CC1=C(C#C)C(O)=CN1	Cc1c(C#C)c(O)c[nH]1	
InChI=1S/C7H7NO/c1-3-6-5(2)8-4-7(6)9/h1,4,8-9H,2H3	InChI=1S/C7H7NO/c1-3-6-5(2)8-4-7(6)9/h1,4,8-9H,2H3
