18
gdb 74686	3.40122	1.26923	1.10887	3.0259	78.89	-0.2499	0.0006	0.2505	1148.93	0.148932	-401.971404	-401.963638	-401.962693	-402.003797	30.038	
C	 0.2744935171	 1.4000085966	 0.1416505006	-0.487705
C	 0.0242302884	-0.0716144156	 0.0560249447	 0.328157
C	 0.081901542	-0.834871402	-1.0420218014	-0.191939
C	-0.1977236262	-2.2715435054	-0.7457258477	 0.076219
O	 1.0295205358	-3.0977935951	-0.5980860645	-0.273553
C	 0.8901775734	-3.1089929713	 0.7720854406	 0.426122
N	 1.6195135386	-3.6071406456	 1.6635131901	-0.54723
C	-0.4091740475	-2.3248092984	 0.7874101498	-0.172654
C	-0.3451490516	-0.8716779386	 1.2933961767	-0.320715
H	 1.1128448462	 1.6136766721	 0.8163393942	 0.136865
H	 0.5038677125	 1.8308415397	-0.8360848104	 0.129238
H	-0.5969116361	 1.9239751884	 0.5539584639	 0.130708
H	 0.3238492432	-0.4764823195	-2.036079144	 0.097785
H	-0.8919060969	-2.782520293	-1.4154533986	 0.091922
H	 2.4399824415	-4.0610074131	 1.2576463968	 0.225115
H	-1.2603890208	-2.8942602341	 1.1596747472	 0.105878
H	 0.3893635898	-0.7474160186	 2.0974082687	 0.133741
H	-1.3089830794	-0.5401267766	 1.7001128932	 0.112045
84.6294	153.3168	190.3643	228.7701	315.1654	395.4839	430.9265	484.1612	585.0165	650.8398	683.9547	785.8066	847.8635	857.9751	862.5546	876.416	881.0214	918.2843	983.2801	997.5853	1023.2039	1047.2508	1060.9119	1070.6162	1149.5453	1186.6452	1219.1483	1234.5114	1285.5367	1288.0293	1324.5307	1336.4938	1360.2568	1413.9166	1478.6698	1481.5141	1486.1578	1705.7993	1816.7812	3021.5698	3027.7016	3065.2088	3070.6526	3096.1402	3118.0574	3120.8455	3198.7989	3471.6165
CC1=CC2OC(=N)C2C1	CC1=C[C@H]2O[C]([NH])[C@H]2C1	
InChI=1S/C7H9NO/c1-4-2-5-6(3-4)9-7(5)8/h3,5-6,8H,2H2,1H3	InChI=1S/C7H9NO/c1-4-2-5-6(3-4)9-7(5)8/h3,5-6,8H,2H2,1H3/t5-,6+/m0/s1
