20
gdb 60983	3.21009	0.98294	0.91578	3.9387	77.16	-0.2353	0.0272	0.2625	1351.5376	0.168541	-440.291725	-440.281648	-440.280703	-440.326589	36.858	
C	-0.6364236238	 1.1741886213	 0.090228712	-0.347871
N	-0.0541181674	-0.1590785778	 0.1703853201	-0.050717
C	 0.6586687552	-0.5107602936	 1.285434812	 0.153202
O	 0.7565774951	 0.1548837452	 2.2950195471	-0.343255
C	 0.0086026834	-0.924851685	-1.0369598429	-0.025875
C	-0.0796871947	-2.4390239419	-1.015678491	-0.377408
C	-1.2056671059	-1.6188125931	-1.602284748	 0.388451
C	-2.5427592457	-1.5762098567	-0.9000883332	-0.453472
O	-1.2708797314	-1.5255787581	-3.0012589356	-0.464537
H	-0.117902048	 1.7793989143	-0.663851617	 0.126404
H	-1.6947049727	 1.1192281473	-0.1798972671	 0.128863
H	-0.5276194822	 1.644112693	 1.0675025621	 0.166684
H	 1.1380453986	-1.4988843629	 1.1689396275	 0.080526
H	 0.6594267613	-0.5105762415	-1.8067941215	 0.109441
H	 0.5727601306	-2.9725500536	-1.6970570318	 0.123408
H	-0.2598733395	-2.9332892839	-0.0680359809	 0.125944
H	-2.4206476679	-1.4959869931	 0.1830420369	 0.132352
H	-3.1294627952	-0.7225710608	-1.2526735715	 0.130501
H	-3.1168979518	-2.4873745737	-1.1063570625	 0.113562
H	-1.661627238	-2.3408346452	-3.3354916548	 0.283796
65.6669	119.7261	139.574	152.7836	239.4521	245.226	286.8518	305.4167	337.5475	351.3653	376.9111	427.9096	440.1109	525.3803	684.0354	727.4288	834.8029	889.6805	914.0765	966.9224	979.5662	1034.131	1037.9565	1058.352	1092.2382	1113.4569	1133.0601	1162.8951	1242.2347	1273.5734	1304.6366	1353.052	1390.6788	1408.966	1418.2318	1438.8609	1441.9951	1478.3023	1488.9458	1497.604	1511.061	1516.1876	1792.5185	2977.3539	3026.6133	3031.5785	3090.8284	3095.8653	3104.6465	3125.9958	3141.5511	3160.7581	3233.1738	3793.2636
CN(C=O)C1CC1(C)O	CN(C=O)[C@H]1C[C@]1(C)O	
InChI=1S/C6H11NO2/c1-6(9)3-5(6)7(2)4-8/h4-5,9H,3H2,1-2H3	InChI=1S/C6H11NO2/c1-6(9)3-5(6)7(2)4-8/h4-5,9H,3H2,1-2H3/t5-,6-/m0/s1
