18
gdb 112243	1.97708	1.50333	0.93609	1.8485	74.38	-0.2616	-0.0379	0.2238	1262.1984	0.145769	-439.097397	-439.08816	-439.087216	-439.132184	32.781	
C	 0.1343238103	 1.4508248382	 0.0387567219	-0.391882
C	 0.0284048281	-0.0771672822	 0.0030537857	-0.18345
C	 0.4813257562	-0.6416226547	-1.327633344	 0.124128
O	 1.9269462944	-0.4130320045	-1.5541500431	-0.265333
C	 2.1802829274	-1.7569857742	-1.6647074037	 0.429921
N	 3.2461357891	-2.3963054966	-1.8248518555	-0.543707
C	 0.7268714366	-2.1627282819	-1.5026264221	-0.270154
C	 0.4134856081	-3.1656178447	-0.414001761	 0.139009
O	-0.4645356423	-3.0461202681	 0.4002339514	-0.23872
H	 1.1642365017	 1.7740325654	-0.1379646193	 0.135769
H	-0.4989675818	 1.9113844691	-0.7276429253	 0.115982
H	-0.1820673909	 1.8391051175	 1.0106954284	 0.12091
H	 0.628586566	-0.5185592948	 0.8052865461	 0.112106
H	-1.0020821661	-0.4035351325	 0.176710623	 0.126524
H	-0.0768635211	-0.1941099525	-2.1560716153	 0.097767
H	 4.0546150322	-1.7749957502	-1.8817552089	 0.233306
H	 0.3224704748	-2.5692379747	-2.4376749458	 0.141175
H	 1.0698051673	-4.0613944385	-0.4423096325	 0.116648
66.7667	90.9165	114.3274	148.2046	182.3746	225.64	270.844	376.927	401.6795	467.8317	611.4038	650.9808	727.8333	770.4405	842.4379	859.6626	866.5708	916.1166	982.068	1008.7863	1025.0887	1054.7053	1096.6876	1099.2985	1173.2608	1181.7576	1228.3428	1282.0454	1301.4548	1321.1676	1358.2421	1407.3312	1411.6783	1421.2177	1468.199	1499.1231	1508.4068	1811.8717	1833.7209	2913.4778	3037.5244	3046.8638	3054.0124	3063.9357	3090.5757	3110.3609	3121.5245	3481.2911
CCC1OC(=N)C1C=O	CC[C@H]1O[C]([NH])[C@H]1C=O	
InChI=1S/C6H9NO2/c1-2-5-4(3-8)6(7)9-5/h3-5,7H,2H2,1H3	InChI=1S/C6H9NO2/c1-2-5-4(3-8)6(7)9-5/h3-5,7H,2H2,1H3/t4-,5+/m0/s1
