17
gdb 23145	2.14119	1.13254	0.78567	2.0305	85.44	-0.2281	-0.0295	0.1986	1452.1398	0.134211	-417.913432	-417.903594	-417.90265	-417.950206	34.122	
C	 0.0832327532	 1.3190418372	 0.1408099833	-0.506958
C	 0.030215824	-0.1311885121	 0.0456906076	 0.171059
C	-0.0456915532	-1.3336472891	-0.0297544998	-0.047551
C	-0.0644581363	-2.75779723	-0.1263554261	 0.216905
N	-1.2197004505	-3.3236650224	-0.0233264715	-0.194895
O	-1.1342910169	-4.7117642548	-0.1400536059	-0.388776
C	 1.2286271217	-3.4751234414	-0.3108651927	-0.086042
C	 2.2426340482	-2.925398374	-1.2591935219	-0.242728
N	 2.481450223	-2.8711941354	 0.1826951271	-0.31802
H	 0.8114444405	 1.7371784826	-0.5624620368	 0.155311
H	-0.8930121332	 1.7604383827	-0.0860453525	 0.161053
H	 0.3693613742	 1.6409826472	 1.1482766446	 0.15756
H	-2.0495452325	-4.9811321173	-0.0092196181	 0.312658
H	 1.1652007437	-4.5468074845	-0.1773682648	 0.125866
H	 2.8723106214	-3.6173870004	-1.8109924086	 0.125938
H	 1.9934757008	-2.0058135711	-1.781350855	 0.123434
H	 2.283184162	-1.9299228471	 0.5192004913	 0.235186
17.7139	69.3152	83.1027	116.1007	217.6974	268.6135	289.7871	292.7185	381.0607	418.9712	472.6949	486.7815	592.5981	684.0569	684.4443	826.2392	896.7593	942.5349	973.7692	998.157	1048.2696	1051.9386	1057.7736	1114.3177	1150.811	1184.1895	1266.7481	1304.6172	1309.1089	1374.0305	1412.5692	1426.0596	1473.5169	1474.9096	1502.5682	1662.0556	2348.9242	3029.3154	3090.1832	3096.1888	3111.776	3198.6133	3209.4503	3480.3416	3820.3286
CC#CC(=NO)C1CN1	CC#CC(=NO)[C@H]1CN1	
InChI=1S/C6H8N2O/c1-2-3-5(8-9)6-4-7-6/h6-7,9H,4H2,1H3	InChI=1S/C6H8N2O/c1-2-3-5(8-9)6-4-7-6/h6-7,9H,4H2,1H3/t6-/m1/s1
