16
gdb 56402	3.47811	0.71111	0.63629	2.6429	79.54	-0.2703	-0.002	0.2683	1725.1982	0.122481	-400.704244	-400.69479	-400.693846	-400.740684	32.418	
C	 0.3710301776	 0.8627056699	-0.7712565106	-0.380727
C	 0.1191274291	-0.2751605312	 0.2501817234	-0.308676
C	 0.197708378	 0.2409151754	 1.6286071537	 0.290599
N	 0.2768187506	 0.6586454021	 2.702491024	-0.318258
C	-1.1594090426	-0.9482404188	 0.0157519022	 0.138266
C	-2.2150936044	-1.4827088499	-0.2030540031	 0.089142
C	-3.4628868804	-2.1487945798	-0.4644286583	-0.11829
C	-4.7345561673	-1.6528261381	 0.0995873909	-0.1577
O	-4.4247849765	-1.4536601099	-1.2731689351	-0.211631
H	 1.343163154	 1.3250707269	-0.5855717298	 0.141348
H	 0.3547570599	 0.4499881009	-1.7819090655	 0.142497
H	-0.4060609621	 1.6249848685	-0.6903202388	 0.152972
H	 0.9264349551	-1.0131087981	 0.1460265332	 0.160092
H	-3.3868126483	-3.2126423679	-0.6856724644	 0.122791
H	-5.5312043139	-2.365628248	 0.307557065	 0.125364
H	-4.7209664288	-0.759388822	 0.7202688533	 0.132212
18.2916	70.5016	86.3954	172.9915	215.9509	227.1404	236.7507	347.5721	412.7605	479.9873	538.061	580.4695	597.8994	726.4577	819.8849	844.6214	903.3317	973.0853	1016.3752	1072.362	1079.7038	1106.6294	1155.7044	1161.5006	1191.5982	1279.9302	1295.94	1328.7199	1406.5122	1408.822	1489.0902	1497.0253	1519.5618	2362.937	2373.7792	3019.5621	3059.3829	3089.954	3118.9761	3142.8157	3148.8656	3185.1935
CC(C#N)C#CC1CO1	C[C@@H](C#N)C#C[C@H]1CO1	
InChI=1S/C7H7NO/c1-6(4-8)2-3-7-5-9-7/h6-7H,5H2,1H3	InChI=1S/C7H7NO/c1-6(4-8)2-3-7-5-9-7/h6-7H,5H2,1H3/t6-,7+/m1/s1
