19
gdb 103550	2.68119	1.22041	1.03134	2.0987	73.43	-0.247	0.0148	0.2617	1215.4678	0.157784	-456.329922	-456.320115	-456.31917	-456.364429	36.292	
C	-0.2157621717	 1.5714717423	 0.1572281483	-0.436255
C	-0.0913186357	 0.0565136091	 0.1013411737	 0.27065
C	-1.4079543888	-0.6334928422	-0.2520557206	-0.10816
O	-1.8080952802	-0.3523816032	-1.5833734063	-0.421925
N	 1.0190208559	-0.4285512646	-0.7896844783	-0.386391
C	 1.8499107697	-0.7259320377	 0.2888996434	 0.345212
N	 3.0819903618	-0.9141260779	 0.5011279738	-0.555243
C	 0.7136654922	-0.5812062944	 1.2941899339	 0.001515
O	 0.9957649322	 0.2327538421	 2.3983273513	-0.428495
H	 0.7519310515	 2.0430257785	 0.3441535478	 0.118579
H	-0.6268626143	 1.9448210102	-0.7854313151	 0.127515
H	-0.8896074961	 1.8669374794	 0.9665379949	 0.135017
H	-1.3083022469	-1.7168759617	-0.0897171408	 0.090108
H	-2.2092951247	-0.2671324102	 0.3985020108	 0.116777
H	-1.1736703104	-0.7936063127	-2.1590209835	 0.28506
H	 1.3431731987	 0.0808123991	-1.6035139825	 0.236663
H	 3.6442853397	-0.8378240627	-0.3480856509	 0.215261
H	 0.2819132112	-1.5389570356	 1.6144535224	 0.092566
H	 1.9567584659	 0.2405575922	 2.4927800479	 0.301546
69.6222	94.6957	179.9413	205.8403	219.1587	239.4199	270.528	311.5512	356.0418	391.4029	403.6582	454.4706	516.7721	628.3533	687.8066	718.2844	813.0797	850.9607	879.15	919.148	950.7842	968.9677	1054.3298	1063.9032	1113.8463	1144.0988	1164.0117	1203.2942	1238.5094	1249.1096	1329.3796	1342.2823	1373.1421	1386.6654	1395.4113	1410.223	1419.239	1481.2823	1494.7829	1498.1614	1795.6956	2993.9729	3014.9796	3045.7524	3078.4728	3118.8653	3126.734	3462.3876	3551.534	3776.2375	3803.2046
CC1(CO)NC(=N)C1O	C[C@@]1(CO)N[C]([NH])[C@H]1O	
InChI=1S/C5H10N2O2/c1-5(2-8)3(9)4(6)7-5/h3,8-9H,2H2,1H3,(H2,6,7)	InChI=1S/C5H10N2O2/c1-5(2-8)3(9)4(6)7-5/h3,8-9H,2H2,1H3,(H2,6,7)/t3-,5+/m1/s1
