19
gdb 30273	2.86412	1.61928	1.08978	3.425	81.78	-0.2041	0.0345	0.2387	1116.2938	0.163037	-382.12252	-382.114824	-382.11388	-382.154656	30.074	
C	-0.0261944427	 1.5941283897	-0.0109409236	-0.390733
C	 0.0173130001	 0.0652477413	 0.0639215544	-0.105251
C	 0.7268112542	-0.6036298974	-1.1674794568	-0.204324
C	 1.5533671499	-1.8399758083	-0.6626069385	-0.35782
C	 1.651355261	-1.5074865254	 0.7882865897	 0.290315
C	 0.8313761578	-0.4995044425	 1.1933441698	 0.284616
N	 0.9171958734	-0.2876739424	 2.5476496444	-0.34963
C	 1.7984136353	-1.1775839844	 2.95526623	-0.016831
N	 2.2752906421	-1.9577431677	 1.9263594209	-0.37559
H	 0.9850849516	 2.008007141	-0.0892069289	 0.111118
H	-0.6016597854	 1.9320503961	-0.8796585811	 0.104092
H	-0.4890852718	 2.0116802085	 0.8880477498	 0.129011
H	-1.0178000596	-0.300627436	 0.1325186777	 0.078419
H	 0.0185708935	-0.8813136517	-1.9525189466	 0.097554
H	 1.419806949	 0.1242685235	-1.6026359789	 0.106054
H	 1.0172148337	-2.7831648379	-0.8364893661	 0.109034
H	 2.5144145813	-1.9236704582	-1.182908272	 0.104719
H	 2.142693088	-1.3080782361	 3.9708228645	 0.123195
H	 2.9629752688	-2.6873845321	 2.0073190013	 0.262053
98.9359	163.4692	219.2079	229.3246	281.6446	427.216	474.1723	499.389	562.6702	646.2955	662.8125	724.0814	739.9565	787.712	824.0937	896.1933	938.2626	961.273	980.4922	1032.2288	1080.9952	1099.6808	1104.9212	1130.3266	1186.1708	1214.5833	1248.6667	1280.9737	1304.8722	1318.1295	1351.396	1375.1165	1386.775	1406.7519	1458.4589	1483.8602	1493.651	1498.9077	1504.2541	1521.6599	1626.3054	2987.3597	3006.6298	3028.9366	3041.9771	3054.9718	3095.7933	3100.138	3110.1169	3245.7173	3667.2512
CC1CCC2=C1N=CN2	C[C@H]1CCc2c1nc[nH]2	
InChI=1S/C7H10N2/c1-5-2-3-6-7(5)9-4-8-6/h4-5H,2-3H2,1H3,(H,8,9)	InChI=1S/C7H10N2/c1-5-2-3-6-7(5)9-4-8-6/h4-5H,2-3H2,1H3,(H,8,9)/t5-/m0/s1
