18
gdb 71142	3.03657	1.67011	1.36287	4.3009	74.8	-0.246	-0.0079	0.2381	982.3286	0.148507	-401.944839	-401.937575	-401.936631	-401.976203	29.436	
C	-0.0284077733	 1.5150611482	-0.0028327435	-0.489962
C	 0.0428829753	 0.0030300058	-0.0098378516	 0.295374
C	-1.2784775808	-0.7928289209	 0.3017574027	-0.294907
C	-0.4811263227	-1.6550942715	 1.2874296707	-0.044536
C	 0.6873413918	-0.744451053	 1.2061325358	-0.093884
N	 0.8201172346	-2.1183159101	 0.7179628786	-0.14364
C	 0.8884001235	-2.1023919873	-0.7244305126	 0.386874
O	 1.0292843003	-3.0863551654	-1.3909750127	-0.304617
C	 0.7398054283	-0.6537301725	-1.2041944889	-0.365414
H	 0.9709054637	 1.9561058129	-0.0930798784	 0.120714
H	-0.6320709772	 1.8857137968	-0.8382888975	 0.125447
H	-0.4773391093	 1.8875451861	 0.92405641	 0.120065
H	-1.9973424898	-0.1710766757	 0.8417046533	 0.112387
H	-1.7852545963	-1.2873412624	-0.5336548617	 0.110494
H	-0.8712082108	-2.2363277534	 2.1141408939	 0.109909
H	 1.3753212913	-0.3717026258	 1.9557004563	 0.100407
H	 0.1807294854	-0.6207336026	-2.1425717809	 0.129132
H	 1.7320051862	-0.2179133593	-1.3809188734	 0.126157
119.7496	232.0795	246.4943	290.9571	355.4344	398.2514	494.08	542.6876	625.8018	651.8575	660.5049	757.2432	799.4855	842.3928	857.1858	904.376	934.5161	962.8439	966.6148	980.5719	1021.193	1052.021	1070.4296	1104.1434	1138.8646	1185.4621	1213.3525	1218.0612	1247.4516	1259.3661	1262.553	1321.3261	1356.7264	1417.7669	1457.571	1491.5807	1495.4944	1497.2111	1872.3479	3025.9408	3031.3982	3045.8967	3092.3918	3096.8871	3105.6094	3108.1432	3180.8516	3193.8938
CC12CC3C1N3C(=O)C2	C[C@]12C[C@@H]3[C@H]1N3C(=O)C2	
InChI=1S/C7H9NO/c1-7-2-4-6(7)8(4)5(9)3-7/h4,6H,2-3H2,1H3	InChI=1S/C7H9NO/c1-7-2-4-6(7)8(4)5(9)3-7/h4,6H,2-3H2,1H3/t4-,6-,7-,8?/m1/s1
