14
gdb 132601	3.2252	1.34439	0.94943	2.2747	68.82	-0.2203	-0.0089	0.2114	1120.7113	0.102282	-478.04055	-478.033153	-478.032209	-478.072131	29.132	
N	 0.0255048061	 1.4075014176	 0.2009844042	-0.595274
C	-0.0291659583	 0.039748447	 0.0658836682	 0.258942
C	-1.2175774248	-0.6866562726	 0.0156930236	-0.319029
C	-1.1415645689	-2.077963585	-0.0684629714	 0.450813
O	-2.298615142	-2.776796488	-0.1150827159	-0.425499
N	-0.0122619985	-2.775393038	-0.1084002176	-0.386878
C	 1.132920444	-2.0765296055	-0.0649347873	-0.104509
C	 1.1629136517	-0.7062602509	 0.0202174334	 0.177423
F	 2.3311910938	-0.0341440545	 0.0512875415	-0.098144
H	 0.9056753267	 1.8363268283	-0.0377606571	 0.263899
H	-0.7865714009	 1.9287696184	-0.0876920072	 0.259379
H	-2.1825761593	-0.1952120466	 0.0458492693	 0.101847
H	-2.0382767436	-3.7066908194	-0.1701942739	 0.296363
H	 2.0651061637	-2.6331167407	-0.1025435197	 0.120668
153.0024	216.4905	287.3476	350.2073	368.5043	413.6138	450.0741	457.0997	492.4343	528.3975	533.4485	595.5023	694.5186	756.7498	772.1263	794.7617	855.7965	940.9983	988.2441	1091.611	1177.2531	1239.8153	1260.1683	1308.9597	1340.3614	1398.5824	1502.045	1547.6149	1630.2926	1639.3153	1677.0078	3171.0354	3200.1954	3591.6084	3702.5464	3768.7035
NC1=CC(O)=NC=C1F	Nc1cc(O)ncc1F	
InChI=1S/C5H5FN2O/c6-3-2-8-5(9)1-4(3)7/h1-2H,(H3,7,8,9)	InChI=1S/C5H5FN2O/c6-3-2-8-5(9)1-4(3)7/h1-2H,(H3,7,8,9)
