21
gdb 87982	2.20742	1.51145	1.29004	1.5529	78.59	-0.2241	0.0632	0.2873	1126.3839	0.179818	-424.189899	-424.180228	-424.179283	-424.224194	36.818	
C	 0.0684230282	 1.5724340168	-0.1201173719	-0.453881
C	-0.0258744108	 0.0571757655	 0.0181523376	 0.179153
C	-1.4586899175	-0.442905363	-0.1762709411	-0.435413
C	 1.0207561746	-0.759602084	-0.7898226897	-0.108762
O	 1.5327604006	-1.3864668726	 0.4092056116	-0.31671
C	 0.7059518981	-0.5609924822	 1.2229244043	 0.434862
C	 1.2455321406	 0.0943482976	 2.464869471	-0.408249
C	 0.2108250421	-1.0196845225	 2.5484609392	 0.005837
O	-1.1117999627	-0.7096807238	 2.885196169	-0.421285
H	 1.0954290844	 1.925503822	 0.0136992082	 0.118058
H	-0.2742984486	 1.891552585	-1.1109656607	 0.113818
H	-0.5622402915	 2.0726293555	 0.6229324132	 0.119736
H	-1.8204699978	-0.1764253029	-1.1761954276	 0.102976
H	-1.513435086	-1.5305207551	-0.0720880141	 0.12176
H	-2.1303271816	-0.0053142267	 0.5656193658	 0.132756
H	 0.6172181584	-1.4970850896	-1.49261547	 0.100849
H	 1.7908749109	-0.1599363624	-1.2914706591	 0.095527
H	 2.2651435763	-0.1356257863	 2.7566033443	 0.120347
H	 0.9090138318	 1.1024488222	 2.6882015137	 0.114567
H	 0.5662873142	-1.9951041826	 2.882820871	 0.095664
H	-1.1319828135	-0.4825973608	 3.8212002251	 0.288389
40.8401	148.8037	193.6531	225.5926	231.14	256.9781	294.1637	325.633	356.4258	365.8569	423.4611	450.054	540.3807	617.1648	652.9955	822.6625	869.3311	872.5976	926.1215	959.9211	966.9993	975.6864	993.8893	1011.7336	1023.6202	1046.174	1086.863	1154.521	1160.3912	1176.2129	1221.2109	1255.736	1264.2728	1290.6248	1328.1987	1371.5603	1402.05	1412.7551	1423.485	1482.4635	1485.3606	1487.9296	1502.6135	1509.2262	1527.358	3012.494	3027.0961	3033.9663	3065.4445	3092.239	3096.9593	3101.6739	3105.1245	3121.5473	3128.7014	3216.5243	3794.7114
CC1(C)COC11CC1O	CC1(C)CO[C@]21C[C@H]2O	
InChI=1S/C7H12O2/c1-6(2)4-9-7(6)3-5(7)8/h5,8H,3-4H2,1-2H3	InChI=1S/C7H12O2/c1-6(2)4-9-7(6)3-5(7)8/h5,8H,3-4H2,1-2H3/t5-,7-/m1/s1
