20
gdb 58911	3.16663	1.37878	1.23655	1.748	77.45	-0.2438	0.0588	0.3025	1093.0272	0.171287	-403.091336	-403.083023	-403.082079	-403.124193	32.595	
C	 0.0572937567	 1.570033617	-0.0008160594	-0.419229
C	-0.0201270411	 0.0451369527	 0.0144315339	-0.000312
O	 0.7132273002	-0.5251454977	 1.0990210972	-0.429486
C	-1.4346353774	-0.4918962523	 0.0213375781	 0.363098
C	-1.7137123947	-1.9857827035	-0.2587508902	-0.284632
C	-2.9966819647	-1.4696336465	-0.8798215375	-0.039823
C	-3.4752745268	-0.3069022296	-0.0723533155	-0.034751
C	-2.5007624572	-0.0733464387	 1.0663044319	-0.305659
N	-2.4280690901	-0.099366807	-1.1313813091	-0.199876
H	 1.0991519525	 1.8906225703	-0.082098422	 0.123181
H	-0.5082783063	 1.9736164546	-0.8455199673	 0.143352
H	-0.3585820759	 1.9980699518	 0.9191756841	 0.10468
H	 0.4732526797	-0.3398260897	-0.8865432357	 0.093782
H	 0.3817936483	-0.1295373443	 1.9129245835	 0.281064
H	-1.0330773701	-2.3776446085	-1.0193564425	 0.109825
H	-1.7598830273	-2.6760902226	 0.5889105318	 0.099361
H	-3.6285824048	-1.9522801551	-1.6170792446	 0.094231
H	-4.472348303	 0.1029770954	-0.1890762606	 0.093944
H	-2.5917011442	-0.6650268557	 1.9835313629	 0.097991
H	-2.4419000437	 0.9898260394	 1.3128475509	 0.109258
58.3631	155.0889	216.9318	248.98	291.3081	325.7446	365.6073	427.4526	459.7635	498.2487	657.666	741.5535	768.6043	805.2341	823.3022	882.9152	910.7269	914.2989	988.5258	1002.9191	1019.6048	1021.8545	1034.2238	1055.4257	1083.6128	1084.465	1107.5388	1122.5115	1162.0401	1196.9659	1245.8555	1249.8783	1289.885	1317.1253	1340.7597	1376.1736	1384.4905	1401.7184	1411.8368	1486.5728	1493.3278	1496.0239	1506.4574	3030.4426	3038.7427	3040.0125	3050.4038	3100.8471	3105.9245	3106.7756	3127.7011	3171.4892	3183.4055	3799.1643
CC(O)C12CC3C(C1)N23	C[C@@H](O)[C@@]12C[C@H]3[C@@H](C1)N23	
InChI=1S/C7H11NO/c1-4(9)7-2-5-6(3-7)8(5)7/h4-6,9H,2-3H2,1H3	InChI=1S/C7H11NO/c1-4(9)7-2-5-6(3-7)8(5)7/h4-6,9H,2-3H2,1H3/t4-,5-,6+,7+,8?/m1/s1
