23
gdb 114126	3.32128	0.98795	0.86532	1.394	86.53	-0.2275	0.0832	0.3107	1479.3533	0.204346	-388.265753	-388.255923	-388.254978	-388.300622	36.904	
C	-0.0978123637	 1.4816341399	-0.2063755432	-0.377713
C	-0.0100710792	 0.0061518119	 0.1977861085	-0.200957
C	-1.346064227	-0.7047024676	 0.0781268783	 0.156939
O	-1.8964943655	-0.7009907855	-1.2768500989	-0.350446
C	-2.1327896669	-2.118716073	-1.2002393957	 0.505619
C	-3.4154384757	-2.6319847774	-1.7762410658	-0.288609
C	-3.4879682678	-2.4315414426	-3.2965925128	-0.374697
C	-0.8240421734	-2.8407677092	-1.1011633199	-0.340953
C	-1.4461217714	-2.2274739677	 0.1433532772	-0.239225
H	 0.876897478	 1.9722111263	-0.1278691171	 0.109798
H	-0.4459199753	 1.5732351342	-1.2390352394	 0.13675
H	-0.7998740996	 2.027970725	 0.4333760529	 0.1116
H	 0.7344187291	-0.5065826595	-0.4209603423	 0.098756
H	 0.3269256698	-0.0842271935	 1.2390649882	 0.09579
H	-2.0790588938	-0.2369091894	 0.7512517584	 0.074586
H	-3.5089457652	-3.6959290162	-1.5283605008	 0.099339
H	-4.2547760488	-2.1155485828	-1.2944819997	 0.104302
H	-4.4463000087	-2.7801068229	-3.6926818902	 0.109086
H	-3.3790791055	-1.3727561016	-3.5483608543	 0.136695
H	-2.6890365489	-2.9815580805	-3.8040833862	 0.117364
H	-0.8836651624	-3.9247082267	-1.1329638451	 0.110227
H	 0.0681358149	-2.4188124836	-1.5542106058	 0.11168
H	-1.701469533	-2.8082715476	 1.0199765137	 0.09407
72.1414	95.9968	122.836	139.2835	212.4234	218.5234	269.1676	335.3774	354.3379	416.5872	487.3642	527.064	663.9427	710.5154	783.445	789.2749	853.105	876.0189	901.7988	942.536	964.2151	975.0797	991.1877	1011.2261	1019.2216	1050.5832	1065.5159	1099.9539	1109.2732	1115.7342	1163.7353	1201.0428	1271.6512	1277.941	1295.292	1299.0674	1343.7608	1356.0937	1399.826	1406.2265	1408.5716	1422.0216	1472.8471	1475.2558	1490.7128	1497.1399	1498.2557	1509.018	1511.5454	2996.7991	3024.5937	3027.0165	3035.8674	3039.9181	3065.4152	3069.6697	3102.7345	3109.4018	3115.989	3118.7757	3119.2683	3193.1207	3205.4048
CCC1OC2(CC)CC12	CC[C@H]1O[C@@]2(CC)C[C@@H]12	
InChI=1S/C8H14O/c1-3-7-6-5-8(6,4-2)9-7/h6-7H,3-5H2,1-2H3	InChI=1S/C8H14O/c1-3-7-6-5-8(6,4-2)9-7/h6-7H,3-5H2,1-2H3/t6-,7+,8-/m0/s1
