23
gdb 53660	4.42023	0.58882	0.5633	0.1329	95.78	-0.2376	0.065	0.3026	2083.6348	0.203371	-351.129857	-351.1188	-351.117856	-351.168286	39.328	
C	-0.0600423539	 1.5058990398	-0.0217110923	-0.496994
C	-0.0331345076	 0.0528764438	 0.073088424	 0.103339
C	 0.0011198548	-1.1481927333	 0.1554443359	 0.031086
C	 0.0056910544	-2.6043215967	 0.2432677539	-0.360552
C	-1.3130089893	-3.2406369348	-0.2526756401	-0.254211
C	-1.3536837352	-4.7542659302	-0.1074581654	 0.398759
C	-0.3660876668	-5.526454666	-0.9637131293	-0.465142
C	-1.693244533	-5.3145424793	 1.2554966968	-0.295582
C	-2.7031832307	-5.3879614897	 0.1336705148	-0.323719
H	 0.9261401862	 1.9078152253	-0.2803041333	 0.144733
H	-0.7643818574	 1.8431934198	-0.7905243439	 0.144402
H	-0.3639033441	 1.9637644778	 0.9264205224	 0.144042
H	 0.849359047	-3.0010253369	-0.3353659612	 0.124796
H	 0.1811915322	-2.9141065642	 1.2820246794	 0.125038
H	-2.1416495675	-2.7968491682	 0.3099883967	 0.101498
H	-1.4682002322	-2.9625326898	-1.3027035824	 0.102669
H	 0.6723644498	-5.2838889742	-0.7120697712	 0.117446
H	-0.489633614	-6.6056074032	-0.8289928975	 0.112098
H	-0.5102808147	-5.3054087588	-2.0281277489	 0.114632
H	-1.2092159477	-6.2335254749	 1.5691619002	 0.107275
H	-1.8837759983	-4.616934372	 2.0649251281	 0.108615
H	-3.5731499891	-4.7416384749	 0.1876636294	 0.10875
H	-2.899740043	-6.3568439393	-0.313744686	 0.107021
13.4133	45.9876	78.838	95.8858	194.4664	214.4367	217.1313	272.253	332.6493	348.857	363.2093	392.458	454.9131	497.1579	709.7511	762.2381	786.8279	789.5671	869.5005	916.9382	952.3423	956.5725	998.5552	1033.5699	1047.6829	1054.1576	1054.7657	1079.079	1082.2591	1120.3077	1168.3673	1186.4584	1189.6646	1282.9305	1300.0794	1324.4862	1362.3445	1386.4682	1415.7469	1419.4024	1468.12	1473.5518	1479.7344	1480.2251	1488.287	1495.648	1499.9269	1510.8652	2372.8947	3015.7384	3022.9027	3024.011	3028.9776	3044.606	3074.9924	3083.0291	3083.1095	3083.183	3097.4243	3124.1439	3129.0783	3201.423	3216.0551
CC#CCCC1(C)CC1	CC#CCCC1(C)CC1	
InChI=1S/C9H14/c1-3-4-5-6-9(2)7-8-9/h5-8H2,1-2H3	InChI=1S/C9H14/c1-3-4-5-6-9(2)7-8-9/h5-8H2,1-2H3
