16
gdb 16402	3.46402	2.2355	1.74641	2.938	63.22	-0.2291	-0.0194	0.2097	779.8369	0.132373	-383.747737	-383.741313	-383.740368	-383.778414	25.059	
O	-0.040865951	 0.165477803	-0.7275752178	-0.316783
C	-0.0101043823	 1.2015328502	-0.1110145667	 0.398669
C	-1.2354953548	 1.8525331479	 0.5368527734	-0.304084
C	-1.081965178	 3.3870144943	 0.7293316439	-0.232785
C	 0.4017287175	 3.7628366728	 0.6945120975	 0.100603
C	 1.0665758375	 3.3716560778	-0.6418513433	-0.254286
C	 1.256430272	 2.0254861442	 0.0945772075	-0.010383
O	 1.1591925725	 2.7110301969	 1.3716665539	-0.29641
H	-2.1247634138	 1.5786679014	-0.0348342958	 0.127218
H	-1.3337629668	 1.3740185305	 1.5181212163	 0.147163
H	-1.6139537605	 3.9381967767	-0.0542992552	 0.109688
H	-1.5207551148	 3.68867304	 1.6848324494	 0.113437
H	 0.6066861522	 4.7518373001	 1.1116637703	 0.084827
H	 0.4633556556	 3.3910760992	-1.5526833792	 0.11298
H	 2.0182877353	 3.8797211296	-0.8034620441	 0.121115
H	 2.1703975895	 1.4428398955	-0.0298612502	 0.099032
86.5435	192.3652	350.4007	390.8188	445.098	490.648	562.9924	628.6995	728.3083	796.1672	829.8464	876.1219	925.7491	939.5142	963.7756	972.5493	1023.1091	1027.7798	1093.1589	1099.171	1155.7873	1207.5314	1224.0783	1246.1722	1253.8588	1283.8478	1304.9593	1330.8097	1347.8965	1368.3107	1450.638	1483.9968	1495.6957	1832.5708	3043.3146	3050.7431	3069.1853	3081.2318	3089.5099	3111.3558	3114.8557	3135.7709
O=C1CCC2CC1O2	O=C1CC[C@@H]2C[C@H]1O2	
InChI=1S/C6H8O2/c7-5-2-1-4-3-6(5)8-4/h4,6H,1-3H2	InChI=1S/C6H8O2/c7-5-2-1-4-3-6(5)8-4/h4,6H,1-3H2/t4-,6-/m1/s1
