18
gdb 84166	2.76456	1.41539	1.10008	4.1442	76.16	-0.2409	0.0122	0.2531	1135.3959	0.149161	-435.291063	-435.282449	-435.281505	-435.324269	32.677	
C	 0.2032285553	 1.4959761281	 0.0131050854	-0.390767
C	 0.0472979864	-0.0372598292	 0.0133086413	-0.05322
N	 0.5753463047	-0.610940952	-1.2223496479	-0.280173
C	 1.7962580872	-0.9691827087	-1.2096842797	 0.336357
N	 2.443277304	-1.3591116587	-2.3650271518	-0.550566
C	 2.6689477461	-0.8983350688	 0.0237019652	-0.159838
O	 1.9247679418	-1.0901318066	 1.2201139503	-0.246975
C	 0.6336512917	-0.6431635106	 1.2749533104	 0.38443
N	-0.0511102918	-0.7438063127	 2.3339342666	-0.51896
H	 1.2572658435	 1.7927336322	 0.0391242806	 0.110462
H	-0.2398142196	 1.905117068	-0.8986191925	 0.128264
H	-0.2990729151	 1.9253810952	 0.8834219511	 0.138198
H	-1.0217485937	-0.2593970248	 0.0527973734	 0.115757
H	 1.8194037803	-1.4895017778	-3.1500193639	 0.259059
H	 3.1437993229	-2.0799728753	-2.2764521427	 0.25186
H	 3.4398758304	-1.6756872942	 0.0189572651	 0.121682
H	 3.184249917	 0.0723743673	 0.0479991665	 0.138765
H	 0.5079076789	-1.1601160413	 3.0817777726	 0.215666
70.8358	148.8511	164.4134	228.4203	248.1708	351.5432	397.7879	415.1905	440.427	474.2949	524.8449	593.0207	659.5204	679.694	743.0863	776.0637	886.1255	901.2076	922.2375	1001.242	1009.9244	1046.9979	1094.3581	1119.3832	1163.3253	1219.201	1260.1043	1302.9452	1334.8979	1341.6124	1365.7962	1397.1632	1446.4199	1488.2269	1492.5353	1500.4562	1630.4954	1745.0743	1754.5897	3010.3689	3039.1409	3073.4262	3078.892	3113.2017	3132.3881	3459.0395	3556.9939	3670.1203
CC1N=C(N)COC1=N	C[C@H]1N=C(N)CO[C]1[NH]	
InChI=1S/C5H9N3O/c1-3-5(7)9-2-4(6)8-3/h3,7H,2H2,1H3,(H2,6,8)	InChI=1S/C5H9N3O/c1-3-5(7)9-2-4(6)8-3/h3,7H,2H2,1H3,(H2,6,8)/t3-/m1/s1
