20
gdb 31008	2.52282	1.18764	0.86132	1.8589	85.93	-0.1863	0.0445	0.2308	1391.3402	0.170048	-403.192516	-403.182291	-403.181347	-403.229386	36.255	
C	 0.0863497133	 1.5208945798	 0.1442032775	-0.503494
C	 0.109506199	 0.0397806583	-0.0396368255	 0.312257
C	 0.2661287424	-0.7345085097	-1.1620018797	-0.311576
C	 0.213429606	-2.1086808407	-0.771254389	 0.236457
C	 0.3139634113	-3.281760775	-1.6872384099	-0.212106
O	-0.9470726101	-3.4979284104	-2.3296537609	-0.419525
C	 0.0194894818	-2.1368631525	 0.596005094	 0.210546
C	-0.1305241213	-3.2703774233	 1.5563323006	-0.507571
N	-0.0385217432	-0.8291674569	 1.0215212112	-0.348032
H	 0.8833683513	 1.8708359489	 0.8131191377	 0.121533
H	 0.225593925	 2.0154044761	-0.8198188878	 0.137037
H	-0.8658470885	 1.8734266964	 0.5612868025	 0.123855
H	 0.4014516956	-0.363351321	-2.1674145922	 0.086442
H	 1.0963061365	-3.0944924241	-2.4396104621	 0.08365
H	 0.6199498996	-4.1779880138	-1.1250222364	 0.077337
H	-0.8239439363	-4.2001702758	-2.9770018246	 0.277181
H	 0.6175295551	-3.2348813188	 2.3588741302	 0.120345
H	-1.119556519	-3.2783874902	 2.03211517	 0.127957
H	-0.0137763656	-4.2248182933	 1.0391466841	 0.139341
H	-0.1640099128	-0.546802064	 1.9787499002	 0.248366
12.6063	86.3042	107.1335	132.5494	193.1486	245.1901	261.246	276.9927	289.5383	414.7887	457.7531	472.0276	595.4812	627.5043	647.584	706.9603	785.8526	805.8506	971.7016	987.4377	1020.4648	1026.6089	1031.5483	1056.4845	1065.3406	1161.3291	1171.6495	1240.5917	1249.576	1267.2375	1329.6997	1410.8599	1419.6883	1432.5519	1449.7275	1479.0088	1480.6073	1481.1652	1497.057	1501.943	1519.2254	1570.0479	1652.8286	2967.262	2991.6283	3011.4761	3013.6778	3053.702	3055.1506	3121.7563	3126.9125	3238.4838	3665.3383	3804.3107
CC1=CC(CO)=C(C)N1	Cc1cc(CO)c(C)[nH]1	
InChI=1S/C7H11NO/c1-5-3-7(4-9)6(2)8-5/h3,8-9H,4H2,1-2H3	InChI=1S/C7H11NO/c1-5-3-7(4-9)6(2)8-5/h3,8-9H,4H2,1-2H3
