20
gdb 114223	4.66794	0.94199	0.85856	1.9039	83.09	-0.23	0.0126	0.2426	1398.2829	0.171287	-403.118894	-403.1102	-403.109256	-403.152691	32.813	
C	 0.0345634083	 1.3079768403	-0.2138120714	-0.237299
O	-0.1306167818	-0.0596997534	 0.0771607508	-0.243898
C	 0.6456345127	-0.5163033213	 1.1757028871	 0.096594
C	 0.1322952113	-1.9097230628	 1.6009879295	-0.35386
C	 1.3914973564	-2.7298102363	 1.8927752164	 0.322916
C	 1.5586754587	-3.52590078	 3.1420505707	-0.28925
N	 1.4125787245	-4.2017066625	 1.8411728861	-0.362493
C	 2.5032751583	-1.9727804864	 1.2585216774	-0.107876
C	 2.1096660693	-0.7638460932	 0.8610594532	-0.116252
H	 1.0553928092	 1.549829891	-0.5457556648	 0.105688
H	-0.6581648376	 1.5519261378	-1.023152676	 0.127538
H	-0.2007943975	 1.9405497612	 0.6571936607	 0.102615
H	 0.5503694348	 0.2155063495	 1.9971409378	 0.068106
H	-0.567614805	-1.8700945289	 2.4389139371	 0.101909
H	-0.3938170602	-2.3287644617	 0.7361691256	 0.125865
H	 2.5384793615	-3.6276786016	 3.6018722771	 0.11571
H	 0.7269696908	-3.5436769475	 3.8426380953	 0.110083
H	 0.4626237472	-4.5518888146	 1.7375387135	 0.230082
H	 3.4999141545	-2.3901326605	 1.171484497	 0.105701
H	 2.7416495646	-0.015233029	 0.3980864366	 0.098122
52.267	97.656	170.6967	223.1363	246.3719	315.7954	324.0808	409.3428	417.9055	537.731	590.8279	693.512	782.1336	815.8129	851.7861	875.223	909.9534	955.7088	966.5725	974.7954	984.2111	1026.0041	1046.0111	1087.2913	1113.1048	1131.6525	1151.396	1182.3084	1196.8905	1230.9764	1263.5944	1279.1899	1293.4058	1327.4107	1340.4182	1376.7449	1423.3797	1477.1487	1481.7358	1491.2641	1509.0215	1509.5536	1676.9942	2940.3505	2972.226	3019.1702	3049.8199	3097.5453	3105.0064	3111.4249	3183.1916	3191.0265	3215.2349	3490.2698
COC1CC2(CN2)C=C1	CO[C@H]1C[C@]2(CN2)C=C1	
InChI=1S/C7H11NO/c1-9-6-2-3-7(4-6)5-8-7/h2-3,6,8H,4-5H2,1H3	InChI=1S/C7H11NO/c1-9-6-2-3-7(4-6)5-8-7/h2-3,6,8H,4-5H2,1H3/t6-,7+/m1/s1
