19
gdb 30796	2.1762	1.36383	0.86579	1.4717	82.84	-0.1673	0.043	0.2103	1343.8917	0.159272	-419.237806	-419.227847	-419.226903	-419.272987	36.02	
C	-0.0563336512	 1.4733640376	 0.1049176851	-0.503542
C	-0.0594239138	-0.0140686598	-0.0255974384	 0.319972
C	 0.0239751702	-0.8160068179	-1.1446492109	-0.295267
C	 0.027309451	-2.1758936525	-0.7123938401	 0.158111
N	 0.0184317865	-3.3003463256	-1.5650554133	-0.611265
C	-0.0616544075	-2.1675708455	 0.6647972608	 0.267409
C	-0.1536365344	-3.2580598808	 1.6666040177	-0.216069
O	 0.6778760642	-2.9207438714	 2.783237867	-0.424969
N	-0.1444250446	-0.8406874671	 1.0607297477	-0.347249
H	 0.8030900405	 1.8372109209	 0.6828611553	 0.124127
H	-0.0058664939	 1.9344070342	-0.8841496051	 0.13375
H	-0.9615702359	 1.8464985532	 0.5998786706	 0.125328
H	 0.0638769994	-0.4694029426	-2.1670458792	 0.078983
H	 0.5791838683	-3.1404337112	-2.3934523305	 0.237611
H	 0.3654547204	-4.1342557417	-1.1057787088	 0.23213
H	-1.1906488704	-3.4059047083	 2.0157483311	 0.094388
H	 0.1602856004	-4.2076013799	 1.2034392296	 0.086774
H	 0.4582131885	-3.520119455	 3.5035905837	 0.284369
H	-0.0419039276	-0.5603648167	 2.0212020876	 0.255411
60.3444	82.3778	128.7206	167.0692	199.519	236.4801	265.0521	304.382	323.8463	385.4373	469.8124	519.6834	599.1036	626.4981	655.492	681.4709	760.5207	789.3842	832.8052	984.9649	1017.5107	1022.5848	1038.8068	1059.3845	1069.4575	1178.9086	1200.9784	1224.0905	1250.2192	1283.7461	1349.1512	1416.8643	1445.836	1449.841	1479.6467	1505.3761	1506.7934	1513.8568	1562.6668	1647.0976	1669.1331	2937.1224	2974.3592	3014.5858	3058.0722	3121.1693	3234.986	3515.9143	3603.4159	3673.5604	3814.4449
CC1=CC(N)=C(CO)N1	Cc1cc(N)c(CO)[nH]1	
InChI=1S/C6H10N2O/c1-4-2-5(7)6(3-9)8-4/h2,8-9H,3,7H2,1H3	InChI=1S/C6H10N2O/c1-4-2-5(7)6(3-9)8-4/h2,8-9H,3,7H2,1H3
