15
gdb 25789	4.15477	1.11575	0.88051	2.3863	72.73	-0.1967	-0.0188	0.1778	1236.7667	0.114977	-450.208628	-450.200168	-450.199223	-450.241709	31.314	
N	-0.0751735468	 1.3059417426	 0.0026150194	-0.536749
C	 0.0067533966	-0.0477507792	-0.020002777	 0.334457
O	 1.0497687246	-0.6856171051	-0.0653279292	-0.397987
C	-1.3032611462	-0.7265510391	 0.0128094665	 0.278196
N	-2.5113170105	-0.1782882482	 0.0521898522	-0.375501
C	-3.3858059803	-1.2262393888	 0.071138683	 0.287271
N	-4.7589905396	-1.0075667975	 0.1801301073	-0.59919
C	-2.6975946274	-2.4286349044	 0.0408429544	-0.170796
N	-1.3699632528	-2.0753171166	 0.0018612814	-0.263256
H	 0.7702488343	 1.8495205767	 0.0014445686	 0.263083
H	-0.9760125004	 1.7514057315	 0.0593787838	 0.276284
H	-5.0023463161	-0.069839926	-0.1106910043	 0.250207
H	-5.3216536986	-1.6884530257	-0.3111478754	 0.244637
H	-3.0253937502	-3.4538142777	 0.0511484249	 0.127678
H	-0.5547758465	-2.6668968827	-0.0313515756	 0.281665
90.1101	154.3162	159.6798	203.8237	222.943	335.5253	370.6943	390.0921	533.9046	576.9399	622.2669	647.8184	660.7208	680.4471	689.2471	729.4615	774.8529	799.0543	1002.5219	1027.8801	1083.6541	1097.5436	1109.5442	1233.0917	1316.1468	1370.7581	1435.9779	1496.5649	1540.9867	1595.1512	1614.8712	1647.3947	1772.3193	3281.5907	3549.6702	3602.2741	3646.0417	3656.8407	3746.5041
NC(=O)C1=NC(N)=CN1	NC(=O)c1nc(N)c[nH]1	
InChI=1S/C4H6N4O/c5-2-1-7-4(8-2)3(6)9/h1H,5H2,(H2,6,9)(H,7,8)	InChI=1S/C4H6N4O/c5-2-1-7-4(8-2)3(6)9/h1H,5H2,(H2,6,9)(H,7,8)
