20
gdb 8702	2.28808	1.77125	1.31552	1.7348	71.78	-0.2413	-0.0283	0.2131	1054.3642	0.172927	-386.145553	-386.135405	-386.13446	-386.180542	35.642	
C	 0.1276904578	 1.6199629493	 0.109877297	-0.397189
C	 0.1101264065	 0.0896625626	 0.0398035068	-0.1987
C	 0.7112420869	-0.4915946788	-1.2614366025	 0.264271
C	-0.0891810828	-0.1022670719	-2.506169803	-0.437646
O	 2.0649650898	-0.038224981	-1.2770209864	-0.275555
C	 2.8333818003	-0.3909305438	-2.4110956788	-0.250683
C	 0.7304596539	-2.0133504659	-1.0697070386	 0.128936
O	-0.0557432688	-2.7883222513	-1.5470723501	-0.251402
H	 1.1403160025	 1.9993352461	-0.0430240673	 0.137482
H	-0.5249198593	 2.0697326057	-0.644135867	 0.118104
H	-0.2221247543	 1.9556839167	 1.0906396887	 0.114978
H	 0.6858688246	-0.3143549884	 0.8814024257	 0.105207
H	-0.9131303387	-0.2886600207	 0.1418632643	 0.11055
H	-0.0482325553	 0.9769054045	-2.6702725142	 0.123654
H	 0.2863474965	-0.606848773	-3.3994095968	 0.124979
H	-1.1312463065	-0.4046578712	-2.3821590266	 0.136049
H	 2.7935943624	-1.4688168264	-2.6283618736	 0.113722
H	 2.521992542	 0.1533757084	-3.3122176003	 0.11714
H	 3.8674046154	-0.1225826489	-2.1815373248	 0.131781
H	 1.5576683972	-2.3471555121	-0.4002435725	 0.084324
59.0961	91.7923	120.9932	163.5027	186.2305	234.1646	248.708	267.4165	302.8563	350.9585	363.2541	433.0718	509.8904	607.7894	739.473	781.3993	866.8219	914.8909	993.4719	1006.8025	1031.5422	1066.4943	1119.7679	1165.2902	1180.2177	1200.727	1226.4844	1249.2463	1324.169	1370.9308	1388.8603	1404.2425	1412.7847	1472.2443	1478.1815	1483.2003	1487.3805	1499.8116	1505.2488	1510.8706	1512.7252	1834.6593	2863.8619	2988.0526	3030.7529	3045.5526	3047.2848	3059.1775	3073.5571	3110.5153	3115.2859	3129.7336	3134.8633	3139.8409
CCC(C)(OC)C=O	CC[C@@](C)(OC)C=O	
InChI=1S/C6H12O2/c1-4-6(2,5-7)8-3/h5H,4H2,1-3H3	InChI=1S/C6H12O2/c1-4-6(2,5-7)8-3/h5H,4H2,1-3H3/t6-/m1/s1
