21
gdb 76986	2.76777	1.36307	1.14535	2.6714	83.14	-0.2346	-0.0187	0.2159	1169.5892	0.180759	-387.078988	-387.069551	-387.068607	-387.113116	35.236	
C	-0.2403975515	 1.4786158068	-0.1204166813	-0.409857
C	 0.0845685907	-0.0094641628	-0.0537182383	-0.054295
C	 1.2425811895	-0.6546374679	-0.9054247889	-0.105646
C	 2.2395647174	 0.1637398949	-1.67733843	 0.14788
O	 2.4395677397	 1.347923977	-1.5505536728	-0.257533
C	 1.8341785004	-1.2431594056	 0.4020331919	-0.128998
C	 2.1416488624	-0.1281760339	 1.3673473252	-0.334296
C	 0.7182345016	-0.5927377686	 1.224913376	 0.367369
C	-0.0766520618	-1.1533837231	 2.3699362563	-0.501705
H	 0.6250622599	 2.1013863274	 0.1071996013	 0.139531
H	-0.5903525764	 1.7599418623	-1.1189640478	 0.114204
H	-1.0405991076	 1.7152852194	 0.5904869636	 0.105076
H	-0.8254078412	-0.5778858126	-0.2782916726	 0.074053
H	 0.8683574826	-1.4483364953	-1.5597548484	 0.082668
H	 2.8646655564	-0.4386880496	-2.3796123233	 0.072991
H	 2.2694560824	-2.2312738049	 0.491699155	 0.089597
H	 2.6340142042	-0.4444258694	 2.2818502654	 0.10968
H	 2.4663290752	 0.8410740893	 1.0001421335	 0.132778
H	-0.5652547704	-0.3552798177	 2.9420793134	 0.124023
H	-0.8600151288	-1.8347635862	 2.0176967456	 0.114555
H	 0.5630850455	-1.7082182697	 3.0641603861	 0.117924
60.2164	128.2102	177.6352	193.0896	209.3194	224.6294	250.7288	290.1832	377.0045	448.9173	504.2804	591.7049	680.2197	735.0895	761.7741	809.1351	852.1305	896.9623	961.4067	968.5551	983.1037	1019.9343	1036.5972	1058.9846	1082.9672	1094.7595	1107.7929	1129.4764	1157.8931	1199.5928	1242.8388	1254.3699	1289.247	1347.4378	1368.5602	1401.5633	1413.5182	1426.4933	1430.5815	1486.2101	1489.0835	1492.451	1497.7667	1503.3168	1814.4064	2840.6146	3018.4506	3027.547	3036.0483	3058.7623	3076.2483	3092.5863	3093.6924	3120.3009	3146.4571	3179.0042	3204.0223
CC1C(C=O)C2CC12C	C[C@H]1[C@@H](C=O)[C@H]2C[C@@]12C	
InChI=1S/C8H12O/c1-5-6(4-9)7-3-8(5,7)2/h4-7H,3H2,1-2H3	InChI=1S/C8H12O/c1-5-6(4-9)7-3-8(5,7)2/h4-7H,3H2,1-2H3/t5-,6+,7+,8-/m0/s1
