15
gdb 27898	2.00328	1.86357	0.97123	0.8598	71.32	-0.2502	-0.0145	0.2357	1144.5087	0.113934	-454.040529	-454.032634	-454.03169	-454.074315	29.317	
C	 0.0228233557	 1.4344451753	 0.0133758973	-0.457824
C	 0.0496721068	-0.0681154244	 0.010425683	 0.350753
N	 0.1090631499	-0.6704291172	-1.1818693526	-0.392118
C	 0.1291212195	-2.0037557104	-1.1740252697	 0.447489
O	 0.1886823932	-2.6219377434	-2.3633235293	-0.410268
C	 0.0921450697	-2.7668079317	-0.0122505969	-0.331069
C	 0.0317772678	-2.0269565238	 1.1602764444	 0.450764
O	-0.0075919918	-2.6620334857	 2.3412802921	-0.410023
N	 0.0100818591	-0.6903395414	 1.1905041635	-0.391022
H	 0.8919874641	 1.8285763545	-0.5219570574	 0.141272
H	-0.8658650316	 1.7958379854	-0.5141216749	 0.141816
H	 0.0171122473	 1.8137519325	 1.035091402	 0.134876
H	 0.2058096045	-1.9184588607	-3.0280245283	 0.301031
H	 0.1095790804	-3.8467598908	-0.0220913177	 0.123079
H	-0.0463259446	-1.9679811182	 3.0149470843	 0.301247
17.7869	188.3796	202.2589	238.8038	298.7897	349.8612	517.6395	548.6014	556.3248	563.2339	576.2986	630.2323	634.5338	726.0832	794.0558	859.6901	977.2254	1000.2131	1030.3933	1063.208	1083.3058	1168.5154	1223.62	1263.0525	1347.7605	1392.0052	1446.5686	1461.9657	1478.4412	1494.0903	1501.3793	1650.6786	1656.7179	3048.4954	3105.9645	3157.4965	3240.1589	3758.2345	3759.3604
CC1=NC(O)=CC(O)=N1	Cc1nc(O)cc(O)n1	
InChI=1S/C5H6N2O2/c1-3-6-4(8)2-5(9)7-3/h2H,1H3,(H2,6,7,8,9)	InChI=1S/C5H6N2O2/c1-3-6-4(8)2-5(9)7-3/h2H,1H3,(H2,6,7,8,9)
