21
gdb 82944	2.1129	1.85049	1.48343	2.1091	82.11	-0.2091	0.0723	0.2814	1041.2086	0.183584	-383.223228	-383.214857	-383.213912	-383.255491	33.438	
C	-0.4038283832	 1.5108337096	-0.1845888639	-0.435016
C	-0.0607766976	 0.0581310841	 0.0585474245	-0.022152
N	 1.2359448637	-0.5872557241	-0.2512558543	-0.164251
C	 2.4443047175	 0.2668690903	-0.332004948	-0.178028
C	 2.831174724	 0.683095185	 1.0875548385	-0.035964
N	 1.9176783041	 1.6641955712	 1.7043546062	-0.336066
C	 1.7430483772	 0.2218290553	 1.9872581842	-0.110815
C	 0.7455997122	-0.5614520829	 1.156799457	 0.320337
C	 0.3180841899	-1.880444654	 1.7645564116	-0.477294
H	 0.3605734303	 2.1982387354	 0.16540347	 0.157675
H	-0.5779061624	 1.6657238966	-1.2565473792	 0.109553
H	-1.3390094813	 1.7518274503	 0.3334371522	 0.113049
H	-0.8693809385	-0.5899422383	-0.2879075595	 0.078374
H	 3.2472393733	-0.3369221974	-0.7684597608	 0.106948
H	 2.2856152283	 1.1299198438	-0.987763236	 0.11326
H	 3.8761822126	 0.6841285587	 1.3829028975	 0.088772
H	 2.379996704	 2.1003275469	 2.4991549755	 0.230761
H	 1.9411001166	-0.1337058994	 2.9931098061	 0.084008
H	-0.3363166656	-1.7213889566	 2.6296145886	 0.114017
H	-0.2230779843	-2.4812958559	 1.0299736452	 0.128037
H	 1.1855116991	-2.4614726184	 2.0992004743	 0.114792
162.8999	176.4897	189.0666	232.4687	251.9263	294.1785	329.3302	397.9316	515.3567	553.1717	598.276	671.7534	724.665	754.5164	796.4185	814.5761	864.798	893.0928	931.5699	962.9685	998.0117	1011.8498	1038.7037	1085.6239	1095.0379	1115.0253	1142.4436	1147.8838	1167.3984	1178.965	1223.8784	1249.0035	1257.2175	1332.5609	1367.153	1373.478	1401.0819	1411.5271	1421.452	1454.3238	1486.8738	1488.5601	1494.2191	1498.6676	1513.0872	3024.9983	3028.1219	3038.3746	3064.1871	3075.1778	3080.8949	3084.3782	3121.515	3151.8698	3165.8914	3190.9015	3488.2086
CC1N2CC3NC3C12C	C[C@H]1N2C[C@H]3N[C@H]3[C@@]12C	
InChI=1S/C7H12N2/c1-4-7(2)6-5(8-6)3-9(4)7/h4-6,8H,3H2,1-2H3	InChI=1S/C7H12N2/c1-4-7(2)6-5(8-6)3-9(4)7/h4-6,8H,3H2,1-2H3/t4-,5-,6-,7-,9?/m1/s1
