18
gdb 8452	4.35716	1.70893	1.51748	1.7573	73.05	-0.2219	0.0124	0.2342	915.039	0.153048	-347.772057	-347.764515	-347.763571	-347.803351	29.489	
C	-0.0197132133	 1.4685058173	 0.0755974671	-0.51739
C	-0.0044766948	-0.0163302765	-0.0089036357	 0.370563
C	-0.0631350012	-0.8744011095	-1.0305342696	-0.258745
C	 0.0043400604	-2.2433886743	-0.3161311756	 0.384222
C	 0.1614573423	-3.516149397	-1.0981406984	-0.508121
C	-1.0294094512	-2.0228477466	 0.8387221743	-0.253209
C	 0.0910102562	-1.0031036447	 1.1814633769	-0.036512
O	 1.0583815151	-1.9811573841	 0.6870896396	-0.316527
H	 0.8899521596	 1.8485302927	 0.5580461366	 0.133328
H	-0.0947651746	 1.9263727567	-0.9146867983	 0.128205
H	-0.8640647685	 1.827097971	 0.6786068918	 0.127968
H	-0.1375708023	-0.700732493	-2.0949694294	 0.100098
H	 1.0763253377	-3.4860018149	-1.6984988919	 0.132266
H	 0.2166719667	-4.3792933419	-0.4295667471	 0.127472
H	-0.6875878955	-3.6540482738	-1.7755387139	 0.121804
H	-2.026017458	-1.6518956315	 0.5886482489	 0.091497
H	-1.064167781	-2.8633890239	 1.537339988	 0.099567
H	 0.2935431824	-0.6284165959	 2.1849139364	 0.073513
159.4162	176.1771	189.2573	232.6647	305.9861	349.1984	499.671	544.8453	572.1319	620.4835	667.753	769.6673	794.1472	817.194	859.1398	875.5318	921.9771	967.8475	1011.9717	1031.2727	1061.0563	1080.068	1106.1276	1126.3468	1178.6651	1211.088	1234.9164	1250.8544	1297.6671	1339.5821	1412.6759	1416.2972	1478.4882	1478.959	1484.7598	1486.8646	1494.076	1694.0184	3014.7293	3039.3442	3054.3033	3059.6069	3107.4282	3108.491	3119.1612	3122.746	3126.6394	3228.8337
CC1=CC2(C)CC1O2	CC1=C[C@]2(C)C[C@H]1O2	
InChI=1S/C7H10O/c1-5-3-7(2)4-6(5)8-7/h3,6H,4H2,1-2H3	InChI=1S/C7H10O/c1-5-3-7(2)4-6(5)8-7/h3,6H,4H2,1-2H3/t6-,7-/m1/s1
