14
gdb 132318	1.99383	1.75345	0.93297	3.5347	70.72	-0.193	-0.0163	0.1767	1134.6772	0.101817	-478.019598	-478.012181	-478.011237	-478.051408	29.051	
O	-0.1420896146	 1.3149836161	 0.0108414802	-0.413605
C	 0.05163418	-0.0177191226	 0.002471821	 0.55426
C	 1.2615664887	-0.6527159131	-0.0074640112	-0.509748
C	 1.2149802259	-2.0729410109	-0.0150322585	 0.388445
F	 2.3918869027	-2.7001835256	-0.0247465	-0.075833
C	 0.066263527	-2.7949590754	-0.0128906749	-0.398663
C	-1.2141138846	-2.1209123277	-0.0023678976	 0.40662
N	-2.4089152905	-2.5924817618	 0.0014369922	-0.579338
N	-1.1059927157	-0.7133866289	 0.0047933915	-0.387794
H	 0.7126889404	 1.759029655	 0.0087457192	 0.317612
H	 2.201068628	-0.1200915407	-0.0095269606	 0.106725
H	 0.0948298472	-3.8760144973	-0.0189843623	 0.10898
H	-2.3840526749	-3.609686607	-0.0042660818	 0.210788
H	-1.9820246595	-0.20921962	 0.0122484526	 0.271549
151.5457	199.8782	227.6449	334.7526	347.6018	369.0334	497.3954	518.9719	565.4012	583.8494	623.5166	629.4213	678.0017	714.6652	722.885	773.3344	829.3452	958.9062	1010.7109	1057.719	1132.816	1176.6052	1209.0257	1255.9506	1333.7062	1358.686	1458.6144	1556.7767	1614.3667	1661.1842	1722.7396	3226.1125	3236.3367	3511.9937	3611.807	3831.3513
OC1=CC(F)=CC(=N)N1	O[C@@H]1C=C(F)C=C([NH])N1	
InChI=1S/C5H5FN2O/c6-3-1-4(7)8-5(9)2-3/h1-2H,(H3,7,8,9)	InChI=1S/C5H6FN2O/c6-3-1-4(7)8-5(9)2-3/h1-2,5,7-9H/t5-/m1/s1
