21
gdb 38642	2.65671	2.15793	1.88891	0.2203	84.32	-0.2253	0.0268	0.252	875.7038	0.18908	-349.962185	-349.956309	-349.955364	-349.991837	27.401	
C	-0.0255728324	 1.5787073787	 0.0139823219	-0.202896
C	 1.5165841732	 1.7104406614	 0.0291785245	-0.0253
C	 1.748142764	 1.0625333479	 1.4011928467	-0.193494
C	 1.1323634656	-0.3434399742	 1.0698628051	-0.068761
C	 2.3220893662	-1.0701288925	 0.4796788803	-0.071938
C	 2.8592863596	-0.4414650319	-0.5701575528	-0.071936
C	 1.9880170832	 0.6708747718	-1.1136901908	-0.068762
C	 0.6528397494	-0.0931796121	-1.4287325688	-0.193495
C	 0.0176719885	 0.0323043468	-0.0371019552	-0.0253
H	-0.4856782877	 2.0009657347	 0.9103552909	 0.085694
H	-0.5196251338	 2.0078504491	-0.8607935116	 0.085694
H	 1.9352854333	 2.7092105026	-0.099539547	 0.057108
H	 2.7887263253	 0.9785284916	 1.7151426775	 0.091067
H	 1.1966167375	 1.604882609	 2.1754102153	 0.085446
H	 0.6972450942	-0.8539477575	 1.9294276212	 0.058962
H	 2.7501242764	-1.9424772778	 0.9613485723	 0.082664
H	 3.7620499276	-0.7565894582	-1.0819433133	 0.082664
H	 2.4241900356	 1.1804359113	-1.9732821326	 0.058962
H	 0.0322422532	 0.4103617194	-2.1764223832	 0.085446
H	 0.8461011729	-1.110139865	-1.7706063206	 0.091068
H	-0.9237531917	-0.5000331954	 0.1034528002	 0.057108
292.1476	409.124	423.3538	496.3593	566.9173	575.5424	651.6984	666.4777	701.9975	761.2629	782.2019	839.0056	856.9726	877.9115	898.9597	923.6311	931.5324	936.3268	957.0434	964.6986	969.9209	992.3774	1031.7095	1042.9653	1098.822	1099.1308	1103.9177	1122.9946	1165.7886	1172.618	1202.3827	1211.8389	1261.1967	1271.2407	1288.0432	1296.4418	1304.6327	1307.8883	1329.34	1333.9146	1376.8905	1492.8692	1508.8513	1540.4617	1661.6869	3048.0917	3049.4356	3066.5893	3097.2883	3097.4575	3106.6844	3107.5846	3113.2115	3119.2021	3120.148	3172.5266	3197.1667
C1C2CC3C=CC2CC13	C1[C@H]2C[C@@H]3C=C[C@H]2C[C@H]13	
InChI=1S/C9H12/c1-2-7-4-8-5-9(7)3-6(1)8/h1-2,6-9H,3-5H2	InChI=1S/C9H12/c1-2-7-4-8-5-9(7)3-6(1)8/h1-2,6-9H,3-5H2/t6-,7-,8+,9+/m0/s1
