18
gdb 62515	2.04615	1.50273	1.10911	3.803	80.81	-0.2501	0.0009	0.251	1176.2127	0.143765	-401.915592	-401.905746	-401.904802	-401.949941	35.794	
C	 0.1455477831	 1.3968399892	 0.2478133606	-0.456188
C	-0.0703684354	-0.0887927358	 0.0429391863	 0.275965
C	-1.4231020101	-0.6134843398	 0.4807932961	-0.441654
C	 0.6187732746	-0.7829812869	-1.1333869669	-0.277078
C	 1.4359540166	-0.0548927364	-2.0638686012	 0.368332
C	 2.0856008444	 0.5444205504	-2.8784255867	-0.432969
N	 1.0432682173	-0.9980505261	 0.242178632	-0.101725
C	 2.2882074224	-0.7461793806	 0.7872786121	 0.153004
O	 3.3427137472	-1.0302358653	 0.2775016427	-0.291212
H	 1.1167480403	 1.719254086	-0.1329533949	 0.146464
H	-0.6307427165	 1.9643731402	-0.2751072324	 0.132601
H	 0.0815323221	 1.6509137236	 1.3111785442	 0.126813
H	-2.2261951654	-0.1097840098	-0.066785058	 0.127836
H	-1.5003939417	-1.689609901	 0.3090200969	 0.13271
H	-1.5771117553	-0.4283546555	 1.5494725883	 0.12769
H	 0.0962684087	-1.6342748533	-1.566880738	 0.122694
H	 2.6808587569	 1.0642516315	-3.588042872	 0.205089
H	 2.1999602207	-0.3190872806	 1.806041321	 0.081629
99.287	117.4041	146.707	174.423	189.6513	233.0479	241.3987	317.2326	343.6916	362.7318	433.9507	518.3208	543.3167	620.8357	650.5257	669.6325	707.8931	871.6771	888.2148	960.3871	1007.0284	1021.9934	1031.3086	1062.0416	1095.7761	1147.2516	1226.284	1281.7317	1350.6064	1410.3791	1420.6464	1423.1251	1429.9844	1475.8296	1485.3646	1497.2451	1506.931	1803.8147	2239.9611	2934.8423	3036.0696	3041.4379	3100.0753	3104.193	3117.6412	3126.9074	3134.5839	3502.3677
CC1(C)C(C#C)N1C=O	CC1(C)[C@@H](C#C)N1C=O	
InChI=1S/C7H9NO/c1-4-6-7(2,3)8(6)5-9/h1,5-6H,2-3H3	InChI=1S/C7H9NO/c1-4-6-7(2,3)8(6)5-9/h1,5-6H,2-3H3/t6-,8?/m1/s1
