21
gdb 115412	2.72505	1.05005	0.84215	4.97	82.93	-0.2485	0.0248	0.2733	1429.3498	0.184122	-383.294923	-383.285549	-383.284605	-383.330411	34.349	
C	-0.0083681982	 1.5929397224	 0.0642835404	-0.379137
C	-0.0686637942	 0.0635373274	 0.1296081527	-0.205819
C	 0.8471582469	-0.5440422802	 1.1880421096	 0.065986
C	 0.7636908845	-2.0758351432	 1.3321333916	-0.220166
C	 2.0735806159	-2.4393682934	 2.0541605302	-0.250083
C	 3.0466207771	-1.2600415408	 1.6793671657	-0.13948
N	 2.270707326	-0.2692406458	 0.9119400356	-0.289578
C	 3.6266105853	-0.6457427202	 2.8855534727	 0.307667
N	 4.0819120598	-0.1875693474	 3.8439465174	-0.330946
H	 1.0082894961	 1.9391083515	-0.1398462197	 0.132487
H	-0.667631417	 1.9789063947	-0.7189511882	 0.111649
H	-0.3215752724	 2.0376874398	 1.0147344704	 0.12111
H	-1.0955061946	-0.2603633299	 0.3375360571	 0.104112
H	 0.1910832531	-0.3665057652	-0.8490905006	 0.08936
H	 0.613458309	-0.0870295377	 2.1613818629	 0.091265
H	-0.1216728589	-2.4103402164	 1.8799488215	 0.106906
H	 0.7297349963	-2.5317067054	 0.3346983898	 0.095389
H	 1.9289928036	-2.4787319938	 3.136201143	 0.131571
H	 2.4832271275	-3.4024305242	 1.7432167682	 0.115602
H	 3.8840716357	-1.6168475865	 1.0724861674	 0.122431
H	 2.4456329486	-0.4222500956	-0.0769337077	 0.219675
23.6978	91.1657	117.6172	175.6309	213.7085	240.5724	262.8375	390.8537	427.5155	507.2646	558.6454	595.0237	689.0946	757.3385	787.2705	806.6792	871.0386	898.1785	944.8466	959.1966	989.5275	1010.6328	1040.7759	1070.1904	1100.8076	1132.5412	1149.6352	1205.1646	1212.6017	1276.0944	1287.9947	1302.5531	1319.1238	1348.2361	1359.4669	1364.6825	1400.3134	1411.6279	1464.5927	1484.0665	1491.7187	1495.8879	1504.951	1508.0244	2356.1678	2990.3589	3006.0294	3032.3371	3040.1542	3054.8755	3065.2452	3074.3801	3094.2299	3105.3846	3121.4196	3123.5319	3506.8145
CCC1CCC(N1)C#N	CC[C@H]1CC[C@@H](N1)C#N	
InChI=1S/C7H12N2/c1-2-6-3-4-7(5-8)9-6/h6-7,9H,2-4H2,1H3	InChI=1S/C7H12N2/c1-2-6-3-4-7(5-8)9-6/h6-7,9H,2-4H2,1H3/t6-,7+/m0/s1
