23
gdb 97895	3.39325	0.68376	0.66027	1.1528	91.56	-0.2389	0.0501	0.289	1881.8654	0.201599	-388.280309	-388.268551	-388.267607	-388.319316	42.033	
C	 0.2284392463	 0.806938583	 0.7433128803	-0.361929
C	-0.3150631718	 0.5949287613	-0.6815858652	-0.315572
C	-1.579942612	-0.133038541	-0.7082353355	 0.11785
C	-2.6236902544	-0.7346931063	-0.6995940117	 0.037142
C	-3.8865126065	-1.462787439	-0.7017253625	-0.397991
C	-3.8577263379	-2.8110267716	 0.0746769833	 0.35379
C	-5.2599181522	-3.436331245	 0.0500495619	-0.413682
C	-2.820528173	-3.7664106993	-0.5153328214	-0.387271
O	-3.4463964525	-2.5946669226	 1.4239821138	-0.451552
H	 1.178005708	 1.3500239596	 0.7140226408	 0.110664
H	-0.4793885139	 1.3816679647	 1.3468466026	 0.124943
H	 0.3927538661	-0.1520899587	 1.2417291496	 0.131695
H	-0.4438530497	 1.5685059296	-1.1724768266	 0.124916
H	 0.4303384286	 0.0551881171	-1.2800814977	 0.12565
H	-4.6756657638	-0.8339228928	-0.2636960103	 0.10826
H	-4.2035750758	-1.6591732578	-1.7345301111	 0.123249
H	-5.5869027152	-3.6552927702	-0.9717389079	 0.112804
H	-5.2622040512	-4.3678685742	 0.6223301672	 0.122331
H	-5.9970491775	-2.7595027874	 0.498844595	 0.100524
H	-1.8310465619	-3.304438772	-0.4984262919	 0.134251
H	-2.7858181119	-4.6865446515	 0.074288884	 0.118514
H	-3.0709201515	-4.023155085	-1.54896559	 0.106985
H	-4.0523977065	-1.9616679011	 1.8239956332	 0.274426
8.2928	50.9165	76.3969	144.2573	198.9866	210.3798	248.531	268.4307	281.5654	312.8172	323.2922	332.9996	399.3334	407.995	448.6708	499.1781	567.3278	756.7888	766.8865	785.5024	877.4283	919.1362	936.0129	964.8474	984.6126	1021.5482	1079.7545	1104.6291	1127.2306	1165.8839	1179.4564	1216.3274	1258.0661	1286.05	1339.3962	1351.7472	1376.7293	1402.5493	1408.1912	1419.9784	1462.9882	1476.1617	1480.9566	1485.7634	1493.9577	1498.2424	1505.591	1506.9399	2365.9924	2995.6199	3015.8957	3025.2253	3035.6802	3041.9295	3042.8906	3047.0429	3091.3268	3114.9646	3115.5485	3121.0833	3123.558	3133.5816	3802.5191
CCC#CCC(C)(C)O	CCC#CCC(C)(C)O	
InChI=1S/C8H14O/c1-4-5-6-7-8(2,3)9/h9H,4,7H2,1-3H3	InChI=1S/C8H14O/c1-4-5-6-7-8(2,3)9/h9H,4,7H2,1-3H3
