19
gdb 35060	2.37218	1.51578	1.46352	3.0566	78.85	-0.2412	0.0124	0.2536	1033.9816	0.162216	-382.070244	-382.06245	-382.061505	-382.102507	30.383	
N	-0.4876540907	-1.076390872	-0.2035962742	-0.355158
C	-0.2964877906	 0.0615438225	-0.1100546745	 0.306008
C	-0.074368109	 1.4824185233	-0.020864385	-0.170736
C	 0.4949113592	 2.0769089568	 1.2469982881	-0.017262
C	 0.8848357107	 1.1994189875	 2.4344661289	-0.24401
C	 2.3752151863	 0.8236572277	 2.3952594795	-0.190639
C	 2.7193190585	 0.213632816	 1.0334183698	-0.222345
C	 2.4787159316	 1.2363146657	-0.0914133218	-0.149975
N	 1.2682141653	 2.0670888998	 0.01055568	-0.101235
H	-0.7938783634	 2.056445179	-0.6007191122	 0.132474
H	 0.1146000257	 3.0645640644	 1.5012228698	 0.106156
H	 0.6452619822	 1.7351498357	 3.3571953524	 0.106202
H	 0.2864701557	 0.2812067324	 2.4392105964	 0.130415
H	 2.9903029664	 1.7168697007	 2.5692775451	 0.099368
H	 2.5990278068	 0.1207749874	 3.2034049848	 0.103017
H	 3.7701662303	-0.0928106615	 0.9959575996	 0.100198
H	 2.1192232046	-0.6880863071	 0.8745901587	 0.13189
H	 3.3108138304	 1.9507546935	-0.0989366712	 0.114877
H	 2.4686134601	 0.7498569781	-1.0716906244	 0.120757
110.6723	124.3507	166.9621	289.0013	344.2976	374.7312	429.0429	483.1949	578.0766	602.6137	641.1026	708.6701	790.6843	806.8947	850.1843	876.2625	923.7929	933.1054	998.2875	1017.3453	1052.0884	1067.7465	1111.5095	1133.3313	1149.5484	1190.4792	1215.6084	1288.03	1304.7401	1334.6469	1352.2216	1364.1163	1367.4448	1382.6599	1389.2118	1406.0093	1485.5207	1489.0725	1492.5604	1504.6058	2341.9017	3019.5931	3030.2214	3041.4689	3046.6977	3079.3563	3080.6758	3087.4612	3096.7147	3118.7674	3131.3774
N#CC1C2CCCCN12	N#C[C@H]1[C@H]2CCCCN12	
InChI=1S/C7H10N2/c8-5-7-6-3-1-2-4-9(6)7/h6-7H,1-4H2	InChI=1S/C7H10N2/c8-5-7-6-3-1-2-4-9(6)7/h6-7H,1-4H2/t6-,7+,9?/m1/s1
