15
gdb 125822	3.29482	1.12571	0.85811	2.2045	70.68	-0.2527	-0.0187	0.234	1279.7313	0.111756	-453.930628	-453.922244	-453.9213	-453.964661	29.438	
C	-0.1077554901	 1.4638824892	 0.1682273984	-0.493752
C	-0.0186293703	-0.022974776	 0.0840519841	 0.306228
N	-0.1448958672	-0.6595894204	-1.0554111044	-0.189334
O	-0.0080447605	-2.0157678392	-0.7671192871	-0.165757
C	 0.2134915401	-2.168334508	 0.5484554981	-0.02243
C	 0.2093750596	-0.9481870122	 1.1469799214	 0.137091
O	 0.4138291976	-0.584406106	 2.4444071316	-0.211826
C	-0.1636683831	-1.346518172	 3.4176058823	 0.106474
N	 0.1717914989	-1.1673026523	 4.6150947175	-0.421521
H	 0.8240703983	 1.8867271998	 0.5563426315	 0.151539
H	-0.3032583093	 1.8818243618	-0.8205524006	 0.153796
H	-0.9094758182	 1.7670856735	 0.8488830295	 0.144924
H	 0.3628268167	-3.1755463464	 0.9022094752	 0.158164
H	-0.9028011336	-2.0508528219	 3.017178938	 0.105322
H	-0.3649367988	-1.77901796	 5.2264602244	 0.241083
56.0948	107.5967	115.8213	162.0219	245.3617	263.6902	393.7858	470.4566	493.9066	611.0656	671.1921	701.9405	810.5977	816.2297	839.4798	910.237	935.6289	1024.334	1039.4335	1050.5206	1068.2207	1151.6361	1221.6476	1270.7112	1304.5335	1403.9473	1409.2936	1440.0809	1478.0933	1485.6489	1545.2273	1655.4212	1751.8975	3048.0738	3051.8621	3105.6395	3146.5988	3272.6351	3524.6117
CC1=NOC=C1OC=N	Cc1nocc1O[CH][NH]	
InChI=1S/C5H6N2O2/c1-4-5(8-3-6)2-9-7-4/h2-3,6H,1H3	InChI=1S/C5H6N2O2/c1-4-5(8-3-6)2-9-7-4/h2-3,6H,1H3
