14
gdb 21454	5.92279	1.45509	1.16811	1.265	67.34	-0.2036	0.0171	0.2207	958.8304	0.110728	-374.92573	-374.918845	-374.917901	-374.957066	25.587	
N	 0.2951594956	 1.2486285618	 0.003451982	-0.460139
C	 0.0502651681	-0.004097154	 0.0015887729	 0.082809
N	-1.2106562375	-0.5365559317	 0.0128604256	-0.370849
C	-2.4232981962	 0.1444993281	 0.0275849971	 0.443944
N	-3.5414554244	-0.5810057182	 0.0362423868	-0.328363
N	-4.5246504059	 0.3458276593	 0.0495858849	-0.184254
C	-4.0571499384	 1.6145899821	 0.0495117526	-0.015978
C	-2.6805904281	 1.5358902486	 0.0353072052	-0.284615
H	 1.3000335375	 1.403792302	-0.0064366215	 0.220199
H	 0.8093389028	-0.7954997014	-0.0090730349	 0.088345
H	-1.2969309818	-1.539898746	 0.0099579816	 0.258592
H	-5.4802126263	 0.0361176474	 0.0581240839	 0.274562
H	-4.7222537891	 2.4637240083	 0.059350453	 0.131801
H	-1.9538202762	 2.3262381736	 0.0308309909	 0.143946
74.3669	194.684	195.4612	365.8877	367.1647	447.1432	506.0725	608.4042	653.2635	722.5671	778.6769	796.7231	816.2019	858.7222	944.9861	989.8968	1039.4693	1057.4799	1104.7667	1140.5975	1214.2076	1245.6282	1315.1381	1385.2243	1415.8792	1485.679	1510.6837	1533.706	1620.244	1725.4916	3045.3431	3262.2817	3322.8985	3518.2819	3649.9041	3691.0608
N=CNC1=NNC=C1	N=CNc1n[nH]cc1	
InChI=1S/C4H6N4/c5-3-6-4-1-2-7-8-4/h1-3H,(H3,5,6,7,8)	InChI=1S/C4H6N4/c5-3-6-4-1-2-7-8-4/h1-3H,(H3,5,6,7,8)
