20
gdb 47842	2.37526	1.51639	1.08156	3.0412	82.46	-0.2226	-0.0012	0.2214	1162.8941	0.173734	-403.192062	-403.183791	-403.182847	-403.225208	32.163	
O	-0.0140744166	-0.1618192041	-0.1779000701	-0.367524
C	-0.0022985059	 1.0529672115	-0.0952394595	 0.363874
C	-1.3450140287	 1.7917193067	-0.0559379522	-0.274614
C	-1.470497779	 3.3208513864	-0.0861508103	-0.216155
C	-1.271235812	 4.0007159566	 1.2740400502	-0.183359
C	 0.0690637542	 3.6249510896	 1.9375414488	-0.27505
C	 1.2367324867	 3.8605149451	 1.0285074854	-0.058032
C	 1.6923244141	 2.9946753292	 0.1208837408	-0.00426
N	 1.2236087141	 1.6983881761	-0.1476995484	-0.318301
H	-1.8650227951	 1.3719395627	-0.9240679354	 0.138395
H	-1.8783320761	 1.3813581549	 0.8104900427	 0.132131
H	-0.7781798177	 3.7404315044	-0.8224845308	 0.110857
H	-2.4769812659	 3.56093524	-0.4476418638	 0.099142
H	-1.3259483046	 5.0880945676	 1.1433714493	 0.096159
H	-2.0918684829	 3.7254096502	 1.9486572186	 0.096275
H	 0.1921197816	 4.1957358272	 2.863938242	 0.1013
H	 0.0414051729	 2.5657859001	 2.2242641843	 0.112662
H	 1.7238981252	 4.8305548085	 1.0633772054	 0.091642
H	 2.5584491796	 3.2512269044	-0.4836447914	 0.104871
H	 1.9432006564	 1.017275863	-0.3559313656	 0.249987
53.6578	119.982	241.4044	255.7354	276.4202	303.0098	430.1231	492.5594	523.3964	535.3123	586.4666	678.7685	707.5205	750.5021	796.7451	819.1746	838.0355	902.003	912.0444	963.9566	1015.4467	1034.3936	1076.0364	1090.2564	1128.5358	1185.8058	1190.4037	1273.5296	1277.2433	1295.2624	1338.3754	1355.6481	1368.2918	1387.6615	1391.7769	1440.5416	1458.1838	1482.0398	1487.5242	1491.3382	1496.5077	1727.4383	1760.5299	3020.0877	3023.7214	3038.2125	3043.1346	3058.7418	3073.3656	3075.4514	3087.2957	3152.8682	3178.6555	3569.1039
O=C1CCCCC=CN1	O=C1CCCCC=CN1	
InChI=1S/C7H11NO/c9-7-5-3-1-2-4-6-8-7/h4,6H,1-3,5H2,(H,8,9)/b6-4-	InChI=1S/C7H11NO/c9-7-5-3-1-2-4-6-8-7/h4,6H,1-3,5H2,(H,8,9)/b6-4-
