18
gdb 46100	4.12786	0.93981	0.88357	2.7169	78.8	-0.2579	0.026	0.2839	1339.1266	0.147823	-401.939833	-401.931247	-401.930303	-401.973625	32.139	
N	-0.2567860948	 1.0837959847	-0.6686830893	-0.542237
C	-0.1247369958	-0.1184033273	-0.308526579	 0.416549
C	-1.1569657583	-0.9452759898	 0.4306126724	-0.322384
C	-0.696542084	-2.3914031767	 0.1835999864	-0.021889
C	-1.3278900749	-2.9780781507	-1.1009954496	-0.362452
C	-0.8751705196	-4.3327375191	-1.391067474	 0.289188
C	-0.4818093904	-5.4489842907	-1.6021032374	-0.43418
C	 0.8215150136	-2.1896406866	 0.0455069387	-0.093016
O	 0.9859604659	-0.8846601706	-0.5358310694	-0.238591
H	 0.5911698822	 1.4127608698	-1.1340670032	 0.222058
H	-1.1144989295	-0.6970068096	 1.4968638438	 0.130549
H	-2.165551577	-0.721256731	 0.0799772537	 0.134762
H	-0.9257004611	-3.0528857564	 1.0219563673	 0.094859
H	-2.4196456173	-2.9693677006	-0.9953337169	 0.13575
H	-1.0982808023	-2.3222984204	-1.9512979609	 0.147339
H	-0.1468999149	-6.4362683283	-1.8039106083	 0.199679
H	 1.3217773691	-2.2116752812	 1.0215307736	 0.110892
H	 1.2993939491	-2.9181184254	-0.612862478	 0.133125
60.7509	88.8622	149.0049	164.5522	321.5191	345.2681	353.7737	443.5144	514.9612	525.4488	623.7001	648.815	681.9637	725.8113	827.1017	854.2719	896.4725	901.5313	930.6894	968.0373	994.0566	1004.7816	1064.5231	1105.2302	1111.9578	1186.6262	1216.8815	1229.5938	1266.8959	1282.2719	1314.4729	1347.5298	1380.	1404.2496	1469.0411	1473.1612	1524.6719	1779.6006	2237.7973	3022.6154	3030.1031	3054.111	3056.1617	3090.8415	3112.8286	3124.5137	3470.2827	3506.0982
N=C1CC(CC#C)CO1	[NH][C]1C[C@@H](CC#C)CO1	
InChI=1S/C7H9NO/c1-2-3-6-4-7(8)9-5-6/h1,6,8H,3-5H2	InChI=1S/C7H9NO/c1-2-3-6-4-7(8)9-5-6/h1,6,8H,3-5H2/t6-/m1/s1
