21
gdb 84858	2.31362	1.7561	1.21881	1.6563	82.04	-0.243	0.0157	0.2588	1089.1622	0.184652	-387.090092	-387.081949	-387.081005	-387.122961	32.344	
O	 0.2045786764	 1.3120666388	-0.3046515619	-0.436608
C	 0.0665027082	-0.0539070878	 0.0738141346	 0.063916
C	 0.5909078807	-0.3220571407	 1.4631110173	-0.096253
C	 0.2647358734	-1.423867804	 2.1393275019	-0.065036
C	-0.6454684415	-2.4698232316	 1.5461986099	-0.279218
C	-1.7548267351	-1.8636103638	 0.6719914972	-0.008735
C	-2.8634942085	-1.0890895851	 1.445919874	-0.218378
C	-2.4498258573	 0.2313744747	 0.7440718926	-0.235947
C	-1.3812657536	-0.5421079575	-0.087791329	-0.00762
H	-0.3659651142	 1.8297191695	 0.2740521234	 0.278155
H	 0.6960114829	-0.5924071889	-0.6490019581	 0.097531
H	 1.2811633778	 0.4140786344	 1.8667625004	 0.090184
H	 0.6851814823	-1.6077687138	 3.1245868166	 0.087905
H	-0.0433724864	-3.1653239533	 0.9425772457	 0.110348
H	-1.0993029159	-3.0804009653	 2.3360478443	 0.101064
H	-2.1562466597	-2.6371944431	 0.012297488	 0.065788
H	-3.8804805991	-1.4215000501	 1.2241786224	 0.097768
H	-2.7339872812	-1.0884141277	 2.5319604819	 0.097642
H	-3.229844836	 0.7161915862	 0.1531980843	 0.100984
H	-2.0336909643	 0.9745510095	 1.4323722365	 0.086555
H	-1.6235374691	-0.5717512002	-1.1526954721	 0.069957
57.5434	112.0699	230.7493	280.104	313.396	357.3084	403.5834	452.482	509.2938	583.8549	692.3933	713.2594	755.2488	768.8876	816.7901	858.9214	904.7985	936.0678	968.1724	975.38	996.593	1005.297	1055.7321	1077.117	1092.0369	1115.2418	1125.8698	1174.3801	1216.874	1226.7509	1236.0054	1265.7978	1267.5034	1273.8762	1290.8028	1312.6712	1331.7701	1346.6387	1373.2452	1400.9457	1424.025	1468.8587	1478.4662	1489.7107	1705.0791	2994.3357	3001.6691	3041.759	3047.4315	3054.0085	3059.2184	3076.0445	3095.3749	3114.2203	3150.6823	3174.3956	3802.0274
OC1C=CCC2CCC12	O[C@H]1C=CC[C@H]2CC[C@@H]12	
InChI=1S/C8H12O/c9-8-3-1-2-6-4-5-7(6)8/h1,3,6-9H,2,4-5H2	InChI=1S/C8H12O/c9-8-3-1-2-6-4-5-7(6)8/h1,3,6-9H,2,4-5H2/t6-,7+,8-/m0/s1
