18
gdb 34970	4.10666	1.39234	1.33906	1.6487	81.25	-0.2313	0.0311	0.2624	1004.4354	0.149818	-364.723412	-364.716586	-364.715641	-364.754394	28.505	
C	-0.1073472766	-1.2850651169	-0.1213354588	-0.431484
C	-0.0557027239	-0.0862210777	-0.0375669347	 0.330842
C	-0.0011993746	 1.3580638555	 0.0636433461	-0.152408
C	-0.1478860093	 2.0867403748	 1.4277326074	-0.076329
C	 0.9504298098	 1.3814725898	 2.2428945563	-0.232371
C	 2.0837709607	 1.8276374856	 1.2910859786	 0.004687
C	 2.0706602725	 3.3600315012	 1.4803976054	-0.23875
C	 0.7390538632	 3.2083662101	 0.7496579106	 0.001489
N	 1.3406979004	 2.0513384638	-0.0556963264	-0.159151
H	-0.1505463883	-2.343107238	-0.2026839643	 0.196391
H	-0.6443603127	 1.8080358547	-0.7010906542	 0.107051
H	-1.1185252638	 2.270274513	 1.8893617097	 0.068102
H	 1.077689099	 1.7788349179	 3.2529958261	 0.096009
H	 0.8027309294	 0.3018237118	 2.3010650485	 0.116579
H	 3.0012107307	 1.2445701366	 1.244145034	 0.079135
H	 2.0972922902	 3.7561389348	 2.4978440242	 0.096821
H	 2.7977604932	 3.8688847011	 0.8444383019	 0.115574
H	 0.2386759002	 4.0077242317	 0.2014495694	 0.077813
128.6227	155.9141	351.6192	383.0181	473.6638	498.5619	544.2287	626.0954	647.7529	708.6499	728.5213	759.4791	828.2924	833.63	885.3952	904.2557	936.1155	959.5114	960.9989	978.3435	999.8144	1024.2246	1043.9808	1070.1786	1092.6891	1115.3992	1186.1455	1191.4867	1205.9704	1228.2951	1236.325	1257.2301	1279.8073	1302.2697	1330.2665	1377.7143	1482.2773	1513.1959	2229.9726	3045.8128	3067.7283	3072.3091	3104.3191	3114.7539	3123.0302	3132.2314	3140.4734	3501.7476
C#CC1C2CC3CC2N13	C#C[C@H]1[C@H]2C[C@@H]3C[C@H]2N13	
InChI=1S/C8H9N/c1-2-7-6-3-5-4-8(6)9(5)7/h1,5-8H,3-4H2	InChI=1S/C8H9N/c1-2-7-6-3-5-4-8(6)9(5)7/h1,5-8H,3-4H2/t5-,6-,7+,8-/m1/s1
