19
gdb 95049	2.24276	1.89587	1.21705	2.8326	75.05	-0.2373	-0.0244	0.2129	1054.0873	0.159492	-423.04659	-423.038528	-423.037584	-423.079519	30.99	
C	 0.1221506812	 1.5774340934	-0.1805169255	-0.406928
C	 0.1637708824	 0.0639696193	-0.0692308801	 0.126126
O	 0.9771502748	-0.4674801001	-1.1143352531	-0.260608
C	 1.261301722	-1.8155708888	-0.7664096824	-0.097888
C	 1.550856835	-1.793618028	 0.7374749576	-0.039484
C	 2.9038758791	-1.1327267776	 1.1447049417	-0.359213
C	 2.1138483115	 0.0724129449	 1.6730611535	 0.427816
O	 2.4183732859	 1.0777163213	 2.2475609799	-0.304601
C	 0.7661618673	-0.5246789862	 1.2308372944	-0.187498
H	 1.1208526787	 2.0063347049	-0.0709544586	 0.139761
H	-0.2807272173	 1.8687688472	-1.1542025899	 0.125942
H	-0.5183351719	 1.9983113412	 0.5998852576	 0.123292
H	-0.858190863	-0.3420999888	-0.1692784769	 0.069536
H	 0.3950916139	-2.463179491	-0.9808833237	 0.090216
H	 2.1046204884	-2.1497363579	-1.377286964	 0.111399
H	 1.3331700685	-2.7375548788	 1.2364161075	 0.080674
H	 3.4830935031	-1.653583778	 1.912551828	 0.129906
H	 3.5704367966	-0.8864100213	 0.3113772281	 0.135085
H	 0.0263240738	-0.6229031158	 2.027995506	 0.096466
53.1164	145.6577	188.3086	223.2132	315.721	342.772	432.4462	456.4028	526.9973	585.5389	672.5165	732.1903	742.6136	832.1369	860.4248	870.914	937.4196	948.4076	990.7073	1018.0978	1051.7665	1071.0885	1102.2863	1117.4861	1138.0765	1167.075	1172.5059	1226.2465	1227.765	1243.9485	1268.6091	1319.2673	1351.8167	1378.6642	1394.4568	1418.0733	1430.3036	1481.7751	1496.5887	1508.5909	1884.8352	2942.744	2969.5747	3050.7954	3052.1117	3088.4137	3095.6087	3105.3378	3120.3195	3122.6751	3134.5328
CC1OCC2CC(=O)C12	C[C@H]1OC[C@H]2CC(=O)[C@@H]12	
InChI=1S/C7H10O2/c1-4-7-5(3-9-4)2-6(7)8/h4-5,7H,2-3H2,1H3	InChI=1S/C7H10O2/c1-4-7-5(3-9-4)2-6(7)8/h4-5,7H,2-3H2,1H3/t4-,5-,7+/m1/s1
