23
gdb 109049	3.40758	1.09641	0.9512	0.272	92.33	-0.2127	0.0273	0.24	1357.4812	0.207898	-351.170383	-351.161653	-351.160708	-351.203713	34.538	
C	-0.0499525767	 1.5390055674	-0.1780739967	-0.369038
C	-0.0525763272	 0.0131628782	 0.0255085156	-0.277287
C	 0.7066006931	-0.4351445513	 1.2507005159	 0.313497
C	 0.0886335639	-0.9000865972	 2.343017378	-0.15355
C	 0.8006049417	-1.3645607471	 3.5585058787	-0.055732
C	 1.8607305021	-2.4542218465	 3.4384068039	-0.29174
C	 2.2727857159	-1.0277486945	 3.6718783251	-0.017188
C	 2.8700694964	-0.161329391	 2.5797322132	-0.219289
C	 2.2194486818	-0.3724316839	 1.1989455213	-0.317252
H	 0.966571276	 1.9345283161	-0.2726207853	 0.116051
H	-0.5954502456	 1.8122715597	-1.0870635937	 0.110218
H	-0.5250306128	 2.0428602547	 0.6694430692	 0.118427
H	-1.0888089113	-0.336764799	 0.0931382082	 0.097147
H	 0.3779136541	-0.4625935245	-0.867470858	 0.094779
H	-0.9976947987	-0.9612114654	 2.3567783128	 0.072459
H	 0.2137923731	-1.3709372969	 4.4715431383	 0.077205
H	 1.9637851622	-3.1549156222	 4.2602655527	 0.106224
H	 2.0059833583	-2.8941115151	 2.4578189421	 0.113621
H	 2.63335059	-0.7992435072	 4.6710114789	 0.080082
H	 2.7365344385	 0.8883459387	 2.8720201473	 0.100057
H	 3.9512693421	-0.327765175	 2.5043976289	 0.09469
H	 2.6012146207	-1.29898772	 0.7466357276	 0.109123
H	 2.5447738822	 0.4280237321	 0.5246902059	 0.097494
78.2685	104.0077	195.4653	217.9252	251.8029	324.7545	346.2922	436.9631	464.2296	505.312	596.2345	656.8742	750.478	765.2553	790.6873	828.6419	859.1083	867.4923	921.2308	943.1459	969.9908	977.8624	1022.7696	1055.7299	1059.0519	1069.0074	1093.0505	1116.8589	1125.2004	1133.2087	1187.7095	1216.998	1222.1121	1265.9454	1279.9337	1335.1403	1349.6974	1361.3696	1385.5267	1399.4268	1406.9186	1417.4513	1479.2036	1481.9901	1488.0701	1497.2176	1504.2042	1506.6985	1723.1687	3001.1197	3004.6895	3018.1103	3034.0782	3052.3297	3057.9301	3058.0866	3101.9977	3108.4301	3130.4166	3137.768	3141.7175	3157.6797	3216.8335
CCC1=CC2CC2CC1	CCC1=C[C@H]2C[C@H]2CC1	
InChI=1S/C9H14/c1-2-7-3-4-8-6-9(8)5-7/h5,8-9H,2-4,6H2,1H3	InChI=1S/C9H14/c1-2-7-3-4-8-6-9(8)5-7/h5,8-9H,2-4,6H2,1H3/t8-,9+/m1/s1
