16
gdb 10048	3.39475	1.35785	1.00756	1.6608	72.99	-0.2556	0.0275	0.2831	1117.816	0.127386	-346.530365	-346.521318	-346.520374	-346.563975	32.951	
O	 0.2020552527	 1.3611983934	 0.3215495349	-0.419564
C	 0.0942705111	-0.0064581905	 0.0056545053	-0.063616
C	-1.3689090745	-0.5247211483	 0.0261019906	-0.206348
C	-2.1876139045	-0.075721671	-1.2215093397	-0.356108
C	-2.2835127469	 1.3695339007	-1.4020889246	 0.285393
C	-2.3707595882	 2.5587973747	-1.5651285281	-0.438571
C	-1.3918681673	-1.9808798157	 0.1130647906	 0.315662
C	-1.3832219707	-3.1823255325	 0.1552216693	-0.445928
H	-0.2975184318	 1.8621589378	-0.334584542	 0.287702
H	 0.5433781654	-0.2483211488	-0.9715837678	 0.093737
H	 0.6645572543	-0.5452108222	 0.7671917743	 0.12183
H	-1.8395718162	-0.0987682999	 0.9208364886	 0.126104
H	-1.7329637241	-0.5260263557	-2.1124516684	 0.14558
H	-3.1967755896	-0.4956431174	-1.147092731	 0.148912
H	-2.4638413364	 3.607198719	-1.7093880861	 0.206631
H	-1.3825440434	-4.2428075334	 0.2120844439	 0.198583
68.0083	121.6246	137.0371	165.7827	225.4613	308.0169	352.5129	413.0868	437.5512	490.3303	510.2009	523.4752	627.7138	639.1197	648.2699	654.5359	853.9692	879.5366	959.1143	1007.2337	1063.9732	1078.8499	1091.5863	1188.8718	1268.9922	1276.8587	1312.227	1351.2698	1398.1711	1439.0431	1467.2212	1505.5722	2227.2025	2235.178	2973.3104	3031.4396	3040.6949	3073.4427	3091.7553	3500.3727	3503.8655	3773.323
OCC(CC#C)C#C	OC[C@@H](CC#C)C#C	
InChI=1S/C7H8O/c1-3-5-7(4-2)6-8/h1-2,7-8H,5-6H2	InChI=1S/C7H8O/c1-3-5-7(4-2)6-8/h1-2,7-8H,5-6H2/t7-/m1/s1
