16
gdb 14409	3.33123	2.14633	1.75537	3.7188	68.89	-0.2325	0.0106	0.2431	806.0646	0.130989	-346.580539	-346.573799	-346.572855	-346.611253	26.301	
C	-0.0689980575	 1.5439110864	-0.0566575496	-0.525301
C	 0.0514203563	 0.0580701712	 0.0117121212	 0.345527
C	 0.5929257009	-1.0145497873	-0.8759793389	-0.117227
C	 1.3376317465	-1.6976648464	 0.2739986999	-0.239114
C	 0.3535668979	-0.9458512847	 1.212874969	-0.229511
C	-1.0209750255	-1.549354168	 0.8618749786	 0.444045
O	-1.9125947335	-2.0142549557	 1.5164513869	-0.347545
C	-0.9097878545	-1.0323161743	-0.5348339986	-0.2377
H	 0.8762643678	 2.0325291198	 0.2045873089	 0.130189
H	-0.3426744476	 1.8642182311	-1.0671195729	 0.130583
H	-0.8378810618	 1.9127004177	 0.6308791933	 0.136604
H	 0.8902125382	-0.9310863427	-1.9146397121	 0.097297
H	 1.3392216907	-2.7920928081	 0.326342343	 0.105054
H	 2.3594192997	-1.3194733701	 0.3638966555	 0.108405
H	 0.6028381994	-0.6875206078	 2.238609031	 0.091031
H	-1.6733109569	-0.9209269911	-1.2928121254	 0.107661
118.7701	204.7899	249.9615	288.7514	414.8224	473.0907	584.8202	602.499	702.5347	751.2742	760.6563	826.6039	883.8593	918.7265	934.0396	958.8216	988.5979	1016.6874	1066.9044	1073.812	1108.0466	1124.3228	1142.6544	1178.8971	1188.8117	1209.8145	1286.3214	1298.9521	1411.7434	1449.2012	1483.6131	1495.5336	1500.1957	1875.9891	3027.7023	3040.1172	3089.4767	3100.7901	3101.8379	3161.1055	3185.6046	3216.9739
CC12C3CC1C(=O)C23	C[C@@]12[C@H]3C[C@@H]1C(=O)[C@@H]23	
InChI=1S/C7H8O/c1-7-3-2-4(7)6(8)5(3)7/h3-5H,2H2,1H3	InChI=1S/C7H8O/c1-7-3-2-4(7)6(8)5(3)7/h3-5H,2H2,1H3/t3-,4+,5-,7+/m0/s1
