19
gdb 94502	3.76205	0.76124	0.67615	3.9308	88.74	-0.2611	-0.0567	0.2043	1663.1352	0.157616	-385.864023	-385.854316	-385.853372	-385.900606	33.915	
C	-0.3060519343	 1.4731073294	 0.0139838506	-0.396457
C	-0.0071434591	-0.0200650602	-0.0269783669	 0.012182
C	 1.2214571788	-0.4089725638	-0.90178151	-0.227487
C	 2.0899118263	-0.5223032983	 0.3775518832	-0.224803
C	 0.7736497744	-0.5815531874	 1.2227395894	-0.176463
C	 0.7290756278	 0.1255405279	 2.4804833516	 0.106297
C	 0.6913792798	 0.7448286253	 3.5195564234	 0.027749
C	 0.6783977942	 1.449935714	 4.7723970836	 0.016609
O	-0.0291800524	 2.4000436757	 5.0225946694	-0.233496
H	 0.595014802	 2.0616669384	 0.2177024995	 0.120735
H	-0.7102589329	 1.8039621281	-0.9484623768	 0.115865
H	-1.0366692886	 1.7120278642	 0.7924004867	 0.133793
H	-0.9241667712	-0.5741085784	-0.2450789309	 0.078414
H	 1.090348795	-1.3734961217	-1.3994159889	 0.10493
H	 1.5361843771	 0.3257625445	-1.6464644497	 0.104563
H	 2.7606811158	-1.378406269	 0.4691231023	 0.110538
H	 2.6549116893	 0.3889563464	 0.5831319766	 0.119866
H	 0.4931243361	-1.6270084549	 1.392126946	 0.11222
H	 1.389020432	 1.0487817898	 5.5244002108	 0.094945
20.3903	63.9117	83.9168	144.952	182.8142	236.58	262.6651	331.2236	355.2321	432.3458	527.5038	638.8734	668.3238	755.3572	788.0515	883.5669	895.8498	917.924	952.4083	970.1404	1015.9466	1022.6443	1075.4634	1114.0118	1158.1222	1185.4025	1218.6668	1237.6293	1257.3302	1273.0943	1282.279	1338.2933	1366.9188	1413.8831	1423.3403	1480.8721	1492.7676	1494.7081	1499.4533	1763.3258	2314.1955	2911.2959	3033.2194	3043.5854	3057.962	3067.0086	3076.8685	3100.967	3108.6825	3111.4662	3134.1099
CC1CCC1C#CC=O	C[C@H]1CC[C@H]1C#CC=O	
InChI=1S/C8H10O/c1-7-4-5-8(7)3-2-6-9/h6-8H,4-5H2,1H3	InChI=1S/C8H10O/c1-7-4-5-8(7)3-2-6-9/h6-8H,4-5H2,1H3/t7-,8+/m0/s1
