14
gdb 133084	2.95426	1.40545	0.95811	3.0376	67.	-0.2602	-0.0329	0.2273	1131.5289	0.101967	-478.036204	-478.028847	-478.027903	-478.068414	26.811	
C	-0.0106017891	 1.4117007513	 0.0084390575	-0.238738
O	-0.0278318338	-0.0212037064	 0.0050000034	-0.256859
C	-1.2170504627	-0.623085887	 0.0122572655	 0.471675
C	-1.2487662726	-2.0269466398	 0.0087975466	-0.237557
C	-2.5035269801	-2.5977796452	 0.0165998504	 0.023626
N	-3.6424166142	-1.8808521902	 0.0269298435	-0.326418
C	-3.4579419451	-0.580020633	 0.0290046231	 0.3492
F	-4.5526748777	 0.1579231856	 0.0389404101	-0.05663
N	-2.326532407	 0.1089523134	 0.0224083304	-0.407224
H	 1.0444851297	 1.6853690826	 0.0007806372	 0.137271
H	-0.516291296	 1.809049101	-0.8749740748	 0.14606
H	-0.5021971882	 1.8045919253	 0.9017569236	 0.146033
H	-0.3367412265	-2.6072301441	 0.0004934848	 0.121059
H	-2.6220815067	-3.6778844033	 0.0146317788	 0.128501
118.3289	156.2508	215.5929	216.2471	248.6191	434.9201	476.2838	508.704	591.7659	622.3507	732.918	773.1667	812.9018	854.6156	1001.0891	1008.2559	1010.5651	1074.3117	1108.1885	1177.4627	1214.0896	1293.6836	1320.1687	1383.9908	1446.3154	1460.9908	1481.4345	1496.7341	1525.5123	1611.133	1633.9667	3052.7295	3129.2357	3159.6891	3172.3052	3233.9508
COC1=CC=NC(F)=N1	COc1ccnc(F)n1	
InChI=1S/C5H5FN2O/c1-9-4-2-3-7-5(6)8-4/h2-3H,1H3	InChI=1S/C5H5FN2O/c1-9-4-2-3-7-5(6)8-4/h2-3H,1H3
