20
gdb 22976	2.22853	1.28888	0.89387	1.3904	77.85	-0.2402	0.012	0.2522	1346.1906	0.169098	-440.227432	-440.217606	-440.216662	-440.26311	35.14	
C	-0.3223322571	 1.5474798199	-0.0507160824	-0.380089
C	-0.3590301677	 0.0375568856	-0.2822578476	-0.240553
C	 0.6459337514	-0.4775155273	-1.278201389	 0.300881
N	 1.4397712506	 0.3527764274	-1.8373429154	-0.17694
O	 2.3120034338	-0.3051977976	-2.7326179991	-0.409006
C	 0.6784081106	-1.9533803737	-1.5878559234	 0.080695
C	 1.8460475689	-2.7916720872	-1.0070914153	-0.270161
C	 0.7266333932	-3.6191335152	-0.3466468307	-0.070425
O	-0.2918482828	-2.720249922	-0.8405457178	-0.295188
H	 0.6550556481	 1.8677364644	 0.3195285811	 0.125044
H	-0.5127180772	 2.094552065	-0.9777166835	 0.126688
H	-1.0816537215	 1.834263436	 0.6826517389	 0.105282
H	-0.2073791935	-0.5028753822	 0.6612837486	 0.11697
H	-1.355692475	-0.2803783472	-0.6150789993	 0.12743
H	 2.8253415363	 0.4269290883	-3.0888784949	 0.306086
H	 0.5480932829	-2.093590432	-2.668657306	 0.105032
H	 2.4655439303	-3.3038202666	-1.742597896	 0.119328
H	 2.4859881441	-2.2455204704	-0.3131733579	 0.118493
H	 0.5968445555	-4.6330799561	-0.7448772241	 0.104345
H	 0.7317330294	-3.6662237792	 0.7484037437	 0.106089
53.2888	66.2808	84.2759	175.1649	196.2999	212.4988	268.5255	303.6149	336.7423	405.9052	511.5167	579.9685	625.3893	705.6223	779.2862	802.1403	852.3938	936.4199	957.473	964.9276	1013.4761	1031.0782	1051.0664	1081.8939	1092.3775	1117.4654	1166.6545	1209.789	1226.1473	1251.903	1260.6543	1278.6168	1350.9207	1355.3894	1370.8604	1403.3055	1414.2961	1460.6863	1490.8598	1491.4681	1501.279	1530.3676	1726.572	3015.946	3022.6543	3027.6169	3046.9135	3047.6579	3060.2506	3092.6592	3117.5753	3123.5517	3150.3028	3825.5363
CCC(=NO)C1CCO1	CCC(=NO)[C@H]1CCO1	
InChI=1S/C6H11NO2/c1-2-5(7-8)6-3-4-9-6/h6,8H,2-4H2,1H3	InChI=1S/C6H11NO2/c1-2-5(7-8)6-3-4-9-6/h6,8H,2-4H2,1H3/t6-/m1/s1
