19
gdb 90810	3.11597	1.72929	1.38928	1.3266	76.95	-0.2068	0.0766	0.2834	967.5727	0.161716	-385.830951	-385.823911	-385.822967	-385.862755	29.18	
O	-0.1694693047	 1.4794177466	 0.2135496621	-0.440463
C	 0.0310920459	 0.0806349762	 0.0098243889	 0.103722
C	 0.9654261377	-0.535405618	 1.0737859339	-0.283502
C	 0.3987483071	-1.7900194113	 1.70804711	-0.031833
C	-1.0281946457	-1.8971090514	 2.1714054506	-0.082606
C	-0.5352830775	-2.7572580715	 1.0182518531	-0.092154
C	-1.5370356166	-2.0515578943	 0.0631155553	-0.105736
C	-2.0138205678	-1.1770059114	 1.2119519044	-0.082935
C	-1.3342801933	-0.5607162376	 0.0142958337	-0.027601
H	 0.6903712703	 1.9093607048	 0.1612850262	 0.277457
H	 0.4636437008	-0.0805078209	-0.9905310858	 0.061927
H	 1.9494639651	-0.7489244616	 0.6407539342	 0.093319
H	 1.1143476381	 0.2154064599	 1.8592986831	 0.103009
H	 1.0904585499	-2.2944299745	 2.3797221221	 0.082197
H	-1.297961179	-2.2013666711	 3.1745366968	 0.082633
H	-0.3547488643	-3.8243435123	 1.0002670499	 0.082952
H	-2.1239488232	-2.5835190609	-0.6745505395	 0.083024
H	-3.0276789857	-0.9190656593	 1.4881604444	 0.085583
H	-2.0315449571	-0.0549845316	-0.6492768133	 0.091007
40.3911	256.2535	282.274	377.7309	414.2249	483.347	530.2492	597.4325	695.7325	715.9723	728.6422	747.5191	784.838	866.5235	879.6545	892.8696	933.0734	945.3614	977.4103	999.9023	1020.4887	1033.1767	1055.2376	1067.6862	1076.8209	1088.0254	1115.1929	1137.6968	1170.1423	1246.6353	1252.5541	1253.1473	1291.5129	1309.2889	1315.7317	1334.4814	1369.0878	1427.4083	1434.9022	1458.4298	1489.5152	2958.9161	3022.2959	3062.2524	3127.8505	3142.5475	3180.5151	3189.6464	3192.4859	3202.5118	3809.6324
OC1CC2C3C2C2C3C12	O[C@H]1C[C@H]2[C@@H]3[C@H]2[C@H]2[C@@H]3[C@@H]12	
InChI=1S/C8H10O/c9-3-1-2-4-5(2)8-6(3)7(4)8/h2-9H,1H2	InChI=1S/C8H10O/c9-3-1-2-4-5(2)8-6(3)7(4)8/h2-9H,1H2/t2-,3-,4+,5-,6+,7-,8+/m0/s1
