23
gdb 117779	2.40388	0.99821	0.87942	4.1987	86.8	-0.2367	0.0361	0.2728	1507.5345	0.203692	-384.48553	-384.474284	-384.47334	-384.521804	40.653	
C	-0.0360335149	 1.6158054141	 0.1851289261	-0.384801
C	 0.0345596306	 0.1080504091	-0.0437093193	-0.13037
N	 0.7083762404	-0.5386582081	 1.0826372963	-0.310372
C	 0.755912736	-2.0076505632	 1.1039051273	 0.103182
C	 1.3958115237	-2.6448602785	-0.1534070862	-0.414581
C	 1.5260712748	-2.4063187719	 2.3923914478	-0.199182
C	 1.5708047805	-3.9008159023	 2.7152339737	-0.407177
C	-0.6370398141	-2.4962818902	 1.2180142814	 0.316749
N	-1.7155335307	-2.9038571569	 1.2983661777	-0.360304
H	 0.9671313115	 2.0543411578	 0.2439524916	 0.110044
H	-0.5630654191	 2.1061278474	-0.6385939768	 0.118213
H	-0.5574089491	 1.8390623061	 1.1197243269	 0.132151
H	-0.9794754256	-0.3028401056	-0.1046113597	 0.130354
H	 0.5155030435	-0.0908187776	-1.0164997117	 0.083662
H	 1.6584679038	-0.1897435964	 1.1663546898	 0.214642
H	 2.4370579437	-2.3149658702	-0.2327770077	 0.114486
H	 1.3806537827	-3.7360780942	-0.1029726034	 0.136258
H	 0.8660503138	-2.3462888097	-1.0602616462	 0.136223
H	 2.5477372275	-2.0201702537	 2.2796735086	 0.095863
H	 1.0692510843	-1.8544296854	 3.2191581257	 0.126759
H	 0.5633054506	-4.3185633507	 2.8014913544	 0.145517
H	 2.1120963783	-4.4731378171	 1.95612947	 0.120773
H	 2.0806921376	-4.0601992126	 3.6697163836	 0.121911
73.3964	94.9178	101.3664	139.9118	162.069	200.9206	217.2405	253.0357	279.1405	302.8054	336.1873	389.0592	400.8154	455.8628	580.6274	624.8841	687.5457	720.661	793.7696	824.1041	875.9347	930.6575	953.3105	1000.8565	1021.1785	1066.1817	1091.6341	1135.9483	1152.4806	1182.5779	1194.7303	1249.6346	1301.9982	1317.7846	1359.8709	1387.2255	1403.3257	1414.3181	1417.7423	1477.3064	1477.9488	1488.1569	1494.8796	1498.0594	1502.2368	1509.0248	1512.9341	1525.0755	2353.8911	2954.0777	3024.4543	3033.685	3043.2845	3045.3538	3061.8918	3085.2729	3101.5927	3112.9004	3118.5093	3121.5889	3124.6473	3135.6459	3512.4549
CCNC(C)(CC)C#N	CCN[C@@](C)(CC)C#N	
InChI=1S/C7H14N2/c1-4-7(3,6-8)9-5-2/h9H,4-5H2,1-3H3	InChI=1S/C7H14N2/c1-4-7(3,6-8)9-5-2/h9H,4-5H2,1-3H3/t7-/m0/s1
