20
gdb 65277	4.10461	0.98815	0.86397	1.9	85.42	-0.2239	0.0311	0.255	1394.6933	0.170315	-403.132089	-403.123193	-403.122249	-403.166349	33.54	
C	 0.2572025711	 1.550891033	-0.1025008469	-0.451322
C	 0.1269234045	 0.0372329448	-0.1207360245	 0.363984
C	 1.4021795366	-0.7857484622	-0.0989577324	-0.290515
C	 0.5326157086	-0.72567899	 1.1272353506	-0.290514
N	-0.9351353779	-0.5923311595	-0.8430626677	-0.366862
C	-1.8258183311	-0.0197344399	-1.5026658028	 0.444938
C	-3.0063865661	-0.5145701556	-2.3156176217	-0.36853
C	-3.2553120644	 0.9856811549	-2.5655017627	-0.078852
O	-2.0920836505	 1.3275718764	-1.7573858765	-0.269813
H	 1.1239811935	 1.8440665163	 0.4977852447	 0.101802
H	 0.3896797163	 1.9521097482	-1.1111948528	 0.123439
H	-0.6306997495	 2.0226009816	 0.3277415351	 0.123442
H	 1.4001999961	-1.7035224545	-0.6740217685	 0.116411
H	 2.3440553839	-0.2478313921	-0.0947092282	 0.107878
H	 0.873982584	-0.1462765318	 1.9782725859	 0.107878
H	-0.0522347404	-1.6031880338	 1.3740945901	 0.116411
H	-2.7421222054	-1.1090941056	-3.192009537	 0.135287
H	-3.7718073793	-1.0380925079	-1.7399346	 0.135286
H	-3.1330650432	 1.3324391092	-3.5948939646	 0.119826
H	-4.1686403767	 1.4038625687	-2.1344679601	 0.119826
33.0155	126.5441	158.7666	179.5695	257.4101	320.5164	333.3638	334.2916	449.6221	472.7553	598.5458	720.7311	771.3455	791.6288	791.6366	843.7823	903.518	940.5013	943.0762	954.7868	962.6428	1032.4553	1044.2225	1052.2726	1071.0048	1071.2237	1115.1149	1119.124	1159.7311	1193.9385	1201.1195	1239.1516	1303.5386	1324.0708	1350.2855	1420.5984	1455.1869	1469.6733	1490.171	1490.669	1497.3855	1524.3165	1854.4475	3039.4387	3059.029	3084.4957	3109.4177	3110.2983	3114.4674	3135.582	3139.2935	3139.6925	3223.1629	3236.9353
CC1(CC1)N=C1CCO1	CC1(CC1)N=C1CCO1	
InChI=1S/C7H11NO/c1-7(3-4-7)8-6-2-5-9-6/h2-5H2,1H3	InChI=1S/C7H11NO/c1-7(3-4-7)8-6-2-5-9-6/h2-5H2,1H3
