18
gdb 57499	4.26782	0.67604	0.66411	6.2142	86.76	-0.2761	-0.0368	0.2394	1716.5879	0.14448	-401.946817	-401.936583	-401.935639	-401.982238	36.96	
C	-0.0086179015	 1.5543789416	 0.189481065	-0.391169
C	 0.0042795733	 0.0326400628	 0.0429088097	 0.340732
C	 0.7173186255	-0.6337548065	 1.2261323433	-0.422353
O	-1.3629838098	-0.3585515582	 0.0002056908	-0.444289
C	 0.7172511326	-0.3953008605	-1.2794103267	-0.412869
C	 0.088460787	 0.1176995206	-2.4825858235	 0.082818
C	-0.4283713851	 0.5444152891	-3.4880994528	 0.076302
C	-1.011346311	 1.0248345055	-4.6248042033	 0.203454
N	-1.5048228444	 1.4333439188	-5.5942201049	-0.340017
H	 1.0091901477	 1.9540190691	 0.2176019038	 0.114473
H	-0.543128327	 2.0135101037	-0.6453659321	 0.1417
H	-0.5183441067	 1.8302904762	 1.1159532215	 0.129287
H	 0.2068535655	-0.374729791	 2.1572989127	 0.132392
H	 0.7103944407	-1.7258585873	 1.1247258793	 0.107735
H	 1.7608213146	-0.3123577364	 1.3019190091	 0.121691
H	-1.4088309741	-1.3207662498	 0.0223202725	 0.280425
H	 1.7652589173	-0.0709359685	-1.251386978	 0.145986
H	 0.7365202356	-1.4926172892	-1.3296532365	 0.133703
53.4292	70.2686	155.4423	195.2081	218.6106	254.2123	292.2662	306.5666	330.1997	370.3538	388.7672	397.9712	448.878	536.6968	578.039	579.9544	749.6224	765.5297	868.2	916.8796	937.6937	987.3223	1020.8351	1123.8702	1171.5983	1180.9466	1218.9927	1249.5339	1324.6296	1379.4794	1405.0703	1423.002	1452.9163	1479.8853	1487.0427	1497.9202	1507.9468	2265.1119	2400.6786	3014.9923	3027.8111	3050.5935	3055.2922	3095.626	3120.9694	3127.3484	3133.8406	3801.253
CC(C)(O)CC#CC#N	CC(C)(O)CC#CC#N	
InChI=1S/C7H9NO/c1-7(2,9)5-3-4-6-8/h9H,5H2,1-2H3	InChI=1S/C7H9NO/c1-7(2,9)5-3-4-6-8/h9H,5H2,1-2H3
