18
gdb 28270	4.94936	1.23433	1.00022	2.2131	90.03	-0.1789	-0.0057	0.1732	1181.5068	0.150109	-364.868613	-364.861115	-364.860171	-364.900361	29.511	
C	-0.0191861673	 1.4633608793	 0.0716182574	-0.488684
C	-0.0008281101	-0.0261158985	-0.0204937613	 0.294391
C	-0.0333582171	-0.8079775291	-1.1178125895	-0.341279
C	 0.0028104269	-2.2048315636	-0.7303591923	 0.39121
C	 0.0034552727	-3.5053391717	-1.1937999683	-0.319744
C	 0.0621356359	-4.3438556098	-0.042557727	-0.138083
C	 0.0952625042	-3.5382873231	 1.0804606623	-0.130595
N	 0.0586543003	-2.2417753022	 0.6471786592	-0.024282
C	 0.0620456081	-0.9078829526	 1.2211575823	-0.284065
H	 0.8755588033	 1.8511491402	 0.5766030146	 0.126317
H	-0.065172459	 1.9166241583	-0.9220237499	 0.130363
H	-0.8823326015	 1.8251887728	 0.6460988056	 0.126333
H	-0.0795806882	-0.4578966421	-2.140409535	 0.105634
H	-0.0332342919	-3.8224995963	-2.224269255	 0.0922
H	 0.0783889687	-5.4233647249	-0.0362088012	 0.090645
H	 0.1410209793	-3.7873268553	 2.1286175814	 0.111627
H	 0.9689845372	-0.7218262275	 1.8118934393	 0.129007
H	-0.7996665418	-0.747905404	 1.8829613676	 0.129005
123.1122	163.375	203.7168	263.0946	296.9501	452.9498	472.3421	530.8655	606.4293	701.1444	705.5588	746.7071	755.6053	794.5773	822.1699	868.0212	878.5495	930.1432	971.08	1009.206	1040.5837	1074.4025	1083.6003	1158.0829	1175.6031	1191.8437	1230.2386	1283.2089	1325.8054	1332.0861	1406.279	1414.8482	1444.4949	1476.897	1480.568	1487.6985	1515.0067	1596.3439	1667.5433	3008.0252	3013.9334	3040.0771	3050.3781	3112.1372	3224.0104	3239.0482	3254.768	3267.0381
CC1=CC2=CC=CN2C1	CC1=Cc2cccn2C1	
InChI=1S/C8H9N/c1-7-5-8-3-2-4-9(8)6-7/h2-5H,6H2,1H3	InChI=1S/C8H9N/c1-7-5-8-3-2-4-9(8)6-7/h2-5H,6H2,1H3
