17
gdb 26011	4.45958	0.91881	0.88083	5.5711	75.09	-0.2119	0.0331	0.2449	1325.1376	0.137486	-418.081052	-418.07234	-418.071396	-418.116335	31.951	
N	 0.7471042141	-0.06427643	 0.4580602208	-0.519697
C	-0.2712214704	 0.2612042431	-0.383792049	 0.404336
O	-0.4733147211	 1.3948762627	-0.7739276471	-0.370317
C	-1.1589285296	-0.9084596789	-0.8485481468	-0.434502
C	-0.9046199131	-2.2601487944	-0.2514283044	 0.250489
C	-0.3002568369	-3.3309512233	-0.8763390162	-0.177949
N	-0.255176851	-4.3765306993	 0.0097696967	-0.227822
C	-0.8192363666	-4.0000248801	 1.2010260757	-0.070797
C	-1.2311283913	-2.6945355923	 1.0725338784	-0.24819
H	 1.3202179847	 0.6796636754	 0.8194152089	 0.254562
H	 0.8411717072	-0.9947098858	 0.8273353919	 0.263987
H	-2.1881088925	-0.5816928052	-0.6638988362	 0.135952
H	-1.0522580423	-0.9451716853	-1.93792118	 0.131107
H	 0.0916591547	-3.428680433	-1.8764562565	 0.122015
H	 0.1262332567	-5.2846984099	-0.1882509933	 0.264674
H	-0.8856593099	-4.6884620815	 2.028009841	 0.122391
H	-1.7258165225	-2.1089820123	 1.8331953661	 0.099763
18.2558	48.9889	114.0951	238.4594	300.2302	321.3464	383.7143	485.2425	514.0069	543.2259	641.786	654.6327	674.25	697.2309	751.5957	786.0727	831.4653	857.8158	905.4904	933.8651	979.6082	1084.7585	1094.8667	1097.5514	1163.1934	1188.3324	1277.2899	1292.128	1328.3264	1351.2054	1410.6182	1458.0641	1465.3801	1522.4035	1600.7572	1608.3217	1797.5204	3049.311	3086.732	3240.8964	3259.3328	3270.4103	3598.398	3686.2403	3735.9803
NC(=O)CC1=CNC=C1	NC(=O)Cc1c[nH]cc1	
InChI=1S/C6H8N2O/c7-6(9)3-5-1-2-8-4-5/h1-2,4,8H,3H2,(H2,7,9)	InChI=1S/C6H8N2O/c7-6(9)3-5-1-2-8-4-5/h1-2,4,8H,3H2,(H2,7,9)
