18
gdb 85018	2.27136	1.60782	1.03814	2.5025	72.75	-0.2442	-0.0351	0.2091	1159.4311	0.146732	-439.160743	-439.15155	-439.150606	-439.195191	33.291	
C	-0.3180547535	 1.5775155845	-0.0698832746	-0.392505
C	-0.0144347695	 0.0802619171	-0.012145525	-0.076818
N	 0.7536411439	-0.4260869231	-1.1370630052	-0.328396
C	 1.9006082392	-1.1146081411	-0.8408350111	 0.413866
O	 2.6915975113	-1.5545587058	-1.6448569443	-0.377072
C	 1.9857938185	-1.2293176912	 0.6852361923	-0.243816
C	 3.3766371314	-0.9817737432	 1.2673008391	-0.392868
C	 0.8958715925	-0.2876147566	 1.1783071378	 0.396297
O	 0.7607464831	 0.1452937539	 2.2919829398	-0.31086
H	 0.6012654936	 2.1539868796	-0.2078644123	 0.129758
H	-1.000167419	 1.8082106095	-0.8935484976	 0.120188
H	-0.7860350212	 1.8870924696	 0.8676603019	 0.149475
H	-0.9590534067	-0.4740011616	 0.1060350892	 0.113343
H	 0.4997366143	-0.2610716187	-2.0991417124	 0.25384
H	 1.6616712976	-2.25026742	 0.9386000637	 0.138496
H	 3.7151362018	 0.0359333223	 1.0523305204	 0.12705
H	 3.3634038516	-1.1138734816	 2.3512663928	 0.135955
H	 4.0906041511	-1.6781481435	 0.8227465156	 0.144067
47.7078	90.4554	157.9335	206.8819	211.349	235.2486	275.9224	377.7023	428.9829	510.3573	519.5428	590.9654	611.8213	674.1198	690.1051	805.5552	830.7666	928.4816	988.1757	1021.3231	1050.0189	1092.4993	1130.2309	1149.6791	1158.5567	1237.2626	1261.805	1290.8119	1331.7181	1370.5475	1401.7887	1404.8845	1431.1954	1491.0851	1491.8816	1495.8292	1496.991	1821.1986	1864.6607	2978.5994	3006.7765	3044.6444	3053.5449	3117.2873	3125.1411	3134.4188	3142.9643	3628.6533
CC1NC(=O)C(C)C1=O	C[C@H]1NC(=O)[C@@H](C)C1=O	
InChI=1S/C6H9NO2/c1-3-5(8)4(2)7-6(3)9/h3-4H,1-2H3,(H,7,9)	InChI=1S/C6H9NO2/c1-3-5(8)4(2)7-6(3)9/h3-4H,1-2H3,(H,7,9)/t3-,4+/m0/s1
