16
gdb 71506	3.1005	1.58779	1.41804	3.2898	68.16	-0.2439	-0.0059	0.238	951.2954	0.125546	-437.860609	-437.853687	-437.852743	-437.891821	27.452	
C	 0.0248371245	 1.4966339379	-0.079183872	-0.529913
C	 0.0001705439	 0.0000652821	-0.0189522549	 0.308438
N	 0.6523185277	-0.8921480432	-1.0513727287	-0.367636
C	 0.0265144528	-1.8456908896	-0.069385135	-0.059373
C	 0.560046557	-0.9552697221	 1.0762882184	 0.08983
O	-0.3266410659	-0.9940592502	 2.1936389006	-0.248501
C	-1.5746248457	-1.0004030753	 1.6017727129	 0.454919
O	-2.6007008791	-1.0250219534	 2.2092670566	-0.337544
C	-1.2528149402	-0.960980901	 0.1252436212	-0.261111
H	 1.0548546324	 1.8511528681	-0.1822190161	 0.143195
H	-0.5534801766	 1.8686293087	-0.931159408	 0.131183
H	-0.4017000164	 1.923173112	 0.8341429183	 0.144743
H	 0.0949914096	-0.8791546335	-1.9097646598	 0.21568
H	 0.0795535238	-2.9289069057	-0.1763492821	 0.102118
H	 1.6033074751	-0.9503478136	 1.3778602237	 0.117588
H	-2.0670568327	-0.9551098412	-0.5959412251	 0.096382
138.4802	195.5433	232.379	309.8115	390.61	458.3364	524.0436	610.6883	634.6953	732.5104	740.968	787.2949	848.6482	868.6915	895.2006	921.3558	932.1538	997.351	1021.5743	1056.0695	1105.6957	1120.5786	1130.8646	1141.9301	1168.1615	1209.2772	1229.583	1268.4164	1313.9835	1316.2421	1384.2877	1415.9095	1480.6937	1488.2324	1908.8742	3037.6683	3107.8218	3116.9251	3124.2809	3156.9269	3180.2945	3405.2917
CC12NC3C1OC(=O)C23	C[C@@]12N[C@H]3[C@@H]1OC(=O)[C@@H]23	
InChI=1S/C6H7NO2/c1-6-2-3(7-6)4(6)9-5(2)8/h2-4,7H,1H3	InChI=1S/C6H7NO2/c1-6-2-3(7-6)4(6)9-5(2)8/h2-4,7H,1H3/t2-,3+,4-,6-/m0/s1
