18
gdb 79305	3.76513	1.26853	1.15806	1.8155	84.68	-0.2333	0.0259	0.2592	1120.2449	0.147332	-364.717291	-364.709363	-364.708419	-364.749437	31.383	
C	-0.0444129161	 1.5576737481	 0.0327275995	-0.428716
C	 0.0787926116	 0.0516259669	-0.1054036401	 0.089692
C	 0.7670781396	-0.6225708468	-1.311220043	-0.153865
C	 2.1994007462	-0.0318711018	-1.3039925424	-0.256999
C	 2.3446989384	-0.6900849554	 0.0662765149	-0.096715
N	 1.0462157887	-0.6414187493	 0.820559352	-0.194004
C	 1.2726925444	-1.6833119229	-0.2402634058	 0.349569
C	 1.1437908573	-3.0814946865	-0.0984168318	-0.011463
C	 1.0251411597	-4.2768073958	-0.0180413612	-0.349295
H	 0.9130052693	 2.0699150672	-0.0893025772	 0.122634
H	-0.7430999714	 1.9544405118	-0.7120736175	 0.118607
H	-0.4308704673	 1.808153136	 1.0257338308	 0.131613
H	-0.8932530171	-0.4190687594	 0.0748718729	 0.089236
H	 0.2456706985	-0.8303771816	-2.2433150952	 0.082197
H	 2.8388424628	-0.5363728354	-2.0323602738	 0.115158
H	 2.3181628048	 1.0509929755	-1.3988278878	 0.10027
H	 3.233314942	-0.8334953569	 0.6665138204	 0.111681
H	 0.9217626688	-5.3301945437	 0.0645429455	 0.180401
113.7902	147.0295	175.5467	258.7661	299.4291	421.7125	451.4241	512.5753	571.0059	591.6846	623.7652	663.6416	692.9587	721.3567	801.5531	846.4765	871.1069	913.2741	949.8039	984.6943	998.4475	1047.7785	1060.2243	1081.33	1107.3199	1125.7934	1139.634	1171.7754	1227.0718	1245.0756	1279.745	1305.3824	1380.209	1401.1339	1418.6301	1485.2643	1490.5708	1512.5707	2233.1776	3038.5969	3054.201	3060.153	3104.4444	3112.1524	3124.8886	3140.251	3211.3391	3502.7053
CC1C2CC3N1C23C#C	C[C@H]1[C@H]2C[C@H]3N1[C@@]23C#C	
InChI=1S/C8H9N/c1-3-8-6-4-7(8)9(8)5(6)2/h1,5-7H,4H2,2H3	InChI=1S/C8H9N/c1-3-8-6-4-7(8)9(8)5(6)2/h1,5-7H,4H2,2H3/t5-,6+,7+,8-,9?/m0/s1
