17
gdb 99792	2.44763	0.98105	0.84527	4.748	78.37	-0.2464	0.0015	0.2479	1451.335	0.133077	-417.976726	-417.965891	-417.964947	-418.014042	37.115	
C	-0.0113566609	 1.4784866506	-0.0166931543	-0.50329
C	 0.0016459252	 0.0241129209	-0.0352332588	 0.110197
C	 0.0160092177	-1.179376298	-0.0433547622	 0.049786
C	 0.0104280258	-2.6466970304	-0.0681665594	 0.00651
O	-1.3064147938	-3.1690955916	-0.2310877732	-0.433487
C	 0.8115920774	-3.1817956097	-1.2771027732	-0.154077
N	 0.8136846145	-4.6338681299	-1.2596147427	-0.507138
C	 0.594181223	-3.1529500308	 1.2035990387	 0.285885
N	 1.0153055009	-3.5062661106	 2.2195041599	-0.34386
H	 0.7673847257	 1.8871395966	-0.6691947168	 0.158423
H	-0.9749778546	 1.867528212	-0.3623351325	 0.157652
H	 0.1627699662	 1.8606943235	 0.9945594677	 0.161511
H	-1.8566011573	-2.8263333522	 0.4823052898	 0.297151
H	 0.3556780319	-2.7153466274	-2.1647886248	 0.106434
H	 1.8385861416	-2.8156584886	-1.1949126384	 0.128129
H	-0.1218437189	-4.9824533266	-1.4372803887	 0.245005
H	 1.4229234556	-4.996472098	-1.9836537712	 0.235167
18.8065	79.9622	93.1608	126.1525	168.1897	215.2195	239.9933	273.351	298.3022	340.143	354.8547	393.3999	465.5613	518.7625	549.0768	608.7279	690.1843	838.0287	897.9494	930.9889	1022.9233	1052.1669	1052.3848	1086.5406	1108.657	1196.9782	1221.366	1333.1721	1353.0765	1412.6933	1419.4177	1474.222	1475.4639	1491.3826	1648.9126	2357.7409	2371.2635	2978.7686	3033.1407	3094.8789	3097.1878	3098.7435	3519.4095	3603.3413	3809.6139
CC#CC(O)(CN)C#N	CC#C[C@@](O)(CN)C#N	
InChI=1S/C6H8N2O/c1-2-3-6(9,4-7)5-8/h9H,4,7H2,1H3	InChI=1S/C6H8N2O/c1-2-3-6(9,4-7)5-8/h9H,4,7H2,1H3/t6-/m1/s1
