19
gdb 121169	3.33924	0.893	0.76878	0.8323	72.14	-0.2549	0.0699	0.3248	1484.8271	0.157417	-460.108135	-460.098848	-460.097904	-460.143091	33.255	
O	 0.0563550514	 1.4003242277	-0.1655336884	-0.42297
C	 0.0124481896	 0.0221865978	 0.1726613862	-0.076124
C	-1.3369423018	-0.5218358967	-0.2826999892	-0.197588
C	-1.4918202145	-2.0006028786	 0.0150928197	 0.04863
O	-1.4733091383	-2.2964430557	 1.4404925278	-0.301808
C	-2.7244009613	-3.0161971399	 1.3827478896	-0.150553
C	-2.8776373783	-2.6401705691	-0.0860546518	 0.357751
C	-4.0487127588	-2.3021525408	-0.8899644011	-0.256348
O	-3.2979473521	-3.5107192549	-1.1089486545	-0.260469
H	 0.8750127232	 1.7673766274	 0.1802413283	 0.286498
H	 0.8237360041	-0.5370270369	-0.3225619364	 0.084558
H	 0.1177391349	-0.1334027898	 1.2558637164	 0.110087
H	-2.1349567389	 0.0417787762	 0.212976402	 0.107163
H	-1.4401998433	-0.3604444548	-1.3631456708	 0.110344
H	-0.7270141726	-2.5911755767	-0.510988852	 0.087806
H	-2.5985795615	-4.0926378816	 1.5558094519	 0.115151
H	-3.4666544953	-2.6157967273	 2.0831017466	 0.111748
H	-5.0467073154	-2.4424772053	-0.4767340585	 0.120995
H	-3.9715755409	-1.5568981109	-1.6800183956	 0.12513
67.1739	93.2325	107.6038	114.5727	245.8215	262.2833	283.7276	337.9949	350.1349	462.8789	542.802	580.9034	791.1424	831.1905	867.4488	892.468	921.6356	947.9594	1013.5046	1015.7945	1065.6997	1084.4227	1097.7878	1124.0288	1141.8686	1150.9261	1164.1106	1193.6598	1218.3859	1236.7164	1277.0789	1311.3221	1315.6497	1338.0425	1396.3255	1455.0668	1461.1337	1479.3815	1514.046	1529.8603	1544.6759	2963.3959	2997.0935	3016.434	3017.4525	3034.3038	3064.9512	3084.9389	3084.9973	3172.7585	3831.4798
OCCC1OCC11CO1	OCC[C@H]1OC[C@]21CO2	
InChI=1S/C6H10O3/c7-2-1-5-6(3-8-5)4-9-6/h5,7H,1-4H2	InChI=1S/C6H10O3/c7-2-1-5-6(3-8-5)4-9-6/h5,7H,1-4H2/t5-,6-/m1/s1
