20
gdb 111157	4.11399	1.08557	0.99843	2.3808	80.56	-0.2365	0.0819	0.3184	1258.1776	0.171351	-403.048479	-403.040248	-403.039303	-403.081299	31.925	
C	 0.1874940035	 1.2958079293	 0.1727211164	-0.245162
O	-0.3088920277	 0.0389499346	-0.2334376726	-0.259003
C	 0.4514608884	-0.5512702406	-1.2454256289	 0.199874
C	 1.7606237004	-1.3409067837	-0.8743384847	-0.209423
C	 0.825384196	-2.4057727727	-0.2095201445	-0.230471
C	 0.115861611	-2.0328894256	-1.5537358019	-0.182229
C	 1.5148766174	-2.0928179418	-2.1901752313	 0.462182
C	 2.0551260437	-1.9757611737	-3.5506379225	-0.360506
N	 2.176759691	-3.2428101319	-2.7635839834	-0.403959
H	 1.1880220577	 1.2167315563	 0.6230403471	 0.107754
H	 0.2440035083	 2.0005664253	-0.6714360097	 0.105971
H	-0.5054072487	 1.6931019852	 0.9180002487	 0.1286
H	 0.5396179934	 0.1207286118	-2.1114168967	 0.063448
H	 2.7066137157	-0.9452988616	-0.5008686284	 0.068372
H	 1.2201504948	-3.4209822616	-0.1432618524	 0.10053
H	 0.3152085573	-2.0957298902	 0.7008629179	 0.110257
H	-0.8182365196	-2.4270526045	-1.9520476338	 0.080987
H	 1.4065366464	-2.0488927627	-4.4195310104	 0.121717
H	 2.9514588786	-1.3796914134	-3.7059099914	 0.111368
H	 3.1238661526	-3.3315040483	-2.4016468975	 0.229693
87.7642	142.4224	167.757	225.351	274.9889	326.3636	363.7683	438.2455	495.879	601.1887	661.7128	745.6332	810.9569	876.4453	896.6656	918.0532	925.4579	932.3523	971.1781	1010.6771	1027.8118	1044.9207	1068.8213	1080.7879	1113.6082	1121.2872	1151.4177	1162.3602	1184.1406	1194.9882	1204.133	1216.4649	1234.5335	1257.5388	1261.1516	1279.5628	1401.644	1444.6119	1481.9475	1487.9151	1502.4722	1509.7405	1536.6802	2977.2857	3001.6174	3026.7799	3082.9219	3100.8952	3102.6018	3117.6817	3127.7454	3162.9142	3185.8566	3486.5383
COC1C2CC1C21CN1	CO[C@H]1[C@H]2C[C@@H]1[C@]12CN1	
InChI=1S/C7H11NO/c1-9-6-4-2-5(6)7(4)3-8-7/h4-6,8H,2-3H2,1H3	InChI=1S/C7H11NO/c1-9-6-4-2-5(6)7(4)3-8-7/h4-6,8H,2-3H2,1H3/t4-,5+,6+,7-
