18
gdb 114796	3.56563	1.26535	1.11539	2.5243	71.85	-0.2446	0.0192	0.2638	1131.5678	0.14856	-439.070366	-439.062487	-439.061543	-439.103387	29.325	
C	 0.0743148498	 1.2246732658	-0.2645338781	-0.238541
O	-0.0008100956	-0.0899023145	 0.240725423	-0.225846
C	-1.2902119559	-0.6179691744	 0.2086015282	 0.153073
C	-1.8716222704	-1.1014240098	-1.1645188168	-0.292668
C	-2.2249621365	-2.4583096304	-0.51129306	 0.074925
O	-1.5037365791	-3.5836549572	-1.0565101846	-0.226461
C	-0.3749866076	-3.6629150734	-0.3018295521	 0.115401
N	-0.2102977781	-2.8921130633	 0.6913869289	-0.244223
C	-1.4191791547	-2.0624781938	 0.7661408334	-0.070612
H	 1.11297843	 1.5487237306	-0.1688247751	 0.13239
H	-0.2161356194	 1.2777162649	-1.3247572046	 0.107891
H	-0.5692779407	 1.9149310434	 0.3037467307	 0.104571
H	-1.9972119154	 0.0572309295	 0.7181926364	 0.064824
H	-2.7041832339	-0.5284978657	-1.5777759476	 0.105813
H	-1.0968357169	-1.2173801741	-1.9261140847	 0.121376
H	-3.2789206547	-2.7252838885	-0.4435784131	 0.091851
H	 0.322390296	-4.4283939562	-0.6236374538	 0.141776
H	-1.871636227	-2.147529223	 1.7571934099	 0.08446
65.8611	102.3896	168.666	204.2865	302.1152	376.1799	426.6254	469.8149	573.1128	701.3204	735.3438	802.4612	858.3637	870.425	915.0317	922.3075	968.2999	997.3332	1046.8228	1072.0577	1085.0167	1104.9208	1125.7802	1179.2997	1185.8157	1192.0998	1240.8879	1245.0199	1270.0165	1291.0128	1313.6246	1323.6764	1356.1634	1393.8233	1464.7052	1483.2112	1488.9342	1508.5229	1689.4174	2961.2608	2974.4054	3020.5675	3069.3185	3075.1367	3118.0306	3119.6233	3133.6555	3217.513
COC1CC2OC=NC12	CO[C@H]1C[C@H]2OC=N[C@@H]12	
InChI=1S/C6H9NO2/c1-8-4-2-5-6(4)7-3-9-5/h3-6H,2H2,1H3	InChI=1S/C6H9NO2/c1-8-4-2-5-6(4)7-3-9-5/h3-6H,2H2,1H3/t4-,5+,6-/m0/s1
