19
gdb 74035	2.24811	1.82845	1.07873	2.1188	78.84	-0.2337	0.0127	0.2464	1122.7006	0.159963	-423.000259	-422.992154	-422.99121	-423.032782	30.9	
C	 0.0308573603	 1.4856146395	-0.0435411403	-0.485321
C	-0.0496881579	-0.0021458773	 0.1361210908	 0.111598
C	-1.1605050503	-0.7255479186	 0.133572205	 0.142541
C	-2.5689370998	-0.6824177634	-0.4053956223	-0.158769
O	-2.438081666	-2.0869892376	-0.7799237369	-0.306272
C	-1.2214517509	-2.2178126213	 0.0077177201	 0.089006
C	 0.0695166111	-2.6985386782	-0.6434952617	-0.126729
O	 1.1149739466	-2.1916508574	 0.1841380231	-0.255911
C	 1.2520734581	-0.7769735044	 0.2008368709	-0.130373
H	 0.6500294477	 1.7484296666	-0.9104506217	 0.128413
H	-0.9595777273	 1.9259777923	-0.184505286	 0.127712
H	 0.4897421199	 1.9688636891	 0.8284952729	 0.131771
H	-3.3711312642	-0.5435729424	 0.3328929587	 0.106701
H	-2.7582325588	-0.0331023762	-1.2684033499	 0.115256
H	-1.4188880108	-2.7802751466	 0.930352728	 0.085498
H	 0.1935743169	-3.784331155	-0.6504482258	 0.110041
H	 0.131945535	-2.3207259781	-1.674796277	 0.096596
H	 1.8754087768	-0.4494784391	-0.6516819705	 0.098585
H	 1.8190965236	-0.5475916519	 1.1118154425	 0.119657
141.356	149.9439	167.6092	217.5788	271.7579	292.2139	409.6271	430.2709	466.6465	524.9691	623.3917	669.01	831.5839	902.5405	931.8348	945.7795	967.1445	975.805	1003.9059	1047.4725	1079.6433	1099.841	1122.1745	1130.2594	1136.733	1150.2145	1223.9341	1247.1494	1271.7399	1287.5459	1328.3913	1359.0814	1374.9147	1402.7693	1412.9122	1478.551	1484.744	1491.3363	1502.2051	1512.388	1808.8865	2938.3395	2997.2417	3000.4136	3013.4744	3018.3063	3040.1556	3053.8669	3065.2165	3099.0651	3113.5909
CC1=C2COC2COC1	C[C]1[C]2CO[C@H]2COC1	
InChI=1S/C7H10O2/c1-5-2-8-4-7-6(5)3-9-7/h7H,2-4H2,1H3	InChI=1S/C7H10O2/c1-5-2-8-4-7-6(5)3-9-7/h7H,2-4H2,1H3/t7-/m0/s1
