21
gdb 57907	2.90423	1.08989	0.9915	2.772	82.8	-0.2204	0.0135	0.2339	1332.9487	0.181193	-420.398818	-420.388426	-420.387482	-420.434965	36.615	
C	-0.1206878278	 1.4485371897	-0.0994742705	-0.343742
N	 0.124943906	 0.0208910987	-0.2267487254	-0.099566
C	 1.0370838112	-0.5455833409	 0.751216846	-0.340906
C	-0.4668247745	-0.6617374616	-1.2596058334	 0.425454
O	-1.1050144898	-0.0853012376	-2.132355782	-0.393402
C	-0.2969011059	-2.1612911493	-1.2769348046	-0.131658
C	-1.0788686787	-2.9245827009	-2.2940271036	-0.238456
N	 0.362945055	-2.8323149634	-2.4176792622	-0.09189
C	 0.8973622123	-2.0222422996	-3.5114681151	-0.326396
H	 0.801041537	 2.0208636851	-0.2657032544	 0.12195
H	-0.860798553	 1.7390169971	-0.8424506315	 0.170533
H	-0.490642053	 1.6818519717	 0.9065308477	 0.120346
H	 1.8810023513	 0.1392327114	 0.8945733496	 0.129389
H	 0.5556937121	-0.6906349708	 1.7283555727	 0.125534
H	 1.4428048361	-1.4973339687	 0.4130148664	 0.153719
H	-0.0916868515	-2.6435896608	-0.3270676107	 0.092183
H	-1.4732409147	-3.9037528966	-2.0339548353	 0.109713
H	-1.6916528876	-2.3202170566	-2.9582044762	 0.13853
H	 0.2940710524	-1.1392147616	-3.7543019757	 0.142691
H	 1.9109089253	-1.6989948409	-3.2517007246	 0.114477
H	 0.9652611879	-2.6616046843	-4.3971028472	 0.121497
38.0896	82.5917	96.5197	138.885	188.3248	211.8184	222.4678	254.5667	346.077	388.1795	403.4182	426.1255	472.1421	609.0611	719.2218	751.5921	818.3685	874.8524	963.3755	1022.7359	1044.463	1081.7391	1095.0638	1121.083	1131.2524	1137.2816	1154.108	1174.5396	1177.4043	1217.8987	1282.9468	1325.0791	1372.3047	1427.8092	1442.8001	1444.7151	1474.3099	1487.054	1492.4768	1497.0028	1500.8873	1506.2859	1511.913	1540.2048	1728.6956	3005.8038	3015.5143	3017.6439	3059.5861	3063.6518	3088.4276	3100.6762	3101.6472	3146.5775	3166.398	3174.2592	3196.6291
CN(C)C(=O)C1CN1C	CN(C)C(=O)[C@H]1CN1C	
InChI=1S/C6H12N2O/c1-7(2)6(9)5-4-8(5)3/h5H,4H2,1-3H3	InChI=1S/C6H12N2O/c1-7(2)6(9)5-4-8(5)3/h5H,4H2,1-3H3/t5-,8?/m1/s1
