15
gdb 31588	3.40027	1.16493	0.87244	0.8843	64.44	-0.1646	0.065	0.2296	1252.9365	0.111322	-491.103816	-491.094196	-491.093251	-491.138689	33.014	
C	-0.0457039937	 1.3886917486	 0.0534330881	-0.234164
O	-0.0308291805	-0.0380121637	 0.0488039901	-0.270451
C	-1.2410524239	-0.6090630597	-0.021709457	 0.482829
N	-2.4098177808	-0.0252146696	-0.0852312023	-0.442834
C	-3.3191044095	-1.0653885277	-0.1408775429	 0.193437
O	-4.6643879945	-0.857991266	-0.2158594747	-0.460366
C	-2.686652194	-2.2671483754	-0.1102011835	 0.287551
O	-3.0785475411	-3.5701893737	-0.1374385817	-0.450034
N	-1.3286172024	-1.9660095754	-0.0321678804	-0.397665
H	 0.9986163637	 1.6966471874	 0.1127404392	 0.130797
H	-0.50611469	 1.7750916326	-0.8610657898	 0.137324
H	-0.6048671306	 1.768301277	 0.9141563832	 0.137291
H	-4.791872624	 0.0968246903	-0.2191113392	 0.299521
H	-4.0399148984	-3.5794296665	-0.1921542364	 0.312718
H	-0.5699716901	-2.6244686284	 0.0072947173	 0.274046
69.551	86.3579	147.584	156.404	197.9638	228.4136	256.9279	278.5181	316.6153	399.4759	422.6729	555.153	649.6674	660.0232	676.5515	711.2108	835.4735	1017.2493	1088.6419	1121.6476	1150.3101	1183.0054	1220.6574	1259.4073	1328.202	1367.6813	1457.4274	1476.7557	1496.9909	1509.2242	1523.8125	1625.7838	1750.4906	3038.0086	3106.4312	3151.0586	3680.7437	3826.0197	3836.439
COC1=NC(O)=C(O)N1	COc1nc(O)c(O)[nH]1	
InChI=1S/C4H6N2O3/c1-9-4-5-2(7)3(8)6-4/h7-8H,1H3,(H,5,6)	InChI=1S/C4H6N2O3/c1-9-4-5-2(7)3(8)6-4/h7-8H,1H3,(H,5,6)
