15
gdb 75066	2.34776	1.95328	1.16049	2.8788	67.74	-0.2358	-0.0476	0.1882	1007.0738	0.11303	-453.952876	-453.945115	-453.944171	-453.985133	29.373	
N	 0.0283294168	 1.3443594002	-0.0481129315	-0.575682
C	-0.0081831397	-0.0239273186	-0.0314515713	 0.307929
N	-1.0777234949	-0.7334853625	-0.021337175	-0.30498
C	-0.720784023	-2.1546785741	-0.0284635992	-0.287459
C	 0.8063017891	-2.2364169014	 0.0732317091	 0.321686
O	 1.5072785693	-3.202523061	 0.2094417621	-0.306231
C	 1.2645166497	-0.7973096415	-0.0653340757	 0.256547
C	 2.4869489922	-0.4353984773	-0.8104140626	-0.230763
O	 2.4293870422	-0.3145325446	 0.6056659424	-0.270368
H	 0.8423037143	 1.751628225	 0.3900343755	 0.265757
H	-0.8445590027	 1.7948334872	 0.1881028322	 0.262834
H	-1.1992430107	-2.686646188	 0.8024625701	 0.141211
H	-1.0567901509	-2.6509147893	-0.9490869363	 0.138897
H	 3.1137454684	-1.2450555853	-1.179637925	 0.147046
H	 2.5075356699	 0.4983932211	-1.3687952446	 0.133576
80.6686	220.0263	232.7618	246.8002	258.1137	309.8239	464.9304	511.5144	563.9255	573.2035	608.6475	637.6581	706.3672	733.8325	847.5472	881.1388	939.9675	990.7148	998.6269	1072.176	1135.2445	1144.5571	1168.5025	1185.7693	1200.6259	1291.6589	1374.2375	1458.5319	1466.8714	1508.5071	1622.7938	1716.7197	1863.9588	3022.4282	3058.9183	3091.9895	3193.141	3560.495	3671.1839
NC1=NCC(=O)C11CO1	NC1=NCC(=O)[C@]21CO2	
InChI=1S/C5H6N2O2/c6-4-5(2-9-5)3(8)1-7-4/h1-2H2,(H2,6,7)	InChI=1S/C5H6N2O2/c6-4-5(2-9-5)3(8)1-7-4/h1-2H2,(H2,6,7)/t5-/m0/s1
