17
gdb 125670	3.00935	1.29038	0.96353	1.1055	75.14	-0.231	0.0218	0.2528	1203.7033	0.136999	-418.010177	-418.001903	-418.000959	-418.04378	30.149	
C	 0.1809893682	 1.5112364119	-0.1978875282	-0.499901
C	 0.0490924938	 0.0295678457	-0.0358147779	 0.262829
N	 0.0660063671	-0.7724693567	-1.0988282949	-0.284768
N	-0.0743174079	-2.0140303248	-0.5929572661	-0.190077
C	-0.1779574277	-2.0315082557	 0.7555031946	-0.120116
C	-0.1071691406	-0.7153041875	 1.1653510464	 0.154336
C	-0.1719699221	-0.2149782222	 2.5517892877	-0.060823
C	-1.3332372926	-0.4519377891	 3.4321802583	-0.172211
O	-0.1292407846	-1.2013811287	 3.5894223298	-0.233436
H	 1.03044419	 1.904428854	 0.3725341651	 0.127693
H	 0.3338011919	 1.7541105137	-1.2513339724	 0.1431
H	-0.7143129763	 2.0385305813	 0.1503830769	 0.128027
H	-0.0702161265	-2.7988343321	-1.2213163806	 0.27426
H	-0.2725348305	-2.9439212866	 1.3214374306	 0.148087
H	 0.4269501574	 0.6728861491	 2.7602187753	 0.094446
H	-1.5578236711	 0.2469708398	 4.2374640868	 0.115149
H	-2.1829079886	-1.008218152	 3.0395557084	 0.113406
56.4533	110.5291	150.314	169.377	267.6849	287.9577	432.8671	483.7315	504.7808	617.1786	673.3793	714.0227	735.1925	811.924	855.2839	905.387	949.8356	1006.414	1007.2586	1066.526	1079.0128	1096.9918	1131.3025	1157.9075	1170.5888	1218.6587	1274.508	1324.8924	1390.9402	1412.527	1419.7597	1477.6433	1484.1466	1491.5271	1511.0623	1532.0132	1612.5174	3030.8503	3078.9932	3079.8761	3096.0169	3133.0627	3171.8789	3272.3694	3680.6307
CC1=NNC=C1C1CO1	Cc1n[nH]cc1[C@H]1CO1	
InChI=1S/C6H8N2O/c1-4-5(2-7-8-4)6-3-9-6/h2,6H,3H2,1H3,(H,7,8)	InChI=1S/C6H8N2O/c1-4-5(2-7-8-4)6-3-9-6/h2,6H,3H2,1H3,(H,7,8)/t6-/m1/s1
