23
gdb 113783	2.90541	0.95676	0.9162	1.8707	85.63	-0.2519	0.081	0.3329	1451.2022	0.203897	-388.26267	-388.252628	-388.251683	-388.298217	37.623	
C	-0.2010517514	 1.6991329058	-0.2022635323	-0.372066
C	-0.027073765	 0.2251669734	 0.1829740999	-0.202902
C	-1.3484365925	-0.5119513169	 0.267309405	 0.02056
C	-1.9854428635	-1.1245896066	-0.9555328994	-0.315169
C	-1.4652299419	-2.0184971982	 0.1462557017	-0.098546
C	-0.2861450552	-2.9521536201	-0.0154715082	 0.406366
C	 0.3577368234	-3.1026508627	-1.3765626923	-0.470465
C	 0.4879346657	-3.3062209175	 1.1885555659	-0.215832
O	-0.4818340154	-4.2106436579	 0.6607511774	-0.282321
H	 0.7633369022	 2.2144814706	-0.2504482097	 0.109946
H	-0.6857523786	 1.7952967957	-1.1793861262	 0.118449
H	-0.824400354	 2.2262487259	 0.5284086475	 0.114444
H	 0.6313208619	-0.2642030383	-0.5435692352	 0.097195
H	 0.4897518888	 0.1597839906	 1.1495625572	 0.097581
H	-2.0412051507	-0.0666820505	 0.9789307077	 0.08075
H	-3.0581866514	-1.0469357818	-1.0947336226	 0.111208
H	-1.4187988431	-1.0830832222	-1.8802755579	 0.11033
H	-2.2182846596	-2.4716088881	 0.7838950142	 0.09964
H	 0.7946595193	-2.1635473823	-1.7297903526	 0.123234
H	 1.1493144537	-3.8545283911	-1.3327286409	 0.124558
H	-0.3833414938	-3.4251661137	-2.1149939768	 0.130812
H	 1.5265555961	-3.6240708236	 1.0953683867	 0.104835
H	 0.2299866447	-2.8499907206	 2.1438885608	 0.107391
38.0349	70.6645	120.7728	197.5725	221.5397	241.7947	267.9279	333.8466	360.2093	381.5981	404.8675	458.2096	590.6337	688.2165	759.2937	796.1022	811.7312	845.6035	883.2268	917.8108	944.2826	968.978	973.9866	1028.1413	1048.7019	1075.2904	1093.2102	1108.0319	1126.46	1137.2389	1148.1519	1161.6999	1201.1685	1227.2632	1294.4603	1296.0537	1339.3497	1348.3235	1404.2532	1409.5882	1418.6214	1430.5942	1481.024	1482.4641	1497.6458	1498.1023	1499.8604	1506.8683	1526.0385	3020.8026	3031.6154	3040.5664	3061.2908	3071.8314	3099.7275	3104.6063	3105.9301	3120.6083	3125.1645	3130.192	3153.2678	3156.9312	3212.432
CCC1CC1C1(C)CO1	CC[C@H]1C[C@H]1[C@@]1(C)CO1	
InChI=1S/C8H14O/c1-3-6-4-7(6)8(2)5-9-8/h6-7H,3-5H2,1-2H3	InChI=1S/C8H14O/c1-3-6-4-7(6)8(2)5-9-8/h6-7H,3-5H2,1-2H3/t6-,7+,8+/m0/s1
