18
gdb 45360	2.90877	1.66063	1.45967	3.4023	71.61	-0.259	0.0224	0.2813	959.8683	0.151289	-439.117406	-439.110467	-439.109523	-439.149003	27.8	
N	-0.0295476247	 1.3095935915	-0.4594770316	-0.513004
C	 0.0091857243	 0.1107381853	-0.0603674581	 0.390792
C	-1.2771806009	-0.6808712082	 0.134534883	-0.289701
C	-1.0989898625	-1.9363450921	 1.0026346759	-0.064271
C	-0.5999793554	-1.5833818771	 2.4128701749	-0.080722
O	 0.8268659542	-1.4208666248	 2.27682059	-0.256507
C	 1.1868224943	-1.7237047374	 0.9560832025	 0.20893
C	 0.1233023323	-2.6995194538	 0.465324225	-0.261051
O	 1.2001210663	-0.5381311625	 0.1431599503	-0.257394
H	 0.9201191046	 1.6738950675	-0.5617090091	 0.220883
H	-2.0286915526	-0.0001380646	 0.541233672	 0.136217
H	-1.6307966795	-0.9776581867	-0.8603144654	 0.131459
H	-2.018201679	-2.5248411415	 1.0276520648	 0.081958
H	-1.0295832474	-0.6550517124	 2.803191492	 0.117665
H	-0.7963792061	-2.3892983562	 3.1306669883	 0.1061
H	 2.2193887478	-2.0722112232	 0.9449707229	 0.099231
H	 0.2512936072	-3.671960965	 0.9492161953	 0.113343
H	 0.1313764971	-2.8293534387	-0.6184390426	 0.116071
73.3159	152.8387	342.6132	383.5678	422.6231	461.2879	504.675	542.363	610.4884	745.9108	787.05	849.1351	866.5638	899.9669	914.6274	922.8518	935.0965	952.6441	991.0222	1026.5013	1058.4765	1074.4258	1091.987	1121.6955	1172.3507	1186.1633	1211.0665	1270.8774	1300.5829	1315.6278	1323.8308	1342.1032	1372.6186	1396.2111	1415.4425	1469.0461	1490.9605	1528.3155	1752.6741	3026.0832	3041.6809	3066.2342	3076.1057	3095.0937	3106.3665	3126.3623	3126.9905	3463.4611
N=C1CC2COC(C2)O1	[NH][C]1C[C@@H]2CO[C@@H](C2)O1	
InChI=1S/C6H9NO2/c7-5-1-4-2-6(9-5)8-3-4/h4,6-7H,1-3H2	InChI=1S/C6H9NO2/c7-5-1-4-2-6(9-5)8-3-4/h4,6-7H,1-3H2/t4-,6+/m0/s1
