17
gdb 117737	2.28084	1.11779	0.9679	5.3228	70.55	-0.2681	-0.051	0.2171	1304.4404	0.133381	-455.142613	-455.1326	-455.131656	-455.178306	34.622	
C	-0.1515414982	 1.4365967905	-0.2656734955	-0.323777
N	 0.0409351547	-0.0035613411	-0.1057500519	-0.309103
C	 0.9691342059	-0.6000473147	-1.052406124	-0.182616
C	 0.7222745531	-2.1399234029	-1.0540647385	 0.109354
O	-0.6499949867	-2.3940477247	-1.1780202323	-0.440702
C	 1.4300478068	-2.7302570406	-2.2852981506	 0.139322
O	 2.5999709608	-2.9804552815	-2.3354783014	-0.230341
C	 1.2685053998	-2.7149574216	 0.1965569367	 0.279067
N	 1.6617014697	-3.124645942	 1.202770241	-0.337316
H	 0.7785992188	 2.0202007838	-0.1845491798	 0.116489
H	-0.5932251905	 1.6377598873	-1.246850435	 0.135537
H	-0.8493196328	 1.7920848078	 0.4967604709	 0.136384
H	 0.3423329381	-0.2110806225	 0.8418816177	 0.246679
H	 0.72307825	-0.2242589248	-2.0525374301	 0.123383
H	 2.0322664139	-0.3955345063	-0.8625119032	 0.131723
H	-1.0740473315	-1.6464700894	-0.7164883709	 0.293384
H	 0.731188328	-2.8547822074	-3.139022553	 0.112531
54.7559	74.5851	118.2982	150.3762	179.6426	200.3846	243.352	281.6658	350.2718	366.9061	430.3698	476.7194	595.7537	635.9499	708.6861	743.4881	822.9783	901.4633	966.1533	987.5593	1049.2753	1096.2172	1132.318	1153.9316	1182.1146	1228.094	1298.9609	1361.1788	1382.846	1415.6718	1460.475	1484.7792	1492.2322	1504.4999	1518.7192	1848.8922	2354.0268	2924.788	2985.5461	3006.2958	3067.1538	3075.1882	3118.9994	3515.0188	3600.841
CNCC(O)(C=O)C#N	CNC[C@@](O)(C=O)C#N	
InChI=1S/C5H8N2O2/c1-7-3-5(9,2-6)4-8/h4,7,9H,3H2,1H3	InChI=1S/C5H8N2O2/c1-7-3-5(9,2-6)4-8/h4,7,9H,3H2,1H3/t5-/m1/s1
