20
gdb 68831	2.71195	1.43471	1.21543	1.3034	79.71	-0.2313	0.0713	0.3026	1112.6413	0.169975	-403.091496	-403.082614	-403.081669	-403.124455	34.687	
C	 0.0030201125	 1.6046299749	 0.0493144083	-0.504506
C	-0.0539502309	 0.1046722469	 0.0737159568	 0.203526
C	 1.1159898347	-0.7771444224	-0.3477070747	-0.399868
C	 0.5629586571	-0.9001867713	 1.0449023413	 0.357177
O	 1.303439223	-0.5906161005	 2.1721459991	-0.464497
C	-0.7151895888	-1.7522134378	 1.0536749401	-0.374761
C	-1.3080657791	-0.7528403337	 0.0382990521	 0.333452
C	-2.7027027967	-0.289024777	-0.0881650799	-0.316967
N	-2.0894907236	-1.1369974848	-1.1371020672	-0.37069
H	 0.9920314004	 1.9566995771	 0.3581351702	 0.129519
H	-0.1909211517	 2.0040234147	-0.9537980169	 0.114648
H	-0.7341621414	 2.040449062	 0.7321763744	 0.122814
H	 0.9883726749	-1.5690618345	-1.0824375366	 0.110449
H	 2.0637645899	-0.2496930708	-0.4039341723	 0.109547
H	 1.9993667063	-1.2498086444	 2.2695038693	 0.286297
H	-0.628756996	-2.7925243377	 0.724390074	 0.09867
H	-1.2242650003	-1.7111858977	 2.0203206386	 0.110123
H	-3.4927539104	-0.7699395754	 0.483316421	 0.117092
H	-2.8799074285	 0.761895762	-0.3050647759	 0.1104
H	-1.8250021113	-0.5611633096	-1.9339874416	 0.227573
109.2486	161.5282	183.6757	222.8051	248.9794	262.0035	337.3532	393.1256	420.0956	477.7846	481.987	576.4017	628.806	728.9738	773.8203	822.4847	831.9556	911.8389	928.0691	961.9782	972.3983	978.1777	1028.3645	1045.9239	1058.9639	1100.1703	1117.3961	1126.0092	1175.6343	1209.7801	1223.3296	1252.3133	1267.7112	1297.6089	1349.479	1399.2108	1417.2934	1425.7165	1475.0372	1484.7754	1498.8822	1506.8224	1523.1747	3021.4021	3046.2293	3080.2084	3098.7005	3101.7064	3104.218	3105.9133	3181.7066	3196.3507	3483.754	3792.9342
CC12CC1(O)CC21CN1	C[C@@]12C[C@]1(O)C[C@]12CN1	
InChI=1S/C7H11NO/c1-5-2-7(5,9)3-6(5)4-8-6/h8-9H,2-4H2,1H3	InChI=1S/C7H11NO/c1-5-2-7(5,9)3-6(5)4-8-6/h8-9H,2-4H2,1H3/t5-,6+,7-/m0/s1
