17
gdb 65239	2.93901	1.22864	1.11172	2.2075	67.69	-0.273	0.0012	0.2742	1139.3909	0.134829	-458.96647	-458.958015	-458.957071	-459.000343	30.761	
C	 0.1425950563	 1.5079986993	-0.3480222144	-0.487898
C	 0.0617710284	 0.0163302807	-0.1107112712	 0.427187
C	 1.2300363561	-0.8300617436	-0.3984233152	-0.225206
O	 0.8916388099	-0.4871813039	 0.9478442052	-0.27821
C	-1.3098542233	-0.6251809303	-0.1533709297	-0.266413
C	-2.4562914285	-0.0485587752	 0.7036820938	-0.097426
O	-3.2302112158	 0.2391881219	-0.5072007644	-0.240201
C	-2.2335170762	-0.2341518048	-1.3203679656	 0.452767
O	-2.2097180217	-0.2598179006	-2.5078845883	-0.325878
H	 1.1773294097	 1.8450603934	-0.2580792596	 0.135421
H	-0.2227510216	 1.7587879824	-1.3489032494	 0.149681
H	-0.4542639869	 2.0640631392	 0.3820300827	 0.130272
H	 1.0935349181	-1.8767475899	-0.6663065999	 0.119061
H	 2.1375193369	-0.3688982561	-0.7846632674	 0.121155
H	-1.2114888319	-1.7086006661	-0.0578772757	 0.119133
H	-2.9838365202	-0.7602372086	 1.3403651768	 0.133604
H	-2.2419626491	 0.8702039419	 1.2514431723	 0.132953
43.7205	115.8545	136.0331	197.6007	274.6638	316.7475	363.3444	399.0646	449.7601	548.3264	634.7534	746.4146	775.4992	824.4161	894.7172	924.8843	936.1505	962.0584	997.6176	1063.0945	1072.0986	1111.9753	1121.1419	1135.2731	1156.6714	1166.0129	1199.2259	1284.5854	1303.7619	1348.4414	1407.6831	1427.193	1485.6576	1497.1629	1522.0466	1532.9218	1935.2711	3043.8785	3083.9104	3086.1099	3096.4627	3108.921	3133.2272	3145.2097	3173.3781
CC1(CO1)C1COC1=O	C[C@]1(CO1)[C@H]1COC1=O	
InChI=1S/C6H8O3/c1-6(3-9-6)4-2-8-5(4)7/h4H,2-3H2,1H3	InChI=1S/C6H8O3/c1-6(3-9-6)4-2-8-5(4)7/h4H,2-3H2,1H3/t4-,6-/m0/s1
