17
gdb 7383	3.91754	1.04518	0.89284	3.1249	61.31	-0.2561	0.0159	0.272	1261.4556	0.140515	-438.163888	-438.154366	-438.153422	-438.198736	33.399	
N	 0.031520816	 1.2658213745	-0.0385581243	-0.517764
C	 0.0448987709	-0.0870597418	 0.012193465	 0.386034
O	 1.0719326256	-0.7448219686	 0.0670777288	-0.377104
C	-1.3182971911	-0.7994716192	 0.0068144097	 0.0271
O	-1.0900894567	-2.1778524017	-0.1270441329	-0.437216
C	-2.1191753423	-0.4980654696	 1.2861362113	-0.20781
C	-3.475867664	-1.207141706	 1.2922295675	-0.065366
O	-4.238435235	-0.9059294585	 2.4511550245	-0.420788
H	 0.9086792478	 1.7599886522	-0.0477979355	 0.269963
H	-0.8214468732	 1.7892408399	-0.1274312944	 0.268383
H	-1.8914249165	-0.4375261799	-0.863869498	 0.083911
H	-0.1224853999	-2.2698223147	-0.0689211018	 0.293492
H	-1.5258011286	-0.8273419427	 2.149367758	 0.099884
H	-2.2839334132	 0.5805357076	 1.3963817437	 0.091048
H	-4.0777081333	-0.8624086318	 0.4431288008	 0.106044
H	-3.3252219053	-2.2870701899	 1.1689699032	 0.118092
H	-3.8092431812	-1.3279120097	 3.2020025045	 0.282096
52.8199	100.0402	102.9271	141.6759	200.7132	265.5713	293.7797	335.8381	364.4984	429.1823	495.1918	509.196	570.534	654.7116	728.677	790.8986	861.2172	950.0721	1035.5094	1072.7632	1086.912	1098.4223	1140.9602	1183.8354	1246.6992	1302.6953	1313.7565	1355.4903	1374.7299	1400.6668	1417.4025	1464.5042	1474.9734	1514.2624	1620.9352	1784.1972	2960.3131	3018.9898	3026.5006	3057.5429	3082.3658	3605.9683	3632.1271	3739.9925	3818.6867
NC(=O)C(O)CCO	NC(=O)[C@@H](O)CCO	
InChI=1S/C4H9NO3/c5-4(8)3(7)1-2-6/h3,6-7H,1-2H2,(H2,5,8)	InChI=1S/C4H9NO3/c5-4(8)3(7)1-2-6/h3,6-7H,1-2H2,(H2,5,8)/t3-/m0/s1
