20
gdb 121590	4.05565	0.70968	0.63824	1.4114	78.67	-0.2381	-0.0592	0.1789	1810.9533	0.168461	-440.347941	-440.337122	-440.336178	-440.385862	36.973	
C	 0.1992986282	 1.4449612055	 0.127745205	-0.378314
C	 0.3473663719	-0.068288355	-0.0467241972	-0.169755
C	 0.1433685443	-0.5056594472	-1.5026082217	-0.149641
N	 0.2641275611	-1.9398245398	-1.6855736696	-0.30803
C	 1.289663033	-2.5278574403	-2.3368231859	 0.298242
O	 2.2234247776	-1.9608563328	-2.8806643419	-0.373525
C	 1.1724945284	-4.0711597309	-2.3395189899	 0.312004
C	 2.268698116	-4.7994827257	-3.0676475659	-0.470364
O	 0.2458165783	-4.613583872	-1.779521151	-0.304906
H	 0.9330548786	 1.9868981325	-0.4785571996	 0.123837
H	-0.7971410917	 1.7857712503	-0.1749206566	 0.116929
H	 0.3476697047	 1.7379305161	 1.1709922039	 0.119267
H	 1.3418097447	-0.3925015151	 0.2809782986	 0.113035
H	-0.3767332667	-0.5899111986	 0.5925463039	 0.096625
H	-0.8429002996	-0.1780158538	-1.8562494391	 0.108834
H	 0.8970985271	-0.047392699	-2.1486465876	 0.144941
H	-0.4117784922	-2.572632708	-1.2800338126	 0.262105
H	 3.2389643959	-4.5309656926	-2.6383075369	 0.160769
H	 2.1048147476	-5.8755656436	-3.0103450972	 0.137453
H	 2.3021185829	-4.4680046701	-4.1103890187	 0.160494
27.4522	62.4326	71.8536	81.8563	110.0728	201.0421	235.1552	264.7867	314.8717	320.451	428.4195	482.8856	529.8712	613.5832	632.6012	731.9429	746.537	825.4879	889.2864	923.1018	957.0917	1032.6698	1035.7252	1075.0126	1125.1827	1184.9823	1189.4957	1264.9067	1291.5872	1334.4715	1338.039	1384.7744	1405.0971	1415.2652	1449.4062	1456.6496	1482.0825	1492.5411	1500.0291	1510.0425	1556.2766	1778.4716	1805.6564	3020.339	3025.2128	3033.6769	3051.4754	3063.584	3097.9222	3108.9429	3110.5165	3112.5844	3163.7052	3598.9329
CCCNC(=O)C(C)=O	CCCNC(=O)C(=O)C	
InChI=1S/C6H11NO2/c1-3-4-7-6(9)5(2)8/h3-4H2,1-2H3,(H,7,9)	InChI=1S/C6H11NO2/c1-3-4-7-6(9)5(2)8/h3-4H2,1-2H3,(H,7,9)
