18
gdb 85511	2.03361	1.5678	1.06117	3.7544	72.02	-0.225	-0.0364	0.1886	1162.317	0.145912	-439.10392	-439.095004	-439.094059	-439.138595	32.105	
C	-0.7339356885	 1.4798986911	 0.4747782992	-0.332713
N	 0.0550553007	 0.3146114814	 0.0830878435	-0.085481
C	-0.7627115052	-0.7905156103	-0.4260076856	-0.297024
C	-0.9668305853	-1.7728921577	 0.7414009847	 0.402479
O	-1.7728315277	-2.6622528546	 0.7864803788	-0.298755
C	 0.0516022158	-1.3992293813	 1.8233106398	-0.35121
C	 0.8564745129	-0.2578750275	 1.1871454766	-0.093437
C	 2.1953290232	-0.7229186723	 0.6095389123	 0.160574
O	 2.7305299492	-1.768879927	 0.867012438	-0.237673
H	-0.0658959788	 2.2678854912	 0.8342978157	 0.12661
H	-1.2645611878	 1.8684577427	-0.3990320715	 0.131527
H	-1.4808655704	 1.2769549175	 1.2634293056	 0.103667
H	-1.7180957781	-0.4479991203	-0.8286610663	 0.135866
H	-0.2421887281	-1.3278719845	-1.2320788349	 0.138396
H	-0.4803944687	-1.0939562377	 2.7289070383	 0.135586
H	 0.6780583381	-2.2598869616	 2.0717750072	 0.162956
H	 1.1011631941	 0.538806891	 1.9000659358	 0.10581
H	 2.6373403347	 0.0096691001	-0.1000227871	 0.092823
54.3525	66.66	85.7106	211.9274	246.8002	271.8303	360.6034	424.1091	443.398	475.3936	586.4448	626.7078	677.7338	763.2635	815.3233	822.9628	891.9808	965.791	1026.1448	1050.653	1067.2301	1083.6537	1144.6128	1159.0852	1180.5868	1203.5321	1268.0913	1271.1283	1292.7155	1318.4386	1347.7733	1398.8023	1442.7877	1454.4892	1473.1507	1495.1205	1503.4699	1832.1879	1857.3211	2906.8261	2943.7794	3007.5004	3040.7948	3070.0041	3071.7515	3110.8365	3116.4253	3118.0556
CN1CC(=O)CC1C=O	CN1CC(=O)C[C@H]1C=O	
InChI=1S/C6H9NO2/c1-7-3-6(9)2-5(7)4-8/h4-5H,2-3H2,1H3	InChI=1S/C6H9NO2/c1-7-3-6(9)2-5(7)4-8/h4-5H,2-3H2,1H3/t5-/m0/s1
