21
gdb 93241	2.67083	1.35173	0.94866	2.8433	80.88	-0.2263	0.0195	0.2458	1277.9389	0.183695	-420.422259	-420.413103	-420.412159	-420.456102	34.799	
C	-0.1178135344	 1.5237961654	 0.0312270638	-0.412108
C	 0.0149714076	 0.0035193138	 0.004844689	 0.031521
C	 0.7462960073	-0.4716661548	-1.2478218854	-0.074646
O	 0.9861786042	-1.8856660133	-1.2506151085	-0.258727
C	 1.3696485552	-2.5121144493	-0.0967631062	 0.37789
N	 2.0434876231	-3.583468716	-0.1312452584	-0.507139
C	 0.8359137573	-1.9392771786	 1.2140135586	-0.041137
C	 1.6537809636	-2.3882672002	 2.4207618336	-0.399408
N	 0.6901671408	-0.4782628037	 1.209358162	-0.301031
H	 0.8679634421	 2.0041629021	 0.0227578197	 0.115176
H	-0.6742532748	 1.8883529627	-0.8376361057	 0.120747
H	-0.6391338248	 1.8384938052	 0.9382775822	 0.134686
H	-0.9886346846	-0.445031086	 0.0056889108	 0.089655
H	 0.1743030304	-0.2722676571	-2.159197967	 0.114707
H	 1.7126568658	 0.0495591673	-1.3307021778	 0.095774
H	 2.2634123119	-3.823898899	-1.1009449617	 0.216108
H	-0.1834098935	-2.3448940507	 1.311994634	 0.10889
H	 2.6782319046	-2.005633498	 2.3583198964	 0.114061
H	 1.1934989644	-2.0076113899	 3.3360576991	 0.117528
H	 1.7137285564	-3.4757447839	 2.4594524441	 0.147878
H	 1.6121151173	-0.0496076261	 1.2734581575	 0.209577
61.4011	133.5637	191.4126	218.7959	226.9165	258.3688	308.9815	384.5178	423.2355	431.2199	464.0825	530.2231	580.7577	716.8008	762.5353	828.5725	875.6427	913.5256	927.546	952.758	970.3658	1002.6689	1071.2358	1083.5865	1128.2503	1151.6142	1153.3816	1179.022	1226.263	1271.4822	1289.8129	1316.9565	1340.3487	1357.1219	1392.3858	1405.069	1410.2328	1431.6489	1469.1922	1487.2905	1491.7394	1499.385	1501.2744	1508.3193	1739.8712	2984.964	2986.0312	3012.9615	3033.6981	3046.9734	3080.2105	3100.4233	3115.0076	3127.1737	3158.1991	3449.9761	3467.8521
CC1COC(=N)C(C)N1	C[C@H]1CO[C]([NH])[C@@H](C)N1	
InChI=1S/C6H12N2O/c1-4-3-9-6(7)5(2)8-4/h4-5,7-8H,3H2,1-2H3	InChI=1S/C6H12N2O/c1-4-3-9-6(7)5(2)8-4/h4-5,7-8H,3H2,1-2H3/t4-,5+/m0/s1
