14
gdb 28400	3.31171	1.45082	1.01054	2.3296	71.69	-0.1957	-0.035	0.1607	1088.8434	0.102565	-470.076295	-470.068447	-470.067502	-470.108352	30.031	
N	 0.0897857962	 1.3341301987	-0.1455331595	-0.56123
C	-0.0504863208	-0.0200461551	-0.0679974642	 0.485938
N	-1.1806033448	-0.6154756267	-0.232123589	-0.350346
C	-1.1566085156	-1.9886153981	-0.1846128735	-0.080352
C	-0.0317832769	-2.7271748724	 0.0281884864	 0.109925
N	 0.0349373493	-4.1156642906	 0.1522812421	-0.588459
C	 1.2268919944	-2.0272806457	 0.2004711781	 0.406955
O	 2.311251672	-2.5217954786	 0.3734819308	-0.358258
O	 1.1352126963	-0.6328581406	 0.1483433829	-0.232014
H	 0.9042641496	 1.7340693682	 0.2914977166	 0.273017
H	-0.768244548	 1.8563087116	-0.0724562688	 0.275592
H	-2.1177435275	-2.4757135493	-0.3256564654	 0.107332
H	 0.9809632964	-4.4550520018	 0.0346671517	 0.263219
H	-0.6259239706	-4.6244438896	-0.4173369581	 0.248681
116.8534	170.8384	269.1335	295.7151	337.3839	381.8134	399.2082	413.0926	478.9361	490.7102	548.1941	592.4148	671.5057	738.0747	748.887	785.9045	813.6709	933.1966	998.4857	1057.9108	1091.2458	1143.0943	1294.151	1308.2435	1408.0208	1452.824	1600.9085	1623.8121	1652.304	1686.6063	1831.7379	3164.266	3546.2914	3600.7461	3650.9191	3723.6228
NC1=NC=C(N)C(=O)O1	Nc1ncc(N)c(=O)o1	
InChI=1S/C4H5N3O2/c5-2-1-7-4(6)9-3(2)8/h1H,5H2,(H2,6,7)	InChI=1S/C4H5N3O2/c5-2-1-7-4(6)9-3(2)8/h1H,5H2,(H2,6,7)
