19
gdb 62237	4.66439	0.58553	0.54052	2.6578	80.33	-0.2558	-0.028	0.2278	1980.66	0.154286	-422.987234	-422.976473	-422.975529	-423.025045	36.772	
C	-0.0713288197	 1.5437780123	-0.0687279071	-0.393678
C	-0.0158804513	 0.0097559102	 0.0003480151	-0.041762
O	 0.726519209	-0.4421199334	 1.1329900275	-0.255172
C	 2.1252268207	-0.4640777001	 0.9424705301	-0.063389
C	 2.7576685539	-0.9966205428	 2.2285749269	-0.279736
C	 4.2279692613	-1.3008657435	 2.052669406	 0.152323
O	 5.1126207021	-0.845034346	 2.7290602951	-0.231262
C	-1.3580111933	-0.5658048118	 0.0861200759	 0.321692
C	-2.4719541687	-1.0118647985	 0.1355097955	-0.440327
H	 0.9338912617	 1.9637827538	-0.1629888727	 0.120247
H	-0.6588684847	 1.862684003	-0.9338357742	 0.13117
H	-0.5371208729	 1.9381102042	 0.8374136195	 0.139448
H	 0.4639520795	-0.3719747851	-0.9163940999	 0.097323
H	 2.3851753494	-1.1155523779	 0.0900907039	 0.093944
H	 2.5199156093	 0.5385617111	 0.7182871436	 0.105895
H	 2.6275431863	-0.2940600922	 3.0545440519	 0.132666
H	 2.2463299012	-1.9349731487	 2.4841278991	 0.135946
H	 4.4528814187	-2.0112565009	 1.2218702441	 0.073684
H	-3.4526596326	-1.4168322737	 0.1831106999	 0.200987
37.8355	41.3307	70.6128	102.8754	132.3028	187.4405	217.3423	258.3584	317.6759	365.1136	409.5277	527.8416	543.1768	574.9746	626.5012	672.6743	786.995	837.0329	872.1297	913.4947	1009.3092	1040.2548	1091.9276	1110.4731	1121.7239	1139.4621	1146.4683	1225.3754	1275.23	1309.497	1341.5127	1356.882	1400.9966	1431.7671	1436.1158	1467.7748	1489.1969	1491.262	1526.7304	1838.7817	2244.2717	2850.7163	2953.9359	2963.3079	3000.4341	3030.8779	3049.6688	3120.5612	3123.3302	3136.6709	3504.0758
CC(OCCC=O)C#C	C[C@@H](OCCC=O)C#C	
InChI=1S/C7H10O2/c1-3-7(2)9-6-4-5-8/h1,5,7H,4,6H2,2H3	InChI=1S/C7H10O2/c1-3-7(2)9-6-4-5-8/h1,5,7H,4,6H2,2H3/t7-/m1/s1
