19
gdb 69996	2.99699	1.6995	1.60929	0.5324	72.68	-0.2413	0.0811	0.3224	942.62	0.161261	-423.015906	-423.00883	-423.007886	-423.046943	29.285	
C	-0.0463892447	 1.5150120724	 0.0238030102	-0.505849
C	 0.0766402632	 0.0202075887	 0.0282563418	 0.429507
O	-0.770692419	-0.7100712894	 0.939123849	-0.287485
C	 0.6579177766	-0.8233239743	 1.0778695639	-0.043137
C	 1.2964897178	-1.985842317	 0.2894290642	 0.035459
C	 0.1945135035	-2.9316537599	-0.2408989608	-0.21155
C	-0.4339267686	-2.0501890968	-1.3641530729	-0.211805
C	 0.4345271277	-0.7766840672	-1.256596553	-0.010196
O	 1.7271176916	-1.3148539537	-0.9139640047	-0.264094
H	 0.8434529295	 1.9707692078	-0.4225000654	 0.133579
H	-0.9175776443	 1.8347951898	-0.5587727242	 0.128666
H	-0.1624396746	 1.8926619318	 1.0428085016	 0.13204
H	 1.0744552782	-0.4555656559	 2.0112808691	 0.097551
H	 2.1514120118	-2.4566249773	 0.7735556645	 0.077097
H	 0.6504643108	-3.8374461249	-0.6455112715	 0.09964
H	-0.527599453	-3.2079631501	 0.5281725684	 0.114418
H	-0.3044276005	-2.5005949103	-2.3504473315	 0.09867
H	-1.4936015939	-1.8530843744	-1.1979988435	 0.113198
H	 0.5179531878	-0.1695391192	-2.1579147751	 0.074291
180.6107	196.1478	266.139	282.8094	361.21	444.4877	529.9585	582.5444	598.6454	693.3389	754.9246	819.2923	828.6588	840.053	880.505	891.4003	920.3641	941.2712	968.0479	990.652	1010.1242	1020.9488	1035.9317	1085.235	1108.1618	1143.7534	1211.4245	1229.6621	1237.6419	1253.9018	1279.1702	1306.1013	1321.1951	1335.2869	1338.5309	1406.9444	1452.385	1473.2718	1484.1387	1491.8194	1499.3778	3034.7559	3073.3135	3082.6655	3098.0699	3121.6409	3123.803	3126.8373	3129.1911	3142.227	3156.7635
CC12OC1C1CCC2O1	C[C@]12O[C@H]1[C@H]1CC[C@@H]2O1	
InChI=1S/C7H10O2/c1-7-5-3-2-4(8-5)6(7)9-7/h4-6H,2-3H2,1H3	InChI=1S/C7H10O2/c1-7-5-3-2-4(8-5)6(7)9-7/h4-6H,2-3H2,1H3/t4-,5+,6+,7-/m1/s1
