23
gdb 106788	2.43661	1.45812	1.09546	0.2505	90.98	-0.2207	0.0253	0.246	1235.2691	0.205587	-351.167311	-351.158046	-351.157102	-351.20081	36.364	
C	 0.0650517134	 1.5153236568	-0.3455986664	-0.374544
C	 0.0178423709	 0.0788742039	 0.1930188383	-0.281982
C	-1.3758870111	-0.5158805045	 0.1918508035	 0.314887
C	-1.9787566639	-1.0677879121	-1.0932471625	-0.362458
C	-1.6996695703	-2.0073993204	 0.0563729019	 0.271841
C	-0.6530134208	-3.086154461	-0.0979092205	-0.482573
C	-2.8790978741	-2.2992194376	 0.9934987112	-0.329817
C	-3.2411606876	-0.9462301383	 1.5627852192	-0.087432
C	-2.4066994944	 0.0067731819	 1.144942109	-0.132892
H	 1.0885117967	 1.90336553	-0.3426958011	 0.108477
H	-0.3117023883	 1.5602222497	-1.3726870544	 0.118174
H	-0.5462078824	 2.1925979006	 0.260005591	 0.11613
H	 0.681818808	-0.5491983665	-0.4120697433	 0.093877
H	 0.4230289024	 0.0571934375	 1.2132462332	 0.09566
H	-3.0038754146	-0.8055523012	-1.3366840969	 0.103513
H	-1.3181268557	-1.1513646244	-1.9524949265	 0.099404
H	 0.1705729315	-2.76970635	-0.7445606133	 0.114308
H	-0.2278948589	-3.3730310895	 0.8712026491	 0.114061
H	-1.088097086	-3.9879303154	-0.5456971319	 0.1161
H	-3.7198848305	-2.768949619	 0.465579284	 0.105625
H	-2.5882668742	-3.002268194	 1.7879001834	 0.100191
H	-4.0927320091	-0.7948551547	 2.2165678901	 0.089719
H	-2.4621005412	 1.0534595483	 1.4244142531	 0.089732
84.7886	146.2315	182.3584	202.1184	222.0952	277.46	291.1471	356.758	398.5107	463.0674	488.7669	566.5496	677.7261	729.6073	753.5569	769.551	795.9134	899.6127	911.1477	941.3384	945.1398	959.6084	972.665	994.7937	997.5207	1034.3984	1064.7852	1091.6878	1092.7282	1126.2844	1170.1718	1205.2493	1238.3452	1254.5145	1301.819	1325.4865	1361.4022	1384.5788	1392.3176	1409.1707	1419.4359	1469.9649	1480.1421	1486.3616	1491.8563	1498.1101	1502.1855	1507.6717	1673.6396	2998.3116	3017.5022	3021.7814	3032.1849	3033.7501	3056.3297	3075.3528	3101.1851	3102.8133	3104.8266	3108.4199	3178.8482	3195.6591	3205.0098
CCC12CC1(C)CC=C2	CC[C@@]12C[C@]1(C)CC=C2	
InChI=1S/C9H14/c1-3-9-6-4-5-8(9,2)7-9/h4,6H,3,5,7H2,1-2H3	InChI=1S/C9H14/c1-3-9-6-4-5-8(9,2)7-9/h4,6H,3,5,7H2,1-2H3/t8-,9+/m0/s1
