15
gdb 24496	3.94614	1.7044	1.19029	1.6253	81.78	-0.2141	-0.0226	0.1915	965.5423	0.118072	-379.768592	-379.762535	-379.761591	-379.798738	25.115	
N	-0.0271573516	 1.3262247477	 0.0098225303	-0.360191
C	 1.2521888846	 1.8430942218	 0.0001432542	-0.038518
C	 2.1658545788	 0.8238522426	-0.0142137579	-0.315285
C	 1.4214121091	-0.4007187629	-0.0136659495	 0.28083
C	 0.0428876457	-0.0452688538	 0.0016753582	 0.375359
N	-0.9998990571	-0.868121946	 0.0073414532	-0.363736
C	-0.6792367713	-2.1629419011	-0.0028249405	-0.037781
C	 0.6373892494	-2.6518437895	-0.0182937159	-0.112281
C	 1.7085712653	-1.7686780373	-0.0239074488	-0.223723
H	-0.8852815323	 1.8500550878	 0.0210517967	 0.267222
H	 1.4062011588	 2.9110591109	 0.0044224253	 0.130076
H	 3.2388723329	 0.9359265103	-0.0240201024	 0.103364
H	-1.5129917327	-2.8605253177	 0.0014928673	 0.101231
H	 0.803209358	-3.7231185492	-0.0257332714	 0.093079
H	 2.7322349726	-2.1294900436	-0.035819889	 0.100353
227.9066	245.3732	428.1279	430.5976	473.4052	560.6207	600.0386	622.4584	632.8958	741.4527	773.6175	800.5322	834.9201	848.5839	898.8245	909.1408	952.9071	973.0358	1058.7164	1089.9345	1107.7113	1138.3842	1221.9517	1272.0375	1317.9795	1350.3961	1370.6222	1439.6446	1451.6256	1526.2613	1541.8709	1615.2774	1643.7486	3156.8805	3176.805	3200.1504	3247.0127	3266.5109	3679.7091
N1C=CC2=C1N=CC=C2	[nH]1ccc2c1nccc2	
InChI=1S/C7H6N2/c1-2-6-3-5-9-7(6)8-4-1/h1-5H,(H,8,9)	InChI=1S/C7H6N2/c1-2-6-3-5-9-7(6)8-4-1/h1-5H,(H,8,9)
