25
gdb 121136	2.82588	0.85621	0.78599	1.2331	89.47	-0.2503	0.0764	0.3267	1643.2819	0.227084	-389.495442	-389.484696	-389.483752	-389.53119	40.496	
C	 0.1248181688	 1.5755247857	 0.0042382669	-0.38085
C	 0.0233900966	 0.0491351411	 0.0650006994	-0.163
C	-1.416223617	-0.4660266225	-0.0657730404	-0.207747
C	-1.5127067276	-1.9844029739	-0.0039313614	 0.025821
C	-1.237966277	-2.7391990002	 1.3275960843	-0.240888
C	-2.3447427837	-3.7543266197	 0.9372401518	-0.278241
C	-2.8880415404	-2.7104339687	-0.0880478679	 0.383021
C	-4.0810277546	-1.9198639422	 0.4415939161	-0.446932
O	-3.1370199204	-3.1732606771	-1.4044454601	-0.479749
H	 1.1621201908	 1.9124102718	 0.0979636889	 0.109386
H	-0.26599533	 1.9604052354	-0.9443798485	 0.113264
H	-0.4509361848	 2.0432527267	 0.8108946736	 0.111455
H	 0.6369954989	-0.3918766575	-0.731646883	 0.095155
H	 0.451915245	-0.3090916329	 1.0100551122	 0.097397
H	-2.0295988955	-0.0184164184	 0.7282228213	 0.085296
H	-1.8402240363	-0.1152260226	-1.0168306885	 0.098158
H	-0.8912870146	-2.42192391	-0.7942981308	 0.080376
H	-0.2314480419	-3.1303659039	 1.4878909524	 0.097754
H	-1.5177128558	-2.1394031922	 2.2000135369	 0.095387
H	-1.9367468556	-4.6190409419	 0.4080022795	 0.10388
H	-3.025585909	-4.0986775913	 1.7210750128	 0.085568
H	-3.8966155195	-1.5299571828	 1.447193079	 0.119343
H	-4.318264216	-1.079704756	-0.2177798412	 0.123641
H	-4.9644907314	-2.5685790319	 0.5029120483	 0.101844
H	-4.0151635689	-3.5690948348	-1.4253389016	 0.27066
70.4384	81.2821	116.5708	138.6107	244.4376	259.4239	262.0756	271.8943	280.5536	313.4489	347.0057	407.5071	497.5157	513.0931	610.7735	742.0267	749.1246	802.4455	863.737	886.8481	896.0985	903.9989	949.7731	959.0766	978.4718	1020.4198	1048.6964	1091.1117	1102.4219	1142.4885	1163.7292	1188.3246	1202.0829	1211.9333	1244.6478	1263.8408	1273.8054	1297.5264	1314.0924	1332.4894	1368.7475	1380.0578	1402.795	1406.2772	1412.1038	1476.164	1479.9526	1491.2855	1492.0991	1497.5222	1499.6327	1500.0127	1510.4725	3003.6136	3017.2374	3020.7188	3027.9639	3028.9803	3040.3516	3048.4553	3054.4619	3058.7457	3087.5558	3094.8184	3099.3509	3102.9573	3114.2356	3119.2489	3798.7404
CCCC1CCC1(C)O	CCC[C@H]1CC[C@]1(C)O	
InChI=1S/C8H16O/c1-3-4-7-5-6-8(7,2)9/h7,9H,3-6H2,1-2H3	InChI=1S/C8H16O/c1-3-4-7-5-6-8(7,2)9/h7,9H,3-6H2,1-2H3/t7-,8-/m0/s1
