19
gdb 102197	2.47035	1.19145	0.85539	2.7898	76.03	-0.2518	0.0308	0.2826	1327.925	0.158538	-419.182257	-419.17269	-419.171745	-419.217304	34.426	
O	 0.2848041345	 1.1713705693	-0.0372250397	-0.421215
C	 0.0170190275	-0.2114195404	-0.1332821774	-0.069516
C	-1.476209012	-0.5496074622	 0.0065228353	 0.016585
C	-1.6403451297	-2.0832129848	-0.0818869795	-0.346115
C	-3.0239689679	-2.5233587126	-0.2386001047	 0.274618
N	-4.1190672907	-2.8660729215	-0.3769991334	-0.316875
N	-1.95642983	-0.0790715052	 1.3016244277	-0.089707
C	-2.4565971944	 1.2999806205	 1.355693258	-0.242313
C	-3.3975945976	 0.1558433911	 1.435225141	-0.225635
H	 0.1387980068	 1.428993313	 0.8783397633	 0.296528
H	 0.3642774981	-0.523045996	-1.1243304826	 0.112377
H	 0.5823736104	-0.7843377326	 0.6180171985	 0.097293
H	-2.0217857278	-0.0796589498	-0.8299685305	 0.084836
H	-1.0646661285	-2.4668843769	-0.9320668466	 0.15148
H	-1.2264159566	-2.5350075804	 0.8261125046	 0.161814
H	-2.1936716852	 1.8569316902	 2.2509581672	 0.118825
H	-2.4448613648	 1.880056856	 0.4363850147	 0.131578
H	-4.0272241103	-0.036078252	 0.5705940356	 0.13878
H	-3.8294291217	-0.1406663759	 2.3857894086	 0.126664
57.7304	81.6877	112.7357	158.9842	203.9465	261.4048	289.42	363.0794	390.9206	400.4513	439.8111	474.6797	620.1425	715.5579	819.5762	870.1989	904.804	943.8903	960.8832	1018.03	1052.473	1074.182	1094.922	1098.8217	1117.4472	1125.7625	1174.6973	1180.6046	1219.4944	1261.7399	1282.3269	1314.2331	1359.1705	1383.3205	1406.8915	1424.0901	1454.4344	1492.7856	1494.4286	1521.1876	2360.4889	2954.7001	2989.8421	3045.3007	3073.817	3090.6854	3106.8954	3119.6505	3189.5093	3209.0986	3829.1928
OCC(CC#N)N1CC1	OC[C@@H](CC#N)N1CC1	
InChI=1S/C6H10N2O/c7-2-1-6(5-9)8-3-4-8/h6,9H,1,3-5H2	InChI=1S/C6H10N2O/c7-2-1-6(5-9)8-3-4-8/h6,9H,1,3-5H2/t6-/m1/s1
