18
gdb 52969	4.44459	0.93231	0.86229	1.4164	88.14	-0.2102	0.0304	0.2406	1407.0212	0.14644	-364.699439	-364.690847	-364.689903	-364.734174	32.03	
C	-0.0365180592	 1.445497886	 0.0296182272	-0.508618
C	-0.0189151002	-0.0085785945	-0.0049833644	 0.275147
C	-0.0015590823	-1.2140982341	-0.0285755096	-0.150169
C	 0.030971441	-2.6332161344	-0.0444089693	 0.170068
C	-0.3757780207	-3.460955162	-1.2456144076	-0.34792
C	-1.08666721	-3.6755857838	 0.0550151966	-0.12782
C	-0.2175115909	-4.393685151	 1.0971367654	-0.031492
C	 1.1507820661	-4.7321370303	 0.6537635524	-0.254758
N	 0.8523922584	-3.3387836918	 1.0441377359	-0.176359
H	 0.6934370872	 1.8257478442	 0.7529135379	 0.153417
H	 0.210627873	 1.8763928701	-0.9472533558	 0.146101
H	-1.0205578014	 1.8283083278	 0.3236175199	 0.146746
H	-0.9425226848	-2.8783326536	-1.9641668112	 0.131546
H	 0.263008222	-4.2072832575	-1.7043372212	 0.117481
H	-2.1462319466	-3.5030025587	 0.1850233506	 0.106724
H	-0.6176156215	-4.7160208372	 2.0528260311	 0.102324
H	 1.7922709291	-5.2167995096	 1.3848393807	 0.12543
H	 1.3841420908	-4.9931863095	-0.3713903387	 0.122152
18.9795	93.1046	99.7519	240.3837	301.2098	341.1534	415.7833	453.9211	488.2502	519.2055	576.6255	703.7916	745.3851	783.418	802.4833	899.5829	900.5377	942.5759	972.5567	1012.181	1037.2682	1049.4006	1051.2667	1054.3379	1061.4404	1073.796	1106.3326	1134.9469	1165.993	1228.1027	1297.4024	1350.2283	1387.4839	1415.4217	1472.2685	1475.217	1478.9246	1520.0435	2360.3635	3023.0383	3080.8662	3086.5156	3123.9735	3137.8549	3160.8994	3206.1101	3210.8662	3218.362
CC#CC12CC1C1CN21	CC#C[C@]12C[C@H]1[C@H]1CN21	
InChI=1S/C8H9N/c1-2-3-8-4-6(8)7-5-9(7)8/h6-7H,4-5H2,1H3	InChI=1S/C8H9N/c1-2-3-8-4-6(8)7-5-9(7)8/h6-7H,4-5H2,1H3/t6-,7+,8-,9?/m0/s1
