19
gdb 115784	3.51352	0.82268	0.73377	1.915	72.26	-0.2555	-0.0336	0.2218	1528.9228	0.1576	-460.140781	-460.131226	-460.130282	-460.176913	33.259	
O	-0.0636945117	 1.5091798568	-0.2734721821	-0.422555
C	 0.0328302479	 0.1878754189	 0.2191234989	-0.065091
C	-1.3212682491	-0.4966588297	 0.1019451071	 0.093845
O	-1.7411278319	-0.497733336	-1.2887196616	-0.302155
C	-1.6897529142	-1.9400678522	-1.3547891568	-0.082881
C	-1.4178309865	-2.0453612309	 0.163033862	-0.069597
C	-0.2205623937	-2.8746067415	 0.6364532134	-0.307516
C	-0.5273199742	-4.3557088268	 0.5592518381	 0.159516
O	 0.0833089746	-5.1510211251	-0.1054108309	-0.231386
H	-0.4570480432	 1.4327583523	-1.152174924	 0.294136
H	 0.7987912303	-0.3858975662	-0.3257278583	 0.086301
H	 0.3442585167	 0.2547342132	 1.267617054	 0.10816
H	-2.0497638981	 0.0411620058	 0.7209699872	 0.089299
H	-2.6314145901	-2.3647296129	-1.7185071979	 0.113741
H	-0.8693273161	-2.2953455126	-1.9918631501	 0.1134
H	-2.3125288649	-2.3547146783	 0.7115464219	 0.092611
H	 0.6784179992	-2.6779441102	 0.0471650551	 0.129636
H	-0.0080376014	-2.6350518702	 1.68820612	 0.124844
H	-1.4025627835	-4.6734947845	 1.1743660342	 0.075695
43.9518	63.9695	80.1558	116.4554	138.8914	238.8568	289.8611	370.6381	443.3124	472.5679	512.9433	534.4146	733.9143	814.6977	854.1672	899.3989	932.0502	945.9878	1014.4938	1031.1647	1044.9083	1082.0358	1110.9381	1134.2565	1150.0685	1167.1717	1212.6124	1229.22	1245.8197	1289.2589	1298.7447	1339.9121	1357.3477	1396.1255	1403.4149	1427.7467	1438.043	1464.5805	1499.2285	1527.5139	1837.5028	2852.1537	2981.4503	3016.2811	3018.1102	3031.6789	3057.3134	3069.8343	3075.5624	3109.6716	3777.8712
OCC1OCC1CC=O	OC[C@H]1OC[C@H]1CC=O	
InChI=1S/C6H10O3/c7-2-1-5-4-9-6(5)3-8/h2,5-6,8H,1,3-4H2	InChI=1S/C6H10O3/c7-2-1-5-4-9-6(5)3-8/h2,5-6,8H,1,3-4H2/t5-,6-/m1/s1
