15
gdb 20425	6.03317	1.55039	1.31185	2.0918	67.83	-0.2084	0.0289	0.2373	910.5337	0.121616	-358.829403	-358.822737	-358.821793	-358.860703	25.071	
C	-0.0917073767	 1.3534491264	-0.2254136086	-0.231228
C	 1.2969772589	 0.8961230791	 0.0592552695	-0.214841
N	 0.1903314388	-0.0501046515	 0.0937098052	-0.145975
C	-0.2156905831	-0.5519873931	 1.3373346212	 0.383683
N	 0.6381829454	-0.7166399007	 2.3452930518	-0.299981
N	-0.1095367652	-1.2817415214	 3.3212609785	-0.184899
C	-1.3997513096	-1.4706599488	 2.9594451819	-0.009315
C	-1.51640912	-1.0091405105	 1.6678359124	-0.297287
H	-0.5864948224	 1.9511407277	 0.5364513717	 0.120208
H	-0.4153085372	 1.5417188924	-1.2448456881	 0.117513
H	 2.0013729895	 0.7523140416	-0.754561278	 0.117242
H	 1.7364087028	 1.1791847259	 1.0108620745	 0.136494
H	 0.3317264831	-1.5228441894	 4.1910939136	 0.273428
H	-2.1186040066	-1.9135190978	 3.6310514069	 0.131116
H	-2.3951398078	-1.0040126798	 1.0449067976	 0.103841
56.1792	171.9249	217.827	391.4633	441.2969	492.1522	586.0793	655.007	734.4832	772.4695	820.2907	836.3665	898.2475	910.8269	942.1646	1000.4237	1038.2065	1064.9831	1106.4125	1115.8803	1130.8019	1174.0687	1177.2626	1216.0054	1251.0613	1338.3139	1401.1024	1488.3819	1491.553	1510.519	1517.4212	1578.7	3106.7969	3120.3983	3193.3417	3211.8751	3255.4954	3279.9873	3687.3316
C1CN1C1=NNC=C1	C1CN1c1n[nH]cc1	
InChI=1S/C5H7N3/c1-2-6-7-5(1)8-3-4-8/h1-2H,3-4H2,(H,6,7)	InChI=1S/C5H7N3/c1-2-6-7-5(1)8-3-4-8/h1-2H,3-4H2,(H,6,7)
