19
gdb 50433	3.05892	1.14947	0.90014	2.4565	85.83	-0.2232	-0.0328	0.1904	1290.2717	0.159865	-385.912227	-385.903604	-385.902659	-385.947631	31.518	
O	-0.2431429625	 0.0271416147	 0.0290412272	-0.248065
C	-0.0767341094	 1.2184182366	 0.0048034417	 0.155803
C	 1.2682152676	 1.9191055192	-0.0006168614	-0.086766
C	 1.3852176875	 2.7211702413	-1.3141279806	-0.274136
C	 2.7361767867	 3.3077891523	-1.6120208743	-0.078246
C	 3.6803299439	 3.7149734763	-0.7512912629	-0.063633
C	 3.6701997481	 3.7455966925	 0.7075455058	-0.063636
C	 2.7140544521	 3.3746190569	 1.57139783	-0.078249
C	 1.3672080596	 2.7756008329	 1.2796124519	-0.274123
H	-0.9488555099	 1.9179559459	-0.0162691173	 0.067216
H	 2.0380855432	 1.1420213103	 0.0210362477	 0.106415
H	 1.1158379438	 2.0581258648	-2.1466144601	 0.118862
H	 0.6248821083	 3.516906981	-1.324790389	 0.118419
H	 2.961074922	 3.4016693179	-2.672114731	 0.094297
H	 4.5948270132	 4.1047474519	-1.1931156157	 0.087124
H	 4.5785919206	 4.1538231602	 1.1452788583	 0.087125
H	 2.9242186938	 3.5129342849	 2.6296460627	 0.0943
H	 0.607045898	 3.5708758012	 1.2463084586	 0.118419
H	 1.0860839034	 2.1479845794	 2.1353488683	 0.118874
15.6351	54.8616	100.851	269.9838	311.5329	325.4584	369.1645	378.1539	518.1057	525.2401	615.2682	712.5328	784.026	829.3359	846.4853	889.8519	900.5835	912.5828	1001.3221	1015.516	1021.8724	1051.4997	1073.4272	1093.2689	1121.6772	1180.5004	1235.3642	1275.9817	1286.4645	1298.5972	1345.1352	1365.786	1400.8389	1421.3751	1427.3533	1461.6188	1464.3274	1477.1448	1686.2895	1715.4826	1836.5781	2827.4817	2990.5519	2998.6616	3034.7888	3034.8556	3077.2226	3130.9921	3140.196	3155.1783	3165.419
O=CC1CC=CC=CC1	O=C[C@H]1CC=CC=CC1	
InChI=1S/C8H10O/c9-7-8-5-3-1-2-4-6-8/h1-4,7-8H,5-6H2	InChI=1S/C8H10O/c9-7-8-5-3-1-2-4-6-8/h1-4,7-8H,5-6H2
