19
gdb 83649	2.46559	1.68924	1.27097	0.5868	74.52	-0.2504	0.0595	0.3099	1048.0357	0.158813	-422.968219	-422.960187	-422.959242	-423.000785	30.951	
C	-0.6984218717	 1.3465948127	-0.0033767846	-0.415407
C	-0.0515069238	-0.0286482	-0.0264938272	-0.083147
C	 1.1242110056	-0.2847678521	-1.0098796507	 0.09856
O	 2.0164144064	 0.8425341387	-1.1495337418	-0.290564
C	 2.9601036244	 0.2781159399	-0.2081468653	-0.079499
C	 2.0004757605	-0.8710813365	 0.138874089	-0.197571
C	 0.8890912503	-0.4634609335	 1.1157287152	 0.446463
C	 1.0036383806	 0.010533796	 2.4969054212	-0.267429
O	 0.4590978634	-1.2812803204	 2.1881608215	-0.28061
H	 0.0651641926	 2.1277502147	 0.0336413977	 0.132146
H	-1.3036193627	 1.5104007251	-0.9011705834	 0.11907
H	-1.356707604	 1.4567634443	 0.864653314	 0.117904
H	-0.8039089626	-0.8162253711	-0.1606253869	 0.089516
H	 0.9134812695	-0.7693298237	-1.966206254	 0.078
H	 3.8799482508	-0.0396144559	-0.7152297643	 0.104069
H	 3.2148554938	 0.9750887622	 0.5992865678	 0.103569
H	 2.3733231104	-1.8920384745	 0.1987680776	 0.093876
H	 1.9719528801	 0.0015367644	 2.9966717125	 0.113435
H	 0.2897545665	 0.7363155196	 2.8837595318	 0.117616
79.8155	196.1155	210.1697	213.5588	230.0282	297.3669	408.8247	440.5743	549.8399	595.6672	687.7793	811.2452	820.6998	846.4402	882.0352	914.6284	940.1132	955.3599	985.4492	1006.4964	1048.7194	1085.9513	1104.37	1124.6249	1135.1646	1149.7018	1156.5453	1169.6805	1176.9578	1225.8617	1256.5137	1281.2154	1311.6465	1346.1109	1359.0741	1404.3647	1431.3113	1492.9572	1501.6352	1520.1126	1533.872	3011.8291	3032.7079	3038.1663	3058.7468	3079.2523	3080.6581	3099.1582	3123.5961	3132.7211	3165.2801
CC1C2OCC2C11CO1	C[C@H]1[C@H]2OC[C@H]2[C@]21CO2	
InChI=1S/C7H10O2/c1-4-6-5(2-8-6)7(4)3-9-7/h4-6H,2-3H2,1H3	InChI=1S/C7H10O2/c1-4-6-5(2-8-6)7(4)3-9-7/h4-6H,2-3H2,1H3/t4-,5+,6+,7+/m0/s1
