18
gdb 51657	5.18289	0.84476	0.79454	5.4278	73.58	-0.2522	0.0115	0.2636	1421.6415	0.148693	-439.089729	-439.08165	-439.080706	-439.123759	29.839	
O	 0.1090550784	-0.0316501302	-0.0947991315	-0.276419
C	 0.0714213764	 1.1606154808	-0.1490972477	 0.163289
O	 1.0810807396	 1.9442669975	 0.2682759914	-0.181109
C	 0.9433713399	 3.3655791061	 0.1626278083	 0.130791
C	 1.0520109472	 4.0492239935	 1.5471354871	-0.241525
C	 1.7323426594	 5.3802905244	 1.2579330651	-0.043058
N	 3.1929263133	 5.2488185475	 1.0875328079	-0.322479
C	 2.330107233	 5.3366934905	-0.1072370625	-0.043052
C	 2.0496454276	 3.9764832355	-0.731218425	-0.241516
H	-0.7867156834	 1.741364803	-0.5433719944	 0.073849
H	-0.0388345196	 3.5881578088	-0.2745439664	 0.086907
H	 0.0691665351	 4.1746131525	 2.0093942981	 0.103178
H	 1.6674760282	 3.4355839968	 2.2104584882	 0.136379
H	 1.3336451103	 6.2968038804	 1.6796348252	 0.091643
H	 3.6342244308	 6.151192441	 1.2519709507	 0.231924
H	 2.3906977674	 6.2197289011	-0.7344250679	 0.091642
H	 2.9398745391	 3.3427891751	-0.6954177245	 0.13638
H	 1.7251254474	 4.0538660157	-1.7724151919	 0.103177
43.5913	53.287	156.3478	250.6682	331.5409	364.716	374.9903	473.7115	532.4045	680.8198	718.4236	773.3574	848.9819	869.4558	909.21	910.6006	952.118	975.4688	1044.6573	1044.6773	1060.8251	1091.6923	1092.0463	1133.5261	1177.4567	1192.5609	1197.2588	1237.6606	1258.9927	1292.0313	1322.3223	1322.9366	1377.4874	1385.8086	1422.031	1442.5263	1477.0064	1487.7058	1865.7373	2933.7302	3014.144	3061.7225	3063.9561	3111.1916	3113.3611	3161.4419	3171.5821	3490.7457
O=COC1CC2NC2C1	O=CO[C@H]1C[C@H]2N[C@H]2C1	
InChI=1S/C6H9NO2/c8-3-9-4-1-5-6(2-4)7-5/h3-7H,1-2H2	InChI=1S/C6H9NO2/c8-3-9-4-1-5-6(2-4)7-5/h3-7H,1-2H2/t4-,5+,6-
