19
gdb 70029	3.4339	1.45368	1.24902	2.7389	73.93	-0.2362	0.0767	0.313	1053.1564	0.160309	-422.992166	-422.984543	-422.983598	-423.024084	29.986	
C	-0.0958001043	 1.5382869638	 0.0721562341	-0.50572
C	 0.1416003958	 0.0652755047	 0.016352454	 0.404381
O	-0.7652929792	-0.8014518335	 0.7179683192	-0.279075
C	 0.6377017871	-0.9123752142	 1.000521388	-0.06667
C	 1.2546282667	-1.8004849842	-0.1020750921	-0.059391
C	 0.5604077637	-3.1179316041	-0.4790121914	-0.095809
O	 0.1423032091	-2.9584524375	-1.8341724327	-0.256928
C	-0.2312474118	-1.5957897967	-2.0357655756	-0.099018
C	 0.7207810377	-0.7718502752	-1.1568605237	-0.105604
H	 0.7990612169	 2.0865372056	-0.2398490224	 0.125747
H	-0.9152602599	 1.8258328489	-0.5966861422	 0.132366
H	-0.361210736	 1.8456812289	 1.0871275955	 0.135854
H	 0.9428598028	-0.7914866211	 2.0342836131	 0.101322
H	 2.3422734265	-1.86802929	-0.051360312	 0.080975
H	 1.2224292101	-3.9873716196	-0.4469769313	 0.102496
H	-0.3024521557	-3.301478024	 0.1758327004	 0.103074
H	-0.1313048848	-1.390318241	-3.1049342451	 0.101737
H	-1.2755879097	-1.4305522328	-1.7366396822	 0.101436
H	 1.5041120449	-0.254982148	-1.7137527633	 0.078826
135.3688	165.5929	203.6564	221.7564	280.5233	340.2595	497.6678	558.5877	604.7156	656.365	706.1747	739.451	837.0292	842.6854	884.2701	928.8328	933.2854	977.1552	994.0573	1015.6084	1038.1801	1063.7073	1077.559	1097.8613	1121.2013	1160.0179	1192.3166	1226.6202	1256.4007	1258.7843	1274.3872	1305.2985	1320.3977	1363.3494	1394.0982	1406.8035	1466.6679	1484.3027	1494.9891	1501.2851	1516.5785	3007.3653	3013.2406	3032.7976	3082.6654	3085.8485	3094.4862	3099.0839	3110.3756	3121.0275	3176.9449
CC12OC1C1COCC21	C[C@]12O[C@H]1[C@H]1COC[C@@H]21	
InChI=1S/C7H10O2/c1-7-5-3-8-2-4(5)6(7)9-7/h4-6H,2-3H2,1H3	InChI=1S/C7H10O2/c1-7-5-3-8-2-4(5)6(7)9-7/h4-6H,2-3H2,1H3/t4-,5+,6-,7+/m0/s1
