15
gdb 76484	3.52207	1.08209	1.0226	4.7379	62.24	-0.2526	0.0074	0.26	1167.6157	0.110643	-494.886223	-494.877943	-494.876999	-494.91926	30.747	
O	 0.0671863042	 1.4329462	 0.288976374	-0.422933
C	 0.0799534978	 0.0444324444	 0.0863619581	-0.06204
C	-0.5327129824	-0.8131788753	 1.1948289041	 0.004614
O	-0.9898420077	-0.1711290008	 2.3427970111	-0.424014
C	-1.2606296953	-0.5811601209	-0.0931848528	 0.371883
C	-2.6130473953	 0.0601818998	-0.330310437	-0.486481
C	-2.7594672054	-1.0756582359	-1.3502888465	 0.432542
O	-3.5594544603	-1.472310235	-2.1303612082	-0.304668
O	-1.5093915245	-1.6049425969	-1.0853466959	-0.263593
H	 0.9153630442	 1.6868656106	 0.6706348496	 0.30392
H	 0.9113133775	-0.3567560281	-0.4900502725	 0.118611
H	-0.1064580014	-1.7925799464	 1.3914211148	 0.125145
H	-0.8728266896	 0.7768431177	 2.1877053897	 0.289945
H	-3.3122598689	 0.0145179416	 0.5061740811	 0.158959
H	-2.608006593	 1.0603652451	-0.7659885498	 0.158109
89.4953	145.0556	147.9941	228.5501	282.4484	303.9133	391.6276	475.3627	496.4841	509.3572	528.8974	641.0568	653.3288	783.5998	835.4811	888.9459	925.0196	981.6623	1031.3809	1046.0753	1069.872	1113.2052	1144.9588	1159.059	1188.8105	1210.8381	1252.6812	1313.1284	1341.4871	1404.9443	1455.8404	1502.2891	1952.4772	3092.2448	3129.1692	3150.5139	3161.3166	3739.8757	3798.2931
OC1C(O)C11CC(=O)O1	O[C@H]1[C@@H](O)[C@]21CC(=O)O2	
InChI=1S/C5H6O4/c6-2-1-5(9-2)3(7)4(5)8/h3-4,7-8H,1H2	InChI=1S/C5H6O4/c6-2-1-5(9-2)3(7)4(5)8/h3-4,7-8H,1H2/t3-,4+,5+
