23
gdb 118158	2.36688	1.0444	0.76135	1.7793	82.96	-0.2559	0.0673	0.3232	1557.0924	0.204339	-425.399726	-425.389295	-425.388351	-425.435922	37.532	
C	-0.6222343499	 1.187158188	-0.705583816	-0.224373
O	-0.8050833816	-0.2069380617	-0.6534198501	-0.226119
C	-0.9363147504	-0.6969886954	 0.6615458616	-0.071257
C	-1.1095842119	-2.2177230909	 0.62728321	 0.063556
O	-1.0631693852	-2.7219389451	 1.9612310569	-0.433308
C	-2.3681704444	-2.6754580689	-0.094584764	 0.048129
C	-2.4678680394	-2.5611191522	-1.643330767	-0.216566
C	-3.160764305	-3.9498650127	-1.6649841079	-0.219682
C	-2.6079299062	-4.2049412604	-0.2361835817	-0.227559
H	-0.5208901314	 1.4663658754	-1.757172991	 0.127056
H	-1.4796399204	 1.728519999	-0.2746186514	 0.102944
H	 0.2851953591	 1.4994793871	-0.1648853902	 0.105369
H	-0.0469719115	-0.4543835509	 1.265152197	 0.09356
H	-1.8076500732	-0.2355258678	 1.1640792613	 0.068743
H	-0.2330558803	-2.6498434069	 0.1287048139	 0.090198
H	-1.8941749571	-2.4892082506	 2.3902241159	 0.278075
H	-3.2407307901	-2.196648138	 0.3738419334	 0.051729
H	-3.0075622937	-1.7056181195	-2.052742833	 0.096081
H	-1.476541319	-2.5900044767	-2.1037725084	 0.106845
H	-4.2513275832	-3.8609912743	-1.6685541871	 0.097131
H	-2.8709807498	-4.6497617458	-2.4524079819	 0.094154
H	-1.6580719665	-4.748296355	-0.256779246	 0.103823
H	-3.2641153789	-4.6899165466	 0.4902508859	 0.091471
55.6601	79.8697	101.1429	126.6494	165.2915	204.8259	236.9934	277.2181	329.3518	339.4448	367.8024	495.2788	541.2681	638.2472	765.8035	780.0043	892.5713	931.8398	944.0285	959.7983	993.2232	1001.5855	1036.5995	1041.1856	1096.0608	1125.9397	1157.6454	1176.7335	1186.0592	1203.2925	1221.1299	1229.3063	1242.6296	1254.3771	1258.6876	1269.7599	1287.1528	1295.6983	1334.0368	1396.2749	1411.879	1420.8434	1476.2667	1481.3968	1485.4418	1485.7632	1502.7379	1508.5961	1525.1005	2926.4375	2969.5961	2990.0782	2994.2711	3013.6022	3042.8361	3052.4513	3055.2911	3068.2527	3096.7475	3110.0852	3113.5729	3124.3956	3798.3078
COCC(O)C1CCC1	COC[C@@H](O)C1CCC1	
InChI=1S/C7H14O2/c1-9-5-7(8)6-3-2-4-6/h6-8H,2-5H2,1H3	InChI=1S/C7H14O2/c1-9-5-7(8)6-3-2-4-6/h6-8H,2-5H2,1H3/t7-/m1/s1
