17
gdb 13565	4.18123	1.247	1.07175	2.4262	65.96	-0.2534	-0.0353	0.2181	1109.3943	0.140526	-400.979566	-400.970971	-400.970026	-401.013197	30.759	
C	 0.3508421379	 1.5779118473	-0.4134476338	-0.395884
C	 0.0895467331	 0.1332821296	-0.0665877801	 0.007231
N	 1.254603379	-0.7541195739	 0.0941297505	-0.347953
C	 0.3844087295	-0.4908512123	 1.2523312222	-0.051553
C	 1.0195044516	 0.2530004948	 2.4180727188	 0.053328
O	 0.0405184802	 0.7566775631	 3.2839758052	-0.435676
C	 1.9552158839	-0.6804170517	 3.1623528356	 0.130903
O	 1.820984086	-0.9003970962	 4.3430733941	-0.265674
H	 1.2542128082	 1.9522275566	 0.073027787	 0.128568
H	 0.4899331291	 1.6887755862	-1.4939368233	 0.122195
H	-0.4930499098	 2.2066931602	-0.1118155403	 0.129349
H	-0.7742133013	-0.2940569034	-0.5750465348	 0.089562
H	 1.0729205649	-1.676043124	-0.2913168677	 0.236121
H	-0.2947506284	-1.2772320722	 1.5787373291	 0.093467
H	 1.6511124417	 1.0615468185	 2.0136426553	 0.096656
H	 0.2534607229	 0.3870501178	 4.1562587593	 0.294127
H	 2.7576329716	-1.1472458704	 2.560349303	 0.115234
52.4387	99.8688	151.5557	204.1315	206.5178	313.3828	381.107	390.8863	428.7571	473.5148	537.4933	754.4258	792.4439	816.6862	851.5362	940.4058	967.9228	1008.3593	1023.8431	1043.2329	1096.7487	1151.9507	1158.14	1204.2526	1251.5011	1266.3092	1272.8858	1309.4396	1381.7388	1396.3017	1415.6475	1439.063	1466.8753	1489.1637	1501.7745	1807.8888	2960.5159	2978.4616	3041.0072	3102.5807	3106.0025	3120.578	3131.7938	3515.1947	3679.5352
CC1NC1C(O)C=O	C[C@H]1N[C@H]1[C@@H](O)C=O	
InChI=1S/C5H9NO2/c1-3-5(6-3)4(8)2-7/h2-6,8H,1H3	InChI=1S/C5H9NO2/c1-3-5(6-3)4(8)2-7/h2-6,8H,1H3/t3-,4+,5-/m1/s1
