22
gdb 104038	2.70013	1.41872	1.2457	1.7161	81.19	-0.2169	0.0804	0.2973	1138.9527	0.19456	-404.323023	-404.314195	-404.313251	-404.355925	34.813	
C	-0.4772945053	 1.0310689903	-0.1112376082	-0.250043
O	-0.1934818009	-0.3116840408	-0.4368500948	-0.277687
C	 0.9100522443	-0.5582352507	-1.3284133845	 0.355851
C	 2.193366062	 0.1088417257	-0.825057757	-0.455803
C	 1.0270528831	-2.1011467436	-1.4032995984	-0.250814
C	 0.2276296562	-2.5082708144	-2.6291836588	-0.024052
C	-1.1445826729	-1.9613512067	-2.7845559081	-0.249299
N	-0.0136333309	-1.333890872	-3.4923496311	-0.103524
C	 0.559781542	-0.1714816158	-2.7969057632	-0.197591
H	 0.2987348902	 1.4824850759	 0.5215626676	 0.110771
H	-0.6125952977	 1.66749735	-0.9975031918	 0.106435
H	-1.4157119545	 1.021979396	 0.4493568671	 0.127644
H	 2.3892388887	-0.1710300612	 0.2148751162	 0.124044
H	 3.0448441131	-0.2080568256	-1.4334364978	 0.120602
H	 2.1391820648	 1.2002235355	-0.8817395442	 0.11874
H	 2.0740428436	-2.3940871224	-1.532714053	 0.098499
H	 0.6647299531	-2.5477499551	-0.4740628515	 0.117653
H	 0.5025161859	-3.4298768099	-3.1351073556	 0.083894
H	-1.8504213163	-2.4643822715	-3.4399775099	 0.106573
H	-1.5794663942	-1.4430488853	-1.9366424721	 0.132251
H	-0.1249385281	 0.6802744703	-2.8478259771	 0.10571
H	 1.4735799437	 0.1122903513	-3.3317922237	 0.100146
111.0311	147.0459	194.3525	233.9815	261.7302	316.3927	345.5688	371.5951	384.8938	425.446	483.9847	618.7519	676.7022	752.945	786.2705	832.925	849.8443	880.5993	919.8627	941.0811	981.5522	1033.7353	1048.9187	1094.0813	1109.4439	1119.0236	1140.4633	1167.8932	1180.0995	1182.1957	1195.9768	1216.0413	1246.6108	1267.0697	1300.6199	1320.2481	1353.9066	1396.1724	1408.7004	1471.898	1475.9527	1484.3324	1490.0634	1492.0315	1502.8359	1509.6511	1515.0281	2992.9308	3034.8737	3040.3041	3045.2805	3052.8884	3087.7849	3104.3068	3107.3584	3110.548	3114.2437	3117.8046	3141.8758	3212.4044
COC1(C)CC2CN2C1	CO[C@@]1(C)C[C@H]2CN2C1	
InChI=1S/C7H13NO/c1-7(9-2)3-6-4-8(6)5-7/h6H,3-5H2,1-2H3	InChI=1S/C7H13NO/c1-7(9-2)3-6-4-8(6)5-7/h6H,3-5H2,1-2H3/t6-,7-,8?/m0/s1
