19
gdb 83291	2.33782	1.88268	1.46921	2.314	73.96	-0.2378	-0.0163	0.2215	978.2607	0.161049	-423.060099	-423.052486	-423.051542	-423.092034	30.028	
C	-0.2303082146	 1.5575358062	 0.0166587346	-0.416206
C	 0.0165487663	 0.0517196786	-0.029605126	-0.093923
C	 0.8921588672	-0.4843521336	-1.1847467752	 0.08822
C	 1.2834480443	-1.883284561	-0.6816501604	-0.252482
C	 1.9541552394	-1.3188773655	 0.5912930634	-0.155684
C	 2.8964274092	-0.2810698947	-0.0683698311	-0.08779
O	 2.1420369026	 0.2267263036	-1.1827323176	-0.276681
C	 0.8169326472	-0.4797401406	 1.1824175981	 0.423812
O	 0.6041611813	-0.2430930943	 2.3426159509	-0.338668
H	 0.7070418813	 2.1016672064	-0.1250784831	 0.135063
H	-0.9249746061	 1.8681023242	-0.7695776828	 0.114069
H	-0.6547699684	 1.8365468436	 0.9847152734	 0.136406
H	-0.945204689	-0.4810093372	-0.0390611804	 0.100539
H	 0.4576103438	-0.4072408534	-2.1816054341	 0.0818
H	 0.4289112544	-2.532979022	-0.477100436	 0.110057
H	 1.982706018	-2.3927110681	-1.3487762154	 0.113129
H	 2.4363687286	-1.9969371472	 1.292732776	 0.090336
H	 3.1695916668	 0.5400624068	 0.6033758823	 0.119354
H	 3.8162049076	-0.7585129118	-0.4299494867	 0.108649
103.7233	193.3382	210.2328	234.3998	273.8203	431.5166	460.2338	494.0214	566.5919	653.4982	713.5612	771.4503	823.2976	864.81	897.3752	905.036	930.3257	955.3078	967.7347	996.9746	1029.3464	1058.8367	1079.062	1111.9187	1150.4546	1161.7466	1176.9824	1208.1257	1253.8861	1270.1173	1279.9221	1303.4945	1322.3147	1344.4204	1379.9325	1401.2905	1493.2581	1494.2597	1504.3073	1528.6728	1854.1367	3012.4465	3016.316	3045.1427	3065.9071	3068.5485	3114.7045	3118.7961	3123.6503	3128.7607	3144.4879
CC1C2CC(CO2)C1=O	C[C@H]1[C@@H]2C[C@@H](CO2)C1=O	
InChI=1S/C7H10O2/c1-4-6-2-5(3-9-6)7(4)8/h4-6H,2-3H2,1H3	InChI=1S/C7H10O2/c1-4-6-2-5(3-9-6)7(4)8/h4-6H,2-3H2,1H3/t4-,5-,6-/m0/s1
