17
gdb 16446	4.34019	1.90762	1.71971	3.2387	67.56	-0.2241	0.068	0.292	817.6417	0.143	-363.783178	-363.776488	-363.775544	-363.813633	26.684	
C	-0.0148260654	 1.5638355498	 0.0786838398	-0.511787
C	 0.1064890506	 0.0736310235	 0.0086505121	 0.333152
N	-0.8258649021	-0.8308191649	 0.7098715189	-0.358431
C	 0.6305994974	-0.9382435936	 0.9842177925	-0.131957
C	 1.2551611114	-1.7595835347	-0.1715041085	 0.13354
O	 0.4712893522	-2.8310785859	-0.7200313601	-0.289347
C	-0.1179835591	-1.9468964938	-1.7110543676	-0.087013
C	 0.690987964	-0.7397266959	-1.1819104957	-0.140015
H	 0.9021557994	 2.0525223796	-0.2678608852	 0.126228
H	-0.8407220847	 1.9242928509	-0.5464577815	 0.130352
H	-0.2038134628	 1.8942137856	 1.1061732438	 0.118857
H	-1.2292206854	-0.3062598175	 1.4860640435	 0.22599
H	 1.0046210288	-0.8190094799	 1.9950455489	 0.086883
H	 2.3160352927	-2.0002632112	-0.0632908882	 0.075393
H	 0.1547153712	-2.2612134497	-2.7255538002	 0.092683
H	-1.2042379611	-1.8843705981	-1.6078933874	 0.117357
H	 1.3265216231	-0.1870464943	-1.872001805	 0.078114
174.1853	210.5421	263.4711	286.8776	352.4417	473.7676	555.4447	649.8119	696.598	800.7747	808.2424	852.7566	885.7936	907.9388	948.4013	956.4588	991.5197	999.1802	1012.6712	1044.0209	1082.9664	1109.5207	1123.5976	1163.6727	1186.464	1216.4075	1251.8125	1263.827	1309.2663	1336.4057	1361.3089	1408.1797	1441.9588	1481.2551	1496.0842	1500.0958	3021.1483	3025.8658	3074.922	3083.0662	3094.7607	3097.7658	3126.6997	3173.0853	3468.5157
CC12NC1C1OCC21	C[C@]12N[C@H]1[C@H]1OC[C@@H]21	
InChI=1S/C6H9NO/c1-6-3-2-8-4(3)5(6)7-6/h3-5,7H,2H2,1H3	InChI=1S/C6H9NO/c1-6-3-2-8-4(3)5(6)7-6/h3-5,7H,2H2,1H3/t3-,4+,5+,6-/m1/s1
