19
gdb 37967	2.61484	1.97702	1.4326	2.0725	73.37	-0.2465	0.076	0.3226	948.1286	0.162943	-422.988078	-422.981396	-422.980452	-423.018807	28.044	
C	 0.0276384102	 1.5962368792	-0.0865780171	-0.303746
C	 1.5558580683	 1.5351259333	-0.109945121	-0.067608
C	 2.0946373222	 0.9177365702	 1.1575900078	-0.038665
C	 1.4695170087	 1.0529068702	 2.5447833378	-0.12592
O	 0.6682233121	-0.0571167745	 2.9311148382	-0.226522
C	-0.6211497292	-0.0782363423	 2.3896686599	 0.00811
O	-0.7140542437	-0.6158439181	 1.0954840507	-0.250883
C	 0.0100197454	 0.0294928487	 0.0707566456	 0.12978
C	 1.5412808519	 0.0122089762	 0.0945531214	-0.092176
H	-0.4221689853	 2.1964237135	 0.7086094966	 0.101183
H	-0.4161931418	 1.9057834294	-1.034504255	 0.109404
H	 2.1892017517	 2.116816592	-0.7682275515	 0.087413
H	 3.1817064989	 0.8995069452	 1.1722258119	 0.091389
H	 2.2637954013	 1.1119754565	 3.2943188335	 0.110573
H	 0.8802295709	 1.9790365833	 2.6256287652	 0.096277
H	-1.216224623	-0.7464861886	 3.016874718	 0.114317
H	-1.0525255452	 0.937364605	 2.4183769808	 0.077158
H	-0.3582900632	-0.4266782336	-0.8508557107	 0.093636
H	 2.15176574	-0.7527933956	-0.3702148419	 0.08628
203.3546	213.9322	280.6648	413.5811	422.7689	443.7595	477.2217	628.6629	632.6379	731.9999	750.9914	815.1359	828.3732	880.7516	940.3076	967.6168	978.2021	980.3442	1012.5298	1025.3742	1049.0639	1059.4961	1083.34	1104.0378	1138.8398	1172.9289	1199.3137	1214.5582	1237.0158	1266.087	1295.0415	1304.1747	1336.8767	1347.0613	1397.9194	1404.5463	1433.6658	1451.013	1486.6718	1495.7365	1517.3811	2953.3392	2991.344	3068.8058	3080.2438	3081.6252	3100.1958	3117.3252	3138.3101	3177.9858	3191.54
C1C2C3COCOC1C23	C1[C@H]2[C@H]3COCO[C@@H]1[C@@H]23	
InChI=1S/C7H10O2/c1-4-5-2-8-3-9-6(1)7(4)5/h4-7H,1-3H2	InChI=1S/C7H10O2/c1-4-5-2-8-3-9-6(1)7(4)5/h4-7H,1-3H2/t4-,5+,6-,7-/m0/s1
