25
gdb 59176	2.45489	1.30868	1.02222	0.2169	93.57	-0.2816	0.0862	0.3678	1326.7368	0.22862	-352.320914	-352.311233	-352.310289	-352.354997	38.069	
C	-0.0960079854	 1.8439117198	-0.1434041225	-0.381893
C	-0.1129425944	 0.4217491719	 0.4389489248	-0.026557
C	 0.3746669756	 0.4292598078	 1.8967395362	-0.38931
C	-1.5172400593	-0.1766219768	 0.3448011104	 0.053549
C	-2.2007189543	-0.4986334461	-1.0224361577	-0.071593
C	-1.3056960237	-1.7641808446	-1.1329051218	-0.264211
C	-1.7921238694	-1.7284021793	 0.352282788	 0.319876
C	-1.4837596214	-2.7271031224	 1.4379891281	-0.514194
C	-3.2004936283	-1.3775736051	-0.2222205169	-0.257094
H	 0.9017331715	 2.2893947747	-0.0673012208	 0.106479
H	-0.3874408754	 1.8493957193	-1.1983661824	 0.112656
H	-0.7920865884	 2.4964703205	 0.3974872627	 0.109688
H	 0.5905897631	-0.1845866095	-0.1439719586	 0.069757
H	-0.286831535	 1.0366910654	 2.5263527478	 0.110127
H	 0.4019255272	-0.5788034786	 2.3214386758	 0.1146
H	 1.3821407863	 0.8521111522	 1.9725223798	 0.107192
H	-2.1785079427	 0.3738645852	 1.0297157872	 0.049011
H	-2.4445935072	 0.205917883	-1.8188356639	 0.064806
H	-1.7000204385	-2.581610414	-1.7445604637	 0.082869
H	-0.2402293569	-1.6238216012	-1.3237683159	 0.089491
H	-0.4058402048	-2.8056045707	 1.6171170047	 0.1188
H	-1.9614762637	-2.4448586341	 2.382943649	 0.116353
H	-1.8472495205	-3.7243909948	 1.1650426715	 0.114966
H	-3.8890903099	-0.8565500984	 0.4501939946	 0.082404
H	-3.7073639146	-2.1707224841	-0.7800869465	 0.08223
60.0055	141.5348	205.666	220.3179	228.5629	245.6806	273.0111	305.523	315.7492	439.9849	456.7298	535.1305	577.3512	637.2606	765.452	806.5958	840.3051	886.6882	898.8592	907.113	928.2047	949.8991	966.9945	1004.9441	1018.9221	1022.6815	1035.333	1074.9182	1113.004	1132.8147	1149.7957	1163.3896	1182.475	1199.7667	1203.6335	1231.2965	1231.9176	1249.7657	1320.0231	1325.697	1344.7857	1398.0384	1408.4362	1416.2112	1433.6476	1485.5414	1488.7116	1490.5317	1494.0697	1502.4672	1504.994	1510.5253	1545.4059	2995.6106	3022.7981	3023.3442	3026.3714	3031.4776	3038.6155	3052.994	3085.9675	3088.3002	3091.7987	3093.4734	3098.2888	3102.1464	3103.1448	3105.616	3116.4643
CC(C)C1C2CC1(C)C2	CC(C)[C@H]1[C@H]2C[C@]1(C)C2	
InChI=1S/C9H16/c1-6(2)8-7-4-9(8,3)5-7/h6-8H,4-5H2,1-3H3	InChI=1S/C9H16/c1-6(2)8-7-4-9(8,3)5-7/h6-8H,4-5H2,1-3H3/t7-,8-,9+/m0/s1
