21
gdb 87554	2.62746	1.41521	1.18001	1.0817	82.8	-0.2373	0.0797	0.317	1149.085	0.181826	-387.041518	-387.032727	-387.031783	-387.074472	34.715	
C	-0.1382644408	 1.5642673799	-0.0574941624	-0.41218
C	 0.0552060905	 0.0544591849	-0.020212972	-0.048977
C	 1.110371044	-0.5957211417	-0.9366785061	-0.056621
C	 2.5121336353	-0.2355634635	-0.5255689461	-0.284604
C	 1.7713991568	-1.2793929423	 0.2649321447	-0.145714
C	 0.776186646	-0.6048013697	 1.1840782746	 0.362693
C	 1.0039447065	-0.0292445477	 2.5628377922	-0.395611
C	 0.0744518122	-1.2050919968	 2.3511015483	 0.007192
O	-1.311104284	-1.0125749566	 2.4021849806	-0.420981
H	 0.8049467787	 2.1011125417	 0.0847998303	 0.111685
H	-0.5610548034	 1.8770820759	-1.0186179226	 0.111311
H	-0.8298184039	 1.8853527208	 0.7288656769	 0.116814
H	-0.9118575992	-0.4397760489	-0.1551552132	 0.09141
H	 0.9010661193	-1.0156241199	-1.9133141249	 0.081783
H	 3.2921791148	-0.6129889518	-1.1796561621	 0.106706
H	 2.7381094987	 0.7288040543	-0.0777640701	 0.106667
H	 2.1237102073	-2.2999526135	 0.3601774878	 0.082942
H	 1.9565177275	-0.200929817	 3.0550496151	 0.107292
H	 0.5393648937	 0.9275136508	 2.7820278013	 0.110326
H	 0.4134217475	-2.1826728024	 2.698371574	 0.080591
H	-1.5606471676	-0.8871160166	 3.3236554437	 0.287276
109.2117	146.3626	188.7775	223.8788	237.4472	289.893	314.464	385.2815	447.2966	519.4963	559.6014	583.2744	709.0583	779.5989	795.7657	834.1629	873.3608	906.7672	925.8218	945.6317	989.2126	999.7953	1016.3178	1030.5816	1060.5259	1083.1968	1087.1159	1096.6471	1109.7444	1137.3473	1165.9126	1187.2171	1213.9122	1245.7478	1273.9768	1302.2609	1325.0222	1363.0205	1379.4343	1407.0373	1427.639	1484.8877	1488.7353	1498.3646	1502.2635	3029.7798	3059.236	3082.354	3094.08	3103.5376	3111.3827	3117.0197	3171.4449	3180.317	3199.2459	3206.5668	3806.164
CC1C2CC2C11CC1O	C[C@H]1[C@H]2C[C@H]2[C@]21C[C@H]2O	
InChI=1S/C8H12O/c1-4-5-2-6(5)8(4)3-7(8)9/h4-7,9H,2-3H2,1H3	InChI=1S/C8H12O/c1-4-5-2-6(5)8(4)3-7(8)9/h4-7,9H,2-3H2,1H3/t4-,5+,6+,7+,8+/m0/s1
