19
gdb 40029	3.49004	1.58217	1.49042	1.4788	78.24	-0.2191	0.0859	0.305	965.6938	0.161078	-385.845219	-385.838447	-385.837503	-385.876119	28.718	
C	 0.0163929372	 1.5245198364	 0.0312004785	-0.324769
C	 1.306786667	 0.717623536	 0.0257562024	-0.34912
C	-0.01610826	 0.0229026705	-0.0215506052	 0.462206
O	-0.4189650137	-0.6817123888	 1.1448220204	-0.301586
C	-1.4206028284	-1.5961034641	 0.723287269	 0.070059
C	-2.6524322427	-0.864104466	 0.0925524418	-0.251593
C	-2.0058781359	-1.0837013051	-1.2765741315	-0.081421
C	-1.0233725354	-2.0897811996	-0.6937809938	-0.091511
C	-0.5144351419	-0.7741526669	-1.2000954485	-0.140454
H	-0.2716735309	 1.9911232247	 0.9664920255	 0.11931
H	-0.2533832563	 2.0805305943	-0.8610280709	 0.109499
H	 1.9256110886	 0.7257401556	-0.8656154696	 0.110439
H	 1.8551911884	 0.651526967	 0.9588881521	 0.12328
H	-1.6002520436	-2.3077429599	 1.5271947003	 0.082468
H	-3.5664206806	-1.4547121487	 0.2027167654	 0.098839
H	-2.832376009	 0.1595329542	 0.4349951676	 0.101224
H	-2.516580037	-1.1197313601	-2.2317133331	 0.083906
H	-0.708928043	-3.0722050644	-1.0178239515	 0.088428
H	 0.0292888071	-0.7330659354	-2.1361400089	 0.090796
112.2336	237.8613	283.2877	383.7838	444.9807	512.2248	545.7013	668.0805	745.8333	763.2456	774.5946	811.4421	835.7139	845.1152	890.8606	902.4223	931.4562	955.2669	966.4813	972.5929	1003.5467	1006.0631	1038.9056	1050.1682	1062.4784	1070.5165	1087.4865	1118.7182	1157.5549	1189.0522	1198.5909	1221.4383	1240.5429	1276.0119	1283.8413	1346.9949	1356.0984	1414.0163	1451.6244	1487.5703	1501.3384	3047.3588	3101.5021	3127.3831	3130.4714	3134.6596	3177.7702	3190.39	3210.4209	3212.4387	3226.8147
C1CC11OC2CC3C2C13	C1CC21O[C@H]1C[C@@H]3[C@H]1[C@H]23	
InChI=1S/C8H10O/c1-2-8(1)7-4-3-5(9-8)6(4)7/h4-7H,1-3H2	InChI=1S/C8H10O/c1-2-8(1)7-4-3-5(9-8)6(4)7/h4-7H,1-3H2/t4-,5+,6-,7-/m1/s1
