19
gdb 101514	5.93926	0.5108	0.48987	4.503	84.38	-0.2629	-0.0575	0.2054	2162.7016	0.155634	-423.003534	-422.992579	-422.991635	-423.041724	36.868	
C	-0.081877563	 1.5813294024	 0.0691934565	-0.390171
C	-0.050957583	 0.0508392363	 0.0217193485	 0.036759
C	-1.4620593556	-0.5393541119	 0.0142574669	-0.079895
O	-2.1120060346	-0.1421509106	 1.2096331524	-0.422271
C	 0.729639365	-0.476591599	-1.2048929109	-0.374381
C	 2.1347898538	-0.1020192998	-1.2201343931	 0.068425
C	 3.3049646662	 0.1999821583	-1.2327131492	 0.067588
C	 4.693606297	 0.5771669017	-1.2183112626	 0.015332
O	 5.496846547	 0.2794831625	-2.0731280995	-0.230451
H	 0.9289700509	 1.9942042645	 0.1266771061	 0.1227
H	-0.561244923	 1.9887000767	-0.8296617863	 0.108742
H	-0.6497486895	 1.9202821398	 0.9375402308	 0.139643
H	 0.4487386547	-0.3204728436	 0.9249780776	 0.098654
H	-2.0053505051	-0.1790189809	-0.8761612181	 0.085645
H	-1.4037456314	-1.6378345544	-0.0587033525	 0.085333
H	-3.0191165501	-0.4593446772	 1.1825792979	 0.290077
H	 0.663807671	-1.5723842665	-1.2480342761	 0.140374
H	 0.2584618338	-0.1106333376	-2.1283753228	 0.141139
H	 4.9888734657	 1.1824169594	-0.3366342355	 0.09676
21.0459	53.4366	65.8064	118.614	168.8122	183.4526	235.9195	239.6618	247.209	317.4429	401.9819	406.1279	415.79	548.717	605.0242	830.3481	835.5426	882.4762	932.907	948.6819	1022.3545	1075.3492	1094.7158	1120.1926	1161.3373	1169.171	1222.5909	1253.3784	1277.4417	1308.2523	1361.3633	1380.9875	1407.2897	1423.323	1455.1121	1463.4463	1494.5533	1504.5205	1521.2119	1766.3923	2327.8786	2913.916	2951.7305	2980.8393	3007.6531	3029.5718	3035.0031	3049.5265	3103.7267	3138.209	3835.4105
CC(CO)CC#CC=O	C[C@@H](CO)CC#CC=O	
InChI=1S/C7H10O2/c1-7(6-9)4-2-3-5-8/h5,7,9H,4,6H2,1H3	InChI=1S/C7H10O2/c1-7(6-9)4-2-3-5-8/h5,7,9H,4,6H2,1H3/t7-/m1/s1
