23
gdb 73872	2.20196	1.50807	0.98041	1.3189	88.87	-0.2206	0.0227	0.2434	1292.5617	0.206209	-388.30172	-388.292248	-388.291304	-388.335603	36.261	
C	 0.3226373684	 1.5432439897	 0.075336809	-0.488294
C	 0.1885570386	 0.0466478929	-0.0505815584	 0.22822
C	-0.0441010296	-0.6118200912	-1.1962182968	 0.218948
C	-0.2220942065	 0.0195598338	-2.5536787253	-0.493931
C	-0.1404493289	-2.1330787688	-1.2121881151	-0.170325
O	 1.0601984745	-2.8119738317	-0.8695047835	-0.23683
C	 1.2559219161	-2.9904631072	 0.5177277886	-0.06299
C	 1.5282955734	-1.702470433	 1.2968924659	-0.188868
C	 0.3622318713	-0.6966452278	 1.2683337956	-0.300321
H	 1.3056891696	 1.8078967318	 0.4874450784	 0.123542
H	 0.2019988245	 2.0803909786	-0.8655716908	 0.119663
H	-0.4199486283	 1.9354722154	 0.7830420269	 0.122942
H	 0.5512718824	-0.3375791272	-3.2466111858	 0.130204
H	-1.1855825068	-0.2720902372	-2.992958039	 0.121503
H	-0.1832457862	 1.1090180513	-2.5433096418	 0.118962
H	-0.9579623414	-2.4734394444	-0.5534813582	 0.088896
H	-0.3842546322	-2.4688419762	-2.2251281834	 0.098628
H	 0.3782409691	-3.4988763873	 0.9562855152	 0.078987
H	 2.1089638169	-3.6710460628	 0.6111136122	 0.101207
H	 1.7349734993	-1.986703166	 2.3371537753	 0.089626
H	 2.4354088591	-1.227221448	 0.9062413615	 0.103192
H	 0.5126494247	 0.0369686048	 2.0670142891	 0.094132
H	-0.5671955979	-1.2270380295	 1.5247470306	 0.102906
104.5385	112.6188	160.1162	177.314	230.4069	274.3713	314.918	347.7731	388.2742	411.7678	444.8666	495.0643	541.7532	644.0565	693.0512	816.9677	869.8638	893.4854	907.0803	984.908	988.6124	1004.0817	1029.09	1057.6899	1071.448	1102.6583	1122.4762	1151.6802	1169.0109	1217.5806	1258.1422	1280.2225	1288.8006	1338.4009	1366.6395	1385.6448	1398.9004	1404.5464	1420.7587	1425.068	1472.1228	1479.3442	1480.9855	1485.5217	1485.8579	1487.682	1497.8573	1503.8195	1736.6648	2942.6639	2954.2364	2997.0557	3011.6086	3014.3563	3019.3501	3052.2465	3053.2309	3064.4887	3065.3546	3069.3298	3073.2796	3128.644	3144.8738
CC1=C(C)COCCC1	CC1=C(C)COCCC1	
InChI=1S/C8H14O/c1-7-4-3-5-9-6-8(7)2/h3-6H2,1-2H3	InChI=1S/C8H14O/c1-7-4-3-5-9-6-8(7)2/h3-6H2,1-2H3
