20
gdb 93048	2.30966	1.91303	1.1443	2.2754	80.92	-0.214	0.011	0.225	1093.4924	0.172397	-403.12111	-403.113132	-403.112187	-403.153551	30.952	
C	-0.0923719998	 1.4989892345	 0.0797204792	-0.321334
N	-0.0584205891	 0.0500088239	 0.0534578326	-0.064497
C	-1.3788765593	-0.5465482399	-0.0910751121	-0.196192
C	-1.3101784325	-2.0476605474	-0.1593595309	-0.064872
C	-0.2951763746	-2.7347382496	 0.3576642509	-0.084606
C	 0.7575278626	-2.0428580713	 1.1520873521	 0.095623
O	 2.1010030145	-2.0705814519	 0.6000158343	-0.29808
C	 2.2337944263	-0.6453321663	 0.7836241187	-0.078185
C	 0.7354860703	-0.5007736387	 1.1346603326	-0.036826
H	 0.9289269182	 1.8939178274	 0.0820233819	 0.120627
H	-0.5964569221	 1.8777249049	-0.8153246052	 0.119046
H	-0.6147273308	 1.9083895219	 0.9663891411	 0.091779
H	-2.0780067523	-0.2402365417	 0.7169627509	 0.086919
H	-1.8189105122	-0.1621034165	-1.0201992251	 0.110846
H	-2.1296192796	-2.5528197782	-0.6629727374	 0.097038
H	-0.2374709556	-3.8163429823	 0.2741965805	 0.097113
H	 0.7757682361	-2.4444303956	 2.1771931706	 0.075245
H	 2.923606012	-0.4028339924	 1.6033727819	 0.090506
H	 2.5510004899	-0.1391380891	-0.1339908892	 0.106652
H	 0.5166574379	-0.0288888715	 2.1077055726	 0.053197
96.9061	136.3419	237.3037	244.4024	269.8811	317.6342	428.8334	457.325	486.2665	526.0776	704.9759	733.761	800.8766	848.0626	913.7052	942.5043	977.5167	994.0357	1002.2422	1017.6582	1036.8937	1069.414	1078.9427	1120.082	1151.6099	1172.4092	1174.0141	1192.8139	1242.043	1282.4095	1288.1266	1310.6551	1344.9296	1359.7184	1386.2471	1405.9401	1419.5711	1462.0951	1485.4531	1499.1591	1507.604	1508.4631	1723.0357	2866.9177	2918.4688	2943.5679	2978.0819	3008.5328	3031.8187	3055.6808	3074.0018	3099.5804	3158.3843	3180.4802
CN1CC=CC2OCC12	CN1CC=C[C@H]2OC[C@@H]12	
InChI=1S/C7H11NO/c1-8-4-2-3-7-6(8)5-9-7/h2-3,6-7H,4-5H2,1H3	InChI=1S/C7H11NO/c1-8-4-2-3-7-6(8)5-9-7/h2-3,6-7H,4-5H2,1H3/t6-,7-/m1/s1
