18
gdb 80187	2.46403	1.60395	1.32081	3.3323	71.99	-0.2339	0.025	0.2588	1034.8823	0.147894	-439.108063	-439.099485	-439.098541	-439.141305	31.856	
C	-0.0632583113	 1.4112651594	 0.0000214205	-0.353455
N	-0.0314804865	-0.0356148118	-0.0265556579	-0.077849
C	-1.211990023	-0.8490896416	 0.0375476343	-0.084433
C	-1.4844189337	-1.6998676521	-1.1820301213	 0.112655
O	-0.8415088549	-1.4573864811	-2.3919374271	-0.428426
C	-0.7391332264	-2.2938281673	-0.0005995301	-0.124677
C	 0.7779019004	-2.247230531	-0.0298605607	-0.356666
C	 1.1485021621	-0.7565113464	-0.0232001074	 0.383224
O	 2.2598759351	-0.2756592153	-0.0523094922	-0.378843
H	 0.9702332129	 1.7585076562	-0.0533027694	 0.168395
H	-0.6287175792	 1.8160005118	-0.8469874075	 0.126651
H	-0.5196624725	 1.7816121191	 0.9263272589	 0.128361
H	-2.0082753684	-0.4896720584	 0.6814809472	 0.101017
H	-2.5059949194	-2.0408084422	-1.3252991716	 0.107192
H	-0.3192668809	-0.6516208066	-2.2979620154	 0.295972
H	-1.2351097304	-3.048397788	 0.5974244792	 0.099585
H	 1.2293893373	-2.7329836933	 0.8390951448	 0.134171
H	 1.2049542788	-2.7071000515	-0.9263079044	 0.147125
98.0288	113.3509	158.1898	184.5667	250.6122	255.6599	301.6404	449.779	512.4803	594.5618	607.228	637.0964	703.0836	759.5391	782.1747	817.4192	933.0256	961.9165	1014.8739	1040.9738	1064.5098	1085.2966	1103.5409	1129.8219	1159.5245	1191.0699	1200.5988	1250.1263	1286.277	1326.2837	1339.8462	1352.8211	1399.8828	1435.2372	1455.7341	1460.1934	1494.4481	1520.5312	1810.7093	3018.6465	3065.4695	3070.5008	3108.3841	3142.1681	3148.2364	3157.7037	3185.3439	3778.9073
CN1C2C(O)C2CC1=O	CN1[C@H]2[C@@H](O)[C@H]2CC1=O	
InChI=1S/C6H9NO2/c1-7-4(8)2-3-5(7)6(3)9/h3,5-6,9H,2H2,1H3	InChI=1S/C6H9NO2/c1-7-4(8)2-3-5(7)6(3)9/h3,5-6,9H,2H2,1H3/t3-,5+,6-/m0/s1
