16
gdb 15506	3.63444	1.87103	1.27583	5.3313	68.32	-0.2352	-0.0135	0.2217	930.8925	0.132345	-379.965709	-379.958235	-379.957291	-379.99794	26.889	
N	 0.0770938014	 1.2858888619	-0.2870236108	-0.413147
C	-0.0263613621	 0.0359441841	-0.0993247376	 0.080743
N	-1.2308446873	-0.6411418159	 0.064939985	-0.094356
C	-1.2311094583	-2.0743945	 0.3701751487	-0.1717
C	-2.6807584165	-2.5070863626	 0.0926525974	-0.228882
C	-3.4872738497	-1.238346089	 0.3882464698	-0.326212
C	-2.5255974529	-0.0893087443	 0.0755497073	 0.420124
O	-2.81558568	 1.0615134661	-0.1111229596	-0.326834
H	 1.0608254493	 1.5321709674	-0.3885029426	 0.227553
H	 0.8181808567	-0.6645166936	-0.0490164943	 0.088887
H	-0.5054576926	-2.6028871772	-0.2548483681	 0.121218
H	-0.9577113238	-2.2466128246	 1.4204765792	 0.116789
H	-2.7870023028	-2.7828436276	-0.9610137231	 0.121795
H	-2.9732340724	-3.3684749286	 0.6958879371	 0.113992
H	-4.4037888226	-1.130280052	-0.1931301823	 0.136292
H	-3.7595945863	-1.1661840643	 1.4484010841	 0.133739
72.7689	131.9947	160.5219	225.2874	239.5596	466.5986	477.2376	546.4698	639.0738	703.6322	729.6304	819.9725	853.7733	901.6908	945.0829	1029.09	1054.6721	1064.5739	1090.6106	1173.5408	1189.3134	1216.2839	1232.969	1263.2865	1308.75	1334.7813	1349.3456	1418.1825	1440.0836	1468.345	1498.4424	1527.8937	1718.5648	1852.2444	3005.522	3021.4154	3044.8371	3059.8488	3079.3608	3116.1917	3128.441	3492.8738
N=CN1CCCC1=O	[NH][CH]N1CCCC1=O	
InChI=1S/C5H8N2O/c6-4-7-3-1-2-5(7)8/h4,6H,1-3H2	InChI=1S/C5H8N2O/c6-4-7-3-1-2-5(7)8/h4,6H,1-3H2
