17
gdb 32477	5.22653	0.91386	0.81167	3.0686	74.72	-0.1883	0.0387	0.227	1418.2306	0.134549	-455.14215	-455.132706	-455.131762	-455.177325	32.792	
C	 0.1640098601	 1.2045060578	-0.3806195814	-0.25297
O	-0.1419768992	 0.1486345608	 0.5398550258	-0.268633
C	-1.2456830615	-0.5583252456	 0.2470126341	 0.353162
C	-1.3855695468	-1.8348020852	-0.1223038023	-0.155633
O	-2.7396531675	-2.1332197712	-0.2463665224	-0.224869
C	-3.4611584422	-1.0008095575	 0.0853350791	 0.518665
N	-2.5297675639	 0.0089737671	 0.3084238255	-0.440613
N	-4.7137090123	-0.8943451203	 0.1745835762	-0.377804
C	-5.5245390873	-2.0723081411	-0.0817828936	-0.320296
H	 1.0713243064	 1.6805755554	-0.0071026151	 0.142728
H	 0.339832767	 0.799713112	-1.3836960367	 0.13156
H	-0.6453905555	 1.9414555661	-0.4266083586	 0.129863
H	-0.6816316004	-2.6149665551	-0.3456973189	 0.149156
H	-2.7690519959	 0.7854052509	 0.9033579484	 0.271674
H	-5.6943453382	-2.2144136115	-1.1583314845	 0.115214
H	-5.0791959996	-2.9996431538	 0.3034676018	 0.113447
H	-6.5035822932	-1.9387957686	 0.3871472927	 0.115349
61.3725	64.3399	99.7763	138.8698	201.4168	209.437	265.7939	369.2074	417.9572	437.2836	533.2797	608.6589	671.3203	715.4222	732.4389	748.6829	892.1795	979.9805	1042.6724	1074.1201	1094.7176	1126.3578	1145.2783	1173.5261	1199.3568	1206.5439	1281.023	1337.0954	1402.6511	1448.2145	1478.772	1486.0315	1492.9934	1502.4197	1502.6552	1741.3108	1816.8129	2994.7319	3023.8749	3042.4109	3091.2859	3092.2009	3148.0902	3309.9243	3657.5699
COC1=COC(N1)=NC	COc1coc(=NC)[nH]1	
InChI=1S/C5H8N2O2/c1-6-5-7-4(8-2)3-9-5/h3H,1-2H3,(H,6,7)	InChI=1S/C5H8N2O2/c1-6-5-7-4(8-2)3-9-5/h3H,1-2H3,(H,6,7)
