18
gdb 34536	3.7926	1.16481	0.98491	5.0867	85.36	-0.2441	-0.037	0.2071	1200.7951	0.150688	-364.841154	-364.833622	-364.832677	-364.873113	29.709	
N	-0.0094633478	-1.1773808548	 0.1300575047	-0.343355
C	-0.0325086601	-0.0200103347	 0.066498663	 0.208619
C	-0.0142252155	 1.4032824994	-0.0155656717	 0.136007
C	-1.1601240384	 2.1058609044	 0.0597516155	-0.105656
C	-1.199274584	 3.5767389116	 0.0046057637	-0.069261
C	-0.3388096762	 4.3841496377	 0.9789551885	-0.288439
C	 0.0609945274	 4.288402395	-0.4602174872	-0.021456
C	 1.2150871311	 3.4224635974	-0.9285627565	-0.226288
C	 1.3329408192	 2.0840778536	-0.1739856107	-0.323605
H	-2.102493757	 1.5770924571	 0.164377508	 0.115611
H	-2.1578657204	 4.0104930407	-0.2569053822	 0.095511
H	-0.7500843268	 5.3212156937	 1.3373521365	 0.121862
H	 0.2157511995	 3.8261183456	 1.7247317655	 0.126657
H	-0.1027744411	 5.1792745092	-1.0593201739	 0.095448
H	 1.0711696197	 3.2130977387	-1.9956163096	 0.113563
H	 2.1608680923	 3.9682294586	-0.8401168278	 0.109422
H	 1.7775900639	 2.2449525811	 0.8160694989	 0.128093
H	 2.0227798642	 1.4212106958	-0.7041901948	 0.127266
104.9284	162.4067	218.8062	281.1963	345.2511	406.883	458.5749	549.9698	575.7825	595.1427	639.4802	754.9895	762.3244	826.1343	866.9319	876.5533	945.7198	952.2969	987.2191	1014.3048	1061.5173	1070.627	1099.9711	1122.8297	1131.4455	1170.8941	1218.3422	1225.5799	1268.6597	1329.9488	1356.4522	1388.2146	1389.4323	1418.1838	1480.8504	1488.8522	1503.4923	1679.1276	2328.4515	3028.83	3031.8451	3069.8026	3085.9713	3139.9918	3150.5296	3168.3838	3183.8291	3227.3345
N#CC1=CC2CC2CC1	N#CC1=C[C@H]2C[C@H]2CC1	
InChI=1S/C8H9N/c9-5-6-1-2-7-4-8(7)3-6/h3,7-8H,1-2,4H2	InChI=1S/C8H9N/c9-5-6-1-2-7-4-8(7)3-6/h3,7-8H,1-2,4H2/t7-,8+/m1/s1
