20
gdb 10958	4.64822	1.34998	1.19883	1.4674	75.54	-0.2274	0.0888	0.3162	1097.1624	0.175934	-348.977168	-348.968731	-348.967787	-349.009772	32.003	
C	-0.0878860589	 1.4907434473	-0.1742806898	-0.377729
C	 0.0002841618	 0.0080682849	 0.2021978691	-0.199921
C	-1.3415597982	-0.6934797182	 0.0930319165	 0.156812
O	-1.9114245526	-0.666921192	-1.2538212964	-0.34497
C	-2.1517688984	-2.0832226985	-1.1978152314	 0.482546
C	-3.4413948715	-2.5828515456	-1.7612765864	-0.48695
C	-0.847582001	-2.8141711171	-1.1237418531	-0.337221
C	-1.450251647	-2.2162105118	 0.1375081862	-0.213099
H	 0.890630261	 1.9753045636	-0.106769155	 0.109656
H	-0.4562479588	 1.6023150623	-1.1979546948	 0.1372
H	-0.7743606481	 2.0286519581	 0.4890208733	 0.111546
H	 0.7305281017	-0.4975227853	-0.4389675899	 0.098828
H	 0.3556268816	-0.1022764803	 1.2354429358	 0.095553
H	-2.0622191321	-0.2309967737	 0.782875524	 0.074284
H	-3.4802343711	-2.406827808	-2.8424744167	 0.131066
H	-3.5440514045	-3.6584926122	-1.5911962589	 0.121248
H	-4.2949251592	-2.0718727748	-1.3047138099	 0.126025
H	-0.9142513374	-3.8970233889	-1.1719390942	 0.109865
H	 0.0407870639	-2.3905718347	-1.5829497432	 0.111774
H	-1.6972956511	-2.8081140052	 1.0089901148	 0.093486
95.0448	142.212	165.462	202.5755	238.3534	308.2519	334.6944	412.2063	485.8027	513.2053	639.834	713.446	784.0608	813.9756	889.0005	899.4385	932.862	961.4805	968.1805	987.1348	1018.9394	1043.1032	1064.6245	1106.2069	1110.2235	1116.0964	1163.3829	1209.7104	1279.5649	1285.83	1297.8097	1348.7662	1381.6911	1406.2626	1413.3521	1429.8985	1473.7286	1476.1687	1490.8687	1497.5785	1503.753	1509.9972	2997.824	3024.8057	3031.5941	3036.1322	3070.6445	3094.5755	3103.2855	3114.5844	3118.1253	3118.9913	3194.2758	3206.4937
CCC1OC2(C)CC12	CC[C@H]1O[C@@]2(C)C[C@@H]12	
InChI=1S/C7H12O/c1-3-6-5-4-7(5,2)8-6/h5-6H,3-4H2,1-2H3	InChI=1S/C7H12O/c1-3-6-5-4-7(5,2)8-6/h5-6H,3-4H2,1-2H3/t5-,6+,7-/m0/s1
