13
gdb 9984	3.43755	1.36817	1.13707	5.412	62.01	-0.2577	-0.0433	0.2144	1024.1973	0.092578	-398.592311	-398.583899	-398.582955	-398.626587	28.255	
O	-0.2453780717	-0.0090650743	-0.0259191229	-0.25479
C	-0.0868624029	 1.1774058085	-0.0084415122	 0.172207
N	 1.1439467392	 1.8530453609	-0.0277080016	-0.077049
C	 1.1247590065	 3.3210132449	 0.0432757018	-0.378919
C	 1.1303357735	 3.8411848303	 1.4085088521	 0.330749
C	 1.1351321282	 4.2575336458	 2.5347666573	-0.433431
C	 2.3927130481	 1.2109206714	-0.031263364	 0.172206
O	 2.5828888875	 0.0291627214	-0.0519174583	-0.254789
H	-0.9238797409	 1.9036218426	 0.0175834496	 0.092724
H	 1.9894992835	 3.7025277086	-0.5093828138	 0.160712
H	 0.2399523332	 3.6788768117	-0.4932013307	 0.160711
H	 1.1394792405	 4.625449608	 3.5315806985	 0.216943
H	 3.2101336951	 1.95949995	-0.0204367858	 0.092725
24.2866	93.5653	135.9628	218.0442	236.3365	288.3144	311.7106	380.2912	487.0803	526.978	643.1412	678.8912	737.6488	952.5114	956.074	957.2752	1014.8022	1035.2504	1186.896	1203.9781	1366.2155	1377.7282	1448.9567	1453.4804	1492.8531	1804.3458	1881.965	2244.5211	2925.4925	2935.5487	3050.8243	3083.8334	3502.1649
O=CN(CC#C)C=O	O=CN(CC#C)C=O	
InChI=1S/C5H5NO2/c1-2-3-6(4-7)5-8/h1,4-5H,3H2	InChI=1S/C5H5NO2/c1-2-3-6(4-7)5-8/h1,4-5H,3H2
