17
gdb 112331	2.80835	1.36569	1.01984	3.9297	68.08	-0.2661	0.0033	0.2693	1148.5998	0.137022	-458.991084	-458.983253	-458.982309	-459.023714	29.791	
O	 0.042223912	 1.3998255174	-0.0995312611	-0.418846
C	 0.069452678	-0.0107394411	-0.063711476	-0.065526
C	-1.3244282618	-0.5948785087	 0.1297492565	 0.077906
O	-2.1464022755	-0.1557436771	-0.9778177843	-0.260572
C	-2.9852871036	-1.1508391051	-1.4187616305	 0.443679
O	-3.8861971026	-0.9331435265	-2.1732885431	-0.339292
C	-2.5555440588	-2.4474414745	-0.809713024	-0.18489
C	-1.1208285701	-2.8320518829	-1.1262347522	-0.292983
C	-1.4380307934	-2.111614855	 0.1489377197	-0.07424
H	-0.5731505234	 1.6493135253	-0.7986929517	 0.297309
H	 0.5215673449	-0.4351352129	-0.9727969666	 0.094146
H	 0.6985583914	-0.2962250337	 0.7863165403	 0.114902
H	-1.7589945344	-0.1683493169	 1.0423871215	 0.103959
H	-3.3053385313	-3.2092758832	-0.6492748206	 0.124278
H	-0.8865017562	-3.8876306605	-1.0534965794	 0.132076
H	-0.6119694802	-2.3124185714	-1.930487066	 0.137557
H	-1.3307490549	-2.6215335831	 1.0978831173	 0.110539
104.8158	130.4336	156.4489	222.0736	325.9381	410.6422	428.7816	472.4615	506.6638	624.7132	689.6393	766.3183	797.0697	838.981	846.9479	930.1051	956.485	979.8263	1017.9538	1035.8061	1077.5327	1080.94	1101.8669	1110.9535	1123.0852	1188.2874	1196.0607	1230.8274	1314.9609	1330.1232	1362.2395	1384.2477	1401.4239	1435.5294	1487.0372	1496.6409	1886.4878	2993.7752	3036.3429	3077.439	3141.3936	3195.0231	3219.0648	3230.5914	3801.7235
OCC1OC(=O)C2CC12	OC[C@H]1OC(=O)[C@H]2C[C@@H]12	
InChI=1S/C6H8O3/c7-2-5-3-1-4(3)6(8)9-5/h3-5,7H,1-2H2	InChI=1S/C6H8O3/c7-2-5-3-1-4(3)6(8)9-5/h3-5,7H,1-2H2/t3-,4+,5-/m1/s1
