20
gdb 7775	3.14822	1.65151	1.14121	1.3773	77.42	-0.2303	0.0316	0.2619	1077.0706	0.177866	-349.031259	-349.023038	-349.022094	-349.063427	31.781	
C	-0.0207149578	 1.5355292341	 0.0557309691	-0.475281
C	-0.0111290708	 0.0331311177	-0.0230942927	 0.315557
C	-0.0223072236	-0.62586302	-1.1847397314	-0.132758
C	 0.0073837206	-2.1267048925	-1.3150742151	-0.264029
C	 0.3791123176	-2.8203928473	 0.0026334106	-0.197603
C	-0.3627722307	-2.1828575143	 1.1710735618	 0.129403
O	-0.0364265181	-2.9202708779	 2.3428308615	-0.440153
C	 0.0195730551	-0.7037278654	 1.299382981	-0.316862
H	 0.8491263694	 1.9081970694	 0.6128150407	 0.120836
H	-0.0087591257	 1.9939651207	-0.9367788581	 0.118761
H	-0.9080514734	 1.900078923	 0.5899548973	 0.118749
H	-0.0558479325	-0.0579854111	-2.1128390611	 0.073555
H	-0.9731418382	-2.4829252098	-1.6659378957	 0.106069
H	 0.7157313239	-2.4159426135	-2.1016029723	 0.103332
H	 0.1508060664	-3.8898146818	-0.037156425	 0.099931
H	 1.4562847884	-2.7272185023	 0.187546202	 0.103058
H	-1.4465186988	-2.2484866819	 0.9726336534	 0.062814
H	-0.4843356255	-2.5076309333	 3.0883283123	 0.277495
H	 1.0245797287	-0.6434641329	 1.7427304958	 0.112195
H	-0.6516093148	-0.2045606608	 2.013951576	 0.08493
117.0342	171.0777	204.1973	267.8786	275.8713	291.3484	380.3269	430.4156	437.9761	473.3466	500.0931	638.3685	796.9132	839.8814	860.9223	907.8861	936.2064	953.8062	1023.0602	1047.0124	1053.0484	1090.8544	1095.8597	1112.6735	1161.2625	1177.5476	1212.5025	1251.7497	1290.1528	1320.5097	1343.1541	1366.4218	1375.8707	1391.4623	1413.676	1443.6281	1476.2076	1479.4727	1480.8023	1491.6581	1501.9114	1741.4512	2948.7147	2992.4959	2993.441	3011.5123	3022.2386	3031.2734	3044.8411	3055.3664	3087.1317	3108.9626	3139.7317	3812.9133
CC1=CCCC(O)C1	CC1=CCC[C@@H](O)C1	
InChI=1S/C7H12O/c1-6-3-2-4-7(8)5-6/h3,7-8H,2,4-5H2,1H3	InChI=1S/C7H12O/c1-6-3-2-4-7(8)5-6/h3,7-8H,2,4-5H2,1H3/t7-/m1/s1
