16
gdb 86856	3.00078	1.21796	1.01649	3.4621	70.91	-0.2604	0.0071	0.2675	1161.6861	0.125775	-434.092818	-434.084527	-434.083583	-434.126053	30.913	
O	 0.3824121052	 0.9214857843	 0.646972611	-0.438375
C	-0.1313915963	-0.1990293104	-0.0136333941	 0.104512
C	-1.6110898964	-0.0591119201	-0.3952558903	-0.251397
C	-1.7385911354	-0.9839281421	-1.6357882504	-0.159848
N	-0.4134579286	-0.8827225134	-2.2340211263	-0.315994
C	 0.5510944494	-0.4437757123	-1.3544884882	 0.376039
N	 1.7884198195	-0.198720149	-1.5059241751	-0.572956
C	-2.0917396345	-2.3734584032	-1.2784393459	 0.279874
N	-2.3659685228	-3.4664398388	-1.0218891643	-0.313544
H	 1.2951342151	 1.0067365403	 0.3302773013	 0.297929
H	 0.0039821544	-1.1122755134	 0.5918203962	 0.107054
H	-2.3050683564	-0.3303903394	 0.3997865066	 0.138224
H	-1.7993511282	 0.9733432053	-0.7004724232	 0.135022
H	-2.5068106181	-0.6184330729	-2.3249756159	 0.139928
H	-0.1884842119	-1.3571511276	-3.0941972224	 0.258336
H	 2.1296467349	-0.3785010173	-2.4496300091	 0.215196
72.6106	89.8841	190.7944	265.5356	283.0503	383.2889	407.9824	415.2443	459.7652	485.2008	579.521	615.8908	689.5547	768.2599	814.5062	828.7917	842.3445	972.7682	1010.383	1038.4387	1072.3348	1124.9553	1154.3653	1191.2219	1223.8316	1279.3276	1297.3907	1336.7133	1371.2727	1407.7946	1419.4242	1437.8433	1488.5474	1764.6415	2353.3324	2954.0755	3056.3534	3083.1482	3149.0482	3484.4831	3636.3636	3708.5552
OC1CC(NC1=N)C#N	O[C@H]1C[C@@H](N[C]1[NH])C#N	
InChI=1S/C5H7N3O/c6-2-3-1-4(9)5(7)8-3/h3-4,9H,1H2,(H2,7,8)	InChI=1S/C5H7N3O/c6-2-3-1-4(9)5(7)8-3/h3-4,9H,1H2,(H2,7,8)/t3-,4+/m1/s1
