23
gdb 96356	2.056	1.73556	1.23223	0.1595	81.63	-0.2299	0.0836	0.3136	1150.393	0.204857	-425.439439	-425.429889	-425.428945	-425.47281	37.405	
C	-0.0643344212	 1.5356333839	-0.1510565205	-0.418266
C	 0.0576197833	 0.0253610478	-0.0034059726	 0.115556
O	 0.7160674845	-0.4477557135	-1.1772906413	-0.267483
C	 0.7487557033	-1.8635662597	-1.2247611546	-0.080734
C	 1.4733560613	-2.4089702606	-0.0023766177	-0.086555
O	 0.8871266103	-1.9076633074	 1.185953379	-0.296041
C	 0.8031701957	-0.4685484695	 1.2632413023	 0.348853
C	 2.2066367415	 0.1445012052	 1.3880921147	-0.434037
C	-0.0178203777	-0.2184327987	 2.5275538549	-0.423451
H	 0.9203305513	 2.0035268043	-0.2311514285	 0.127733
H	-0.6213206475	 1.7672024091	-1.0627452933	 0.125515
H	-0.5947109792	 1.9754137068	 0.6974127888	 0.11808
H	-0.9511074884	-0.4213825571	 0.0348509679	 0.063622
H	-0.2777907749	-2.2648671937	-1.2582460114	 0.090055
H	 1.2641191973	-2.1421235248	-2.1494621606	 0.102554
H	 1.3887708225	-3.4996592723	 0.0486617768	 0.103663
H	 2.5419765607	-2.1530724351	-0.0587254978	 0.093539
H	 2.7468421685	 0.1123228661	 0.4390988242	 0.126804
H	 2.1486073732	 1.1897826942	 1.7034342713	 0.115328
H	 2.7790740492	-0.4065736202	 2.1396010545	 0.118801
H	 0.4800678524	-0.6830907962	 3.3833163738	 0.123649
H	-0.1269341652	 0.849946336	 2.730926167	 0.114011
H	-1.012339541	-0.6643979946	 2.4339488031	 0.118801
115.1153	176.6352	205.3321	216.9093	238.6061	268.16	275.9766	334.5814	363.7976	379.672	444.8246	465.6946	484.8912	555.1873	628.5508	720.1215	834.3299	862.3209	911.0909	931.4814	934.6375	949.366	995.999	1044.8695	1098.672	1115.7275	1128.1971	1144.1681	1153.6174	1192.5141	1230.6493	1265.419	1282.6023	1303.5997	1361.7602	1376.6857	1391.611	1400.1009	1407.7321	1415.2903	1418.7207	1474.9516	1481.9011	1486.1661	1486.7246	1492.6047	1499.6195	1504.5913	1514.7195	2951.2128	2970.2108	2997.1332	3042.5347	3047.8283	3053.0131	3074.5333	3080.8436	3114.7806	3116.5458	3121.4586	3126.625	3126.9774	3131.4739
CC1OCCOC1(C)C	C[C@H]1OCCOC1(C)C	
InChI=1S/C7H14O2/c1-6-7(2,3)9-5-4-8-6/h6H,4-5H2,1-3H3	InChI=1S/C7H14O2/c1-6-7(2,3)9-5-4-8-6/h6H,4-5H2,1-3H3/t6-/m1/s1
