23
gdb 78534	2.23759	1.53093	1.20951	0.2802	90.34	-0.1963	0.0866	0.2829	1200.1476	0.204357	-351.090941	-351.081458	-351.080514	-351.124413	37.254	
C	-0.2673743175	 1.6125612938	-0.0012501874	-0.437902
C	 0.0872091269	 0.1255243419	 0.0429553956	-0.065409
C	 1.3501621112	-0.6243851433	-0.3445439235	-0.195123
C	 2.7182503511	-0.0960186827	 0.1760920606	 0.369865
C	 4.002761054	-0.6811807506	-0.3338730465	-0.489361
C	 2.6281812804	 1.2051219985	 0.9167463528	-0.363427
C	 2.1594478456	-0.0662477969	 1.5918635462	-0.164909
C	 0.8163892459	-0.6760714922	 1.0885599678	 0.33062
C	 0.2044271929	-1.8250067531	 1.838524123	-0.488415
H	 0.2686984151	 2.1455148346	-0.7926812129	 0.125524
H	-1.3369283637	 1.7257908547	-0.2049746054	 0.107854
H	-0.069371063	 2.1185992636	 0.9465254925	 0.130099
H	-0.751072753	-0.4755805983	-0.3122106218	 0.083507
H	 1.3128145941	-1.4100825296	-1.0918824976	 0.076447
H	 4.2204328482	-0.3386260601	-1.3538758048	 0.116062
H	 4.8464782535	-0.3906613878	 0.3007650769	 0.113898
H	 3.9628460463	-1.7769178764	-0.3577343077	 0.1144
H	 3.5871711296	 1.5499137054	 1.2975956497	 0.103498
H	 1.9717619367	 2.0125911766	 0.6292865903	 0.109276
H	 2.6304612723	-0.4226328307	 2.500654619	 0.080067
H	-0.2549138939	-1.4898782383	 2.7777219461	 0.115705
H	-0.573769163	-2.3157363859	 1.2448118089	 0.113447
H	 0.9570953901	-2.5806669031	 2.0950553581	 0.114276
91.6843	174.958	197.6533	210.6799	223.271	253.0855	287.8892	304.1872	329.6609	414.5206	496.8716	562.7056	574.2898	658.8733	714.3096	795.3481	807.7992	858.1574	907.3363	926.0136	934.9449	943.334	977.2538	1000.4308	1025.0901	1063.5665	1076.9138	1087.7898	1106.1579	1110.4652	1117.6942	1160.5264	1185.2234	1224.9113	1273.4913	1307.4302	1345.6722	1387.1099	1412.4126	1414.1021	1420.6443	1470.5265	1482.8562	1484.0198	1495.1568	1500.6519	1503.2036	1503.7697	1515.6036	3010.7422	3012.7185	3036.6894	3064.6056	3066.9162	3083.0317	3092.6648	3093.5741	3101.9386	3114.8425	3127.2186	3159.9836	3174.3333	3243.0071
CC1C2C3(C)CC3C12C	C[C@H]1[C@H]2[C@@]3(C)C[C@H]3[C@@]12C	
InChI=1S/C9H14/c1-5-7-8(2)4-6(8)9(5,7)3/h5-7H,4H2,1-3H3	InChI=1S/C9H14/c1-5-7-8(2)4-6(8)9(5,7)3/h5-7H,4H2,1-3H3/t5-,6+,7-,8-,9+/m0/s1
