21
gdb 53516	5.45942	0.54763	0.52443	2.9316	89.33	-0.246	-0.0222	0.2237	2107.5104	0.178355	-387.085956	-387.074539	-387.073595	-387.125205	38.481	
C	 0.1007884658	 1.5194281589	 0.0747795299	-0.498482
C	 0.058055395	 0.0646913428	 0.0208198929	 0.115027
C	 0.035782239	-1.1387804594	-0.0237748269	 0.023917
C	-0.015464625	-2.5960924417	-0.0663868914	-0.363961
C	-1.4542174736	-3.1669658544	-0.1198343234	 0.019488
C	-2.1985541091	-2.7103544081	-1.3800232692	-0.390251
C	-1.4127609384	-4.7050932592	-0.015279312	-0.279018
C	-2.7853714452	-5.3061651158	 0.1846970851	 0.157119
O	-3.2667999597	-6.182300906	-0.4857547785	-0.240879
H	 0.9010074575	 1.8693984414	 0.7363711639	 0.148183
H	 0.2785724487	 1.9513431317	-0.9163089213	 0.147764
H	-0.84181326	 1.9323107391	 0.4509329365	 0.147359
H	 0.5439362469	-2.9619390226	-0.9389758288	 0.12572
H	 0.4981691858	-3.0045306174	 0.8140855468	 0.121539
H	-1.9883464771	-2.7806147639	 0.758996684	 0.088336
H	-3.2298329423	-3.0769497983	-1.3915549633	 0.122752
H	-2.2218515059	-1.6194897991	-1.4406938667	 0.132237
H	-1.7037744498	-3.0901306144	-2.2817474002	 0.118717
H	-0.9567844201	-5.157771019	-0.9019494495	 0.1191
H	-0.8101846915	-4.9907725272	 0.8600310849	 0.114975
H	-3.3510842912	-4.8658240973	 1.0410079671	 0.07036
18.2403	46.453	52.6458	86.948	94.3067	205.2119	216.4597	242.9928	273.8177	297.8062	384.2198	388.3073	411.341	490.9633	549.7568	758.774	794.0125	854.2062	898.1974	934.8982	977.4335	1022.7647	1053.0999	1053.6722	1121.9147	1123.7798	1152.7637	1169.8462	1206.323	1260.191	1272.5063	1335.8283	1368.257	1375.8571	1414.6213	1416.3597	1429.8084	1458.2026	1472.9333	1478.7558	1479.4272	1494.635	1503.1735	1835.4551	2370.7951	2842.5084	3001.9825	3005.8314	3013.7189	3026.0091	3032.7121	3039.4648	3085.9724	3086.3161	3086.4534	3097.5421	3122.1417
CC#CCC(C)CC=O	CC#CC[C@@H](C)CC=O	
InChI=1S/C8H12O/c1-3-4-5-8(2)6-7-9/h7-8H,5-6H2,1-2H3	InChI=1S/C8H12O/c1-3-4-5-8(2)6-7-9/h7-8H,5-6H2,1-2H3/t8-/m1/s1
