18
gdb 99543	2.21897	1.21533	0.84144	6.6403	77.02	-0.2808	0.0001	0.2809	1362.1906	0.146929	-398.149121	-398.139002	-398.138058	-398.184632	35.678	
C	-0.074582354	 1.6106032223	 0.0119646773	-0.402267
C	 0.0484739437	 0.0850589124	-0.0115286032	-0.195868
C	 0.7447604036	-0.4934947269	 1.240160381	-0.150169
C	 0.003884946	-0.1311475424	 2.4511011527	 0.294731
N	-0.6154287228	 0.146127609	 3.3867168995	-0.319676
C	 0.9048442224	-2.0580964199	 1.1618273909	-0.136538
N	 1.5858571412	-2.5767195494	-0.013925372	-0.502263
C	 1.6151146384	-2.5385879166	 2.3593886292	 0.307881
N	 2.2028613753	-2.8898867192	 3.2891809023	-0.306472
H	 0.9097837826	 2.086038802	 0.0781182695	 0.124776
H	-0.5578998356	 1.9679508541	-0.9013601268	 0.127265
H	-0.6697683472	 1.9483543307	 0.8647913912	 0.153314
H	-0.9445720098	-0.3709392561	-0.1060706021	 0.120548
H	 0.6287041875	-0.2216995111	-0.8877326624	 0.101019
H	 1.7506620904	-0.0611975011	 1.3214827737	 0.135809
H	-0.1021328998	-2.4919809152	 1.1799650653	 0.152509
H	 1.0539872172	-2.3927124397	-0.8558300923	 0.248644
H	 2.5101757607	-2.1712481429	-0.1195864238	 0.246757
52.8325	89.7837	120.5681	156.7208	195.4755	219.7988	256.1967	281.6826	330.1123	342.7707	415.6107	495.7759	534.1883	589.3023	616.7105	771.029	790.976	877.53	885.8955	952.9924	1008.9262	1061.4247	1103.0497	1118.342	1139.5689	1189.6013	1256.0976	1284.8193	1334.2874	1354.9312	1364.0568	1404.8809	1419.0971	1488.2868	1499.5003	1507.4551	1654.7343	2356.1232	2367.8788	3028.213	3036.2244	3042.6235	3053.3837	3079.1127	3112.4332	3124.945	3515.5081	3612.752
CCC(C#N)C(N)C#N	CC[C@@H](C#N)[C@@H](N)C#N	
InChI=1S/C6H9N3/c1-2-5(3-7)6(9)4-8/h5-6H,2,9H2,1H3	InChI=1S/C6H9N3/c1-2-5(3-7)6(9)4-8/h5-6H,2,9H2,1H3/t5-,6-/m0/s1
