13
gdb 129526	5.23405	1.00601	0.84459	5.4872	62.	-0.2603	-0.0391	0.2212	1241.9231	0.090239	-486.062359	-486.054642	-486.053698	-486.095337	27.951	
N	-0.1608065313	 1.3979570263	 0.1289821482	-0.57055
C	 0.102236016	 0.046937999	 0.0722250343	 0.475999
O	 1.2211889019	-0.4216792771	 0.0926404092	-0.370995
N	-1.048213713	-0.734883032	 0.0315830609	-0.461754
C	-1.0437902684	-2.1143882246	 0.0060269826	 0.445732
N	-2.1674900775	-2.7850840822	 0.0326165326	-0.204768
O	-1.7974708274	-4.1067031779	-0.01461533	-0.148714
N	-0.4442460565	-4.2419150596	-0.0705189987	-0.061567
C	 0.0463223009	-3.035004778	-0.0587791745	-0.088874
H	 0.6547852193	 1.9729706977	-0.0125409401	 0.274853
H	-1.0152229408	 1.7605153017	-0.2636877875	 0.259472
H	-1.9552399647	-0.3076954657	 0.1413451618	 0.268816
H	 1.1014569516	-2.8315361975	-0.0894025688	 0.182349
65.5553	86.6949	174.6162	327.6314	362.0813	365.5167	392.3831	488.7147	520.7228	628.5153	631.8279	723.1551	763.4308	810.1339	903.4615	914.7542	927.7417	988.8581	1036.4365	1074.4553	1110.2189	1206.7244	1311.0446	1437.2796	1498.8005	1521.8729	1629.0039	1650.0055	1816.5673	3318.8289	3588.8324	3627.6765	3706.7512
NC(=O)NC1=NON=C1	NC(=O)Nc1nonc1	
InChI=1S/C3H4N4O2/c4-3(8)6-2-1-5-9-7-2/h1H,(H3,4,6,7,8)	InChI=1S/C3H4N4O2/c4-3(8)6-2-1-5-9-7-2/h1H,(H3,4,6,7,8)
