19
gdb 77590	2.7354	1.4206	1.20042	0.9113	75.62	-0.2472	0.0751	0.3223	1119.9614	0.156735	-422.972017	-422.963238	-422.962294	-423.005073	33.418	
C	-0.104303709	 1.5707039015	-0.1001220813	-0.416741
C	-0.0014662648	 0.0613915776	 0.0589985911	-0.147631
C	 0.9843041256	-0.7011337231	-0.8690391633	 0.418007
C	 0.7453897898	-1.2160259334	-2.2501950359	-0.505353
O	 2.2994283229	-0.2246533919	-0.5339036009	-0.286684
C	 1.7180070868	-1.25688786	 0.2854342166	-0.174864
C	 0.7976697505	-0.5323196273	 1.2507872842	 0.451206
C	 1.0305519018	-0.0627877408	 2.6130353863	-0.264638
O	 0.1610368158	-1.1779252223	 2.3362044942	-0.280279
H	 0.8927029874	 2.0187095666	-0.1182189573	 0.134011
H	-0.6192289958	 1.8366659913	-1.0296711502	 0.116011
H	-0.6682293493	 2.0159937805	 0.7261778116	 0.118645
H	-0.9882692413	-0.4154181743	 0.0415205763	 0.091947
H	 0.6356301889	-0.3891494973	-2.9609110292	 0.132742
H	 1.5860403702	-1.834010672	-2.5764200243	 0.136774
H	-0.1696042116	-1.8156922877	-2.2874241782	 0.128791
H	 2.2697375579	-2.1812848261	 0.4150070262	 0.11014
H	 1.9603045551	-0.3104320905	 3.122938392	 0.119371
H	 0.5283163592	 0.8353212593	 2.9691922021	 0.118545
98.0385	186.7097	194.8734	214.4705	220.4213	229.6947	313.6345	345.4646	442.8103	485.7698	562.1878	588.2394	684.8733	751.5503	817.7931	860.8692	874.8739	895.0117	956.4885	995.1967	1007.5488	1050.1589	1088.0233	1101.1625	1118.3956	1136.127	1150.9293	1161.6286	1204.7951	1231.0461	1251.4696	1349.6153	1402.4224	1404.6538	1442.1606	1464.3438	1482.0356	1493.0113	1496.2025	1502.923	1540.2525	3033.785	3035.1304	3052.3634	3085.3656	3094.9907	3097.8439	3121.0999	3122.3693	3172.8022	3185.147
CC1C2(C)OC2C11CO1	C[C@H]1[C@@]2(C)O[C@H]2[C@]21CO2	
InChI=1S/C7H10O2/c1-4-6(2)5(9-6)7(4)3-8-7/h4-5H,3H2,1-2H3	InChI=1S/C7H10O2/c1-4-6(2)5(9-6)7(4)3-8-7/h4-5H,3H2,1-2H3/t4-,5+,6+,7+/m0/s1
