19
gdb 117598	2.08864	1.14337	0.95527	4.2751	82.56	-0.2451	0.0056	0.2507	1365.4415	0.156057	-382.033242	-382.022664	-382.02172	-382.068788	38.126	
C	-0.0484713035	 1.5961447689	 0.1135532322	-0.388801
C	 0.0840793037	 0.0868964481	-0.0716849652	-0.128554
N	 0.6773948454	-0.5100222705	 1.1258339753	-0.309722
C	 0.7505283223	-1.9782043557	 1.1750450979	-0.08944
C	 1.4464701013	-2.6549680655	-0.0412376808	-0.409289
C	 1.4662262268	-2.3536894	 2.403846189	 0.329151
C	 2.0989149546	-2.6545646324	 3.3781567767	-0.422109
C	-0.6391899765	-2.5006292857	 1.2581790728	 0.325361
N	-1.7156023634	-2.9184007223	 1.2811523033	-0.347181
H	 0.9330051114	 2.0647282538	 0.2502615291	 0.11346
H	-0.5128602206	 2.0509596461	-0.7661842814	 0.120302
H	-0.6577100543	 1.8239320699	 0.9919733928	 0.136213
H	-0.9087732018	-0.3573253056	-0.206419206	 0.13175
H	 0.6541073019	-0.1214678814	-0.9923850378	 0.088181
H	 1.6069860205	-0.1404173899	 1.2956646599	 0.227022
H	 2.4691561365	-2.2769013095	-0.1197836409	 0.128549
H	 1.4808402925	-3.7383207202	 0.0930888744	 0.146682
H	 0.9068592365	-2.4342068097	-0.9642543945	 0.139676
H	 2.6399702669	-2.9218899084	 4.2526380935	 0.20875
74.732	93.2464	120.2571	133.5208	191.5396	216.6792	245.682	254.8116	303.2775	342.7686	416.3513	478.2308	509.8648	567.82	602.9794	648.7871	676.0128	681.1285	726.2076	824.4637	902.1617	940.4266	964.7436	1047.2558	1092.8698	1130.3367	1140.3061	1200.7879	1237.7857	1311.232	1385.9133	1399.3189	1414.0749	1472.6371	1481.1851	1489.8214	1497.5151	1502.8206	1523.523	2247.5616	2361.9656	2960.601	3035.4652	3052.624	3060.865	3103.6612	3127.1295	3135.4884	3142.8604	3499.772	3530.0443
CCNC(C)(C#C)C#N	CCN[C@@](C)(C#C)C#N	
InChI=1S/C7H10N2/c1-4-7(3,6-8)9-5-2/h1,9H,5H2,2-3H3	InChI=1S/C7H10N2/c1-4-7(3,6-8)9-5-2/h1,9H,5H2,2-3H3/t7-/m0/s1
