16
gdb 73907	2.24214	1.46315	0.89513	4.3457	76.96	-0.2291	-0.0722	0.1569	1234.1919	0.123404	-437.955994	-437.947464	-437.94652	-437.989317	31.111	
C	-0.0070436233	 1.5168620618	 0.102372498	-0.499272
C	 0.0105297713	 0.029540256	 0.0048168485	 0.188916
C	-0.0024783107	-0.7565454369	-1.0969434963	 0.198986
N	 0.0230331263	-2.1166209527	-0.7538608054	-0.383368
C	 0.0550947824	-2.3053686211	 0.6115291345	 0.419066
O	 0.0807428438	-3.360265448	 1.1979487087	-0.363739
C	 0.0482295061	-0.8820855251	 1.2057759895	-0.442889
C	-0.0378063127	-0.3919171512	-2.5093768132	 0.078415
O	-0.0457917914	-1.2186425488	-3.3985523785	-0.288733
H	 0.8798033439	 1.8836208827	 0.6347343642	 0.141927
H	-0.0368746094	 2.0033528274	-0.874617333	 0.137558
H	-0.8769206093	 1.8600671421	 0.6767232958	 0.141876
H	 0.0174726382	-2.8525265486	-1.4422235889	 0.275456
H	 0.937419241	-0.7324639757	 1.8299843042	 0.154426
H	-0.8175549914	-0.7561852468	 1.8670284456	 0.154495
H	-0.057102435	 0.6935742449	-2.7250440539	 0.086881
104.7207	137.3391	170.4017	180.1307	220.5649	275.0871	333.9619	452.5222	483.4406	556.9913	564.4047	570.3775	612.1454	679.1115	849.4801	868.09	912.2863	958.692	1011.8976	1051.3091	1103.477	1150.7696	1199.8322	1217.0138	1294.5508	1313.9587	1412.6965	1417.8202	1428.0277	1447.4142	1474.0259	1485.8574	1689.0526	1765.8258	1845.5689	2945.6473	3020.3127	3042.9759	3062.9943	3075.6086	3126.7527	3654.9538
CC1=C(NC(=O)C1)C=O	CC1=C(NC(=O)C1)C=O	
InChI=1S/C6H7NO2/c1-4-2-6(9)7-5(4)3-8/h3H,2H2,1H3,(H,7,9)	InChI=1S/C6H7NO2/c1-4-2-6(9)7-5(4)3-8/h3H,2H2,1H3,(H,7,9)
