17
gdb 26867	3.03231	1.4293	0.97804	4.7742	84.9	-0.1832	-0.0243	0.1589	1176.0418	0.136454	-418.054181	-418.045613	-418.044669	-418.087301	32.547	
C	 0.006326594	 1.5623518838	 0.0446242476	-0.520406
C	 0.0250467651	 0.0561156067	 0.0149294274	 0.123828
C	-1.1298221395	-0.6688204045	 0.0526906308	 0.369582
N	-2.3978702427	-0.1506953296	 0.1598720246	-0.564567
O	-1.1554780367	-2.0158393599	 0.0377470368	-0.27083
C	 0.0164157887	-2.804884111	-0.0006151536	 0.37635
N	-0.0889074729	-4.0715333191	 0.0029228054	-0.547969
C	 1.2465315825	-2.0597320886	-0.0470922663	-0.193906
C	 1.2343623178	-0.7041363873	-0.0394223679	-0.110032
H	 1.0260259179	 1.9558602425	 0.0331610117	 0.131628
H	-0.5104193965	 1.9968860772	-0.8230806615	 0.118353
H	-0.48391552	 1.9560656452	 0.9441341795	 0.131203
H	-2.5182145358	 0.7945818824	-0.1685926728	 0.265166
H	-3.1364764164	-0.7823554311	-0.1120340856	 0.264372
H	-1.0672791206	-4.355457457	 0.0402741675	 0.212398
H	 2.1585279931	-2.6388505682	-0.0873734722	 0.113403
H	 2.174804402	-0.1607307814	-0.0744699514	 0.101431
85.3718	101.7128	186.996	262.7903	278.3844	334.0954	366.3503	417.0554	470.0882	501.0751	525.1247	579.669	669.2084	725.0605	737.332	770.8023	800.9266	832.6759	896.7345	981.8512	985.1208	1051.8857	1062.1195	1099.7799	1160.7141	1221.216	1260.6749	1300.3302	1398.0173	1426.9755	1451.5726	1486.3366	1503.5533	1580.4872	1639.063	1674.0339	1745.4887	2999.0961	3045.6698	3109.6975	3166.3933	3232.8076	3498.0817	3580.469	3693.6236
CC1=C(N)OC(=N)C=C1	CC1=C(N)OC(=CC1)[NH]	
InChI=1S/C6H8N2O/c1-4-2-3-5(7)9-6(4)8/h2-3,7H,8H2,1H3	InChI=1S/C6H9N2O/c1-4-2-3-5(7)9-6(4)8/h3,7H,2,8H2,1H3
