24
gdb 7196	5.58597	0.71523	0.6659	1.2801	82.81	-0.2601	0.0724	0.3325	1805.1952	0.22136	-351.421654	-351.410832	-351.409888	-351.457895	38.569	
C	-0.1021069443	 1.5951109986	 0.014063402	-0.381839
C	-0.0355934837	 0.0659490202	 0.002694355	-0.162013
C	 0.7323686902	-0.4943477757	-1.1988176648	-0.183606
C	 0.7521176698	-2.0268698977	-1.2567298528	 0.119336
O	-0.5727523868	-2.5641601183	-1.2827956475	-0.42845
C	 1.5933544127	-2.5579541138	-2.4240515786	-0.183607
C	 1.6967435781	-4.08607814	-2.4624951707	-0.162013
C	 2.4849106062	-4.605485567	-3.6674422327	-0.381839
H	 0.8998710646	 2.0382493424	 0.0441739463	 0.11088
H	-0.6026185009	 1.9775319626	-0.88291888	 0.110215
H	-0.6543673931	 1.9638587899	 0.8841791311	 0.111312
H	 0.4392437692	-0.2880957395	 0.9274160269	 0.092667
H	-1.0460734843	-0.3562594941	 0.0020234856	 0.107626
H	 0.2891889032	-0.1127048852	-2.1321152708	 0.079126
H	 1.76713085	-0.1264517502	-1.1849109568	 0.091677
H	 1.1730430851	-2.4094347142	-0.3166036727	 0.082861
H	-0.9915206187	-2.2565578808	-2.0951810656	 0.274164
H	 1.1569542374	-2.192588162	-3.3670080034	 0.079126
H	 2.5977349827	-2.1172397876	-2.3669225675	 0.091677
H	 2.169904763	-4.4360213852	-1.5353564965	 0.092668
H	 0.685714158	-4.5069694777	-2.462348593	 0.107626
H	 2.5425560141	-5.6985273328	-3.6652265032	 0.111312
H	 2.0164431329	-4.2999570098	-4.6100583769	 0.110215
H	 3.5103705848	-4.2186278322	-3.6707883435	 0.11088
67.1707	74.1205	87.1056	118.1916	139.546	230.1445	249.2292	249.8886	298.6645	302.9573	346.5785	384.2563	486.6849	571.9828	742.6561	750.8856	846.9484	856.3839	882.3873	919.6684	935.8221	1017.4041	1035.1442	1050.2539	1078.3385	1085.1913	1112.0672	1138.9983	1163.8675	1240.5017	1248.6209	1275.7027	1302.099	1320.0934	1320.6554	1365.0193	1366.2711	1397.4488	1398.4973	1412.5585	1413.4936	1420.1054	1471.9732	1482.2596	1493.545	1494.5877	1500.2356	1500.385	1511.0028	1512.0384	2986.0721	2990.9101	3017.7599	3021.7554	3024.5022	3026.8545	3027.6369	3033.0735	3046.3084	3069.9009	3071.5518	3095.2396	3095.8682	3099.9986	3100.224	3788.3833
CCCC(O)CCC	CCCC(O)CCC	
InChI=1S/C7H16O/c1-3-5-7(8)6-4-2/h7-8H,3-6H2,1-2H3	InChI=1S/C7H16O/c1-3-5-7(8)6-4-2/h7-8H,3-6H2,1-2H3
