17
gdb 97131	3.89176	0.91809	0.78085	2.2072	73.7	-0.2597	0.0118	0.2715	1437.0414	0.135233	-455.158292	-455.148904	-455.14796	-455.194718	31.832	
C	-0.2702244983	 1.6705172993	-0.1241958405	-0.341074
N	-0.0637188538	 0.245193706	 0.0999534308	-0.330239
C	-1.041544554	-0.5306383457	 0.048894574	 0.431239
O	-2.379348772	-0.3081638556	-0.2192390957	-0.265275
C	-2.6428044192	-1.7470548151	-0.2969222862	-0.088007
C	-1.188497363	-2.0348716575	 0.1545580585	-0.097297
N	-0.3031061717	-2.7879444681	-0.6934708321	-0.289189
C	-0.218202257	-4.1432197747	-0.5992122415	 0.151931
O	-0.9426798493	-4.8205660206	 0.0978047602	-0.318635
H	 0.4850165698	 2.0323424141	-0.8289452656	 0.128597
H	-1.2663334463	 1.9197356642	-0.5074614423	 0.130828
H	-0.1141557032	 2.2086069018	 0.8174363404	 0.135809
H	-3.437219173	-2.0417563019	 0.3902515694	 0.133493
H	-2.8733694896	-2.049076783	-1.3208797531	 0.127564
H	-1.1461081453	-2.4190906852	 1.1772501023	 0.138257
H	 0.3941080361	-2.2750579395	-1.2114628744	 0.264865
H	 0.5813866596	-4.5604089283	-1.2410640243	 0.087132
13.7724	95.4036	100.3622	130.1533	188.3249	207.3381	242.8256	300.7196	423.3916	509.6363	556.6536	646.8648	711.4068	774.7407	888.3806	951.1526	965.7903	1033.7911	1056.0239	1070.9611	1110.645	1122.9377	1135.2448	1155.8494	1176.9696	1221.8477	1247.0846	1333.7672	1382.8226	1422.5668	1439.8458	1492.6725	1498.5058	1506.172	1511.736	1802.0734	1849.8046	2952.9025	3020.9786	3074.6515	3081.2019	3087.0955	3095.9363	3143.7275	3625.7259
CN=C1OCC1NC=O	CN=C1OC[C@H]1NC=O	
InChI=1S/C5H8N2O2/c1-6-5-4(2-9-5)7-3-8/h3-4H,2H2,1H3,(H,7,8)	InChI=1S/C5H8N2O2/c1-6-5-4(2-9-5)7-3-8/h3-4H,2H2,1H3,(H,7,8)/t4-/m1/s1
