18
gdb 87917	3.93754	1.10324	1.00047	4.9146	72.74	-0.2546	0.0556	0.3102	1225.3243	0.148157	-439.127241	-439.118863	-439.117919	-439.160429	31.476	
C	-0.0380509377	 1.5306594367	-0.1302957541	-0.413446
C	-0.0031882856	 0.0291688333	 0.0503643775	-0.074196
C	 1.2914968546	-0.758408213	-0.1067634883	-0.351768
C	 0.6452422747	-0.6029988486	 1.2377597964	 0.437688
C	 1.2736121115	 0.1462048346	 2.4114047511	-0.257562
N	 1.3028345055	-0.9193967268	 3.3943259893	-0.36785
C	 0.4330704548	-1.9394912435	 3.0761196652	 0.459288
O	 0.0809517633	-2.8559274969	 3.7638174357	-0.391071
O	 0.0123416009	-1.7522731592	 1.7862312322	-0.269251
H	 0.8782637525	 2.0041192922	 0.2377427279	 0.116453
H	-0.1362780516	 1.7911157081	-1.1892061281	 0.128153
H	-0.8831280003	 1.9789570683	 0.4033050535	 0.126256
H	-0.8920262189	-0.4954572427	-0.2893871773	 0.110016
H	 1.2370819712	-1.7363663849	-0.5710422565	 0.133118
H	 2.2077302469	-0.2069831256	-0.2972150747	 0.114096
H	 2.2758323553	 0.5165231005	 2.1757854095	 0.123184
H	 0.6566378557	 0.9979532861	 2.7339028538	 0.11429
H	 1.4884904973	-0.7534964285	 4.3693888769	 0.262602
70.2376	143.9179	173.6676	186.6916	238.8203	322.0158	409.0996	464.696	474.5008	532.4973	545.6316	724.3892	766.7075	779.8366	839.1567	878.1553	919.7541	941.6171	972.2001	1012.0604	1039.415	1072.2979	1098.9651	1115.4051	1131.9003	1181.9239	1198.4914	1208.1177	1255.9984	1338.1453	1359.4072	1410.5079	1420.9191	1445.4759	1486.5224	1491.406	1507.2654	1533.99	1895.8497	2989.5095	3030.813	3067.3343	3095.5361	3097.7329	3126.0042	3152.4398	3222.838	3663.751
CC1CC11CNC(=O)O1	C[C@H]1C[C@]21CNC(=O)O2	
InChI=1S/C6H9NO2/c1-4-2-6(4)3-7-5(8)9-6/h4H,2-3H2,1H3,(H,7,8)	InChI=1S/C6H9NO2/c1-4-2-6(4)3-7-5(8)9-6/h4H,2-3H2,1H3,(H,7,8)/t4-,6+/m0/s1
