19
gdb 37396	2.76274	2.17737	1.75168	1.8586	76.59	-0.2555	0.0806	0.3361	859.3996	0.163182	-385.838847	-385.832876	-385.831931	-385.868702	26.611	
C	-0.0502299736	 1.563475368	 0.0619606901	-0.228707
C	 1.5038501861	 1.4695141126	 0.0171848583	-0.086656
C	 2.0195512171	 1.2760427035	 1.4434429801	 0.036767
O	 1.0314552332	 1.3522676008	 2.4948861879	-0.25842
C	 1.4913324654	 0.0691388845	 2.0836532052	 0.065377
C	 0.6897651353	-0.7879117248	 1.1187947069	-0.097586
C	 1.7591862671	-1.1983503468	 0.0489914622	-0.237326
C	 1.3354501815	 0.0622551455	-0.7232745138	-0.01611
C	-0.0541692866	 0.0292989064	-0.0207216471	-0.018319
H	-0.5039124623	 2.073665601	 0.909470357	 0.119449
H	-0.4396475162	 1.9705582529	-0.8767232919	 0.089902
H	 2.0518277081	 2.2449213331	-0.5201279385	 0.062117
H	 2.9890781787	 1.6859473099	 1.7141267082	 0.091661
H	 2.0685998452	-0.4715571193	 2.8339450653	 0.092479
H	 0.1177285185	-1.5754765324	 1.6119766874	 0.066853
H	 2.7936339922	-1.3146366772	 0.3890046364	 0.091045
H	 1.4625506789	-2.0929993473	-0.5062280594	 0.100155
H	 1.4506182795	 0.1183460499	-1.8064862331	 0.064292
H	-0.9108866982	-0.5053680503	-0.4351783311	 0.063024
264.1738	333.0618	374.8404	441.0112	494.9757	601.5488	625.3001	688.3208	735.3629	794.0331	812.3305	828.7871	842.0374	897.6262	915.7117	930.6675	964.3695	971.0186	1001.8974	1023.4881	1047.6658	1057.9997	1067.7369	1094.5522	1105.6889	1123.7682	1146.5675	1183.6966	1214.9615	1234.0941	1253.5363	1278.3562	1281.9175	1287.8097	1291.9344	1323.4139	1345.4121	1365.4457	1448.3098	1484.0475	1492.5199	3040.2548	3053.9355	3082.1247	3089.4856	3091.4049	3095.9466	3104.4614	3108.5136	3145.1615	3147.5067
C1C2C3OC3C3CC2C13	C1[C@H]2[C@H]3O[C@H]3[C@@H]3C[C@H]2[C@H]13	
InChI=1S/C8H10O/c1-3-4-2-6(3)8-7(9-8)5(1)4/h3-8H,1-2H2	InChI=1S/C8H10O/c1-3-4-2-6(3)8-7(9-8)5(1)4/h3-8H,1-2H2/t3-,4-,5+,6+,7-,8+/m0/s1
