23
gdb 122430	5.20982	0.54084	0.51967	1.9192	83.24	-0.2531	0.0773	0.3304	2132.6343	0.20457	-425.409977	-425.3995	-425.398556	-425.446431	38.058	
O	-0.1012285716	 1.4371617233	-0.1786339483	-0.422083
C	 0.0048664481	 0.0337818144	 0.0120342683	-0.074433
C	-1.3964795995	-0.5583885162	-0.0504549064	-0.163291
C	-1.4155997221	-2.0777319428	 0.1482920468	-0.211849
C	-2.8156543988	-2.6733901884	 0.0759404523	 0.045864
C	-3.5556787677	-2.7008642459	-1.2946137956	-0.243963
C	-4.1055081215	-4.0910730454	-0.9238970906	 0.146163
O	-4.1445824045	-4.9990709644	-2.0007574246	-0.432189
C	-2.97773176	-4.2191329841	 0.1373229449	-0.292578
H	 0.7834731423	 1.8123820688	-0.1477951393	 0.284174
H	 0.6379033257	-0.4270119746	-0.7644323214	 0.082855
H	 0.4650362169	-0.2019907068	 0.9861974375	 0.081412
H	-2.0130646866	-0.0702414476	 0.7146597509	 0.102334
H	-1.8392229052	-0.2981483879	-1.0194814965	 0.110016
H	-0.7845664426	-2.5581388746	-0.6127561158	 0.090488
H	-0.966595757	-2.3278202713	 1.1200606277	 0.091423
H	-3.4532093592	-2.2010327041	 0.8328260382	 0.067968
H	-4.2693180848	-1.9082116283	-1.5287576656	 0.097647
H	-2.8453718026	-2.8009488655	-2.122174772	 0.107946
H	-5.0892849164	-4.008280715	-0.4387850772	 0.063393
H	-4.4985746674	-5.8344076151	-1.6793539053	 0.279931
H	-2.1122399222	-4.7230881904	-0.3058075917	 0.100949
H	-3.2122581032	-4.6815199982	 1.0999537736	 0.087822
50.9679	71.7555	93.2995	121.5347	155.8205	258.2345	265.9407	275.3357	298.12	375.8576	410.8587	463.856	491.7247	605.2898	759.1366	793.7675	810.4857	858.2516	922.4531	954.4543	986.318	1009.0201	1023.5436	1034.3325	1068.3469	1076.9053	1098.7858	1128.7992	1176.3695	1197.2631	1215.1486	1230.2292	1240.0508	1257.322	1268.1563	1276.5846	1303.9304	1310.1951	1320.3149	1334.3667	1368.6013	1398.2507	1430.9232	1463.0009	1470.256	1484.4611	1499.1423	1503.845	1528.9299	2955.1024	2979.6573	2987.8289	3000.6044	3023.4272	3029.8716	3039.9532	3044.5632	3054.4486	3075.2414	3104.1065	3114.9207	3815.291	3830.3681
OCCCC1CC(O)C1	OCCC[C@H]1C[C@@H](O)C1	
InChI=1S/C7H14O2/c8-3-1-2-6-4-7(9)5-6/h6-9H,1-5H2	InChI=1S/C7H14O2/c8-3-1-2-6-4-7(9)5-6/h6-9H,1-5H2/t6-,7+
