19
gdb 93019	2.33633	1.84038	1.21265	1.297	75.74	-0.2424	-0.0039	0.2385	1058.2384	0.159231	-423.025811	-423.017444	-423.0165	-423.058324	32.853	
C	 0.0320563921	 1.5176635174	-0.0227171466	-0.468402
C	 0.0753150284	 0.0084892047	-0.0270826692	 0.357201
O	-0.806704479	-0.6457932664	 0.8992454785	-0.305988
C	 0.6251070832	-0.7415433764	 1.1174841903	-0.059574
C	 1.2623486258	-2.0632829869	 0.8977706377	-0.037329
C	 1.0609722836	-2.735606601	-0.2356166768	-0.100034
C	 0.1692024619	-2.1951143295	-1.3213422091	-0.290579
C	 0.1533413913	-0.6558425983	-1.3973508539	 0.0701
O	-0.8896706403	-0.2020755069	-2.2537844442	-0.43702
H	 0.951467362	 1.9311678443	-0.4511484309	 0.121937
H	-0.8051054991	 1.8744211556	-0.628595924	 0.13471
H	-0.0814732675	 1.89359344	 0.9967858317	 0.12376
H	 0.9616112503	-0.1715363466	 1.9820699416	 0.087629
H	 1.8915221867	-2.4595761847	 1.6883974074	 0.093155
H	 1.5134349617	-3.711777346	-0.3847718207	 0.098776
H	 0.4516234456	-2.5915483765	-2.3010851551	 0.112081
H	-0.8597014897	-2.5338708372	-1.1359660238	 0.119682
H	 1.0776517377	-0.3101687288	-1.8771490856	 0.094805
H	-1.7237333649	-0.4598653669	-1.8434046472	 0.285089
95.1451	174.0386	214.1726	254.4976	279.3844	352.5249	365.2343	421.3763	429.2631	494.301	552.9952	599.6982	687.1757	716.395	802.8722	812.6427	880.7122	949.6351	965.9825	969.479	984.5966	1041.6847	1060.9242	1079.4497	1096.0646	1117.3067	1182.7886	1201.9639	1245.1744	1287.9622	1324.626	1352.3728	1362.7133	1406.7524	1410.8133	1424.4024	1459.0281	1467.6099	1479.9243	1500.6125	1710.515	3013.6729	3036.9864	3043.0284	3083.0314	3110.1634	3121.7403	3131.021	3162.974	3187.6214	3789.4044
CC12OC1C=CCC2O	C[C@]12O[C@H]1C=CC[C@H]2O	
InChI=1S/C7H10O2/c1-7-5(8)3-2-4-6(7)9-7/h2,4-6,8H,3H2,1H3	InChI=1S/C7H10O2/c1-7-5(8)3-2-4-6(7)9-7/h2,4-6,8H,3H2,1H3/t5-,6+,7-/m1/s1
