15
gdb 30180	4.71493	1.33849	1.08219	0.8798	67.42	-0.181	0.0221	0.203	1069.1573	0.112849	-457.756389	-457.749064	-457.748119	-457.788301	27.836	
C	-0.5228944156	 1.4893782898	-0.0530462503	-0.402627
C	 0.2283946191	 0.1878436588	 0.014572022	 0.203638
O	 1.1673101357	 0.0830632319	-1.1129948785	-0.297832
C	 2.2101575836	-0.5259677303	-0.5009356634	 0.351385
C	 2.1454640465	-0.5374583628	 0.8362831354	 0.213495
O	 0.9815349306	 0.0905871438	 1.2461311614	-0.298107
C	 3.3925183315	-1.0444914405	 1.2975674213	-0.338217
C	 4.0980679856	-1.303009561	 0.1498046733	-0.019676
O	 3.3668216807	-0.9720861724	-0.9878268115	-0.195635
H	 0.1767150291	 2.3265918187	-0.0029991028	 0.142628
H	-1.0890803294	 1.5454935876	-0.9860327832	 0.138718
H	-1.2188381648	 1.5522306974	 0.7873594103	 0.140102
H	-0.4280432047	-0.6938952527	-0.0498591012	 0.096493
H	 3.737938189	-1.2167125224	 2.3038730495	 0.125919
H	 5.0535327131	-1.7567644059	-0.0440090523	 0.139716
80.0011	185.3258	210.2972	265.3915	323.117	464.3384	490.5098	592.7798	610.7763	628.7967	671.9739	743.6927	758.9013	807.7493	816.9208	861.4541	926.5293	1007.9227	1059.715	1100.8767	1134.9446	1156.4521	1186.5391	1258.123	1360.3896	1377.2082	1415.3955	1457.3919	1482.4111	1484.0143	1493.1262	1514.1506	1712.0901	2984.6972	3057.3029	3137.3689	3144.1995	3266.5699	3305.5355
CC1OC2=C(O1)C=CO2	C[C@H]1Oc2c(O1)cco2	
InChI=1S/C6H6O3/c1-4-8-5-2-3-7-6(5)9-4/h2-4H,1H3	InChI=1S/C6H6O3/c1-4-8-5-2-3-7-6(5)9-4/h2-4H,1H3/t4-/m1/s1
