14
gdb 125649	3.49853	1.64555	1.12696	4.0952	69.49	-0.2447	-0.0184	0.2264	1000.1921	0.103589	-429.033123	-429.025828	-429.024884	-429.064817	27.091	
C	-0.0175337935	 1.4961233378	-0.0469114434	-0.49374
C	 0.0005638813	 0.0062409401	 0.0372481468	 0.243026
N	-0.0148095246	-0.7408785148	-1.0574722846	-0.279455
N	 0.00807416	-2.0638487659	-0.6554632499	-0.368734
C	 0.0378632296	-2.1333847374	 0.6888525731	 0.489112
C	 0.0344620205	-0.8394103865	 1.1877399065	 0.196778
N	 0.0646568012	-0.8979435195	 2.5544271397	-0.289658
N	 0.0859917229	-2.1368777376	 2.9133170552	-0.116146
N	 0.0700331167	-2.9344542197	 1.7698008165	-0.366323
H	 0.8687876614	 1.9264076519	 0.431054725	 0.141111
H	-0.0428389251	 1.8103689705	-1.0918173716	 0.143082
H	-0.8923343451	 1.9071038509	 0.4678608405	 0.141113
H	 0.0016791192	-2.7833502758	-1.3547954959	 0.278954
H	 0.0831467955	-3.9341885942	 1.873379782	 0.280882
119.7467	190.8638	232.8938	249.7043	276.8988	373.3293	445.9341	531.0064	623.0106	660.0179	685.9069	700.1079	785.1302	835.6274	903.9345	993.8599	1019.8532	1065.4161	1075.5401	1162.5507	1263.8697	1290.6202	1368.882	1385.0607	1415.6493	1448.6719	1479.4757	1488.3865	1505.9824	1568.1545	1656.6561	3041.4789	3095.1453	3140.6016	3687.4123	3703.0973
CC1=NNC2=C1N=NN2	Cc1n[nH]c2c1nn[nH]2	
InChI=1S/C4H5N5/c1-2-3-4(7-5-2)8-9-6-3/h1H3,(H2,5,6,7,8,9)	InChI=1S/C4H5N5/c1-2-3-4(7-5-2)8-9-6-3/h1H3,(H2,5,6,7,8,9)
