16
gdb 44815	2.84133	1.53128	1.1887	3.4392	68.66	-0.2485	-0.0087	0.2398	1039.2626	0.12482	-437.847617	-437.840045	-437.839101	-437.880313	28.425	
O	 0.1704216947	-0.0006812748	 0.3426757554	-0.339135
C	 0.157746956	 1.1870875138	 0.2756904855	 0.433489
O	-0.9399443504	 2.0291871321	 0.3591979591	-0.259814
C	-0.1031590167	 3.162202361	-0.0166723478	 0.042433
C	 0.8991068101	 3.3922525787	 1.0488167283	-0.343694
C	 1.1420278551	 2.2972247534	-0.0097715096	 0.131297
C	 2.3478520144	 2.2040410407	-0.8678103227	-0.117473
C	 3.178429855	 0.9696891679	-0.8450195223	-0.245035
N	 2.3793529772	 1.3077523438	-2.035048334	-0.324726
H	-0.5017968195	 3.8487481797	-0.7492725548	 0.141246
H	 1.5460946934	 4.2565500177	 0.9257767734	 0.137687
H	 0.6634947049	 3.1299113088	 2.0752587643	 0.1427
H	 2.844337278	 3.1568970684	-1.0404444773	 0.094365
H	 4.2542362665	 1.0428313852	-0.9753296647	 0.12175
H	 2.8388850703	 0.1531976695	-0.2148872178	 0.141783
H	 1.5437539809	 0.7267607041	-2.0537011551	 0.243129
56.0253	141.7362	170.0378	209.2441	357.3166	449.1618	467.9148	487.6398	659.363	706.1035	781.4986	833.0308	843.8033	862.451	902.6332	925.6587	943.6938	968.5658	1012.8584	1027.3115	1050.0167	1069.4119	1088.8241	1115.4394	1147.7724	1186.3777	1222.7608	1264.6998	1293.3687	1301.7162	1363.6353	1443.0145	1487.2234	1508.9191	1922.7473	3116.121	3121.4948	3124.7284	3209.1703	3214.4721	3234.3757	3497.1866
O=C1OC2CC12C1CN1	O=C1O[C@H]2C[C@@]12[C@H]1CN1	
InChI=1S/C6H7NO2/c8-5-6(3-2-7-3)1-4(6)9-5/h3-4,7H,1-2H2	InChI=1S/C6H7NO2/c8-5-6(3-2-7-3)1-4(6)9-5/h3-4,7H,1-2H2/t3-,4+,6+/m1/s1
