16
gdb 44249	3.06638	1.49299	1.19575	2.3514	69.88	-0.2538	-0.0385	0.2153	1025.9939	0.125366	-437.910562	-437.903176	-437.902232	-437.943136	27.858	
N	-0.1497485453	 1.3315561742	 0.0832152251	-0.536136
C	-0.0419989531	 0.0749111003	 0.1077858762	 0.409877
O	 1.1394442104	-0.600361794	 0.2635321146	-0.240053
C	 0.9330030701	-2.0059068244	 0.4722046203	-0.10927
C	-0.5016013	-2.2898563181	 0.0184822614	-0.169973
C	-1.1872896624	-0.8964545562	-0.0721670901	-0.128693
C	-1.5629593819	-1.1483351496	-1.5697479071	-0.34806
C	-0.7138996873	-2.4274052137	-1.5084627861	 0.399465
O	-0.3136953141	-3.208900384	-2.3184273696	-0.284729
H	 0.7590442441	 1.7762802904	 0.2229412781	 0.226007
H	 1.6789398998	-2.5530438854	-0.1104992181	 0.140586
H	 1.0777914032	-2.2304326988	 1.5350659071	 0.120564
H	-0.9931625831	-3.0717766589	 0.5999597641	 0.113871
H	-2.01667216	-0.6634473212	 0.5922773774	 0.113011
H	-2.6246406161	-1.371969437	-1.7153943248	 0.141301
H	-1.2612511243	-0.3900765938	-2.2961437686	 0.152232
55.7402	109.1253	204.3655	244.3345	423.5735	429.6275	526.8705	562.7105	668.7264	687.1239	739.4122	754.6387	815.2579	889.0574	896.5259	945.0795	958.7358	971.3309	1020.1309	1033.8531	1081.4016	1110.9373	1127.1109	1160.9955	1206.5148	1236.6886	1242.7412	1262.9735	1279.5389	1313.9806	1400.4332	1438.0415	1519.6478	1774.2824	1898.1204	3037.4052	3061.6118	3097.9399	3105.539	3121.5619	3140.4747	3475.1643
N=C1OCC2C1CC2=O	[NH][C]1OC[C@H]2[C@@H]1CC2=O	
InChI=1S/C6H7NO2/c7-6-3-1-5(8)4(3)2-9-6/h3-4,7H,1-2H2	InChI=1S/C6H7NO2/c7-6-3-1-5(8)4(3)2-9-6/h3-4,7H,1-2H2/t3-,4-/m0/s1
