17
gdb 79724	2.75578	1.7262	1.39943	4.0625	72.42	-0.2407	0.0113	0.252	967.2965	0.136847	-417.960604	-417.952972	-417.952028	-417.992851	28.841	
C	-0.0238653852	 1.4024742367	-0.1783561598	-0.353082
N	-0.0146211927	-0.018901154	 0.0669036828	-0.053271
C	-1.0636257905	-1.0326754442	 0.0214197849	-0.025525
C	-1.4598202341	-1.6030653614	-1.3635372665	-0.044495
C	-0.3295706576	-1.658971168	-2.3082222158	-0.258529
N	-0.4116386267	-2.7050235078	-1.271451525	-0.140391
C	 0.0347300351	-2.109295246	 0.0652291305	-0.137526
C	 1.0370284326	-0.9223140552	 0.0507729664	 0.372853
O	 2.2274085354	-0.7584594782	 0.003389242	-0.368298
H	 1.0142908828	 1.7437545775	-0.1851420015	 0.163248
H	-0.482040516	 1.6406544843	-1.1464744502	 0.131521
H	-0.5685638151	 1.9388964357	 0.606319485	 0.133146
H	-1.8565037773	-0.9424442213	 0.763670347	 0.093926
H	-2.4801087716	-1.8349938939	-1.6511123157	 0.102943
H	-0.5382491239	-2.0537363438	-3.297878317	 0.130439
H	 0.4677253613	-0.9224780759	-2.2786651871	 0.141599
H	 0.1228943036	-2.8709424844	 0.835757	 0.111442
109.2394	139.3989	143.3953	235.5931	270.4193	379.253	490.0407	560.4097	648.6449	706.5293	726.2528	767.8754	815.0318	817.4871	901.4008	924.9407	953.714	979.8273	1036.365	1043.4876	1070.422	1111.6874	1130.989	1146.8933	1170.0712	1190.3483	1217.7885	1255.0032	1287.3357	1296.0857	1349.1238	1395.2941	1445.6006	1483.6035	1501.6634	1512.8268	1868.737	3017.9815	3075.1353	3114.6952	3122.6862	3128.6525	3154.0034	3165.5954	3207.5654
CN1C2C3CN3C2C1=O	CN1[C@H]2[C@H]3CN3[C@H]2C1=O	
InChI=1S/C6H8N2O/c1-7-4-3-2-8(3)5(4)6(7)9/h3-5H,2H2,1H3	InChI=1S/C6H8N2O/c1-7-4-3-2-8(3)5(4)6(7)9/h3-5H,2H2,1H3/t3-,4+,5-,8?/m1/s1
