19
gdb 27147	2.85412	1.39151	1.01596	2.6912	84.91	-0.189	0.045	0.234	1203.2751	0.160024	-382.073568	-382.064889	-382.063945	-382.107386	32.66	
C	 0.1430179545	 1.5207617972	 0.0043665777	-0.508903
C	 0.0524215516	 0.026469443	 0.0460257237	 0.211718
C	-0.1388077227	-0.7983317926	-1.0420001989	 0.258847
N	-0.164839732	-2.1068457395	-0.5879542549	-0.308537
C	 0.0071604976	-2.1200759908	 0.775334493	-0.090807
C	 0.14414044	-0.8202285519	 1.1929649699	-0.230618
N	-0.2848269486	-0.410089914	-2.3863340224	-0.15974
C	 0.2793813534	-1.2351907968	-3.4571140604	-0.229315
C	-1.1945681893	-1.1424907415	-3.2703503005	-0.229348
H	 1.1057139499	 1.8805273801	 0.3869616377	 0.117019
H	 0.0332463768	 1.8763231969	-1.0229752225	 0.133143
H	-0.638384579	 1.9924770291	 0.612194958	 0.116999
H	-0.2897303552	-2.9241789552	-1.1577860822	 0.254617
H	 0.0169468049	-3.0484972536	 1.3235049968	 0.112553
H	 0.2945685772	-0.4976749619	 2.2124814631	 0.087265
H	 0.7687214403	-0.6881767134	-4.2583269992	 0.124052
H	 0.7694126271	-2.1674688318	-3.183603865	 0.108529
H	-1.7124536754	-2.0114176112	-2.8692927586	 0.108472
H	-1.7963130814	-0.5268500421	-3.9333105253	 0.124055
42.4922	125.008	171.6366	173.8753	248.0053	273.0834	381.3038	451.9395	477.4307	563.2628	635.0068	679.0684	681.2237	724.196	810.6404	821.7125	853.7312	896.8808	925.3136	986.2157	1027.2511	1067.5097	1075.5	1101.1995	1116.158	1119.1724	1147.2606	1175.3002	1187.066	1221.0557	1285.5386	1338.2306	1410.8061	1430.3114	1479.6495	1491.8376	1496.4072	1496.8425	1514.368	1521.7918	1643.2341	3022.0405	3066.5488	3097.4535	3102.358	3120.7316	3176.8775	3192.7773	3238.9993	3266.0551	3689.9346
CC1=C(NC=C1)N1CC1	Cc1c([nH]cc1)N1CC1	
InChI=1S/C7H10N2/c1-6-2-3-8-7(6)9-4-5-9/h2-3,8H,4-5H2,1H3	InChI=1S/C7H10N2/c1-6-2-3-8-7(6)9-4-5-9/h2-3,8H,4-5H2,1H3
