19
gdb 5117	3.26166	1.95792	1.2521	1.8963	79.78	-0.187	0.0538	0.2409	1001.5012	0.165026	-327.97487	-327.965809	-327.964864	-328.009102	32.115	
C	-0.0046155597	 1.4410984379	 0.0324764771	-0.335702
N	 0.0217324625	-0.0041971571	 0.0191848206	-0.026733
C	 0.0542598198	-0.7850613624	-1.1102795166	-0.107423
C	 0.0717586815	-2.1007370524	-0.7227359267	-0.257675
C	 0.049135558	-2.1329421588	 0.7033307503	 0.207859
C	 0.0580129698	-3.3714056526	 1.5498087105	-0.503921
C	 0.0183411264	-0.8194443739	 1.1370475049	 0.197931
C	-0.0145358495	-0.2409039958	 2.5137404453	-0.506506
H	 0.86704149	 1.8544994454	 0.5523565882	 0.134055
H	 0.0064430248	 1.8046403311	-0.9965747438	 0.13784
H	-0.9078816861	 1.8225091881	 0.5219917859	 0.134038
H	 0.0617782911	-0.3301693082	-2.0885026211	 0.107954
H	 0.0978929809	-2.9555437064	-1.3822449381	 0.084858
H	 0.9530493234	-3.979108242	 1.3693718193	 0.121017
H	 0.0358740949	-3.1377156905	 2.6180722075	 0.113326
H	-0.8074083698	-4.011691339	 1.3400172875	 0.121011
H	 0.8532455875	 0.3990843411	 2.7213261648	 0.122425
H	-0.9109621763	 0.3675241818	 2.6924424653	 0.122424
H	-0.012371829	-1.0395616963	 3.2581585391	 0.13322
47.7451	61.7866	144.4513	152.839	232.8	281.6628	285.152	287.3928	468.625	571.9327	612.6543	654.4313	704.5036	707.4886	740.6886	791.9492	945.0237	987.1126	1051.2268	1054.1961	1063.3867	1098.3935	1130.8333	1149.3507	1208.2042	1252.6112	1364.4095	1404.425	1411.5972	1427.1308	1454.6952	1472.3884	1475.3683	1483.2084	1487.4088	1490.0574	1501.3585	1519.6012	1539.9779	1623.6694	3008.3386	3020.6033	3025.6777	3047.0084	3064.6007	3076.3042	3102.0976	3125.207	3132.9019	3234.4975	3259.1071
CN1C=CC(C)=C1C	Cn1ccc(C)c1C	
InChI=1S/C7H11N/c1-6-4-5-8(3)7(6)2/h4-5H,1-3H3	InChI=1S/C7H11N/c1-6-4-5-8(3)7(6)2/h4-5H,1-3H3
