17
gdb 58399	2.21759	1.12709	0.9543	3.3777	70.53	-0.2719	0.0038	0.2757	1300.412	0.134372	-455.181982	-455.172129	-455.171184	-455.217561	34.514	
C	-0.0116425063	 1.5158528786	-0.0064245621	-0.43007
C	-0.1155044025	-0.0042269831	 0.0001651921	 0.114757
O	 0.7157908733	-0.6086202907	 0.9808989232	-0.437808
C	-1.5702481959	-0.5221769068	 0.1729088667	-0.124051
N	-1.5893576502	-1.9694853209	 0.1123837667	-0.272247
C	-2.3834027573	-2.6454918486	-0.7663768364	 0.161314
O	-3.1778756632	-2.1258776319	-1.5185455607	-0.315065
C	-2.1169573294	-0.0423074346	 1.4565174132	 0.273989
N	-2.4776014624	 0.3464399135	 2.4835029418	-0.324707
H	 1.0326161034	 1.8109621095	-0.1349103422	 0.138863
H	-0.5969823033	 1.9459200246	-0.8250820182	 0.134171
H	-0.3805413985	 1.9421778488	 0.932885668	 0.142896
H	 0.2320699538	-0.4087393518	-0.9561891986	 0.113271
H	 0.5603060709	-0.1602715698	 1.8216830745	 0.298094
H	-2.2081864942	-0.1659830269	-0.6421697384	 0.16591
H	-0.8904634915	-2.4541971661	 0.655496342	 0.266844
H	-2.2174907865	-3.7375532639	-0.7123871115	 0.09384
40.0416	82.5686	131.4981	160.5561	186.7569	233.4487	253.656	325.0692	362.2544	392.1797	417.5031	500.6355	573.8904	584.0529	681.3519	733.9755	875.4469	924.2401	950.2072	1030.1329	1041.9365	1062.8872	1100.2157	1154.9461	1199.1389	1260.7879	1308.5697	1328.121	1371.098	1412.4708	1423.3843	1427.6316	1491.6305	1496.3458	1505.3827	1803.5963	2352.8865	2965.1407	3039.729	3064.8249	3084.2818	3111.754	3127.7618	3625.9797	3782.7162
CC(O)C(NC=O)C#N	C[C@@H](O)[C@@H](NC=O)C#N	
InChI=1S/C5H8N2O2/c1-4(9)5(2-6)7-3-8/h3-5,9H,1H3,(H,7,8)	InChI=1S/C5H8N2O2/c1-4(9)5(2-6)7-3-8/h3-5,9H,1H3,(H,7,8)/t4-,5+/m1/s1
