14
gdb 17875	3.48064	2.16966	2.02912	3.2227	56.96	-0.2309	-0.0335	0.1974	723.3151	0.108242	-419.648863	-419.642665	-419.64172	-419.679128	23.785	
O	 0.0021661424	 0.0199771858	 0.064071846	-0.301769
C	-0.0144838521	 1.2104345911	 0.0125240784	 0.437945
C	-1.0980223719	 2.3289456144	 0.0608839399	-0.004834
C	-0.0292349043	 3.1431543737	 0.8498640856	-0.308483
C	 1.0395843239	 2.3576086036	 0.0323830243	-0.004834
O	 1.1264945197	 2.8482932317	-1.3123898032	-0.27498
C	-0.068127546	 3.4824610672	-1.7259201197	 0.028833
O	-1.2338711863	 2.8166431043	-1.2809192191	-0.27498
H	-2.095072335	 2.1496118895	 0.4625460939	 0.105681
H	-0.0447255874	 4.2306805289	 0.7817461173	 0.128421
H	-0.0111786159	 2.8405047535	 1.8997455683	 0.130736
H	 2.051435891	 2.2052112455	 0.4072606913	 0.105681
H	-0.0774346844	 4.5248058078	-1.37569825	 0.099067
H	-0.0824527363	 3.4650077828	-2.817895003	 0.133513
137.2396	213.0844	306.933	413.6375	447.9381	453.6755	565.6233	670.4804	819.5826	820.9272	825.0544	902.3597	916.1847	984.5856	991.7298	1017.1447	1070.6004	1123.0565	1153.3501	1153.9384	1183.9539	1234.1901	1240.9453	1260.621	1324.1527	1339.3495	1431.2513	1475.22	1543.0136	1912.8146	2990.2262	3082.7495	3107.2717	3124.3657	3127.3237	3148.252
O=C1C2CC1OCO2	O=C1[C@H]2C[C@@H]1OCO2	
InChI=1S/C5H6O3/c6-5-3-1-4(5)8-2-7-3/h3-4H,1-2H2	InChI=1S/C5H6O3/c6-5-3-1-4(5)8-2-7-3/h3-4H,1-2H2/t3-,4+
