18
gdb 22041	1.96265	1.57732	1.06974	1.6707	79.34	-0.2371	-0.0333	0.2038	1179.3566	0.142254	-439.002212	-438.991662	-438.990718	-439.037149	38.966	
C	-0.5998910106	 1.2968660055	-0.0986790959	-0.428401
C	 0.0687835582	-0.0758383955	 0.1038213984	 0.25297
C	 1.0999457483	 0.0012037893	 1.2384460786	-0.419455
O	-0.8972312756	-1.0790215494	 0.4207401719	-0.448817
C	 0.7155853458	-0.5362157193	-1.2187772066	 0.18925
N	 0.1063414785	-0.8186264638	-2.3192966564	-0.174345
O	-1.2689640637	-0.6791526482	-2.2605122253	-0.366235
C	 2.1356937342	-0.6587113255	-1.3002835091	 0.280923
C	 3.335627308	-0.7464505763	-1.3469142677	-0.408459
H	 0.142095551	 2.0575092412	-0.3597890988	 0.124101
H	-1.3527246654	 1.2495477319	-0.8846884873	 0.148084
H	-1.079275977	 1.6107122396	 0.8367494852	 0.1032
H	 0.5896973728	 0.302971566	 2.1596442372	 0.098834
H	 1.5622637679	-0.97418421	 1.4039382179	 0.133035
H	 1.8870037405	 0.7299106557	 1.0293440629	 0.124089
H	-1.4587180525	-0.7253744969	 1.1187953786	 0.278678
H	-1.5318592513	-0.9208315677	-3.1558622087	 0.313268
H	 4.3929230309	-0.8326174667	-1.3963489952	 0.199278
66.5593	102.7681	163.3836	193.799	218.216	238.9116	264.7683	285.7048	319.0634	376.1304	393.1348	423.3099	449.9589	490.4651	554.9741	571.2134	603.0586	663.0858	677.5288	699.7348	866.9672	924.6195	977.4869	1013.5324	1032.9235	1112.6236	1194.66	1208.2994	1226.5273	1373.4509	1392.2685	1405.1771	1416.6713	1478.5525	1481.1379	1494.639	1513.3569	1659.7403	2223.559	3029.0351	3040.0679	3096.7651	3111.814	3136.6137	3161.0678	3502.4507	3804.2832	3808.0622
CC(C)(O)C(=NO)C#C	CC(C)(O)C(=NO)C#C	
InChI=1S/C6H9NO2/c1-4-5(7-9)6(2,3)8/h1,8-9H,2-3H3	InChI=1S/C6H9NO2/c1-4-5(7-9)6(2,3)8/h1,8-9H,2-3H3
