23
gdb 121885	3.81882	0.67326	0.62666	1.761	83.94	-0.2402	-0.0107	0.2295	1898.3487	0.201648	-425.449164	-425.437496	-425.436552	-425.487421	40.068	
C	 0.0446813455	 1.5100278717	 0.0473277228	-0.385581
C	-0.0068583401	-0.0082986451	 0.0318790395	-0.027323
O	 0.7118915717	-0.4964121308	 1.146397814	-0.25306
C	 0.7278629782	-1.9058022977	 1.2254965687	-0.053483
C	 1.4907341905	-2.3042231255	 2.4889950071	-0.103092
C	 0.7826074028	-1.7849219913	 3.7578005109	-0.398182
C	 1.6461385201	-3.8218968959	 2.5645805509	 0.382532
C	 2.8227519764	-4.3489659476	 3.366255483	-0.480397
O	 0.8675375752	-4.5672634166	 2.012127127	-0.307825
H	 1.0797488726	 1.8596447106	-0.005134495	 0.125185
H	-0.5038725554	 1.9189836404	-0.8063932512	 0.115129
H	-0.4022100777	 1.9003706706	 0.9662313053	 0.124911
H	-1.0511373491	-0.3618726476	 0.0693234319	 0.087456
H	 0.4297577602	-0.4007746114	-0.9023130861	 0.085986
H	-0.2942288042	-2.3119105929	 1.2610731936	 0.1038
H	 1.2124530521	-2.3382463894	 0.335182228	 0.089303
H	 2.4897044315	-1.8512561663	 2.4472904922	 0.087762
H	 0.6404091529	-0.7056910215	 3.6750863948	 0.142957
H	-0.2000218069	-2.2557192079	 3.8673816806	 0.12787
H	 1.3625402674	-1.9901884407	 4.6622660226	 0.113939
H	 2.9063348874	-3.8457426127	 4.3345967548	 0.136991
H	 2.7255052654	-5.4259637181	 3.5083029386	 0.141584
H	 3.7512221935	-4.1408943543	 2.8204144261	 0.143537
41.8016	54.5925	81.6358	104.8886	126.7544	147.3801	210.2172	216.8103	246.2435	265.8462	306.9667	330.7646	450.3702	496.8626	596.3484	603.9913	787.8622	821.3357	894.7129	904.7961	932.8155	954.3578	992.9041	1043.5538	1075.7091	1127.0639	1143.11	1152.5774	1171.6506	1185.8586	1202.3375	1265.7136	1296.8049	1324.5559	1343.0235	1381.0089	1391.4816	1398.9384	1408.4352	1451.4571	1462.8778	1475.2868	1483.7704	1492.8694	1499.8317	1505.4175	1512.4933	1535.3751	1803.2315	2954.2431	2974.7002	2979.8471	3009.2797	3031.6407	3037.7248	3041.6986	3044.3564	3098.8997	3109.5121	3118.9441	3119.9763	3135.7115	3152.2287
CCOCC(C)C(C)=O	CCOC[C@@H](C)C(=O)C	
InChI=1S/C7H14O2/c1-4-9-5-6(2)7(3)8/h6H,4-5H2,1-3H3	InChI=1S/C7H14O2/c1-4-9-5-6(2)7(3)8/h6H,4-5H2,1-3H3/t6-/m1/s1
