18
gdb 8670	2.40382	1.72337	1.42332	1.6239	69.35	-0.2566	0.0394	0.296	983.8665	0.151235	-384.899453	-384.889924	-384.88898	-384.933488	34.942	
C	 0.0102423013	 1.59256813	-0.0137257942	-0.429049
C	 0.0031628283	 0.0516489354	-0.0131602584	 0.024107
C	 0.7073164443	-0.4551446629	 1.2712338979	-0.092171
O	 0.5464679453	-1.8479883623	 1.4748961415	-0.432564
C	-1.4627971921	-0.4827319126	-0.0404273655	-0.074223
O	-2.1408308818	-0.2534652336	 1.1786191424	-0.427375
C	 0.7058229065	-0.4873640979	-1.178286128	 0.318512
C	 1.2769798866	-0.9826741588	-2.1149573758	-0.49114
H	 1.0196378543	 1.9861806856	 0.1389654059	 0.120334
H	-0.3634083433	 1.9807906686	-0.964842891	 0.125835
H	-0.6369678069	 1.9559305201	 0.7894624961	 0.136663
H	 1.7674241974	-0.1677497766	 1.2403998851	 0.101649
H	 0.2483703021	 0.0324711324	 2.1354068781	 0.116735
H	 0.9368796741	-2.295333074	 0.714423797	 0.289997
H	-2.0186671105	 0.0456697218	-0.8212535735	 0.114597
H	-1.4526774811	-1.5478195107	-0.2965529264	 0.100534
H	-1.8456195849	-0.9367273904	 1.7907028481	 0.297933
H	 1.7792281002	-1.394506274	-2.955443569	 0.199623
52.526	113.8724	144.9132	190.5903	237.9588	252.4727	297.0007	342.7288	411.9256	442.1377	483.1775	501.9725	538.1586	595.7283	631.6413	648.6918	748.1782	873.4997	900.9113	953.4069	1008.4202	1073.0903	1082.0829	1124.9833	1161.3752	1190.8218	1266.2972	1270.4861	1376.5448	1390.7442	1409.0108	1410.9112	1429.8528	1490.2994	1494.9397	1500.4375	1508.6128	2221.7594	3010.6363	3036.3366	3042.7046	3090.1636	3097.3502	3115.94	3125.4418	3499.1072	3786.0829	3808.646
CC(CO)(CO)C#C	CC(CO)(CO)C#C	
InChI=1S/C6H10O2/c1-3-6(2,4-7)5-8/h1,7-8H,4-5H2,2H3	InChI=1S/C6H10O2/c1-3-6(2,4-7)5-8/h1,7-8H,4-5H2,2H3
