17
gdb 13080	4.29361	1.25608	1.05343	3.4338	68.45	-0.2591	0.0292	0.2883	1103.9012	0.141899	-363.861922	-363.853674	-363.85273	-363.89531	29.188	
C	-0.3507575251	 1.5263093784	-0.0584504337	-0.409932
C	 0.1615627547	 0.1011871042	-0.0443802523	 0.137693
O	 1.466631057	-0.0356109757	-0.6539342672	-0.287481
C	 1.9088014895	-0.9166668767	 0.3986596534	-0.080158
C	 0.6742386185	-0.5756727699	 1.2591522383	-0.053104
C	 0.9556399041	 0.3613737204	 2.4426374296	-0.364603
C	 1.6458991784	-0.3330667126	 3.5284332593	 0.261432
N	 2.1925701549	-0.9019620308	 4.3727588747	-0.301003
H	 0.3354426124	 2.213521442	 0.4434294272	 0.122107
H	-0.4612410377	 1.8622693144	-1.0939799116	 0.136877
H	-1.3328599566	 1.5898187082	 0.4225558459	 0.121246
H	-0.5632633764	-0.5514222634	-0.5544728531	 0.079137
H	 1.9536409935	-1.9624860639	 0.0691494651	 0.108518
H	 2.8869461897	-0.6264904517	 0.7986280782	 0.116256
H	 0.0841070311	-1.4287734879	 1.5985105964	 0.097964
H	 1.5771016636	 1.205277894	 2.1235721422	 0.160955
H	 0.0226085984	 0.7819234809	 2.8346286976	 0.154097
67.5446	79.8447	129.9732	202.5848	237.3339	348.7988	365.5754	401.2005	501.8778	531.5654	737.9816	842.6456	864.0117	886.3751	919.8867	943.4864	1010.7826	1018.7276	1076.2465	1101.2923	1143.9575	1158.2528	1174.9882	1228.6632	1249.3943	1294.3244	1318.9797	1359.1261	1385.5113	1391.4967	1413.0231	1465.9045	1482.5147	1500.5485	1525.056	2361.9816	2983.1183	3017.5555	3039.1943	3045.4956	3065.88	3081.451	3100.1306	3109.5167	3122.7293
CC1OCC1CC#N	C[C@H]1OC[C@H]1CC#N	
InChI=1S/C6H9NO/c1-5-6(2-3-7)4-8-5/h5-6H,2,4H2,1H3	InChI=1S/C6H9NO/c1-5-6(2-3-7)4-8-5/h5-6H,2,4H2,1H3/t5-,6-/m1/s1
