18
gdb 32428	2.94578	1.23593	0.93229	0.6683	75.98	-0.1793	0.0394	0.2187	1268.5274	0.146943	-439.108467	-439.098931	-439.097987	-439.142905	34.811	
C	 0.0688486635	 1.5216378885	 0.1712710536	-0.368078
C	-0.0966269732	 0.0112389069	-0.0688306101	-0.299268
C	 0.6448155857	-0.4852879083	-1.2723899414	 0.193546
C	 0.1328063944	-0.9610487792	-2.4351692184	-0.147248
O	 1.1393815381	-1.3260289814	-3.3022938782	-0.178293
C	 2.3102489684	-1.0810296459	-2.6721973195	 0.320105
N	 3.4801215599	-1.3195947649	-3.3822857827	-0.600598
C	 2.0769959967	-0.5651077361	-1.4323602471	 0.045117
O	 3.0512739413	-0.2867948949	-0.4965277195	-0.454269
H	 1.1187843044	 1.7809753762	 0.34387189	 0.10241
H	-0.280253708	 2.0965159443	-0.6918268314	 0.121748
H	-0.4980470944	 1.8431259584	 1.0506315048	 0.113722
H	 0.2522169464	-0.5293001264	 0.8200463543	 0.113455
H	-1.1605963361	-0.2255236076	-0.178863169	 0.102957
H	-0.8687653625	-1.116672868	-2.798210396	 0.127711
H	 3.4614096301	-2.20373949	-3.8783715647	 0.252891
H	 4.2777983024	-1.290160471	-2.7587197725	 0.257053
H	 3.1662805028	 0.6680730094	-0.4375319121	 0.297039
56.1959	118.9993	156.3126	184.8934	239.9925	246.6076	278.8589	292.9231	315.6754	418.771	523.0353	569.2457	633.0248	671.6621	693.003	716.1443	759.6198	795.1438	809.8614	954.9559	1008.3508	1061.3972	1087.3734	1112.2344	1152.526	1218.4357	1249.0632	1276.8051	1325.3127	1354.7878	1365.0945	1404.1153	1472.2276	1482.0865	1497.7565	1504.2924	1613.8692	1631.3259	1708.8838	3026.8103	3034.1716	3065.3228	3101.7184	3111.9306	3281.1789	3519.0403	3617.734	3781.6208
CCC1=COC(N)=C1O	CCc1coc(N)c1O	
InChI=1S/C6H9NO2/c1-2-4-3-9-6(7)5(4)8/h3,8H,2,7H2,1H3	InChI=1S/C6H9NO2/c1-2-4-3-9-6(7)5(4)8/h3,8H,2,7H2,1H3
