16
gdb 68950	2.67664	1.63342	1.32253	4.159	70.01	-0.2487	-0.0393	0.2094	992.4171	0.122421	-437.817405	-437.809425	-437.808481	-437.849908	29.937	
C	 0.1981424895	 1.4340346799	 0.122646461	-0.502867
C	-0.0213301093	-0.0405010799	 0.0870467717	 0.369023
O	 1.0371850802	-0.8882521018	-0.3300818207	-0.295742
C	 0.5312242706	-1.1227093977	 0.9886047137	 0.26213
C	 1.3896599158	-0.9063807966	 2.1705876258	 0.069875
O	 2.4438824592	-0.3196253551	 2.1561674612	-0.267766
C	-0.7773788508	-1.8839000589	 0.8768680414	-0.161453
N	-1.8331389913	-0.9629461602	 1.3756179945	-0.335227
C	-1.3248588951	-0.8231032124	-0.0137408866	-0.131751
H	 1.1797156362	 1.6527302509	 0.5497380814	 0.162161
H	 0.1601259866	 1.851581329	-0.8895333482	 0.135631
H	-0.5772885029	 1.9152242019	 0.7249610795	 0.143285
H	 0.9544576854	-1.3146191939	 3.1084555137	 0.089785
H	-0.9277533592	-2.9540529315	 0.823440894	 0.114344
H	-2.7223244885	-1.4636696062	 1.3267576685	 0.235008
H	-1.9780632966	-0.9271509976	-0.870640391	 0.113564
95.0908	157.9304	201.1796	208.4276	224.9845	318.4667	411.5107	502.6236	526.6408	619.6015	672.6126	750.283	786.8024	808.7782	843.3121	852.1007	903.5331	936.9501	1027.311	1033.4492	1050.4604	1090.8568	1122.663	1133.8068	1165.3004	1228.5057	1284.3583	1332.3006	1343.2972	1397.6234	1426.9974	1447.6202	1485.3622	1488.2104	1807.206	2899.1407	3040.9082	3108.8121	3136.6389	3198.1141	3210.967	3455.8413
CC12OC1(C=O)C1NC21	C[C@@]12O[C@]1(C=O)[C@H]1N[C@@H]21	
InChI=1S/C6H7NO2/c1-5-3-4(7-3)6(5,2-8)9-5/h2-4,7H,1H3	InChI=1S/C6H7NO2/c1-5-3-4(7-3)6(5,2-8)9-5/h2-4,7H,1H3/t3-,4+,5+,6-/m1/s1
