19
gdb 87109	2.59689	1.21661	0.98746	1.9396	78.33	-0.2454	-0.0887	0.1567	1263.162	0.15592	-423.040423	-423.030503	-423.029559	-423.076011	35.48	
C	-0.2603349219	 1.4849678846	 0.3659425486	-0.41951
C	-0.0248797497	 0.004874063	 0.1735094581	 0.005054
C	 1.2542741484	-0.5466437947	-0.3459586443	-0.306421
C	 0.8945655045	-0.80659932	 1.1207230647	 0.17912
C	 1.6890719607	-0.0981234177	 2.2041005426	-0.467887
C	 0.3755414215	-2.1805583615	 1.3587703654	 0.237596
O	-0.1443106957	-2.8610979789	 0.4926210843	-0.311295
C	 0.409305451	-2.8428425945	 2.7487451274	 0.089912
O	 0.6917183519	-2.3140202991	 3.7902850745	-0.231459
H	 0.6573384291	 2.0249125295	 0.61101759	 0.122452
H	-0.6580569945	 1.9187200356	-0.5581525214	 0.128583
H	-0.9881669739	 1.6755392553	 1.1615403751	 0.126655
H	-0.9058827281	-0.5584162468	-0.1208737336	 0.11098
H	 1.2108903314	-1.4021369001	-1.010009667	 0.135972
H	 2.0812739818	 0.1369043702	-0.5099643142	 0.115404
H	 2.1022583242	 0.8369929956	 1.8192860545	 0.110122
H	 1.0821192344	 0.1289354546	 3.0825090819	 0.139121
H	 2.5300936598	-0.7106604408	 2.5411481704	 0.126344
H	 0.082740305	-3.9023147143	 2.673174533	 0.109254
27.8232	90.6966	161.3783	170.7048	177.8735	226.556	259.6833	290.7588	345.1057	392.0326	438.3616	507.803	595.5079	631.7219	675.9521	737.4563	825.1708	895.9784	930.6959	968.6537	1016.0055	1040.1713	1070.8085	1097.794	1111.4614	1133.1127	1168.9147	1203.5999	1299.4028	1317.6106	1377.0219	1398.8066	1419.1753	1431.056	1470.5907	1484.6062	1488.1218	1497.9474	1506.5058	1748.0332	1827.6202	2917.3328	3036.691	3052.7808	3095.1841	3112.0944	3120.2391	3130.5263	3134.0747	3155.8204	3227.8394
CC1CC1(C)C(=O)C=O	C[C@H]1C[C@]1(C)C(=O)C=O	
InChI=1S/C7H10O2/c1-5-3-7(5,2)6(9)4-8/h4-5H,3H2,1-2H3	InChI=1S/C7H10O2/c1-5-3-7(5,2)6(9)4-8/h4-5H,3H2,1-2H3/t5-,7-/m0/s1
