18
gdb 17884	3.73293	1.97875	1.75404	1.1292	71.75	-0.229	0.0203	0.2494	820.6661	0.156344	-347.79648	-347.789897	-347.788953	-347.826635	27.32	
O	-0.069069088	 1.3899348547	 0.0387764135	-0.45199
C	 0.0289982278	-0.0190346573	-0.0109661296	 0.162929
C	-1.3976180901	-0.6208480172	-0.103474158	-0.027498
C	-1.2861980881	-0.4333871216	-1.6471692715	-0.220204
C	 0.2514168992	-0.6079676321	-1.4461196218	-0.103428
C	 0.5497568253	-2.0823838321	-1.2865338662	-0.06789
C	-0.2234759394	-2.7966185247	-0.4666264435	-0.060615
C	-1.3589965263	-2.1142351152	 0.2645637561	-0.266108
H	 0.8055541674	 1.7539315986	-0.1324715145	 0.279832
H	 0.6911377705	-0.4050596623	 0.7762826083	 0.057649
H	-2.1826659268	-0.0805572754	 0.4297962094	 0.068509
H	-1.7892495685	-1.1568702529	-2.2926213248	 0.089503
H	-1.5445405789	 0.5852803437	-1.9373773413	 0.108711
H	 0.9410850364	-0.0893223268	-2.1157435103	 0.050064
H	 1.3788066142	-2.5266554589	-1.8287112478	 0.084548
H	-0.0683144	-3.8604818406	-0.311609009	 0.085961
H	-1.2374585551	-2.233318992	 1.3506380007	 0.105087
H	-2.3171446199	-2.5934101978	 0.0175735904	 0.104942
226.1286	268.2883	316.0127	330.7468	361.2076	473.7603	479.798	522.7261	703.5276	716.7127	837.1122	857.0407	876.8828	910.6224	927.7314	943.1482	967.1434	979.8793	1003.0197	1065.5351	1085.0287	1098.6625	1116.0668	1128.8383	1165.85	1191.7367	1213.9814	1253.552	1287.1594	1299.7652	1302.7807	1327.0297	1356.2618	1397.5184	1416.9183	1473.4394	1488.4351	1698.1567	3000.5508	3003.2093	3024.5469	3069.9242	3081.5268	3087.8992	3138.5891	3158.496	3182.6711	3811.2459
OC1C2CC1C=CC2	O[C@H]1[C@H]2C[C@@H]1C=CC2	
InChI=1S/C7H10O/c8-7-5-2-1-3-6(7)4-5/h1-2,5-8H,3-4H2	InChI=1S/C7H10O/c8-7-5-2-1-3-6(7)4-5/h1-2,5-8H,3-4H2/t5-,6+,7+/m0/s1
