19
gdb 59687	2.13488	1.48357	0.96317	5.9288	76.08	-0.251	0.0197	0.2707	1236.009	0.158877	-419.189965	-419.180511	-419.179566	-419.224499	34.489	
C	 0.0129524859	 1.5641699749	-0.1000761009	-0.411793
C	 0.007194798	 0.0349315442	-0.0731801913	 0.120172
O	 0.890085598	-0.4650197999	 0.9232848018	-0.419487
C	-1.3990956291	-0.5321161608	 0.1285074718	-0.022744
C	-2.3881637446	-0.349285694	-1.0560467683	-0.187811
N	-2.1152899368	-1.7423474281	-1.4702471463	-0.297405
C	-1.5695012553	-2.0670492668	-0.1355221499	-0.146199
C	-0.4131231229	-2.9662458545	-0.1470446593	 0.319951
N	 0.457401194	-3.725600133	-0.1712947395	-0.334592
H	 1.0378372106	 1.9268507886	-0.2121506974	 0.134363
H	-0.5857534412	 1.9626597188	-0.9244148579	 0.123004
H	-0.3934626709	 1.970071368	 0.8354819281	 0.106163
H	 0.4088874974	-0.3481805288	-1.0184069032	 0.115704
H	 0.641541607	-0.0686812605	 1.7662575089	 0.2767
H	-1.779812092	-0.2144553808	 1.1036757139	 0.074186
H	-3.4156859192	-0.1608983131	-0.7164760352	 0.098605
H	-2.1281762378	 0.3964275538	-1.8141511314	 0.113114
H	-2.9111222481	-2.2975196964	-1.76356839	 0.229574
H	-2.3069764328	-2.4900221115	 0.5622728361	 0.108493
59.6718	111.3948	119.8433	200.0869	221.2761	241.0702	291.8367	325.7412	361.4078	422.36	470.7922	560.5172	575.1408	672.1817	788.7724	828.7248	911.5784	928.5539	993.3349	1000.9071	1021.4985	1037.6941	1069.0948	1096.7597	1113.0726	1148.5266	1166.2558	1215.6313	1248.7921	1275.715	1325.4534	1328.9301	1362.6666	1392.1973	1398.2986	1403.9779	1417.7888	1492.4205	1494.2594	1523.018	2358.782	2990.4253	3006.07	3024.0489	3050.054	3065.8493	3071.6056	3099.3171	3124.8364	3537.8707	3792.6831
CC(O)C1CNC1C#N	C[C@@H](O)[C@H]1CN[C@H]1C#N	
InChI=1S/C6H10N2O/c1-4(9)5-3-8-6(5)2-7/h4-6,8-9H,3H2,1H3	InChI=1S/C6H10N2O/c1-4(9)5-3-8-6(5)2-7/h4-6,8-9H,3H2,1H3/t4-,5-,6+/m1/s1
