21
gdb 90093	2.73904	1.44086	1.27589	1.5351	84.08	-0.2369	0.0683	0.3053	1109.7122	0.182719	-386.966372	-386.958146	-386.957202	-386.99855	33.415	
C	-0.1663477685	 1.629371491	-0.1313501628	-0.410111
C	 0.0217866909	 0.1198133642	-0.0154120933	-0.014142
C	 1.0296415576	-0.5957197129	-1.0299706121	-0.358412
C	 1.9332214377	-0.859664722	 0.191849875	 0.244766
C	 2.5987730265	-1.7808469765	 1.2690711669	-0.350477
C	 2.0983504045	-0.4714384617	 2.0404886177	-0.139852
C	 2.6745751955	 0.3498898013	 0.8743703927	 0.185349
O	 4.0524301876	 0.5456961279	 0.7057689863	-0.4596
C	 0.790400614	-0.6283428465	 1.1716604257	-0.031183
H	 0.7694816733	 2.1797027453	-0.2514482195	 0.127417
H	-0.7869475421	 1.8595849353	-1.0051946287	 0.114298
H	-0.6793750693	 2.0256249319	 0.75132545	 0.120654
H	-0.9717422061	-0.3338334375	-0.0761746151	 0.081865
H	 0.5872665752	-1.4911431666	-1.4750504705	 0.104661
H	 1.4588205349	 0.0222644836	-1.8245815697	 0.10444
H	 2.0631472443	-2.7052027605	 1.4985878283	 0.103362
H	 3.6777430095	-1.9757713702	 1.2519188297	 0.077458
H	 2.2079993896	-0.2850850337	 3.1132052562	 0.069773
H	 2.2324798846	 1.3333472502	 0.738449184	 0.080223
H	 4.5088465155	-0.2965407985	 0.7944237735	 0.28043
H	 0.226352895	-1.524849264	 1.4427140955	 0.069081
138.0157	197.6485	204.4057	235.7692	258.8921	345.5398	391.1766	415.6991	474.9454	549.5139	617.0751	689.9173	749.7296	782.2161	795.0616	860.8002	865.2967	873.6959	935.5319	944.2337	1003.7859	1016.9141	1044.1062	1064.7067	1081.5872	1096.0975	1107.6803	1139.4795	1165.9944	1183.5342	1194.9501	1204.1055	1230.3096	1240.0923	1249.0125	1270.5041	1285.8819	1351.8215	1381.3777	1414.5213	1463.0139	1476.46	1492.4265	1506.5355	1530.1232	3025.4591	3031.2078	3044.9299	3048.7725	3060.1407	3068.4079	3090.7945	3104.3306	3105.7384	3117.0066	3164.0625	3823.1891
CC1CC23CC(C2O)C13	C[C@H]1C[C@@]23C[C@@H]([C@H]2O)[C@@H]13	
InChI=1S/C8H12O/c1-4-2-8-3-5(6(4)8)7(8)9/h4-7,9H,2-3H2,1H3	InChI=1S/C8H12O/c1-4-2-8-3-5(6(4)8)7(8)9/h4-7,9H,2-3H2,1H3/t4-,5+,6+,7+,8-/m0/s1
