20
gdb 89171	1.92668	1.59775	1.02704	3.0347	82.88	-0.2176	-0.0188	0.1988	1227.6376	0.169063	-403.111209	-403.101933	-403.100989	-403.145066	34.453	
C	-0.2408393065	 1.4357855562	-0.0485773712	-0.333209
N	 0.1747397774	 0.0483400294	-0.0282710412	-0.056675
C	 1.1269779835	-0.4919264811	-1.0319745717	-0.243239
C	 1.9327293395	-1.1544315625	 0.1055901952	 0.264646
C	 2.4656719334	-2.5572012233	 0.0649004588	-0.495508
C	 2.4713414308	-0.095660927	 1.0627123834	-0.156221
C	 3.066238697	 1.2048485981	 0.6893548461	 0.134058
O	 3.8679618372	 1.7930147445	 1.3798497004	-0.277512
C	 0.9692598606	-0.4846138414	 1.0517547772	-0.075597
H	 0.5902999419	 2.1614901246	-0.0362455528	 0.102704
H	-0.8430524735	 1.6226667072	-0.9436997912	 0.125052
H	-0.8708194536	 1.6329896149	 0.824734121	 0.128995
H	 0.6498154533	-1.2192193903	-1.698393015	 0.113184
H	 1.6471299394	 0.2538746678	-1.6443962377	 0.106442
H	 3.349002765	-2.627242848	-0.5803001289	 0.128665
H	 2.7581954861	-2.8975603169	 1.0628250252	 0.127818
H	 1.7118356615	-3.252100497	-0.3213223539	 0.126215
H	 2.966852553	-0.5266356764	 1.9303541885	 0.10491
H	 2.7545508608	 1.6277449904	-0.2893165849	 0.068742
H	 0.5152747532	-0.8306835691	 1.9753306824	 0.10653
83.6076	159.666	180.3684	192.9413	209.0809	236.0401	244.8669	301.8775	385.3726	427.6739	489.7469	559.6166	622.7725	673.3904	821.504	835.4735	908.1613	948.3306	971.4023	980.6674	1033.971	1048.8622	1071.8572	1097.0002	1125.5422	1143.3822	1170.3208	1215.995	1234.7471	1243.1521	1271.0171	1292.1598	1346.0697	1412.2941	1425.1356	1453.1883	1470.0676	1486.9778	1488.1745	1497.1023	1502.4827	1518.2507	1791.8017	2891.9278	2963.4141	3024.6874	3028.6178	3063.1001	3067.0863	3088.5046	3104.0316	3105.5603	3141.4842	3159.3504
CN1CC2(C)C(C=O)C12	CN1C[C@@]2(C)[C@@H](C=O)[C@@H]12	
InChI=1S/C7H11NO/c1-7-4-8(2)6(7)5(7)3-9/h3,5-6H,4H2,1-2H3	InChI=1S/C7H11NO/c1-7-4-8(2)6(7)5(7)3-9/h3,5-6H,4H2,1-2H3/t5-,6+,7-/m0/s1
