17
gdb 36047	4.06894	1.04284	0.92764	3.3481	71.82	-0.2608	0.0241	0.2849	1249.1735	0.13577	-417.967709	-417.95913	-417.958186	-418.001579	31.175	
N	-0.1499828081	-1.1485839249	 0.0666895623	-0.308272
C	-0.0727961587	 0.0039043566	 0.0683539186	 0.272496
C	 0.0268435664	 1.459897279	 0.0920753489	-0.411849
C	 1.4626049514	 1.9902882622	 0.0599768499	 0.353302
C	 2.5942179175	 1.1584407784	 0.4936578558	-0.217874
O	 2.3166224385	 1.3770881156	-0.9003163716	-0.258369
C	 1.535114696	 3.4914407003	 0.1149211981	-0.059812
C	 2.7092068905	 4.2107815125	-0.4265025009	-0.246589
N	 1.4180858438	 4.2613196841	-1.1387218519	-0.32513
H	-0.5207250716	 1.8686414484	-0.7653975535	 0.170341
H	-0.4776377341	 1.83291932	 0.9911644556	 0.162539
H	 3.4913110428	 1.6471602558	 0.8671110291	 0.123749
H	 2.4228673381	 0.1410237194	 0.8373128871	 0.148339
H	 0.9890345277	 3.933720168	 0.9462934214	 0.096781
H	 3.0202124476	 5.1461827802	 0.0286519099	 0.123822
H	 3.5039468034	 3.6140082063	-0.8629411388	 0.132607
H	 1.4681789287	 3.6136552181	-1.9241657699	 0.243918
59.0247	87.1745	132.2908	210.4664	242.0229	336.0368	354.2849	389.118	439.7997	494.134	627.087	712.173	817.0321	855.255	859.2348	911.2223	931.4608	961.366	979.0424	1025.0146	1031.9305	1112.0159	1128.805	1144.3519	1170.4218	1178.6165	1201.9832	1250.5359	1279.1096	1304.9589	1336.2908	1397.3543	1430.0952	1458.2077	1500.5087	1522.9222	2368.2912	3042.5391	3079.5712	3101.7386	3119.6206	3124.7505	3197.4553	3212.0934	3478.6891
N#CCC1(CO1)C1CN1	N#CC[C@]1(CO1)[C@H]1CN1	
InChI=1S/C6H8N2O/c7-2-1-6(4-9-6)5-3-8-5/h5,8H,1,3-4H2	InChI=1S/C6H8N2O/c7-2-1-6(4-9-6)5-3-8-5/h5,8H,1,3-4H2/t5-,6+/m1/s1
