20
gdb 54685	3.29164	1.12137	0.86881	3.5711	82.77	-0.2382	-0.0171	0.2211	1339.2143	0.173149	-403.212403	-403.203726	-403.202782	-403.245831	33.43	
N	 0.0062842036	 1.3401801427	 0.1012396828	-0.545347
C	 0.0797613201	-0.0303969905	 0.0518409757	 0.344831
O	 1.1554088946	-0.6026420371	 0.0043623055	-0.368093
C	-1.2382358061	-0.7520034937	 0.0360582048	 0.181439
C	-1.201713966	-2.0886811998	 0.0930622505	-0.088739
C	-2.4139889272	-2.9724788249	 0.1233403046	-0.256692
C	-3.7060333309	-2.1892474823	 0.3945075704	-0.198023
C	-3.7265811866	-0.8909675234	-0.4185671963	-0.206382
C	-2.5428491128	 0.0149673479	-0.0444384506	-0.326611
H	 0.8769678734	 1.8257431752	 0.2461369124	 0.256703
H	-0.8403979943	 1.8146754987	 0.3616382713	 0.254138
H	-0.2220845529	-2.5582442093	 0.1183479053	 0.119318
H	-2.4857508607	-3.5056756166	-0.8372661654	 0.116163
H	-2.2729202988	-3.7594068581	 0.8751499134	 0.110428
H	-4.5801321278	-2.8062622923	 0.1622428155	 0.095314
H	-3.7657851831	-1.9469305885	 1.4634892405	 0.099564
H	-3.6669522605	-1.1339718177	-1.4872419452	 0.103851
H	-4.6686196354	-0.3529023357	-0.269672778	 0.09412
H	-2.7489729455	 0.5073059665	 0.9191322204	 0.104694
H	-2.4559790032	 0.8212699289	-0.7833195376	 0.109322
65.2382	113.251	217.8434	229.6708	283.336	303.1363	355.7499	409.726	468.6153	479.5385	544.0312	571.2439	644.0141	747.3132	771.7701	823.3118	858.2056	897.539	932.6382	960.3831	977.2883	1051.0483	1077.3619	1091.287	1101.9944	1105.1965	1160.4839	1195.9296	1268.3906	1295.9351	1324.6036	1348.057	1369.3391	1373.5814	1383.2427	1393.1647	1467.1387	1486.2642	1490.7238	1502.0495	1616.7875	1703.0237	1778.3736	2980.7783	2994.5227	3020.7056	3025.7915	3042.3601	3043.5303	3072.7513	3076.6728	3176.2842	3600.237	3732.0253
NC(=O)C1=CCCCC1	NC(=O)C1=CCCCC1	
InChI=1S/C7H11NO/c8-7(9)6-4-2-1-3-5-6/h4H,1-3,5H2,(H2,8,9)	InChI=1S/C7H11NO/c8-7(9)6-4-2-1-3-5-6/h4H,1-3,5H2,(H2,8,9)
