14
gdb 125336	5.44286	1.33787	1.08109	1.68	69.91	-0.2254	-0.0194	0.206	1049.2917	0.103255	-432.887862	-432.88104	-432.880095	-432.919217	25.642	
C	 0.0203540995	 1.4556399454	 0.0442864297	-0.48375
C	 0.0249687534	-0.0354551097	-0.0305894774	 0.273177
C	-0.1730514407	-0.8203217598	-1.1493477917	-0.220392
N	-0.0670418624	-2.1130195319	-0.6661681112	 0.022134
N	-0.1251696781	-3.4261997514	-1.0659033724	-0.231795
C	 0.0886961749	-4.056673799	 0.0431531754	 0.07545
O	 0.2844741738	-3.2762685661	 1.1484825363	-0.201538
C	 0.1782833062	-2.009937799	 0.660728735	 0.47946
N	 0.2484402579	-0.7992034219	 1.1204455813	-0.435788
H	 0.9807769699	 1.8319384341	 0.4121429055	 0.13876
H	-0.1684673777	 1.8961975837	-0.938079806	 0.121586
H	-0.7514530549	 1.8103754684	 0.7355060333	 0.138769
H	-0.3680366092	-0.5920978621	-2.1816397819	 0.145283
H	 0.1265221074	-5.1243741007	 0.176097584	 0.178645
115.5123	144.7407	275.5722	283.7422	347.0934	526.6434	568.2328	624.0741	651.9096	690.1134	734.7888	784.1462	819.2493	858.7226	948.1619	975.0653	1016.4529	1062.5078	1105.64	1144.6643	1184.0876	1278.8388	1313.7078	1399.4048	1420.119	1452.5808	1473.0986	1486.3407	1566.3123	1574.2836	1638.6333	3037.058	3092.8997	3120.9463	3301.1888	3307.2993
CC1=CN2N=COC2=N1	Cc1cn2ncoc2n1	
InChI=1S/C5H5N3O/c1-4-2-8-5(7-4)9-3-6-8/h2-3H,1H3	InChI=1S/C5H5N3O/c1-4-2-8-5(7-4)9-3-6-8/h2-3H,1H3
