16
gdb 45274	3.05297	1.68982	1.28479	1.7298	70.12	-0.2606	0.0097	0.2703	968.3672	0.125531	-437.833583	-437.826718	-437.825774	-437.864882	26.99	
N	 0.063938469	 1.2388504731	 0.0818135421	-0.553505
C	-0.0014088557	-0.0096906772	 0.0034639632	 0.335208
O	 1.0061943998	-0.9750805055	-0.0037833633	-0.283484
C	 0.0583060479	-2.0515621055	-0.3051830151	 0.077956
C	-0.3640160496	-2.8766555656	 0.931190716	-0.275724
C	-1.5215438715	-1.8750192346	 1.1465547639	 0.086655
O	-2.7384394535	-2.2161040402	 0.4433763968	-0.296096
C	-2.5090245296	-1.2035153132	-0.5760723896	-0.196514
C	-1.0863378434	-1.0260485879	-0.0928754646	 0.183503
H	 1.0302738986	 1.5604995366	 0.1563115858	 0.232278
H	 0.3018174344	-2.5308365714	-1.253586817	 0.100296
H	-0.7090987779	-3.8890693101	 0.7105870351	 0.126368
H	 0.3917074403	-2.903536409	 1.7194292713	 0.12436
H	-1.7136812888	-1.4591957979	 2.1386813218	 0.094813
H	-2.6563478918	-1.5901416196	-1.5899141996	 0.116911
H	-3.1467322582	-0.3245949521	-0.4197262569	 0.126974
136.0685	157.6159	263.6204	293.0821	402.2953	433.2671	564.6803	624.2038	703.0265	714.5595	798.6404	853.3796	863.9586	885.9479	903.4075	952.4385	982.3763	987.7419	1016.6947	1048.172	1061.4672	1111.2372	1154.9041	1167.8019	1175.5714	1221.4387	1237.2576	1260.9106	1299.3749	1311.9027	1346.6334	1393.1012	1442.9392	1518.2327	1826.877	3023.6022	3070.9794	3078.001	3083.0807	3113.0141	3135.9109	3482.2565
N=C1OC2CC3OCC123	[NH][C]1O[C@H]2C[C@@H]3OC[C@]123	
InChI=1S/C6H7NO2/c7-5-6-2-8-3(6)1-4(6)9-5/h3-4,7H,1-2H2	InChI=1S/C6H7NO2/c7-5-6-2-8-3(6)1-4(6)9-5/h3-4,7H,1-2H2/t3-,4-,6+/m0/s1
