16
gdb 7995	3.35615	1.86914	1.32238	2.9183	61.28	-0.2676	0.0056	0.2732	934.4691	0.129549	-420.932076	-420.924227	-420.923282	-420.964408	28.379	
C	-0.0903665105	 1.5699216366	 0.184983988	-0.403262
C	 0.0623106292	 0.0863783326	-0.0430476938	 0.225606
O	 1.0240621892	-0.1707375143	-1.0381244614	-0.264877
C	 1.6360615058	-1.4127846022	-0.7130184829	-0.02442
C	 3.089835421	-1.4454657291	-1.147261254	-0.403094
C	 1.448225666	-1.505775819	 0.8020458263	 0.416915
O	 1.9779145614	-2.2449240412	 1.5774148771	-0.335553
O	 0.5375234318	-0.5620331252	 1.1511675951	-0.232429
H	 0.8694515167	 1.9999956974	 0.4804199545	 0.13822
H	-0.4273720551	 2.0468207405	-0.7390099411	 0.137753
H	-0.8279433272	 1.7565422616	 0.9690606712	 0.138152
H	-0.8990098725	-0.386753621	-0.3031014532	 0.087567
H	 1.0806965241	-2.248524509	-1.1724951311	 0.107276
H	 3.6345417867	-0.5994281036	-0.7203632782	 0.133807
H	 3.5491297606	-2.3725823916	-0.7954525846	 0.146968
H	 3.1654609828	-1.3996995426	-2.2361935118	 0.131373
91.2803	125.1764	204.1323	213.8506	242.7074	306.3373	406.4348	487.1411	516.8495	610.9037	705.2005	719.7976	800.2465	880.3511	917.3448	952.7547	1056.8474	1076.1279	1126.0282	1140.832	1149.1501	1168.5905	1223.3543	1323.2269	1353.1284	1386.1455	1398.146	1405.5444	1435.2831	1482.694	1484.1407	1485.5868	1498.0762	1895.8875	2962.3589	2972.2066	3053.8798	3056.3662	3133.1042	3137.1854	3137.9751	3143.1777
CC1OC(C)C(=O)O1	C[C@H]1O[C@@H](C)C(=O)O1	
InChI=1S/C5H8O3/c1-3-5(6)8-4(2)7-3/h3-4H,1-2H3	InChI=1S/C5H8O3/c1-3-5(6)8-4(2)7-3/h3-4H,1-2H3/t3-,4-/m0/s1
