13
gdb 48064	1.97837	1.74865	1.18332	1.9783	65.97	-0.2565	-0.1094	0.1471	1043.0977	0.084471	-456.503027	-456.494115	-456.493171	-456.537696	30.734	
O	-0.8482659665	 1.4916142344	 0.1356881566	-0.202721
C	 0.2479643354	 1.0881366799	-0.1374394144	 0.087081
C	 1.4679887393	 1.9980255658	-0.334630864	 0.213888
O	 2.4824995973	 1.5171411788	-0.7741920313	-0.262318
C	 1.3044521338	 3.4875199168	-0.0524947114	 0.172166
C	 2.2046098845	 4.3948804143	-0.7894072291	-0.208081
O	 0.8675728329	 4.1824033711	-1.2398967745	-0.259306
C	 0.7260647744	 3.8670169663	 1.2066811545	 0.245944
C	 0.2918896528	 4.1573399059	 2.2888445026	-0.394234
H	 0.4904015214	 0.0196031504	-0.3147140694	 0.116668
H	 2.4006442427	 5.3771003908	-0.3661486388	 0.136553
H	 2.9875645394	 3.9587028839	-1.4044963602	 0.145632
H	-0.1164177273	 4.4146002815	 3.2354545894	 0.208726
33.2376	108.5688	123.7777	151.9921	219.8289	235.0597	306.6996	439.2564	505.5382	534.42	582.7122	606.1846	625.9745	679.7708	685.5303	838.6744	877.4137	961.674	1018.7628	1115.8429	1138.2826	1171.2051	1259.6231	1357.9506	1369.1211	1508.8256	1807.4997	1832.3903	2240.2567	2930.5623	3105.632	3207.0883	3499.1663
O=CC(=O)C1(CO1)C#C	O=CC(=O)[C@]1(CO1)C#C	
InChI=1S/C6H4O3/c1-2-6(4-9-6)5(8)3-7/h1,3H,4H2	InChI=1S/C6H4O3/c1-2-6(4-9-6)5(8)3-7/h1,3H,4H2/t6-/m1/s1
