19
gdb 54262	2.98547	1.25597	1.12853	1.5662	71.39	-0.2478	-0.0197	0.2281	1158.257	0.157975	-460.184978	-460.175812	-460.174868	-460.219319	33.857	
C	 0.449139923	 1.4653856457	 0.0857716069	-0.473658
C	-0.0485286916	 0.0394543506	 0.0723607391	 0.344663
O	-0.4700123467	-0.5195218454	 1.0607725631	-0.319248
C	-0.0368388107	-0.7078821882	-1.2631834413	 0.293214
O	 0.5992254572	 0.0957217986	-2.2460132076	-0.492272
C	 0.6073219609	-2.1167719492	-1.1696894171	-0.285839
C	-0.266930093	-2.9754947762	-2.1219930793	-0.093669
O	-1.2166232313	-2.0804936376	-2.7101901316	-0.262195
C	-1.4598561009	-1.0839326388	-1.7300496525	-0.13526
H	 1.4889243889	 1.5023036518	-0.25418154	 0.153562
H	-0.1194496446	 2.0718319549	-0.6262760143	 0.147693
H	 0.3598371323	 1.8713308411	 1.0936830162	 0.134043
H	 0.3937534218	-0.3018790916	-3.1009655972	 0.286749
H	 1.6518388153	-2.0606252485	-1.4814708111	 0.117375
H	 0.5596765631	-2.4842215187	-0.1437262875	 0.133265
H	 0.2918988231	-3.4436550426	-2.9358399735	 0.113736
H	-0.7921376868	-3.7632364141	-1.5644344262	 0.107519
H	-2.0479441504	-1.4715821168	-0.8856517944	 0.113008
H	-1.9858086497	-0.251985695	-2.2038132917	 0.117313
48.4811	87.8608	159.3186	190.4461	219.6681	266.4887	344.1827	383.1642	413.3235	440.3358	528.6453	591.8748	603.2781	699.9696	799.5044	818.3385	920.8472	925.9705	955.7212	963.5938	990.6908	1009.571	1043.4307	1089.6493	1132.7601	1169.5003	1209.7393	1236.0339	1253.2198	1276.9789	1289.9335	1332.5592	1380.2288	1385.6251	1403.8611	1453.7261	1463.7844	1481.2836	1501.5574	1524.0921	1802.2759	3005.7675	3010.4871	3048.9671	3083.1697	3095.9636	3110.5185	3112.0526	3141.8975	3159.8056	3782.9187
CC(=O)C1(O)CCOC1	CC(=O)[C@@]1(O)CCOC1	
InChI=1S/C6H10O3/c1-5(7)6(8)2-3-9-4-6/h8H,2-4H2,1H3	InChI=1S/C6H10O3/c1-5(7)6(8)2-3-9-4-6/h8H,2-4H2,1H3/t6-/m1/s1
