17
gdb 106180	2.87697	1.58418	1.40922	2.2886	66.91	-0.2183	0.0657	0.284	981.2306	0.135514	-458.887753	-458.880169	-458.879225	-458.920115	28.776	
C	-0.2960924706	 1.3238588889	 0.0203070957	-0.260613
O	 0.2439865027	 0.0134963139	-0.1065849561	-0.281874
C	 0.7518705697	-0.4981694441	 1.0555936	 0.318666
C	 0.8897239827	-1.9006343108	 1.5672925092	-0.02305
O	 2.2677953576	-1.7679864076	 1.9082824507	-0.295491
C	 2.1759164726	-0.3262716203	 1.676488142	-0.018526
C	 1.9204291199	 0.3225823568	 3.0261928147	-0.078812
O	 0.6856677904	-0.263357709	 3.4713355513	-0.26214
C	 0.077093569	-0.8504766267	 2.3482730931	-0.014085
H	 0.4797029299	 2.0586832909	 0.2744858529	 0.115832
H	-0.7236885969	 1.5821352307	-0.9503089362	 0.135108
H	-1.0809132378	 1.3590257111	 0.7867539445	 0.121534
H	 0.5236746377	-2.8619697251	 1.2270183528	 0.116872
H	 2.9976343448	 0.060652051	 1.0732410015	 0.096746
H	 2.6984718527	 0.0857672947	 3.7575425093	 0.12377
H	 1.8232662352	 1.4168075137	 2.938052355	 0.091799
H	-0.9968271996	-0.9704575981	 2.4259886996	 0.114266
74.2366	152.2858	167.93	247.8563	341.9553	383.5728	411.4542	547.2069	600.148	704.7586	760.9737	775.6767	850.9255	890.9078	918.717	954.0035	988.4566	1003.7097	1027.4198	1038.2582	1054.6178	1093.1981	1114.231	1148.6946	1177.1014	1182.2841	1220.0044	1240.5418	1248.6915	1272.199	1309.1662	1370.4117	1447.2288	1488.6703	1496.1911	1503.2597	1507.6599	2976.7188	3002.1683	3061.0482	3088.552	3121.0933	3131.0575	3188.7564	3199.6417
COC12C3OC1COC23	CO[C@@]12[C@H]3O[C@@H]1CO[C@@H]23	
InChI=1S/C6H8O3/c1-7-6-3-2-8-4(6)5(6)9-3/h3-5H,2H2,1H3	InChI=1S/C6H8O3/c1-7-6-3-2-8-4(6)5(6)9-3/h3-5H,2H2,1H3/t3-,4-,5+,6+/m1/s1
