19
gdb 99914	2.35151	1.28422	1.13452	3.6843	74.95	-0.2552	0.025	0.2803	1187.445	0.158696	-419.191656	-419.181918	-419.180973	-419.226162	35.951	
N	 0.0234935069	 1.5329456362	-0.0395229971	-0.522997
C	-0.0023300729	 0.0657941448	 0.007162341	 0.056921
C	 0.6157254541	-0.5733680791	-1.2714799455	-0.086148
O	 1.9041684575	-0.0622910854	-1.5444867769	-0.421951
C	 0.8564279714	-0.3560090451	 1.1383352881	 0.295568
N	 1.5747072447	-0.7191917637	 1.9681973708	-0.362617
C	-1.4315204956	-0.4285618911	 0.1891188598	-0.004237
C	-1.7714935852	-1.7056978295	 0.9162046818	-0.284767
C	-2.1349771272	-0.3728024387	 1.5184249658	-0.275192
H	 0.8791600007	 1.8194633565	-0.510399248	 0.244232
H	-0.7555555938	 1.8584901158	-0.6040526874	 0.231047
H	 0.6132340285	-1.6685131329	-1.185213328	 0.111919
H	-0.0141253731	-0.29266404	-2.1220576018	 0.111209
H	 2.5125418593	-0.41721798	-0.8853602889	 0.300719
H	-2.0372533317	-0.2043080901	-0.6861302681	 0.091018
H	-2.5588627275	-2.3251805141	 0.5023628422	 0.116936
H	-0.9636341188	-2.2589967484	 1.3822143388	 0.138548
H	-1.5608024241	-0.0372532817	 2.3746146897	 0.142233
H	-3.1756367631	-0.0699958634	 1.5289720237	 0.117559
67.0513	115.2801	147.8061	167.4938	198.9338	244.7634	274.2444	313.1084	383.2133	419.5183	446.0918	458.3301	602.6853	611.8496	716.4512	785.4577	834.2016	861.8626	878.9783	937.2416	951.4119	1008.8761	1047.5168	1069.333	1092.6051	1093.4694	1136.9384	1144.1934	1155.2125	1199.2023	1236.1169	1248.7558	1343.4479	1381.7097	1394.6369	1419.5728	1469.7638	1489.7897	1506.5656	1651.3458	2349.3101	3012.4463	3083.7897	3129.4131	3139.7478	3144.4045	3220.499	3234.1521	3478.6876	3568.285	3793.5258
NC(CO)(C#N)C1CC1	N[C@@](CO)(C#N)C1CC1	
InChI=1S/C6H10N2O/c7-3-6(8,4-9)5-1-2-5/h5,9H,1-2,4,8H2	InChI=1S/C6H10N2O/c7-3-6(8,4-9)5-1-2-5/h5,9H,1-2,4,8H2/t6-/m1/s1
