16
gdb 76016	2.58974	1.23881	1.06738	3.8275	78.15	-0.2621	0.0009	0.263	1175.9195	0.121271	-400.713872	-400.704371	-400.703427	-400.747904	34.663	
C	-0.0953654909	 1.5645611269	 0.0599794835	-0.417222
C	 0.007571955	 0.0576561865	 0.0473202735	-0.064767
C	 1.330851149	-0.6533200373	-0.2240055213	-0.283735
C	 2.5481587889	 0.0871002243	-0.3680911974	 0.302289
N	 3.5441055635	 0.6668115869	-0.47524592	-0.340649
C	 0.6676938848	-0.6825112196	 1.1808557964	 0.179155
O	 1.2189305319	 0.1315771708	 2.1644377368	-0.436467
C	 0.142600684	-1.9477718765	 1.6244552763	 0.283668
C	-0.2723322662	-3.0102042193	 2.0052110979	-0.414984
H	 0.7815227262	 2.0218635714	 0.5191119131	 0.159303
H	-0.1915017749	 1.9444157009	-0.9616741493	 0.130551
H	-0.9785876777	 1.8770886125	 0.6249842775	 0.132841
H	-0.8427209471	-0.4604921476	-0.3845625858	 0.117001
H	 1.2914329348	-1.5741956273	-0.7947586781	 0.14495
H	 1.9963275286	-0.3079629533	 2.5289949761	 0.302232
H	-0.6490945698	-3.9430191093	 2.3462954807	 0.205833
102.671	121.02	151.1899	164.0432	169.7099	253.7038	301.7896	339.235	387.5156	448.5869	481.5637	549.4166	602.2293	607.498	639.2544	686.2682	710.9234	790.8644	834.413	961.0756	1013.5865	1021.3605	1065.9244	1125.4359	1148.8907	1217.2471	1256.8836	1342.4332	1351.6089	1421.8057	1434.841	1490.9757	1499.6832	2234.7687	2349.9312	3049.5107	3111.4285	3148.7908	3167.8931	3180.9835	3499.2873	3795.6817
CC1C(C#N)C1(O)C#C	C[C@H]1[C@@H](C#N)[C@]1(O)C#C	
InChI=1S/C7H7NO/c1-3-7(9)5(2)6(7)4-8/h1,5-6,9H,2H3	InChI=1S/C7H7NO/c1-3-7(9)5(2)6(7)4-8/h1,5-6,9H,2H3/t5-,6+,7-/m0/s1
