23
gdb 100289	1.90019	1.32053	1.13258	3.4915	77.14	-0.2465	0.0512	0.2978	1260.7855	0.202957	-462.552837	-462.541605	-462.540661	-462.588381	41.951	
C	-0.3953355679	 1.7463846592	-0.3100867141	-0.419324
C	-0.1626300323	 0.2394351835	-0.1449142948	 0.142071
O	 0.7965029125	 0.0056534977	 0.8794661824	-0.452444
C	-1.4562412774	-0.6098350889	 0.0684235836	 0.182614
C	-1.0626547812	-2.0582518531	 0.4172765418	-0.427929
C	-2.3399442339	-0.0366585161	 1.1868194904	-0.111464
O	-1.5613538409	 0.0998994237	 2.378177898	-0.428809
C	-2.3119535119	-0.6113879695	-1.220347982	-0.09254
O	-1.6353915456	-1.113094549	-2.3602239426	-0.421975
H	 0.565736678	 2.2297335104	-0.5040301234	 0.124041
H	-1.0653700937	 1.9821181333	-1.1427615269	 0.112158
H	-0.8069627431	 2.1858505092	 0.6044987558	 0.108913
H	 0.2988090585	-0.138649012	-1.0631978996	 0.092705
H	 0.3492203862	 0.2049400043	 1.7124074644	 0.284572
H	-0.566162481	-2.105913645	 1.3859979615	 0.140252
H	-1.9497362292	-2.7028780255	 0.4499978818	 0.09605
H	-0.3625205065	-2.4663473518	-0.3189907076	 0.11107
H	-2.7476249237	 0.9386617783	 0.8847474943	 0.094315
H	-3.1919624119	-0.7106677469	 1.3650566093	 0.091195
H	-2.1013836575	 0.517666603	 3.0548673806	 0.294377
H	-3.239229479	-1.1777216238	-1.0323035875	 0.083324
H	-2.6079344157	 0.4084357873	-1.4847066839	 0.109546
H	-1.4574386826	-2.0472739485	-2.2140464914	 0.287282
71.1741	111.3981	144.1839	190.7292	207.8431	241.4384	255.2884	257.6862	279.6184	321.5475	333.8683	354.8254	403.6941	427.8551	447.5905	495.0855	553.3988	629.6594	715.9204	858.1947	909.124	917.8768	970.6017	974.2675	1033.7789	1048.998	1087.9812	1093.9636	1115.0728	1145.0807	1173.0548	1208.9658	1242.0018	1278.0822	1307.8519	1323.825	1372.4581	1388.6931	1397.8506	1406.161	1421.4658	1452.7761	1460.2098	1489.1937	1492.2902	1494.1903	1500.6529	1510.2514	1525.677	2963.5046	2981.0768	3016.1851	3025.5987	3037.6495	3058.0466	3075.0117	3089.6415	3108.9472	3117.8955	3148.3342	3762.6611	3823.5834	3836.1967
CC(O)C(C)(CO)CO	C[C@@H](O)C(C)(CO)CO	
InChI=1S/C6H14O3/c1-5(9)6(2,3-7)4-8/h5,7-9H,3-4H2,1-2H3	InChI=1S/C6H14O3/c1-5(9)6(2,3-7)4-8/h5,7-9H,3-4H2,1-2H3/t5-/m1/s1
