13
gdb 129905	3.4829	1.73733	1.16642	4.992	64.81	-0.2297	-0.0255	0.2042	951.6989	0.092064	-448.914164	-448.907351	-448.906407	-448.945731	25.373	
N	 0.1392532665	 1.4643508909	-0.0309010737	-0.612438
C	 0.0111972587	 0.067222333	-0.0476380009	 0.173768
C	-1.0263117411	-0.8356806119	-0.1091998627	-0.110022
N	-0.611453342	-2.165067567	-0.0967076228	-0.396943
C	 0.6796287941	-2.0457494799	-0.0272655819	 0.527216
O	 1.7275668675	-2.888331739	 0.0234298009	-0.246559
N	 2.9008920812	-2.0943402816	 0.0927941409	-0.127092
C	 2.5054318671	-0.856975449	 0.0801091486	 0.041681
N	 1.1445086828	-0.7602011412	 0.0065144879	-0.060581
H	-0.2178449554	 1.9016012313	-0.872438351	 0.254273
H	-0.3138123674	 1.8903980348	 0.7691346904	 0.25432
H	-2.0782788137	-0.5946659871	-0.163302983	 0.118065
H	 3.1861213917	-0.0221411834	 0.1228373073	 0.184315
79.3127	200.0439	224.7657	271.8768	381.6486	569.5849	598.7536	614.5067	644.7572	697.8833	755.6382	767.4536	822.4194	863.8458	873.1812	885.6235	981.9752	1106.0015	1178.8372	1210.8935	1211.6959	1276.8718	1286.6988	1377.2206	1433.9396	1570.286	1589.4901	1643.277	1659.8047	3242.0864	3285.0559	3518.5715	3587.5176
NC1=CN=C2ON=CN12	Nc1cnc2oncn12	
InChI=1S/C4H4N4O/c5-3-1-6-4-8(3)2-7-9-4/h1-2H,5H2	InChI=1S/C4H4N4O/c5-3-1-6-4-8(3)2-7-9-4/h1-2H,5H2
