23
gdb 102553	2.04518	1.31012	0.9631	1.9937	82.04	-0.24	0.0757	0.3157	1357.609	0.202671	-425.402098	-425.39126	-425.390316	-425.438036	39.775	
C	 0.6564119727	 0.7040183665	 1.0628812898	-0.396923
C	 0.7019303253	-0.6522276049	 0.3572680994	-0.16303
C	 0.4675551195	-0.5560352965	-1.1527996738	 0.040703
O	 1.5443729795	 0.17105904	-1.7366906117	-0.246306
C	 1.1606143661	 1.1711657988	-2.6545354396	-0.237809
C	 0.3354105161	-1.9416156598	-1.7849457198	 0.401702
O	-0.7938087708	-2.6437724316	-1.3232286989	-0.464856
C	 0.7965756699	-2.225812295	-3.1914254605	-0.339406
C	 1.5458646938	-2.7939810628	-2.0008319685	-0.287113
H	 1.4013186506	 1.3847305227	 0.6406256122	 0.125106
H	-0.3284323106	 1.1748539332	 0.9605782597	 0.105211
H	 0.862312833	 0.5994673058	 2.1324692674	 0.11089
H	 1.6783397589	-1.1250224534	 0.515687795	 0.103446
H	-0.0505210888	-1.3318682375	 0.7698779387	 0.11007
H	-0.4775748657	-0.0129939448	-1.3287776181	 0.04871
H	 2.078166283	 1.6323355715	-3.0300070627	 0.125768
H	 0.5979260566	 0.7652056088	-3.5076828309	 0.105258
H	 0.546360626	 1.9479263492	-2.1750161349	 0.10815
H	-1.5727234417	-2.2485840758	-1.7311466576	 0.279511
H	 0.1856887177	-2.9111398351	-3.7688463561	 0.108531
H	 1.2794377616	-1.4406262792	-3.7595430709	 0.118485
H	 2.512458628	-2.3616509871	-1.7700799583	 0.125177
H	 1.4405901694	-3.8521451227	-1.7929814899	 0.118725
55.165	89.7846	112.1853	168.8255	172.2501	206.3454	255.3587	287.3357	301.7591	309.0627	341.2026	427.4141	462.015	492.5425	532.7769	748.7747	770.4483	783.036	877.0205	919.3106	932.5913	951.8721	961.5147	1008.8015	1053.3533	1060.0947	1084.7989	1111.8202	1132.6064	1158.7392	1182.8574	1196.3126	1223.2174	1257.3521	1265.242	1299.9021	1324.2419	1373.4625	1387.5528	1394.2683	1404.6211	1439.4895	1478.3241	1482.0304	1488.4702	1495.9535	1497.8263	1508.5727	1512.794	2944.3609	2982.805	3030.1522	3031.4291	3042.3575	3083.2704	3099.0735	3107.8558	3115.0132	3140.3874	3145.0548	3229.188	3242.4232	3787.6556
CCC(OC)C1(O)CC1	CC[C@@H](OC)C1(O)CC1	
InChI=1S/C7H14O2/c1-3-6(9-2)7(8)4-5-7/h6,8H,3-5H2,1-2H3	InChI=1S/C7H14O2/c1-3-6(9-2)7(8)4-5-7/h6,8H,3-5H2,1-2H3/t6-/m1/s1
