18
gdb 50077	3.33839	0.99971	0.82665	2.8147	74.72	-0.2491	-0.0384	0.2107	1360.7151	0.146347	-439.027239	-439.01856	-439.017615	-439.062034	30.799	
O	 0.0472677267	-0.0439073946	-0.6947961288	-0.260679
C	 0.0367487876	 1.0514720092	-0.1900108619	 0.157544
C	 1.2702834481	 1.8349683473	 0.0823290005	-0.088998
C	 1.2179239485	 3.327726021	-0.1064162629	-0.256756
N	 1.3821830839	 2.7756352805	 1.2151300071	-0.079982
C	 0.2946903579	 2.9173183301	 2.16919784	-0.011
C	 0.2667205419	 1.8683696565	 3.2997174454	-0.080869
O	 0.393160871	 2.8900038885	 4.3089073922	-0.268748
C	 0.5828545925	 3.9151364925	 3.3132018811	-0.081686
H	-0.9192809548	 1.546728132	 0.0895318299	 0.076421
H	 2.1873801233	 1.3016765897	-0.1521501057	 0.120095
H	 2.0785933425	 3.8288497513	-0.5400686518	 0.137677
H	 0.2517372492	 3.7604602125	-0.3681410682	 0.122883
H	-0.6833009221	 3.0843122948	 1.7006806986	 0.078494
H	-0.6567378107	 1.2890890306	 3.4111955667	 0.108312
H	 1.1280555203	 1.189088211	 3.2844992947	 0.112887
H	 1.6092783939	 4.3014071097	 3.3007850186	 0.110765
H	-0.1250822597	 4.7427217774	 3.4349879145	 0.103642
44.4225	69.4463	106.3619	164.4468	220.6855	303.3582	348.0488	408.7103	439.2364	569.5168	678.3104	824.7521	864.0899	886.1754	900.3368	932.7888	985.6573	1015.2459	1039.7273	1051.8072	1078.5483	1099.4151	1113.0648	1117.9724	1159.1176	1162.8182	1182.4315	1190.0431	1271.0265	1308.2658	1310.012	1339.1958	1353.384	1399.5154	1445.4407	1501.386	1502.4639	1528.6151	1814.8763	2883.254	3012.0401	3015.509	3026.5769	3070.1209	3074.1425	3085.5953	3156.7155	3184.2712
O=CC1CN1C1COC1	O=C[C@H]1CN1C1COC1	
InChI=1S/C6H9NO2/c8-2-5-1-7(5)6-3-9-4-6/h2,5-6H,1,3-4H2	InChI=1S/C6H9NO2/c8-2-5-1-7(5)6-3-9-4-6/h2,5-6H,1,3-4H2/t5-,7?/m1/s1
