17
gdb 50111	3.78195	0.68386	0.61023	4.8795	75.14	-0.2619	-0.0405	0.2214	1730.793	0.135036	-418.003814	-417.994583	-417.993639	-418.039327	32.093	
O	-0.1960277832	 0.2314433476	 0.7640301071	-0.249782
C	 0.3514167705	 0.678191848	-0.2115600479	 0.171675
C	 1.3730897989	 1.7642127568	-0.1508651506	-0.134696
N	 2.2809983797	 1.8631255357	-1.3133640192	-0.330271
C	 1.3479277669	 2.9547589365	-1.0684124031	-0.020158
C	 0.2841379228	 3.2041345419	-2.1149904267	-0.199365
C	 0.8788264727	 3.9751669029	-3.3130182107	-0.334946
C	-0.113462743	 4.2552685792	-4.3471866123	 0.256972
N	-0.9124035214	 4.4695453744	-5.1539415253	-0.299358
H	 0.1415278736	 0.2974008551	-1.2339573576	 0.09173
H	 1.765313125	 1.9360193905	 0.848595901	 0.112522
H	 3.2219046599	 2.0908078316	-1.0053763878	 0.248496
H	 1.7501977067	 3.8638706999	-0.6194787085	 0.103189
H	-0.1294643806	 2.2592714705	-2.47374072	 0.133165
H	-0.5397606381	 3.7771367104	-1.6771549655	 0.132675
H	 1.3104762899	 4.9264364278	-2.9794403712	 0.149952
H	 1.6942258797	 3.3900479709	-3.7522866515	 0.168201
63.0458	65.6175	78.6748	123.8185	213.2873	250.526	314.4967	394.7756	431.5326	442.1253	529.7149	551.1043	767.0867	811.1849	862.777	915.446	954.9153	980.2192	1013.4711	1022.2959	1040.3425	1057.8299	1132.56	1175.9687	1220.173	1237.1623	1260.4895	1286.4662	1320.915	1360.8661	1377.8043	1422.0572	1466.8801	1472.7403	1484.6565	1825.0752	2364.3639	2906.9231	3040.8227	3062.5654	3083.098	3096.5018	3123.0494	3149.4213	3519.0816
O=CC1NC1CCC#N	O=C[C@H]1N[C@H]1CCC#N	
InChI=1S/C6H8N2O/c7-3-1-2-5-6(4-9)8-5/h4-6,8H,1-2H2	InChI=1S/C6H8N2O/c7-3-1-2-5-6(4-9)8-5/h4-6,8H,1-2H2/t5-,6+/m0/s1
