14
gdb 42212	3.55999	1.18926	0.90423	5.4758	71.59	-0.2491	-0.1116	0.1375	1204.0193	0.102125	-432.892646	-432.884653	-432.883709	-432.925877	28.149	
O	-0.0440468736	-0.0065978207	 0.2068843887	-0.283675
C	-0.070734297	 1.1949485836	 0.0761128632	 0.232709
C	 1.1586301776	 1.9671989593	-0.1557825332	 0.278681
N	 2.1668989626	 2.5043088421	-0.3311775407	-0.31225
C	-1.3306246039	 1.9778552403	 0.1158403345	 0.314434
N	-1.3619124645	 3.2408712084	-0.1036275173	-0.290369
C	-2.7816647275	 3.6222111653	 0.0162757578	-0.173226
C	-3.5821192174	 2.2867926565	 0.0546653551	-0.186859
N	-2.5133373652	 1.3412620074	 0.4062226908	-0.351796
H	-2.9056849591	 4.1928178909	 0.9454486632	 0.134299
H	-3.0714207757	 4.2781698869	-0.8081075046	 0.131616
H	-4.3781080449	 2.2869329725	 0.8027894463	 0.126566
H	-4.023432669	 2.0469606079	-0.921952243	 0.116933
H	-2.5939420123	 0.3557594596	 0.2054048492	 0.262937
69.6324	123.9811	151.9588	185.3369	241.8552	316.4085	439.5151	479.003	531.6321	564.871	678.0675	731.4143	811.6344	856.2246	900.2729	961.3873	995.9619	1033.5484	1090.8175	1105.1052	1199.6118	1242.6024	1284.1114	1313.5064	1361.6831	1484.4194	1488.4406	1532.1353	1671.5439	1769.0946	2346.7609	3013.6969	3032.2967	3091.7968	3102.1442	3625.1289
O=C(C#N)C1=NCCN1	O=C(C#N)[C]1[N]CCN1	
InChI=1S/C5H5N3O/c6-3-4(9)5-7-1-2-8-5/h1-2H2,(H,7,8)	InChI=1S/C5H5N3O/c6-3-4(9)5-7-1-2-8-5/h1-2H2,(H,7,8)
