16
gdb 50838	3.8201	0.99628	0.85981	5.3666	67.44	-0.2466	-0.0348	0.2118	1315.4691	0.123971	-475.048814	-475.040187	-475.039243	-475.08358	29.678	
O	-0.5113166216	 0.314592524	-0.3152045085	-0.251886
C	 0.4832609527	 0.567558442	-0.9360440551	 0.166229
N	 1.6197315844	 1.2075837208	-0.4521993809	-0.347268
C	 1.8486620611	 1.7076358771	 0.8261440764	 0.37673
O	 1.0915724546	 1.6507265274	 1.7613961622	-0.317167
C	 3.221872291	 2.3688179015	 0.9553782729	 0.039891
C	 4.2603465659	 1.6003199427	 1.8056399377	-0.279518
C	 5.0753126646	 1.5396009924	 0.4979174509	-0.070546
O	 4.0463965326	 2.2641938061	-0.2284532881	-0.303697
H	 0.617440882	 0.3108921846	-2.00673758	 0.088073
H	 2.3928770073	 1.3528558751	-1.0917592346	 0.271177
H	 3.060666029	 3.4122565833	 1.2486101451	 0.123027
H	 4.7089760791	 2.1785384338	 2.6127023202	 0.130182
H	 3.912106723	 0.6445026894	 2.197331216	 0.137038
H	 6.0203880152	 2.0917766884	 0.4986529895	 0.120789
H	 5.2413361191	 0.5420993112	 0.0769878663	 0.116945
52.6171	65.2339	102.587	167.8027	209.1465	250.4071	274.2295	461.1792	506.5527	663.2161	748.3506	767.4818	805.3464	835.2084	924.4208	949.6754	959.7134	1016.1821	1031.19	1041.0498	1092.5441	1141.9352	1166.597	1196.351	1212.0194	1252.8422	1261.3161	1337.0413	1355.6879	1442.8065	1496.121	1512.9516	1532.3463	1806.1883	1871.1338	2925.658	3037.3533	3050.7541	3084.9892	3098.633	3155.356	3554.7196
O=CNC(=O)C1CCO1	O=CNC(=O)[C@H]1CCO1	
InChI=1S/C5H7NO3/c7-3-6-5(8)4-1-2-9-4/h3-4H,1-2H2,(H,6,7,8)	InChI=1S/C5H7NO3/c7-3-6-5(8)4-1-2-9-4/h3-4H,1-2H2,(H,6,7,8)/t4-/m1/s1
