16
gdb 37755	2.51997	1.88693	1.23552	4.8128	76.58	-0.2434	-0.0589	0.1845	995.1638	0.125113	-400.76563	-400.758392	-400.757448	-400.797755	27.849	
C	-0.1799424186	 1.1890488384	 0.3991868415	-0.34097
C	 1.3395018527	 1.0935263968	 0.0047036311	-0.094487
C	 2.1617422674	 0.2351130778	 0.9299565268	 0.021815
N	 2.3759908769	-0.9783545334	 0.5852327634	-0.224502
C	 1.7341347845	-1.1965960323	-0.6944308331	 0.39887
O	 1.7797439474	-2.2312076446	-1.2940091566	-0.303169
C	-1.5466281014	-0.5386353591	-1.0306600871	-0.433233
C	-0.4669633623	 0.1254356412	-0.6510391863	 0.37423
C	 0.9910881721	 0.0834296849	-1.1119777857	-0.238798
H	-0.4242924096	 0.9389347461	 1.4361567526	 0.124017
H	-0.6167565063	 2.1651511546	 0.1686238482	 0.12837
H	 1.8256708621	 2.037746761	-0.2460070545	 0.100057
H	 2.5438710319	 0.6117220354	 1.8793238731	 0.130274
H	-1.5054015365	-1.2751343633	-1.8261708668	 0.128862
H	-2.5102162346	-0.3739734632	-0.5587930953	 0.115267
H	 1.1817204343	 0.3329262996	-2.1562752611	 0.113397
64.9607	121.868	227.5064	334.4884	394.0886	420.7412	510.6503	594.1848	671.0088	707.6259	748.5452	780.7666	840.1703	854.9018	885.4725	917.1501	931.823	936.4201	951.463	989.8552	1047.1133	1106.2905	1123.5947	1173.7309	1195.964	1206.1259	1229.5383	1255.988	1296.5658	1345.4967	1442.2309	1469.9764	1651.1479	1753.4448	1866.1981	3049.3464	3092.7249	3101.8803	3113.2524	3135.8067	3147.4687	3230.6626
C1C2C3N=C4OCC13C24	C1[C@H]2C=NC(=O)[C@H]2C1=C	
InChI=1S/C7H7NO/c1-3-4-6-8-5(3)7(1,4)2-9-6/h3-5H,1-2H2	InChI=1S/C7H7NO/c1-4-2-5-3-8-7(9)6(4)5/h3,5-6H,1-2H2/t5-,6-/m0/s1
