20
gdb 46992	2.57712	1.71713	1.40663	3.463	77.34	-0.2203	-0.0095	0.2108	1003.1645	0.174991	-403.18124	-403.17387	-403.172926	-403.212965	29.869	
O	 0.0267580308	-0.0627418584	-0.0646286284	-0.325116
C	-0.0178917099	 1.1377494712	 0.0614309136	 0.412869
C	-1.3497501157	 1.8800178071	 0.2050040677	-0.265246
N	-1.2518602465	 3.0583872833	 1.0757998648	-0.301511
C	-0.0257475974	 3.8497873789	 0.9105222861	 0.01634
C	 0.2989946845	 4.2543377162	-0.5556138098	-0.217498
C	 1.1074337217	 3.0551841537	-1.132863976	-0.233243
C	 1.2118126072	 2.0313073285	 0.035013978	-0.098442
C	 1.1588065921	 2.9455354539	 1.2788594607	-0.219313
H	-1.6592701258	 2.1247280508	-0.8301705009	 0.105651
H	-2.0895526163	 1.1778489827	 0.5979980394	 0.128206
H	-2.0646724635	 3.6481901138	 0.9349998934	 0.219132
H	-0.1149994205	 4.7197115265	 1.566608741	 0.070681
H	-0.6128116435	 4.4624987451	-1.1235919965	 0.095004
H	 0.8978509492	 5.1700333597	-0.5719547634	 0.101344
H	 0.6447133781	 2.6201007353	-2.0234443075	 0.109337
H	 2.115642679	 3.3658807529	-1.4212914361	 0.109093
H	 2.0969334896	 1.3964405329	-0.0297802423	 0.080823
H	 2.0867832791	 3.5211565851	 1.3636685932	 0.098002
H	 0.9918613279	 2.4086261208	 2.2156406629	 0.113884
98.7479	163.0163	221.6587	349.5927	393.2603	435.02	453.5925	501.6559	629.392	685.5392	726.7526	759.6692	781.4509	838.4725	870.5485	883.1344	918.109	940.2447	971.3943	1006.001	1029.1738	1055.4178	1060.5719	1114.3054	1127.5698	1180.4432	1202.2142	1224.66	1231.0365	1250.9656	1267.7774	1301.6031	1305.7148	1331.1884	1341.3518	1351.5707	1397.4352	1476.0808	1481.3361	1486.6886	1490.7044	1511.7841	1822.9153	2909.9246	3045.7228	3046.9877	3056.9636	3074.7711	3081.2582	3088.9675	3099.9039	3105.4847	3109.2816	3523.2583
O=C1CNC2CCC1C2	O=C1CN[C@@H]2CC[C@H]1C2	
InChI=1S/C7H11NO/c9-7-4-8-6-2-1-5(7)3-6/h5-6,8H,1-4H2	InChI=1S/C7H11NO/c9-7-4-8-6-2-1-5(7)3-6/h5-6,8H,1-4H2/t5-,6+/m0/s1
