15
gdb 43139	2.54836	2.04006	1.66306	2.8218	64.65	-0.2307	-0.0223	0.2084	854.6411	0.113009	-457.671795	-457.665219	-457.664275	-457.702568	26.207	
O	 0.118016739	 0.0207083085	 0.1100790864	-0.315652
C	 0.0208729138	 1.2049685225	 0.0541069516	 0.421594
C	-1.0724510108	 2.2697384205	-0.0507614033	-0.273434
C	-0.6892835828	 3.0206181553	 1.2928323302	-0.102831
O	 0.7934562706	 3.015164389	 1.3001218076	-0.347894
C	 0.9802674807	 2.4478143692	 0.0214726595	 0.28391
C	 1.9528466107	 2.3937790813	-1.1462812664	-0.185501
O	 0.7538854212	 2.4197785623	-2.0103614923	-0.302642
C	-0.0370201635	 3.0297028048	-0.9393146868	 0.089004
H	-2.1335891142	 2.1036442209	-0.2297764832	 0.102519
H	-1.0350564494	 4.0591842836	 1.3120849048	 0.124929
H	-1.0577989264	 2.4883323612	 2.1723563486	 0.14056
H	 2.5671029423	 3.2871641311	-1.301540631	 0.126099
H	 2.5351872962	 1.4802773243	-1.2847882616	 0.140417
H	-0.1698760974	 4.1043194255	-1.079523334	 0.098924
157.9413	242.8875	269.8477	304.2319	410.1504	494.2518	536.2335	657.6456	681.5524	762.4694	799.2324	840.1598	854.9709	884.4377	895.1421	925.7229	979.2489	995.8477	1043.471	1069.6836	1104.2552	1132.8773	1157.2235	1167.223	1211.0656	1230.0916	1294.8795	1310.8312	1320.6878	1356.8273	1506.3467	1510.5183	1930.1531	3045.7781	3048.1003	3096.5746	3115.8955	3121.639	3139.1215
O=C1C2COC11COC21	O=C1[C@H]2CO[C@]31CO[C@@H]23	
InChI=1S/C6H6O3/c7-4-3-1-9-6(4)2-8-5(3)6/h3,5H,1-2H2	InChI=1S/C6H6O3/c7-4-3-1-9-6(4)2-8-5(3)6/h3,5H,1-2H2/t3-,5+,6+/m1/s1
