23
gdb 58730	2.90181	1.33763	1.196	0.4728	88.96	-0.2334	0.0831	0.3166	1191.0216	0.206466	-351.115719	-351.107023	-351.106079	-351.148915	34.539	
C	 0.0301126953	 1.5843033755	 0.2433361876	-0.384587
C	 0.0011308717	 0.0615392275	 0.0286098458	-0.133821
C	 0.8414318101	-0.6612068114	 1.0916529939	-0.391858
C	-1.4077515331	-0.4556826881	-0.0021316737	 0.416527
C	-2.4367706251	-0.7479033276	 1.0705403306	-0.11476
C	-3.4922279128	 0.1112960601	 0.3812608812	-0.226263
C	-2.6676613778	-0.1053194145	-0.9165456353	-0.126957
C	-2.8149065564	-1.622565477	-1.2107698817	-0.227578
C	-2.0119860626	-1.8407251243	 0.0677017715	-0.137007
H	 1.0561538399	 1.9655004682	 0.2077681466	 0.106728
H	-0.5489040318	 2.1059736278	-0.5252306259	 0.113265
H	-0.393601673	 1.8465683403	 1.219244571	 0.114795
H	 0.4564102123	-0.1441021966	-0.9522593681	 0.07292
H	 0.8513379452	-1.7429498953	 0.9273113897	 0.114958
H	 1.8771351745	-0.3075742538	 1.0712721935	 0.110496
H	 0.445733433	-0.4747511775	 2.0964561275	 0.115464
H	-2.270204918	-0.8850117662	 2.1319511795	 0.078669
H	-4.5356341377	-0.2276205473	 0.3753837596	 0.082802
H	-3.4469740571	 1.1489368821	 0.7237936792	 0.095695
H	-2.6958479	 0.6245843534	-1.723967054	 0.064231
H	-3.8330124455	-2.0252587233	-1.2788855795	 0.083127
H	-2.2437422972	-1.9226553805	-2.0941143801	 0.094179
H	-1.540812134	-2.7512819814	 0.4174817811	 0.078977
62.9739	141.5425	175.1185	233.9806	259.8765	295.3191	370.5995	406.4571	453.867	497.1658	608.8708	723.9715	733.0539	815.3359	841.719	893.5976	901.3047	921.4139	927.6958	945.7524	966.12	971.401	987.8813	1014.7889	1022.3396	1073.1869	1080.7549	1093.7382	1119.3431	1138.4969	1148.277	1179.9673	1184.0483	1221.3421	1232.3473	1251.2643	1285.9749	1315.866	1345.7411	1358.2557	1394.6438	1413.4002	1448.1064	1488.9178	1490.6475	1492.1596	1502.9901	1509.5315	1514.3817	2982.6803	3020.8609	3026.838	3027.6516	3032.2875	3087.747	3090.3593	3094.6911	3100.2428	3101.4435	3106.8894	3126.804	3181.7696	3192.4437
CC(C)C12C3CC1CC23	CC(C)[C@@]12[C@H]3C[C@@H]1C[C@@H]23	
InChI=1S/C9H14/c1-5(2)9-6-3-7(9)8(9)4-6/h5-8H,3-4H2,1-2H3	InChI=1S/C9H14/c1-5(2)9-6-3-7(9)8(9)4-6/h5-8H,3-4H2,1-2H3/t6-,7+,8-,9+
