16
gdb 27991	2.62612	1.39488	0.9182	2.3166	75.92	-0.2136	-0.0378	0.1759	1222.7125	0.125104	-434.133381	-434.124843	-434.123899	-434.166515	31.238	
C	-0.0404636476	 1.5030196515	 0.0800300056	-0.486773
C	-0.0050100675	 0.0162034648	-0.0196011364	 0.278261
C	 0.0376890588	-0.7629997313	-1.1283695236	-0.200382
N	 0.0472503271	-2.0903265479	-0.6657797007	-0.09106
C	-0.0352765751	-3.2346797022	-1.4463269289	 0.168432
O	-0.0250290985	-3.2279743408	-2.6501004822	-0.292081
C	 0.0333072978	-2.0059810191	 0.7249812521	 0.405299
N	-0.0226771061	-3.1349109146	 1.5282513986	-0.595065
N	 0.0017528364	-0.7744312242	 1.1381787053	-0.36964
H	 0.8164938697	 1.8766000345	 0.6510708415	 0.136125
H	-0.0248492841	 1.9646546226	-0.9102416079	 0.124748
H	-0.94319161	 1.8360407601	 0.6038059671	 0.137362
H	 0.0584805789	-0.5558846366	-2.1833527483	 0.153222
H	-0.1217724598	-4.1494805551	-0.8357749779	 0.103737
H	 0.70315106	-3.8183564136	 1.3523999595	 0.258871
H	-0.0187892	-2.8587435781	 2.5023268861	 0.268944
115.1575	146.8941	182.215	206.9233	220.4102	275.0104	292.847	385.623	410.4535	560.6978	626.354	642.6772	688.3114	701.1951	743.3795	788.548	899.2532	982.4094	1020.1853	1030.5488	1065.3149	1132.7555	1169.3893	1214.835	1302.2782	1385.8615	1420.5442	1436.4661	1464.3118	1473.9492	1489.804	1600.2383	1644.3783	1662.8328	1817.0615	2995.8611	3035.4267	3088.8725	3124.1543	3302.3202	3537.4281	3631.0881
CC1=CN(C=O)C(N)=N1	Cc1cn(C=O)c(N)n1	
InChI=1S/C5H7N3O/c1-4-2-8(3-9)5(6)7-4/h2-3H,1H3,(H2,6,7)	InChI=1S/C5H7N3O/c1-4-2-8(3-9)5(6)7-4/h2-3H,1H3,(H2,6,7)
