20
gdb 108345	2.58818	1.68742	1.33336	0.5386	77.62	-0.2192	0.0707	0.2899	1043.8362	0.171003	-403.061503	-403.053418	-403.052474	-403.093985	31.879	
C	-0.1831131469	 1.3145514712	-0.0271746591	-0.257754
O	 0.2281526179	-0.0400895031	-0.0558262945	-0.297471
C	 0.7557547567	-0.5419745733	 1.1288466594	 0.448866
C	 0.781509867	-2.0899449724	 1.1723874591	-0.298652
C	 0.0923306243	-2.0503385054	 2.5766021395	-0.241563
C	 0.0739451392	-0.5000668388	 2.5286796946	-0.058131
N	 1.228311986	 0.2999552146	 3.1232200349	-0.146465
C	 2.4860018157	-0.4580929122	 2.9701033162	-0.249883
C	 1.9403571777	 0.2160792728	 1.7797920233	-0.112348
H	 0.6580585001	 2.0049194671	 0.117498313	 0.116078
H	-0.6428742859	 1.5208423578	-0.9961197073	 0.129636
H	-0.9220783303	 1.4986081604	 0.7641135926	 0.116931
H	 0.147312521	-2.5101544389	 0.3896730718	 0.114997
H	 1.7680137186	-2.5564333284	 1.1181617839	 0.101326
H	-0.9155107844	-2.4717000334	 2.5701683196	 0.107719
H	 0.6387755563	-2.5014582608	 3.4080937065	 0.110111
H	-0.8691054924	 0.0028764321	 2.7401627054	 0.083963
H	 3.3158112268	 0.0258773159	 3.4784917682	 0.121298
H	 2.4981516071	-1.5397646003	 3.0526586529	 0.117499
H	 2.4223422455	 1.0841286351	 1.3394001501	 0.093844
80.8174	170.3565	172.3152	253.0291	305.6008	335.4584	399.8315	454.9172	521.0517	598.6119	674.5664	720.6419	735.3795	766.11	868.9019	901.3108	909.3271	942.7119	961.7651	994.4236	1042.0421	1069.0184	1091.6282	1097.8299	1114.1204	1146.7634	1156.0775	1169.867	1179.2219	1214.138	1224.1501	1226.1889	1251.428	1275.3127	1277.3333	1300.5318	1374.4319	1471.1091	1479.8054	1485.3313	1490.1023	1505.3583	1513.0658	3003.7926	3057.2846	3065.0289	3069.6959	3106.8283	3115.966	3119.8362	3122.0562	3131.1373	3148.2867	3199.6779
COC12CCC1N1CC21	CO[C@]12CC[C@H]1N1C[C@@H]21	
InChI=1S/C7H11NO/c1-9-7-3-2-5(7)8-4-6(7)8/h5-6H,2-4H2,1H3	InChI=1S/C7H11NO/c1-9-7-3-2-5(7)8-4-6(7)8/h5-6H,2-4H2,1H3/t5-,6+,7-,8?/m1/s1
