22
gdb 60180	2.99056	0.86097	0.73037	1.5444	89.6	-0.2446	0.0375	0.2821	1627.1305	0.192042	-367.160093	-367.149709	-367.148764	-367.196083	38.497	
C	-0.5111071374	 1.3768618066	-0.1864318189	-0.385592
C	 0.0795056672	-0.0226205487	 0.0373620579	 0.052882
C	 0.8197735713	-0.5035539521	-1.217344421	-0.391559
C	 1.0108807623	-0.0810977625	 1.2639638415	-0.199324
C	 0.311072479	 0.1866724464	 2.5757475989	-0.012539
N	-0.5263021449	-0.8950781363	 3.1060439931	-0.323561
C	 0.6948618419	-0.501953814	 3.8524882013	-0.258314
C	 1.7654822722	-1.4573667296	 3.93549011	 0.386043
C	 2.6804194447	-2.2317670631	 4.0311067823	-0.448419
H	 0.2823446449	 2.1144409904	-0.3598699373	 0.109399
H	-1.1684709451	 1.3879688424	-1.0620871153	 0.111329
H	-1.1018700425	 1.718198953	 0.6694390147	 0.106763
H	-0.7485874964	-0.7172791022	 0.2317726297	 0.088152
H	 1.6694317565	 0.1507892175	-1.4481186024	 0.109171
H	 1.2081818886	-1.518825628	-1.0862892822	 0.113701
H	 0.1586110057	-0.5063751513	-2.0904160412	 0.107706
H	 1.4734090583	-1.0716330497	 1.3179507713	 0.112816
H	 1.8281035482	 0.6438216988	 1.1419630545	 0.091751
H	-0.0541822345	 1.2035518391	 2.7129776003	 0.089776
H	-1.343392455	-0.5225418359	 3.5827898081	 0.234766
H	 0.5497127682	 0.0786315018	 4.7615704896	 0.107866
H	 3.4811219468	-2.9246388226	 4.1100970853	 0.197188
37.6752	77.3421	103.035	166.7263	224.289	228.9227	243.503	304.7173	341.9754	393.5431	420.6862	471.1581	553.1983	592.7815	615.2116	657.1772	796.6071	817.1289	832.6006	879.294	922.8598	930.1074	956.3934	967.2342	976.9875	1019.518	1078.2022	1138.1311	1158.2893	1191.0418	1197.5897	1225.5501	1249.8579	1287.4507	1312.989	1368.7448	1371.4219	1401.0529	1409.4107	1420.5674	1459.4529	1474.3259	1488.2584	1494.8963	1505.4028	1510.3875	2239.0113	3010.5846	3020.5757	3021.4197	3028.7885	3080.1948	3085.3524	3092.9863	3097.353	3100.2785	3114.8476	3124.9503	3502.5879	3504.2839
CC(C)CC1NC1C#C	CC(C)C[C@H]1N[C@H]1C#C	
InChI=1S/C8H13N/c1-4-7-8(9-7)5-6(2)3/h1,6-9H,5H2,2-3H3	InChI=1S/C8H13N/c1-4-7-8(9-7)5-6(2)3/h1,6-9H,5H2,2-3H3/t7-,8+/m0/s1
