16
gdb 52032	2.39478	1.06109	0.78687	2.6234	73.24	-0.2551	-0.0476	0.2075	1396.376	0.1215	-437.882789	-437.873109	-437.872165	-437.91912	33.33	
O	 0.2097950315	 0.5514194609	-1.0591672876	-0.323621
C	 0.133767208	 1.3956748949	-0.191150158	 0.147908
N	 1.1279062129	 1.7143791323	 0.6808056305	-0.276209
C	 2.4309522049	 1.0869074349	 0.6382488363	-0.168654
C	 3.5015904604	 1.9809955039	-0.032760241	-0.260861
C	 3.7127748426	 3.2978225143	 0.7244414803	 0.160674
O	 3.0355904218	 3.6566965503	 1.6530214777	-0.247161
C	 4.7867975102	 1.3058895006	-0.1686188987	 0.29406
C	 5.8553167794	 0.7593577947	-0.2300172686	-0.429562
H	-0.777255373	 1.9996704747	-0.0118796408	 0.079299
H	 1.0047728024	 2.4825227193	 1.3214651218	 0.264228
H	 2.7579221012	 0.8416227137	 1.6525572822	 0.130284
H	 2.3301648738	 0.1630709488	 0.0677377941	 0.159806
H	 3.1388565807	 2.2615315813	-1.0344835455	 0.149636
H	 4.55777631	 3.9115255762	 0.349610156	 0.110779
H	 6.7933376132	 0.2665368592	-0.3064263787	 0.209393
22.55	69.4155	104.1261	137.0862	192.2981	230.2537	255.3588	310.6483	410.115	481.9848	500.9093	601.7716	611.0047	641.857	668.9968	759.0146	818.5775	936.544	985.6613	1025.0208	1040.9417	1076.3633	1104.8894	1211.0127	1241.6289	1259.4427	1327.4287	1381.9175	1420.2089	1428.4926	1470.1189	1524.4818	1802.8503	1822.4888	2236.1209	2925.6335	2943.8586	2994.1898	3070.6065	3143.6671	3501.7587	3641.2108
O=CNCC(C=O)C#C	O=CNC[C@@H](C=O)C#C	
InChI=1S/C6H7NO2/c1-2-6(4-8)3-7-5-9/h1,4-6H,3H2,(H,7,9)	InChI=1S/C6H7NO2/c1-2-6(4-8)3-7-5-9/h1,4-6H,3H2,(H,7,9)/t6-/m0/s1
