18
gdb 47509	2.79898	1.40778	1.07271	2.8248	72.18	-0.2377	-0.0247	0.213	1128.3845	0.148519	-439.073478	-439.065594	-439.06465	-439.106151	30.315	
O	-0.0337299581	-0.0561892896	 0.1929830185	-0.296325
C	-0.0270491961	 1.1335696683	-0.0086996681	 0.370564
C	-1.3249958641	 1.944738887	-0.0794200153	-0.173755
O	-1.3027117789	 2.9536530052	-1.0731047307	-0.236832
C	-0.2056402404	 3.8415315991	-0.9334260205	-0.164009
C	 1.1052476392	 3.1047650214	-1.1166477585	 0.316143
C	 1.7041905763	 3.0410730735	-2.472114428	-0.274357
N	 2.3318618378	 3.8556822711	-1.409630988	-0.36223
C	 1.2536513336	 1.949574112	-0.1394424211	-0.369919
H	-2.1530551241	 1.2727093956	-0.310804745	 0.138856
H	-1.5022885715	 2.3834498136	 0.9207202352	 0.108253
H	-0.3333840179	 4.6145045107	-1.6974678898	 0.108464
H	-0.2324471656	 4.3289531186	 0.0577237977	 0.091634
H	 2.2773304088	 2.1677321804	-2.7703658515	 0.12659
H	 1.1896443718	 3.5451193101	-3.2860168476	 0.11872
H	 2.1190943499	 4.8408439295	-1.5554877474	 0.2319
H	 1.4621954191	 2.3625542757	 0.859651914	 0.131964
H	 2.0847924503	 1.2886398577	-0.3930701238	 0.13434
77.5159	107.3274	241.2522	292.6339	345.3126	372.4657	410.0342	439.0675	472.7825	525.9755	602.5257	765.3002	822.8514	823.9433	901.4384	928.7145	952.4461	959.5306	975.5863	1000.8981	1048.6186	1112.2925	1130.6496	1137.6929	1156.3496	1219.3499	1246.8465	1264.1567	1281.3578	1307.4638	1349.9143	1357.0039	1391.4917	1420.2786	1453.7622	1466.2951	1490.9706	1517.2577	1826.6469	2935.7821	2949.4096	3004.9823	3079.6421	3109.9393	3115.257	3123.5376	3196.1105	3481.6984
O=C1COCC2(CN2)C1	O=C1COC[C@]2(CN2)C1	
InChI=1S/C6H9NO2/c8-5-1-6(3-7-6)4-9-2-5/h7H,1-4H2	InChI=1S/C6H9NO2/c8-5-1-6(3-7-6)4-9-2-5/h7H,1-4H2/t6-/m1/s1
