16
gdb 12697	3.12361	1.97762	1.35112	1.6996	60.2	-0.2587	-0.0424	0.2163	895.9391	0.130317	-420.899178	-420.891438	-420.890494	-420.931594	28.808	
O	 0.0675308342	 1.4040195131	 0.1011564043	-0.433864
C	-0.0038927792	-0.0062847005	 0.0230426641	 0.050273
C	-1.4678353402	-0.4878079265	-0.072129504	-0.23976
C	-1.6984818284	-0.8573713271	-1.5592960911	-0.250834
C	-0.3386718524	-1.439215074	-1.9952360805	 0.069337
O	-0.11116857	-1.5240304226	-3.3709333851	-0.440987
C	 0.607460906	-0.4738358607	-1.304236401	 0.330695
O	 1.5917947735	-0.0002307498	-1.8217256285	-0.34045
H	 0.9192558274	 1.6592651069	-0.2779585042	 0.294554
H	 0.5262535109	-0.4740251436	 0.8677065846	 0.092361
H	-1.6111938961	-1.3669161769	 0.5637092767	 0.108538
H	-2.1449624541	 0.2916524501	 0.2811150423	 0.130622
H	-2.523387825	-1.5565608749	-1.7075127186	 0.114577
H	-1.9003182606	 0.0377703707	-2.1574092024	 0.124199
H	-0.2170510193	-2.4297145419	-1.5178395168	 0.097478
H	 0.7164307332	-1.0478443024	-3.5360156798	 0.29326
46.0678	155.3944	218.9754	289.3428	352.6091	353.585	400.3584	432.865	497.673	590.9097	604.0423	701.8877	789.3291	866.8741	915.8519	969.4328	1000.3189	1031.9452	1051.3389	1118.5002	1164.0417	1177.4339	1217.8629	1234.198	1271.6823	1305.9234	1334.4992	1354.2353	1374.5309	1397.4081	1424.2862	1479.2934	1500.0207	1828.7763	2933.7673	2973.0952	3057.1064	3062.9511	3117.7596	3127.0745	3716.5881	3762.5225
OC1CCC(O)C1=O	O[C@H]1CC[C@@H](O)C1=O	
InChI=1S/C5H8O3/c6-3-1-2-4(7)5(3)8/h3-4,6-7H,1-2H2	InChI=1S/C5H8O3/c6-3-1-2-4(7)5(3)8/h3-4,6-7H,1-2H2/t3-,4+
