19
gdb 14746	3.141	1.08867	0.85603	3.2845	73.2	-0.2405	0.0365	0.277	1382.3492	0.162825	-402.179027	-402.169213	-402.168269	-402.21477	33.023	
C	-0.9012313506	 0.563672235	 0.1172494461	-0.229323
O	-0.2747661081	-0.6792902426	-0.1043385144	-0.231519
C	 0.5934553027	-0.6751998913	-1.2134950169	-0.052995
C	 1.0727785011	-2.0964446318	-1.4542132371	-0.101878
O	 0.0415720128	-2.9298845904	-1.9676821888	-0.206137
C	-0.7862225764	-3.5046778767	-1.0654866178	 0.138831
N	-1.8014522506	-4.1371450112	-1.4514966268	-0.211565
C	-2.6151804225	-4.7651708742	-0.4321452961	-0.312285
H	-0.167003876	 1.3575053008	 0.3257430338	 0.106121
H	-1.50749868	 0.8725223354	-0.7477868077	 0.113364
H	-1.5542052119	 0.4492594617	 0.9854151647	 0.13166
H	 0.078578689	-0.3065322404	-2.1151019229	 0.105485
H	 1.4643786718	-0.0213827029	-1.0312902329	 0.088879
H	 1.8635704264	-2.0947590241	-2.2092685601	 0.120641
H	 1.4812030302	-2.5108597069	-0.5230930453	 0.11521
H	-0.4766868357	-3.3762703484	-0.0190218271	 0.084317
H	-2.6700939298	-5.8446123712	-0.6160872402	 0.12378
H	-2.2480385048	-4.6100088047	 0.5960407889	 0.093968
H	-3.6406459875	-4.3819731061	-0.4904486694	 0.123446
46.8282	76.7486	100.3716	117.9462	197.6214	209.0272	234.289	283.8214	306.1292	362.2823	458.8901	516.5708	577.5693	856.2168	915.5261	972.7867	1042.2435	1053.7397	1067.1812	1128.0169	1141.0889	1156.4099	1165.7831	1186.4602	1214.7386	1243.1208	1268.6611	1334.1362	1393.9849	1411.4474	1425.2966	1449.9917	1478.2856	1481.3389	1486.6707	1487.8159	1498.0903	1505.3031	1520.7544	1778.4569	2954.3292	2963.9232	2977.5117	2998.6001	3020.8525	3024.8743	3031.8138	3053.7145	3072.2946	3102.3352	3119.866
COCCOC=NC	COCCOC=NC	
InChI=1S/C5H11NO2/c1-6-5-8-4-3-7-2/h5H,3-4H2,1-2H3	InChI=1S/C5H11NO2/c1-6-5-8-4-3-7-2/h5H,3-4H2,1-2H3
