23
gdb 114853	4.10915	0.96722	0.85357	0.3723	93.78	-0.2206	0.0246	0.2453	1460.2552	0.207027	-351.147935	-351.139198	-351.138254	-351.181355	34.329	
C	 0.0338041369	 1.6311403077	-0.1039366442	-0.38569
C	 0.0149301183	 0.1008414518	-0.0430236709	-0.17553
C	-1.3918163415	-0.5033912071	 0.0795395876	 0.01256
C	-1.4022121615	-2.0662079522	-0.0546494224	-0.269294
C	-2.5962427915	-2.5037952925	 0.8129726913	-0.035767
C	-2.5437269712	-3.4194772037	 2.0899685614	-0.238987
C	-3.2031239608	-2.2476350638	 2.9130040156	-0.318875
C	-2.7596172522	-1.3583721705	 1.7741591875	 0.309611
C	-2.0546438221	-0.2822955985	 1.4446817789	-0.252898
H	 1.055400666	 2.0112772113	-0.2040251338	 0.109862
H	-0.5433490325	 1.9982547056	-0.9600441457	 0.113664
H	-0.3968823445	 2.0779709314	 0.7982505474	 0.117101
H	 0.4885959453	-0.3007697419	-0.9485890745	 0.091776
H	 0.6256675081	-0.2466113403	 0.8011047436	 0.090788
H	-2.0094479386	-0.0653986233	-0.7214131447	 0.069786
H	-1.4566067523	-2.3961653999	-1.0968492889	 0.089316
H	-0.4676892298	-2.4582763198	 0.3670857305	 0.094233
H	-3.493193925	-2.7247524801	 0.2209913194	 0.071125
H	-3.0898220633	-4.3653787567	 2.0549752412	 0.096769
H	-1.5157773666	-3.6032311511	 2.4132517201	 0.105647
H	-4.2900591999	-2.3709804497	 2.9722274556	 0.109629
H	-2.819368595	-2.0319472925	 3.9131342379	 0.107788
H	-1.8770751763	 0.5981428456	 2.0520863072	 0.087384
77.4637	110.5999	176.7701	208.5973	242.7471	304.285	340.0746	424.4784	445.1708	580.3445	620.5913	685.1726	775.2179	791.7215	811.9239	828.7701	859.2844	906.0609	918.0031	933.7794	953.3353	977.5495	1022.6027	1043.8438	1063.4318	1075.6847	1112.9755	1134.0156	1157.0119	1177.8895	1192.2799	1232.4665	1234.606	1253.9856	1256.8376	1269.8689	1302.5952	1325.4823	1339.03	1355.5536	1378.4886	1412.0143	1472.4653	1480.6761	1485.3602	1488.5892	1499.9505	1505.7043	1735.4915	2964.1995	3010.8933	3021.945	3026.1353	3031.6211	3043.7042	3044.8059	3057.9537	3082.4587	3097.4351	3099.4988	3101.8883	3120.8481	3190.338
CCC1CC2CCC2=C1	CC[C@H]1C[C@H]2CC[C]2[CH]1	
InChI=1S/C9H14/c1-2-7-5-8-3-4-9(8)6-7/h5,7,9H,2-4,6H2,1H3	InChI=1S/C9H14/c1-2-7-5-8-3-4-9(8)6-7/h5,7,9H,2-4,6H2,1H3/t7-,9-/m1/s1
