24
gdb 101729	2.57383	1.01408	0.83961	1.8525	86.91	-0.2145	0.0808	0.2953	1513.1435	0.214876	-405.508458	-405.49752	-405.496576	-405.545006	39.474	
C	-0.0153636452	 1.1513199019	 0.3485408755	-0.236138
O	-0.0404556541	-0.2131791435	 0.0015007247	-0.236883
C	 0.635212142	-0.5379377681	-1.2078026019	 0.141691
C	 2.1540194594	-0.5760926011	-1.0133640741	-0.404715
C	 0.0868878433	-1.8855779911	-1.6874422308	-0.22893
C	-1.386049175	-1.8457314938	-2.0491371115	 0.030755
C	-2.1748714887	-3.1011775042	-2.2216916964	-0.268216
N	-2.4812993885	-2.177073833	-1.1383725719	-0.071467
C	-2.1995926069	-2.6124940034	 0.2209257733	-0.310637
H	 0.995959512	 1.5105209993	 0.589361822	 0.104901
H	-0.4219942921	 1.7822449923	-0.4571999975	 0.105533
H	-0.6425646188	 1.2693707355	 1.2357346378	 0.127534
H	 0.3907361903	 0.2274234327	-1.9657716736	 0.062517
H	 2.6571484338	-0.8201878164	-1.9543418431	 0.114597
H	 2.5404822359	 0.3885418325	-0.672685656	 0.116072
H	 2.4223546428	-1.3333334479	-0.2697033958	 0.122762
H	 0.6553041503	-2.1829811357	-2.5779224665	 0.100036
H	 0.2878662981	-2.6429468122	-0.9228592356	 0.104933
H	-1.6370157162	-1.0099537237	-2.7044227233	 0.078688
H	-2.9193145495	-3.1953575308	-3.0090635009	 0.106943
H	-1.6723058962	-4.0343223613	-1.962892805	 0.097684
H	-1.3900741906	-3.3559973627	 0.3038526094	 0.091697
H	-1.9248318288	-1.7454271664	 0.8249586353	 0.137519
H	-3.1070273575	-3.0656836089	 0.6337994558	 0.113124
47.4089	72.1884	95.7233	146.0773	184.0747	199.6582	228.8066	254.6272	298.1287	325.858	359.1952	404.1285	457.9183	520.9888	534.1881	745.3641	783.2588	828.8768	891.2572	929.6516	946.0886	1030.9137	1041.0999	1064.1046	1106.0476	1118.3175	1123.0642	1134.3074	1153.7372	1167.0007	1181.7457	1193.9143	1205.5048	1218.7697	1268.9332	1308.6096	1342.7749	1377.0366	1387.1122	1403.8911	1426.7434	1445.7993	1464.8968	1478.9906	1482.6592	1487.9152	1493.471	1502.137	1508.2807	1513.0139	1515.0788	2944.3748	2968.5884	2978.2709	3025.3271	3030.807	3040.0746	3065.6523	3073.8112	3076.4115	3091.6564	3110.1135	3111.036	3113.6295	3130.6419	3159.9574
COC(C)CC1CN1C	CO[C@@H](C)C[C@H]1CN1C	
InChI=1S/C7H15NO/c1-6(9-3)4-7-5-8(7)2/h6-7H,4-5H2,1-3H3	InChI=1S/C7H15NO/c1-6(9-3)4-7-5-8(7)2/h6-7H,4-5H2,1-3H3/t6-,7-,8?/m0/s1
