21
gdb 99710	2.1969	1.00408	0.71943	1.0238	88.66	-0.2403	0.0483	0.2886	1633.7006	0.179545	-387.037127	-387.026312	-387.025368	-387.074736	37.495	
C	 0.225431901	 1.3385001109	-0.0523567353	-0.230433
O	-0.0466903302	-0.0373165067	 0.0975099019	-0.244588
C	 0.6402598129	-0.6610528924	 1.1780061467	-0.110956
C	 0.0077151681	-1.961998534	 1.4043778858	 0.036857
C	-0.4850019282	-3.0414970142	 1.6040754917	 0.15464
C	-1.0928326517	-4.3430307787	 1.8385658471	-0.501703
C	 2.1331085923	-0.8142653073	 0.9180447919	 0.022051
C	 3.111217846	 0.2466200093	 1.3625248651	-0.278319
C	 3.0599898071	-1.0795448639	 2.0746772321	-0.264172
H	 1.2528312807	 1.5326553114	-0.3874080813	 0.114684
H	-0.468535737	 1.7154608548	-0.8079166373	 0.12541
H	 0.0578711138	 1.890515129	 0.8866270836	 0.09849
H	 0.5159240737	-0.043305076	 2.0874547209	 0.079991
H	-0.3577863811	-5.1502600674	 1.7465048557	 0.146962
H	-1.5307869739	-4.4044696475	 2.8409911644	 0.146953
H	-1.8924759383	-4.5390208847	 1.1157882511	 0.151743
H	 2.3489612987	-1.330681332	-0.0122593356	 0.096567
H	 3.9597909426	 0.4607653071	 0.7219862034	 0.113405
H	 2.7211895145	 1.1139319563	 1.8855530035	 0.111476
H	 2.6273461501	-1.1044967375	 3.0696870937	 0.116107
H	 3.8718229989	-1.7825340366	 1.9280633608	 0.114835
25.4628	69.975	84.466	101.9656	125.4812	192.3269	230.3249	268.2048	311.5496	339.6179	370.2392	447.6431	483.0444	540.2878	769.0571	810.4489	849.2476	867.839	932.7015	962.1091	993.8614	1052.145	1054.3511	1057.8392	1078.7631	1128.369	1135.521	1154.1994	1178.8834	1187.2903	1198.9352	1215.9853	1222.9632	1307.7358	1357.1879	1406.195	1413.9324	1468.7369	1474.6864	1477.6017	1478.946	1486.9163	1503.521	1512.9217	2377.2282	2922.1636	2975.5401	3027.0653	3040.3041	3087.1066	3089.2865	3111.1761	3128.3002	3134.5144	3158.6546	3207.1092	3223.1067
COC(C#CC)C1CC1	CO[C@@H](C#CC)C1CC1	
InChI=1S/C8H12O/c1-3-4-8(9-2)7-5-6-7/h7-8H,5-6H2,1-2H3	InChI=1S/C8H12O/c1-3-4-8(9-2)7-5-6-7/h7-8H,5-6H2,1-2H3/t8-/m0/s1
