23
gdb 120854	2.16899	0.98609	0.74043	1.3238	84.34	-0.2321	0.0853	0.3175	1649.1328	0.202737	-425.394882	-425.384084	-425.38314	-425.431904	38.317	
C	 0.1725049136	 1.4622590718	 0.4072992608	-0.384779
C	-0.0828341752	-0.0205504167	 0.6122499913	-0.034183
O	 1.1633319277	-0.6462807677	 0.9013146692	-0.244648
C	 1.05678984	-2.0134954114	 1.1014569848	 0.094084
C	 2.0556591938	-2.6211970283	 2.0468595806	-0.358486
C	 0.5905819006	-2.5373921484	 2.436511903	 0.084224
O	 0.1887837269	-1.5967427042	 3.3742829293	-0.242923
C	 0.4177673246	-1.9950970888	 4.7180065707	-0.029842
C	-0.0716020819	-0.887142502	 5.6341779908	-0.385226
H	 0.8733875156	 1.6233255869	-0.4169928436	 0.123103
H	-0.7623210929	 1.9815511533	 0.1754208188	 0.111751
H	 0.6000721551	 1.9036791975	 1.3119591924	 0.127212
H	-0.7820956905	-0.1895420879	 1.4412917327	 0.11073
H	-0.5231894407	-0.4662458735	-0.2951661813	 0.079803
H	 0.7622233668	-2.5834462857	 0.2175363347	 0.080381
H	 2.4992587529	-3.5829957987	 1.8152906889	 0.110779
H	 2.7122393997	-1.9052402102	 2.5289874865	 0.130484
H	 0.0165489808	-3.4663124093	 2.4485431375	 0.080703
H	-0.116267195	-2.9366546751	 4.9266998428	 0.085933
H	 1.4899699632	-2.1892207633	 4.8737655596	 0.092367
H	 0.4659742136	 0.043340926	 5.430801805	 0.128414
H	-1.1394998446	-0.7058062999	 5.4824480003	 0.125463
H	 0.0890752659	-1.1602129846	 6.6814071553	 0.114657
51.5833	67.3338	88.9631	97.8564	158.8023	170.2505	243.8934	248.4408	283.3539	338.8622	411.2973	423.1581	504.4235	656.3148	769.9066	813.7235	821.2305	823.7026	850.5467	908.5863	939.5424	1016.0004	1047.0761	1059.4074	1081.2834	1090.8456	1130.8372	1146.6959	1153.8647	1172.2737	1185.5962	1187.9541	1204.5249	1263.7081	1292.0576	1298.1913	1360.2889	1380.6513	1402.3256	1404.2366	1431.0665	1439.0473	1482.8664	1483.2821	1484.1342	1499.7266	1501.7312	1525.3539	1527.3901	2967.9431	2968.8108	3003.4225	3040.3556	3043.7912	3044.9001	3069.0703	3081.1168	3117.6756	3119.2155	3121.2686	3121.7405	3136.797	3230.9556
CCOC1CC1OCC	CCO[C@H]1C[C@H]1OCC	
InChI=1S/C7H14O2/c1-3-8-6-5-7(6)9-4-2/h6-7H,3-5H2,1-2H3	InChI=1S/C7H14O2/c1-3-8-6-5-7(6)9-4-2/h6-7H,3-5H2,1-2H3/t6-,7+
