23
gdb 87206	3.69182	0.87351	0.82163	1.6962	86.52	-0.2511	0.0857	0.3367	1527.716	0.203955	-388.261647	-388.251556	-388.250612	-388.296978	37.543	
C	-1.192052599	 0.2013622998	-1.386113464	-0.414573
C	-0.9238866471	-1.0754824467	-0.6190324712	-0.042179
C	 0.1223134211	-2.066030138	-1.0758594417	-0.323236
C	 0.3179175882	-1.3117841652	 0.221922899	 0.364366
C	 1.3994272186	-0.2493731257	 0.301983065	-0.470377
C	 0.1175897446	-2.1027506115	 1.5124399139	-0.309172
C	 1.2550028687	-3.0422416936	 1.845027436	 0.113204
C	 1.0323751629	-4.3156749111	 2.5408032659	-0.184578
O	 1.287811537	-4.2863755732	 1.1356201138	-0.23297
H	-0.2883089269	 0.6003190914	-1.8545951008	 0.114944
H	-1.9171483211	 0.020246284	-2.1875375491	 0.117715
H	-1.6045350854	 0.9833618274	-0.7381142681	 0.113455
H	-1.8273106833	-1.5201111979	-0.2062556383	 0.076034
H	-0.0906931714	-3.1275279684	-1.023829117	 0.123707
H	 0.7434361672	-1.7800435405	-1.9197614775	 0.101543
H	 1.5252175203	 0.2821831362	-0.6439350731	 0.116751
H	 1.1690580519	 0.4950329075	 1.0743902236	 0.110895
H	 2.3714742963	-0.6904022571	 0.5501214839	 0.117726
H	-0.0185422391	-1.406138495	 2.3524482952	 0.096019
H	-0.7986030547	-2.699828177	 1.4419569273	 0.097706
H	 2.238520542	-2.5833441124	 1.957150486	 0.091035
H	 1.8226612504	-4.7493018725	 3.1523706729	 0.111858
H	 0.0195980488	-4.5997832608	 2.8256901784	 0.110127
52.1246	79.1713	135.2835	173.9036	183.7344	220.3436	274.9178	315.5044	355.2121	383.8473	419.1995	452.7795	532.6989	712.4434	777.1832	796.8	856.5914	883.881	903.7393	917.338	945.8101	973.2416	1002.4046	1028.8754	1050.7349	1071.3646	1091.6374	1114.2279	1138.1126	1145.7613	1158.0311	1171.391	1195.1792	1242.8901	1271.9341	1295.2533	1336.3925	1357.947	1408.4086	1423.9477	1427.1042	1448.5236	1461.9079	1487.694	1493.0022	1494.5671	1502.2606	1515.5244	1529.7028	3005.7602	3023.4325	3029.0342	3063.0622	3077.5906	3078.7791	3083.9644	3100.9672	3102.2413	3117.6153	3126.0098	3128.3539	3163.9835	3214.542
CC1CC1(C)CC1CO1	C[C@H]1C[C@]1(C)C[C@H]1CO1	
InChI=1S/C8H14O/c1-6-3-8(6,2)4-7-5-9-7/h6-7H,3-5H2,1-2H3	InChI=1S/C8H14O/c1-6-3-8(6,2)4-7-5-9-7/h6-7H,3-5H2,1-2H3/t6-,7-,8+/m0/s1
