17
gdb 74328	3.32354	1.04719	0.8518	6.5921	74.82	-0.226	0.0384	0.2644	1319.2491	0.138751	-414.224669	-414.216198	-414.215254	-414.258421	31.347	
N	 0.055917499	 1.3224630585	 0.1508531574	-0.580968
C	-0.0226849321	-0.0471578103	 0.0357190117	 0.41257
N	-1.0971114993	-0.7318781416	 0.1807534027	-0.30427
C	-0.7198928349	-2.1377204801	 0.038470249	 0.025837
C	-1.2964537539	-2.7215730831	-1.2749297638	-0.34105
C	-2.7564163571	-2.7115520193	-1.3122528428	 0.277216
N	-3.911125925	-2.7322990043	-1.3458489294	-0.312584
C	 0.8409500558	-2.1577172824	 0.0323969029	-0.208476
N	 1.154062834	-0.7487770386	-0.2429103153	-0.343224
H	 0.7138511364	 1.7670230682	-0.4733278802	 0.255279
H	-0.8534304907	 1.7626864528	 0.1430840255	 0.268849
H	-1.1199326911	-2.7266106873	 0.8703882647	 0.096034
H	-0.9161111758	-2.1436805381	-2.1247802027	 0.150249
H	-0.9567509944	-3.7563131839	-1.4032441634	 0.141769
H	 1.2334603253	-2.4750713373	 1.0060780032	 0.110874
H	 1.2602177813	-2.8164623015	-0.7350029255	 0.109922
H	 1.9936607926	-0.3846854718	 0.187301636	 0.241974
54.6138	100.8147	143.3927	207.4438	317.7278	378.0185	392.029	412.172	425.7594	532.8389	568.5282	646.0404	690.2981	742.3899	794.7038	852.6962	907.7891	936.4018	995.994	1015.6686	1035.1233	1077.348	1106.6459	1169.7324	1212.3687	1240.1416	1283.9008	1313.0435	1331.6068	1358.4723	1382.4873	1460.0747	1488.9088	1531.1242	1625.4571	1731.6283	2364.4637	3022.0577	3037.7745	3046.6849	3071.5877	3084.9129	3564.9306	3579.2896	3669.553
NC1=NC(CC#N)CN1	N[C]1[N][C@@H](CC#N)CN1	
InChI=1S/C5H8N4/c6-2-1-4-3-8-5(7)9-4/h4H,1,3H2,(H3,7,8,9)	InChI=1S/C5H8N4/c6-2-1-4-3-8-5(7)9-4/h4H,1,3H2,(H3,7,8,9)/t4-/m0/s1
