15
gdb 27389	1.9881	1.88901	0.96908	8.072	75.39	-0.1728	-0.0145	0.1583	1133.507	0.11474	-450.177314	-450.169266	-450.168322	-450.209646	31.211	
N	-0.0121686728	 1.3730787741	 0.1325468917	-0.576189
C	 0.0233692804	 0.0150304815	 0.0418115895	 0.581389
N	-1.1034290092	-0.6818277478	 0.0271809784	-0.359472
H	-2.0077933283	-0.2326653725	 0.0649357284	 0.267459
C	-1.1861919762	-2.1226058507	-0.0034275556	 0.377813
N	-2.4112257264	-2.5231663123	-0.0017276695	-0.610464
C	 0.0655239831	-2.785272505	-0.029583424	-0.387083
C	 1.3010412297	-2.1341286351	-0.0223328514	 0.402665
O	 2.4537570863	-2.5308750914	-0.0383062005	-0.417889
N	 1.1694186511	-0.6429940616	 0.0101788748	-0.406909
H	 0.8223450262	 1.8819518049	-0.1099075349	 0.281822
H	-0.8753758755	 1.841084103	-0.0932428924	 0.281036
H	-2.4438794377	-3.5401189336	-0.0239364154	 0.211538
H	 0.0761355756	-3.8660493387	-0.0545949089	 0.092041
H	 2.0561081838	-0.1612255048	 0.0391377497	 0.262241
140.1318	151.7949	183.1585	296.4126	318.0844	376.6764	394.4847	482.2149	519.1137	543.1241	578.9724	624.1529	636.1719	656.5284	714.7072	732.2539	757.7058	799.2603	861.9772	951.1215	1084.2268	1100.177	1135.7112	1202.58	1277.632	1341.156	1373.2085	1375.974	1628.9748	1646.1316	1674.9715	1710.9218	1812.5012	3225.0665	3513.0035	3600.0998	3610.3536	3624.1325	3710.3004
NC1=[NH+]C(=N)C=C([O-])N1	N[C]1NC(=CC(=O)N1)[NH]	
InChI=1S/C4H6N4O/c5-2-1-3(9)8-4(6)7-2/h1H,(H5,5,6,7,8,9)	InChI=1S/C4H6N4O/c5-2-1-3(9)8-4(6)7-2/h1,5H,(H4,6,7,8,9)
