19
gdb 81101	2.46723	1.66742	1.26476	2.6788	80.51	-0.237	-0.0258	0.2111	1053.7965	0.158885	-385.865833	-385.857694	-385.856749	-385.898559	31.709	
C	-0.1289557965	 1.5394941255	 0.0761235853	-0.435138
C	 0.0389066906	 0.0277024177	 0.0448249009	 0.010661
C	 1.1920484836	-0.5943053579	-0.8374924494	-0.090043
C	 2.1669307581	-0.2595879228	 0.3418699728	-0.260143
C	 0.9214671527	-0.675514111	 1.1881151057	 0.21799
C	 0.7410393837	-0.301387645	 2.6181957673	 0.03426
O	 1.4344227614	 0.489410787	 3.2107835475	-0.256185
C	 0.7497035616	-2.1385420136	 0.7477014921	-0.143452
C	 0.9451833595	-2.0834047747	-0.5732912827	-0.096349
H	 0.8059114457	 2.0791808202	 0.2410752994	 0.132186
H	-0.5518447534	 1.8832774888	-0.8746351606	 0.121261
H	-0.8254874819	 1.8343559519	 0.8682529386	 0.125817
H	-0.9315846511	-0.4553363183	-0.0977896617	 0.07621
H	 1.3728302536	-0.261075534	-1.8595126818	 0.064064
H	 3.0531741365	-0.8880515643	 0.4448674344	 0.101249
H	 2.4320198479	 0.7939044139	 0.4363357943	 0.113594
H	-0.1250191846	-0.7908850307	 3.1242044089	 0.068528
H	 0.5303014571	-2.9771948864	 1.3932706156	 0.109171
H	 0.9307126756	-2.8752190164	-1.3086890865	 0.106319
62.1568	172.6584	198.692	203.6976	297.3118	322.7471	452.2513	481.379	536.6	544.6244	669.425	705.8571	710.597	799.1073	833.2315	845.5582	901.2749	906.6423	925.6166	1011.7746	1012.2025	1053.5134	1065.8012	1074.6771	1083.7937	1119.1067	1150.0184	1177.9928	1217.3769	1226.8489	1250.8502	1281.3185	1326.813	1368.7063	1414.4692	1426.3907	1487.8855	1492.5872	1514.0939	1617.1588	1815.156	2847.0338	3036.0454	3068.4208	3082.9958	3093.4907	3115.9054	3126.455	3149.2861	3219.1782	3245.7555
CC1C2CC1(C=O)C=C2	C[C@H]1[C@H]2C[C@]1(C=O)C=C2	
InChI=1S/C8H10O/c1-6-7-2-3-8(6,4-7)5-9/h2-3,5-7H,4H2,1H3	InChI=1S/C8H10O/c1-6-7-2-3-8(6,4-7)5-9/h2-3,5-7H,4H2,1H3/t6-,7+,8-/m0/s1
