18
gdb 117588	2.12046	1.08787	0.91741	3.2066	78.2	-0.2776	0.0118	0.2895	1359.5971	0.144286	-401.918044	-401.907527	-401.906583	-401.95369	37.34	
C	-0.0881489522	 1.5869448685	-0.0860664212	-0.406894
C	 0.0055957127	 0.0375075528	-0.0212794386	-0.132108
C	 0.7972304141	-0.4495030098	 1.2306506079	-0.181819
C	 2.2597832475	-0.016540579	 1.286586829	-0.106425
O	 2.8008477789	-0.6018458367	 2.4601856681	-0.418716
C	-1.3480898892	-0.5302039779	 0.0271637768	 0.336746
C	-2.4607047714	-0.974672172	 0.10141553	-0.436013
C	 0.6776574636	-0.4462146701	-1.2470744158	 0.29938
N	 1.2278771044	-0.8037043603	-2.1981621027	-0.348047
H	 0.9024773268	 2.0324099152	-0.1964218353	 0.138781
H	-0.7039117006	 1.8935633162	-0.9334802295	 0.147861
H	-0.5480316205	 1.9562485567	 0.8337541778	 0.137529
H	 0.273110236	-0.0797069437	 2.1171411465	 0.125749
H	 0.7607592571	-1.5416279665	 1.2666893916	 0.137149
H	 2.7862171666	-0.3606902359	 0.3841196055	 0.116512
H	 2.3401841066	 1.0805507214	 1.3207662834	 0.091335
H	 3.739152736	-0.3943713046	 2.4944077153	 0.291057
H	-3.4428296467	-1.3763005644	 0.1546482014	 0.207922
71.3377	95.5405	118.194	132.9989	185.2428	215.3288	249.2131	253.2714	295.5498	337.955	397.4349	467.7073	505.7315	580.3649	603.4834	648.195	663.5685	718.976	797.1387	922.7332	946.1365	1003.5282	1027.3246	1077.7355	1137.5094	1179.086	1191.4697	1258.0323	1261.5961	1323.458	1342.3864	1407.643	1466.5831	1481.8097	1489.0383	1499.9453	1530.6097	2244.4364	2356.5274	2981.5518	3016.3446	3057.0889	3063.2307	3113.2147	3139.6818	3144.7177	3500.3387	3833.3131
CC(CCO)(C#C)C#N	C[C@@](CCO)(C#C)C#N	
InChI=1S/C7H9NO/c1-3-7(2,6-8)4-5-9/h1,9H,4-5H2,2H3	InChI=1S/C7H9NO/c1-3-7(2,6-8)4-5-9/h1,9H,4-5H2,2H3/t7-/m0/s1
