15
gdb 33869	4.25621	1.3111	1.16616	4.4792	68.43	-0.2697	0.0074	0.2771	1018.3219	0.114662	-416.780597	-416.773787	-416.772842	-416.81179	26.741	
N	-0.0255296077	-1.1333249737	 0.019294338	-0.338014
C	 0.0098748421	 0.0222850499	 0.0218286475	 0.260905
C	 0.0402765535	 1.4639822903	-0.0274576779	 0.150514
C	-0.9552211151	 2.1661988557	-0.96529014	-0.332148
C	-0.2643256802	 3.4496514911	-1.4037445827	 0.038904
O	 0.0671751566	 4.3525221829	-0.337872681	-0.255457
C	 1.0975765469	 3.4928463699	-0.8471983273	 0.026581
C	 1.3205013133	 2.2630977977	 0.0147410853	-0.097845
N	 0.4858434846	 2.1390824333	 1.2027798881	-0.341748
H	-1.1435828401	 1.5350298219	-1.839513915	 0.138781
H	-1.9184938538	 2.3544563197	-0.4803814597	 0.140148
H	-0.549530731	 3.9287830958	-2.3365771129	 0.116114
H	 1.9372831104	 3.9877769836	-1.3235270973	 0.116366
H	 2.3022162607	 1.8053865778	 0.0554042282	 0.120755
H	-0.0401391502	 3.0049165239	 1.3241292067	 0.256144
136.0322	158.4763	295.827	315.1334	414.8508	464.5681	552.5159	596.9488	626.7052	702.8947	729.8704	802.4587	848.0754	884.8457	895.883	936.1978	962.3608	1026.6735	1034.857	1062.4411	1109.5213	1120.5026	1170.3117	1198.05	1250.8435	1274.4739	1296.0984	1317.6735	1345.1946	1398.671	1428.1497	1472.6924	2357.857	3057.0529	3100.4573	3152.3709	3175.4496	3188.5125	3469.4234
N#CC12CC3OC3C1N2	N#C[C@]12C[C@H]3O[C@H]3[C@H]1N2	
InChI=1S/C6H6N2O/c7-2-6-1-3-4(9-3)5(6)8-6/h3-5,8H,1H2	InChI=1S/C6H6N2O/c7-2-6-1-3-4(9-3)5(6)8-6/h3-5,8H,1H2/t3-,4-,5-,6-/m1/s1
