15
gdb 55248	3.33394	1.24282	1.03043	7.2938	61.27	-0.2638	0.0018	0.2656	1122.5969	0.113901	-491.162263	-491.153904	-491.15296	-491.196311	29.798	
N	 0.0766348299	 1.2100765107	-0.3504391395	-0.5218
C	 0.0639281519	-0.0825213286	 0.0760509597	 0.394848
O	 1.0571896489	-0.676365927	 0.4418963394	-0.34986
C	-1.3273336958	-0.7505698225	 0.0873076759	-0.127043
C	-2.0033690078	-0.8914344306	-1.3028059842	-0.096366
O	-1.7404338392	-2.2306463942	-1.7064578749	-0.231827
C	-1.2890037455	-2.9644808758	-0.6389077911	 0.47679
O	-1.019273151	-4.1265103223	-0.7069733876	-0.373685
N	-1.2391781428	-2.1371066145	 0.4768626902	-0.347672
H	 0.9469664084	 1.7160606385	-0.3166695288	 0.272969
H	-0.7642570662	 1.7201997179	-0.5582417542	 0.264621
H	-1.9707315693	-0.1757456974	 0.7652937091	 0.11313
H	-3.0858994691	-0.7405913343	-1.2318088686	 0.126026
H	-1.5929350214	-0.2098192205	-2.051639725	 0.128395
H	-0.5133954111	-2.3770687993	 1.1390685695	 0.271473
44.6845	73.0958	154.8351	199.3266	243.5948	314.5799	397.3499	496.893	537.9094	560.111	632.6566	669.778	728.7403	774.6127	791.9351	839.0141	923.396	983.1896	1055.1137	1085.9818	1089.3167	1154.0163	1219.9285	1240.3859	1290.9994	1304.069	1387.0328	1412.2483	1427.2216	1523.5517	1620.66	1805.5697	1905.9165	3022.0825	3046.6658	3104.4423	3599.4734	3604.86	3731.5376
NC(=O)C1COC(=O)N1	NC(=O)[C@H]1COC(=O)N1	
InChI=1S/C4H6N2O3/c5-3(7)2-1-9-4(8)6-2/h2H,1H2,(H2,5,7)(H,6,8)	InChI=1S/C4H6N2O3/c5-3(7)2-1-9-4(8)6-2/h2H,1H2,(H2,5,7)(H,6,8)/t2-/m1/s1
