21
gdb 7345	4.20779	1.04914	0.86218	3.2945	77.54	-0.2333	0.0365	0.2697	1394.8168	0.186768	-366.300969	-366.290574	-366.289629	-366.33711	35.561	
C	 0.014318397	 1.5783253034	 0.0548340485	-0.390388
C	 0.0243432782	 0.0487441546	 0.0052187082	-0.152573
C	-1.3867106134	-0.5441918176	 0.0188767684	-0.31851
C	-1.3691855468	-2.074210469	-0.0310755332	 0.422182
O	-0.3132983509	-2.6860856854	-0.0754477791	-0.380106
N	-2.5804028372	-2.7252514321	-0.0238595061	-0.087212
C	-2.6017165366	-4.1773678462	-0.071032312	-0.342561
C	-3.8806950191	-2.0898818833	 0.0259728405	-0.336163
H	 1.0324442916	 1.979298416	 0.0441958058	 0.11444
H	-0.518373934	 2.0043471828	-0.8033455266	 0.109402
H	-0.4774714629	 1.9473399991	 0.9624135201	 0.109399
H	 0.5479862882	-0.2998124278	-0.8902791027	 0.113723
H	 0.588483597	-0.3560256735	 0.8511025526	 0.113721
H	-1.921676777	-0.2125518081	 0.9186408111	 0.116488
H	-1.9624566415	-0.1558579974	-0.831688125	 0.116462
H	-3.1037122009	-4.5861198687	 0.8155442174	 0.116971
H	-3.1425903672	-4.5280415647	-0.959636977	 0.116973
H	-1.5740908127	-4.5341062843	-0.105274675	 0.169372
H	-4.4781646464	-2.3563457662	-0.8568168486	 0.124299
H	-4.4393048689	-2.4165481348	 0.9139300088	 0.12434
H	-3.7942946465	-1.0064565266	 0.0609994438	 0.13974
48.5734	76.7973	83.3948	136.2481	148.1152	161.4518	234.2097	247.9511	321.1749	336.5603	406.7666	474.7974	578.0907	617.4818	755.3536	801.9104	894.257	909.1927	982.5727	1052.5348	1081.6002	1108.307	1110.8991	1132.2904	1162.7944	1181.0228	1253.3097	1281.6703	1308.7613	1328.0551	1381.1954	1413.4382	1425.5724	1435.9391	1463.4974	1480.8782	1484.7985	1487.5571	1500.0251	1503.6314	1504.3808	1508.9029	1544.0544	1749.3396	3001.0715	3011.548	3015.1839	3025.8775	3039.6747	3047.7797	3054.6926	3058.7906	3077.0299	3102.0906	3105.1346	3171.071	3172.2629
CCCC(=O)N(C)C	CCCC(=O)N(C)C	
InChI=1S/C6H13NO/c1-4-5-6(8)7(2)3/h4-5H2,1-3H3	InChI=1S/C6H13NO/c1-4-5-6(8)7(2)3/h4-5H2,1-3H3
