19
gdb 57644	3.28461	0.97128	0.92448	5.6913	76.82	-0.2674	0.0251	0.2925	1341.3108	0.157645	-419.184747	-419.175203	-419.174259	-419.219282	35.187	
C	-0.0265353031	 1.5699993496	-0.1862618062	-0.415112
C	-0.022660476	 0.036629063	-0.0449132281	 0.204576
O	 0.5835934831	-0.3519819989	 1.1736634765	-0.454897
C	-1.4509357807	-0.5715502578	-0.1116348074	-0.177722
N	-2.1401061586	-0.2550074646	 1.133424778	-0.092372
C	-3.1880415814	 0.7648401794	 1.1056491237	-0.222884
C	-3.5327123705	-0.6754803251	 1.2479369614	-0.226746
C	 0.7707002509	-0.5476620068	-1.1474883963	 0.280585
N	 1.3573774016	-0.9873484699	-2.0399939042	-0.337761
H	 0.9952270525	 1.9455033418	-0.1018843038	 0.146045
H	-0.4400241133	 1.8834406944	-1.149577222	 0.12492
H	-0.622919089	 2.0066733983	 0.6186307831	 0.129761
H	-0.1512474852	-0.3750284463	 1.8082463266	 0.291806
H	-1.9804782894	-0.2171224912	-1.008954461	 0.107372
H	-1.3534374092	-1.6593263558	-0.1784270614	 0.1336
H	-3.2260177265	 1.4273103716	 1.9650401435	 0.129913
H	-3.4043574529	 1.2391021305	 0.1506604766	 0.124187
H	-3.9823065906	-1.1675809103	 0.388116793	 0.124316
H	-3.8239014917	-1.0812792117	 2.2119877779	 0.130412
72.2966	88.5357	123.3744	196.992	217.4776	250.2953	311.7158	337.9716	396.9158	421.9262	465.895	503.6211	589.789	595.4441	760.6058	776.7741	837.885	896.1403	913.9489	945.3711	979.9742	1034.1675	1036.24	1117.787	1127.7389	1130.7673	1156.0059	1174.8333	1191.5783	1209.2355	1296.8207	1327.5338	1369.8821	1405.0662	1424.0519	1478.9817	1486.779	1492.7787	1495.5063	1521.996	2362.3586	2991.917	3048.0923	3085.3854	3104.6322	3108.9244	3125.8565	3139.8072	3189.3062	3203.4444	3677.6639
CC(O)(CN1CC1)C#N	C[C@@](O)(CN1CC1)C#N	
InChI=1S/C6H10N2O/c1-6(9,4-7)5-8-2-3-8/h9H,2-3,5H2,1H3	InChI=1S/C6H10N2O/c1-6(9,4-7)5-8-2-3-8/h9H,2-3,5H2,1H3/t6-/m0/s1
