18
gdb 85442	2.59321	1.45585	1.08672	4.1356	72.16	-0.2437	0.0306	0.2743	1131.2576	0.147595	-439.115186	-439.10682	-439.105875	-439.148417	31.791	
C	-0.101204114	 1.5791095513	-0.0502442821	-0.391149
C	-0.006731802	 0.0514793387	 0.0431882624	-0.043066
N	 0.7456793373	-0.5287692571	-1.0607906685	-0.317855
C	 1.9987207274	-0.9986721337	-0.7632452113	 0.415743
O	 2.8006970624	-1.4373537572	-1.5557107177	-0.37682
C	 2.1773350239	-0.8410785752	 0.7512811259	-0.430378
C	 0.7965127194	-0.4602608494	 1.2513290521	 0.413476
C	 0.4656037199	-0.1259531873	 2.6369720265	-0.247563
O	 0.1294836822	-1.4059495112	 2.092252827	-0.267261
H	 0.8928078954	 2.0365927	-0.0219950836	 0.125287
H	-0.5828180263	 1.8771633437	-0.9871691421	 0.120527
H	-0.695320331	 1.9848783164	 0.7740244973	 0.123725
H	-1.012788174	-0.380336372	 0.0950987341	 0.106017
H	 0.4525268881	-0.4558701836	-2.0227230271	 0.25054
H	 2.533930427	-1.767283811	 1.2051323013	 0.149869
H	 2.9248744589	-0.0622117881	 0.9360062169	 0.135893
H	 1.251036677	-0.1277183004	 3.392093643	 0.118165
H	-0.3805609315	 0.5242954061	 2.8571655959	 0.11485
67.4402	92.7935	219.4626	247.2593	297.3001	335.9148	372.7012	461.3914	498.057	509.8658	527.3549	598.6541	683.6478	754.0222	817.0965	858.6635	909.5201	954.8534	967.5986	993.8982	1042.552	1099.0686	1124.54	1130.0862	1156.2425	1183.7233	1224.9629	1246.6561	1266.0587	1320.0485	1380.883	1407.5351	1418.5697	1440.6848	1452.8639	1493.7508	1496.3607	1535.7099	1836.587	3035.9507	3042.3966	3060.0148	3077.2471	3106.7968	3115.9215	3127.1377	3161.2944	3635.3816
CC1NC(=O)CC11CO1	C[C@H]1NC(=O)C[C@]21CO2	
InChI=1S/C6H9NO2/c1-4-6(3-9-6)2-5(8)7-4/h4H,2-3H2,1H3,(H,7,8)	InChI=1S/C6H9NO2/c1-4-6(3-9-6)2-5(8)7-4/h4H,2-3H2,1H3,(H,7,8)/t4-,6-/m1/s1
