18
gdb 18993	4.17688	2.18853	2.03183	1.7917	69.88	-0.2431	0.0872	0.3303	748.6607	0.15776	-347.770054	-347.764404	-347.76346	-347.799459	24.188	
C	-0.0198290687	 1.5179804642	-0.2086771095	-0.109837
O	 1.3600363741	 1.6244065496	 0.2148157603	-0.303794
C	 1.4513062107	 0.1964339613	 0.435947496	 0.143493
C	 1.4735185687	-0.2714065018	 1.9001492836	-0.046134
C	 0.5690259262	-1.5430246809	 1.7846550306	-0.224915
C	-0.5389454599	-0.4796764916	 1.4819299784	-0.041991
C	 0.2215904744	 0.4282735131	 2.492782531	-0.23049
C	-0.0551534828	 0.0096760817	 0.1033239768	-0.051154
H	-0.685562826	 2.1648915832	 0.3760741607	 0.099181
H	-0.1288968749	 1.7628707916	-1.2726810985	 0.098574
H	 2.2185030338	-0.2643402129	-0.1940951846	 0.071177
H	 2.4321081923	-0.283314529	 2.418448852	 0.063346
H	 0.8014090686	-2.2775518403	 1.0063582044	 0.090392
H	 0.430134133	-2.0442856086	 2.7447670212	 0.100412
H	-1.6000035435	-0.7019763923	 1.59819427	 0.061342
H	 0.0346667064	 0.1245799715	 3.524830418	 0.09438
H	 0.1519726248	 1.5130120898	 2.4016087647	 0.110872
H	-0.3426165372	-0.6505214685	-0.715780575	 0.075146
220.4381	305.0648	394.6111	475.106	552.1155	618.8424	777.2901	812.3219	847.5314	850.7818	866.1838	872.8531	903.4719	935.7505	981.2913	999.1161	1009.0416	1024.768	1039.0303	1061.6456	1065.7016	1087.1434	1101.3103	1128.4268	1167.0641	1199.3862	1221.4968	1233.7167	1241.2449	1255.1203	1289.8663	1305.1408	1335.3069	1342.1878	1361.1734	1487.904	1519.5599	1528.0455	3011.3534	3047.1906	3052.9369	3057.538	3076.5329	3100.3144	3112.0651	3116.1035	3122.433	3134.9044
C1OC2C3CC(C3)C12	C1O[C@H]2[C@@H]3C[C@@H](C3)[C@@H]12	
InChI=1S/C7H10O/c1-4-2-5(1)7-6(4)3-8-7/h4-7H,1-3H2	InChI=1S/C7H10O/c1-4-2-5(1)7-6(4)3-8-7/h4-7H,1-3H2/t4-,5+,6-,7+/m1/s1
