17
gdb 125175	3.05099	1.51145	1.03786	2.3159	77.08	-0.2077	0.0281	0.2358	1127.8663	0.137313	-418.000346	-417.992162	-417.991218	-418.033404	30.191	
C	-0.0227955078	 1.5811193225	 0.0040228044	-0.506158
C	 0.0139636891	 0.0868394439	-0.0250444175	-0.062233
C	-0.0907861339	-0.8197137718	-1.0591100181	 0.291863
C	 0.1238958078	-1.3257144781	-2.4794114167	-0.36336
C	 0.3895477217	-2.7225745143	-1.7916282425	-0.162995
N	-0.0288373797	-2.0644556669	-0.5404048406	 0.044427
N	 0.202894948	-2.0954870762	 0.7972060413	-0.400017
C	 0.1635661157	-0.7955123731	 1.0943223811	 0.377696
O	 0.2445505573	-0.3623684212	 2.3707765324	-0.423038
H	 0.785165018	 1.9852062634	 0.6226952236	 0.134263
H	 0.0833496214	 1.9959966809	-1.0022814714	 0.117858
H	-0.9629947313	 1.9621008703	 0.4207996605	 0.131574
H	-0.7425251101	-1.2930342214	-3.143794689	 0.12831
H	 0.9918707459	-0.9116874042	-2.9966350077	 0.131262
H	-0.2364479683	-3.5674827728	-2.0897854086	 0.12507
H	 1.4437676506	-3.0139277245	-1.7981816755	 0.132384
H	 0.3528227155	-1.1442424165	 2.9268243043	 0.303096
78.9082	100.3865	177.2825	221.9965	282.7507	325.6634	343.8512	430.7127	575.4394	597.8487	637.7888	658.384	727.2314	805.5086	831.6402	860.4	920.8334	1038.4761	1055.0603	1066.2324	1107.0617	1128.6337	1172.0706	1187.4502	1214.3822	1270.1461	1284.2718	1313.1244	1420.3242	1439.1355	1455.1022	1482.0054	1483.2973	1497.5103	1520.7291	1533.3925	1654.9753	3027.0671	3055.4869	3073.1523	3078.8408	3107.9644	3109.6453	3126.9841	3794.2599
CC1=C2CCN2N=C1O	Cc1c2CCn2nc1O	
InChI=1S/C6H8N2O/c1-4-5-2-3-8(5)7-6(4)9/h2-3H2,1H3,(H,7,9)	InChI=1S/C6H8N2O/c1-4-5-2-3-8(5)7-6(4)9/h2-3H2,1H3,(H,7,9)
