21
gdb 103426	2.27968	1.49911	1.28408	1.8272	77.16	-0.2467	0.0733	0.32	1124.0281	0.180905	-424.191373	-424.182114	-424.18117	-424.224766	35.862	
C	 0.1301857067	 1.5329774031	 0.1009060371	-0.398114
C	-0.0013489935	 0.017021276	-0.0945410461	-0.228053
C	-1.4328428741	-0.5203854935	-0.0150918901	 0.253195
C	-2.3549314134	 0.0387143485	-1.0990187201	-0.461424
C	-1.553008222	-2.0551949169	 0.0657338595	-0.009198
O	-0.9200939037	-2.4909382248	 1.2797540858	-0.270358
C	-2.2766977796	-2.0096651454	 1.3434843337	-0.022816
C	-2.1475523845	-0.4824993996	 1.4204823395	 0.07271
O	-1.4411397912	 0.011812871	 2.5253885039	-0.429375
H	 1.1829632115	 1.8316423812	 0.0804752311	 0.109857
H	-0.3819609877	 2.0929255289	-0.6879332879	 0.111027
H	-0.2897249492	 1.8346836612	 1.0638447328	 0.139302
H	 0.4190845689	-0.2686345328	-1.0688382616	 0.090172
H	 0.6042543933	-0.5001062633	 0.6569534454	 0.09888
H	-1.9492989775	-0.1509792773	-2.0995574799	 0.115473
H	-3.3475751949	-0.4235271836	-1.0514866339	 0.113013
H	-2.4883621237	 1.1189340492	-0.9898200454	 0.128074
H	-1.615454241	-2.7773440492	-0.7414588675	 0.101563
H	-3.0139921146	-2.6768802395	 1.7752216227	 0.106061
H	-3.1015218226	 0.0491179863	 1.3809175408	 0.087248
H	-0.7007750572	-0.5933310792	 2.6615260599	 0.292761
114.1535	123.7319	186.6679	226.5607	251.2008	271.5613	284.6397	303.6724	355.2567	459.7968	497.3405	540.7414	624.9412	659.8563	776.4122	782.4075	855.7486	864.8273	871.4895	909.3559	932.4942	1000.9019	1006.755	1022.9985	1053.9141	1070.5847	1117.3972	1160.8656	1193.0569	1203.8104	1226.1736	1266.5463	1267.9065	1294.535	1324.9967	1366.1053	1384.2534	1407.1533	1411.5256	1438.8321	1485.5583	1496.0634	1501.9712	1507.284	1514.9737	3013.8711	3025.1581	3040.4461	3068.4183	3083.5117	3089.541	3100.6949	3108.2476	3126.303	3171.8002	3188.7166	3774.35
CCC1(C)C2OC2C1O	CC[C@@]1(C)[C@H]2O[C@H]2[C@H]1O	
InChI=1S/C7H12O2/c1-3-7(2)5(8)4-6(7)9-4/h4-6,8H,3H2,1-2H3	InChI=1S/C7H12O2/c1-3-7(2)5(8)4-6(7)9-4/h4-6,8H,3H2,1-2H3/t4-,5+,6-,7+/m0/s1
