22
gdb 118014	3.34469	0.80407	0.67872	4.698	83.92	-0.2656	0.036	0.3016	1681.3505	0.191662	-404.361114	-404.34998	-404.349036	-404.398028	38.912	
C	 0.0273530997	 1.390523995	 0.0894452879	-0.230682
O	 0.0294718836	-0.0171763757	 0.09179865	-0.232085
C	-1.2623297628	-0.5702881733	-0.0155249748	-0.067896
C	-1.1373186777	-2.0974843449	-0.0017797106	 0.005332
C	-0.4262121748	-2.5705738776	 1.2724084172	-0.411233
C	-2.5335465528	-2.7646149723	-0.1610548107	-0.13714
C	-3.2990799962	-2.361697083	-1.4403093186	-0.406379
C	-2.4003601974	-4.2264228314	-0.1273795949	 0.275299
N	-2.3015574543	-5.3781758593	-0.1223985426	-0.333395
H	 1.066192696	 1.718564138	 0.1708285856	 0.131462
H	-0.402515372	 1.7970367677	-0.8398087729	 0.105316
H	-0.5430462097	 1.7996681083	 0.9382679819	 0.106183
H	-1.897043441	-0.236169842	 0.8265752011	 0.082777
H	-1.7405183461	-0.2185072643	-0.9427625092	 0.088782
H	-0.5312324019	-2.3832270028	-0.8709706835	 0.09998
H	-0.270453767	-3.6521021834	 1.2617844296	 0.141074
H	 0.5421772605	-2.0767082064	 1.3636774911	 0.140294
H	-1.0166452726	-2.3219368854	 2.1629400399	 0.110085
H	-3.1422368769	-2.4874050155	 0.7111389878	 0.123979
H	-4.213652289	-2.9511087693	-1.539977939	 0.139779
H	-3.5797527703	-1.3071367726	-1.4106905209	 0.129953
H	-2.6855475074	-2.5343840298	-2.3293178244	 0.138516
45.6804	80.2313	91.9519	127.6506	185.7978	210.0646	214.7546	230.6279	264.2736	281.6752	345.2174	388.462	421.3439	451.0262	574.7298	603.774	805.5454	868.4269	929.9033	939.0176	983.5664	994.7764	1051.3196	1105.3345	1122.0466	1157.765	1170.6615	1186.6069	1191.9477	1225.9617	1259.7155	1293.5086	1323.1727	1354.9995	1367.288	1406.3857	1414.6934	1428.8173	1480.2166	1485.4608	1492.3067	1496.5567	1501.1876	1503.3939	1505.0337	1529.1362	2354.5205	2932.6436	2970.7013	2991.8177	3012.8251	3015.0069	3031.365	3041.2798	3052.6516	3110.5743	3117.9088	3126.0261	3134.7057	3145.8906
COCC(C)C(C)C#N	COC[C@@H](C)[C@@H](C)C#N	
InChI=1S/C7H13NO/c1-6(4-8)7(2)5-9-3/h6-7H,5H2,1-3H3	InChI=1S/C7H13NO/c1-6(4-8)7(2)5-9-3/h6-7H,5H2,1-3H3/t6-,7+/m0/s1
