15
gdb 28697	3.70438	1.04304	0.84736	1.7988	72.92	-0.2029	0.0371	0.24	1294.7867	0.112997	-416.816613	-416.808332	-416.807387	-416.850109	30.863	
O	 0.4705287264	 1.2134471238	 0.2876236547	-0.42465
C	 0.1481579067	-0.0678727792	 0.0435256305	 0.445062
N	-0.4466618859	-0.5397326825	-1.0175784672	-0.364977
C	-0.5261493258	-1.9061464132	-0.787136408	-0.183602
C	 0.01981415	-2.2349663028	 0.4187950834	 0.313393
C	 0.1422068475	-3.5308092545	 1.1638508323	-0.468366
C	 1.4340131887	-3.693309854	 1.8312219014	 0.288686
C	 2.4889704384	-3.7826132556	 2.4002301097	-0.447558
N	 0.4470095135	-1.0233539873	 0.9590241042	-0.354757
H	 0.1836445677	 1.7132857609	-0.4870363131	 0.314411
H	-0.9802856975	-2.5682328307	-1.5086380145	 0.107607
H	-0.6535962982	-3.6256385648	 1.9181239586	 0.145137
H	-0.0188523865	-4.3507585977	 0.4547842331	 0.152716
H	 3.4254835224	-3.8858851169	 2.8903397951	 0.202049
H	 0.9864809726	-0.9030358854	 1.8002627699	 0.274848
45.3731	96.3766	204.6744	273.1755	335.6965	341.0803	412.8093	445.0474	468.598	497.3101	626.628	634.0759	653.7513	692.0848	727.9852	767.6799	829.7971	937.1871	951.1159	1008.372	1050.1358	1153.0655	1200.762	1208.1967	1242.33	1287.2522	1337.9138	1398.545	1462.2388	1555.0465	1603.5506	1639.4524	2237.8675	2989.9369	3062.2197	3249.565	3504.168	3664.0714	3804.9333
OC1=NC=C(CC#C)N1	Oc1ncc(CC#C)[nH]1	
InChI=1S/C6H6N2O/c1-2-3-5-4-7-6(9)8-5/h1,4H,3H2,(H2,7,8,9)	InChI=1S/C6H6N2O/c1-2-3-5-4-7-6(9)8-5/h1,4H,3H2,(H2,7,8,9)
