17
gdb 83126	2.07087	1.85591	1.47021	3.8421	67.73	-0.2566	0.0005	0.2571	983.7854	0.135818	-458.992832	-458.984558	-458.983614	-459.025437	31.151	
C	-0.0722381279	 1.5412457339	-0.0290063343	-0.48262
C	 0.0458702973	 0.0405451076	 0.0417169405	 0.097356
C	-0.7893436077	-0.801133233	 1.0029258418	 0.102554
O	-1.5154438509	-1.9347184711	 0.6525816827	-0.425749
C	 0.6979140685	-0.7821966448	 1.1569171652	-0.176231
C	 1.4138635842	-1.922199826	 0.4576394022	-0.12389
O	 0.9703393103	-1.8979868407	-0.9145640933	-0.247565
C	 0.377515376	-0.6929681919	-1.2197158453	 0.40029
O	 0.1663498862	-0.3610124074	-2.3488669302	-0.336565
H	 0.8872154479	 2.0070193439	-0.2767309455	 0.129721
H	-0.7898813048	 1.8229667288	-0.8047348474	 0.150777
H	-0.4132679768	 1.9536701079	 0.92465887	 0.119385
H	-1.3591675239	-0.2154717936	 1.716903473	 0.12005
H	-1.0746877558	-2.3928934366	-0.0732446672	 0.303063
H	 1.1686215244	-0.3207505018	 2.0172989069	 0.106851
H	 2.50136889	-1.7982286561	 0.474945403	 0.129869
H	 1.1629103431	-2.904743529	 0.8690987879	 0.132705
125.3061	153.6115	184.643	218.8682	235.7608	259.0395	359.0186	449.5088	484.7476	548.2865	596.1487	700.4613	711.6503	802.9357	826.1944	845.975	908.925	970.3248	997.0759	1031.0112	1058.796	1091.3357	1098.9136	1123.8881	1162.2981	1226.8292	1244.1786	1299.074	1327.4571	1362.4712	1406.2043	1416.643	1465.117	1484.3241	1497.6603	1519.7919	1879.0623	3039.5974	3047.4653	3091.51	3105.4532	3120.2194	3170.5438	3181.9887	3786.772
CC12C(O)C1COC2=O	C[C@]12[C@@H](O)[C@H]1COC2=O	
InChI=1S/C6H8O3/c1-6-3(4(6)7)2-9-5(6)8/h3-4,7H,2H2,1H3	InChI=1S/C6H8O3/c1-6-3(4(6)7)2-9-5(6)8/h3-4,7H,2H2,1H3/t3-,4+,6-/m1/s1
