20
gdb 10304	2.2145	1.75103	1.24713	3.3692	75.63	-0.2338	0.0329	0.2667	1089.331	0.175667	-345.190043	-345.180226	-345.179282	-345.224536	34.754	
C	 0.2317365274	 1.9429079085	-0.2384888803	-0.388539
C	 0.2839215893	 0.4279149026	-0.0356501514	-0.196708
C	 0.6725544129	-0.3273127623	-1.3251278254	-0.106879
C	 0.8284077369	-1.7792888626	-1.0396010431	 0.270164
N	 0.9079358723	-2.9181538006	-0.8547827295	-0.334072
N	-0.2258284143	-0.0722571227	-2.4473705276	-0.043551
C	 0.3532602679	-0.4667209464	-3.7265566663	-0.330366
C	-1.5737753663	-0.6063540434	-2.2808005495	-0.337858
H	 1.2079872551	 2.3331333699	-0.5467208432	 0.116393
H	-0.491101175	 2.2121391352	-1.0118065456	 0.136344
H	-0.0495060918	 2.4448512761	 0.6916300054	 0.117838
H	 1.0234186545	 0.1701682813	 0.7301373245	 0.119289
H	-0.6757153925	 0.0548509617	 0.3362434429	 0.118179
H	 1.6621685341	 0.0356509075	-1.6301499054	 0.12148
H	 0.4944387056	-1.5572228456	-3.8255236113	 0.119083
H	-0.3037813977	-0.1349780829	-4.5357198938	 0.124718
H	 1.3253266566	 0.0186010777	-3.8588709938	 0.121095
H	-2.0319546906	-0.2162090656	-1.3690535246	 0.125527
H	-2.1865833842	-0.2797669336	-3.1255907241	 0.12531
H	-1.6029749902	-1.708611195	-2.2396646479	 0.122553
68.1297	104.648	134.4941	165.5848	199.2642	223.18	242.0498	299.1059	336.1156	362.418	419.2597	465.7058	554.251	615.2916	741.1196	844.1443	885.0886	952.3247	1008.6219	1062.8836	1073.8927	1105.646	1121.5704	1131.3213	1190.0773	1228.3922	1285.3679	1293.7573	1323.1595	1372.8875	1382.7685	1410.8303	1443.9535	1473.3207	1479.8163	1492.0108	1494.8291	1499.0256	1502.4273	1510.1626	1517.4643	2338.8976	2958.5864	2968.4901	3031.4097	3041.2824	3051.1112	3066.6511	3079.7705	3084.8613	3107.9897	3109.4974	3122.0299	3132.0476
CCC(C#N)N(C)C	CC[C@@H](C#N)N(C)C	
InChI=1S/C6H12N2/c1-4-6(5-7)8(2)3/h6H,4H2,1-3H3	InChI=1S/C6H12N2/c1-4-6(5-7)8(2)3/h6H,4H2,1-3H3/t6-/m0/s1
