19
gdb 91118	2.78848	1.81142	1.47916	2.1381	72.82	-0.2294	0.0678	0.2972	944.1233	0.162337	-423.020227	-423.013182	-423.012238	-423.051429	29.015	
O	-0.0028815956	 1.4431527288	-0.0518719948	-0.438885
C	 0.020403423	 0.0295727476	 0.0336657876	 0.146448
C	 0.6884742888	-0.5466461804	 1.3088458371	-0.278239
C	-0.0439986293	-1.8603006507	 1.554605736	-0.087405
C	-1.4601988572	-1.754715284	 2.0869440534	 0.100435
O	-1.9529418521	-0.470432391	 2.3678187285	-0.263465
C	-2.2913873858	 0.1556560889	 1.1208132567	-0.080891
C	-1.418608349	-0.5273950973	 0.053186915	-0.082163
C	-1.2507650795	-1.9471065252	 0.6191266738	-0.129064
H	 0.902857158	 1.763772967	-0.0077424291	 0.285416
H	 0.5274430027	-0.396793605	-0.8468709592	 0.064225
H	 1.7625088218	-0.7023969748	 1.1719657887	 0.08965
H	 0.5454152043	 0.1520051028	 2.1403717713	 0.117724
H	 0.5190392275	-2.7536866606	 1.8017410776	 0.08201
H	-1.8540702817	-2.5304318235	 2.7351328623	 0.093441
H	-3.3581902116	 0.0002076625	 0.9039943599	 0.088392
H	-2.0938566895	 1.2254990507	 1.2105267472	 0.128457
H	-1.8821527681	-0.4912839846	-0.9342667002	 0.077299
H	-1.5383679767	-2.8346578512	 0.0709651482	 0.086616
122.2024	241.5417	256.5713	272.8042	383.7469	489.6817	518.8564	542.1962	675.5943	735.2701	771.8787	774.0753	802.8372	814.9543	908.0118	935.0463	952.3995	986.239	991.8126	1018.2901	1033.4944	1050.9197	1081.5587	1099.7103	1115.6531	1125.1526	1160.1617	1201.2108	1218.2217	1234.5529	1272.3799	1276.0806	1291.0412	1318.771	1332.5625	1367.3916	1379.3626	1407.0542	1424.6387	1490.8117	1513.7167	2966.1607	2997.5561	3044.775	3091.442	3098.5434	3118.0896	3161.0468	3169.9407	3194.4591	3827.4555
OC1CC2C3OCC1C23	O[C@H]1C[C@H]2[C@H]3OC[C@@H]1[C@@H]23	
InChI=1S/C7H10O2/c8-5-1-3-6-4(5)2-9-7(3)6/h3-8H,1-2H2	InChI=1S/C7H10O2/c8-5-1-3-6-4(5)2-9-7(3)6/h3-8H,1-2H2/t3-,4+,5+,6-,7-/m1/s1
