25
gdb 112616	3.37807	0.85002	0.809	1.0091	89.99	-0.2417	0.0853	0.327	1615.7085	0.226666	-389.483873	-389.473114	-389.47217	-389.519674	40.156	
C	 0.0659493729	 1.5178807828	-0.121051995	-0.378397
C	 0.0275465403	 0.0040935823	 0.1119563227	-0.195493
C	-1.3800608963	-0.5753082836	 0.0675927428	 0.068472
C	-2.1301465975	-0.6168256552	-1.2953534092	-0.270064
C	-2.6387565268	-2.042174642	-0.9545878878	 0.427694
C	-2.6075482114	-3.088308952	-2.0608085304	-0.461715
C	-1.5475401696	-2.1173896162	 0.1622348119	-0.305775
O	-3.944740834	-1.8692458791	-0.4072128078	-0.289993
C	-4.5226120458	-3.0033611402	 0.1983933006	-0.247115
H	 1.0905023478	 1.9016928795	-0.0901377933	 0.109262
H	-0.3581073027	 1.7797693851	-1.0966201929	 0.118349
H	-0.5126590963	 2.0493005465	 0.6427464765	 0.113747
H	 0.6471718675	-0.5001144646	-0.6430779776	 0.085599
H	 0.4836597187	-0.2298003891	 1.083550612	 0.091999
H	-2.0062614278	-0.0840995531	 0.8196308703	 0.074275
H	-2.9165196534	 0.1190185968	-1.474037888	 0.104665
H	-1.4386975165	-0.6232514248	-2.1443207152	 0.088088
H	-1.6261117089	-3.1005837904	-2.5434850257	 0.112598
H	-2.7973500744	-4.0968527095	-1.6789355856	 0.114756
H	-3.3626831407	-2.8615420372	-2.821218228	 0.12071
H	-0.6523076989	-2.646248417	-0.1816897582	 0.090501
H	-1.8507068303	-2.5371242763	 1.1244870463	 0.095369
H	-5.435379455	-2.6639725705	 0.6953819989	 0.124036
H	-4.7944866517	-3.7792005431	-0.5312204122	 0.105912
H	-3.865016359	-3.458074989	 0.9539966349	 0.10252
50.5132	103.5851	119.1227	157.7228	188.4951	228.2966	245.6731	271.4363	320.8459	322.8639	361.1535	422.6139	450.1361	499.2854	609.0131	726.6124	782.4983	812.7776	853.7977	899.2772	911.1617	951.1764	954.0434	985.9216	1016.9819	1061.1453	1087.2034	1111.2898	1129.8245	1176.7934	1181.8944	1196.5618	1209.5458	1234.3584	1237.1389	1267.1962	1278.7319	1302.1137	1315.9491	1342.9947	1388.9508	1404.4198	1411.7248	1459.5358	1474.6662	1479.9951	1484.7345	1488.3684	1489.3801	1499.386	1503.9077	1507.2977	1512.9549	2987.1193	3004.491	3029.8464	3030.2176	3032.3439	3037.0715	3045.9603	3050.3552	3056.6523	3096.2937	3100.0921	3101.0824	3104.463	3105.9029	3110.307	3119.5567
CCC1CC(C)(C1)OC	CC[C@H]1C[C@@](C)(C1)OC	
InChI=1S/C8H16O/c1-4-7-5-8(2,6-7)9-3/h7H,4-6H2,1-3H3	InChI=1S/C8H16O/c1-4-7-5-8(2,6-7)9-3/h7H,4-6H2,1-3H3/t7-,8-
