16
gdb 47361	2.54107	1.38153	1.16478	5.055	68.5	-0.2752	-0.0097	0.2655	1086.0646	0.125853	-437.942138	-437.934221	-437.933276	-437.975254	28.992	
O	 0.0773926916	 0.0352793224	 0.6222225213	-0.312452
C	 0.0275322067	 1.1129673855	 0.0993450719	 0.419203
C	-1.3046522269	 1.8241917785	-0.1336697622	-0.348347
C	-1.2870596686	 3.0031698117	-1.1296960579	-0.171464
C	-0.0055836144	 3.8232897811	-0.8889191801	-0.239413
C	 1.2108220261	 2.9250656956	-1.0446134243	-0.070906
O	 1.176789203	 1.7609326254	-0.2013312836	-0.224927
C	-1.3585133341	 2.5388108425	-2.5199763503	 0.276166
N	-1.4032047942	 2.1773020718	-3.6168289635	-0.316748
H	-2.0354159762	 1.0621400673	-0.4082208964	 0.162285
H	-1.6056145064	 2.209483118	 0.8476837909	 0.151356
H	-2.1697054277	 3.6282952264	-0.9572118934	 0.137136
H	 0.0683424121	 4.6573092732	-1.5923558875	 0.134677
H	-0.0450370198	 4.2389770949	 0.1236584672	 0.124511
H	 1.3073880003	 2.5901135175	-2.0842959401	 0.14567
H	 2.1280701287	 3.4506919483	-0.770788582	 0.133253
64.8312	99.574	171.2537	212.7607	326.0108	387.4947	433.4227	468.7647	552.2123	594.6504	602.9475	713.6688	748.2696	830.0583	889.2301	934.2119	970.7453	1002.0433	1062.5118	1111.4952	1117.7146	1162.2432	1235.5345	1244.2226	1263.6228	1310.5928	1344.2525	1359.9384	1383.3988	1433.8939	1455.472	1481.589	1515.3777	1849.6516	2356.8828	3042.7118	3048.7834	3052.0457	3061.8072	3105.5931	3111.9772	3129.4237
O=C1CC(CCO1)C#N	O=C1C[C@@H](CCO1)C#N	
InChI=1S/C6H7NO2/c7-4-5-1-2-9-6(8)3-5/h5H,1-3H2	InChI=1S/C6H7NO2/c7-4-5-1-2-9-6(8)3-5/h5H,1-3H2/t5-/m1/s1
