18
gdb 33113	4.96338	0.74911	0.68208	1.75	76.02	-0.1837	0.04	0.2237	1616.9442	0.14762	-439.105415	-439.096074	-439.09513	-439.140269	33.832	
N	 0.0829616002	 1.3780343794	-0.1898616272	-0.593294
C	-0.0531407774	 0.0017476251	-0.0673352594	 0.396636
C	-1.1111057145	-0.8526454291	-0.1560093396	-0.384584
C	-0.5610138842	-2.1820024853	-0.0275719353	 0.273446
C	-1.3117326202	-3.4772843467	-0.0751560191	-0.307563
C	-1.8625541227	-3.7894442895	-1.467984648	-0.060533
O	-2.5758477254	-5.0138378107	-1.3844606867	-0.41927
C	 0.7755170068	-2.017319943	 0.1286918431	-0.13936
O	 1.102577927	-0.6790626541	 0.1049200241	-0.178064
H	 0.8532603882	 1.7408860922	 0.3577391061	 0.254872
H	-0.7710587127	 1.8740562809	 0.0241465565	 0.25482
H	-2.1476512595	-0.5836753255	-0.2853959746	 0.092412
H	-0.6625208005	-4.3036790736	 0.2325601497	 0.108473
H	-2.1552662834	-3.4607921431	 0.62574463	 0.112179
H	-2.5145195821	-2.9669809192	-1.8021853566	 0.087511
H	-1.0278410407	-3.8545534132	-2.1831196486	 0.090125
H	-2.9104416668	-5.2267933597	-2.2602610714	 0.285149
H	 1.5999512878	-2.6943344249	 0.2733304569	 0.127045
57.0977	87.6028	98.4052	180.343	238.6146	255.9727	288.2818	342.9762	396.5869	432.0448	614.9386	651.0374	665.9914	682.2715	732.7858	763.9257	784.1179	801.4358	965.5588	993.9095	1012.9226	1055.9886	1077.5768	1090.792	1145.479	1192.3585	1214.9184	1237.8636	1263.5519	1306.7893	1329.7317	1349.2784	1454.047	1457.1036	1487.7167	1526.0152	1605.2528	1635.697	1672.5212	2971.9217	3000.7757	3033.8698	3082.2986	3251.9187	3284.768	3544.5861	3645.8724	3832.0377
NC1=CC(CCO)=CO1	Nc1cc(CCO)co1	
InChI=1S/C6H9NO2/c7-6-3-5(1-2-8)4-9-6/h3-4,8H,1-2,7H2	InChI=1S/C6H9NO2/c7-6-3-5(1-2-8)4-9-6/h3-4,8H,1-2,7H2
