21
gdb 56666	2.49057	1.27562	1.11419	2.0452	83.92	-0.2407	0.0507	0.2913	1226.4214	0.179706	-387.046423	-387.036408	-387.035463	-387.081177	37.398	
C	-1.6265824724	-0.0538764011	 0.2256468897	-0.404432
C	-0.1052482323	 0.0824637544	 0.0069217882	-0.204819
C	 0.2647165524	 1.4759493731	-0.2338394932	 0.337701
C	 0.5381663922	 2.6308969602	-0.4252692437	-0.463988
C	 0.7253053414	-0.5342020361	 1.160972534	 0.439196
C	 0.5362870723	 0.1700123925	 2.4965669616	-0.443989
C	 0.6886719445	-2.0859430434	 1.2087668381	-0.335873
C	 2.1848637989	-1.9959460481	 0.8579303647	-0.070942
O	 2.1332831274	-0.5580031722	 0.7902135119	-0.318571
H	-1.9631839184	 0.5659614497	 1.0601985918	 0.131788
H	-2.1665685489	 0.2682928858	-0.6679840809	 0.129777
H	-1.8973185923	-1.0938369036	 0.4333145003	 0.116205
H	 0.1638346828	-0.4930449442	-0.8888484888	 0.103175
H	 0.797697437	 3.6450461599	-0.6027047075	 0.192943
H	-0.4958550399	 0.0814248404	 2.8509864867	 0.115255
H	 1.1946624264	-0.2751261096	 3.2474707537	 0.116586
H	 0.7832139824	 1.2309845331	 2.4044809111	 0.140466
H	 0.4519360364	-2.5147135883	 2.1838445906	 0.107859
H	 0.0623967633	-2.5575463505	 0.4489008973	 0.107187
H	 2.874771171	-2.3449924241	 1.6361803248	 0.101893
H	 2.4820644757	-2.4419249977	-0.0988201505	 0.102584
64.6886	90.5845	135.0654	200.7716	213.7112	232.4216	255.3398	313.1438	346.3192	383.952	437.5497	500.7016	553.916	622.6356	635.9259	704.1218	785.9794	823.6067	873.192	897.8043	926.7326	963.3954	996.3107	1019.9355	1035.5384	1069.3144	1113.8338	1154.847	1163.2426	1191.8305	1210.4568	1261.2518	1276.3496	1314.5854	1346.7273	1358.408	1405.0144	1409.7542	1481.7039	1489.4931	1489.8926	1495.4356	1505.0245	1533.8065	2233.5288	3015.3573	3015.8502	3040.7125	3045.8894	3052.5344	3074.9359	3111.0032	3117.5803	3125.8121	3128.7509	3130.6116	3504.7413
CC(C#C)C1(C)CCO1	C[C@@H](C#C)[C@@]1(C)CCO1	
InChI=1S/C8H12O/c1-4-7(2)8(3)5-6-9-8/h1,7H,5-6H2,2-3H3	InChI=1S/C8H12O/c1-4-7(2)8(3)5-6-9-8/h1,7H,5-6H2,2-3H3/t7-,8+/m0/s1
