15
gdb 23257	3.13959	1.45281	1.10649	2.1892	70.95	-0.2374	-0.0723	0.1651	1056.4836	0.112831	-453.887512	-453.87998	-453.879036	-453.919742	28.596	
O	-0.0762400096	 1.3388870249	-0.2232217382	-0.346058
N	 0.0371355936	-0.0293659302	-0.0861333844	-0.206532
C	-1.0797194268	-0.6307866207	 0.0635057716	 0.246452
C	-1.1535918966	-2.1382659699	 0.1855982039	-0.239095
N	-2.5263931306	-2.4774104861	 0.63482372	-0.101786
C	-2.8783513352	-1.8391297232	 1.8923538443	-0.245507
C	-3.3303484757	-1.233605646	 0.5982538853	-0.140674
C	-2.4913370736	-0.0861325975	 0.1233255882	 0.365423
O	-2.87938117	 1.0120271566	-0.1871035502	-0.312659
H	 0.8438424158	 1.6140181799	-0.3148129932	 0.316627
H	-0.9982567869	-2.607866515	-0.7924145107	 0.13875
H	-0.414121135	-2.5519827261	 0.8761817754	 0.136241
H	-3.6093060851	-2.3688050072	 2.4953359323	 0.136979
H	-2.1025319817	-1.3229065695	 2.4558655108	 0.129612
H	-4.3675688827	-1.2895872	 0.2880946249	 0.122227
68.8992	202.9606	212.9424	275.2756	340.7045	385.6464	432.1369	476.8054	531.225	615.2815	690.0147	709.8784	778.2908	790.1711	868.533	936.7275	983.9807	1004.6536	1033.5927	1072.3465	1106.5941	1139.5495	1158.0541	1216.2241	1224.154	1262.6041	1310.4992	1347.0988	1421.5286	1482.0052	1502.9809	1705.2196	1825.3453	3042.2492	3097.3531	3099.4625	3182.6063	3196.9529	3796.528
ON=C1CN2CC2C1=O	ON=C1CN2C[C@H]2C1=O	
InChI=1S/C5H6N2O2/c8-5-3(6-9)1-7-2-4(5)7/h4,9H,1-2H2	InChI=1S/C5H6N2O2/c8-5-3(6-9)1-7-2-4(5)7/h4,9H,1-2H2/t4-,7?/m0/s1
