16
gdb 87617	2.7584	1.539	1.14967	2.2743	71.82	-0.2074	-0.0036	0.2038	1052.7461	0.124543	-437.911965	-437.903936	-437.902992	-437.9444	30.701	
O	-0.1218410825	 1.4365923668	-0.0290343409	-0.421124
C	-0.0677031073	 0.044096309	 0.0079945498	 0.074885
C	-0.4816401005	-0.6832782112	 1.2404644321	-0.359315
C	-1.4106289446	-0.6617103007	 0.0232406352	 0.185229
C	-2.7247503287	 0.0129912559	-0.0517324014	-0.254538
C	-3.5298846279	-0.7622165312	-0.7915624353	-0.032494
N	-2.8574602116	-1.9182216408	-1.2233609579	-0.358164
C	-1.5500463818	-1.9341908371	-0.7730941435	 0.379825
O	-0.7154848177	-2.7912058543	-0.9793051494	-0.397153
H	 0.6164285268	 1.7740762737	 0.4893723942	 0.293373
H	 0.6870458603	-0.4239475864	-0.6236042365	 0.114933
H	-0.014611568	-1.6379861805	 1.458287403	 0.140363
H	-0.7988849481	-0.0905292628	 2.0912046398	 0.122879
H	-2.9658678669	 0.967098111	 0.3869129049	 0.119234
H	-4.5597422203	-0.6076768511	-1.0774653386	 0.13128
H	-3.2476755512	-2.6504872702	-1.7918547954	 0.260787
113.1262	143.6758	191.0872	240.748	262.4483	338.2202	436.6622	455.0327	523.7284	570.2537	627.9893	699.401	728.4958	746.3493	831.429	845.2242	874.7978	906.461	940.2227	1027.1718	1045.5061	1064.1516	1079.1664	1130.4675	1164.1382	1187.3897	1263.1585	1289.5302	1320.3352	1380.1005	1405.2966	1421.5768	1470.9091	1647.7221	1819.7564	3112.3323	3132.4975	3233.6686	3244.02	3275.7991	3672.1999	3805.6401
OC1CC11C=CNC1=O	O[C@H]1C[C@]21C=CNC2=O	
InChI=1S/C6H7NO2/c8-4-3-6(4)1-2-7-5(6)9/h1-2,4,8H,3H2,(H,7,9)	InChI=1S/C6H7NO2/c8-4-3-6(4)1-2-7-5(6)9/h1-2,4,8H,3H2,(H,7,9)/t4-,6-/m0/s1
