23
gdb 113440	3.45042	0.9119	0.83303	1.7264	86.65	-0.2525	0.0767	0.3293	1530.3665	0.204057	-388.27604	-388.266181	-388.265237	-388.311227	36.974	
C	-0.0503214647	 1.3259002955	-0.0583941185	-0.374047
C	 0.4368648199	-0.117608395	-0.2349267755	-0.207699
C	 1.1057192827	-0.6485443034	 1.0086459273	-0.035507
O	 0.2411709773	-0.9730183046	 2.1149046913	-0.299734
C	 0.955990989	-2.0260292839	 1.4897104997	 0.459594
C	 0.3144186394	-3.2367805564	 0.8055176968	-0.329255
C	 1.5566155126	-4.078655037	 1.2475021852	 0.029779
C	 2.5500411977	-4.3691974493	 0.1276670588	-0.390679
C	 1.9794144947	-2.9137405535	 2.2012824744	-0.332465
H	 0.7827622315	 2.0010319932	 0.1660286924	 0.114275
H	-0.5418335307	 1.691080444	-0.9649443317	 0.112035
H	-0.7646231839	 1.3893819564	 0.7677206279	 0.134752
H	-0.4069627165	-0.767069089	-0.4912853108	 0.104446
H	 1.1502049287	-0.1745874529	-1.0681012756	 0.096736
H	 2.0085267641	-0.110799426	 1.311772516	 0.082331
H	-0.609104709	-3.5395258411	 1.3072484911	 0.110619
H	 0.124621529	-3.1680307711	-0.2696701257	 0.099976
H	 1.300943322	-5.0056750108	 1.7666701477	 0.072053
H	 2.820095307	-3.4523429972	-0.4095044049	 0.113722
H	 3.4737354661	-4.8070157372	 0.5214921412	 0.114911
H	 2.1306242089	-5.0697974782	-0.6026246339	 0.114597
H	 3.0269401664	-2.6002560753	 2.1668188891	 0.098824
H	 1.697963568	-3.0920895174	 3.2431610579	 0.110736
46.1427	77.7794	138.9283	163.9313	238.0802	244.7911	277.8353	317.3985	351.3419	403.064	458.0819	496.2929	579.7591	758.1767	783.5596	815.9119	831.5435	850.0776	887.51	925.1127	932.0798	958.2124	1016.4682	1033.6232	1043.0968	1081.9087	1114.5178	1135.5157	1153.5484	1162.9156	1184.3521	1212.4587	1228.9978	1264.647	1280.03	1292.8218	1338.5591	1361.7479	1373.6944	1407.1665	1410.3351	1463.7804	1472.9638	1481.9315	1496.1407	1497.3228	1497.455	1505.1303	1517.3926	3022.0687	3023.0136	3035.9307	3048.9195	3051.9784	3063.1638	3065.8071	3078.4347	3091.8296	3093.9673	3103.6103	3105.1159	3106.055	3116.7046
CCC1OC11CC(C)C1	CC[C@H]1O[C@]21C[C@@H](C)C2	
InChI=1S/C8H14O/c1-3-7-8(9-7)4-6(2)5-8/h6-7H,3-5H2,1-2H3	InChI=1S/C8H14O/c1-3-7-8(9-7)4-6(2)5-8/h6-7H,3-5H2,1-2H3/t6-,7-,8-/m1/s1
