18
gdb 85499	2.37956	1.34924	0.97053	3.9646	73.75	-0.2508	-0.0347	0.2161	1218.8305	0.14712	-439.143827	-439.135095	-439.134151	-439.177919	31.83	
C	 0.1400779375	 1.6935368961	-0.0067327248	-0.384313
C	 0.0140231232	 0.1664203636	 0.0425669843	-0.002371
C	 0.6499121929	-0.5228670881	-1.1780520182	-0.334598
C	 2.0724264009	-0.8689437597	-0.7284342883	 0.38487
O	 3.0095519495	-1.1127864771	-1.437903848	-0.295391
C	 2.1000253908	-0.8434337796	 0.8024142816	-0.27598
N	 0.7612181558	-0.4179240543	 1.1704274649	-0.049252
C	 0.2125104961	-0.7411234075	 2.370412288	 0.139592
O	 0.8031990424	-1.2978172308	 3.2722495728	-0.334705
H	 1.1843137981	 2.000514644	-0.1303759786	 0.128316
H	-0.4331362793	 2.0975271839	-0.8472836661	 0.125985
H	-0.2379223505	 2.1426378419	 0.9158635917	 0.129852
H	-1.0403979174	-0.1043212114	 0.15152042	 0.100029
H	 0.1391348701	-1.4657758195	-1.408300398	 0.14315
H	 0.660410424	 0.0829818197	-2.0856077907	 0.138786
H	 2.3226984474	-1.8303514078	 1.2209041389	 0.165082
H	 2.8852373496	-0.1604108229	 1.1505265964	 0.147629
H	-0.8523543011	-0.4391292003	 2.4349473139	 0.073318
57.9556	82.9352	145.8044	206.3872	245.0495	318.1435	335.1528	423.6517	460.1649	470.8878	521.1898	624.3721	715.9828	766.1616	823.519	868.0976	917.2458	949.892	1020.5158	1032.8606	1096.9123	1100.8028	1151.1554	1163.5622	1215.037	1220.4369	1260.8852	1302.8609	1323.5881	1369.4512	1409.9529	1422.6364	1438.5557	1451.3273	1479.8585	1493.2492	1494.8162	1791.5402	1864.0058	2929.4913	3031.251	3035.6653	3045.7896	3064.0869	3082.833	3107.8436	3118.122	3126.6194
CC1CC(=O)CN1C=O	C[C@H]1CC(=O)CN1C=O	
InChI=1S/C6H9NO2/c1-5-2-6(9)3-7(5)4-8/h4-5H,2-3H2,1H3	InChI=1S/C6H9NO2/c1-5-2-6(9)3-7(5)4-8/h4-5H,2-3H2,1H3/t5-/m0/s1
