23
gdb 115497	3.91453	0.84973	0.80781	1.6387	83.26	-0.2413	0.0865	0.3278	1568.652	0.204931	-425.429764	-425.419665	-425.418721	-425.465703	36.403	
C	-0.3982522521	 1.5691607094	-0.24845173	-0.382244
C	-0.1085894457	 0.0762591498	-0.0705192589	-0.185907
C	-1.3690576337	-0.7616499146	 0.0974938273	 0.163572
C	-1.146490753	-2.2615254624	 0.3158259315	-0.259586
C	-2.4426540674	-2.6815415906	 1.0117141483	 0.087305
C	-2.7854238226	-1.4220584222	 1.8391901367	-0.079999
O	-2.0606441042	-0.3337600093	 1.2774639904	-0.279886
O	-3.4012025812	-2.9480958848	-0.0010454996	-0.247715
C	-4.5689682059	-3.5834353866	 0.4628172315	-0.237509
H	 0.5281933068	 2.1421115336	-0.3526196098	 0.106518
H	-1.0050550461	 1.7491968428	-1.1429348237	 0.111017
H	-0.9484190267	 1.9574628159	 0.6124497405	 0.135558
H	 0.4438320468	-0.3066790948	-0.9380970501	 0.092684
H	 0.5288407948	-0.0804182878	 0.8088270108	 0.094714
H	-2.0244202257	-0.6182152866	-0.7776321288	 0.072796
H	-0.9906718031	-2.8239355184	-0.606383978	 0.111867
H	-0.2914846719	-2.4198438135	 0.9822775513	 0.099052
H	-2.3228850126	-3.5696063862	 1.6490393895	 0.064317
H	-3.8635175226	-1.2170185853	 1.8081929632	 0.099238
H	-2.4914296928	-1.5373315196	 2.8908616698	 0.095502
H	-5.200729233	-3.7742116774	-0.4081546427	 0.129001
H	-4.3392237081	-4.5430215331	 0.9530619702	 0.103721
H	-5.1355836599	-2.9638258083	 1.1741675406	 0.105984
46.1065	70.0898	105.723	130.2691	181.5235	210.7481	238.4021	309.381	338.8588	392.4931	454.2992	487.9555	625.4879	767.3415	771.7632	833.2518	866.9246	898.6102	938.4463	964.436	968.8153	1039.1025	1050.1433	1082.3071	1120.8776	1135.9773	1147.7325	1158.9495	1183.2159	1198.1243	1213.5061	1259.2365	1270.9076	1300.0037	1309.6712	1343.3898	1359.9863	1378.8745	1401.5627	1408.798	1410.8333	1468.0176	1475.2569	1480.1561	1490.4784	1497.284	1508.2936	1509.2241	1512.5472	2964.1194	2972.319	2994.448	3010.2128	3020.7723	3021.4293	3035.8606	3042.1182	3054.1539	3060.1788	3100.3688	3113.5161	3123.6041	3125.9659
CCC1CC(CO1)OC	CC[C@H]1C[C@@H](CO1)OC	
InChI=1S/C7H14O2/c1-3-6-4-7(8-2)5-9-6/h6-7H,3-5H2,1-2H3	InChI=1S/C7H14O2/c1-3-6-4-7(8-2)5-9-6/h6-7H,3-5H2,1-2H3/t6-,7-/m0/s1
