16
gdb 105166	2.33463	1.36958	1.01627	1.8504	73.47	-0.2634	-0.0496	0.2138	1167.6433	0.121827	-437.826015	-437.816779	-437.815835	-437.860226	33.332	
O	 0.7506374013	 0.6126185377	 0.2997375622	-0.418475
C	-0.1597460746	 0.2236548281	-0.7140371717	-0.156578
C	-1.4248076772	-0.3596382241	-0.1134810689	 0.194493
N	-2.1215293331	-1.4058185843	-0.8613747889	-0.35857
C	-1.4337621015	-1.7983247484	 0.3745589552	-0.280106
C	-0.2479224745	-2.6041197113	 0.2838979455	 0.348086
C	 0.7676303011	-3.248354934	 0.2506371513	-0.402068
C	-2.2708337411	 0.5583322705	 0.7109660466	 0.097553
O	-3.4242587852	 0.3161394297	 0.9829862771	-0.274957
H	 1.0816314653	-0.1963087785	 0.7072060908	 0.293312
H	-0.3958265565	 1.1315571028	-1.2795539345	 0.118929
H	 0.2697030907	-0.5026305054	-1.4137003622	 0.124983
H	-3.1180422517	-1.3200719093	-0.6509237014	 0.255124
H	-2.0584688758	-1.9811696849	 1.2457714815	 0.136334
H	 1.6477530448	-3.8419470625	 0.2070043813	 0.209853
H	-1.766676332	 1.481176674	 1.0578549362	 0.112088
72.4302	109.3202	139.9827	163.0867	207.0358	280.5828	310.1019	331.2727	406.4486	462.6251	506.0131	564.5199	635.6583	668.6289	720.7179	757.732	813.0066	895.34	971.8756	992.1899	1020.8214	1057.2588	1084.7953	1114.3007	1182.3975	1236.8546	1289.1558	1334.229	1384.2653	1416.5006	1421.0834	1438.239	1501.67	1796.2514	2234.0789	2952.0837	3036.5132	3083.3333	3140.8092	3448.357	3498.9261	3795.26
OCC1(NC1C#C)C=O	OC[C@]1(N[C@H]1C#C)C=O	
InChI=1S/C6H7NO2/c1-2-5-6(3-8,4-9)7-5/h1,3,5,7,9H,4H2	InChI=1S/C6H7NO2/c1-2-5-6(3-8,4-9)7-5/h1,3,5,7,9H,4H2/t5-,6+/m0/s1
