22
gdb 123112	6.84251	0.44845	0.42821	2.5441	80.98	-0.2448	0.0342	0.279	2510.4691	0.191683	-441.515332	-441.503756	-441.502812	-441.554506	39.031	
C	-0.0233152409	 1.3862446253	 0.0775512466	-0.226774
O	-0.0479568899	-0.0176957292	 0.0080973577	-0.231485
C	 0.6637368391	-0.5254459671	-1.100046897	-0.050516
C	 0.5713833783	-2.0452053374	-1.0856355005	-0.205853
C	 1.31966015	-2.6889368607	-2.2554685971	-0.168344
C	 1.228171445	-4.2156839193	-2.2479342805	-0.317671
C	 1.8610314845	-4.8455827968	-3.4883855543	 0.407277
N	 2.2224933888	-6.1561205302	-3.3424707458	-0.522937
O	 2.0296027571	-4.2398328673	-4.5287378368	-0.356713
H	 1.0035326868	 1.7747645951	 0.1744673067	 0.101183
H	-0.4787428103	 1.8495561871	-0.8126861745	 0.10198
H	-0.596057788	 1.6823684483	 0.9600887817	 0.124177
H	 0.2468144313	-0.1248880503	-2.0408995676	 0.085582
H	 1.7196459137	-0.2040711344	-1.057593786	 0.082896
H	 0.9683916521	-2.4079222138	-0.1291997817	 0.100932
H	-0.4881093758	-2.3294037429	-1.1102841619	 0.102987
H	 0.9286942433	-2.3260350327	-3.2114046598	 0.124462
H	 2.3758299203	-2.3929791026	-2.2330438681	 0.104246
H	 1.6862404207	-4.6318630978	-1.3419491397	 0.104411
H	 0.1739642297	-4.5265124896	-2.2252405826	 0.125508
H	 1.9989607797	-6.6827958957	-2.5164825716	 0.255857
H	 2.5418963145	-6.6524255379	-4.1583496172	 0.258797
24.2279	47.4872	77.1539	84.9946	121.0207	141.5182	174.4384	202.1352	236.116	257.3446	360.0546	473.1209	480.2796	516.5542	618.927	657.6254	743.5571	809.7032	854.8772	930.5852	977.8165	1045.7584	1054.1128	1077.0851	1104.7417	1125.1274	1165.5078	1178.3933	1215.1475	1218.5505	1249.3202	1277.1643	1304.9777	1313.4246	1324.6634	1375.1385	1409.5114	1429.2127	1464.8817	1482.02	1485.162	1488.6633	1501.1212	1508.6163	1533.0039	1617.0958	1798.2956	2940.2893	2965.7202	2966.5654	3006.2808	3012.8841	3023.5961	3036.807	3050.9977	3060.9333	3092.3313	3109.5891	3600.2071	3736.5754
COCCCCC(N)=O	COCCCCC(=O)N	
InChI=1S/C6H13NO2/c1-9-5-3-2-4-6(7)8/h2-5H2,1H3,(H2,7,8)	InChI=1S/C6H13NO2/c1-9-5-3-2-4-6(7)8/h2-5H2,1H3,(H2,7,8)
