15
gdb 31202	2.2474	1.59242	0.94391	8.0471	76.68	-0.2072	0.0056	0.2128	1178.1744	0.114734	-413.036046	-413.02766	-413.026716	-413.069646	29.984	
C	-0.0007047096	 1.4280718366	 0.1643919611	-0.346973
N	-0.0429017666	 0.0414441454	-0.2700989459	-0.398333
C	-1.174191998	-0.7135982135	-0.104383621	 0.348555
C	-1.3467394276	-2.0888978049	 0.0016301791	 0.096768
N	-2.6973167251	-2.4000051854	 0.0823463449	-0.301435
C	-3.3193240685	-1.2606790795	 0.0358582152	-0.002723
N	-2.4409644708	-0.1960456004	-0.0742376444	-0.315684
C	-0.2959386934	-3.0308713603	 0.0310302369	 0.198908
N	 0.6212987036	-3.7414742336	 0.0548334543	-0.372138
H	 1.008894292	 1.8116864687	 0.0087121968	 0.149982
H	-0.6733682729	 2.0424205856	-0.445579023	 0.131285
H	-0.2671371219	 1.5630691378	 1.223116305	 0.130517
H	 0.8023111287	-0.4868840522	-0.1088324326	 0.269234
H	-4.3868898881	-1.1109235949	 0.0828420854	 0.139643
H	-2.6852652217	 0.7769306605	-0.1478817217	 0.272395
60.409	118.3113	159.9978	173.8469	230.2275	310.4682	411.6816	479.1824	518.6298	540.2693	572.009	636.4213	662.1831	738.961	755.5803	784.9663	950.0881	1045.9531	1091.9565	1128.4657	1152.0507	1193.4136	1279.1027	1304.1998	1372.8398	1445.8086	1464.9032	1490.3425	1514.3585	1517.1709	1561.3974	1646.4845	2325.9439	2993.557	3059.1047	3133.8478	3261.3675	3606.9968	3670.058
CNC1=C(N=CN1)C#N	CNc1c(nc[nH]1)C#N	
InChI=1S/C5H6N4/c1-7-5-4(2-6)8-3-9-5/h3,7H,1H3,(H,8,9)	InChI=1S/C5H6N4/c1-7-5-4(2-6)8-3-9-5/h3,7H,1H3,(H,8,9)
