17
gdb 41545	4.21443	1.55837	1.46066	2.1509	69.77	-0.2309	0.0706	0.3015	910.9685	0.138367	-421.738061	-421.732029	-421.731085	-421.768392	25.189	
C	-0.0047238712	 1.5029859737	 0.3241532358	-0.089697
O	 1.3288075827	 1.6581172148	-0.2142542645	-0.302751
C	 1.4381830129	 0.2358928096	-0.4812231123	 0.09867
C	-0.0296088532	 0.0005152799	-0.0300383868	-0.107925
C	-0.6482804252	-0.404068939	-1.3561981972	-0.053678
C	 0.0207975609	 0.3837460243	-2.5247077439	 0.053953
O	-0.0901907632	-0.7820074742	-3.4162184064	-0.31619
C	 0.3600791889	-1.3174110416	-2.1292482307	 0.038727
C	 1.3696027633	-0.1322327418	-1.9494633841	-0.055913
H	-0.0295893073	 1.7183465342	 1.399440192	 0.103516
H	-0.7354786417	 2.1424764564	-0.1859239655	 0.103127
H	 2.2602084154	-0.2215587483	 0.0781236296	 0.079407
H	-0.2271214252	-0.6923708252	 0.788700217	 0.082715
H	-1.710350007	-0.630626971	-1.4377054491	 0.083754
H	-0.2206684448	 1.3640887005	-2.9327297285	 0.101735
H	 0.5264838268	-2.3925606386	-2.0538191509	 0.094786
H	 2.2521158879	-0.0971137636	-2.5855505046	 0.085764
156.1692	213.0253	355.6353	492.228	498.8328	652.3812	708.8974	767.6737	777.9978	839.89	868.3811	881.7753	887.4113	911.9601	933.0574	957.1163	976.1436	1002.0856	1009.2961	1020.7525	1061.5696	1075.6613	1124.6282	1153.972	1160.7141	1167.8089	1182.9001	1201.3504	1221.4866	1252.5258	1268.6853	1275.4751	1324.7043	1340.7364	1353.2931	1373.7459	1523.8362	3014.3502	3057.5451	3058.7403	3104.4308	3111.2303	3127.9484	3139.2222	3148.7574
C1OC2C1C1C3OC1C23	C1O[C@H]2[C@@H]1[C@H]1[C@@H]3O[C@H]1[C@H]23	
InChI=1S/C7H8O2/c1-2-3-6-4(5(2)8-1)7(3)9-6/h2-7H,1H2	InChI=1S/C7H8O2/c1-2-3-6-4(5(2)8-1)7(3)9-6/h2-7H,1H2/t2-,3-,4+,5-,6-,7+/m0/s1
