20
gdb 120464	3.59571	0.90532	0.78953	2.6377	79.02	-0.2294	0.0275	0.2569	1525.1959	0.169363	-440.299512	-440.289407	-440.288462	-440.335512	34.878	
C	 0.0492181476	 1.5003383449	 0.0133714974	-0.386722
C	 0.2790812003	 0.0002060847	 0.0444846523	-0.048688
O	 0.3817944561	-0.4606916799	-1.3016600361	-0.256336
C	 0.6077176749	-1.8341960077	-1.39539739	-0.010578
C	 0.8531524663	-2.3211304724	-2.8490943311	-0.208082
N	 2.1657241061	-2.7971427206	-2.4027520469	-0.077647
C	 3.2494269373	-3.435090235	-3.1017950367	-0.344071
C	 2.0622571062	-2.3303646799	-1.1177036301	 0.389425
O	 2.8345983412	-2.3189335989	-0.1917359524	-0.382545
H	 0.8877719153	 2.0073005404	-0.4722517256	 0.128866
H	-0.8639172462	 1.7397738756	-0.5392514822	 0.123862
H	-0.0479566946	 1.8890205264	 1.0313543917	 0.117898
H	 1.1948122556	-0.2500130976	 0.5954450961	 0.128024
H	-0.5590478092	-0.5130161216	 0.5448110902	 0.087089
H	-0.1523548125	-2.4122698652	-0.8481484475	 0.087043
H	 0.1864829632	-3.1088464884	-3.2160013115	 0.109266
H	 0.8963239792	-1.4973015988	-3.5690881574	 0.121798
H	 3.6119477092	-2.8175782683	-3.9331184074	 0.130324
H	 4.0644760366	-3.578195968	-2.3881982337	 0.162071
H	 2.9507952572	-4.4121710996	-3.5006281093	 0.129004
53.86	79.7408	100.3331	133.765	156.7619	201.9468	241.6731	246.2254	279.5912	369.8132	434.4128	526.4466	651.6398	773.5214	813.8862	827.0119	858.4509	921.0111	984.9145	1032.6707	1070.9646	1082.0269	1125.7711	1150.7747	1169.4713	1188.0849	1193.9367	1217.2317	1256.2695	1297.3463	1301.4679	1365.7347	1403.1361	1417.5455	1441.9416	1448.226	1482.1741	1483.6709	1500.6519	1508.0569	1528.2472	1531.4755	1866.5817	2968.5463	2992.6409	3013.9476	3036.0958	3043.0464	3045.3888	3065.1754	3087.2222	3120.167	3122.077	3128.9623
CCOC1CN(C)C1=O	CCO[C@H]1CN(C)C1=O	
InChI=1S/C6H11NO2/c1-3-9-5-4-7(2)6(5)8/h5H,3-4H2,1-2H3	InChI=1S/C6H11NO2/c1-3-9-5-4-7(2)6(5)8/h5H,3-4H2,1-2H3/t5-/m0/s1
