21
gdb 59737	2.48047	1.32908	0.91501	1.7492	78.54	-0.2401	-0.0253	0.2148	1306.3581	0.181538	-424.254516	-424.245147	-424.244203	-424.28884	34.935	
C	 0.0029957911	 1.5599230506	-0.0091472104	-0.398039
C	 0.068598697	 0.0286380573	 0.1032050252	 0.023844
C	 0.7323915241	-0.3852873736	 1.4247681866	-0.400865
C	-1.3291250495	-0.5995693342	-0.0505948496	-0.105962
C	-2.1585318313	-0.1537936293	-1.2665704765	-0.117422
O	-3.1130053633	-1.1917520162	-1.4880715416	-0.248708
C	-2.4615034807	-2.4210766219	-1.2482080608	-0.176901
C	-1.3470658796	-2.1236586805	-0.240526509	 0.353471
O	-0.6243073066	-2.945568714	 0.2607989945	-0.304758
H	 1.0010913528	 1.9942494977	 0.107254488	 0.116678
H	-0.3903457696	 1.8908986085	-0.9753426843	 0.116049
H	-0.6346931054	 1.9828074464	 0.7763699171	 0.114529
H	 0.6892675579	-0.3458249708	-0.7232949903	 0.077852
H	 0.79896345	-1.4704847838	 1.5114014036	 0.151017
H	 1.7405881575	 0.0360011357	 1.4940930619	 0.107579
H	 0.1573855999	-0.0071817822	 2.2791792284	 0.106535
H	-1.9186094329	-0.3976594803	 0.857227642	 0.108668
H	-2.7136363413	 0.7729799666	-1.1135135539	 0.121844
H	-1.5092985468	-0.0290502629	-2.1500615764	 0.095709
H	-3.1767876181	-3.1521331839	-0.8599490745	 0.138996
H	-2.0062383653	-2.8391333693	-2.1624493699	 0.119883
62.1813	94.6626	182.0111	198.3869	235.9521	255.5292	285.6588	325.4311	356.6661	434.0689	490.3775	560.0745	594.6311	665.2296	750.942	867.7889	931.4098	932.771	959.7347	964.878	969.2869	1003.0086	1058.1337	1095.4628	1137.7215	1157.567	1178.8473	1196.8403	1212.5308	1245.9852	1269.7658	1291.5366	1326.6501	1344.8058	1372.9394	1389.4239	1399.7112	1420.3362	1476.0304	1489.2986	1492.8924	1503.82	1516.0107	1517.823	1847.7239	2959.863	2968.3086	2993.9396	3008.8437	3026.0756	3031.0409	3086.6151	3088.8574	3095.9235	3103.3008	3114.0442	3146.6966
CC(C)C1COCC1=O	CC(C)[C@H]1COCC1=O	
InChI=1S/C7H12O2/c1-5(2)6-3-9-4-7(6)8/h5-6H,3-4H2,1-2H3	InChI=1S/C7H12O2/c1-5(2)6-3-9-4-7(6)8/h5-6H,3-4H2,1-2H3/t6-/m1/s1
