17
gdb 57074	3.13848	1.15858	1.01541	3.8757	68.78	-0.2642	0.0142	0.2784	1183.2058	0.136961	-455.124347	-455.11591	-455.114966	-455.157758	31.471	
O	 0.1564272519	 1.4933565522	 0.0691567401	-0.421447
C	 0.0294454794	 0.0845051724	 0.0228558094	-0.034588
C	 0.612815933	-0.4650723123	-1.218605112	 0.265428
N	 1.0956723926	-0.9097645521	-2.1696059575	-0.314074
C	 0.7129505767	-0.5292288285	 1.2639528024	-0.056991
N	 1.9532592545	 0.2065212166	 1.5945663471	-0.332922
C	 1.5213868388	 0.4239112018	 3.0010576529	-0.204105
C	 0.0972198573	-0.0920026559	 2.6387309375	 0.12207
O	-0.9509673231	 0.8318228353	 2.6007219893	-0.428467
H	 1.0736268659	 1.6260610094	 0.3798380793	 0.296283
H	-1.0392484909	-0.1521939667	 0.0430175312	 0.150947
H	 0.8188826819	-1.613161775	 1.1493669036	 0.094971
H	 2.8233736051	-0.2925040232	 1.4566786645	 0.239257
H	 2.0386529109	-0.2025073363	 3.7368836681	 0.109774
H	 1.5722385706	 1.469003201	 3.32308994	 0.115863
H	-0.2469180988	-0.9240617932	 3.2555166045	 0.103899
H	-0.7440330357	 1.4869550545	 1.9169805397	 0.294102
79.3524	106.1562	141.4312	225.6233	261.5603	300.6756	395.638	431.7025	498.2724	583.0666	586.9323	658.7133	692.5397	763.292	819.7287	847.2712	920.3429	952.3001	977.3791	1009.3867	1021.6236	1058.4777	1097.7558	1134.0398	1169.2117	1207.3859	1239.9419	1268.2737	1288.0026	1339.0248	1341.8168	1355.8808	1379.2631	1452.0356	1465.8532	1512.206	2354.6537	3029.5245	3051.0658	3075.1674	3081.2569	3100.6679	3558.718	3578.1803	3707.503
OC(C#N)C1NCC1O	O[C@@H](C#N)[C@H]1NC[C@H]1O	
InChI=1S/C5H8N2O2/c6-1-3(8)5-4(9)2-7-5/h3-5,7-9H,2H2	InChI=1S/C5H8N2O2/c6-1-3(8)5-4(9)2-7-5/h3-5,7-9H,2H2/t3-,4+,5+/m0/s1
