23
gdb 63807	3.14404	1.41231	1.37585	0.1106	88.93	-0.286	0.0868	0.3728	1100.3052	0.207381	-351.131099	-351.123116	-351.122172	-351.162881	33.356	
C	-0.0686761451	 1.5405069243	-0.0211431385	-0.438645
C	-0.0079982087	 0.0066245707	-0.0112041966	 0.309535
C	-1.4272850211	-0.573034085	-0.089915541	-0.438645
C	 0.9312545935	-0.5607536545	-1.1295128046	-0.297114
C	 1.9841762635	-1.2652893238	-0.2778037613	 0.008703
C	 1.2810553138	-1.9695516051	 0.9295583618	-0.065603
C	 2.5211297958	-1.6782155046	 1.8051367702	-0.245184
C	 2.2964067381	-0.3899942494	 0.9809499149	-0.065603
C	 0.7561584135	-0.5244649277	 1.2145845192	-0.004848
H	 0.9313979511	 1.9825351978	 0.0344773686	 0.110489
H	-0.5451386414	 1.9095047342	-0.9364956021	 0.108837
H	-0.6483396308	 1.9186986594	 0.8290015862	 0.106941
H	-1.9336708209	-0.2506474004	-1.0068050123	 0.108838
H	-1.4150647449	-1.6677714833	-0.0842595826	 0.110489
H	-2.0371805132	-0.2418178134	 0.7586762537	 0.10694
H	 0.4091439711	-1.2529053511	-1.799192626	 0.091001
H	 1.3632302128	 0.2313399004	-1.7509065512	 0.091001
H	 2.8089380186	-1.779204236	-0.7771871061	 0.055582
H	 0.6899384015	-2.8871857355	 0.8953707654	 0.062766
H	 2.3579450697	-1.6084459879	 2.8847843901	 0.085327
H	 3.4257163782	-2.2524574683	 1.5828160854	 0.085487
H	 2.8858756498	 0.5289797615	 1.0065140674	 0.062766
H	 0.3517941253	-0.2967581723	 2.2049298195	 0.050939
135.8299	221.308	229.3253	250.087	315.2998	340.3593	387.62	459.6429	471.2202	576.1369	671.9895	766.6884	812.6535	817.1961	869.3428	880.4675	916.4887	927.5679	934.2851	959.6483	965.3807	978.9467	1001.7837	1002.5153	1030.8505	1046.1484	1061.6825	1110.194	1126.4906	1137.0721	1179.6823	1201.5749	1204.7781	1219.8451	1237.8002	1238.8483	1268.8201	1282.2476	1286.5988	1311.3533	1369.7792	1401.8896	1423.6207	1484.9565	1489.3844	1496.0309	1505.1117	1508.9872	1518.9977	3019.7723	3023.9178	3035.0939	3040.8236	3072.43	3073.8598	3082.98	3083.2972	3084.0206	3088.6299	3095.6085	3096.0111	3098.8194	3099.8724
CC1(C)CC2C3CC2C13	CC1(C)C[C@@H]2[C@H]3C[C@@H]2[C@@H]13	
InChI=1S/C9H14/c1-9(2)4-7-5-3-6(7)8(5)9/h5-8H,3-4H2,1-2H3	InChI=1S/C9H14/c1-9(2)4-7-5-3-6(7)8(5)9/h5-8H,3-4H2,1-2H3/t5-,6+,7-,8+
