17
gdb 54013	2.18202	1.58329	0.97878	2.0238	73.5	-0.2473	-0.0305	0.2169	1186.4647	0.136245	-451.360697	-451.351654	-451.35071	-451.394929	33.474	
C	 0.0287199824	 1.463728283	-0.4971759876	-0.471772
C	 0.1153637135	 0.0153522424	-0.0642114514	 0.372161
N	 1.2488863544	-0.5277171751	 0.0324122925	-0.470018
N	-1.1624297883	-0.660251244	 0.1625235128	-0.191175
C	-2.2959960555	 0.1016444838	 0.393228281	 0.181982
O	-3.4324606327	-0.3104021884	 0.5147126043	-0.346805
C	-1.2445251038	-2.0992997584	 0.1562872388	 0.417557
N	-2.3911747086	-2.590978596	-0.4198710673	-0.540712
N	-0.2554280503	-2.771795568	 0.6031906034	-0.533008
H	 1.0248682318	 1.7415855659	-0.8392338574	 0.160707
H	-0.6915999608	 1.6197923837	-1.3060021648	 0.136753
H	-0.2391567656	 2.132344805	 0.327979892	 0.145973
H	 1.1617183329	-1.4994899073	 0.3452027593	 0.264038
H	-2.0698184805	 1.1696170722	 0.4829675032	 0.120945
H	-3.2101665499	-2.0029387163	-0.3042341538	 0.284961
H	-2.5514995647	-3.5717900599	-0.2439322265	 0.250758
H	-0.4178480843	-3.7725083727	 0.5065599816	 0.217655
56.6209	66.4914	158.3992	243.7346	284.4947	309.2234	331.0386	405.2525	442.4733	473.4692	498.6405	549.4795	561.5073	631.0578	661.337	738.1438	791.2915	819.3199	962.7558	1004.223	1031.6822	1046.1774	1087.9859	1106.0687	1134.2661	1179.5085	1274.3069	1371.4422	1410.0975	1413.5166	1465.6335	1480.9243	1500.9595	1635.8555	1703.7279	1760.5795	1785.9829	3040.769	3083.4679	3101.5963	3161.7638	3395.2519	3495.4878	3501.2245	3647.612
CC(=N)N(C=O)C(N)=N	CC(=N)N(C=O)C(=N)N	
InChI=1S/C4H8N4O/c1-3(5)8(2-9)4(6)7/h2,5H,1H3,(H3,6,7)	InChI=1S/C4H8N4O/c1-3(5)8(2-9)4(6)7/h2,5H,1H3,(H3,6,7)
