21
gdb 121325	3.01823	1.10291	0.85721	2.5713	79.24	-0.2397	-0.0188	0.2209	1386.3183	0.181993	-424.249481	-424.239941	-424.238997	-424.285153	34.329	
C	-0.1364409218	 0.7921664686	 0.4834196246	-0.244028
O	-0.3444716493	 0.3188601989	-0.8350903866	-0.236855
C	 0.7470385646	-0.3567882071	-1.4142679358	-0.094311
C	 0.7764619748	-1.8757896048	-1.1367663502	-0.085433
C	 1.3129492924	-2.7419149522	-2.2923443394	-0.235443
C	 1.7048204454	-4.075580255	-1.6242874235	-0.22133
C	 2.3103739082	-3.6472378469	-0.2791682921	-0.306879
C	 1.6169996864	-2.3252997663	 0.0679054431	 0.389698
O	 1.74073743	-1.729552571	 1.1095898326	-0.319177
H	 0.0687026941	-0.0183640256	 1.1908210353	 0.137326
H	 0.7063171975	 1.4995684545	 0.5238151001	 0.100866
H	-1.0501393897	 1.3177920338	 0.7727858974	 0.116385
H	 0.64237731	-0.2159107076	-2.4965496104	 0.102559
H	 1.7007932319	 0.100779395	-1.1090024859	 0.09392
H	-0.258427738	-2.1773704016	-0.9178048221	 0.114858
H	 0.5863959154	-2.8640503521	-3.0995501098	 0.108228
H	 2.2030194359	-2.2660768242	-2.7261386855	 0.103876
H	 0.8068859187	-4.6814735238	-1.4565041684	 0.108423
H	 2.3884533066	-4.6710169919	-2.2341393356	 0.105062
H	 2.206416128	-4.3692367501	 0.5344802656	 0.129216
H	 3.3828300389	-3.4315877705	-0.3744313032	 0.133039
36.392	59.4842	100.7996	172.1812	196.4695	203.6995	301.4954	343.1781	431.8336	474.2952	544.1163	585.9151	617.7882	710.5614	819.3283	893.9682	913.0189	938.1613	942.3256	977.2317	1019.0526	1031.3809	1105.7068	1135.5464	1157.0042	1165.322	1185.6719	1188.5647	1220.7921	1233.3336	1268.0918	1297.5509	1299.6827	1340.2334	1342.1148	1354.3352	1405.7189	1446.4547	1475.2823	1484.558	1492.4856	1494.6971	1505.7859	1517.4439	1831.311	2982.6547	2989.3988	3009.7972	3023.2209	3033.6885	3043.8272	3053.214	3070.3	3095.0806	3099.2273	3106.7928	3118.2484
COCC1CCCC1=O	COC[C@H]1CCCC1=O	
InChI=1S/C7H12O2/c1-9-5-6-3-2-4-7(6)8/h6H,2-5H2,1H3	InChI=1S/C7H12O2/c1-9-5-6-3-2-4-7(6)8/h6H,2-5H2,1H3/t6-/m1/s1
