18
gdb 97115	2.20368	1.57313	0.93679	4.5512	78.39	-0.2361	0.0062	0.2423	1231.5601	0.147642	-435.2975	-435.288098	-435.287154	-435.332316	33.651	
C	-0.4649624132	 1.3752775273	 0.0425498846	-0.363649
N	-0.0905205949	-0.0270481239	 0.0512918546	-0.310564
C	 0.6599121494	-0.5735281507	 0.8865311786	 0.421853
C	 1.1444780173	-2.0183513118	 0.9743399954	-0.33494
C	 1.9510311753	-1.5986655287	 2.2292410883	-0.186797
N	 1.427734576	-0.2321049572	 2.0575250309	-0.176674
C	 1.5359585067	 0.8540447477	 2.9119535784	 0.443037
N	 2.3767228791	 0.6140789952	 3.9845897703	-0.554757
O	 0.9306892237	 1.9000291484	 2.782428074	-0.376901
H	-0.1030969264	 1.9451682977	 0.9009474841	 0.168667
H	-0.0894099945	 1.8260316864	-0.8842928292	 0.11862
H	-1.5581439101	 1.4402796918	-0.0045350434	 0.120818
H	 0.3492597744	-2.7419623955	 1.1601760092	 0.13612
H	 1.7391563031	-2.3456146684	 0.1202409091	 0.133331
H	 1.642224496	-2.0667486838	 3.1686874892	 0.127447
H	 3.039822836	-1.6703976066	 2.1246145084	 0.112172
H	 3.1279450462	-0.0504895226	 3.8906176286	 0.256245
H	 2.6014236159	 1.4481065449	 4.5044837489	 0.265971
49.6564	87.7508	136.9822	172.6109	201.3694	239.4043	248.1947	384.2827	398.8828	508.7402	518.1488	539.9109	559.5504	695.7773	747.8972	765.5097	815.6665	956.6742	1019.3827	1048.6299	1065.4141	1082.2691	1143.4042	1144.2557	1155.4473	1184.3422	1199.249	1206.9646	1255.7628	1324.8642	1392.5084	1445.8234	1470.7567	1497.6645	1509.5937	1522.6086	1620.9647	1782.1034	1850.0777	3020.431	3029.1164	3069.9099	3082.8661	3089.8023	3129.7018	3143.518	3587.3047	3705.6022
CN=C1CCN1C(N)=O	CN=C1CCN1C(=O)N	
InChI=1S/C5H9N3O/c1-7-4-2-3-8(4)5(6)9/h2-3H2,1H3,(H2,6,9)	InChI=1S/C5H9N3O/c1-7-4-2-3-8(4)5(6)9/h2-3H2,1H3,(H2,6,9)
