23
gdb 123098	6.71526	0.47001	0.44655	1.7478	84.64	-0.2457	-0.011	0.2347	2498.8863	0.201679	-425.449368	-425.437638	-425.436694	-425.48857	39.524	
C	 0.10213173	 1.4730740457	 0.0187837981	-0.382012
C	-0.0086307253	-0.0533937494	 0.0317630061	-0.182539
C	-1.4537328496	-0.5321483408	 0.0104479676	-0.030505
O	-1.4674677827	-1.9442301592	 0.024042999	-0.253819
C	-2.7694570134	-2.487785858	 0.0059861451	-0.051499
C	-2.6418492661	-4.0035555738	 0.0228289271	-0.314917
C	-3.9825257708	-4.7200149105	 0.006089332	 0.378054
C	-3.9345325283	-6.2376980839	 0.0217976582	-0.472569
O	-5.030240231	-4.11353392	-0.0184210706	-0.293126
H	 1.1484257794	 1.7914333106	 0.0344187921	 0.116657
H	-0.3610073748	 1.8998046093	-0.8777813748	 0.116604
H	-0.3926931832	 1.9171325434	 0.8896367046	 0.116605
H	 0.5120673518	-0.4800520021	-0.8333062233	 0.104948
H	 0.4804507613	-0.4628199985	 0.9232104356	 0.104949
H	-2.002286849	-0.1356934523	 0.8829873232	 0.083231
H	-1.970396973	-0.1530697887	-0.8888695502	 0.083231
H	-3.3522041403	-2.1456656954	 0.8752514233	 0.09982
H	-3.3206479007	-2.1625865856	-0.8899475763	 0.099815
H	-2.0462868701	-4.3406897716	-0.8358103437	 0.128413
H	-2.0769926472	-4.323843903	 0.9082480532	 0.128413
H	-3.4078998501	-6.5936709087	 0.9143989677	 0.138824
H	-4.9479419353	-6.6403350831	 0.0076969044	 0.142603
H	-3.3765836916	-6.6108931244	-0.8443517883	 0.138819
36.2702	42.5575	77.3846	78.2626	109.8899	129.2089	158.4054	188.5195	232.8842	257.6512	339.867	457.9721	480.4247	485.0899	599.0559	761.6644	766.0987	841.077	900.9288	909.9177	938.7748	939.2467	1016.5788	1058.106	1091.6152	1121.8387	1151.2065	1159.7231	1188.2797	1190.9324	1223.209	1271.3116	1299.0447	1315.3843	1326.6399	1341.0136	1384.3678	1403.9459	1413.1462	1448.504	1459.8944	1468.38	1477.146	1492.1772	1500.1408	1506.8253	1515.5975	1534.3115	1806.8405	2944.0694	2969.1756	2982.0352	3007.8268	3027.8186	3031.8594	3037.9296	3038.6503	3061.6047	3070.6106	3097.8923	3099.7235	3108.0375	3152.2827
CCCOCCC(C)=O	CCCOCCC(=O)C	
InChI=1S/C7H14O2/c1-3-5-9-6-4-7(2)8/h3-6H2,1-2H3	InChI=1S/C7H14O2/c1-3-5-9-6-4-7(2)8/h3-6H2,1-2H3
