18
gdb 33374	5.47016	0.60842	0.56405	5.4634	91.03	-0.2797	-0.0359	0.2438	1897.9522	0.147921	-364.795976	-364.787018	-364.786074	-364.831003	32.157	
N	 0.1283503148	-3.7230355563	-0.187475664	-0.340234
C	 0.0919148271	-2.5655533532	-0.0916975519	 0.206818
C	 0.0499355838	-1.206015813	 0.0200460903	 0.047311
C	 0.0076080332	-0.0019462384	 0.1189281328	 0.087604
C	-0.0047690831	 1.4471407246	 0.229965128	-0.403887
C	 1.3895381511	 2.0709617794	 0.0698495274	 0.056327
C	 2.0882958263	 2.0188426409	-1.3165028781	-0.217903
C	 2.5918934985	 3.4665670018	-1.0661147945	-0.210415
C	 1.4938788465	 3.6203542688	 0.0213931695	-0.238391
H	-0.6805460942	 1.8576840177	-0.5325075804	 0.141938
H	-0.4299516963	 1.7281548383	 1.2030288635	 0.147056
H	 2.0525473773	 1.6684676106	 0.8421203194	 0.091194
H	 2.8292888855	 1.2346726256	-1.4833533813	 0.109718
H	 1.3553388432	 1.9827269625	-2.1293512164	 0.103858
H	 3.5952543212	 3.4774980108	-0.6319151899	 0.109402
H	 2.570299255	 4.1624976129	-1.9070497377	 0.103846
H	 0.5817337496	 4.0671389781	-0.3885182513	 0.101811
H	 1.7502770805	 4.141484789	 0.9466440444	 0.103949
42.8401	63.0515	133.1224	157.8837	195.7707	298.691	366.6708	376.0357	456.1874	574.4106	577.1726	639.333	721.7253	760.7913	791.0132	866.9197	902.7786	933.5258	963.7761	969.9243	1049.5189	1102.1557	1128.1181	1170.1397	1199.1984	1214.8638	1257.2079	1259.282	1266.9785	1274.6692	1295.9873	1326.0522	1373.3553	1458.3295	1477.8458	1486.5917	1509.7749	2263.6474	2399.673	3013.246	3043.1194	3047.2809	3052.0366	3064.472	3064.8726	3103.7941	3110.8602	3125.1361
N#CC#CCC1CCC1	N#CC#CCC1CCC1	
InChI=1S/C8H9N/c9-7-2-1-4-8-5-3-6-8/h8H,3-6H2	InChI=1S/C8H9N/c9-7-2-1-4-8-5-3-6-8/h8H,3-6H2
