16
gdb 97498	3.47565	0.78061	0.64249	0.7037	78.17	-0.2435	-0.0803	0.1632	1700.8401	0.121845	-437.910591	-437.900397	-437.899452	-437.948403	34.56	
C	-0.0340208722	 1.5697066787	 0.0249810562	-0.367458
C	 0.0282343492	 0.0329095411	-0.03946198	-0.332228
C	 0.7037945579	-0.468635048	-1.2253729053	 0.176683
C	 1.2695851156	-0.8569445896	-2.2195577753	 0.043293
C	 1.9362343162	-1.3465383236	-3.3900527776	 0.083664
O	 2.096842693	-2.5259618051	-3.6405377076	-0.307082
C	 2.4625995906	-0.2583680253	-4.3580138524	 0.346323
N	 3.074986183	-0.8067029768	-5.4301619012	-0.534836
O	 2.3187860009	 0.9265075609	-4.1376429584	-0.350953
H	 0.9708979684	 1.9987060129	 0.0283054315	 0.140575
H	-0.5694164125	 1.9726409129	-0.8380998802	 0.140572
H	-0.5511865389	 1.8866995564	 0.9348718713	 0.120574
H	 0.5396948555	-0.3632769656	 0.8475674271	 0.146551
H	-0.98489617	-0.3890805739	-0.0100101303	 0.14655
H	 3.1298917126	-1.8101511295	-5.4981223834	 0.279278
H	 3.4657497306	-0.2145717554	-6.1425624643	 0.268494
12.778	55.8891	56.4839	132.3298	176.1797	227.341	285.5637	302.0465	374.0192	389.8437	461.511	483.3075	528.9432	637.0123	650.9729	656.3141	777.0549	840.7283	888.6425	1006.4012	1082.1031	1091.2368	1097.103	1217.6741	1280.2263	1344.38	1369.0505	1412.7542	1457.7872	1494.4806	1502.9003	1584.1419	1743.4165	1811.324	2331.5004	3022.3388	3050.4471	3050.8991	3126.2635	3133.3212	3596.9755	3739.8838
CCC#CC(=O)C(N)=O	CCC#CC(=O)C(=O)N	
InChI=1S/C6H7NO2/c1-2-3-4-5(8)6(7)9/h2H2,1H3,(H2,7,9)	InChI=1S/C6H7NO2/c1-2-3-4-5(8)6(7)9/h2H2,1H3,(H2,7,9)
