19
gdb 97366	3.52626	0.83692	0.75064	3.9575	76.21	-0.2438	0.0192	0.2629	1560.8302	0.156902	-456.383678	-456.373168	-456.372224	-456.420023	36.891	
C	 0.7643731506	 1.3715168955	-0.6673680262	-0.316353
N	 0.947020071	-0.0391924259	-0.9437801759	-0.223729
C	-0.0683718299	-0.7092678153	-1.2675071613	 0.12818
O	-0.0541086063	-2.0222577017	-1.5670565329	-0.25414
C	 1.2209018618	-2.7028881354	-1.5364406527	 0.044257
C	 1.5604331881	-3.1736090188	-0.1265445281	-0.404036
C	 1.1825415501	-3.8790220462	-2.5210524546	 0.375241
N	 0.069673728	-3.9714218458	-3.2907878916	-0.51759
O	 2.1243063413	-4.645677508	-2.5902982789	-0.373619
H	 1.3908214135	 1.9629372947	-1.3442862858	 0.131755
H	-0.2772524193	 1.7141136463	-0.7725580148	 0.100483
H	 1.0986944655	 1.5932868215	 0.3521885603	 0.13118
H	-1.0916300346	-0.323435366	-1.3504342732	 0.10213
H	 1.9869816512	-2.0051446847	-1.8874059516	 0.137967
H	 1.7244242097	-2.3144054157	 0.5259714139	 0.134703
H	 0.7487346461	-3.7853266125	 0.2787080553	 0.120915
H	 2.467317955	-3.7794167394	-0.1692373017	 0.152006
H	-0.7041445733	-3.3470675205	-3.1491274155	 0.269237
H	-0.0053081285	-4.7420073323	-3.9333018146	 0.261414
44.3601	50.5755	134.422	150.2729	212.8248	227.1707	246.5414	267.8028	292.3431	325.14	347.2246	455.0994	488.1857	533.4184	614.9472	702.7869	737.2349	830.8439	875.9522	986.2573	1032.2404	1070.7171	1099.3582	1106.1684	1129.4267	1142.6273	1148.3244	1251.4081	1309.6155	1357.4701	1378.394	1389.061	1397.3179	1450.7606	1481.9987	1490.0518	1498.1079	1505.0737	1595.4319	1755.2455	1799.1334	2977.2411	3053.4518	3055.7559	3064.094	3078.1072	3082.8149	3132.6124	3153.7856	3610.5771	3752.1423
CN=COC(C)C(N)=O	CN=CO[C@@H](C)C(=O)N	
InChI=1S/C5H10N2O2/c1-4(5(6)8)9-3-7-2/h3-4H,1-2H3,(H2,6,8)	InChI=1S/C5H10N2O2/c1-4(5(6)8)9-3-7-2/h3-4H,1-2H3,(H2,6,8)/t4-/m0/s1
