23
gdb 64020	2.06781	1.79433	1.34724	0.1252	90.81	-0.2191	0.0287	0.2478	1110.0126	0.205837	-351.162568	-351.1537	-351.152756	-351.195236	36.278	
C	-0.0306173231	 1.5214645948	 0.0334692025	-0.412092
C	-0.0169404969	-0.0188142509	 0.0004701021	 0.207902
C	-1.4455894784	-0.5449515502	-0.1618698849	-0.444567
C	 0.9118300203	-0.4859845615	-1.1680111968	-0.29762
C	 2.2436479911	-0.7360754808	-0.5050189415	-0.095028
C	 2.1272820805	-0.7776567167	 0.8214192518	-0.124917
C	 0.7244417195	-0.552358768	 1.2611096804	 0.340737
C	 0.4099585232	-0.0950862529	 2.6660600179	-0.319722
C	 0.1157829553	-1.515501389	 2.2670560559	-0.324067
H	 0.9843392811	 1.9180452645	 0.135220877	 0.117311
H	-0.461854594	 1.9227824986	-0.8903988345	 0.104094
H	-0.6250316076	 1.9001734036	 0.870651616	 0.106378
H	-1.8932212582	-0.1566303355	-1.0834085817	 0.109604
H	-1.4682941927	-1.6378101648	-0.2139694152	 0.114461
H	-2.0898306002	-0.2312572518	 0.6677851554	 0.108377
H	 0.5345345477	-1.4075142107	-1.6348832713	 0.098408
H	 0.9617905799	 0.2633770452	-1.9672276803	 0.096008
H	 3.1596655582	-0.8980035519	-1.0617189064	 0.088711
H	 2.9288140037	-0.9772563125	 1.5253443579	 0.088341
H	 1.2388169093	 0.0991656169	 3.3394667842	 0.107966
H	-0.436098638	 0.5696328961	 2.8081876857	 0.109754
H	-0.9229572356	-1.8015011684	 2.145162819	 0.1126
H	 0.7502836048	-2.3067905438	 2.6529088268	 0.107362
84.8705	231.6615	239.5683	266.0775	272.543	300.3165	327.7796	346.8619	401.2604	436.7852	516.5494	555.5294	617.1379	739.0441	759.4205	782.5826	835.7925	898.6537	917.2243	937.1698	942.7763	952.699	964.5858	965.212	981.9539	996.9173	1037.8801	1059.5655	1078.5338	1114.9788	1132.8436	1190.846	1196.1691	1221.0632	1256.429	1273.5139	1303.3707	1337.3335	1391.6423	1397.6188	1418.66	1465.2912	1482.8282	1486.9071	1492.6846	1498.9426	1508.9377	1510.5336	1681.7604	2998.9991	3023.3505	3030.9748	3045.9188	3085.4164	3096.8025	3101.1952	3107.8772	3122.7119	3130.5969	3175.4376	3200.507	3204.0477	3218.7872
CC1(C)CC=CC11CC1	CC1(C)CC=CC21CC2	
InChI=1S/C9H14/c1-8(2)4-3-5-9(8)6-7-9/h3,5H,4,6-7H2,1-2H3	InChI=1S/C9H14/c1-8(2)4-3-5-9(8)6-7-9/h3,5H,4,6-7H2,1-2H3
