18
gdb 94512	2.92345	1.23053	0.92311	3.933	81.44	-0.2425	-0.0247	0.2178	1269.7221	0.146086	-401.931828	-401.922419	-401.921475	-401.966636	33.635	
C	-0.3632021561	 1.4179757848	 0.1482719997	-0.40143
C	 0.0569041588	-0.0317843423	-0.0353600862	 0.066112
C	 0.9337540203	-0.3942544393	-1.2738484706	-0.267901
C	 2.0120325829	-0.9441528239	-0.2965321546	-0.171806
N	 1.173034359	-0.4809778547	 0.8139363257	-0.08254
C	 1.1597033392	-0.74574096	 2.1430119278	 0.243907
O	 0.2256082184	-0.4584932366	 2.8753977803	-0.371174
C	 2.3729655006	-1.3954312606	 2.6275845202	 0.236733
C	 3.3571599574	-1.9398024518	 3.0536050348	-0.420897
H	 0.4928905993	 2.0905023418	 0.0322481826	 0.114727
H	-1.1193303265	 1.687287572	-0.5968793059	 0.116889
H	-0.7868576093	 1.5624750425	 1.1448410161	 0.154014
H	-0.8138035746	-0.6881896941	 0.0851068809	 0.09619
H	 0.5043474129	-1.1297843516	-1.9540069806	 0.117188
H	 1.258358213	 0.4770531963	-1.845215455	 0.115836
H	 2.147369607	-2.0307044811	-0.3189012893	 0.122965
H	 2.9954742574	-0.4667872788	-0.3442057559	 0.123024
H	 4.2206827804	-2.4187748827	 3.4463741901	 0.208163
67.437	80.8969	113.9648	127.3241	201.4469	250.8509	277.7108	334.8354	430.591	478.4505	544.5801	656.0195	662.9529	676.3179	753.8253	766.5452	807.4995	886.3528	942.937	944.3558	973.1477	1094.8928	1108.4737	1151.3053	1178.387	1191.0872	1226.3454	1265.1776	1290.9763	1323.7812	1379.4407	1403.2801	1423.6706	1484.4525	1490.7911	1503.8803	1522.4288	1732.3285	2222.8374	3028.6374	3036.8402	3039.3687	3081.6758	3087.9754	3106.5926	3131.3759	3144.7116	3495.6754
CC1CCN1C(=O)C#C	C[C@H]1CCN1C(=O)C#C	
InChI=1S/C7H9NO/c1-3-7(9)8-5-4-6(8)2/h1,6H,4-5H2,2H3	InChI=1S/C7H9NO/c1-3-7(9)8-5-4-6(8)2/h1,6H,4-5H2,2H3/t6-/m0/s1
