20
gdb 68996	2.94514	1.28416	1.18292	2.0862	80.06	-0.2252	0.0705	0.2957	1161.2151	0.170942	-403.082195	-403.073599	-403.072654	-403.115476	32.837	
C	 0.0427905575	 1.5576325393	-0.0120580072	-0.491946
C	 0.0503515499	 0.0582631213	 0.0297268928	 0.197725
C	-0.9206542101	-0.7841520605	 0.8412638915	-0.391817
C	 0.5549319312	-0.9492420239	 1.0550540311	 0.443032
O	 1.100931748	-1.8104919052	 0.0424061737	-0.332331
C	 0.7185281106	-0.8579409277	-0.9903591536	-0.128951
C	 1.2987607348	-0.8584803673	 2.3308989052	-0.111775
C	 2.04682834	-2.0445379714	 2.8223907998	-0.239897
N	 2.7707483869	-0.8638186581	 2.3161533927	-0.328701
H	 1.0291050958	 1.9559661872	-0.2743519055	 0.124128
H	-0.6773472644	 1.9325790087	-0.7495754968	 0.123723
H	-0.237590281	 1.9772555297	 0.9591690922	 0.124655
H	-1.4473183835	-0.2341749862	 1.616138691	 0.115326
H	-1.48738114	-1.5921323366	 0.3846328507	 0.112208
H	 0.0879923141	-1.3187888478	-1.760122102	 0.105263
H	 1.6088568118	-0.4184774423	-1.4556288089	 0.106968
H	 0.8589334639	-0.1774059225	 3.0558676216	 0.090236
H	 2.1387619182	-2.2208046367	 3.8901973714	 0.116202
H	 2.0263514986	-2.9367657295	 2.2039447362	 0.129822
H	 3.0723607777	-1.0651572704	 1.364050424	 0.236128
75.7941	127.4069	168.0833	188.9483	254.4684	295.3893	351.3738	409.4902	457.924	549.1108	595.2963	697.2396	784.0294	837.6699	856.4425	876.4455	919.2715	954.9201	969.8589	977.902	992.6325	1004.9111	1034.2991	1053.5927	1097.7039	1113.5706	1131.9438	1151.0843	1160.876	1190.9226	1258.3217	1270.7102	1282.5821	1306.7776	1333.3311	1382.7452	1420.4079	1445.2793	1484.9364	1495.0297	1499.0883	1511.9388	1526.4098	3018.2439	3023.6075	3068.8549	3081.3097	3100.023	3105.7711	3115.653	3134.6589	3199.0016	3206.3066	3485.3189
CC12CC1(OC2)C1CN1	C[C@]12C[C@]1(OC2)[C@H]1CN1	
InChI=1S/C7H11NO/c1-6-3-7(6,9-4-6)5-2-8-5/h5,8H,2-4H2,1H3	InChI=1S/C7H11NO/c1-6-3-7(6,9-4-6)5-2-8-5/h5,8H,2-4H2,1H3/t5-,6-,7+/m1/s1
