13
gdb 47999	3.12629	0.82288	0.68597	2.6209	77.59	-0.274	-0.0754	0.1986	1537.7847	0.085322	-419.333112	-419.324109	-419.323164	-419.368471	30.554	
O	-0.1116761063	 0.0258158991	 0.5111720703	-0.224437
C	 0.1396866742	 0.9185895833	-0.2645997056	 0.018463
C	 1.3101328678	 1.7560420635	-0.1873124496	 0.10831
C	 2.2735025391	 2.4839865817	-0.1564131186	 0.119207
C	 3.4422553258	 3.3085681263	-0.0807617667	-0.184018
O	 3.7297472992	 4.1699643677	-1.1864079551	-0.217007
C	 3.3460366739	 4.795130717	 0.0390862693	-0.154181
C	 2.0878647122	 5.484130818	 0.084658581	 0.340583
C	 1.0527112162	 6.0900281947	 0.15060048	-0.395845
H	-0.5319477002	 1.1617034474	-1.1121204676	 0.108469
H	 4.3197698921	 2.8374071038	 0.360930781	 0.135452
H	 4.1663094758	 5.2843431391	 0.5641072009	 0.132819
H	 0.1329656105	 6.6196179384	 0.2014608807	 0.212185
42.3051	67.6802	99.3443	159.931	200.4093	232.2834	284.641	439.3451	493.5552	530.0936	593.8794	644.0812	662.888	681.4259	774.1258	839.6754	885.801	975.4641	1019.1842	1069.7402	1110.3278	1171.0773	1270.1442	1370.389	1410.4227	1419.8182	1767.2728	2245.8237	2327.9036	2928.7135	3111.7591	3122.3362	3500.3684
O=CC#CC1OC1C#C	O=CC#C[C@H]1O[C@H]1C#C	
InChI=1S/C7H4O2/c1-2-6-7(9-6)4-3-5-8/h1,5-7H	InChI=1S/C7H4O2/c1-2-6-7(9-6)4-3-5-8/h1,5-7H/t6-,7+/m0/s1
