18
gdb 123444	5.26557	0.96216	0.84228	1.7394	78.43	-0.2393	0.0202	0.2595	1347.0473	0.150835	-398.115728	-398.107949	-398.107005	-398.149058	28.974	
C	 0.2445598486	 1.1596775897	 0.6638000412	-0.157565
C	-0.0127921806	-0.0919319327	-0.1355860596	 0.004017
C	-1.4029848846	-0.5645777124	-0.3352965261	-0.248414
N	-0.6401280235	-0.0151068372	-1.4689505259	-0.311886
N	 1.4791174134	 1.8251683123	 0.2732054349	 0.037726
C	 2.0584439371	 1.8824644781	-0.9545122125	-0.031708
C	 3.1594029993	 2.705357713	-0.8359836074	-0.238653
C	 3.1551398876	 3.1039278879	 0.5155418282	-0.003171
N	 2.1351700997	 2.572439929	 1.1850878667	-0.265058
H	-0.6031608512	 1.8510464661	 0.5540423015	 0.113376
H	 0.3444153747	 0.9326818206	 1.7286931238	 0.143021
H	 0.7806309527	-0.833761391	-0.0787018927	 0.111879
H	-1.6076087846	-1.6293174297	-0.3908344868	 0.128415
H	-2.2104382161	 0.0295863626	 0.0854054137	 0.118264
H	-0.9457520682	 0.9393323346	-1.6489396748	 0.233212
H	 1.6579754984	 1.3315858635	-1.7903003163	 0.151742
H	 3.8640004751	 2.9651726687	-1.6091175078	 0.103948
H	 3.8528640423	 3.748038217	 1.03065495	 0.110853
47.8319	98.0004	129.4414	244.7837	314.9087	353.2143	465.3124	627.4729	670.4784	749.3753	775.8506	804.3551	835.3561	849.0375	892.6242	930.5423	941.2284	947.3858	988.7085	1002.7476	1055.9051	1076.3224	1110.9933	1130.2826	1158.7588	1191.2892	1228.1705	1258.6672	1261.8363	1293.3134	1317.4476	1341.7518	1375.7571	1424.0506	1441.2965	1473.7308	1506.1019	1513.7522	1557.4087	3006.0099	3096.0258	3112.0384	3139.4334	3198.7438	3242.9536	3262.8809	3280.1882	3485.0409
C(C1CN1)N1C=CC=N1	C([C@H]1CN1)n1cccn1	
InChI=1S/C6H9N3/c1-2-8-9(3-1)5-6-4-7-6/h1-3,6-7H,4-5H2	InChI=1S/C6H9N3/c1-2-8-9(3-1)5-6-4-7-6/h1-3,6-7H,4-5H2/t6-/m1/s1
