19
gdb 50518	2.12418	1.75272	1.1585	2.2009	75.76	-0.2383	-0.0258	0.2125	1105.1669	0.158406	-423.007346	-422.9988	-422.997856	-423.041363	31.369	
O	 0.5874709211	 0.1292213033	 0.9028897903	-0.250796
C	 0.7337019806	 0.8146157226	-0.0795605049	 0.134862
C	 1.326202606	 2.1939045975	-0.1018752845	-0.137386
C	 0.5502706737	 3.3412636766	-0.8199789648	-0.259652
C	 1.0918653773	 4.3068406746	 0.2699903332	-0.290818
C	 1.4196797251	 3.0905740924	 1.1646731145	 0.441233
C	 0.6022741596	 2.7936173231	 2.4433313035	-0.347537
C	 1.9826284501	 2.6515585483	 3.1087098134	-0.075968
O	 2.6488026938	 3.0810191302	 1.8973554681	-0.315203
H	 0.4180467604	 0.4401794355	-1.0824958225	 0.078544
H	 2.3327602416	 2.1101816143	-0.5343299092	 0.11824
H	 0.8140575334	 3.5515752825	-1.8572160968	 0.111694
H	-0.5329105214	 3.2059265349	-0.7525656632	 0.113101
H	 2.0174993447	 4.7957620294	-0.0469702015	 0.119562
H	 0.4097025272	 5.0578388881	 0.6756785232	 0.102755
H	 0.0248825881	 3.6541722606	 2.7883342929	 0.103513
H	-0.0183268806	 1.900828206	 2.4327715525	 0.137174
H	 2.1997496333	 3.3174967146	 3.9505060188	 0.10263
H	 2.257417456	 1.6244946055	 3.374108497	 0.114052
56.0538	87.6543	106.6787	191.6978	230.3926	317.4034	374.3035	411.6633	497.148	645.3626	679.1682	774.0152	801.759	863.1201	877.7969	898.1725	926.4415	941.1833	979.0753	990.0694	1022.0542	1062.2874	1109.5645	1132.8884	1155.128	1174.9666	1189.5913	1220.2452	1232.1771	1248.4277	1255.6058	1268.6723	1292.007	1330.8348	1361.3338	1424.425	1475.3894	1482.4548	1500.4666	1527.3254	1816.0024	2848.6109	3027.2781	3030.3927	3059.4342	3065.8793	3073.2504	3085.2232	3112.821	3128.75	3169.5793
O=CC1CCC11CCO1	O=C[C@H]1CC[C@]21CCO2	
InChI=1S/C7H10O2/c8-5-6-1-2-7(6)3-4-9-7/h5-6H,1-4H2	InChI=1S/C7H10O2/c8-5-6-1-2-7(6)3-4-9-7/h5-6H,1-4H2/t6-,7-/m1/s1
