23
gdb 110935	2.25507	1.31401	0.99482	1.0706	85.94	-0.2369	0.0799	0.3167	1326.7561	0.205175	-388.252268	-388.242614	-388.24167	-388.286838	36.122	
C	-0.1118967771	 1.4651213336	-0.0996133084	-0.379417
C	-0.0393288343	-0.0651231836	-0.1405894462	-0.199213
C	 0.6215079968	-0.6536880475	 1.1041477267	 0.054072
C	-0.142852945	-0.6473242241	 2.4716908258	-0.252417
C	 0.1499832504	-2.1448536961	 2.6340862764	-0.125942
C	-0.4488661518	-2.9253983548	 1.5256616458	 0.148528
O	-1.7065448222	-2.5923508658	 1.0209511589	-0.240982
C	-1.9699663127	-3.1965685801	-0.2289656372	-0.237685
C	 0.8212705113	-2.1738235395	 1.2287437967	-0.157732
H	 0.8881538882	 1.9090242301	-0.0329587161	 0.10919
H	-0.5951909194	 1.8671566519	-0.9955943735	 0.108491
H	-0.6842461117	 1.8102516312	 0.7685131034	 0.118023
H	-1.0466920953	-0.4790015669	-0.2443967959	 0.11282
H	 0.5257659401	-0.3815065938	-1.0280823248	 0.085003
H	 1.5929346848	-0.1666682179	 1.2501453171	 0.068194
H	 0.3395518188	-0.0268096749	 3.2288891329	 0.097483
H	-1.2050281806	-0.3923541009	 2.4253260673	 0.108745
H	 0.467555847	-2.6175273543	 3.5563159407	 0.084753
H	-0.2937266582	-4.0044902002	 1.6053825856	 0.080487
H	-1.2531800404	-2.8740815911	-0.9975222992	 0.110767
H	-1.9344909292	-4.294690117	-0.1600741518	 0.105413
H	-2.9763616201	-2.8946666497	-0.52872265	 0.124915
H	 1.7165462107	-2.6994640787	 0.912476106	 0.076501
91.5509	100.8326	139.6468	144.7124	183.3962	217.6126	255.0713	310.6025	391.3457	407.963	512.267	591.6759	727.6794	743.0278	783.822	811.968	843.5573	913.8337	938.0449	964.0985	971.9828	1007.4688	1019.4312	1040.9715	1073.5234	1093.7604	1097.956	1134.3196	1146.1068	1182.6057	1194.9165	1201.5335	1247.1769	1251.0412	1273.5085	1294.0182	1295.6941	1332.5149	1360.32	1393.2963	1409.2088	1435.857	1480.5681	1485.9946	1487.4948	1495.548	1499.5753	1505.1546	1511.6058	2981.6855	3016.2525	3026.0788	3028.7489	3033.7932	3063.1488	3070.8315	3078.3836	3099.468	3101.5091	3115.9356	3117.4411	3156.4217	3176.0473
CCC1CC2C(OC)C12	CC[C@H]1C[C@H]2[C@@H](OC)[C@@H]12	
InChI=1S/C8H14O/c1-3-5-4-6-7(5)8(6)9-2/h5-8H,3-4H2,1-2H3	InChI=1S/C8H14O/c1-3-5-4-6-7(5)8(6)9-2/h5-8H,3-4H2,1-2H3/t5-,6+,7-,8+/m0/s1
