16
gdb 70782	3.95119	1.33294	1.13075	0.9838	76.62	-0.2351	0.0315	0.2666	1058.5944	0.123413	-400.619061	-400.611453	-400.610509	-400.650761	30.532	
O	 0.129974018	 1.3161781823	 0.1257410645	-0.470172
C	 0.1049128634	-0.0510031229	 0.0846716155	 0.41078
C	 0.7829199985	-0.9815772687	 1.089684845	-0.357666
C	 0.1071203143	-1.9547097962	 0.0826308022	 0.267867
C	 0.0978921448	-3.3808752204	 0.06493508	 0.07027
C	 0.082994943	-4.5844165107	 0.0393555039	-0.372514
C	-1.1347935208	-0.995429127	-0.1131395609	-0.144731
N	-1.0286028598	-0.8992552029	-1.6022691123	-0.360075
C	 0.3910870819	-0.9925582409	-1.1398762263	-0.144733
H	-0.3788822441	 1.6380309696	-0.6296291387	 0.297487
H	 1.8759246967	-0.9827835465	 1.0994291048	 0.110924
H	 0.3802416749	-0.9855975026	 2.1058490128	 0.110925
H	 0.0724305165	-5.6459863334	 0.020422748	 0.180991
H	-2.0796356644	-1.0193495657	 0.4311568339	 0.090846
H	-1.3220953365	-1.7758273194	-2.0408928456	 0.218956
H	 1.2512542637	-1.0130835146	-1.8101363569	 0.090846
128.4325	138.2806	268.8969	323.5453	380.5935	420.5062	443.4226	517.2703	525.7394	577.7528	611.7977	642.6848	690.6547	695.7577	789.5431	883.2512	890.9681	922.6524	930.0123	1008.4774	1033.5938	1058.7647	1086.1066	1117.1863	1123.2766	1147.2965	1161.9565	1170.3731	1278.0661	1287.4858	1287.7129	1357.6863	1421.6326	1519.5504	2228.7869	3058.1506	3111.7819	3117.2705	3120.8269	3413.3755	3501.604	3779.3303
OC12CC3(C#C)C1NC23	O[C@@]12C[C@@]3(C#C)[C@@H]1N[C@@H]23	
InChI=1S/C7H7NO/c1-2-6-3-7(9)4(6)8-5(6)7/h1,4-5,8-9H,3H2	InChI=1S/C7H7NO/c1-2-6-3-7(9)4(6)8-5(6)7/h1,4-5,8-9H,3H2/t4-,5+,6-,7-
