18
gdb 106652	2.78046	1.26697	1.03207	3.6675	73.4	-0.2359	0.0068	0.2427	1206.2873	0.14621	-439.078475	-439.069426	-439.068482	-439.112264	33.751	
C	 0.144252464	 1.4486986798	 0.2453406918	-0.383722
C	-0.1425650631	-0.0221686227	-0.0845566851	-0.268353
C	 0.5786960268	-0.5037257569	-1.3079273432	 0.325639
C	 1.9978448121	-1.0075195532	-1.3719252888	-0.391026
C	 0.8285293673	-1.9120910284	-1.8073205763	 0.1721
O	 0.5206784681	-3.0915303244	-1.1773600245	-0.450862
C	 0.3682684064	-1.4208079085	-3.179231455	 0.36501
O	 0.2542528201	-1.8773690312	-4.2800838916	-0.346716
N	 0.1231917074	-0.1281373664	-2.6620977062	-0.392804
H	 1.2124129716	 1.6140712263	 0.4199491569	 0.118869
H	-0.16835667	 2.1049207493	-0.5737241898	 0.120647
H	-0.3973913857	 1.7588119013	 1.1436009864	 0.119658
H	 0.1495369825	-0.6595721154	 0.757789797	 0.113443
H	-1.2181383889	-0.1679130264	-0.2360896748	 0.117352
H	 2.701189763	-0.6102358296	-2.0982868581	 0.117457
H	 2.434827651	-1.3160632017	-0.425381713	 0.124463
H	 1.1479903592	-3.7655993185	-1.4618917822	 0.300628
H	 0.4531231282	 0.7029909765	-3.1425400234	 0.238217
73.2882	117.5971	159.3242	222.5259	227.3733	259.306	303.0905	371.0225	389.3793	479.1987	536.7235	632.6729	675.7071	690.6143	746.9834	786.7095	797.9678	872.054	914.5721	969.6102	995.4689	999.5014	1057.6209	1081.3434	1106.8941	1143.0486	1216.2595	1268.0615	1302.5011	1327.9016	1330.4872	1385.6785	1410.4481	1430.2426	1474.4077	1499.3562	1504.3585	1512.3516	1899.195	3035.1834	3038.8824	3075.0852	3106.7927	3109.2337	3111.5632	3201.7185	3531.257	3798.0487
CCC12CC1(O)C(=O)N2	CC[C@@]12C[C@]1(O)C(=O)N2	
InChI=1S/C6H9NO2/c1-2-5-3-6(5,9)4(8)7-5/h9H,2-3H2,1H3,(H,7,8)	InChI=1S/C6H9NO2/c1-2-5-3-6(5,9)4(8)7-5/h9H,2-3H2,1H3,(H,7,8)/t5-,6+/m1/s1
