21
gdb 82916	2.44216	1.71984	1.35092	1.8922	80.75	-0.2517	0.0839	0.3356	1057.1744	0.18291	-387.082696	-387.074307	-387.073363	-387.115096	33.309	
C	 1.3607413305	 2.5628788143	-0.1227709606	-0.41999
C	 0.9974094472	 1.1115443226	-0.3596635896	-0.012725
C	 2.0042358706	-0.0196166084	-0.4097526332	-0.055072
C	 3.4040225919	 0.2109349537	 0.1664234309	-0.267959
C	 3.1717048147	 0.3916322114	 1.6605107359	-0.013584
O	 2.6435991571	-0.7750245985	 2.3012363189	-0.310806
C	 1.7374440877	 0.3049601018	 1.9879164328	 0.423811
C	 1.0768438448	 0.9696656133	 3.1649315174	-0.48734
C	 0.983087898	 0.040887034	 0.7125223191	-0.139495
H	 2.1592989414	 2.6840787529	 0.6126161302	 0.122857
H	 1.6947725435	 3.0347999733	-1.0536585446	 0.116493
H	 0.4935480073	 3.1272491245	 0.2380317095	 0.117739
H	 0.1903227093	 0.9948768972	-1.0798254367	 0.084916
H	 1.8977496921	-0.7526096264	-1.2010166052	 0.083086
H	 4.0526291108	-0.6522360088	-0.0158618387	 0.112879
H	 3.9019979701	 1.0884871249	-0.2632647682	 0.099082
H	 3.8705360591	 0.9724848261	 2.2598543356	 0.085311
H	 1.7881018415	 1.0995707886	 3.9845502986	 0.127073
H	 0.6754528527	 1.9488526758	 2.8844030795	 0.124017
H	 0.2435797105	 0.3606682899	 3.5328186648	 0.125849
H	 0.1452082991	-0.6484203922	 0.7539036338	 0.083858
143.6891	164.5735	188.8661	200.8986	263.3665	295.2822	358.7884	447.834	473.4544	546.9742	576.2058	718.5823	735.3028	762.3278	792.2911	841.4311	889.8471	919.8004	946.7115	962.8227	980.8193	1016.0748	1035.032	1067.7012	1087.4143	1101.571	1117.3954	1134.6335	1142.0792	1219.9256	1227.3467	1234.1081	1286.1737	1319.1868	1350.3029	1377.1162	1410.8392	1418.3557	1431.0528	1449.9748	1480.8504	1486.8722	1496.4255	1500.2309	1505.1265	3031.3382	3034.2987	3035.6766	3075.349	3085.3687	3097.6942	3113.956	3122.1923	3128.2096	3131.718	3152.439	3174.4623
CC1C2CC3OC3(C)C12	C[C@H]1[C@H]2C[C@@H]3O[C@]3(C)[C@@H]12	
InChI=1S/C8H12O/c1-4-5-3-6-8(2,9-6)7(4)5/h4-7H,3H2,1-2H3	InChI=1S/C8H12O/c1-4-5-3-6-8(2,9-6)7(4)5/h4-7H,3H2,1-2H3/t4-,5+,6-,7-,8-/m0/s1
