17
gdb 83244	2.96906	1.48172	1.29403	2.2337	69.38	-0.2209	0.0438	0.2646	1019.3988	0.13807	-455.143762	-455.135916	-455.134972	-455.175985	30.771	
N	-0.0547359295	 1.339738314	-0.0721305099	-0.551807
C	-0.0756626506	-0.0304321037	-0.1331696897	 0.460273
N	-1.1772595662	-0.6831600509	-0.0823102249	-0.369129
C	-1.0890962432	-2.1091730417	-0.0582111999	-0.057239
C	-1.0307664611	-2.8266103497	-1.3768654537	 0.100751
O	-1.0366519179	-2.0631619783	-2.5408580012	-0.426106
C	 0.2054462587	-2.7815483684	-0.4836842998	-0.14042
C	 1.3106216068	-1.8315725874	-0.8646923885	-0.105582
O	 1.1760271879	-0.516608994	-0.2641938858	-0.260079
H	 0.8416347991	 1.756288958	 0.1201047544	 0.260185
H	-0.8500909661	 1.7562164479	 0.3845612469	 0.263738
H	-1.6658471394	-2.5677882123	 0.7398957169	 0.093466
H	-1.5428081299	-3.7798590805	-1.4785880465	 0.093261
H	-1.427270511	-1.2093180886	-2.3040613216	 0.295743
H	 0.5019709727	-3.6925035799	 0.0236963812	 0.091245
H	 2.280342472	-2.1900859021	-0.5176455661	 0.118523
H	 1.3473742679	-1.6834005023	-1.9489425119	 0.133176
90.6445	140.344	241.0263	274.862	368.4156	395.6048	433.4485	483.909	504.9312	536.1753	590.1815	648.4543	738.3194	756.7997	785.2294	823.9001	864.0428	935.3327	974.645	1005.9994	1036.5218	1062.4908	1108.5207	1113.191	1149.4735	1204.6656	1255.6738	1294.1056	1333.6665	1350.8637	1366.9316	1376.5372	1420.0094	1439.1274	1500.5008	1614.6312	1718.8323	3054.1496	3123.3195	3135.2501	3143.9929	3171.4953	3599.148	3719.0903	3721.1619
NC1=NC2C(O)C2CO1	NC1=N[C@H]2[C@@H](O)[C@H]2CO1	
InChI=1S/C5H8N2O2/c6-5-7-3-2(1-9-5)4(3)8/h2-4,8H,1H2,(H2,6,7)	InChI=1S/C5H8N2O2/c6-5-7-3-2(1-9-5)4(3)8/h2-4,8H,1H2,(H2,6,7)/t2-,3+,4-/m0/s1
