22
gdb 121499	4.70049	0.58816	0.54377	2.8157	87.76	-0.2418	0.0278	0.2696	2109.4112	0.192143	-404.328373	-404.317985	-404.317041	-404.365332	36.89	
C	-0.7001290291	 1.3853837172	 0.2356843021	-0.389402
C	-0.9393115397	-0.0797641463	 0.6126493135	-0.180774
C	-0.7675909446	-1.0093213862	-0.5966990806	-0.110605
N	-0.9546265027	-2.4400304931	-0.4289442997	-0.23443
C	-1.2628137046	-2.9217270318	 0.6887764193	 0.122298
O	-1.4334782217	-4.2631674305	 0.8174309158	-0.211146
C	-1.7351045584	-4.7100662388	 2.1156188902	 0.122446
C	-3.1582427496	-4.6347114879	 2.601883651	-0.287183
C	-2.5462518907	-5.9599450826	 2.1958862503	-0.280226
H	-0.8276177468	 2.0454755485	 1.0988698728	 0.113
H	 0.314138216	 1.5347316497	-0.1505569207	 0.118096
H	-1.4003348985	 1.7133484423	-0.5405286842	 0.117915
H	-0.2418061059	-0.3716784383	 1.4083319223	 0.098243
H	-1.9498397773	-0.1897562174	 1.0269850132	 0.098628
H	-1.4538817865	-0.6875783486	-1.3928816552	 0.108904
H	 0.2383846663	-0.8651957066	-1.0158977458	 0.109302
H	-1.4220465055	-2.369345	 1.6219943734	 0.081118
H	-0.9284564177	-4.5628934652	 2.8304581786	 0.100465
H	-3.3353255485	-4.4370577178	 3.6532404455	 0.118412
H	-3.8844980299	-4.1987776218	 1.9253872429	 0.128684
H	-2.8661459616	-6.3844395081	 1.2515468034	 0.136293
H	-2.300975223	-6.6838907867	 2.9641102821	 0.119961
31.028	65.1973	95.4609	111.136	159.5159	216.6795	241.0819	281.7382	298.4756	371.6994	427.9391	494.8933	616.9946	749.1225	762.6443	819.383	849.7502	882.6005	893.8175	976.1871	987.4283	988.7676	1031.3351	1055.7752	1075.349	1080.0497	1115.4568	1126.9257	1163.3225	1189.8746	1194.0235	1209.4121	1256.3713	1283.3124	1320.7734	1327.4619	1382.4289	1394.1195	1413.3322	1422.5423	1454.932	1480.3743	1493.8549	1496.3907	1501.8281	1510.4727	1779.3991	3002.3298	3017.2326	3021.0738	3031.8081	3053.6634	3054.448	3098.5849	3104.3362	3126.5674	3139.095	3146.9802	3224.6843	3239.715
CCCN=COC1CC1	CCCN=COC1CC1	
InChI=1S/C7H13NO/c1-2-5-8-6-9-7-3-4-7/h6-7H,2-5H2,1H3	InChI=1S/C7H13NO/c1-2-5-8-6-9-7-3-4-7/h6-7H,2-5H2,1H3
