13
gdb 129539	5.18864	1.04769	0.87248	2.4258	60.91	-0.2619	-0.01	0.2519	1213.2555	0.089384	-489.911544	-489.903671	-489.902727	-489.945638	27.763	
N	-0.0556591069	 1.2357672893	 0.2911393117	-0.561021
C	-0.4416096997	 0.0603904906	-0.2609147797	 0.503158
O	-0.7722229037	-0.1170663759	-1.4043445979	-0.37035
O	-0.4080423198	-0.9020967834	 0.72614543	-0.271336
C	-0.7707335167	-2.1846059459	 0.4672361029	 0.472239
N	-0.5988963104	-3.0299331841	 1.456182156	-0.221719
O	-1.0493600929	-4.2470419746	 0.9618652595	-0.161073
C	-1.4709520993	-4.0806504539	-0.2993664184	 0.083952
C	-1.3286658681	-2.7916744889	-0.6953937429	-0.351947
H	 0.0757138507	 2.0190679929	-0.3231714293	 0.279613
H	 0.3106392529	 1.2650199118	 1.226170694	 0.279839
H	-1.8460920953	-4.9653735669	-0.7904469134	 0.155867
H	-1.5635315908	-2.332164841	-1.6353479024	 0.162778
22.7471	78.4977	187.6998	190.3665	336.5031	379.0908	396.0438	540.7148	606.7563	627.9888	714.2318	758.6476	767.2767	807.8654	876.6561	916.388	944.9177	967.1374	1059.6422	1083.746	1111.9246	1169.3988	1311.5053	1348.7587	1444.7155	1495.8961	1607.1602	1622.2231	1861.8554	3265.0112	3338.4411	3629.4211	3765.596
NC(=O)OC1=NOC=C1	NC(=O)Oc1nocc1	
InChI=1S/C4H4N2O3/c5-4(7)9-3-1-2-8-6-3/h1-2H,(H2,5,7)	InChI=1S/C4H4N2O3/c5-4(7)9-3-1-2-8-6-3/h1-2H,(H2,5,7)
