17
gdb 97095	2.49131	1.22604	1.11239	0.624	77.87	-0.2454	0.0077	0.2531	1204.8659	0.133934	-417.950935	-417.94123	-417.940285	-417.985735	34.518	
C	-0.1123057123	 1.3539060145	-0.016580106	-0.341218
N	-0.2018078088	-0.0890662275	-0.1962311344	-0.325441
C	 0.5553036313	-0.6577965967	-1.0075056698	 0.419581
O	 1.5554906315	-0.1647638492	-1.8288641907	-0.270347
C	 1.9486758591	-1.5025966473	-2.2475671559	-0.089193
C	 0.7952053087	-2.1306939545	-1.4048656264	-0.045586
N	 1.2311087279	-3.0664904396	-0.3776139556	-0.551519
C	-0.2881013116	-2.6997276419	-2.1920639543	 0.341118
C	-1.1866537356	-3.1592654915	-2.8431277624	-0.473348
H	 0.7324112035	 1.8176522243	-0.5390298061	 0.128043
H	-1.0396816609	 1.8165091594	-0.372328932	 0.13357
H	-0.0343452496	 1.575191253	 1.0529599071	 0.127238
H	 1.8811420847	-1.6213075832	-3.3295432389	 0.133661
H	 2.9468599742	-1.758893299	-1.8831375186	 0.122616
H	 1.8012500879	-2.5766320359	 0.3073374886	 0.236432
H	 0.4183126391	-3.4160681993	 0.1211321696	 0.2484
H	-1.984766209	-3.5641029653	-3.4153382943	 0.205992
85.2805	87.9068	106.4794	166.7597	182.5812	221.182	243.7995	297.8885	377.4464	410.4496	514.2985	610.9648	630.7609	659.2039	677.4908	713.9483	768.007	852.6316	940.646	983.5957	995.5291	1046.1731	1077.7549	1103.844	1130.6865	1152.0567	1180.9838	1226.1141	1322.5925	1367.8484	1438.5077	1492.7879	1497.9698	1513.0421	1658.0664	1845.3617	2244.2231	3018.8236	3066.9758	3085.3537	3091.3222	3140.739	3488.487	3501.0219	3572.8469
CN=C1OCC1(N)C#C	CN=C1OC[C@]1(N)C#C	
InChI=1S/C6H8N2O/c1-3-6(7)4-9-5(6)8-2/h1H,4,7H2,2H3	InChI=1S/C6H8N2O/c1-3-6(7)4-9-5(6)8-2/h1H,4,7H2,2H3/t6-/m1/s1
