16
gdb 7333	4.51508	1.2035	0.96343	1.1185	64.33	-0.245	-0.0326	0.2124	1190.3727	0.129526	-417.099826	-417.090902	-417.089957	-417.134079	31.3	
C	-0.1338542584	 1.475439337	 0.0280497119	-0.390901
C	-0.0404221115	-0.0371478961	 0.0463933534	-0.046618
O	-1.3884510857	-0.5540933107	 0.0640791052	-0.214164
C	-1.4992123104	-1.8757063053	 0.08355883	 0.469384
O	-0.5666622913	-2.649666504	 0.0954431478	-0.386334
C	-2.9441201564	-2.3542586954	 0.0808067414	 0.219827
N	-3.0017051434	-3.7091883954	 0.2783084858	-0.532125
N	-3.8916707446	-1.5128702542	-0.0725614041	-0.493829
H	 0.8712531508	 1.9072481688	 0.011539237	 0.12212
H	-0.6749890131	 1.8211921854	-0.8567069668	 0.136906
H	-0.6552087508	 1.8441026364	 0.9154680441	 0.135977
H	 0.4745781426	-0.4308393635	-0.8356416694	 0.12429
H	 0.4895015366	-0.4088864263	 0.9290626868	 0.124807
H	-2.1308307968	-4.2083037517	 0.1772766257	 0.271886
H	-3.8507801014	-4.1983926773	 0.0508419885	 0.252586
H	-4.8016388962	-1.9802111876	-0.0636860073	 0.20619
46.8076	82.0419	128.6167	144.3602	255.0076	317.843	342.4301	369.3474	422.4286	487.5239	522.2201	548.5219	633.7355	805.4891	824.5326	880.9734	890.0282	914.9366	1049.6075	1100.7549	1133.5685	1137.5794	1181.6266	1284.8765	1291.8737	1390.6611	1418.4255	1446.6389	1485.1991	1495.5466	1518.0611	1605.9693	1727.0309	1789.1667	3049.1574	3051.3585	3090.7766	3123.1646	3131.3879	3439.1587	3583.2242	3713.6953
CCOC(=O)C(N)=N	CCOC(=O)C(=N)N	
InChI=1S/C4H8N2O2/c1-2-8-4(7)3(5)6/h2H2,1H3,(H3,5,6)	InChI=1S/C4H8N2O2/c1-2-8-4(7)3(5)6/h2H2,1H3,(H3,5,6)
