12
gdb 42263	3.19799	1.17723	1.00435	4.9775	66.41	-0.3105	-0.0884	0.2221	1127.4094	0.076743	-431.665174	-431.656972	-431.656028	-431.698883	27.928	
O	-0.3040311997	 0.0264490215	-0.34631949	-0.287348
C	-0.2344149798	 1.1833771212	-0.0269659668	 0.325404
C	 1.0185982345	 1.9543102313	-0.1090975516	 0.245747
N	 2.0046220963	 2.5489831174	-0.2041882683	-0.305135
N	-1.2632958562	 1.922099652	 0.5352936167	-0.090631
C	-1.7987572657	 3.1866693307	 0.090286297	-0.239926
C	-2.6444240322	 1.9284169165	 0.1008019348	-0.162664
C	-3.0164784008	 1.3280562782	-1.159663766	 0.315746
N	-3.3493364178	 0.8675173959	-2.1654895784	-0.305014
H	-1.9632226963	 3.9327486652	 0.8612288903	 0.162678
H	-1.4837445994	 3.5622333106	-0.8792148136	 0.174125
H	-3.3742744729	 1.7959399497	 0.8943636758	 0.167018
57.1681	96.4477	136.4385	213.2276	245.9912	271.4536	325.6349	475.3938	534.4302	558.8203	635.286	714.3045	766.5544	813.3785	931.9993	998.3562	1051.4373	1101.6962	1130.6102	1150.9838	1165.9544	1357.4055	1418.5466	1507.5072	1800.0539	2351.3255	2368.3359	3123.5966	3160.8995	3222.9222
O=C(C#N)N1CC1C#N	O=C(C#N)N1C[C@H]1C#N	
InChI=1S/C5H3N3O/c6-1-4-3-8(4)5(9)2-7/h4H,3H2	InChI=1S/C5H3N3O/c6-1-4-3-8(4)5(9)2-7/h4H,3H2/t4-,8?/m1/s1
