19
gdb 73484	2.47017	2.2507	1.58513	1.0271	73.23	-0.2427	0.0843	0.327	907.6016	0.161549	-423.013433	-423.0066	-423.005656	-423.044146	28.722	
C	 0.0600530659	 1.4943367972	-0.0464041577	-0.482817
C	 0.0071332693	-0.0111600519	-0.0502645287	 0.44653
O	 0.649916718	-0.5516543875	-1.1865238927	-0.321101
C	-0.0074458911	-1.7993023056	-1.484947026	-0.092777
C	-0.7340254702	-2.1431150158	-0.1858593515	-0.090188
C	 0.342436965	-2.2134217098	 0.9407584528	-0.221791
C	 0.2690900534	-0.7294712288	 1.3351499508	 0.010176
O	-1.1545456832	-0.583461441	 1.6261870158	-0.30234
C	-1.3291730732	-0.7462693156	 0.2040106501	 0.021342
H	 1.0982919026	 1.8401906199	-0.0234962681	 0.126087
H	-0.411013116	 1.8992467683	-0.9469165967	 0.121648
H	-0.4585263628	 1.8809076918	 0.8343107873	 0.135925
H	-0.6944586335	-1.6640220527	-2.3339524107	 0.094146
H	 0.7489415666	-2.5385044936	-1.7669953028	 0.110045
H	-1.4277269221	-2.9803912095	-0.247009612	 0.075494
H	 0.0484019672	-2.8446523025	 1.7815453415	 0.108445
H	 1.3218210837	-2.5283456818	 0.5719438622	 0.105049
H	 0.9230668686	-0.3369777936	 2.1143419257	 0.074705
H	-2.3035593083	-0.4447761371	-0.1798028895	 0.081421
226.9343	237.9098	249.1375	310.3885	399.7681	442.1594	511.9103	592.6146	641.9969	690.6004	789.0084	829.9905	850.9209	865.6549	886.5657	912.8745	947.6691	948.8529	969.6974	983.4673	1027.5754	1047.6368	1057.999	1129.6266	1131.9111	1166.9411	1186.5608	1206.8039	1211.7588	1237.7242	1257.7925	1273.9247	1310.1691	1330.9014	1353.8792	1384.2381	1409.6578	1481.616	1486.8446	1495.7679	1522.9155	2990.2409	3042.9478	3068.6524	3073.1889	3109.1308	3118.6234	3120.0594	3125.1024	3131.0391	3132.3454
CC12OCC3CC1OC23	C[C@@]12OC[C@H]3C[C@@H]1O[C@@H]23	
InChI=1S/C7H10O2/c1-7-5-2-4(3-8-7)6(7)9-5/h4-6H,2-3H2,1H3	InChI=1S/C7H10O2/c1-7-5-2-4(3-8-7)6(7)9-5/h4-6H,2-3H2,1H3/t4-,5+,6-,7-/m1/s1
