16
gdb 23327	3.36906	1.41495	1.258	1.7772	67.14	-0.2437	-0.0021	0.2416	1012.4039	0.125789	-474.977936	-474.9708	-474.969856	-475.0096	27.859	
O	-0.1488140942	 1.3480973974	 0.0194194188	-0.396311
N	 0.0272204272	-0.0481594785	 0.0022030305	-0.251178
C	-1.0850935251	-0.6548216214	 0.0084897939	 0.442837
C	-1.2505545163	-2.1656760665	-0.007994979	-0.318789
C	-2.7939310763	-2.2303003659	 0.0758067588	 0.031192
C	-3.2523055433	-1.7323279735	 1.4611860927	-0.082844
O	-3.0108032508	-0.3168270935	 1.3624592947	-0.266218
C	-2.5172599805	-0.1331822254	 0.0349424003	 0.076428
O	-3.1881852514	-1.107403018	-0.7386812176	-0.247577
H	 0.7594863481	 1.6672166183	-0.0010296182	 0.308766
H	-0.8986933268	-2.5976007797	-0.9490442104	 0.134322
H	-0.7386876537	-2.6640580252	 0.8188584823	 0.127592
H	-3.2615088513	-3.143932457	-0.285071258	 0.098641
H	-4.3193866329	-1.9084319653	 1.6329126681	 0.1145
H	-2.6734372779	-2.1609433031	 2.2861303003	 0.109973
H	-2.7038637447	 0.8791677873	-0.3092202772	 0.118666
95.779	201.1572	256.54	272.6117	374.1255	398.903	500.9735	563.45	621.2111	654.7802	763.2873	815.9714	842.67	887.9993	906.7887	921.7785	958.1405	986.595	991.2521	1023.1977	1060.5755	1089.2808	1152.9619	1192.6382	1208.9207	1251.7127	1265.6201	1293.6772	1321.6403	1329.4703	1371.2786	1408.6892	1469.7598	1521.2999	1779.9429	3037.7039	3063.9654	3083.866	3113.1324	3149.7869	3189.148	3822.4871
ON=C1CC2COC1O2	ON=C1C[C@H]2CO[C@@H]1O2	
InChI=1S/C5H7NO3/c7-6-4-1-3-2-8-5(4)9-3/h3,5,7H,1-2H2	InChI=1S/C5H7NO3/c7-6-4-1-3-2-8-5(4)9-3/h3,5,7H,1-2H2/t3-,5+/m0/s1
