22
gdb 66157	4.25538	0.73581	0.7142	1.3535	83.38	-0.2249	0.0683	0.2932	1682.4736	0.19245	-404.294823	-404.284886	-404.283941	-404.33052	36.686	
O	-0.0478956672	 1.4557583838	-0.1088725837	-0.47459
C	 0.0047742398	 0.0491873099	-0.0537558461	 0.442001
C	 1.1685925729	-0.4469844661	-0.8800883542	-0.22972
C	 2.5237403737	 0.0270087907	-0.3487459331	-0.142964
N	 3.6087018141	-0.5057581396	-1.1683074569	-0.062083
C	 4.0093715646	 0.3121154346	-2.3099991834	-0.221026
C	 4.8747684274	 0.2141119007	-1.1027460245	-0.222157
C	-0.3766827704	-0.6613836428	 1.2182095614	-0.33049
C	-1.2769510275	-0.7370334708	-0.0082679451	-0.335393
H	-0.7006956022	 1.7677411752	 0.5248587848	 0.279772
H	 1.1570749177	-1.5410494743	-0.9084952219	 0.104958
H	 1.0410067877	-0.0983173212	-1.9124707713	 0.105659
H	 2.5351476864	 1.128873702	-0.304641648	 0.097346
H	 2.6672128381	-0.3389617437	 0.6753839458	 0.097722
H	 4.2619928246	-0.2284879319	-3.2177430404	 0.113254
H	 3.4873893076	 1.2547703353	-2.4699493766	 0.111782
H	 4.9301738633	 1.0921190918	-0.4606104889	 0.107221
H	 5.7707728021	-0.4003179323	-1.1114155717	 0.113056
H	 0.1760122949	-1.5477275333	 1.5119532448	 0.118744
H	-0.7183640424	-0.0599679015	 2.0558627588	 0.104222
H	-2.2062820216	-0.176346272	 0.0182729927	 0.106319
H	-1.3405771535	-1.6754099344	-0.5490978426	 0.116367
55.6789	64.1283	121.3186	126.7468	139.3424	248.9348	294.6666	346.4826	386.4479	419.6019	450.9146	518.3319	726.1675	765.8489	776.348	803.0083	839.0265	880.3936	900.1148	933.5934	954.8517	976.7634	1018.696	1029.5461	1048.5597	1064.5265	1069.8541	1092.2273	1113.1889	1118.5935	1161.6678	1176.2766	1184.0879	1184.4508	1237.7747	1296.1663	1310.3723	1321.5783	1347.499	1398.3379	1438.2467	1460.621	1478.2967	1491.1909	1502.8411	1504.769	1525.528	2966.3351	3033.4306	3047.879	3089.2523	3091.3146	3095.5335	3119.0676	3125.3878	3173.4155	3187.923	3198.9003	3214.7826	3828.871
OC1(CCN2CC2)CC1	OC1(CCN2CC2)CC1	
InChI=1S/C7H13NO/c9-7(1-2-7)3-4-8-5-6-8/h9H,1-6H2	InChI=1S/C7H13NO/c9-7(1-2-7)3-4-8-5-6-8/h9H,1-6H2
