16
gdb 7906	3.53805	1.78237	1.26626	0.7204	68.23	-0.2376	-0.0527	0.1849	952.3798	0.131122	-379.971466	-379.963679	-379.962735	-380.003533	29.281	
C	-0.102381796	 1.5577540854	 0.018919477	-0.383187
C	 0.0546725797	 0.0371969057	-0.0014523597	 0.04637
C	 0.8182431662	-0.5025913912	-1.2353719351	-0.365635
C	 1.9064135303	-1.366178581	-0.6238283492	 0.350709
O	 2.7108869633	-2.0943610193	-1.1524576336	-0.324631
C	 1.7726954897	-1.1507157025	 0.8614061728	 0.276693
N	 2.6940727801	-1.7220078223	 1.6782205774	-0.569598
N	 0.7809245113	-0.4134775325	 1.2035282184	-0.282041
H	 0.8769903243	 2.0462687085	-0.0299100313	 0.11586
H	-0.7016593074	 1.9000972967	-0.8310629148	 0.111283
H	-0.5923428406	 1.8750947307	 0.9430969393	 0.128622
H	-0.9475367981	-0.4095221599	 0.0394792826	 0.087609
H	 0.2041294502	-1.0851799424	-1.9272974133	 0.136366
H	 1.2857334196	 0.2998499305	-1.8172075631	 0.139076
H	 3.2649865058	-2.4416960573	 1.2630870062	 0.268927
H	 2.4930084415	-1.7901968292	 2.6619386965	 0.263578
68.5386	155.9464	253.3078	277.5598	321.8678	345.9309	421.4259	447.6196	510.5607	535.1542	622.8916	650.5061	697.4632	758.0245	844.8256	906.9075	932.1785	1043.1109	1078.738	1105.084	1128.3988	1171.5166	1199.0806	1258.0267	1315.9669	1354.3541	1404.2477	1418.7269	1445.4564	1488.4426	1498.4371	1606.8219	1723.8304	1829.6917	3011.8861	3033.6024	3054.3849	3102.5366	3104.5219	3120.9986	3591.255	3716.026
CC1CC(=O)C(N)=N1	C[C@H]1CC(=O)C(=N1)N	
InChI=1S/C5H8N2O/c1-3-2-4(8)5(6)7-3/h3H,2H2,1H3,(H2,6,7)	InChI=1S/C5H8N2O/c1-3-2-4(8)5(6)7-3/h3H,2H2,1H3,(H2,6,7)/t3-/m0/s1
