18
gdb 6491	3.63321	1.44745	1.27101	3.8562	68.11	-0.2334	0.0349	0.2683	1012.8283	0.153972	-381.13895	-381.130376	-381.129432	-381.172317	31.872	
C	 0.0193003761	 1.6605875358	-0.0941485683	-0.463813
C	-0.2149832587	 0.1638768843	-0.0743582186	 0.331623
C	-1.5725978803	-0.2735631464	 0.4640064162	-0.3407
C	-1.7304187352	-0.0131553265	 1.9672122303	 0.368778
N	-0.8478549745	-0.7174337845	 2.7338768308	-0.505061
O	-2.5776694099	 0.7288331425	 2.4259963361	-0.365219
C	 0.4770695256	-0.6879659822	-1.0753037528	-0.28913
N	 0.9012524126	-0.7173921879	 0.3398462884	-0.351894
H	 1.0163134162	 1.9000960615	-0.4783917773	 0.109797
H	-0.7167746456	 2.1619994878	-0.7311994639	 0.133181
H	-0.0741979579	 2.0860177116	 0.9108295667	 0.141687
H	-2.375140464	 0.2663391934	-0.0431533314	 0.123041
H	-1.7053374099	-1.3444092615	 0.2788144245	 0.117041
H	-0.052326542	-1.1558547077	 2.289716744	 0.269616
H	-0.8206910441	-0.5155097048	 3.7202996999	 0.251749
H	 0.0091883234	-1.6009003063	-1.4329548912	 0.121975
H	 1.1329260075	-0.2056364891	-1.7953557939	 0.115154
H	 1.7503948107	-0.1694964799	 0.4543200705	 0.232176
49.0745	89.4188	178.5664	212.1177	322.2992	334.8263	371.8315	408.1243	438.3127	468.4626	551.8701	615.5335	695.9897	766.5046	834.2139	886.5298	921.8814	927.2746	944.3646	989.0663	1023.41	1054.294	1116.1866	1123.2542	1153.2411	1197.4018	1270.8079	1298.7561	1340.0301	1365.7409	1386.937	1422.4382	1466.8372	1486.0564	1498.2614	1514.0142	1617.4777	1802.0021	3030.0459	3055.6528	3099.6562	3101.8378	3108.6744	3120.3014	3194.0265	3497.9574	3538.787	3695.506
CC1(CC(N)=O)CN1	C[C@@]1(CC(=O)N)CN1	
InChI=1S/C5H10N2O/c1-5(3-7-5)2-4(6)8/h7H,2-3H2,1H3,(H2,6,8)	InChI=1S/C5H10N2O/c1-5(3-7-5)2-4(6)8/h7H,2-3H2,1H3,(H2,6,8)/t5-/m1/s1
