18
gdb 66648	4.14995	1.56933	1.453	1.8519	73.95	-0.2325	0.0863	0.3188	946.9176	0.149792	-401.892412	-401.885671	-401.884727	-401.923209	27.548	
C	-0.1117712066	 1.505326158	-0.0345559416	-0.528901
C	 0.086379378	 0.0309204161	 0.0345809422	 0.357279
C	 0.6753585364	-0.9691688915	-0.8924803386	-0.150922
C	 1.328085083	-1.7602935668	 0.2466082686	 0.133176
O	 1.020821332	-3.1376337997	 0.2955137009	-0.280774
C	-0.4008630147	-3.2237931513	 0.5018800274	-0.086643
C	-0.8522139351	-1.780700271	 0.7011083014	-0.004076
C	 0.3703198377	-0.9828011886	 1.1960002326	-0.186971
N	-0.8083044341	-0.9882636981	-0.5891269107	-0.194527
H	 0.8033797295	 2.0409985636	 0.2408044716	 0.124333
H	-0.3873687286	 1.7990135987	-1.0520084734	 0.137135
H	-0.9106357133	 1.8332619476	 0.6398752378	 0.126328
H	 0.9575643969	-0.8860994409	-1.9343919444	 0.096162
H	 2.4009816958	-1.6168230687	 0.3719078197	 0.088102
H	-0.8872106791	-3.6699008297	-0.374952102	 0.112813
H	-0.5968413896	-3.8575091968	 1.3759048407	 0.102173
H	-1.8103424642	-1.6447031738	 1.2025271146	 0.081095
H	 0.6103894462	-0.7942099071	 2.2396664932	 0.074219
189.1923	202.7588	236.5797	259.2005	425.4002	536.9157	562.2314	670.9732	702.6928	758.5321	786.4365	837.8315	870.9304	899.8123	919.0061	926.796	945.0337	980.3558	994.1742	1029.4628	1043.3115	1085.4132	1085.8593	1104.6683	1140.2238	1153.6625	1194.6819	1208.451	1229.7649	1241.8857	1281.0732	1310.7417	1320.8084	1387.1471	1403.6597	1457.2612	1481.0547	1492.0219	1510.1592	3015.4548	3028.8509	3055.2139	3089.9448	3108.8235	3117.6442	3126.6618	3145.8604	3196.379
CC12C3C4OCC(C14)N23	C[C@@]12[C@H]3[C@@H]4OC[C@@H]([C@H]14)N23	
InChI=1S/C7H9NO/c1-7-4-3-2-9-5(4)6(7)8(3)7/h3-6H,2H2,1H3	InChI=1S/C7H9NO/c1-7-4-3-2-9-5(4)6(7)8(3)7/h3-6H,2H2,1H3/t3-,4-,5+,6+,7-,8?/m0/s1
