19
gdb 61457	2.74551	1.05075	0.879	2.4415	72.58	-0.2458	0.0566	0.3024	1360.9281	0.15866	-456.36502	-456.355326	-456.354382	-456.400208	35.374	
C	-0.0610242232	 1.5196584666	-0.0633044707	-0.402393
C	 0.0084223181	-0.0132478459	 0.0216843917	 0.021571
N	-1.307586881	-0.6280431478	 0.0848022188	-0.352951
C	-2.0192932713	-0.6331509838	 1.2626240888	 0.461847
N	-3.3370296549	-1.0534728756	 1.1239449924	-0.567703
O	-1.5495134669	-0.2842619837	 2.3310845858	-0.399965
C	 0.7675596513	-0.5923016849	-1.1603372464	 0.082726
C	 0.6052378746	-1.9714819455	-1.6257147415	-0.185601
O	-0.0095674096	-0.8816419301	-2.3309495994	-0.248357
H	 0.9437555503	 1.9553398796	-0.0743788486	 0.113175
H	-0.5804114585	 1.8357811812	-0.9741784957	 0.120023
H	-0.5955175743	 1.9106645133	 0.8049938818	 0.145719
H	 0.5299450711	-0.2871214423	 0.9444623763	 0.121938
H	-1.8046058805	-0.6535556506	-0.7936976612	 0.248026
H	-3.5448576485	-1.7158340477	 0.3916522333	 0.247048
H	-3.7658538299	-1.2720781789	 2.0103722065	 0.259779
H	 1.7128572499	-0.0914025601	-1.3718456815	 0.097305
H	 1.4209385998	-2.4608300803	-2.1548694277	 0.119416
H	-0.0844506766	-2.6298793135	-1.1032638827	 0.118396
52.3455	90.1209	96.4024	159.5952	220.4379	241.83	291.5568	377.2122	397.4972	456.6035	480.8895	525.2139	559.7503	613.9344	652.7599	779.0129	779.7665	857.0949	901.038	949.214	993.4742	1032.2548	1074.1384	1091.3299	1103.4233	1128.659	1161.1493	1175.0208	1202.8958	1275.6671	1297.1124	1342.0292	1385.2435	1400.1731	1431.9994	1488.3811	1501.5318	1518.5715	1527.3573	1626.2251	1795.3755	3035.5662	3069.4794	3095.7875	3103.2632	3110.5046	3134.2919	3188.8926	3573.9688	3607.9353	3689.6007
CC(NC(N)=O)C1CO1	C[C@@H](NC(=O)N)[C@H]1CO1	
InChI=1S/C5H10N2O2/c1-3(4-2-9-4)7-5(6)8/h3-4H,2H2,1H3,(H3,6,7,8)	InChI=1S/C5H10N2O2/c1-3(4-2-9-4)7-5(6)8/h3-4H,2H2,1H3,(H3,6,7,8)/t3-,4-/m1/s1
