17
gdb 8800	4.96472	1.14098	0.94391	1.2528	67.06	-0.2382	-0.0583	0.1799	1237.5317	0.140105	-401.057383	-401.047847	-401.046903	-401.092599	32.121	
C	-0.0338390646	 1.5442507931	 0.0276899953	-0.38708
C	 0.1237551717	 0.0272048131	 0.0053955582	-0.270902
C	 0.6833714364	-0.501122093	-1.2910491169	 0.298403
O	 0.9856731875	 0.1931808394	-2.2371633209	-0.31594
C	 0.8630202129	-2.0367081824	-1.3647396952	 0.31984
O	 0.5675703489	-2.7607142299	-0.4283017812	-0.373499
N	 1.3668787468	-2.4320359139	-2.5528986908	-0.301064
C	 1.6318991794	-3.8155083014	-2.8824548009	-0.334401
H	 0.9274723136	 2.0416984644	-0.1267366884	 0.129907
H	-0.7050344116	 1.8815040452	-0.7667740292	 0.129918
H	-0.4421444414	 1.8734391481	 0.9867840939	 0.115577
H	 0.7745280241	-0.3358370441	 0.8114815295	 0.144785
H	-0.8262510275	-0.4928960164	 0.1844962316	 0.14478
H	 1.5532242734	-1.6916342752	-3.2142795577	 0.265363
H	 1.0438727623	-4.1366789295	-3.7492257163	 0.132731
H	 2.6931527785	-3.9746735492	-3.1029891041	 0.132731
H	 1.3525476797	-4.4197621482	-2.0179645069	 0.16885
54.4893	66.4953	94.3685	141.0872	154.9767	197.7744	268.0135	326.159	369.5836	429.9235	513.7159	624.6029	690.129	703.8061	824.7984	831.9418	953.5766	1008.372	1079.5614	1093.4569	1152.529	1154.4105	1182.5923	1253.5414	1256.8857	1378.3466	1416.4062	1431.0865	1444.1032	1494.2744	1494.8325	1497.7335	1498.8852	1569.8484	1781.5483	1799.0471	3030.1454	3038.9779	3050.8656	3059.6488	3083.3245	3122.6212	3123.9714	3148.3666	3607.9777
CCC(=O)C(=O)NC	CCC(=O)C(=O)NC	
InChI=1S/C5H9NO2/c1-3-4(7)5(8)6-2/h3H2,1-2H3,(H,6,8)	InChI=1S/C5H9NO2/c1-3-4(7)5(8)6-2/h3H2,1-2H3,(H,6,8)
