22
gdb 8186	2.56707	2.14407	1.5743	0.2159	82.46	-0.2378	0.0877	0.3255	961.0775	0.199357	-313.053683	-313.04488	-313.043936	-313.085933	34.458	
C	-0.0310491673	 1.521889809	 0.035600141	-0.463224
C	 0.0546749607	 0.004379993	 0.0415501793	 0.296112
C	-1.1696977948	-0.6337608412	-0.6000095738	-0.458002
C	 1.3418325459	-0.7492679872	-0.2276489327	-0.137545
C	 2.5674449821	-0.0192136724	 0.3266132896	-0.239883
C	 1.9103402476	-0.0304597206	 1.7424291478	-0.288006
C	 0.6916092733	-0.7825256137	 1.172300723	 0.316787
C	 0.0194042202	-1.8807233808	 1.9515984272	-0.49788
H	 0.8440236904	 2.0046480129	 0.4740068113	 0.117039
H	-0.1349152891	 1.8972000376	-0.9895250982	 0.110258
H	-0.9098847713	 1.86067644	 0.5974270029	 0.110034
H	-1.3208887096	-0.2295772636	-1.6075906076	 0.112279
H	-1.0730170553	-1.7184821781	-0.6950649844	 0.1143
H	-2.0790299952	-0.4272122138	-0.0230090128	 0.111627
H	 1.3728264808	-1.5271973084	-0.9841326239	 0.07185
H	 3.473696452	-0.6282382592	 0.291588801	 0.098274
H	 2.7962577337	 0.9573812494	-0.1126748728	 0.09318
H	 2.4721141651	-0.6497530608	 2.4469703428	 0.096499
H	 1.7183512379	 0.9357245931	 2.220411831	 0.091029
H	-0.4946386106	-1.4719528491	 2.8314030288	 0.115637
H	-0.7239599703	-2.4253520359	 1.3645852745	 0.117235
H	 0.7536011337	-2.6091821002	 2.315881146	 0.112401
165.9676	172.3433	182.7523	213.5079	250.8635	280.598	317.9731	349.3381	368.2378	437.8337	492.6193	632.6555	655.0886	707.661	792.6424	873.613	924.8461	934.2422	956.0078	963.9686	969.5099	998.2262	1026.6063	1038.0114	1108.4308	1126.565	1150.4288	1188.4235	1200.0501	1225.6839	1234.4528	1263.515	1287.2367	1310.1463	1402.9554	1411.1086	1425.4432	1435.2052	1472.0448	1486.7453	1487.3274	1490.2327	1497.859	1506.6245	1510.1498	1517.062	3016.5079	3021.962	3026.6624	3039.7824	3046.9905	3067.3881	3075.0725	3080.5548	3084.2826	3103.5433	3104.7254	3115.805	3126.5871	3154.7426
CC1(C)C2CCC12C	CC1(C)[C@H]2CC[C@@]12C	
InChI=1S/C8H14/c1-7(2)6-4-5-8(6,7)3/h6H,4-5H2,1-3H3	InChI=1S/C8H14/c1-7(2)6-4-5-8(6,7)3/h6H,4-5H2,1-3H3/t6-,8-/m1/s1
