18
gdb 11288	3.74922	1.44677	1.30627	3.1628	71.48	-0.2391	0.0311	0.2702	1007.2874	0.155802	-344.006512	-343.998463	-343.997519	-344.039543	29.45	
C	-0.2046388532	 1.4482984779	 0.0382837013	-0.414324
C	 0.0953511466	-0.0434720121	 0.1664376191	 0.038611
C	 0.7154605759	-0.679227336	-1.1047308071	-0.166804
N	 1.7761599885	-1.5885116057	-0.6233355799	-0.294916
C	 1.640373428	-1.7697196745	 0.8213954312	-0.128624
C	 1.1087483196	-0.3972771162	 1.2716360684	-0.214566
C	 0.7101143476	-2.860593001	 1.194370422	 0.257996
N	-0.0114984513	-3.7305082931	 1.4407505096	-0.332561
H	 0.70852247	 2.0142378404	-0.1786681293	 0.119012
H	-0.9169354101	 1.6408921401	-0.7706025094	 0.120647
H	-0.6371197009	 1.846773028	 0.9617194326	 0.119583
H	-0.8386501874	-0.5712552879	 0.3920214341	 0.096936
H	-0.0495624346	-1.1980775551	-1.6953575216	 0.105014
H	 1.1620911577	 0.087297159	-1.7512081087	 0.104256
H	 1.8119275975	-2.4647181863	-1.1274551734	 0.233872
H	 2.612009852	-2.0015283756	 1.2717082136	 0.1218
H	 1.9461333999	 0.3081921929	 1.2694005094	 0.113715
H	 0.6720431042	-0.4163525247	 2.2719129581	 0.120352
46.4401	94.3674	184.2999	243.9137	272.2103	310.2128	415.176	459.0955	520.7991	614.3405	675.8242	788.9339	823.5572	848.7162	927.7751	936.387	947.2952	964.6528	1028.0159	1069.224	1134.9398	1143.0515	1165.2181	1205.9457	1224.8655	1266.1315	1307.1404	1347.521	1348.3846	1358.1962	1393.1583	1413.6785	1446.3371	1483.47	1496.9649	1501.0204	1528.3768	2339.1267	3009.6021	3027.1863	3029.2288	3044.2905	3048.0212	3060.2248	3098.0301	3102.3305	3122.3548	3573.0655
CC1CNC(C1)C#N	C[C@H]1CN[C@@H](C1)C#N	
InChI=1S/C6H10N2/c1-5-2-6(3-7)8-4-5/h5-6,8H,2,4H2,1H3	InChI=1S/C6H10N2/c1-5-2-6(3-7)8-4-5/h5-6,8H,2,4H2,1H3/t5-,6+/m1/s1
