23
gdb 86893	2.99558	1.00015	0.85057	3.0946	86.4	-0.2444	-0.0149	0.2295	1443.4116	0.205566	-388.325518	-388.315821	-388.314876	-388.3604	36.401	
C	 0.186817309	 1.6617007155	-0.0885228813	-0.395678
C	 0.0878385968	 0.1319859806	-0.0155247392	 0.006703
C	 0.7281440423	-0.5509524059	-1.2399002029	-0.244342
C	 2.2525696932	-0.5949349885	-0.9322434613	-0.049329
C	 2.3425841798	-0.5564812806	 0.6258371626	-0.254292
C	 0.8859908814	-0.5054674066	 1.1491333979	 0.052828
C	 0.73889624	 0.14746047	 2.5227461262	-0.419903
C	 2.8869329456	-1.8393649195	-1.5018514576	 0.154501
O	 3.7382691031	-1.8710740084	-2.3518783963	-0.254961
H	 1.2256252278	 2.0061364949	-0.1382829854	 0.11732
H	-0.3256475781	 2.0360817668	-0.9806353033	 0.11509
H	-0.2769420037	 2.1361300087	 0.7812190812	 0.117693
H	-0.9719920686	-0.1384671038	 0.0603729245	 0.067149
H	 0.3406593572	-1.5746509191	-1.3277258419	 0.097186
H	 0.5164339342	-0.0453153113	-2.1858891231	 0.105878
H	 2.7630278349	 0.2618711755	-1.3774876394	 0.091158
H	 2.8811425158	-1.4203937588	 1.0312923636	 0.102594
H	 2.9031871001	 0.3294725787	 0.9398878017	 0.109285
H	 0.5296941964	-1.5415859264	 1.2321573129	 0.070697
H	 1.1209445066	 1.1735587359	 2.5259973392	 0.11823
H	-0.3091131837	 0.1781781636	 2.8400328373	 0.11377
H	 1.2965527948	-0.4118902787	 3.2814028846	 0.115117
H	 2.4857391052	-2.7841987825	-1.0567173099	 0.063307
53.9967	74.1095	145.9336	220.481	239.6507	266.5408	283.8141	301.6956	351.1664	394.5219	421.9867	500.4966	619.6055	672.7621	768.4128	850.4069	861.3745	884.0656	927.0003	949.8347	961.2105	1000.8289	1035.6757	1047.6819	1061.114	1092.6031	1112.0484	1132.18	1176.0051	1220.7707	1225.3767	1271.9	1294.8119	1312.1768	1313.6382	1339.6762	1350.6771	1380.5432	1386.5486	1412.7672	1417.0409	1428.5903	1485.5372	1495.2721	1495.6318	1496.8342	1505.0446	1512.436	1834.6013	2821.1041	3000.6857	3018.3341	3030.2586	3035.2419	3037.1726	3042.4611	3073.9407	3084.6953	3095.0573	3096.783	3099.0255	3102.4815	3108.519
CC1CC(CC1C)C=O	C[C@H]1C[C@@H](C[C@H]1C)C=O	
InChI=1S/C8H14O/c1-6-3-8(5-9)4-7(6)2/h5-8H,3-4H2,1-2H3	InChI=1S/C8H14O/c1-6-3-8(5-9)4-7(6)2/h5-8H,3-4H2,1-2H3/t6-,7+,8-
