14
gdb 48516	3.47664	1.70048	1.47079	2.4742	64.07	-0.2538	-0.0514	0.2024	874.7247	0.100835	-436.584098	-436.577636	-436.576692	-436.615535	24.663	
O	-0.513409086	 0.5616643548	 0.6801597	-0.240602
C	 0.0267481762	 1.1198421902	-0.2421026213	 0.014683
C	 1.2632565234	 1.9331313989	-0.1031318556	 0.264256
C	 1.826493412	 2.6626799559	 1.1462166644	 0.005981
O	 2.8575116277	 1.6720945951	 1.353442916	-0.276279
C	 2.7460397363	 1.4059546895	-0.0521493202	 0.01515
C	 3.0483732489	 2.7203108882	-0.8132316998	-0.058752
C	 2.3547736447	 3.6730391982	 0.0939729327	-0.057171
N	 1.6117946567	 3.0725867106	-1.0680227691	-0.211794
H	-0.3601037102	 1.0549842166	-1.2826729284	 0.094311
H	 1.2877180933	 2.9608497396	 2.0413902857	 0.113163
H	 3.1222982756	 0.4380016952	-0.3742834011	 0.109391
H	 3.8416469334	 2.9705642793	-1.5050977809	 0.113183
H	 2.5534638581	 4.7339409277	 0.1653863375	 0.114481
65.5074	151.2335	223.0305	432.8971	537.4751	573.6235	699.5911	758.0667	769.0722	812.7321	828.7337	839.1299	866.221	882.7519	930.0304	948.1204	964.2695	1032.5643	1045.1532	1074.5788	1083.8938	1125.1659	1132.8542	1190.7811	1214.3702	1265.791	1281.8503	1314.1377	1352.1305	1413.8763	1811.3763	2895.9068	3157.4072	3168.6068	3203.3644	3214.966
O=CC12C3OC1C1C3N21	O=C[C@@]12[C@H]3O[C@@H]1[C@@H]1[C@H]3N21	
InChI=1S/C6H5NO2/c8-1-6-4-2-3(7(2)6)5(6)9-4/h1-5H	InChI=1S/C6H5NO2/c8-1-6-4-2-3(7(2)6)5(6)9-4/h1-5H/t2-,3+,4+,5-,6-,7?
