17
gdb 10712	2.64794	2.03011	1.38827	5.2213	64.21	-0.2436	0.0206	0.2642	930.479	0.142231	-401.016356	-401.008199	-401.007254	-401.049076	30.113	
C	-1.5604214135	-1.319065679	-0.548390755	-0.331123
N	-0.4393800893	-0.4026612748	-0.33054258	-0.385065
H	-0.6417537473	 1.0872110528	-1.5399970692	 0.300545
H	-0.2018552678	-0.341870907	 0.6511036435	 0.234563
C	 0.732356791	-0.624861946	-1.1494752891	 0.153795
C	 2.0802766219	-0.8840072457	-0.5041587536	-0.29236
C	 1.4090534789	-1.979142742	-1.2727589213	-0.282466
C	 0.7810533583	 0.2551758364	-2.382115438	 0.426104
O	-0.1628084797	 1.2079932901	-2.3880826651	-0.381506
O	 1.5937413584	 0.1298740706	-3.2617812627	-0.357859
H	-1.8980311179	-1.2378398693	-1.5860194374	 0.142955
H	-1.3172629293	-2.3736761358	-0.3540137032	 0.115631
H	-2.3909303073	-1.0278101314	 0.1001918856	 0.127731
H	 2.9343556829	-0.3912373451	-0.9529541875	 0.146714
H	 2.1011406168	-0.9534657095	 0.5789728365	 0.114752
H	 0.9746151585	-2.8007895757	-0.7149289205	 0.117151
H	 1.8025016155	-2.2268511483	-2.2509071829	 0.15044
66.4722	119.5625	202.8448	238.1912	262.5664	267.6255	369.4289	458.1955	513.5627	560.0448	699.5105	752.6961	764.477	785.38	860.5286	894.3689	935.4779	958.6648	985.9123	1062.5775	1087.5881	1095.7049	1152.728	1170.9851	1193.5933	1203.5643	1287.4329	1325.203	1416.9591	1445.2301	1463.2628	1471.739	1481.9808	1497.4274	1517.6224	1857.9187	2998.8688	3080.611	3119.3011	3131.4551	3145.0157	3226.4597	3244.2969	3498.9267	3560.4014
C[NH2+]C1(CC1)C([O-])=O	CNC1(CC1)C(=O)O	
InChI=1S/C5H9NO2/c1-6-5(2-3-5)4(7)8/h6H,2-3H2,1H3,(H,7,8)	InChI=1S/C5H9NO2/c1-6-5(2-3-5)4(7)8/h6H,2-3H2,1H3,(H,7,8)
