23
gdb 69532	2.90522	1.50399	1.35237	0.1453	89.07	-0.2399	0.0967	0.3365	1102.8328	0.207044	-351.130777	-351.122586	-351.121642	-351.162608	34.392	
C	 0.0109966183	 1.4646994757	 0.0017321183	-0.478822
C	-0.0076742797	-0.0437579529	-0.013652353	 0.374243
C	-0.8728294916	-0.8147257416	 0.9579238313	-0.375486
C	 0.6330165809	-0.9291840361	 1.039485345	-0.108619
C	 1.3896894426	-1.949437506	 0.1538478212	 0.342493
C	 2.1937762978	-3.0252122749	 0.8487129109	-0.500872
C	 0.368749172	-2.276645996	-0.9760396024	-0.277436
C	 0.5085950565	-0.7644465257	-1.2838357404	-0.090207
C	 2.0158678888	-0.9572355317	-0.8969921315	-0.249736
H	 0.9600366732	 1.8584733855	-0.3811354312	 0.113533
H	-0.7914879577	 1.8804408828	-0.6200939141	 0.113902
H	-0.1244829708	 1.8544507408	 1.0159944851	 0.111646
H	-1.3317240487	-0.2120508949	 1.7369954417	 0.101331
H	-1.4924564673	-1.6490831564	 0.6520162629	 0.107636
H	 1.1532432461	-0.5187913296	 1.899795268	 0.075161
H	 1.5471904696	-3.6708441172	 1.4539946418	 0.116808
H	 2.7204167002	-3.6591939666	 0.1274863234	 0.10954
H	 2.9432413945	-2.5889368711	 1.5196374936	 0.112302
H	 0.8310878574	-2.8868281739	-1.7559563761	 0.09027
H	-0.6058564825	-2.6986687808	-0.7272196454	 0.08906
H	 0.2084300331	-0.3473564113	-2.2464045101	 0.053533
H	 2.5586542861	-0.089443163	-0.5105311697	 0.085316
H	 2.6047657212	-1.460705085	-1.6700161293	 0.084404
171.1304	205.157	219.9753	241.8811	297.294	332.8117	392.6399	451.4176	517.0288	549.1297	566.3023	615.1523	713.9152	777.4412	834.425	840.4079	860.8037	894.4701	920.8008	952.2833	962.433	965.3184	996.1151	1024.5565	1036.7721	1048.4786	1053.6065	1081.5581	1094.1326	1124.6552	1142.3192	1189.3619	1201.6487	1225.914	1229.7985	1241.4923	1262.5806	1300.8703	1330.3931	1388.0704	1414.4667	1417.6838	1478.9672	1486.8102	1493.0747	1494.0619	1500.5126	1501.8347	1541.1381	3016.5892	3022.2936	3043.2737	3069.8849	3072.5005	3084.7555	3091.5123	3092.8787	3099.8887	3104.1725	3117.9489	3128.2989	3151.0863	3203.4267
CC12CC1C1(C)CC2C1	C[C@]12C[C@H]1[C@@]1(C)C[C@@H]2C1	
InChI=1S/C9H14/c1-8-3-6(4-8)9(2)5-7(8)9/h6-7H,3-5H2,1-2H3	InChI=1S/C9H14/c1-8-3-6(4-8)9(2)5-7(8)9/h6-7H,3-5H2,1-2H3/t6-,7-,8+,9+/m0/s1
