19
gdb 85004	2.16998	1.65436	1.01501	5.5456	80.76	-0.2102	0.0035	0.2137	1192.7094	0.159401	-419.276053	-419.266481	-419.265537	-419.310031	35.629	
C	-0.031913674	 1.5436404091	-0.018917515	-0.40219
C	-0.0252042621	 0.0081923169	 0.0346628375	-0.037956
N	 0.6878660333	-0.5955044343	-1.0746221676	-0.355577
C	 1.8409872168	-1.2547390676	-0.6578104978	 0.364263
O	 2.6952675829	-1.7104899484	-1.3929702679	-0.398529
C	 1.8016204614	-1.2735547705	 0.8197788616	 0.094795
C	 2.8315383497	-1.9912812043	 1.6308622078	-0.527293
C	 0.7363852804	-0.551231651	 1.2236908835	 0.239677
N	 0.2621001295	-0.3518823362	 2.4993714406	-0.588879
H	 0.9912641036	 1.9302503213	-0.0251465692	 0.134547
H	-0.5439089684	 1.8940240771	-0.9206929503	 0.125269
H	-0.5629154434	 1.9705822135	 0.8392040586	 0.111512
H	-1.0654586885	-0.3489073781	 0.0712650901	 0.10001
H	 0.6564734919	-0.2006520177	-2.0009369706	 0.24121
H	 3.6828970163	-2.2320972501	 0.9883936533	 0.155561
H	 3.1954427272	-1.3861589864	 2.4711463401	 0.106535
H	 2.4538330274	-2.9337894576	 2.0470568919	 0.127465
H	 0.908311278	-0.5560815689	 3.2474351839	 0.257822
H	-0.269601182	 0.4905572532	 2.6603767194	 0.251758
104.2594	109.5257	136.2264	216.0238	233.799	248.9776	288.5385	340.8679	366.7778	392.5859	445.2386	533.826	564.4159	575.5024	657.6835	695.6262	731.5736	769.5999	859.8079	949.2997	1001.1639	1057.5355	1059.4266	1089.5532	1154.8941	1159.1845	1211.2645	1254.7073	1324.3602	1366.0628	1380.0112	1399.8221	1408.1207	1429.3003	1486.3337	1492.9115	1496.9462	1497.544	1646.7189	1724.6269	1806.5984	2989.9685	3012.3004	3031.392	3057.8996	3096.826	3114.7941	3119.9901	3565.7676	3644.0563	3668.7012
CC1NC(=O)C(C)=C1N	C[C@H]1NC(=O)C(=C1N)C	
InChI=1S/C6H10N2O/c1-3-5(7)4(2)8-6(3)9/h4H,7H2,1-2H3,(H,8,9)	InChI=1S/C6H10N2O/c1-3-5(7)4(2)8-6(3)9/h4H,7H2,1-2H3,(H,8,9)/t4-/m1/s1
