19
gdb 92437	2.54022	1.56454	1.46684	2.9088	73.79	-0.2326	-0.0094	0.2232	1002.2115	0.161806	-423.05751	-423.049821	-423.048877	-423.089662	30.411	
O	 0.0154519266	 1.4259327159	-0.0986378066	-0.433629
C	 0.0114134915	 0.0123494237	-0.0049419311	 0.125152
C	 0.6391842726	-0.543357171	 1.3274350422	-0.267267
C	-0.5059397655	-1.3532290351	 1.9792778833	-0.111564
C	-1.5802542522	-0.3622484994	 2.4838342861	-0.224986
C	-2.2055127035	 0.2198694084	 1.1639692363	-0.22339
C	-1.4388292002	-0.5095557675	 0.0342229356	-0.134888
C	-1.2028558608	-1.8701047512	 0.7107128768	 0.414265
O	-1.484190628	-2.981219819	 0.3608276286	-0.32776
H	 0.9312407925	 1.721759664	-0.1095595514	 0.284507
H	 0.5288450661	-0.4217417538	-0.872000298	 0.077513
H	 1.5099104092	-1.1728372768	 1.1225424559	 0.106043
H	 0.9590510986	 0.2872048225	 1.9648018396	 0.102841
H	-0.1970510323	-2.1160340675	 2.6920658132	 0.079597
H	-2.3346286421	-0.879067146	 3.083383498	 0.108628
H	-1.139065582	 0.4185233497	 3.1095545067	 0.105113
H	-3.2734205067	-0.0034594843	 1.1019093743	 0.106085
H	-2.0785070028	 1.2992559109	 1.0850693973	 0.130587
H	-1.9395805008	-0.5400132734	-0.9312921071	 0.083151
87.383	142.7334	253.8736	260.3454	307.8531	394.8739	444.4035	511.2401	546.1586	633.4633	713.8855	772.6295	782.4169	834.9444	864.2816	874.5373	880.7312	950.8601	988.4248	999.6229	1033.2329	1057.4925	1087.3357	1123.806	1144.5132	1154.3356	1185.0053	1214.5015	1230.7279	1269.8258	1275.4846	1286.772	1312.9011	1329.97	1343.1749	1357.0472	1425.5032	1480.5456	1490.2763	1508.8915	1881.5056	2994.0222	3046.4017	3053.6188	3073.5366	3095.415	3097.2054	3131.5462	3137.2573	3141.1066	3816.8481
OC1CC2CCC1C2=O	O[C@H]1C[C@H]2CC[C@@H]1C2=O	
InChI=1S/C7H10O2/c8-6-3-4-1-2-5(6)7(4)9/h4-6,8H,1-3H2	InChI=1S/C7H10O2/c8-6-3-4-1-2-5(6)7(4)9/h4-6,8H,1-3H2/t4-,5+,6+/m1/s1
