15
gdb 10820	3.96766	1.70599	1.41609	2.6486	63.68	-0.2488	-0.0444	0.2045	875.2959	0.121032	-399.839284	-399.832205	-399.831261	-399.870583	26.81	
O	 0.2327846818	 1.3438881533	 0.2895337221	-0.427427
C	 0.0331717466	-0.046527402	 0.0536865615	 0.088947
C	-1.4474445953	-0.4369944947	 0.0184164357	-0.195236
N	-2.0425162908	-0.0593115456	-1.256191319	-0.338597
C	-1.4319052532	-0.3370094936	-2.4583250725	 0.374067
O	-2.0298528249	-0.3156611482	-3.5197132048	-0.373103
C	 0.0317102149	-0.5921111619	-2.3681020105	-0.129236
C	 0.7161279798	-0.4633860197	-1.2283959747	-0.108557
H	-0.1306517766	 1.8144888584	-0.4700791236	 0.288543
H	 0.497127473	-0.5453777853	 0.9101141984	 0.100534
H	-1.5350025359	-1.5196644932	 0.1993956572	 0.110491
H	-1.9693570385	 0.0844155359	 0.8251028665	 0.124194
H	-3.0481855513	 0.0123809322	-1.3154094789	 0.249511
H	 0.5045274859	-0.8353838816	-3.3130412242	 0.121021
H	 1.7963196644	-0.577466484	-1.2064999732	 0.114847
96.5833	169.7917	238.3493	345.3527	382.4062	417.5118	458.5661	526.2348	579.6594	627.6795	722.9335	783.9368	842.1908	857.1227	909.1034	973.3846	1015.2941	1020.5499	1095.6077	1133.2559	1155.3128	1249.6591	1278.3643	1321.9336	1338.3261	1393.2597	1405.0715	1426.1267	1462.8267	1504.7036	1686.0143	1786.2734	2983.6702	3070.2019	3092.9357	3169.4586	3205.3333	3607.3832	3794.611
OC1CNC(=O)C=C1	O[C@H]1CNC(=O)C=C1	
InChI=1S/C5H7NO2/c7-4-1-2-5(8)6-3-4/h1-2,4,7H,3H2,(H,6,8)	InChI=1S/C5H7NO2/c7-4-1-2-5(8)6-3-4/h1-2,4,7H,3H2,(H,6,8)/t4-/m1/s1
