19
gdb 63564	2.64149	1.46543	1.10698	3.7676	78.76	-0.2359	0.0157	0.2516	1150.9856	0.157507	-419.188876	-419.179627	-419.178683	-419.222353	34.829	
C	-0.0589393466	 1.5089588263	-0.0681369285	-0.454299
C	-0.0648095607	-0.0002754763	 0.0316353903	 0.277806
C	-1.1581953289	-0.7225271928	-0.7211329923	-0.463738
O	 1.2439767436	-0.6114423254	-0.0605918123	-0.311639
C	 0.5844622465	-0.6497515953	 1.1819412105	 0.317385
C	 1.135775353	-0.0705664952	 2.5024030838	-0.254197
N	 0.8088750102	-1.3775731228	 3.1056804301	-0.353831
C	 0.2140475896	-1.9025990432	 1.9548767121	 0.323466
N	-0.4022164956	-2.9609181542	 1.6390665426	-0.555948
H	 0.7946655246	 1.9374467582	 0.4623919638	 0.12605
H	 0.0015878531	 1.8175183943	-1.1174101215	 0.130458
H	-0.9805578871	 1.9280470363	 0.3498098029	 0.122452
H	-1.0597693236	-0.5318955169	-1.7955346532	 0.119877
H	-1.1089291921	-1.7965189367	-0.5363041174	 0.171262
H	-2.1418954149	-0.3588922202	-0.4051298102	 0.115483
H	 2.2048314942	 0.1604688439	 2.5012402353	 0.124401
H	 0.5693513017	 0.7774457287	 2.9037723547	 0.111842
H	 0.5013749441	-1.5316982019	 4.0545416481	 0.241979
H	-0.5082857512	-3.5942940169	 2.4332094813	 0.211191
121.0776	141.8796	160.7034	186.0405	210.0526	260.2815	310.3355	339.2685	373.2095	437.8307	473.7462	515.7023	612.6668	668.605	732.2607	780.298	833.9011	888.8138	947.0253	956.5244	981.7793	1001.6868	1046.2361	1071.0934	1093.602	1141.9751	1150.2298	1191.3028	1233.1158	1254.3504	1325.2944	1361.8819	1408.9128	1420.682	1468.4602	1477.191	1483.4529	1499.1795	1514.7103	1532.9047	1791.1079	3033.204	3034.3407	3038.3227	3090.7269	3095.106	3100.5226	3124.4356	3148.1701	3462.9092	3610.5806
CC1(C)OC11CNC1=N	CC1(C)O[C@]21CN[C]2[NH]	
InChI=1S/C6H10N2O/c1-5(2)6(9-5)3-8-4(6)7/h3H2,1-2H3,(H2,7,8)	InChI=1S/C6H10N2O/c1-5(2)6(9-5)3-8-4(6)7/h3H2,1-2H3,(H2,7,8)/t6-/m1/s1
