15
gdb 27730	2.37161	1.45846	0.90816	2.4913	74.01	-0.2245	-0.0427	0.1818	1204.8502	0.113138	-454.01908	-454.010787	-454.009843	-454.052179	30.153	
C	 0.0259600812	 1.4914796795	 0.1265335546	-0.492864
C	 0.051367474	 0.0051269685	 0.0021753153	 0.221091
C	-0.040203857	-0.7726467755	-1.1420263672	 0.151095
N	 0.0378071488	-2.092424336	-0.6895766962	-0.358032
C	 0.1657135672	-2.0289362602	 0.6443505483	 0.464472
O	 0.2650496483	-3.1404684938	 1.3750153059	-0.410594
N	 0.1794969293	-0.7940578052	 1.1106467274	-0.414307
C	-0.184464636	-0.4902262467	-2.5438632897	 0.060427
O	-0.2464818866	-1.3558223313	-3.4017602272	-0.326742
H	 0.9475837958	 1.8523402117	 0.5951582605	 0.145305
H	-0.0813964904	 1.978269679	-0.8449296603	 0.130536
H	-0.8043606528	 1.8081735451	 0.7664812672	 0.145294
H	-0.0014077894	-2.9037859266	-1.2852155789	 0.28972
H	 0.3472047947	-2.8586624502	 2.2956869126	 0.321482
H	-0.237169167	 0.5869771615	-2.8028783522	 0.073117
100.8249	139.7662	162.7057	221.2777	241.4002	275.3171	421.3545	429.2207	451.7034	559.0752	566.1995	626.2426	679.5107	702.0575	747.3249	863.472	1004.7918	1015.8048	1058.3235	1071.0321	1157.4363	1185.0843	1260.0432	1334.02	1400.092	1413.1292	1429.4654	1472.4282	1482.7719	1556.4801	1611.5288	1631.3549	1746.1996	2918.0217	3040.8679	3095.5311	3132.1988	3661.6004	3796.3257
CC1=C(NC(O)=N1)C=O	Cc1c([nH]c(O)n1)C=O	
InChI=1S/C5H6N2O2/c1-3-4(2-8)7-5(9)6-3/h2H,1H3,(H2,6,7,9)	InChI=1S/C5H6N2O2/c1-3-4(2-8)7-5(9)6-3/h2H,1H3,(H2,6,7,9)
