19
gdb 93660	2.42399	1.52954	1.22359	0.9606	71.1	-0.2512	-0.0375	0.2137	1101.3299	0.157038	-460.189117	-460.179756	-460.178811	-460.223	34.939	
C	 0.2038568292	 1.3993874617	-0.2322099383	-0.398182
C	-0.0534121489	-0.0472067975	 0.1957752777	 0.022402
O	 0.1219747206	-0.9834194978	-0.8670539049	-0.271979
C	 1.4110677533	-1.5963885484	-0.7427290308	-0.136844
C	 1.6143059308	-1.7800111338	 0.7671032693	 0.289451
C	 0.8715885356	-3.0157864921	 1.3014595352	-0.434515
O	 2.9715833377	-1.7909048124	 1.1397750419	-0.479911
C	 0.9281202614	-0.5036828634	 1.2711497642	 0.327265
O	 1.2137943644	 0.0548139348	 2.3001923654	-0.33929
H	 1.2174063433	 1.5188006381	-0.6262350323	 0.127751
H	-0.5068555911	 1.6903556608	-1.0091696034	 0.131529
H	 0.0892084434	 2.0641725323	 0.628550265	 0.139455
H	-1.0827526233	-0.1454157128	 0.5634583768	 0.115275
H	 1.3821074818	-2.531692876	-1.3056228488	 0.1176
H	 2.2106240203	-0.9588775358	-1.1463868563	 0.107676
H	 1.4017544548	-3.9139822189	 0.9723099278	 0.133664
H	 0.8511577031	-3.0054372694	 2.3952577346	 0.126922
H	-0.1560235319	-3.0552296479	 0.9278952735	 0.132163
H	 3.0275823953	-1.2987741815	 1.9719098036	 0.289567
60.6755	146.0951	190.7866	207.1755	242.2756	249.8703	290.8714	334.5484	359.8569	393.3623	440.091	531.5437	586.2871	636.5808	700.7826	760.4506	859.9841	880.0501	962.0792	969.1732	996.2591	1040.5286	1061.088	1107.0674	1127.5989	1148.029	1175.3679	1239.0642	1248.9646	1307.7042	1340.3808	1370.5236	1393.5828	1394.9072	1399.6865	1484.4984	1488.2445	1492.1141	1493.377	1515.9225	1848.1597	3006.8083	3030.4828	3038.7151	3046.8303	3107.9266	3118.5403	3121.2014	3122.6878	3133.1146	3729.8169
CC1OCC(C)(O)C1=O	C[C@H]1OC[C@@](C)(O)C1=O	
InChI=1S/C6H10O3/c1-4-5(7)6(2,8)3-9-4/h4,8H,3H2,1-2H3	InChI=1S/C6H10O3/c1-4-5(7)6(2,8)3-9-4/h4,8H,3H2,1-2H3/t4-,6-/m1/s1
