16
gdb 124199	4.26311	0.78284	0.7683	6.2513	77.67	-0.2483	0.0117	0.26	1530.9072	0.124601	-396.913307	-396.904398	-396.903454	-396.950618	29.973	
C	 0.0072569604	 1.5081224996	 0.0045783486	-0.497214
C	 0.0135456521	 0.0536779162	 0.0403950565	 0.060183
C	 0.0145661604	-1.1490369048	 0.0697423181	 0.098589
C	 0.0085520952	-2.6080400747	 0.1046934602	-0.348801
N	-1.3285448109	-3.1906146505	 0.0004746641	 0.01077
C	-2.2063842795	-3.469484948	 1.0100686609	 0.024843
N	-3.3298707805	-3.9410125361	 0.5359302112	-0.22245
N	-3.2083618594	-3.9735017343	-0.841238843	-0.222444
C	-2.0173013861	-3.5200405397	-1.132991951	 0.024849
H	 0.5920851351	 1.8868513727	-0.8402846534	 0.155615
H	-1.0138209274	 1.8905089256	-0.0981121967	 0.161616
H	 0.43082042	 1.9295668886	 0.9223085031	 0.155619
H	 0.6132569395	-3.0160241552	-0.7125819756	 0.156748
H	 0.4585391412	-2.9735482367	 1.034186813	 0.156745
H	-1.9707986933	-3.3139505416	 2.0517403365	 0.142662
H	-1.6024359368	-3.4124192412	-2.1234833123	 0.142669
14.0216	19.4739	61.8573	185.4149	192.9855	313.8794	321.5347	372.3384	456.3692	642.5877	695.7192	740.9906	774.6863	817.582	847.37	954.2333	964.7039	1019.65	1051.1085	1053.9432	1084.3106	1165.9985	1203.8985	1205.7019	1238.2649	1373.0284	1385.2607	1400.0592	1414.4005	1470.3236	1475.0907	1476.6089	1500.7232	1550.5937	2379.0932	3032.6828	3042.4344	3076.4623	3096.3165	3097.4152	3260.1744	3264.4046
CC#CCN1C=NN=C1	CC#CCn1cnnc1	
InChI=1S/C6H7N3/c1-2-3-4-9-5-7-8-6-9/h5-6H,4H2,1H3	InChI=1S/C6H7N3/c1-2-3-4-9-5-7-8-6-9/h5-6H,4H2,1H3
