20
gdb 90103	3.54465	1.27555	1.19239	1.0094	81.69	-0.2076	0.0748	0.2824	1131.5815	0.170775	-403.004102	-402.996081	-402.995137	-403.036049	32.362	
C	-0.0896637543	 1.5468666489	 0.0022073944	-0.321237
N	 0.0250268679	 0.1054419065	 0.033055956	-0.108128
C	-1.1912950911	-0.6935295773	 0.457228954	-0.278248
C	-0.1839649603	-1.6698833146	 1.1087732646	 0.210292
C	 0.6046337693	-2.3052964796	 2.3066923663	-0.319438
C	 1.7033552387	-1.7752076245	 1.2700854546	-0.167885
C	 0.8235968483	-2.3840173115	 0.156333824	 0.151309
O	 0.6715063304	-3.7830895086	 0.0800602961	-0.452488
C	 0.7779613175	-0.5023969998	 1.1714818492	 0.037124
H	 0.8817016171	 1.9875255413	-0.2458248471	 0.121995
H	-0.8025642907	 1.8476557434	-0.7728779119	 0.119932
H	-0.4285402319	 1.9804180377	 0.9630113456	 0.08801
H	-1.8130963396	-0.1506582943	 1.1850200399	 0.095753
H	-1.8104028271	-1.0578884751	-0.3684857399	 0.109847
H	 0.5435843495	-1.7730860897	 3.2585397411	 0.096582
H	 0.5599172362	-3.3859966577	 2.4302980223	 0.121921
H	 2.7883173219	-1.8538431473	 1.3928989374	 0.064033
H	 0.9317186092	-1.9327516453	-0.8321071609	 0.084631
H	 1.3947961658	-4.1302061865	-0.4503452709	 0.282506
H	 0.7469697634	 0.1200403441	 2.0765867753	 0.063488
152.5762	215.1444	225.6192	236.5805	296.5817	314.5955	383.6115	407.2429	486.1937	530.3829	622.5858	678.3992	772.906	810.6107	864.0195	878.4092	907.1626	918.487	966.1299	1004.3382	1010.8208	1045.4169	1082.1422	1098.2138	1123.4309	1143.2638	1157.3455	1168.9302	1181.9797	1195.7938	1203.7354	1212.5576	1228.0528	1257.7674	1288.0759	1309.8887	1363.9485	1428.8037	1450.1689	1483.6283	1498.2029	1500.6872	1503.2916	2920.0128	2988.8127	3000.6858	3053.756	3055.6874	3077.9779	3078.8019	3089.6685	3098.6088	3161.8407	3827.8303
CN1CC23CC(C2O)C13	CN1C[C@@]23C[C@@H]([C@H]2O)[C@@H]13	
InChI=1S/C7H11NO/c1-8-3-7-2-4(5(7)8)6(7)9/h4-6,9H,2-3H2,1H3	InChI=1S/C7H11NO/c1-8-3-7-2-4(5(7)8)6(7)9/h4-6,9H,2-3H2,1H3/t4-,5-,6-,7-/m1/s1
