14
gdb 9162	6.79483	0.75787	0.70577	3.0168	71.42	-0.2773	-0.0821	0.1952	1534.4495	0.103533	-382.533624	-382.524491	-382.523546	-382.569003	29.561	
C	-0.0312710788	 1.5163197157	 0.1276873519	-0.388276
C	 0.1524197825	 0.0061583573	 0.0012596056	-0.285454
C	 0.5932719685	-0.4267633148	-1.3839879593	 0.221393
O	 0.7892072321	 0.3358754821	-2.3037651053	-0.276473
C	 0.7780631807	-1.8621050905	-1.5590209535	 0.029195
C	 0.9442941209	-3.0521028185	-1.7050084168	 0.107816
C	 1.111988168	-4.4731432629	-1.8981266066	 0.020532
O	 2.1116495886	-5.0812572006	-1.598947961	-0.214827
H	 0.9014844496	 2.0429791753	-0.0880312406	 0.138841
H	-0.7829086619	 1.8797140438	-0.5773494628	 0.137334
H	-0.3504825826	 1.7757182439	 1.140357431	 0.117845
H	 0.894956456	-0.3741658789	 0.7161345303	 0.141279
H	-0.7728068639	-0.536978071	 0.2383826478	 0.136596
H	 0.2321519302	-4.9723951308	-2.3505292807	 0.114199
51.1502	54.6041	92.9288	108.9734	192.8674	236.9708	270.8446	289.7138	392.2684	561.2878	577.2952	659.082	763.6891	805.9439	950.1251	1013.4902	1017.725	1083.0823	1090.0871	1166.1106	1272.1056	1369.7357	1414.7219	1417.4294	1445.915	1491.9495	1498.0887	1769.3606	1773.8212	2294.2492	2932.1158	3022.3238	3049.6209	3055.4448	3129.0395	3131.5288
CCC(=O)C#CC=O	CCC(=O)C#CC=O	
InChI=1S/C6H6O2/c1-2-6(8)4-3-5-7/h5H,2H2,1H3	InChI=1S/C6H6O2/c1-2-6(8)4-3-5-7/h5H,2H2,1H3
