16
gdb 28719	6.28225	0.83937	0.75828	2.3896	76.47	-0.2147	0.004	0.2187	1462.3107	0.124763	-434.102462	-434.093847	-434.092903	-434.136642	30.532	
C	 0.1260681333	 1.5500540577	-0.3572025176	-0.497697
C	-0.0208452273	 0.1055023207	-0.0182337906	 0.350415
N	-0.6932962524	-0.7871232472	-0.7077396756	-0.28498
C	-0.5434151984	-1.9900493707	-0.0460223188	-0.212882
C	 0.2262584624	-1.8013478444	 1.0673655565	 0.364218
N	 0.5586223436	-0.4676965583	 1.0875649223	-0.35287
O	 0.7081622858	-2.6091256728	 2.0490689973	-0.215706
C	-0.1485643352	-3.535267846	 2.5727495359	 0.108802
N	 0.3066058786	-4.4177919579	 3.3433163365	-0.42525
H	-0.2655956278	 2.1998497677	 0.434044297	 0.131751
H	 1.1736168624	 1.8264075521	-0.5245263353	 0.134031
H	-0.4326790774	 1.746453135	-1.2730235804	 0.160305
H	-0.977857871	-2.905786492	-0.4140982346	 0.114735
H	 1.1307022872	-0.0256964638	 1.7883009171	 0.27257
H	-1.1824067554	-3.3800540921	 2.2450724953	 0.112878
H	-0.4480506585	-5.0157894879	 3.6735039049	 0.239679
50.9807	100.6008	110.9915	154.1008	227.2942	294.6123	388.0623	446.2454	490.7892	507.2642	662.1866	691.738	698.6024	797.5094	815.2574	831.8174	988.6241	989.4611	1030.8623	1052.4214	1063.2373	1074.5299	1172.7677	1211.229	1268.8042	1291.2507	1399.4405	1406.4501	1430.2357	1436.2581	1482.2649	1494.4875	1564.1323	1624.809	1749.7763	3029.5947	3067.1298	3078.6585	3149.5546	3258.0885	3523.5752	3659.0123
CC1=NC=C(N1)OC=N	Cc1ncc([nH]1)O[CH][NH]	
InChI=1S/C5H7N3O/c1-4-7-2-5(8-4)9-3-6/h2-3,6H,1H3,(H,7,8)	InChI=1S/C5H7N3O/c1-4-7-2-5(8-4)9-3-6/h2-3,6H,1H3,(H,7,8)
