20
gdb 118263	2.17346	0.81363	0.61931	4.0243	76.96	-0.2651	0.009	0.2741	1767.4121	0.168019	-440.281487	-440.270612	-440.269668	-440.319076	37.291	
C	-0.0163840682	 1.506701237	-0.008317589	-0.407984
C	 0.0245158419	-0.0221043953	-0.01983972	 0.135945
C	 0.7211353152	-0.5963169838	 1.2117674077	-0.20857
C	 0.8942596152	-2.1172489764	 1.1647489345	-0.071795
O	 1.5892719388	-2.6155361761	 2.2968437934	-0.416901
O	-1.2946407991	-0.5870649491	-0.0290544248	-0.253064
C	-1.9641958158	-0.493597678	-1.2599299021	-0.194391
C	-3.1884779301	-1.2993420307	-1.1961653286	 0.26698
N	-4.1589847241	-1.9240755015	-1.173065557	-0.292879
H	 1.0001668702	 1.9104052419	 0.017393786	 0.127006
H	-0.5061326277	 1.9112653765	-0.899155271	 0.117947
H	-0.5550674041	 1.8660208545	 0.8738213089	 0.132415
H	 0.5535202234	-0.3639929923	-0.9264744899	 0.073242
H	 1.7066906677	-0.1299863246	 1.3168431111	 0.109169
H	 0.1365158184	-0.3188781436	 2.0991660011	 0.101265
H	-0.0840422036	-2.5998739429	 1.04194049	 0.110961
H	 1.5059811772	-2.3939612014	 0.2978892137	 0.106088
H	 1.0104668019	-2.5251078436	 3.0603061339	 0.283162
H	-2.2481022182	 0.5399619703	-1.5100631353	 0.142595
H	-1.342856879	-0.8693537209	-2.0895325027	 0.138809
35.9034	65.3684	83.1142	106.9739	148.8243	178.2656	228.79	278.966	294.798	343.614	372.0139	381.153	466.5787	529.9708	563.5494	781.4996	862.1417	932.8576	954.864	970.4229	1009.8814	1034.1693	1076.1203	1106.9286	1113.7927	1124.3124	1154.8524	1217.3512	1251.5969	1293.341	1318.3604	1364.4068	1374.137	1406.1705	1409.8465	1420.9976	1425.1154	1473.2899	1490.1374	1493.9322	1503.589	1516.5608	2373.3683	2953.7934	2975.366	3006.7187	3018.6941	3025.9971	3041.6683	3060.8432	3087.4866	3110.4349	3119.3445	3819.4645
CC(CCO)OCC#N	C[C@@H](CCO)OCC#N	
InChI=1S/C6H11NO2/c1-6(2-4-8)9-5-3-7/h6,8H,2,4-5H2,1H3	InChI=1S/C6H11NO2/c1-6(2-4-8)9-5-3-7/h6,8H,2,4-5H2,1H3/t6-/m0/s1
