17
gdb 72578	2.33637	1.60984	1.41875	1.1353	68.92	-0.2501	-0.0368	0.2133	1006.4485	0.133293	-458.949237	-458.940554	-458.93961	-458.982431	32.434	
C	-0.3275652607	 1.4796839224	 0.0885388697	-0.473091
C	 0.0260046928	 0.0215788891	 0.017461113	 0.352249
C	 1.1284926925	-0.4722528881	-0.9659795127	-0.397288
C	 1.8358452664	-1.1299765736	 0.2320925678	 0.320077
O	 2.9749318145	-1.4368016904	 0.4591233813	-0.315763
C	 0.6917601765	-0.8500995987	 1.1946300328	 0.21487
O	 1.0061137098	-0.5018051845	 2.4927293523	-0.462137
C	-0.5804844702	-1.7036512575	 1.0268774839	-0.132774
O	-1.112564949	-0.8617492533	-0.0140075867	-0.319581
H	 0.5738683714	 2.0968211296	 0.1538370191	 0.122815
H	-0.8829106608	 1.7795402182	-0.8069256812	 0.136145
H	-0.9517460604	 1.6800487022	 0.9634386966	 0.137373
H	 0.7589177782	-1.1486043555	-1.7397222081	 0.140445
H	 1.7448993195	 0.3060408827	-1.4250984147	 0.136098
H	 1.9681619222	-0.4341762309	 2.5524405222	 0.299413
H	-0.456232502	-2.7467974	 0.7151376598	 0.114441
H	-1.1927042907	-1.6607568518	 1.934841995	 0.12671
76.7904	156.5325	168.5726	188.8757	242.5543	327.4414	358.366	361.6639	427.9678	499.8252	526.0394	613.9061	643.2573	709.9418	814.8891	840.3247	888.0036	920.0679	986.6743	1010.4932	1031.8631	1071.3993	1106.2155	1143.2845	1158.018	1181.926	1200.9364	1291.9978	1303.522	1359.34	1390.0248	1411.7119	1425.9965	1476.9479	1488.6298	1513.7351	1861.9194	3027.3246	3036.9314	3065.8028	3079.5098	3105.4336	3120.8268	3127.6542	3765.7165
CC12CC(=O)C1(O)CO2	C[C@@]12CC(=O)[C@]1(O)CO2	
InChI=1S/C6H8O3/c1-5-2-4(7)6(5,8)3-9-5/h8H,2-3H2,1H3	InChI=1S/C6H8O3/c1-5-2-4(7)6(5,8)3-9-5/h8H,2-3H2,1H3/t5-,6-/m1/s1
