17
gdb 19087	3.3729	2.40723	1.88285	1.5534	66.86	-0.2203	0.0934	0.3137	763.2587	0.144856	-363.822454	-363.81621	-363.815266	-363.852474	25.309	
C	 0.0527555534	 1.4896887487	 0.6561443711	-0.250318
C	 1.2323651887	 0.8333003822	 0.0202777996	-0.010682
C	 2.4134150111	 0.3307774046	 0.838528728	-0.265023
C	 2.0528328684	-0.6203073022	 1.9554259121	 0.049075
O	 1.0466390749	-0.2036456227	 2.8904211272	-0.255909
C	 0.7391311576	-1.2712792996	 1.9815608966	 0.054162
C	-0.2787884871	-1.000994635	 0.8931002231	-0.190316
N	-0.0716424168	 0.1659788181	 0.0385187709	-0.103639
H	 0.0479939556	 1.5558784049	 1.738498723	 0.138011
H	-0.4705651181	 2.2869234413	 0.1326901515	 0.104903
H	 1.5187830585	 1.1751616633	-0.973373177	 0.088771
H	 3.1064505509	-0.2026340601	 0.174187074	 0.110499
H	 2.9756888187	 1.1825515775	 1.2426724542	 0.119407
H	 2.8978559453	-1.1286673368	 2.4207394551	 0.092822
H	 0.6460177752	-2.2486307956	 2.4586752393	 0.090264
H	-0.2967380715	-1.8886944463	 0.2448861634	 0.11003
H	-1.2783638548	-0.9205705324	 1.3375765281	 0.117942
172.9345	269.8412	342.5875	353.0675	393.0575	484.4639	607.5428	704.1721	728.0173	773.5226	823.5174	857.2235	882.527	936.117	966.9909	989.2238	1029.8258	1052.3003	1083.717	1113.0063	1124.4718	1144.2177	1173.0319	1183.2812	1252.0978	1280.5143	1306.0537	1333.4651	1355.2963	1375.4917	1379.2192	1422.8087	1471.1002	1474.8642	1494.6129	1502.6794	3008.6331	3017.1173	3048.0459	3053.3347	3090.5164	3102.5472	3107.1404	3109.6106	3210.718
C1C2CC3OC3CN12	C1[C@H]2C[C@H]3O[C@H]3CN12	
InChI=1S/C6H9NO/c1-4-2-7(4)3-6-5(1)8-6/h4-6H,1-3H2	InChI=1S/C6H9NO/c1-4-2-7(4)3-6-5(1)8-6/h4-6H,1-3H2/t4-,5-,6+,7?/m1/s1
