23
gdb 80428	2.35613	1.69108	1.23726	1.2421	84.37	-0.2533	0.0763	0.3295	1121.2719	0.206423	-388.290528	-388.281628	-388.280684	-388.323168	36.13	
C	-0.1383534972	 1.5392591913	-0.0930124993	-0.412113
C	 0.0740755946	 0.0269036491	-0.03395946	 0.025083
C	 0.964536231	-0.5431233357	-1.1658516667	-0.020522
C	 1.1926304259	-2.0048543943	-0.6908329933	-0.301804
C	 1.9903328396	-1.2790789118	 0.4349447622	 0.419082
O	 2.8940161485	-1.9188084486	 1.2806981452	-0.493437
C	 2.4049874869	-0.2476163381	-0.6605025077	-0.297988
C	 0.8710815526	-0.545207972	 1.2051916885	-0.001733
C	 1.3763814127	 0.445400127	 2.2532029639	-0.41807
H	 0.8039513915	 2.094902885	-0.1021608433	 0.114713
H	-0.6863421141	 1.8077400794	-1.0031090285	 0.108777
H	-0.7241251944	 1.8960567404	 0.7601477058	 0.113988
H	-0.9121932428	-0.4497404902	-0.0795877082	 0.065343
H	 0.6683675062	-0.3201938783	-2.1908633373	 0.058123
H	 0.3215196212	-2.6023832006	-0.4049262762	 0.088091
H	 1.8408698305	-2.5720466901	-1.3654708757	 0.082336
H	 3.5724153647	-2.337204121	 0.7414605633	 0.277311
H	 3.1691536728	-0.647336097	-1.3337164749	 0.084179
H	 2.6691659595	 0.7690552179	-0.3614452727	 0.092944
H	 0.26042782	-1.2940160075	 1.7228224346	 0.069476
H	 2.0201958018	 1.2202204177	 1.8263957565	 0.11032
H	 0.5450179962	 0.9467884331	 2.7588212592	 0.107612
H	 1.9600911924	-0.0863397759	 3.0099496947	 0.12829
129.5972	183.0117	230.0358	252.8767	256.2257	281.3481	291.6665	381.2125	421.3225	464.6174	495.071	544.0534	623.281	662.7518	752.9464	803.7353	846.0486	857.2616	915.8935	927.7652	973.8532	988.9635	1015.0313	1027.1502	1028.0932	1069.9905	1091.4852	1112.3926	1134.8206	1138.9939	1163.1181	1171.3419	1197.1914	1232.1736	1255.5648	1281.7541	1310.8584	1331.584	1369.5822	1377.6756	1397.6431	1407.6399	1416.0688	1483.4313	1487.9819	1491.8863	1504.8969	1507.5701	1524.5161	3019.5536	3030.9113	3036.8529	3040.4488	3043.3005	3057.8084	3093.4897	3099.8047	3102.6566	3107.9804	3112.5492	3113.3746	3118.1698	3818.3208
CC1C2CC(O)(C2)C1C	C[C@H]1[C@@H]2C[C@@](O)(C2)[C@H]1C	
InChI=1S/C8H14O/c1-5-6(2)8(9)3-7(5)4-8/h5-7,9H,3-4H2,1-2H3	InChI=1S/C8H14O/c1-5-6(2)8(9)3-7(5)4-8/h5-7,9H,3-4H2,1-2H3/t5-,6+,7-,8-/m1/s1
