16
gdb 97322	4.78537	0.75344	0.6562	2.447	72.94	-0.2597	-0.0856	0.1741	1678.5696	0.119859	-475.060832	-475.050706	-475.049762	-475.097606	33.569	
C	 0.0880647201	 1.3431191329	-0.0731120784	-0.321343
N	 0.0378422695	-0.105787549	-0.062289537	-0.180153
C	-1.0921174627	-0.6418340998	-0.0216582337	 0.114349
O	-1.15592883	-2.0217404738	-0.0109492647	-0.196211
C	-2.3777683876	-2.5971508301	 0.0332053102	 0.362893
O	-3.4304335544	-2.0154626456	 0.064629151	-0.329342
C	-2.2650098982	-4.1414468638	 0.0386991481	 0.280059
C	-3.5923601443	-4.8541585313	 0.0877553782	-0.473948
O	-1.1910060177	-4.6805682288	 0.0055432869	-0.250577
H	 0.674676708	 1.6860024425	 0.7856695005	 0.141047
H	 0.6165174747	 1.6748808793	-0.9730311511	 0.14105
H	-0.8992094055	 1.8283308225	-0.0435542372	 0.10864
H	-2.0692280409	-0.1554732713	 0.0074837845	 0.136482
H	-4.1486564436	-4.5522955415	 0.9809908803	 0.159606
H	-4.2081661963	-4.5617736279	-0.7688356608	 0.159627
H	-3.4267288512	-5.9313230842	 0.0878932632	 0.147818
34.1754	72.0352	87.6548	111.6563	114.8029	214.4256	235.0635	319.4498	323.8921	382.4673	431.5014	480.7515	574.1122	624.2659	716.8258	859.2328	963.5809	983.2952	1038.6928	1057.4953	1097.4628	1140.4554	1159.9766	1176.7854	1289.826	1370.3174	1387.5843	1445.7079	1452.7045	1460.4642	1479.9715	1500.4857	1776.5985	1814.4714	1835.3408	2987.864	3049.5342	3075.707	3093.9818	3110.8251	3115.2953	3165.0682
CN=COC(=O)C(C)=O	CN=COC(=O)C(=O)C	
InChI=1S/C5H7NO3/c1-4(7)5(8)9-3-6-2/h3H,1-2H3	InChI=1S/C5H7NO3/c1-4(7)5(8)9-3-6-2/h3H,1-2H3
