22
gdb 113536	2.97196	1.0198	0.9257	2.348	82.51	-0.2416	0.0744	0.316	1385.359	0.194027	-404.312032	-404.302408	-404.301464	-404.347142	36.009	
C	-0.2881179795	 1.4287497153	 0.2863576304	-0.386873
C	 0.0374372336	-0.0234442045	-0.0491045863	-0.060458
C	 1.3404854811	-0.2352711884	-0.8854135996	-0.225282
C	 2.0759760658	-0.7514397744	 0.3875857642	-0.317101
C	 0.7160914273	-0.8063249952	 1.0932848354	 0.365579
N	 0.4491012297	-0.6016206974	 2.5167294647	-0.398165
C	 0.1959386922	-1.9298772575	 1.9062069589	-0.123617
C	-1.2579965943	-2.3372605156	 1.9348145696	-0.060294
O	-1.6948763747	-2.5804219566	 3.2614415576	-0.422365
H	 0.5897985435	 1.950612252	 0.6830762245	 0.110375
H	-0.6254363491	 1.9673457368	-0.6055639068	 0.109684
H	-1.0734781355	 1.4885111541	 1.0453854649	 0.126579
H	-0.8466719191	-0.5128151314	-0.4694515225	 0.071884
H	 1.2355876926	-1.0040418814	-1.6540662754	 0.104017
H	 1.7554842499	 0.663932869	-1.3466091898	 0.099847
H	 2.6231305519	-1.6936967524	 0.2982096607	 0.103748
H	 2.7462921944	-0.0024518084	 0.8221196916	 0.104904
H	 1.3210951672	-0.6092966603	 3.0407416823	 0.229463
H	 0.8992410096	-2.72525761	 2.1508755776	 0.086612
H	-1.8677187399	-1.5587257385	 1.4519654271	 0.088163
H	-1.4080338947	-3.2705006644	 1.3813773275	 0.104558
H	-1.4726151419	-1.7817048207	 3.7553669934	 0.28874
42.7091	76.0758	131.6952	177.4723	218.9821	230.1589	290.6734	360.203	410.6501	450.6284	488.8476	536.7564	597.4845	734.9207	782.0778	823.9712	877.1769	882.3691	924.5166	945.1309	963.692	992.2944	1006.2688	1042.0955	1071.1848	1088.5688	1092.4299	1135.5699	1176.082	1180.8117	1209.0663	1240.8577	1258.8313	1261.944	1268.9277	1294.8315	1331.3298	1355.6177	1377.8484	1407.9734	1426.9966	1472.85	1475.8188	1491.7454	1495.4762	1498.5637	1501.2279	2990.4073	3031.1955	3044.4004	3049.2894	3067.3636	3070.9953	3093.102	3097.5152	3110.4083	3114.5055	3121.1759	3491.6336	3784.5406
CC1CCC11NC1CO	C[C@H]1CC[C@]21N[C@H]2CO	
InChI=1S/C7H13NO/c1-5-2-3-7(5)6(4-9)8-7/h5-6,8-9H,2-4H2,1H3	InChI=1S/C7H13NO/c1-5-2-3-7(5)6(4-9)8-7/h5-6,8-9H,2-4H2,1H3/t5-,6-,7+/m0/s1
