17
gdb 53311	2.95515	0.76083	0.64396	3.57	80.05	-0.2478	-0.0261	0.2217	1715.7178	0.132074	-421.787747	-421.777704	-421.776759	-421.825173	33.589	
C	 0.1074051828	 1.4952158273	 0.2274126943	-0.501754
C	 0.0385820125	 0.0473771633	 0.1041839394	 0.108172
C	-0.016931445	-1.1525282081	 0.0091973073	 0.085572
C	-0.0449950279	-2.5825713577	-0.12284376	-0.16285
O	-0.6016049027	-3.3486630246	 0.9641070013	-0.242856
C	-1.305693384	-3.3464114312	-0.2766727524	 0.05361
C	-2.6647889662	-2.6829417313	-0.2849118764	-0.319493
C	-3.6668523527	-3.4467445121	 0.5605024634	 0.160043
O	-4.769288572	-3.7606877994	 0.1929144761	-0.23851
H	 1.1422171495	 1.8480611995	 0.1626260633	 0.156661
H	-0.465365957	 1.9898652647	-0.5644561375	 0.15516
H	-0.2982235021	 1.8263414324	 1.1894455986	 0.158472
H	 0.8552046278	-3.0277099159	-0.545976792	 0.117535
H	-1.2429902702	-4.2898975871	-0.8218470257	 0.107782
H	-2.5643181589	-1.6758733207	 0.1399195057	 0.138969
H	-3.0535688975	-2.5955371086	-1.3037023927	 0.125789
H	-3.3023095265	-3.6961202606	 1.5810047375	 0.097697
34.3494	45.4428	68.328	93.4775	126.9217	195.3713	249.0394	329.7871	374.0434	440.2705	492.1203	528.3104	573.4818	737.3611	800.5458	830.2143	897.9776	948.2952	1036.646	1050.9644	1053.1132	1075.8421	1118.744	1138.0029	1189.7606	1229.1019	1277.4592	1298.7015	1385.4432	1413.4094	1423.3312	1446.8934	1449.1404	1474.9242	1476.1097	1833.2862	2368.1328	2899.8311	3031.1292	3034.9432	3091.5462	3093.8921	3095.631	3107.6435	3114.6297
CC#CC1OC1CC=O	CC#C[C@H]1O[C@H]1CC=O	
InChI=1S/C7H8O2/c1-2-3-6-7(9-6)4-5-8/h5-7H,4H2,1H3	InChI=1S/C7H8O2/c1-2-3-6-7(9-6)4-5-8/h5-7H,4H2,1H3/t6-,7+/m1/s1
