24
gdb 86907	5.17249	0.69257	0.67835	0.9976	91.3	-0.2291	0.0887	0.3178	1792.542	0.217436	-368.375183	-368.365601	-368.364657	-368.410334	36.199	
C	-0.2161445021	 1.4821794314	 0.1357661602	-0.406015
C	 0.0530946398	-0.0090614676	 0.0091855279	 0.059396
C	 1.2187066243	-0.493535747	-0.9006220005	-0.258994
C	 1.5470421346	-1.581633737	 0.1588209445	 0.050072
C	 3.0065513083	-1.8860351633	 0.4513178282	-0.167554
N	 3.1380435643	-2.7915930856	 1.588968691	-0.05724
C	 3.1353996893	-4.2181477996	 1.2835487544	-0.218364
C	 4.3906957509	-3.5285019572	 1.6913557461	-0.219525
C	 0.7276796466	-0.7613835476	 1.1915071964	-0.226404
H	 0.6939372502	 2.0222552715	 0.421779985	 0.108346
H	-0.5719081569	 1.9067179199	-0.8101308888	 0.110695
H	-0.9765383805	 1.6865439824	 0.8982220625	 0.112377
H	-0.8697167684	-0.5279883817	-0.2758647344	 0.06747
H	 0.9801146288	-0.8182362892	-1.9169729861	 0.090599
H	 2.0143512487	 0.2593485946	-0.955259205	 0.090928
H	 1.0232171374	-2.5139101954	-0.0826018005	 0.067333
H	 3.4924132957	-2.2922748077	-0.457581177	 0.072746
H	 3.5321463525	-0.955823178	 0.7042785048	 0.093695
H	 2.6004374363	-4.8551817332	 1.9822039753	 0.114626
H	 3.0526933018	-4.5171051038	 0.2390516157	 0.106297
H	 5.1413844283	-3.3695934906	 0.9180610585	 0.106046
H	 4.7899628933	-3.6507992895	 2.6943811845	 0.114542
H	 1.3788484396	-0.0950020608	 1.7687031299	 0.093883
H	 0.0877438371	-1.3061813451	 1.8890458077	 0.095044
58.7318	62.0767	106.3179	148.4186	229.9188	293.6755	299.7019	365.2564	393.5255	422.8071	450.8682	616.2918	765.0188	787.8434	811.5878	838.2419	894.4335	895.9248	902.8784	943.0496	952.8779	981.9654	1021.3497	1030.6105	1062.7023	1088.0875	1112.1533	1115.8292	1139.2318	1143.7385	1160.3807	1182.3171	1199.2443	1233.3909	1238.1315	1261.2314	1268.4113	1290.6378	1306.3848	1321.9855	1356.2215	1374.4754	1404.8283	1413.14	1475.8587	1486.1357	1493.5233	1494.9956	1496.7153	1503.8492	1522.1024	2909.6485	3019.8138	3026.2897	3029.4044	3033.4078	3040.6198	3048.2558	3086.8972	3087.3458	3088.6793	3093.2262	3094.7664	3107.3268	3172.1281	3186.4356
CC1CC(CN2CC2)C1	C[C@H]1C[C@@H](CN2CC2)C1	
InChI=1S/C8H15N/c1-7-4-8(5-7)6-9-2-3-9/h7-8H,2-6H2,1H3	InChI=1S/C8H15N/c1-7-4-8(5-7)6-9-2-3-9/h7-8H,2-6H2,1H3/t7-,8+
