23
gdb 120983	3.70819	0.93293	0.86264	0.9164	86.33	-0.2406	0.0789	0.3195	1479.8552	0.205937	-388.2614	-388.252208	-388.251264	-388.296066	34.663	
C	 0.1674895588	 1.5070350624	 0.1609647872	-0.384921
C	 0.3277897222	 0.0022899763	 0.02464011	-0.035942
O	 0.4491753305	-0.5572436966	 1.3184839037	-0.251667
C	 0.5829426783	-1.9534259553	 1.3234938719	 0.165334
C	 1.9484476117	-2.5887673893	 0.9028686456	-0.278827
C	 1.9511264781	-3.4175328346	 2.2214357373	-0.011688
C	 2.815803068	-2.8101816552	 3.3495157638	-0.218125
C	 1.6576311641	-1.8257242213	 3.6971538516	-0.225879
C	 0.7112388491	-2.5831755099	 2.7202600166	-0.067527
H	 1.0371529404	 1.9417459573	 0.6621146145	 0.125058
H	 0.0663515581	 1.9716921903	-0.8244970392	 0.112859
H	-0.721550861	 1.7458226778	 0.7515910546	 0.126048
H	-0.5426455446	-0.4347067626	-0.4940849781	 0.083825
H	 1.2161822995	-0.2365264461	-0.5823127683	 0.089311
H	-0.2447157511	-2.4127858743	 0.7593285626	 0.058782
H	 1.9313914973	-3.1663443474	-0.0241277028	 0.096057
H	 2.7645510888	-1.8617176809	 0.846267419	 0.099308
H	 1.9366131803	-4.5016782566	 2.1057500282	 0.059845
H	 3.0083970444	-3.5223711291	 4.1570457478	 0.095557
H	 3.7718492049	-2.372184913	 3.0452423759	 0.091343
H	 1.340072276	-1.8462536671	 4.7415848413	 0.096993
H	 1.826593823	-0.786175071	 3.4104581087	 0.115716
H	-0.1864992668	-3.0221378938	 3.1572580682	 0.058541
61.0339	86.2113	98.0273	137.9671	245.661	270.8944	344.2976	348.4817	425.5582	533.6451	629.3802	732.8798	747.9297	793.9711	821.4345	848.5436	892.1125	893.8723	907.4661	954.0059	957.0262	1013.1382	1048.4356	1053.3229	1085.7012	1103.8298	1134.2265	1147.2462	1163.7218	1188.1694	1200.9249	1216.9999	1225.2909	1246.647	1262.5503	1282.6936	1296.5732	1304.4564	1310.4593	1328.3067	1369.0471	1403.2535	1439.3403	1472.6182	1480.4265	1483.6918	1498.4365	1500.2673	1529.5113	2954.7571	2966.2104	2985.1431	3042.5212	3043.9972	3050.6319	3073.1767	3086.3166	3093.4553	3100.0679	3112.3521	3118.0258	3120.4461	3129.1849
CCOC1CC2CCC12	CCO[C@H]1C[C@H]2CC[C@@H]12	
InChI=1S/C8H14O/c1-2-9-8-5-6-3-4-7(6)8/h6-8H,2-5H2,1H3	InChI=1S/C8H14O/c1-2-9-8-5-6-3-4-7(6)8/h6-8H,2-5H2,1H3/t6-,7-,8+/m1/s1
