16
gdb 24566	2.19132	1.99244	1.19394	1.1767	83.66	-0.2108	-0.0167	0.1941	1025.8303	0.125352	-400.739895	-400.732292	-400.731347	-400.772136	28.821	
O	-0.0680092387	 1.2837997742	-0.2140923598	-0.203762
C	 0.9306644548	 2.1962688829	 0.0008995501	 0.043784
C	 2.2303965604	 2.1253004402	-0.2997018871	-0.116868
C	 3.0991775191	 1.0328734746	-0.7068492328	-0.137855
C	 3.411095515	-0.0810367898	-0.013116141	-0.098493
C	 2.9006233323	-0.4983584734	 1.2756655549	-0.120071
C	 1.6209069048	-0.6660890203	 1.6693177411	-0.030153
N	 0.4929782429	-0.7680740965	 0.8967462867	-0.236281
C	-0.1350785559	-0.0368417269	 0.0953033604	 0.137872
H	 0.4889130943	 3.1418344356	 0.2972567345	 0.117952
H	 2.7267005545	 3.0945622204	-0.240208155	 0.109166
H	 3.7016500311	 1.2444113298	-1.5892836202	 0.099821
H	 4.237420118	-0.6743914151	-0.4039849161	 0.098261
H	 3.6549602918	-0.7774125877	 2.0088460528	 0.094574
H	 1.4477161671	-1.0055551374	 2.6893017681	 0.109784
H	-0.9884914417	-0.4448180005	-0.4435911365	 0.132269
98.2957	126.4307	194.4726	239.7368	334.4384	366.1535	488.7777	508.6112	632.1094	663.5021	696.9184	784.5867	802.7143	817.3877	850.55	887.8922	944.0116	951.6628	963.7415	967.9666	992.5748	996.5831	1077.4074	1173.9312	1260.0653	1291.5727	1327.7284	1406.2795	1437.3865	1453.1442	1480.8806	1637.9339	1666.7488	1707.5926	1796.8663	3114.1928	3118.6152	3129.4453	3139.0591	3150.589	3154.3366	3190.1816
O1C=CC=CC=CN=C1	O1C=CC=C[CH][CH]N=C1	
InChI=1S/C7H7NO/c1-2-4-6-9-7-8-5-3-1/h1-7H/b2-1-,5-3-,6-4-,8-7-	InChI=1S/C7H7NO/c1-2-4-6-9-7-8-5-3-1/h1-7H/b2-1-,5-3?,6-4-,8-7-
