18
gdb 90495	3.00865	1.24445	1.08843	3.1169	72.37	-0.2381	0.0521	0.2902	1158.0068	0.147673	-438.997165	-438.98908	-438.988136	-439.030199	30.737	
O	-0.2148786849	 1.544188651	-0.0263668605	-0.423883
C	-0.1159942318	 0.1350377038	-0.0468002222	 0.09309
C	 0.4428161877	-0.6370944898	 1.1830727663	-0.21346
N	-0.8212808391	-1.4479451539	 1.3039169568	-0.152939
C	-1.9288140977	-0.5058880483	 1.5713730045	-0.020161
C	-1.8446126892	 0.7035390376	 2.4437353057	 0.068832
C	-3.0576203369	 1.2282184183	 3.0862914011	-0.186568
O	-2.1074764423	 0.4778645694	 3.8377143353	-0.238039
C	-1.4257686513	-0.6014930988	 0.1807526762	-0.070233
H	 0.6398082981	 1.9125600889	-0.2726271268	 0.287657
H	 0.3633338421	-0.2066973445	-0.9722293742	 0.087991
H	 1.2786369553	-1.2983869134	 0.9467086748	 0.11111
H	 0.6915952249	-0.0435040027	 2.0666114782	 0.117529
H	-2.8419099358	-1.0732079787	 1.7430617686	 0.10185
H	-1.0442363331	 1.4072372706	 2.240479766	 0.113596
H	-3.1204449604	 2.2889414398	 3.3254090583	 0.115514
H	-4.0141855593	 0.7352057323	 2.9146750244	 0.11252
H	-2.0262896763	-1.0416365017	-0.6090337525	 0.095593
61.0933	138.568	180.1201	245.5465	285.4833	333.9276	363.1787	443.3429	536.937	588.5042	736.2986	769.007	776.4723	848.9337	867.7268	895.5744	943.8504	971.3015	999.6524	1015.5608	1058.9234	1083.8145	1098.6328	1130.3169	1156.1723	1163.2735	1176.0584	1188.2679	1208.5311	1265.6092	1281.5901	1292.8043	1312.7601	1336.6775	1377.4958	1436.257	1484.3592	1499.5851	1531.8126	3027.3219	3064.8477	3079.9458	3120.9591	3127.5758	3161.7712	3162.2676	3177.5286	3814.8808
OC1CN2C(C3CO3)C12	O[C@H]1CN2[C@@H]([C@H]3CO3)[C@@H]12	
InChI=1S/C6H9NO2/c8-3-1-7-5(3)6(7)4-2-9-4/h3-6,8H,1-2H2	InChI=1S/C6H9NO2/c8-3-1-7-5(3)6(7)4-2-9-4/h3-6,8H,1-2H2/t3-,4+,5+,6-,7?/m0/s1
