26
gdb 100037	2.84761	1.01118	0.93839	1.2243	93.03	-0.2145	0.0733	0.2878	1458.5304	0.23847	-369.582401	-369.571244	-369.5703	-369.618408	42.103	
C	-0.7231717177	 1.9967922173	-1.7518694206	-0.410224
C	-0.4422864943	 0.6085450489	-1.1658154187	-0.165543
C	-1.6635902301	-0.3372619466	-0.9609724535	 0.228934
C	-2.6772306856	 0.3309359932	-0.0153218172	-0.434805
C	-2.3418565936	-0.6365311062	-2.314621468	-0.409047
C	-1.050479044	-1.6514408264	-0.4423871607	 0.028463
C	-0.8905696007	-2.0367419595	 0.9917554871	-0.273115
N	-1.7015728835	-2.8478315915	 0.0949391185	-0.104213
C	-3.127063226	-2.9724579482	 0.3480302125	-0.316778
H	 0.2159132254	 2.5455398263	-1.8757544303	 0.113772
H	-1.1978201004	 1.9402729077	-2.7362139554	 0.118324
H	-1.3661849766	 2.5999353454	-1.1041421741	 0.117901
H	 0.2776033125	 0.0975420886	-1.8177206116	 0.09277
H	 0.0602928383	 0.7258979146	-0.1970998119	 0.095947
H	-3.0102814438	 1.2848770643	-0.4347891927	 0.114703
H	-3.5716682543	-0.2773714641	 0.1286770038	 0.117278
H	-2.2423507493	 0.5389305447	 0.9671915026	 0.110796
H	-1.6310328799	-1.0779950372	-3.0216977023	 0.110668
H	-3.1684264825	-1.3426002709	-2.1911420364	 0.116319
H	-2.7509661305	 0.2700454666	-2.770882723	 0.11091
H	-0.2288580052	-1.9479223117	-1.0974240084	 0.082947
H	 0.0330051874	-2.4829404199	 1.3555861613	 0.106751
H	-1.4152982582	-1.4336235288	 1.7322860084	 0.102413
H	-3.5817802371	-2.1369229132	 0.8984720073	 0.103284
H	-3.663225957	-3.0974566903	-0.5981227674	 0.121111
H	-3.2877052334	-3.880422593	 0.9401880909	 0.120435
41.6714	77.5175	149.6585	197.9534	223.8716	225.2228	240.5143	277.2124	300.6373	319.8484	365.0689	374.339	380.905	403.635	493.451	579.3176	693.3015	765.1044	784.705	800.4875	918.1054	934.3395	941.4975	989.4268	999.5825	1028.2623	1041.6611	1078.4982	1081.1628	1102.0692	1134.6616	1154.8394	1167.6895	1198.6723	1207.8818	1227.052	1267.3343	1325.6628	1364.0837	1380.1423	1396.9698	1403.9132	1415.8458	1434.8543	1449.3681	1480.9352	1483.9855	1486.6485	1490.1023	1503.0608	1507.4545	1511.0516	1513.3104	1520.3848	1525.857	2996.0235	3016.1192	3032.574	3039.9583	3047.7184	3049.917	3061.4248	3074.8876	3081.7474	3093.3854	3099.2939	3101.6309	3104.3709	3109.3974	3113.8416	3133.9607	3159.2649
CCC(C)(C)C1CN1C	CCC(C)(C)[C@H]1CN1C	
InChI=1S/C8H17N/c1-5-8(2,3)7-6-9(7)4/h7H,5-6H2,1-4H3	InChI=1S/C8H17N/c1-5-8(2,3)7-6-9(7)4/h7H,5-6H2,1-4H3/t7-,9?/m1/s1
