23
gdb 39260	2.27172	2.08668	1.45975	0.1821	87.8	-0.244	0.0812	0.3253	1015.4873	0.210753	-351.160138	-351.152983	-351.152039	-351.19112	31.237	
C	-0.0210863978	 1.4685368353	-0.0140399361	-0.430918
C	 1.3284357899	 0.7736125143	-0.0176130001	-0.0109
C	 2.2271142831	 0.4636620238	-1.2005049991	-0.242104
C	 2.3730134975	-1.085290482	-1.3089593281	-0.202181
C	 1.0370089934	-1.8402141041	-1.0120322885	 0.018735
C	 0.8177169287	-2.2050906097	 0.4995031374	-0.204559
C	-0.0603282545	-1.0540833632	 1.1077161333	-0.29403
C	 0.0425109924	-0.0274942927	-0.0024060167	 0.383382
C	-0.1278133415	-0.8643302478	-1.2652026761	-0.274875
H	-0.2933212029	 2.0025477979	 0.8912430611	 0.108541
H	-0.3762263939	 1.944056149	-0.9243859255	 0.106247
H	 1.8458328051	 0.8105980041	 0.9389281749	 0.077007
H	 1.8026978905	 0.8641982304	-2.1269223705	 0.099209
H	 3.2121382863	 0.9293014091	-1.0953776024	 0.090425
H	 2.7290283181	-1.3451639395	-2.3129040434	 0.08854
H	 3.1478981841	-1.428298388	-0.612746671	 0.092425
H	 0.9929766716	-2.7425194149	-1.6280892184	 0.055411
H	 0.3133363195	-3.1718451341	 0.590326584	 0.092718
H	 1.7732210584	-2.2961819127	 1.0250021395	 0.093504
H	-1.09105262	-1.3922531517	 1.2693649145	 0.087943
H	 0.322308429	-0.6917129619	 2.0657435672	 0.090288
H	-0.0459116068	-0.3067674871	-2.2003931951	 0.089682
H	-1.0971990101	-1.3765465544	-1.267837101	 0.085508
142.9715	243.874	337.3749	358.3383	382.358	458.9504	467.1226	528.415	556.511	705.9072	752.489	762.2941	805.1978	825.2649	865.2558	885.2276	903.1424	915.5951	935.1098	946.7719	971.2959	1000.462	1018.4481	1041.4586	1054.0408	1077.4687	1110.1569	1129.783	1161.1391	1168.0092	1196.6593	1207.9908	1248.0588	1251.0424	1265.7368	1285.9555	1304.1515	1317.3719	1338.2196	1352.4209	1360.0036	1364.5514	1433.0225	1480.2421	1485.8894	1492.0986	1496.9283	1504.903	1523.3183	3022.7434	3026.1555	3035.0945	3042.8748	3045.6136	3056.6303	3066.605	3078.0024	3080.5889	3095.8099	3105.6454	3115.519	3122.5576	3197.2294
C1C2CCC3CCC12C3	C1[C@@H]2CC[C@H]3CC[C@@]12C3	
InChI=1S/C9H14/c1-2-8-6-9(8)4-3-7(1)5-9/h7-8H,1-6H2	InChI=1S/C9H14/c1-2-8-6-9(8)4-3-7(1)5-9/h7-8H,1-6H2/t7-,8-,9+/m0/s1
