15
gdb 27956	3.77358	1.14724	0.88042	5.3448	79.72	-0.2279	-0.0663	0.1616	1232.5576	0.114429	-416.877124	-416.869461	-416.868517	-416.909294	28.92	
N	-0.0312874226	 1.4057897297	 0.1366806691	-0.591271
C	-0.0138774082	 0.0199028677	 0.0417503117	 0.288174
C	-1.1846711387	-0.7415187942	 0.035474436	-0.247148
C	-1.0959570783	-2.1311441532	 0.0021560653	 0.164375
C	-2.3272475515	-2.9525486065	-0.0059092272	 0.100203
O	-2.3524097997	-4.159913819	-0.0367300428	-0.265401
C	 0.1692581679	-2.7282761078	-0.0254222941	-0.064185
N	 1.2959549249	-2.018336992	-0.0234806868	-0.264858
C	 1.1991863265	-0.6906355183	 0.0084864924	-0.035466
H	 0.8046616183	 1.8719221468	-0.184198493	 0.255486
H	-0.8681649619	 1.8564538075	-0.2025979747	 0.253737
H	-2.1589079225	-0.2582283269	 0.0594831311	 0.100094
H	-3.270328895	-2.3589665354	 0.0189631146	 0.068977
H	 0.2529722961	-3.8096348594	-0.05153383	 0.134614
H	 2.1381285545	-0.1378516089	 0.0089361385	 0.10267
106.7315	192.3386	216.918	244.8595	306.0138	359.0073	453.7388	455.7316	532.6197	553.7198	598.3372	665.6172	728.9622	784.3444	908.2289	926.7429	963.884	977.7652	1031.4559	1040.4213	1100.8875	1185.1248	1203.1608	1316.0089	1329.8887	1355.5623	1423.4043	1479.8985	1502.7436	1603.788	1638.5158	1661.7187	1803.6537	2863.4	3131.7	3153.3461	3191.6157	3568.6834	3667.9091
NC1=CC(C=O)=CN=C1	Nc1cc(C=O)cnc1	
InChI=1S/C6H6N2O/c7-6-1-5(4-9)2-8-3-6/h1-4H,7H2	InChI=1S/C6H6N2O/c7-6-1-5(4-9)2-8-3-6/h1-4H,7H2
