17
gdb 56338	2.5154	0.9858	0.82039	2.6369	66.2	-0.2644	0.0104	0.2748	1399.8069	0.135324	-492.341692	-492.331886	-492.330942	-492.378038	33.949	
N	-0.6675852427	 1.1519542233	 0.032803793	-0.562871
C	-0.7721280499	-0.1970635748	 0.3307051317	 0.450839
O	-0.6600309092	-0.6406414412	 1.4602345363	-0.393081
N	-0.9903734063	-1.0083680489	-0.7624232541	-0.332768
C	-0.9247952812	-2.4521574933	-0.6069043143	-0.157218
C	-2.2254833292	-3.0297756349	-0.0519927465	-0.088261
O	-3.29708071	-2.8228707894	-0.9774980314	-0.178165
C	-4.1092959159	-1.7702311827	-0.7646691827	 0.167659
O	-4.9454464875	-1.4317993788	-1.548386845	-0.283471
H	-0.7316088174	 1.7388295263	 0.850488266	 0.265381
H	-1.1664277773	 1.5042783688	-0.7701852698	 0.253329
H	-0.8448120088	-0.6300585534	-1.683373468	 0.25185
H	-0.7232657505	-2.8911373845	-1.5872858933	 0.118785
H	-0.109738853	-2.7214316814	 0.0738397102	 0.135105
H	-2.1341165817	-4.1103124414	 0.0860097545	 0.123778
H	-2.4509474762	-2.5663563786	 0.91392672	 0.14336
H	-3.9275206532	-1.2787678249	 0.2099314534	 0.085749
37.3649	51.8112	91.602	117.5288	192.3171	249.7292	313.5171	331.2143	392.3629	426.8347	470.4091	513.071	548.424	623.8535	680.1897	779.2542	858.3526	908.4443	977.7341	1041.007	1054.4333	1083.5042	1123.7572	1160.5384	1187.2321	1297.3026	1319.6614	1340.2294	1394.0365	1404.4115	1431.2741	1459.4048	1505.9611	1534.172	1629.2195	1795.3454	1862.1538	2961.119	3049.8067	3056.9234	3107.0895	3118.5388	3578.0674	3648.2922	3692.7771
NC(=O)NCCOC=O	NC(=O)NCCOC=O	
InChI=1S/C4H8N2O3/c5-4(8)6-1-2-9-3-7/h3H,1-2H2,(H3,5,6,8)	InChI=1S/C4H8N2O3/c5-4(8)6-1-2-9-3-7/h3H,1-2H2,(H3,5,6,8)
