19
gdb 56534	2.62142	1.16834	1.02527	3.3832	77.35	-0.2456	-0.0245	0.2211	1236.643	0.154034	-422.998355	-422.987555	-422.986611	-423.034077	38.876	
C	-0.0671090415	 1.68256406	-0.1126832648	-0.445565
C	-0.0472745446	 0.1423166343	-0.0352791084	 0.140137
C	 0.5718775421	-0.3467053893	 1.2764543985	-0.424332
C	-1.4978717688	-0.331310965	-0.1470187307	 0.129875
O	-2.0996437988	-0.8954327289	 0.7309389876	-0.25212
C	 0.7241478247	-0.4527977232	-1.2645085934	-0.06526
O	 0.118396615	-0.0930572421	-2.5048037699	-0.428745
C	 2.1442795462	-0.0973646453	-1.2498431193	 0.291952
C	 3.2989647199	 0.2376851754	-1.2738406436	-0.43546
H	 0.9548152685	 2.0736101811	-0.1289245157	 0.134461
H	-0.5861739567	 2.0338914089	-1.010125684	 0.118872
H	-0.5802751296	 2.103310843	 0.7566960652	 0.132682
H	-0.0402173596	-0.0272476271	 2.1227738027	 0.132077
H	 0.6202007824	-1.439520345	 1.3075668	 0.123559
H	 1.5831427441	 0.0481877294	 1.3992655077	 0.123169
H	-1.9800802023	-0.0973592231	-1.1185195025	 0.099158
H	 0.6367464665	-1.5454352414	-1.2097795456	 0.127156
H	 0.4873517517	 0.753083288	-2.7784789148	 0.292154
H	 4.3252058008	 0.5121748404	-1.293826689	 0.206232
54.0629	71.0964	143.1755	193.5038	211.9204	222.6052	248.3513	277.4019	285.7998	310.1126	345.0586	365.3099	447.9053	468.9668	591.7252	636.1302	676.1589	692.0164	770.8693	844.9221	919.6532	958.9811	974.7682	1019.2833	1032.9545	1077.6871	1169.6305	1219.5295	1248.7564	1276.6636	1334.5954	1393.7679	1406.8973	1415.3315	1429.0058	1484.6905	1486.4947	1500.7703	1511.0436	1824.4974	2229.1513	2925.9438	3030.1077	3037.2233	3050.0172	3108.8457	3115.3111	3118.5392	3135.0356	3499.2058	3821.7733
CC(C)(C=O)C(O)C#C	CC(C)(C=O)[C@@H](O)C#C	
InChI=1S/C7H10O2/c1-4-6(9)7(2,3)5-8/h1,5-6,9H,2-3H3	InChI=1S/C7H10O2/c1-4-6(9)7(2,3)5-8/h1,5-6,9H,2-3H3/t6-/m0/s1
