19
gdb 69157	2.12579	1.69696	1.36267	2.3745	76.04	-0.2334	-0.0079	0.2255	1051.5776	0.156828	-423.020977	-423.01179	-423.010846	-423.05417	35.209	
C	-0.0491155118	 1.620891189	 0.0315889325	-0.456805
C	 0.022403435	 0.0961467289	 0.0602707037	 0.087413
C	-1.3523451471	-0.5272994142	-0.2168223604	-0.458987
C	 1.072461419	-0.6167676692	-0.8523290094	 0.421997
O	 1.1522688319	-0.6945479546	-2.0487255446	-0.339407
C	 1.7538667679	-1.3010195345	 0.2813015462	-0.293685
C	 2.1579217442	-0.2538628165	 1.3317511537	-0.332365
C	 0.7303316212	-0.5981816348	 1.2517013227	 0.408227
O	 0.093880833	-1.1013739113	 2.3594336696	-0.450834
H	 0.9108654953	 2.0852584387	 0.2727749867	 0.119101
H	-0.3415304133	 1.9629533346	-0.9664927991	 0.133784
H	-0.7913581593	 1.9930560772	 0.7465178605	 0.120512
H	-1.7182306712	-0.2095228277	-1.1966433114	 0.143101
H	-1.3119603681	-1.6232241326	-0.2271697767	 0.114644
H	-2.0818807788	-0.2116649669	 0.5379608231	 0.120001
H	 2.2058675174	-2.2853921658	 0.2817309535	 0.111488
H	 2.6733889854	-0.6961816295	 2.1788313952	 0.134029
H	 2.5454771021	 0.7149509053	 1.0312625446	 0.124355
H	-0.6814982129	-1.5962862762	 2.0705747196	 0.293432
107.1127	170.6645	181.2254	212.8637	234.9447	277.7577	291.347	339.9909	388.762	408.6569	484.4294	522.6114	597.0882	679.4972	707.6825	739.8901	762.5114	872.0007	931.7373	955.6964	958.2859	987.6424	1010.2763	1041.9716	1073.5867	1114.9143	1174.5451	1190.3976	1194.7242	1240.665	1265.5921	1345.3246	1391.2032	1415.7457	1429.6375	1481.7225	1486.1307	1501.2876	1506.2892	1514.2192	1867.8377	3020.5396	3033.4238	3083.5897	3098.8591	3110.9067	3115.9671	3121.1556	3193.1184	3207.0566	3796.4988
CC1(C)C(=O)C2CC12O	CC1(C)C(=O)[C@H]2C[C@@]12O	
InChI=1S/C7H10O2/c1-6(2)5(8)4-3-7(4,6)9/h4,9H,3H2,1-2H3	InChI=1S/C7H10O2/c1-6(2)5(8)4-3-7(4,6)9/h4,9H,3H2,1-2H3/t4-,7+/m1/s1
