14
gdb 42519	3.86738	1.0525	0.89483	2.3096	77.15	-0.2455	-0.0423	0.2032	1247.9267	0.097857	-399.458594	-399.449886	-399.448942	-399.492499	31.708	
O	-0.0387536315	 0.0398824824	-0.1479365293	-0.259076
C	 0.0184412227	 1.2195775144	-0.0561540304	 0.40444
C	-1.0231808295	 2.3792629697	 0.0282926022	-0.264192
N	 0.1049891918	 3.2706180323	 0.4380642414	-0.313501
C	 1.1573925295	 2.2730301199	 0.0749632724	-0.298476
C	 2.2078728938	 2.0462640706	 1.0444519889	 0.349866
C	 3.0772057154	 1.8315473892	 1.8455275665	-0.420687
C	-1.6621601245	 2.682400971	-1.2383155898	 0.323468
C	-2.1548576001	 2.9527501212	-2.3017421621	-0.452139
H	-1.766337339	 2.2453885536	 0.823161316	 0.140155
H	 0.1554190746	 4.1262350103	-0.1034878812	 0.238031
H	 1.5910749224	 2.4335502909	-0.9249031339	 0.135397
H	 3.8430119442	 1.6457856103	 2.5577031885	 0.205787
H	-2.6052405596	 3.1863166943	-3.235101069	 0.210928
49.472	108.3378	133.5867	177.785	241.6202	350.7489	411.3326	436.0197	456.5014	558.1497	622.2956	626.5332	659.7268	671.1663	672.6162	724.5442	762.822	818.0922	946.0728	996.6131	1021.3764	1060.822	1097.2943	1186.3498	1199.6561	1284.3738	1324.1994	1375.1872	1938.1664	2227.8565	2239.6523	2982.0675	3040.659	3500.523	3502.6373	3549.597
O=C1C(NC1C#C)C#C	O=C1[C@@H](N[C@H]1C#C)C#C	
InChI=1S/C7H5NO/c1-3-5-7(9)6(4-2)8-5/h1-2,5-6,8H	InChI=1S/C7H5NO/c1-3-5-7(9)6(4-2)8-5/h1-2,5-6,8H/t5-,6-/m0/s1
