17
gdb 75594	2.46848	1.63331	1.02508	0.868	72.92	-0.2321	-0.0649	0.1672	1124.093	0.137079	-455.156682	-455.148445	-455.147501	-455.189944	31.129	
N	-0.0337468857	 1.2952733513	 0.383624402	-0.513904
C	-0.0372108501	-0.0386263633	 0.0538763606	 0.23926
N	-1.1244544853	-0.7014608745	 0.1264249187	-0.301536
C	-1.3349780486	-2.090048722	-0.1987165519	-0.146292
C	-0.4655411606	-2.7517068209	-1.2622366759	-0.099346
O	 0.8853588736	-2.8818377658	-0.8539574514	-0.227994
C	 1.6788029401	-1.7634345267	-1.1191969145	-0.185838
C	 1.3837688631	-0.4709556526	-0.3585345758	 0.32268
O	 2.3068834574	 0.2777246774	-0.1173273834	-0.304043
H	 0.8659163939	 1.6961987643	 0.596561154	 0.268134
H	-0.8351789421	 1.6210667716	 0.8987865873	 0.254428
H	-1.2535231909	-2.681510896	 0.725599553	 0.119704
H	-2.3805060159	-2.1918998786	-0.5216000542	 0.107249
H	-0.8343164727	-3.7680974224	-1.4391018401	 0.111402
H	-0.5270318045	-2.1970237172	-2.2121817264	 0.094008
H	 2.7133538209	-2.0294481041	-0.8891371222	 0.141919
H	 1.6390379273	-1.4892632807	-2.1906285	 0.120169
43.8158	122.5462	219.3395	306.7031	323.3106	356.2036	400.2817	426.7988	492.1905	506.9877	526.5903	598.5118	618.1141	658.8454	752.9749	841.8019	900.8046	988.1841	1014.6785	1034.1866	1102.1327	1159.4686	1188.7865	1226.453	1259.2142	1303.1123	1331.8909	1356.9133	1375.1543	1392.1627	1411.076	1456.135	1470.7114	1490.9695	1586.969	1732.9309	1772.0054	2934.3522	2980.873	2997.7262	3027.7337	3070.2172	3106.0744	3587.9055	3717.0636
NC1=NCCOCC1=O	NC1=NCCOCC1=O	
InChI=1S/C5H8N2O2/c6-5-4(8)3-9-2-1-7-5/h1-3H2,(H2,6,7)	InChI=1S/C5H8N2O2/c6-5-4(8)3-9-2-1-7-5/h1-3H2,(H2,6,7)
