18
gdb 13666	5.36626	0.88418	0.81809	5.1444	73.38	-0.26	0.0398	0.2998	1387.4329	0.153901	-343.981892	-343.973134	-343.97219	-344.016049	31.003	
C	 0.0977481288	 1.528991214	-0.264093564	-0.395896
C	 0.026001911	 0.0494735667	 0.0277517293	-0.00297
N	 1.2975019873	-0.6894317117	 0.1218820607	-0.338146
C	 0.4333250882	-0.5866441731	 1.3121938175	-0.024517
C	 1.0056517389	 0.1590768883	 2.4963214279	-0.194745
C	 2.1094561615	-0.6754780159	 3.1806863428	-0.328173
C	 2.6921102267	-0.0012230808	 4.3376100041	 0.254143
N	 3.1387016728	 0.5469581105	 5.2518120808	-0.307177
H	 0.9630167861	 1.9920755751	 0.214302312	 0.13148
H	 0.1885185575	 1.6975548358	-1.3422865011	 0.124836
H	-0.8080839715	 2.039119676	 0.0808794891	 0.120147
H	-0.7895609599	-0.4588951589	-0.4864816516	 0.085848
H	 1.2174174936	-1.6066726043	-0.3073802941	 0.232631
H	-0.1262962741	-1.4811271392	 1.5887277198	 0.08387
H	 1.4334026488	 1.1124609379	 2.1789767074	 0.126975
H	 0.2107853389	 0.382338423	 3.2163752236	 0.119521
H	 1.7105663009	-1.6429924005	 3.5081878666	 0.144542
H	 2.9003408843	-0.8850803229	 2.4524372692	 0.167631
63.2749	75.8367	103.4325	175.1817	225.6093	250.7207	381.1751	400.2188	453.1151	498.9811	561.0087	754.598	788.2373	825.905	888.9262	949.8541	977.6956	985.6843	1023.5074	1042.995	1056.1349	1097.1357	1155.8874	1176.0776	1238.1851	1264.1982	1276.189	1285.6754	1317.4859	1364.5847	1405.2452	1429.8439	1469.3682	1470.24	1485.0009	1491.8387	1505.6403	2361.4262	3038.92	3040.8226	3055.2986	3084.2593	3090.361	3099.082	3105.1578	3119.1031	3135.5993	3510.1697
CC1NC1CCC#N	C[C@H]1N[C@H]1CCC#N	
InChI=1S/C6H10N2/c1-5-6(8-5)3-2-4-7/h5-6,8H,2-3H2,1H3	InChI=1S/C6H10N2/c1-5-6(8-5)3-2-4-7/h5-6,8H,2-3H2,1H3/t5-,6+/m1/s1
