17
gdb 74630	3.2448	1.73684	1.5469	1.2623	72.07	-0.2303	0.0129	0.2432	918.7662	0.137765	-421.821268	-421.814589	-421.813645	-421.852074	27.458	
C	-0.0327900174	 1.5055017774	 0.0519445012	-0.508951
C	-0.0021338754	 0.0117905464	-0.0276932649	 0.353526
C	-0.0192084567	-0.7376078893	-1.1398205805	-0.160617
C	 0.0187072557	-2.1945827099	-0.9482691146	-0.184132
C	-0.6752874323	-2.724082387	 0.3285600438	 0.038629
O	-1.061045408	-1.7296852295	 1.2349845101	-0.253917
C	 0.0542153532	-0.8266658012	 1.2251003432	 0.032634
O	 1.2067503731	-1.6796495809	 1.1664320048	-0.253914
C	 0.8111560646	-2.6912913524	 0.2836429733	 0.038636
H	 0.8544908417	 1.8987671951	 0.5647326137	 0.12994
H	-0.0716376132	 1.9531060313	-0.9450235179	 0.125031
H	-0.9053248715	 1.8599270841	 0.6158266542	 0.129972
H	-0.058686151	-0.3143110071	-2.138756203	 0.094183
H	 0.0070705819	-2.8492610908	-1.811561506	 0.091804
H	-1.3188721019	-3.5919442721	 0.329514268	 0.117756
H	 0.0702824991	-0.27011723	 2.1626018434	 0.091666
H	 1.4912367381	-3.5299513243	 0.2445851112	 0.117755
155.1357	179.3795	296.5382	383.8212	469.7173	499.6973	511.2426	648.906	710.2236	726.3836	779.4071	781.2799	791.6888	843.9116	873.5727	929.0226	945.3817	980.8941	984.9001	1009.3568	1050.2419	1066.6653	1082.6372	1089.2104	1112.6402	1148.9649	1217.1878	1251.7001	1293.7776	1346.9779	1350.1517	1361.8158	1399.231	1415.0127	1479.0671	1491.2269	1706.1369	3013.9253	3059.8983	3109.1189	3121.4304	3168.3294	3186.5876	3220.0773	3229.3379
CC1=CC2C3OC1OC23	CC1=C[C@@H]2[C@@H]3O[C@H]1O[C@H]23	
InChI=1S/C7H8O2/c1-3-2-4-5-6(4)9-7(3)8-5/h2,4-7H,1H3	InChI=1S/C7H8O2/c1-3-2-4-5-6(4)9-7(3)8-5/h2,4-7H,1H3/t4-,5+,6-,7+
