22
gdb 102990	1.95404	1.35882	1.11778	1.7153	89.98	-0.2193	0.0474	0.2667	1280.8651	0.190628	-367.151573	-367.140758	-367.139814	-367.186809	39.98	
C	-0.471983434	 1.0349730127	 0.262682617	-0.385471
C	-0.0242804425	-0.430725354	 0.1997545777	-0.254677
C	 0.6321244269	-0.8090266584	-1.1272902657	 0.065044
C	 1.8243191388	-0.03871823	-1.4155614274	 0.318187
C	 2.829763606	 0.5886665249	-1.6219424487	-0.433063
C	 0.579616996	-2.2275697382	-1.6533113592	-0.037678
C	-0.0785370138	-3.3729937515	-0.9135265343	-0.423693
N	-0.1505044396	-1.165253304	-2.3335761709	-0.122585
C	-1.604778193	-1.1279032936	-2.3219780749	-0.317828
H	 0.3695636565	 1.7069889447	 0.0740721742	 0.136569
H	-1.2443627467	 1.2495223515	-0.4824558436	 0.118907
H	-0.8828018451	 1.2696673477	 1.2492398374	 0.110951
H	 0.7054508065	-0.623509035	 0.9952445374	 0.110306
H	-0.8753631079	-1.0841045031	 0.4018826368	 0.097263
H	 3.7124250163	 1.1436935503	-1.8222969577	 0.189414
H	 1.4573448551	-2.5451185045	-2.2162389074	 0.094786
H	-0.9427739274	-3.076506802	-0.3179318499	 0.121746
H	-0.411373755	-4.1361062252	-1.6258907654	 0.126569
H	 0.6449444581	-3.8460556534	-0.2413353013	 0.128838
H	-2.0930311161	-1.4122873506	-1.3792716225	 0.100553
H	-1.9309508992	-0.1153739274	-2.5787943496	 0.130592
H	-1.9702723799	-1.802823461	-3.1030508817	 0.12527
88.3398	123.1649	139.1033	149.2924	179.8097	191.8278	214.9679	252.2112	301.2196	317.7805	402.0887	426.9306	527.3464	552.682	564.1305	601.4727	641.9297	659.4011	757.7991	783.9199	812.5313	951.4757	990.5641	1010.6016	1055.485	1086.1901	1121.4828	1143.43	1158.3425	1161.8042	1181.5785	1249.2489	1296.7805	1344.0232	1371.1867	1405.0168	1411.0184	1422.6842	1454.4831	1474.8212	1486.7696	1497.1712	1498.0918	1504.2193	1508.1432	1512.3594	2230.4253	2995.2198	3038.9971	3041.3468	3042.4347	3067.6996	3094.3778	3098.0391	3099.9109	3101.7812	3109.6104	3124.8514	3143.4876	3503.0587
CCC1(C#C)C(C)N1C	CC[C@@]1(C#C)[C@@H](C)N1C	
InChI=1S/C8H13N/c1-5-8(6-2)7(3)9(8)4/h1,7H,6H2,2-4H3	InChI=1S/C8H13N/c1-5-8(6-2)7(3)9(8)4/h1,7H,6H2,2-4H3/t7-,8+,9?/m1/s1
