13
gdb 45919	3.02115	1.5617	1.06718	1.946	63.09	-0.2957	-0.082	0.2137	1033.6524	0.090073	-489.917715	-489.910374	-489.90943	-489.95018	26.725	
N	-0.1695342904	 1.3489375184	 0.0042259044	-0.474186
C	-0.0606724946	 0.1037275507	 0.1155007765	 0.394426
C	-1.1902178627	-0.8490533855	-0.1469667963	-0.178679
O	-1.2490352191	-1.8839339019	 0.8330280585	-0.220144
C	-0.0960799494	-2.5420573461	 1.0804029532	 0.282839
N	-0.1233723171	-3.6803585668	 1.6214988386	-0.454592
C	 1.2137771313	-1.8276387827	 0.7702411466	 0.333172
O	 2.2774096508	-2.3595410013	 0.8783483341	-0.289412
O	 1.1478603671	-0.5035608234	 0.4276449861	-0.221705
H	 0.7224413767	 1.8180144384	 0.1738742404	 0.247212
H	-2.1343501458	-0.3105135341	-0.0991767194	 0.174162
H	-1.0801993853	-1.2872368521	-1.1489831791	 0.146902
H	 0.8356938585	-3.9987219736	 1.7695482763	 0.260005
67.3084	118.2076	182.2583	352.8866	387.2921	417.1222	454.3681	481.943	559.1988	611.3786	668.9408	780.8525	813.9037	917.5353	926.7567	945.3215	1005.3289	1034.494	1106.217	1129.4349	1178.2853	1259.6986	1328.9848	1355.5849	1417.6615	1492.1407	1739.357	1786.5778	1865.0953	3017.5819	3166.5124	3478.0154	3491.2641
N=C1COC(=N)C(=O)O1	[NH][C]1CO[C]([NH])C(=O)O1	
InChI=1S/C4H4N2O3/c5-2-1-8-3(6)4(7)9-2/h5-6H,1H2	InChI=1S/C4H4N2O3/c5-2-1-8-3(6)4(7)9-2/h5-6H,1H2
