14
gdb 128449	4.72903	1.05798	0.86929	1.0155	65.45	-0.2781	-0.0515	0.2266	1254.0119	0.100767	-473.842224	-473.83424	-473.833296	-473.875784	27.625	
C	 0.0294416165	 1.3474413218	 0.009392762	-0.243777
O	-0.0350478309	-0.0854854016	 0.0026380997	-0.218401
C	-1.2683682556	-0.5997621026	 0.0102404725	 0.404441
O	-2.2881313052	 0.0468293223	 0.0219386331	-0.370296
C	-1.2663597092	-2.0859879748	 0.0027445968	 0.257258
N	-0.1613592039	-2.8003735764	-0.0093511264	-0.181578
O	-0.5777119494	-4.1156755204	-0.0126905642	-0.154619
C	-1.923043924	-4.1580809272	-0.0025473038	 0.081817
C	-2.431708498	-2.9030392938	 0.0076930612	-0.316266
H	 1.0909120453	 1.5922980999	 0.0013203203	 0.1421
H	-0.4675892982	 1.7579178288	-0.8730372313	 0.1448
H	-0.4519323666	 1.7488184413	 0.9046029546	 0.144784
H	-2.3600156401	-5.1441230878	-0.0041198546	 0.161469
H	-3.4574694506	-2.5790271096	 0.0172710901	 0.148268
60.8497	111.2487	130.0376	152.4809	250.95	313.2999	391.0048	494.7465	616.6255	652.7871	798.1782	815.9536	828.9922	886.8609	923.642	960.1981	971.1345	1021.1933	1064.249	1143.8195	1178.4497	1194.2907	1228.2432	1331.4937	1454.2874	1462.1812	1482.4325	1490.213	1500.216	1590.3504	1804.2859	3054.0993	3129.3528	3167.0014	3271.8028	3304.7052
COC(=O)C1=NOC=C1	COC(=O)c1nocc1	
InChI=1S/C5H5NO3/c1-8-5(7)4-2-3-9-6-4/h2-3H,1H3	InChI=1S/C5H5NO3/c1-8-5(7)4-2-3-9-6-4/h2-3H,1H3
