16
gdb 79688	2.61373	1.55745	1.20903	3.8876	71.47	-0.2375	-0.0324	0.2051	1033.8396	0.123067	-437.792221	-437.784397	-437.783452	-437.824432	29.953	
O	 0.1096731071	 1.4381014612	-0.1472389471	-0.414577
C	-0.0512190331	 0.0606433946	 0.0177449157	 0.024124
C	-0.4813213253	-0.6923488847	 1.229977269	-0.093759
N	-1.5957212519	-0.2202430346	 2.1070047113	-0.148825
C	-2.1018340743	 1.1130445286	 1.6744694944	-0.254142
C	-2.4616645201	-0.0750732171	 0.8812866111	-0.094197
C	-1.3866644256	-0.6132445847	-0.0723860772	 0.181423
C	-1.6691401485	-1.6901340637	-1.0239109351	 0.071701
O	-2.7742996213	-2.134257811	-1.2375502076	-0.27414
H	 0.9224963954	 1.6951569453	 0.3035711374	 0.295609
H	 0.6921831131	-0.5277390073	-0.5301609954	 0.109199
H	 0.0710304491	-1.553564034	 1.5884445067	 0.121827
H	-2.8608078088	 1.4690414474	 2.3653743983	 0.129017
H	-1.4265539697	 1.8594927528	 1.285374538	 0.150837
H	-3.4506500781	-0.5162592473	 0.8585747846	 0.129207
H	-0.7706641281	-2.0924476057	-1.5455619042	 0.066697
108.4166	187.7074	202.1507	248.0328	289.5144	305.157	422.5613	435.4948	567.8901	592.165	667.1222	691.1194	746.0804	787.9713	881.7637	894.8631	952.7661	976.343	1022.2769	1048.14	1055.2254	1098.7547	1116.7036	1135.2306	1153.1038	1221.4904	1253.8945	1262.3841	1291.7051	1333.4021	1381.1734	1428.5376	1473.3506	1497.1217	1789.0334	2867.0132	3054.088	3139.0126	3181.7791	3195.7807	3268.1404	3795.6056
OC1C2N3CC3C12C=O	O[C@H]1[C@H]2N3C[C@H]3[C@@]12C=O	
InChI=1S/C6H7NO2/c8-2-6-3-1-7(3)4(6)5(6)9/h2-5,9H,1H2	InChI=1S/C6H7NO2/c8-2-6-3-1-7(3)4(6)5(6)9/h2-5,9H,1H2/t3-,4+,5-,6+,7?/m0/s1
