18
gdb 72472	2.7385	1.89838	1.52547	1.7601	70.41	-0.2531	0.016	0.2691	925.7987	0.150195	-439.11317	-439.106083	-439.105139	-439.144244	28.77	
C	-0.0820343247	 1.4829513205	-0.0008706	-0.454984
C	 0.0180897289	-0.0345144132	 0.0061237612	 0.256111
C	 0.8396592343	-0.6217640943	-1.1553733438	-0.085571
O	 1.2576510842	-1.927745098	-0.6961884541	-0.25785
C	 0.8545358877	-2.075645105	 0.6323961296	 0.206469
C	 0.7758358476	-0.6602050273	 1.1940315596	-0.294151
O	-0.4634015291	-2.676464942	 0.694346924	-0.237693
C	-1.4492363144	-1.8282586288	 0.3105000605	 0.118412
N	-1.3445895675	-0.6149238721	-0.0396921695	-0.296612
H	 0.9087460453	 1.9459587505	 0.0442772321	 0.109001
H	-0.5911171464	 1.8255357698	-0.9067303523	 0.127855
H	-0.66796866	 1.8271704617	 0.85573825	 0.126801
H	 0.246827521	-0.7355631268	-2.0667468768	 0.121172
H	 1.7295505717	-0.0175695709	-1.3735243495	 0.100183
H	 1.5102877374	-2.7875527056	 1.1320853741	 0.100351
H	 1.7788669826	-0.2402583731	 1.3113192417	 0.110918
H	 0.2346189455	-0.5943622659	 2.1394112133	 0.119595
H	-2.416836654	-2.3253136396	 0.3379398197	 0.129994
163.5313	227.6972	272.531	305.9676	356.4903	435.4081	444.7635	502.4761	599.4347	623.7079	734.95	781.7091	830.7869	875.1321	901.5968	914.4158	950.0634	971.0887	980.8168	1005.8744	1023.3224	1059.5233	1137.0092	1142.3726	1191.0737	1222.5295	1231.062	1263.5954	1299.5034	1327.5562	1368.9868	1395.0302	1400.1098	1414.6786	1482.9716	1485.3482	1497.5453	1516.6373	1706.8062	3022.7278	3040.2158	3066.6518	3096.3944	3113.4673	3117.0934	3129.497	3133.8878	3163.8164
CC12COC(C1)OC=N2	C[C@@]12CO[C@@H](C1)OC=N2	
InChI=1S/C6H9NO2/c1-6-2-5(8-3-6)9-4-7-6/h4-5H,2-3H2,1H3	InChI=1S/C6H9NO2/c1-6-2-5(8-3-6)9-4-7-6/h4-5H,2-3H2,1H3/t5-,6+/m1/s1
