14
gdb 22004	3.37978	1.36207	1.0259	1.382	80.6	-0.2282	-0.071	0.1572	1094.0686	0.10197	-432.821519	-432.814147	-432.813203	-432.853568	27.706	
O	-0.1983273902	 1.2815778968	 0.5183504928	-0.377172
N	-0.0402746619	-0.0905044741	 0.3518434072	-0.183436
C	-1.1301741435	-0.6553523747	-0.0370011305	 0.23541
C	-2.3595692174	 0.05770765	-0.4411537804	-0.020495
N	-3.5750366952	-0.335361311	-0.3322006285	-0.225368
C	-3.9488440074	-1.5471323075	 0.2030641961	-0.012136
C	-3.2457495994	-2.7083214151	 0.2533295165	-0.007453
N	-1.9772579295	-2.976217595	-0.2092255515	-0.218691
C	-1.0561408979	-2.0956872379	-0.3467240072	-0.018951
H	 0.6815157258	 1.5621508686	 0.7932018082	 0.317502
H	-2.1888446	 1.0199269937	-0.924067442	 0.141869
H	-4.9881245966	-1.5803561463	 0.5205318884	 0.116565
H	-3.7721269078	-3.5910124212	 0.608385186	 0.117129
H	-0.1010103089	-2.4311258963	-0.7536276951	 0.135229
76.3576	197.9244	232.9619	300.5166	340.8731	376.8024	463.5272	481.5725	538.0858	577.5435	670.0337	730.478	838.7809	869.8985	905.9066	941.8528	946.1123	969.1023	980.1089	1020.7163	1129.8483	1278.8905	1297.3053	1377.3896	1383.7857	1428.4664	1461.1249	1569.0801	1651.9479	1656.499	1677.8774	3120.8967	3131.2597	3150.0506	3170.4706	3815.5291
ON=C1C=NC=CN=C1	ON=c1cnccnc1	
InChI=1S/C5H5N3O/c9-8-5-3-6-1-2-7-4-5/h1-4,9H	InChI=1S/C5H5N3O/c9-8-5-3-6-1-2-7-4-5/h1-4,9H
