17
gdb 31821	4.70535	1.00228	0.87892	1.1608	79.49	-0.238	-0.0442	0.1938	1321.813	0.137551	-418.076157	-418.068088	-418.067144	-418.109411	30.19	
C	 0.0602890057	 1.5171500351	-0.1861736388	-0.369648
C	-0.0134167761	 0.0029051677	 0.0653129541	-0.271084
C	-1.4268507238	-0.5208632879	 0.0362144336	 0.307621
N	-2.2626989269	-0.1145845112	 1.0102972058	-0.279991
C	-3.5083839747	-0.5581153255	 0.9872066414	-0.086119
C	-3.9487992055	-1.4273788347	-0.0239889405	 0.403401
O	-5.2250401816	-1.8581224298	-0.0134555093	-0.414136
N	-3.14524572	-1.8404006086	-0.9899701191	-0.336561
C	-1.8874302941	-1.383886819	-0.9538497695	-0.076261
H	 1.0910946257	 1.8754995023	-0.1085106855	 0.112939
H	-0.3133909853	 1.7696342504	-1.183899079	 0.115275
H	-0.5480437609	 2.0521732289	 0.548012095	 0.138116
H	 0.5867487127	-0.5321753391	-0.678801741	 0.100905
H	 0.4211214955	-0.2198456737	 1.0467636723	 0.118364
H	-4.1881345489	-0.2373354187	 1.771420171	 0.123843
H	-5.3234573539	-2.43929756	-0.7807327347	 0.300931
H	-1.2263868477	-1.7247856262	-1.7467324259	 0.112407
48.0205	101.2492	209.633	228.5298	328.9947	410.3599	427.3889	440.3677	496.9208	533.2576	605.1411	659.4701	748.8382	786.9797	816.2606	890.1432	926.663	960.5633	981.3427	1040.3491	1071.4174	1087.2259	1179.3715	1255.1875	1258.9924	1283.9113	1322.146	1355.3599	1362.3217	1403.6403	1440.7606	1480.6912	1495.8487	1507.42	1521.8813	1596.5125	1638.7808	3035.3587	3038.9586	3074.0771	3108.4922	3123.5168	3159.9705	3171.6407	3764.0496
CCC1=NC=C(O)N=C1	CCc1ncc(O)nc1	
InChI=1S/C6H8N2O/c1-2-5-3-8-6(9)4-7-5/h3-4H,2H2,1H3,(H,8,9)	InChI=1S/C6H8N2O/c1-2-5-3-8-6(9)4-7-5/h3-4H,2H2,1H3,(H,8,9)
