18
gdb 11381	5.43078	1.20273	1.04697	3.722	74.9	-0.2349	-0.0432	0.1917	1137.3805	0.154094	-347.84875	-347.840807	-347.839863	-347.881664	29.333	
C	 0.0152560975	 1.6021037865	 0.0916165098	-0.389752
C	 0.0228336158	 0.0719824059	 0.03284818	-0.181854
C	 0.6643721147	-0.511163499	-1.2433454497	-0.028832
C	 0.742379163	-2.0539296996	-1.2546979315	-0.359101
C	 0.0603924756	-2.5054343179	-2.5564899668	 0.37928
O	-0.0438227914	-3.6443877559	-2.948159999	-0.330661
C	-0.4359647177	-1.2782437036	-3.2221825436	-0.18564
C	-0.1035762687	-0.1958068382	-2.5099802802	-0.04541
H	 1.0303678371	 2.0063241231	 0.0082981314	 0.117695
H	-0.5838693305	 2.0406912507	-0.7128152766	 0.118594
H	-0.4044393805	 1.9534985093	 1.0388872175	 0.119935
H	 0.5739735951	-0.3193712809	 0.8965275968	 0.104852
H	-1.0016840276	-0.3116693329	 0.1219094462	 0.10293
H	 1.6711406024	-0.0769585085	-1.3298192827	 0.08942
H	 1.7655586413	-2.4384005643	-1.221889151	 0.130095
H	 0.2110360748	-2.4992198741	-0.4067589124	 0.130114
H	-0.9792584724	-1.3045068647	-4.1582840434	 0.113832
H	-0.3426310787	 0.8251024141	-2.7893716148	 0.114502
45.2195	107.0502	191.3676	233.3347	258.4029	353.8484	412.7332	490.4724	572.6644	652.6911	720.4632	787.2097	808.9672	832.4579	838.0143	937.8914	957.4425	1006.8156	1016.5651	1058.1903	1093.3464	1115.4172	1133.1532	1178.2447	1205.0635	1253.3038	1276.9948	1299.4091	1341.8786	1371.2331	1373.8997	1414.8159	1450.8177	1487.8215	1500.5103	1506.7492	1648.0352	1815.2807	2996.1834	3022.8651	3034.3974	3056.6783	3058.9589	3100.7814	3101.4853	3107.3536	3188.2018	3224.5612
CCC1CC(=O)C=C1	CC[C@H]1CC(=O)C=C1	
InChI=1S/C7H10O/c1-2-6-3-4-7(8)5-6/h3-4,6H,2,5H2,1H3	InChI=1S/C7H10O/c1-2-6-3-4-7(8)5-6/h3-4,6H,2,5H2,1H3/t6-/m1/s1
