18
gdb 23455	2.97132	1.24441	1.13974	0.7952	75.5	-0.2255	0.0138	0.2393	1137.3402	0.148081	-439.041376	-439.033093	-439.032149	-439.074182	32.074	
O	-0.1127473542	 1.3232920211	-0.0618093507	-0.39649
N	-0.017683323	-0.082208091	-0.1308765367	-0.254257
C	-1.1554728136	-0.626944313	 0.0568481621	 0.431392
C	-2.4818512214	 0.0434229712	 0.3437028381	-0.304656
C	-3.3899235428	-1.0762334803	 0.9107320455	-0.226738
C	-2.7043233988	-2.403660922	 0.5884928708	-0.091515
C	-2.3746718745	-2.6848188633	-0.8385818874	 0.094132
O	-2.9961031586	-1.9196619475	-1.8278539302	-0.416724
C	-1.2959846533	-2.1030008991	 0.0685888145	-0.194585
H	 0.8064951493	 1.5906740728	-0.1640902357	 0.30374
H	-2.3457644978	 0.8795753334	 1.0341991845	 0.126013
H	-2.885677269	 0.4573284785	-0.5846380876	 0.132549
H	-3.4767273035	-0.9815472334	 1.997602875	 0.105666
H	-4.40147269	-1.0293157476	 0.4981746765	 0.115291
H	-2.8865772454	-3.2468338105	 1.2452981204	 0.091404
H	-2.2285488741	-3.732513302	-1.102360178	 0.092647
H	-2.3510595919	-1.7468481019	-2.5222618222	 0.294077
H	-0.4257557074	-2.7067367152	 0.2938774112	 0.098054
77.6327	163.0856	208.9043	232.7593	269.6949	322.9068	374.4151	459.9269	482.0478	514.4762	627.3517	679.8541	704.5584	753.4789	785.7422	837.9247	847.4538	951.5471	969.4551	988.6144	1011.8889	1031.7301	1045.2663	1090.7256	1112.7884	1182.8595	1224.4037	1233.0668	1244.2295	1281.1286	1296.4125	1320.5371	1337.3859	1361.974	1415.1936	1448.0924	1461.3276	1498.4239	1743.0777	3052.9824	3067.3599	3090.7348	3096.9946	3110.2207	3171.7167	3193.9893	3802.5941	3820.907
ON=C1CCC2C(O)C12	ON=C1CC[C@H]2[C@@H](O)[C@@H]12	
InChI=1S/C6H9NO2/c8-6-3-1-2-4(7-9)5(3)6/h3,5-6,8-9H,1-2H2	InChI=1S/C6H9NO2/c8-6-3-1-2-4(7-9)5(3)6/h3,5-6,8-9H,1-2H2/t3-,5-,6-/m1/s1
