14
gdb 126116	6.99251	0.66903	0.61526	4.0308	77.03	-0.2738	-0.0763	0.1975	1736.9669	0.099561	-432.789325	-432.780973	-432.780029	-432.824169	28.642	
C	-0.0460916853	 1.5357026328	 0.0753357063	-0.370997
C	 0.013634698	 0.0003228195	-0.0284553294	-0.33241
C	 0.6971538208	-0.4638787141	-1.2266881614	 0.249487
C	 1.2663211099	-0.8276024848	-2.2249097385	-0.015373
C	 1.9262203786	-1.2824442828	-3.3815741795	 0.237924
N	 2.4405831305	-0.5196786598	-4.3160722554	-0.148875
O	 2.959847192	-1.379961756	-5.212977411	-0.139512
N	 2.7337721302	-2.6899637525	-4.7738200493	 0.020248
N	 2.119143906	-2.6309790345	-3.6850210926	-0.198036
H	 0.959169221	 1.9637559958	 0.0989497198	 0.138434
H	-0.5775825694	 1.9632278053	-0.7785064246	 0.13848
H	-0.5684950169	 1.8278724533	 0.9901471396	 0.125988
H	 0.5208716449	-0.4156002551	 0.8512820725	 0.147322
H	-1.0016678504	-0.4159918871	-0.0172650465	 0.14732
27.934	73.1124	103.804	189.2221	220.0392	328.4053	430.3184	488.8256	503.0024	579.7053	661.388	668.3653	780.2683	785.1717	900.5531	956.1753	1024.623	1061.8787	1083.6307	1102.2639	1116.6664	1275.304	1282.2968	1346.8302	1413.4825	1467.1436	1495.9155	1500.75	1506.5135	1564.9774	2368.7665	3026.9944	3051.7766	3056.4581	3127.9448	3131.6868
CCC#CC1=NON=N1	CCC#Cc1nonn1	
InChI=1S/C5H5N3O/c1-2-3-4-5-6-8-9-7-5/h2H2,1H3	InChI=1S/C5H5N3O/c1-2-3-4-5-6-8-9-7-5/h2H2,1H3
