16
gdb 20556	4.53736	1.43198	1.42594	6.0621	65.18	-0.2784	-0.0091	0.2693	945.8494	0.131103	-376.093951	-376.086255	-376.085311	-376.127589	27.24	
C	-0.151312689	 1.5884065675	-0.0841236599	-0.391478
C	-0.0211226322	 0.0632172167	-0.0390000545	 0.045857
C	-1.3612559941	-0.643730181	 0.1841773647	-0.390765
N	 0.6330551181	-0.4377006624	-1.2547799279	 0.029107
C	 0.2731659069	-0.3818332287	-2.5494388929	 0.056752
N	 1.1905045399	-0.9779568309	-3.2814879823	-0.224004
N	 2.1322865063	-1.4065871988	-2.401574569	-0.097436
N	 1.8135198852	-1.0918373169	-1.1899846223	-0.124376
H	 0.8210775289	 2.0591514726	-0.2489993642	 0.143575
H	-0.8306432758	 1.9068992906	-0.8815172755	 0.125821
H	-0.5556719542	 1.9519206715	 0.8645872915	 0.133485
H	 0.6720275265	-0.216862238	 0.7581027105	 0.130197
H	-2.0781767145	-0.396367865	-0.605488405	 0.125811
H	-1.2316380479	-1.7286358099	 0.2068260561	 0.143813
H	-1.7913507404	-0.3265559416	 1.1382140896	 0.133241
H	-0.6279192836	 0.0822943844	-2.9143229089	 0.160401
13.2965	131.9216	212.344	224.0297	266.8406	317.8489	419.9239	484.0203	646.6708	695.526	738.5213	864.7858	892.2997	937.8063	955.0104	989.8344	1037.2583	1101.9856	1123.9752	1150.0021	1150.9793	1203.4919	1220.6129	1314.0495	1354.4974	1365.96	1404.3407	1423.7302	1465.1651	1484.406	1487.2378	1498.8044	1505.0987	1510.6984	3041.7123	3045.0237	3087.1042	3111.9184	3122.4042	3128.6143	3130.7645	3286.915
CC(C)N1C=NN=N1	CC(C)n1cnnn1	
InChI=1S/C4H8N4/c1-4(2)8-3-5-6-7-8/h3-4H,1-2H3	InChI=1S/C4H8N4/c1-4(2)8-3-5-6-7-8/h3-4H,1-2H3
