17
gdb 25710	4.41323	0.76042	0.69943	0.8494	82.08	-0.2219	0.0206	0.2425	1622.8787	0.135487	-384.693714	-384.684691	-384.683746	-384.73008	31.488	
C	 0.0490300562	 1.5034960013	-0.2594844232	-0.495738
C	 0.0358709039	 0.0548818524	-0.1125139442	 0.049803
C	 0.0271186987	-1.1419685604	 0.0152478821	 0.082604
C	 0.0034954346	-2.5979162707	 0.1571986462	-0.478811
C	-1.3821461763	-3.1888381194	 0.0973777567	 0.263015
C	-1.957047059	-4.0193413771	 1.0067070586	-0.102136
O	-3.2100803605	-4.3766448666	 0.6152957741	-0.143386
C	-3.4389603384	-3.7557695243	-0.5721022371	 0.005972
C	-2.3625226526	-3.0168830164	-0.9401961615	-0.272798
H	 0.5960893545	 1.9821117087	 0.5604267724	 0.146766
H	 0.5277994426	 1.8067831157	-1.1972557744	 0.145312
H	-0.9676510438	 1.9120328496	-0.2599609584	 0.147801
H	 0.627161051	-3.0433349867	-0.631023246	 0.137505
H	 0.475258534	-2.8853979314	 1.105105855	 0.131382
H	-1.6213428815	-4.4313249849	 1.9444050253	 0.132845
H	-4.4034888479	-3.9385427529	-1.0162623685	 0.134428
H	-2.2652032256	-2.4114588269	-1.8276934473	 0.115436
20.248	36.116	68.6011	197.0059	217.2096	292.0733	327.0072	380.0453	447.8913	621.3165	622.2763	718.5114	735.2777	766.6088	796.027	835.3937	892.504	930.8329	987.57	1052.9052	1054.3192	1054.9488	1099.1512	1163.2607	1193.6961	1215.4455	1267.9385	1281.2253	1340.4297	1412.9744	1416.0187	1465.775	1479.1077	1479.5306	1537.8255	1635.9629	2375.8683	3002.431	3025.3469	3042.9809	3085.0515	3085.8795	3255.33	3271.5954	3284.4262
CC#CCC1=COC=C1	CC#CCc1cocc1	
InChI=1S/C8H8O/c1-2-3-4-8-5-6-9-7-8/h5-7H,4H2,1H3	InChI=1S/C8H8O/c1-2-3-4-8-5-6-9-7-8/h5-7H,4H2,1H3
