19
gdb 64654	3.51513	1.20418	1.09794	1.0923	81.36	-0.2553	0.044	0.2993	1165.322	0.158584	-385.801075	-385.792819	-385.791875	-385.833793	33.15	
O	 0.0367296749	 1.3227989249	-0.0730653409	-0.496012
C	-0.0063175372	-0.0854831457	-0.0408809287	 0.483234
C	 1.0088602358	-0.6264505603	-1.0701943648	-0.430447
C	 0.7086696297	-0.1250192603	-2.4084168973	 0.27416
C	 0.4218440743	 0.3346966482	-3.48274535	-0.442644
C	-0.0422512441	-0.6627163344	 1.4031069842	-0.100531
C	-1.4913741579	-0.0870608244	 1.5105761928	-0.23063
C	-1.4165287447	-0.7652819626	 0.1071112932	-0.109593
C	-0.7039072497	-1.9483433168	 0.8245662002	-0.24106
H	-0.0376186116	 1.5926638053	-0.9970510885	 0.283303
H	 2.0070817932	-0.283324126	-0.7710224923	 0.139438
H	 1.0394393104	-1.7180559988	-1.0890965828	 0.134499
H	 0.1859704472	 0.7138027298	-4.446381547	 0.201199
H	 0.7535025152	-0.6004489213	 2.1474152632	 0.070756
H	-2.1394845013	-0.5807578624	 2.2383498613	 0.086684
H	-1.5919332029	 0.9950070382	 1.5329563481	 0.118051
H	-2.2040356346	-0.8243356662	-0.6457227532	 0.072261
H	-0.0940580892	-2.6331585996	 0.2342367144	 0.089993
H	-1.3239205075	-2.5047060478	 1.5305369481	 0.097339
65.1428	121.8332	230.7975	321.7986	348.126	386.3461	408.1149	419.2079	460.2504	561.4069	609.3646	622.7881	654.5706	703.0081	794.5374	804.8027	881.9073	898.4708	903.3483	938.5706	972.473	1004.1712	1014.062	1033.7323	1062.6051	1086.3154	1111.3093	1142.7107	1172.5911	1182.6531	1196.171	1226.9461	1242.0356	1246.4657	1284.3346	1306.6348	1397.8666	1460.0815	1500.3711	1541.9227	2229.0589	3036.5961	3070.7808	3074.272	3098.4572	3100.5158	3106.7579	3131.0706	3172.2721	3503.5235	3767.0721
OC1(CC#C)C2CC1C2	O[C@@]1(CC#C)[C@H]2C[C@@H]1C2	
InChI=1S/C8H10O/c1-2-3-8(9)6-4-7(8)5-6/h1,6-7,9H,3-5H2	InChI=1S/C8H10O/c1-2-3-8(9)6-4-7(8)5-6/h1,6-7,9H,3-5H2/t6-,7+,8-
