29
gdb 58099	2.05708	1.17758	1.05509	0.0834	98.31	-0.2882	0.0731	0.3613	1437.9328	0.272392	-354.77053	-354.75826	-354.757316	-354.807308	46.861	
C	 0.08586844	 1.5923378067	 0.0237711716	-0.411807
C	-0.0141397285	 0.0549751396	 0.0385117924	 0.033351
C	 0.8420160148	-0.4818664664	 1.1989951404	-0.408764
C	-1.4878860705	-0.4961715972	 0.0136428647	 0.293717
C	-2.2555688116	-0.0390873422	 1.2731952148	-0.431612
C	-2.2127126149	 0.0718942891	-1.225966614	-0.431625
C	-1.4740561469	-2.0691156198	-0.0310263136	 0.033387
C	-2.8727447004	-2.7144085277	 0.000379393	-0.411806
C	-0.6864291676	-2.6611358062	-1.2130119459	-0.408784
H	 1.1364466118	 1.8903783505	-0.059402574	 0.108196
H	-0.4456737431	 2.0423546502	-0.8179904688	 0.112404
H	-0.3003447141	 2.0399935186	 0.9454527354	 0.113901
H	 0.4535213695	-0.2844505558	-0.8938691208	 0.07143
H	 0.429926867	-0.1930809136	 2.1718989782	 0.113835
H	 0.9404277082	-1.5700973141	 1.1877023193	 0.114432
H	 1.8531062186	-0.0651264692	 1.1408031634	 0.1073
H	-2.1635435592	 1.03985803	 1.4249981937	 0.109589
H	-3.323811426	-0.2541390285	 1.1861827447	 0.112449
H	-1.8927456066	-0.5365761893	 2.1784926004	 0.108435
H	-1.6348505917	-0.0771075866	-2.1438902392	 0.108427
H	-3.1895296262	-0.3991848108	-1.3657510525	 0.109594
H	-2.3933462009	 1.1450195505	-1.1223814636	 0.112452
H	-0.9730692434	-2.3953189957	 0.8886815312	 0.071426
H	-3.4449492061	-2.5038918391	-0.909189422	 0.113903
H	-2.7726241	-3.8028492243	 0.069161936	 0.108199
H	-3.4689111381	-2.3896438883	 0.8563771502	 0.112397
H	-1.120367809	-2.3674149931	-2.1748766155	 0.113837
H	 0.3649227476	-2.3632994289	-1.2160472509	 0.114438
H	-0.7124736027	-3.7550706687	-1.1683946086	 0.107297
49.1463	53.8015	184.6883	200.9242	205.1365	228.7979	241.0587	245.7164	247.628	289.9414	311.5915	361.5314	367.8021	372.469	398.3711	457.1572	458.25	460.5979	559.792	669.4768	780.9469	883.364	914.7752	926.3789	928.2104	935.7452	940.019	966.5088	970.0737	1008.7062	1038.5858	1090.8059	1110.56	1143.5127	1162.9483	1195.1447	1211.9043	1242.2797	1249.7015	1344.7739	1356.9889	1358.4764	1370.6415	1395.2236	1399.743	1402.4207	1410.0035	1422.5075	1433.0104	1480.9671	1483.6836	1487.9974	1490.8677	1497.9298	1500.2246	1508.6876	1510.9372	1513.3114	1516.0555	1521.6698	1524.7609	3022.2685	3023.2526	3035.5255	3035.541	3037.6254	3038.1805	3042.0679	3047.3035	3091.2083	3091.3025	3098.2687	3098.3023	3105.7761	3105.8054	3109.6791	3113.172	3114.4167	3115.7199	3122.2793	3123.8279
CC(C)C(C)(C)C(C)C	CC(C)C(C)(C)C(C)C	
InChI=1S/C9H20/c1-7(2)9(5,6)8(3)4/h7-8H,1-6H3	InChI=1S/C9H20/c1-7(2)9(5,6)8(3)4/h7-8H,1-6H3
