23
gdb 122907	4.41491	0.55352	0.50803	1.4134	90.21	-0.2525	0.0561	0.3086	2213.5066	0.202153	-388.256812	-388.245327	-388.244383	-388.294629	40.414	
C	 0.1205412273	 1.5598928999	-0.0396309584	-0.384647
C	 0.0245511658	 0.0436460635	-0.026098217	-0.029051
O	 0.6846115067	-0.4602514636	-1.1687367986	-0.243475
C	 0.6489079323	-1.8669184658	-1.2606084372	-0.06417
C	 1.3618520323	-2.2732569413	-2.5458190065	-0.190542
C	 1.5281414329	-3.8022335199	-2.7122202817	-0.164176
C	 0.1820071032	-4.5485539925	-2.8255783469	-0.386383
C	 2.3706667557	-4.091407554	-3.8723910432	 0.317566
C	 3.0470420061	-4.3193931949	-4.8398750528	-0.458416
H	 1.1668784365	 1.877970366	-0.0275492801	 0.126913
H	-0.3496563689	 1.9655734005	-0.9399192375	 0.126708
H	-0.3817233064	 1.9822440483	 0.8358216295	 0.113639
H	 0.4838967071	-0.3652511566	 0.8904397629	 0.083634
H	-1.0314748754	-0.2772074758	-0.0242002702	 0.083555
H	 1.1470712518	-2.3232004577	-0.3857273103	 0.081251
H	-0.3955499377	-2.2198441937	-1.2539281974	 0.086626
H	 0.8173802043	-1.8691479278	-3.4064286985	 0.113623
H	 2.3501759841	-1.8033299446	-2.5492388393	 0.118705
H	 2.0489237638	-4.1811081949	-1.8205083639	 0.104788
H	 0.3476956496	-5.6173370776	-2.9826703713	 0.127033
H	-0.4132441837	-4.4264106609	-1.9165988989	 0.117546
H	-0.3975926235	-4.167919165	-3.6722520582	 0.126811
H	 3.6528446562	-4.5252522917	-5.6871593243	 0.192462
47.4039	53.8933	83.0439	122.384	134.7687	169.0824	202.4524	246.1059	249.6842	281.2713	366.2375	371.2393	491.7151	533.3096	561.8479	625.817	633.954	791.9401	820.676	830.4338	898.3018	938.4085	971.3596	1031.7576	1061.1465	1085.7075	1121.2584	1147.9568	1168.5434	1174.5643	1193.6548	1244.2852	1286.7776	1294.4296	1311.2333	1338.4592	1359.5235	1392.1048	1409.7846	1411.5996	1454.621	1483.3919	1488.2885	1495.5198	1499.6231	1504.4399	1517.6207	1539.6581	2234.9753	2936.7411	2952.4436	2972.8941	2979.2069	2996.8524	3043.6046	3044.9812	3049.7654	3095.4768	3117.2329	3119.3051	3121.6307	3122.681	3505.6355
CCOCCC(C)C#C	CCOCC[C@@H](C)C#C	
InChI=1S/C8H14O/c1-4-8(3)6-7-9-5-2/h1,8H,5-7H2,2-3H3	InChI=1S/C8H14O/c1-4-8(3)6-7-9-5-2/h1,8H,5-7H2,2-3H3/t8-/m0/s1
