15
gdb 126873	1.50793	1.13674	0.69304	3.1719	72.7	-0.2587	-0.0361	0.2226	1575.6053	0.106537	-450.185057	-450.172815	-450.171871	-450.22917	35.234	
C	 0.2446359476	 1.3212287562	 0.348578024	-0.371981
C	-0.1018475015	 0.0845983217	-0.4783224563	-0.139608
N	 0.8496680719	-0.1106173484	-1.5458573243	-0.280326
C	 1.6058755279	-0.896349629	-2.0223112568	 0.543234
N	 2.3392476302	-1.6463661139	-2.6940579923	-0.382155
C	 3.6449412312	-1.9742733237	-2.3222675616	 0.122063
O	 4.1891427244	-1.6856812657	-1.2843195417	-0.272625
N	 3.4753276168	-1.942358693	 1.9860654756	 0.011406
N	 2.6043493921	-1.6016030121	 1.4099797867	-0.011727
H	 1.2212043079	 1.2045948711	 0.8250604118	 0.143187
H	 0.2702784265	 2.2145183229	-0.2808484279	 0.136037
H	-0.5084035652	 1.4653786448	 1.1286458625	 0.125027
H	-0.1269463669	-0.8079521389	 0.1555952584	 0.140444
H	-1.0911826366	 0.2009222959	-0.9335839286	 0.1345
H	 4.1392155836	-2.563375058	-3.1108922794	 0.102523
13.9107	23.1092	30.282	42.1515	51.013	68.0653	83.2597	107.7664	148.2331	218.7031	267.4169	390.6332	531.2611	626.6521	748.9347	792.7881	800.8778	974.7159	1044.2994	1077.3167	1113.1097	1155.1112	1308.1845	1378.1262	1412.7781	1419.4058	1487.5953	1489.7132	1500.1991	1510.9748	1764.8832	2302.9549	2434.082	3014.418	3040.2895	3049.8154	3081.4283	3126.0775	3133.8466
CCN=C1N=CON=N1	CC[N][C][N]C=O.N#N	
InChI=1S/C4H6N4O/c1-2-5-4-6-3-9-8-7-4/h3H,2H2,1H3	InChI=1S/C4H6N2O.N2/c1-2-5-3-6-4-7;1-2/h4H,2H2,1H3;
