21
gdb 113350	2.68438	0.95691	0.82697	3.0315	80.9	-0.248	-0.0161	0.2319	1470.4841	0.179922	-424.224021	-424.213602	-424.212658	-424.259815	37.339	
C	 0.3692789138	 1.5102205432	 0.3225738106	-0.383757
C	-0.200522337	 0.1512076741	-0.1060563971	-0.270198
C	 0.5532123659	-0.4683431783	-1.2719035235	 0.231486
C	 1.9322575071	-1.0939401049	-1.0689427431	-0.322927
C	 0.7847288113	-1.9794720743	-1.4121233922	-0.043259
C	 0.2192616994	-2.9741394045	-0.4298557897	-0.108818
O	 0.9526493893	-4.180605271	-0.5926743576	-0.417485
C	 0.3608578016	 0.1983400924	-2.5873039236	 0.12546
O	-0.3784159619	 1.1298498568	-2.7934213722	-0.275661
H	 1.4167115846	 1.420438	 0.6301892179	 0.110224
H	 0.3131096134	 2.2298481035	-0.4971818119	 0.143324
H	-0.194821903	 1.9150837795	 1.1683353277	 0.110868
H	-0.1897238013	-0.5309400398	 0.7491779752	 0.093741
H	-1.248627933	 0.2754592317	-0.399793461	 0.116233
H	 2.7003423976	-0.9128347336	-1.8137405583	 0.122065
H	 2.2951118016	-1.1081844183	-0.0462878656	 0.126237
H	 0.7608098198	-2.3540045761	-2.4329342867	 0.101724
H	 0.3076333098	-2.5953148422	 0.5985877147	 0.089698
H	-0.8520388032	-3.1307131201	-0.632782578	 0.095794
H	 0.5528999478	-4.8506208488	-0.0299505802	 0.288438
H	 0.9645111765	-0.2468595893	-3.4143244255	 0.066815
60.8119	90.9915	109.1018	144.504	197.2042	210.3211	243.0423	266.2827	305.557	328.8932	357.6073	436.3845	517.3245	606.3808	735.1037	793.7952	815.63	880.9466	910.987	920.8009	990.5119	1014.3032	1043.607	1058.1086	1070.9391	1100.6669	1103.8667	1133.4815	1171.5937	1234.5631	1257.0195	1281.5454	1315.4711	1332.1552	1371.2944	1403.7345	1405.7903	1443.0349	1467.8648	1477.7951	1490.2555	1496.1261	1511.4977	1521.2177	1812.4702	2844.4085	2974.1452	3008.6643	3038.9527	3046.5513	3084.214	3103.6283	3127.8344	3132.607	3135.7993	3213.3801	3825.8088
CCC1(CC1CO)C=O	CC[C@]1(C[C@H]1CO)C=O	
InChI=1S/C7H12O2/c1-2-7(5-9)3-6(7)4-8/h5-6,8H,2-4H2,1H3	InChI=1S/C7H12O2/c1-2-7(5-9)3-6(7)4-8/h5-6,8H,2-4H2,1H3/t6-,7-/m0/s1
