19
gdb 35379	3.95926	1.2925	1.1704	0.7479	85.14	-0.2533	0.0576	0.3109	1100.897	0.161036	-348.686709	-348.67951	-348.678565	-348.718272	29.648	
C	-0.0779504172	-1.229338194	-0.0947978119	-0.468369
C	-0.0518911276	-0.0280503779	-0.0394449163	 0.31985
C	-0.0009826148	 1.4248843748	 0.0387108837	-0.193262
C	-0.5083727153	 2.0199533496	 1.3992743508	-0.266816
C	 0.7432246744	 2.7782290099	 1.8322437145	 0.009148
C	 1.398117416	 3.4543697858	 0.5832720415	-0.071399
C	 2.7926750372	 3.2315545273	 1.2148192884	-0.241552
C	 2.0097859837	 1.9258081572	 1.4923229598	-0.049639
C	 1.4328040652	 1.9904780579	 0.0432114646	 0.006935
H	-0.1080679771	-2.289169067	-0.1485824163	 0.191257
H	-0.5688616896	 1.8434584716	-0.8010107616	 0.098629
H	-1.3730322154	 2.6759511675	 1.2604139243	 0.100957
H	-0.7907517909	 1.2347722757	 2.1051185225	 0.112695
H	 0.7169836649	 3.3285729469	 2.7749222486	 0.062417
H	 1.0329447269	 4.3358170393	 0.0515939734	 0.065284
H	 3.6403659707	 3.1618031587	 0.5271223387	 0.089875
H	 3.0421653682	 3.848916881	 2.0825945389	 0.089291
H	 2.3543792192	 1.0317229434	 2.0139411311	 0.074402
H	 2.0773127415	 1.7417087423	-0.8011876247	 0.070299
92.0033	149.8307	276.9956	348.8055	406.3035	474.1465	531.7978	618.8504	620.5249	674.9858	716.1433	771.4628	813.4863	837.1981	874.8112	890.0629	914.4999	946.8557	972.673	989.2694	1007.7469	1034.3069	1041.9094	1066.2611	1088.9955	1110.32	1125.0549	1139.2857	1189.3995	1206.8017	1230.7523	1236.5012	1250.8597	1264.4936	1281.1661	1299.6687	1337.7256	1367.0105	1495.5141	1518.8101	2232.2789	3028.4406	3045.4824	3056.2414	3084.455	3095.7634	3101.6756	3104.3519	3105.7322	3113.9317	3504.8198
C#CC1CC2C3CC2C13	C#C[C@H]1C[C@@H]2[C@H]3C[C@@H]2[C@@H]13	
InChI=1S/C9H10/c1-2-5-3-6-7-4-8(6)9(5)7/h1,5-9H,3-4H2	InChI=1S/C9H10/c1-2-5-3-6-7-4-8(6)9(5)7/h1,5-9H,3-4H2/t5-,6-,7-,8+,9+/m0/s1
