18
gdb 7660	3.13972	2.2452	1.57216	2.9572	67.92	-0.24	0.0631	0.3031	850.5434	0.153834	-384.887531	-384.880173	-384.879228	-384.918414	30.097	
C	-0.1361974451	 1.5474564246	-0.0833343233	-0.480738
C	 0.0281945513	 0.0325078134	-0.0681609122	 0.455641
O	-1.2480206318	-0.5359014243	-0.395443728	-0.495998
C	 1.298156443	-0.6461470762	-0.6967127304	-0.179694
C	 2.0748939273	-0.1644004327	 0.5618101073	-0.243331
C	 0.723993811	-0.698235187	 1.1205022685	-0.152259
C	 0.9699701919	-1.9253279463	 0.1620566644	 0.193182
O	-0.0168847955	-2.8371421461	-0.1778473957	-0.452474
H	-0.4239454763	 1.8835863122	-1.0882220729	 0.108651
H	-0.936808566	 1.8366460832	 0.6041922696	 0.131542
H	 0.7673498709	 2.091849311	 0.1905355464	 0.128422
H	-1.5546369114	-0.1304496529	-1.2136734309	 0.283286
H	 1.6289351802	-0.6006843743	-1.7364287302	 0.065857
H	 2.9565841646	-0.751874826	 0.8250748234	 0.10157
H	 2.2776616222	 0.8997211676	 0.6581092358	 0.098679
H	 0.3942205022	-0.7121841239	 2.1606004066	 0.072842
H	 1.8565891367	-2.5084883038	 0.425478178	 0.078019
H	-0.8096106652	-2.3177870283	-0.3759354962	 0.286805
176.1849	195.2551	297.5456	305.4263	373.9193	403.1655	428.246	448.4493	527.3869	638.8238	656.3331	665.2453	752.5014	794.4494	855.5627	890.3654	896.1379	937.5283	1007.9872	1030.3873	1066.7827	1071.2387	1088.2742	1126.3505	1149.9301	1166.8162	1180.7333	1194.6376	1230.4586	1244.9565	1270.6839	1354.3559	1369.1364	1412.2558	1486.1625	1492.7006	1501.1147	1538.0461	3025.4031	3073.4004	3081.8469	3092.7715	3094.3397	3106.9572	3141.6674	3163.1618	3714.1649	3806.0182
CC1(O)C2CC1C2O	C[C@@]1(O)[C@H]2C[C@@H]1[C@H]2O	
InChI=1S/C6H10O2/c1-6(8)3-2-4(6)5(3)7/h3-5,7-8H,2H2,1H3	InChI=1S/C6H10O2/c1-6(8)3-2-4(6)5(3)7/h3-5,7-8H,2H2,1H3/t3-,4+,5-,6+
