18
gdb 47423	2.86767	1.35838	1.00633	1.7071	72.97	-0.2645	0.0193	0.2838	1183.1907	0.148653	-439.081216	-439.073031	-439.072086	-439.114876	30.129	
N	-0.1690969228	 1.3129524317	-0.0399521912	-0.530992
C	-0.0892008411	 0.0586564407	-0.1212471891	 0.38269
O	 1.0589500318	-0.6722607033	-0.2211801129	-0.236614
C	 0.7097076626	-2.0568207027	-0.2191531721	 0.01486
O	-0.6492032552	-2.1414503203	-0.5429466057	-0.253367
C	-1.2593362303	-0.9125616842	-0.130217236	-0.003233
C	-1.9600123331	-1.0164907895	 1.2039910777	 0.016178
C	-3.1047686192	-0.0830726533	 1.5007771389	-0.252079
C	-3.3708716917	-1.545750734	 1.2576237271	-0.278365
H	 0.7583254122	 1.7400668087	-0.0393130916	 0.2268
H	 1.299766048	-2.5758290496	-0.9801948658	 0.129009
H	 0.9269866122	-2.4707255286	 0.7783520314	 0.10544
H	-1.9790089781	-0.6268285034	-0.9034743735	 0.113341
H	-1.3082298133	-1.2684208729	 2.0361157912	 0.085727
H	-3.1944375377	 0.3021137728	 2.5096434899	 0.117621
H	-3.3853580649	 0.6269158225	 0.7308750177	 0.128601
H	-3.8377997356	-1.8328181188	 0.3211784174	 0.118444
H	-3.6474620039	-2.1696122957	 2.0998439867	 0.11594
66.7939	76.7652	152.5525	166.3567	277.7251	302.4376	400.4143	494.2918	637.8069	679.8307	754.7235	767.6951	829.1747	877.1192	890.7189	897.6263	936.7781	975.8004	1003.2982	1011.339	1053.7005	1068.3448	1080.1891	1128.5837	1134.1104	1177.7661	1179.5515	1193.9778	1218.8087	1227.6274	1277.7936	1311.1806	1333.3547	1423.1141	1445.8391	1472.6565	1506.9381	1548.4089	1793.1832	2977.0108	3066.9468	3084.7084	3135.2332	3142.1861	3146.177	3215.0449	3230.9124	3478.7294
N=C1OCOC1C1CC1	[NH][C]1OCO[C@H]1C1CC1	
InChI=1S/C6H9NO2/c7-6-5(4-1-2-4)8-3-9-6/h4-5,7H,1-3H2	InChI=1S/C6H9NO2/c7-6-5(4-1-2-4)8-3-9-6/h4-5,7H,1-3H2/t5-/m0/s1
