18
gdb 71177	2.60219	1.64646	1.32052	1.8586	80.85	-0.2381	0.0372	0.2754	1027.4661	0.147015	-364.71401	-364.706103	-364.705159	-364.74605	31.45	
C	 0.0203778751	 1.5736354376	 0.0271360163	-0.516526
C	 0.0399868304	 0.0708073854	 0.0736284189	 0.284282
C	-1.2234525207	-0.7920567012	 0.2472104131	-0.190049
N	-0.3926123678	-1.8878267223	 0.8468716212	-0.145618
C	 0.8907423146	-1.860213271	 0.068392137	-0.049559
C	 0.6678731787	-0.892242075	 1.1643140647	-0.123164
C	 0.8436431825	-0.7558355274	-0.9982304628	-0.21699
C	 0.2644926566	-0.9934446345	-2.3078432429	 0.30641
C	-0.222208813	-1.1795602856	-3.3922871453	-0.448022
H	 1.0331928048	 1.9905803102	 0.0332636004	 0.121086
H	-0.4781987089	 1.9213864548	-0.88488247	 0.133809
H	-0.5199775197	 1.9889330093	 0.8845519396	 0.122632
H	-1.8929462199	-0.4084655597	 1.0220703764	 0.105063
H	-1.793626379	-1.0649782799	-0.6468248017	 0.113442
H	 1.4681828562	-2.7746861918	 0.0522000621	 0.104884
H	 1.1171151113	-0.7550298859	 2.1389444777	 0.098423
H	 1.8467585502	-0.3268105714	-1.0977700286	 0.10396
H	-0.6483456913	-1.3513953914	-4.3497197259	 0.195937
118.3051	146.5405	211.8433	268.4786	290.8443	379.3463	414.9746	536.0153	552.837	623.0794	629.3946	639.2278	726.8551	779.7741	807.3713	824.133	860.7934	925.2808	940.5098	975.9057	990.0511	1007.3325	1019.0217	1068.0954	1125.0085	1142.2122	1152.8345	1179.6425	1205.3174	1237.395	1266.2398	1313.7839	1337.2693	1368.7659	1415.5669	1488.5399	1493.402	1507.2384	2228.592	3026.4899	3046.3737	3050.1795	3093.9511	3095.6966	3106.0597	3199.2037	3214.1494	3502.1262
CC12CN3C(C13)C2C#C	C[C@]12CN3[C@H]([C@@H]13)[C@H]2C#C	
InChI=1S/C8H9N/c1-3-5-6-7-8(5,2)4-9(6)7/h1,5-7H,4H2,2H3	InChI=1S/C8H9N/c1-3-5-6-7-8(5,2)4-9(6)7/h1,5-7H,4H2,2H3/t5-,6+,7+,8-,9?/m1/s1
