17
gdb 116857	4.98977	0.5225	0.47722	4.4673	78.35	-0.2584	-0.0481	0.2103	2226.0827	0.131543	-458.916467	-458.905689	-458.904744	-458.95439	35.267	
C	-0.0280887345	 1.3728066999	 0.0400515865	-0.222609
O	-0.0281229657	-0.038112441	 0.0631036732	-0.22933
C	 0.6142157159	-0.5858177077	-1.0674294425	-0.206029
C	 0.592524779	-2.0392006228	-1.0048327843	 0.023639
C	 0.592987417	-3.2455000232	-0.9856707562	 0.095215
C	 0.5896434197	-4.6968341595	-0.9556732411	 0.224017
O	 1.0861106077	-5.3684281069	-1.8282664159	-0.262882
C	-0.0959699244	-5.2803367731	 0.2743940046	-0.17672
O	-0.050635909	-6.6791177724	 0.2168457895	-0.395108
H	 0.9947631313	 1.7809080905	 0.0360841105	 0.110325
H	-0.5598622462	 1.766641213	-0.8402329098	 0.110329
H	-0.5406300916	 1.7079456383	 0.9438465854	 0.136492
H	 0.1215154324	-0.2558399911	-1.99921287	 0.128998
H	 1.66171585	-0.2414842443	-1.1310547216	 0.12899
H	 0.4157725711	-4.8647153743	 1.1598359976	 0.119753
H	-1.1241650193	-4.8790320051	 0.2946740397	 0.119759
H	-0.4878813335	-7.0234519206	 1.0009192744	 0.29516
41.9207	52.9495	66.993	89.0941	160.6512	165.3919	208.9394	234.5408	272.149	322.3515	380.3668	395.4278	571.9817	577.1255	596.5173	785.8709	959.7894	991.3968	1010.9721	1017.2644	1126.534	1151.2253	1182.4899	1184.2625	1221.2457	1244.4194	1244.9378	1250.3418	1404.5953	1441.3521	1476.0784	1486.0125	1489.0373	1489.6894	1513.6954	1787.7992	2337.459	2946.7072	2956.145	2964.7478	2974.8059	2979.3603	3020.6049	3127.2705	3838.2554
COCC#CC(=O)CO	COCC#CC(=O)CO	
InChI=1S/C6H8O3/c1-9-4-2-3-6(8)5-7/h7H,4-5H2,1H3	InChI=1S/C6H8O3/c1-9-4-2-3-6(8)5-7/h7H,4-5H2,1H3
