17
gdb 107533	2.03801	1.62686	1.10277	2.7191	72.32	-0.2626	0.0178	0.2805	1121.4071	0.136216	-417.965972	-417.957454	-417.956509	-417.999732	31.202	
O	 0.1715555765	 1.385125166	 0.0664848981	-0.403493
C	 0.0447449708	-0.0226325673	-0.0438822143	-0.177145
C	-1.3947575175	-0.4467822142	 0.0281696821	 0.311208
C	-2.0655548952	-0.9838436378	 1.2314433227	-0.296123
N	-1.8566341896	-1.8902082034	 0.0841049072	-0.165382
C	-2.9448685846	-1.5464930969	-0.8927322754	-0.173599
C	-2.4310159882	-0.0777818678	-1.0479678453	-0.220132
C	-3.3403050041	 1.0212451097	-0.7629311903	 0.274688
N	-4.0799331962	 1.8727304156	-0.5077091578	-0.331293
H	-0.1924697889	 1.6533860549	 0.9171386212	 0.292066
H	 0.4667633889	-0.2821230689	-1.0210116013	 0.119745
H	 0.6261816846	-0.562615532	 0.7186611633	 0.104844
H	-1.4345403094	-1.229479693	 2.0802278032	 0.130835
H	-3.076776084	-0.6742086066	 1.487067634	 0.135836
H	-2.8394941075	-2.1316543758	-1.806555549	 0.130991
H	-3.9546560667	-1.6666057088	-0.4919506276	 0.130306
H	-1.9611822891	 0.0833463362	-2.0206513807	 0.136648
61.9641	89.0542	132.3506	217.4591	275.7032	316.6574	376.3751	406.4936	468.4153	531.7975	546.0852	697.5535	746.6112	800.7246	856.5648	894.2429	948.026	981.0197	1010.9615	1044.0864	1067.1274	1079.4148	1111.5889	1126.2992	1172.8008	1189.8762	1207.4287	1271.0625	1308.5607	1328.0527	1363.1806	1405.2061	1424.2822	1489.6179	1501.089	1512.1028	2352.9417	2994.8372	3069.8084	3070.1798	3092.6883	3105.2877	3138.0238	3199.5997	3808.6589
OCC12CN1CC2C#N	OC[C@]12CN1C[C@H]2C#N	
InChI=1S/C6H8N2O/c7-1-5-2-8-3-6(5,8)4-9/h5,9H,2-4H2	InChI=1S/C6H8N2O/c7-1-5-2-8-3-6(5,8)4-9/h5,9H,2-4H2/t5-,6+,8?/m1/s1
