21
gdb 116527	3.08468	0.87089	0.72913	1.8743	83.76	-0.2354	-0.0476	0.1878	1638.4735	0.180317	-420.443965	-420.433059	-420.432115	-420.480799	38.712	
C	-0.1175226316	 1.6025251296	-0.3217477962	-0.369329
C	-0.1453353341	 0.1607740078	 0.2080320092	-0.154802
N	-1.4738522964	-0.4227089732	 0.1113328794	-0.278046
C	-1.8019155692	-1.0388711468	-0.9611489052	 0.26226
N	-1.0567707767	-1.2891890285	-2.0842279508	-0.55232
C	-3.1975941912	-1.6386573964	-1.0489550194	 0.360298
O	-3.5555256352	-2.1531260119	-2.0896930293	-0.330157
C	-4.0763545572	-1.5603544716	 0.1785938231	-0.274827
C	-5.4699330544	-2.141486766	-0.0446346162	-0.38361
H	 0.8718027214	 2.0484499282	-0.1791992608	 0.115375
H	-0.3594249181	 1.6428561919	-1.3892258029	 0.110028
H	-0.8535895153	 2.2138720167	 0.2076529401	 0.131419
H	 0.6160256967	-0.4444145399	-0.3115472508	 0.085741
H	 0.1356229696	 0.1700844458	 1.2669937912	 0.1064
H	-0.2665758508	-0.7090281577	-2.303065366	 0.259513
H	-1.5831765083	-1.6681164744	-2.8580651585	 0.268979
H	-3.5470909303	-2.0701735218	 0.9931199821	 0.137539
H	-4.1084585637	-0.5134011677	 0.4996994482	 0.14093
H	-6.0643468839	-2.0713894734	 0.8704565799	 0.110185
H	-5.9976539138	-1.607017118	-0.839357375	 0.126168
H	-5.4161260276	-3.1920749327	-0.3420857822	 0.128256
50.2376	58.5024	91.4372	116.7879	160.7876	198.7565	225.1101	288.9605	329.8576	341.5518	391.2874	408.0068	494.6869	543.0805	569.5006	671.6012	688.6427	765.9571	818.9703	826.7977	887.7778	985.3521	1019.8154	1051.8304	1079.7073	1093.9345	1132.2718	1141.8594	1196.5747	1259.661	1300.4027	1332.1124	1363.1704	1390.8954	1405.3412	1415.1095	1436.7062	1489.9328	1494.0139	1498.4389	1499.0371	1525.525	1604.0766	1725.3528	1782.6177	2964.8075	3035.6706	3048.6648	3049.3183	3051.2219	3076.7292	3104.4316	3118.1926	3120.1361	3123.2847	3582.9636	3722.5027
CCN=C(N)C(=O)CC	CCN=C(N)C(=O)CC	
InChI=1S/C6H12N2O/c1-3-5(9)6(7)8-4-2/h3-4H2,1-2H3,(H2,7,8)	InChI=1S/C6H12N2O/c1-3-5(9)6(7)8-4-2/h3-4H2,1-2H3,(H2,7,8)
