25
gdb 119604	3.78443	0.88365	0.81372	0.1526	92.73	-0.2514	0.0865	0.3379	1571.8886	0.230561	-352.373187	-352.363793	-352.362849	-352.407507	36.588	
C	-0.0217536132	 1.6129171251	-0.3067344684	-0.379887
C	-0.0114462811	 0.0869373795	-0.1851506726	-0.158391
C	-1.3904704483	-0.4973436037	 0.1557537488	-0.285116
C	-1.4133549809	-2.0082263536	 0.2485916554	 0.396735
C	-1.5708100863	-2.826906341	-1.0144745993	-0.333858
C	-2.6752462148	-2.8168102259	 0.0181030947	-0.083413
C	-2.7159458514	-3.9632686106	 1.017441726	-0.212976
C	-1.2562007135	-4.1023224321	 1.5092997703	-0.229432
C	-0.6533797385	-2.6837166394	 1.390049591	-0.263829
H	 0.9722193788	 2.0025955985	-0.5483109474	 0.109073
H	-0.7089227274	 1.9427966701	-1.0942249017	 0.111531
H	-0.3449064754	 2.0835493776	 0.6287900161	 0.112
H	 0.3425787145	-0.3572551702	-1.1241937699	 0.096581
H	 0.7117728229	-0.2128537005	 0.5836052565	 0.09689
H	-1.7364581197	-0.068370992	 1.1078172483	 0.086805
H	-2.1131483828	-0.1717701906	-0.6046876316	 0.086419
H	-1.7527862181	-2.2772003665	-1.9325348809	 0.102001
H	-0.980668021	-3.7271689768	-1.1557422518	 0.102622
H	-3.6056577206	-2.321082347	-0.2404052188	 0.07357
H	-3.3778182127	-3.6933398887	 1.8497182166	 0.095501
H	-3.1000006552	-4.8975574017	 0.5927761779	 0.093708
H	-1.1922579357	-4.4991829648	 2.5259608262	 0.094501
H	-0.7074584506	-4.7999159254	 0.8686317062	 0.103292
H	 0.4310739727	-2.7099643682	 1.2365338483	 0.093719
H	-0.8313117518	-2.114368752	 2.3123500002	 0.09196
76.4898	83.6297	119.6664	230.5235	245.1482	255.732	303.3408	336.1799	392.1299	424.9957	606.7587	624.8307	706.2442	745.2156	813.3514	837.6839	868.3873	881.9753	894.8301	903.3349	935.2485	946.8894	972.276	995.9252	1040.8636	1051.682	1067.7299	1075.6257	1095.2467	1115.7308	1131.1906	1181.4298	1199.2575	1244.902	1256.3762	1267.2237	1297.0212	1317.1264	1322.5326	1331.8654	1341.7465	1359.51	1390.5057	1410.1081	1412.6881	1476.8331	1487.8512	1491.5414	1494.1427	1495.2985	1500.0477	1509.7527	1519.4857	2994.6077	3015.9534	3021.6166	3026.2647	3027.1638	3030.1289	3048.2423	3057.2167	3062.8364	3067.9491	3093.7536	3096.8849	3099.2246	3120.3929	3155.6797	3200.6972
CCCC12CC1CCC2	CCC[C@]12C[C@H]1CCC2	
InChI=1S/C9H16/c1-2-5-9-6-3-4-8(9)7-9/h8H,2-7H2,1H3	InChI=1S/C9H16/c1-2-5-9-6-3-4-8(9)7-9/h8H,2-7H2,1H3/t8-,9+/m1/s1
