19
gdb 70476	3.0991	1.08228	0.96248	3.4236	77.48	-0.242	0.024	0.266	1283.7328	0.159351	-419.191392	-419.182498	-419.181554	-419.225696	32.778	
C	 0.0717964519	 1.4892374722	-0.113168725	-0.493935
C	-0.023561386	-0.0062630106	-0.0549125615	 0.333849
C	-0.8904956659	-0.7383078589	 0.8956251659	-0.293984
N	 0.5679167891	-0.8459197145	 1.0772460357	-0.15877
C	 1.0006299016	-1.8612715601	 0.0550047455	-0.189578
C	 0.5360491156	-0.9532284215	-1.1186547513	-0.026168
N	-0.352924769	-1.4557404282	-2.1395104491	-0.292061
C	-0.0447797585	-1.4566046631	-3.4678288088	 0.152902
O	 0.9934278834	-1.0544596502	-3.9463128765	-0.318295
H	 1.0780844931	 1.8096504832	-0.4024520387	 0.131076
H	-0.6337384186	 1.8921136392	-0.8491604866	 0.127638
H	-0.1612010588	 1.9330470872	 0.8588544054	 0.130497
H	-1.3772295836	-0.1495147841	 1.6673773629	 0.124566
H	-1.4491033316	-1.6256787953	 0.5984518831	 0.096802
H	 2.0798395055	-2.0177154469	 0.0933231245	 0.122568
H	 0.4922101613	-2.8267646601	 0.1535514906	 0.101097
H	 1.3848634781	-0.5186740244	-1.6469667738	 0.131198
H	-1.2557344855	-1.810258343	-1.8650471167	 0.24489
H	-0.868797562	-1.876862351	-4.0781822856	 0.075709
38.7283	121.1217	155.3938	176.8676	224.1528	277.3593	311.0624	408.7078	467.8673	514.9655	536.6101	642.867	690.6954	752.2964	812.4219	867.3669	893.1071	968.3329	989.3451	1030.611	1033.4357	1062.8161	1083.1596	1102.3964	1122.7769	1130.6301	1190.4184	1216.7174	1244.6073	1269.8214	1321.4777	1360.7004	1388.3717	1420.5446	1432.1294	1481.0895	1492.3448	1494.0991	1518.007	1528.9301	1807.6612	2934.7592	3031.1651	3043.1035	3086.7684	3094.1986	3114.2619	3115.5533	3129.6764	3186.2319	3629.3265
CC12CN1CC2NC=O	C[C@]12CN1C[C@H]2NC=O	
InChI=1S/C6H10N2O/c1-6-3-8(6)2-5(6)7-4-9/h4-5H,2-3H2,1H3,(H,7,9)	InChI=1S/C6H10N2O/c1-6-3-8(6)2-5(6)7-4-9/h4-5H,2-3H2,1H3,(H,7,9)/t5-,6-,8?/m1/s1
