21
gdb 88841	2.78278	1.14534	0.92876	2.0578	78.72	-0.2454	0.0722	0.3176	1314.7412	0.182036	-424.189221	-424.179929	-424.178985	-424.223607	35.42	
O	 0.1003314515	 1.2188511417	 0.3996885483	-0.414651
C	-0.0618673801	-0.0705476296	-0.1146471455	 0.083908
C	-0.7017934866	-1.1379067295	 0.733368351	-0.34493
C	-1.4655979406	-0.5124783053	-0.4284439809	-0.038042
C	-2.6424094923	 0.3986167904	-0.1619710529	-0.053858
C	-3.3267887343	 0.9178807536	-1.4636796688	-0.236376
C	-4.365752554	-0.2322937257	-1.3527737064	-0.260073
C	-3.9753372323	-0.3641712204	 0.1437925376	 0.159075
O	-3.9471331559	-1.6201528916	 0.7695978139	-0.433826
H	 0.7649049606	 1.1794587858	 1.0948614317	 0.289788
H	 0.7198705841	-0.3805918219	-0.8080904583	 0.086945
H	-0.3437788212	-2.1591684269	 0.6530132603	 0.109851
H	-1.0177037797	-0.8437328413	 1.728794904	 0.125976
H	-1.5526862464	-1.1305027286	-1.3198184467	 0.085709
H	-2.3498940533	 1.1556735503	 0.567177868	 0.080648
H	-3.7814375127	 1.9011812458	-1.3202137325	 0.102642
H	-2.7074821481	 0.951007249	-2.3628645549	 0.099018
H	-5.4100779539	-0.0201006598	-1.5934310651	 0.096469
H	-4.0530372595	-1.1170421689	-1.9174824862	 0.093571
H	-4.6296218635	 0.2592042684	 0.7615387987	 0.085722
H	-3.2289754518	-2.1268660954	 0.3758959047	 0.282432
47.1751	123.2386	136.2723	192.3643	237.1324	292.5962	299.5306	357.9344	401.0434	436.5772	520.3172	610.1021	650.3375	750.3428	767.0094	825.3343	853.3057	902.3345	923.2737	960.5184	962.3259	985.8189	1024.4781	1040.1435	1061.1088	1085.8517	1137.4939	1138.6266	1159.4426	1180.4454	1212.3421	1225.8906	1240.1576	1257.5703	1267.7144	1271.5939	1301.4856	1310.3018	1329.9054	1410.2434	1429.7662	1436.8348	1481.2159	1486.3976	1500.4659	3047.8233	3058.8339	3065.0761	3095.0917	3098.6523	3103.2931	3118.3018	3125.6344	3129.1892	3217.2855	3808.9679	3812.1227
OC1CC1C1CCC1O	O[C@H]1C[C@H]1[C@H]1CC[C@H]1O	
InChI=1S/C7H12O2/c8-6-2-1-4(6)5-3-7(5)9/h4-9H,1-3H2	InChI=1S/C7H12O2/c8-6-2-1-4(6)5-3-7(5)9/h4-9H,1-3H2/t4-,5+,6-,7+/m1/s1
