16
gdb 20711	6.38095	1.59386	1.30687	2.5828	73.18	-0.2258	0.0385	0.2643	935.5063	0.132473	-342.778226	-342.771079	-342.770135	-342.810281	25.891	
C	-0.1595609078	 1.4985629793	 0.0170836271	-0.486329
C	 0.0532036837	 0.016147099	 0.0502740492	 0.363878
N	 0.09074411	-0.6798100466	-1.103787	-0.363094
N	 0.291867451	-1.9281338244	-0.6623936809	 0.092789
C	 0.4750975873	-3.3425032719	-1.0084123546	-0.168422
C	 0.5913652806	-3.573826037	 0.555180365	-0.375197
C	 0.3824806323	-2.0672903571	 0.6662859044	 0.401905
C	 0.2317885314	-0.8055033265	 1.2067250264	-0.48108
H	 0.6802675386	 2.0356614087	 0.4718353914	 0.125232
H	-0.2624460004	 1.8342803215	-1.0168872948	 0.138344
H	-1.0635126357	 1.7874829245	 0.5647841183	 0.125232
H	-0.3915110609	-3.801096822	-1.4920984335	 0.132933
H	 1.3799892637	-3.5485188108	-1.5863474268	 0.132937
H	-0.1979429643	-4.1988692448	 0.9788725733	 0.130741
H	 1.5633632173	-3.9475817137	 0.8849354365	 0.130751
H	 0.2413604132	-0.4876863383	 2.2360792789	 0.099379
52.3284	88.8286	211.7693	286.6568	289.6239	495.0717	585.9752	653.4064	676.3231	779.9333	803.4192	813.9237	832.3517	908.9295	980.9969	1022.1147	1058.6553	1061.7716	1091.0938	1133.2084	1161.9277	1170.6692	1218.3738	1272.5084	1332.2748	1366.0965	1402.1714	1460.5797	1477.35	1483.9588	1490.1861	1494.9113	1532.469	1575.4329	3032.8254	3058.5229	3072.7063	3082.7072	3109.6052	3125.4846	3131.6706	3270.3174
CC1=NN2CCC2=C1	Cc1nn2CCc2c1	
InChI=1S/C6H8N2/c1-5-4-6-2-3-8(6)7-5/h4H,2-3H2,1H3	InChI=1S/C6H8N2/c1-5-4-6-2-3-8(6)7-5/h4H,2-3H2,1H3
