16
gdb 88409	2.43119	1.21924	0.90166	6.5895	70.09	-0.2668	-0.0393	0.2275	1258.3188	0.122011	-437.879711	-437.870472	-437.869528	-437.91475	32.386	
O	 0.1125864331	 1.3337145355	 0.4692487688	-0.415643
C	 0.0772101732	-0.0241004438	 0.1352230998	 0.077132
C	-0.5347843297	-1.0093659112	 1.0956245249	-0.328754
C	-1.2861195927	-0.5908385564	-0.1525912957	-0.028697
C	-2.504393414	 0.3235044321	-0.0346442858	-0.289843
C	-2.6487670443	 1.1514136007	-1.3200960953	 0.151948
O	-3.6077530745	 1.1506614133	-2.0388513882	-0.218405
C	-3.7181014872	-0.4242509219	 0.2917026932	 0.310858
N	-4.6603624533	-1.0320384484	 0.5673410249	-0.315002
H	 0.7905838247	 1.4664474494	 1.1401321053	 0.299087
H	 0.8991117367	-0.361860627	-0.4943164172	 0.105349
H	-0.1363632398	-2.0161835655	 1.1443952996	 0.130632
H	-0.8969841271	-0.6151880876	 2.0392919231	 0.130116
H	-1.3569229762	-1.3194330165	-0.9535953498	 0.121789
H	-2.3028023918	 1.0471256568	 0.7652848479	 0.152861
H	-1.744166407	 1.7602146308	-1.5260788656	 0.116571
47.0907	74.9593	124.2387	142.5979	233.8214	244.505	301.8225	340.543	409.8412	443.9106	521.1223	573.5864	731.3626	760.9488	816.1935	841.6713	926.0924	972.0119	988.751	1032.2609	1062.8956	1079.0895	1137.26	1156.3122	1172.6526	1232.9897	1244.2237	1292.2328	1302.6063	1383.6852	1407.9815	1426.3929	1485.492	1845.2178	2369.4115	2929.0096	3046.3022	3113.306	3138.0468	3165.9023	3228.6797	3809.5167
OC1CC1C(C=O)C#N	O[C@H]1C[C@H]1[C@@H](C=O)C#N	
InChI=1S/C6H7NO2/c7-2-4(3-8)5-1-6(5)9/h3-6,9H,1H2	InChI=1S/C6H7NO2/c7-2-4(3-8)5-1-6(5)9/h3-6,9H,1H2/t4-,5+,6+/m1/s1
