14
gdb 25040	4.31059	1.16134	0.9851	4.1721	65.37	-0.2376	0.0095	0.2471	1145.5612	0.101253	-473.833454	-473.82626	-473.825316	-473.86576	26.664	
O	 0.3005912089	 0.3921895925	 0.856078161	-0.368973
C	 0.1220119544	 1.4657669847	 0.3797450881	 0.505543
O	-0.9921356859	 1.8702924435	-0.2973828962	-0.211303
C	-0.7929672248	 3.1859456812	-0.6824903277	-0.129922
C	 0.4030791479	 3.5887952169	-0.2608760474	 0.371483
O	 1.0010616686	 2.5157653762	 0.4146517296	-0.251316
N	 1.0546338747	 4.7968350633	-0.3916953523	-0.196978
C	 1.914636015	 5.2569460808	 0.7149072096	-0.228415
C	 2.5202055675	 4.7924036743	-0.5588580819	-0.228414
H	-1.5762099394	 3.6736021907	-1.2326298444	 0.170346
H	 1.8351228076	 6.3176310637	 0.9296186002	 0.135655
H	 2.009282259	 4.606446299	 1.5785954895	 0.148319
H	 3.0216660016	 3.8298349043	-0.5508625213	 0.148322
H	 2.8880065449	 5.5099494687	-1.2850308269	 0.135654
72.6313	142.0628	165.5102	259.1073	412.8851	437.6139	532.0941	613.9855	662.4554	751.3723	754.6058	782.9895	819.3391	843.7486	899.1641	923.1227	942.5432	1041.8073	1066.4962	1113.517	1135.568	1139.0202	1154.5479	1184.4658	1213.945	1306.9105	1358.3231	1486.6656	1511.8711	1761.7449	1939.7177	3125.6114	3128.74	3214.5283	3228.7155	3317.3485
O=C1OC=C(O1)N1CC1	O=c1occ(o1)N1CC1	
InChI=1S/C5H5NO3/c7-5-8-3-4(9-5)6-1-2-6/h3H,1-2H2	InChI=1S/C5H5NO3/c7-5-8-3-4(9-5)6-1-2-6/h3H,1-2H2
