19
gdb 43163	2.10344	1.88033	1.75477	2.8972	79.01	-0.224	-0.0064	0.2176	951.04	0.16275	-385.933958	-385.926791	-385.925847	-385.9654	28.965	
O	 0.0176252202	 0.0441838767	 0.0480020822	-0.336496
C	-0.0059194822	 1.2458801887	 0.0278667856	 0.413901
C	-1.225236355	 2.1682204716	 0.0407566229	-0.110435
C	-0.7881291721	 3.2931200078	 1.0145934542	-0.220076
C	 0.7729768071	 3.2036515813	 1.1175675089	-0.219666
C	 1.1737960972	 2.2189529514	-0.0062466113	-0.150154
C	 1.1085556181	 2.8996083184	-1.3661594917	-0.075681
C	-0.0529939832	 3.1240556561	-1.9833867784	-0.048079
C	-1.3811941378	 2.6906148768	-1.4119928976	-0.270594
H	-2.1276139909	 1.6419025596	 0.3553147077	 0.085394
H	-1.1073008475	 4.2726903886	 0.6488452009	 0.105782
H	-1.2455235844	 3.1537192358	 1.9972959072	 0.109316
H	 1.2504940317	 4.179280519	 1.0007030996	 0.105717
H	 1.0746942283	 2.8016879234	 2.0904507255	 0.106818
H	 2.131215858	 1.7223491607	 0.1542972291	 0.084894
H	 2.0467938484	 3.2171274427	-1.812303318	 0.09595
H	-0.0688218133	 3.6264568468	-2.9472910013	 0.093006
H	-1.8174033888	 1.9041293735	-2.0438920638	 0.122382
H	-2.0977421237	 3.5232331911	-1.4300177717	 0.108022
127.6088	139.1999	252.4848	307.9408	430.5371	457.6106	476.6773	552.7529	679.2253	705.1802	746.2982	766.5398	803.0905	843.1817	868.9152	894.4191	937.6948	980.5951	990.9781	992.3028	1014.9364	1045.9186	1072.7252	1126.0809	1166.3815	1182.0222	1193.7523	1210.4513	1249.8002	1263.8817	1287.9627	1312.4473	1322.9952	1339.1259	1373.7941	1399.7539	1476.7328	1489.683	1506.2363	1703.6591	1860.9463	3004.6662	3031.2131	3046.8029	3061.1381	3090.7194	3102.4758	3109.1734	3112.4595	3152.1609	3175.8344
O=C1C2CCC1C=CC2	O=C1[C@H]2CC[C@@H]1C=CC2	
InChI=1S/C8H10O/c9-8-6-2-1-3-7(8)5-4-6/h1-2,6-7H,3-5H2	InChI=1S/C8H10O/c9-8-6-2-1-3-7(8)5-4-6/h1-2,6-7H,3-5H2/t6-,7+/m0/s1
