14
gdb 29501	3.38349	1.67374	1.12856	2.6713	70.02	-0.2246	-0.0271	0.1975	991.9007	0.104464	-432.898065	-432.891402	-432.890458	-432.928967	26.086	
N	 0.0060958308	 1.3693827556	 0.1349069585	-0.581349
C	 0.0219213842	 0.002309705	 0.0360717878	 0.282225
N	-1.0392629588	-0.7433961371	 0.0160028079	-0.324789
C	-0.6330471928	-2.164948428	-0.0107241102	-0.279792
C	 0.8648824749	-2.1226213814	-0.0211324932	 0.219596
C	 1.2219026131	-0.8220674166	 0.0098318077	 0.244897
O	 2.578795871	-0.726531688	 0.0090308262	-0.205957
C	 2.9622717557	-2.0432048208	-0.0233126744	 0.032838
N	 1.997706696	-2.9146207136	-0.0410677758	-0.340731
H	 0.7931896938	 1.8623405141	-0.256493792	 0.259925
H	-0.8910642212	 1.7899689596	-0.0591949398	 0.262526
H	-1.0425857065	-2.6844238132	 0.8641562135	 0.139025
H	-1.0600165123	-2.6517732032	-0.8956873859	 0.137606
H	 4.0258677822	-2.2244050624	-0.0316470204	 0.15398
179.9588	227.3194	265.0693	307.1226	389.7535	510.9961	533.1197	624.6194	633.0355	643.7984	647.5596	746.8778	804.6605	820.5603	941.9704	955.5874	960.2535	1068.5132	1097.4354	1147.9123	1164.0376	1224.8993	1262.2745	1316.0574	1386.2808	1447.69	1497.8233	1508.5177	1578.2269	1625.1667	1688.3331	3039.2365	3067.9995	3275.215	3576.2945	3690.3335
NC1=NCC2=C1OC=N2	NC1=NCc2c1ocn2	
InChI=1S/C5H5N3O/c6-5-4-3(1-7-5)8-2-9-4/h2H,1H2,(H2,6,7)	InChI=1S/C5H5N3O/c6-5-4-3(1-7-5)8-2-9-4/h2H,1H2,(H2,6,7)
