18
gdb 19086	3.96942	1.98701	1.55076	1.9432	69.38	-0.249	0.0764	0.3254	847.8849	0.156329	-347.780506	-347.774028	-347.773084	-347.811059	26.393	
C	-0.0339169371	 1.550636343	 0.0375353077	-0.296731
C	 1.2854150897	 0.8205436506	 0.0045916469	-0.009069
C	 2.1588551589	 0.7064329451	 1.2565272256	-0.273148
C	 2.1981636184	-0.7235450583	 1.7882638852	 0.056789
O	 1.5017328618	-0.9780645145	 3.0150979727	-0.257583
C	 0.9364015293	-1.4795456949	 1.7969702258	 0.056789
C	-0.3113299329	-0.7736083387	 1.2735731054	-0.273148
C	-0.0127246965	 0.0427460939	 0.013548614	-0.00907
H	-0.3175520133	 2.0347373114	 0.9681463072	 0.111001
H	-0.3569171397	 2.0794685738	-0.8529202052	 0.108492
H	 1.8287955836	 0.8470034773	-0.9346923038	 0.082716
H	 3.1716981318	 1.0569746303	 1.0395821121	 0.103582
H	 1.7699397741	 1.3439212182	 2.0572077928	 0.118805
H	 3.1397415895	-1.2639126881	 1.696776822	 0.087736
H	 0.9678667775	-2.5652186239	 1.7117627617	 0.087736
H	-1.1003031926	-1.5026439431	 1.0690643448	 0.103582
H	-0.6818736569	-0.1251123248	 2.0741267194	 0.118805
H	-0.3018635356	-0.4296106073	-0.9199901644	 0.082716
89.121	279.0075	332.7864	400.9053	450.9416	458.4599	504.0639	658.49	788.9653	797.0589	811.1554	832.2158	858.153	893.9751	928.7048	955.1705	977.7019	1027.4826	1058.0102	1072.0792	1084.2548	1104.9703	1129.7384	1143.9058	1154.3005	1230.7169	1232.7848	1254.7163	1282.7673	1319.0927	1330.3503	1365.053	1381.2515	1404.0187	1454.2811	1473.3719	1475.8474	1493.8497	3047.6272	3050.4044	3088.6197	3091.5864	3108.7067	3118.1696	3120.6089	3145.3076	3154.8177	3205.0826
C1C2CC3OC3CC12	C1[C@H]2C[C@H]3O[C@H]3C[C@@H]12	
InChI=1S/C7H10O/c1-4-2-6-7(8-6)3-5(1)4/h4-7H,1-3H2	InChI=1S/C7H10O/c1-4-2-6-7(8-6)3-5(1)4/h4-7H,1-3H2/t4-,5+,6+,7-
