16
gdb 53365	3.44766	0.92053	0.84703	4.5246	75.29	-0.2516	0.018	0.2697	1414.7678	0.123879	-437.878197	-437.869309	-437.868365	-437.914182	30.596	
C	-0.2880765165	 1.373481376	 0.0365742021	-0.497836
C	-0.0681601798	-0.0643481308	 0.0449923827	 0.026848
C	 0.1039007658	-1.2556235597	 0.0461172531	 0.13609
C	 0.321557414	-2.6965243571	 0.0527275504	-0.101134
C	 0.7227310732	-3.2658053157	 1.4319380636	-0.113654
O	-0.5200643006	-3.7160046844	 1.9664921735	-0.248598
C	-1.412913319	-3.881330022	 0.9461325354	 0.496956
N	-2.5595163394	-4.3883154434	 1.0179734779	-0.574286
O	-0.8951034202	-3.4185324737	-0.2186655949	-0.218193
H	 0.3276284906	 1.8643897074	-0.7244943803	 0.155372
H	-1.3362349266	 1.6036870321	-0.1820137083	 0.162936
H	-0.0436811431	 1.8190221321	 1.006680446	 0.15462
H	 1.0374458235	-2.9801183106	-0.723641841	 0.1283
H	 1.4109837305	-4.1126559697	 1.3314929367	 0.121762
H	 1.1478066902	-2.515048232	 2.0979552803	 0.139055
H	-2.7371877227	-4.7159501486	 1.9644127629	 0.231762
18.5335	54.5093	97.1705	160.7347	171.524	305.4516	330.1408	447.8573	455.3796	543.0066	715.3798	722.6571	726.2317	804.3823	823.0854	895.7082	955.2585	991.7762	1042.2701	1050.002	1054.8617	1074.9584	1101.0391	1178.0174	1228.1264	1252.5292	1320.0581	1371.8674	1411.2994	1413.8143	1474.6402	1475.895	1517.917	1802.6268	2373.3972	3032.3056	3041.1032	3073.934	3095.8708	3097.3793	3136.1038	3538.0109
CC#CC1COC(=N)O1	CC#C[C@H]1CO[C]([NH])O1	
InChI=1S/C6H7NO2/c1-2-3-5-4-8-6(7)9-5/h5,7H,4H2,1H3	InChI=1S/C6H7NO2/c1-2-3-5-4-8-6(7)9-5/h5,7H,4H2,1H3/t5-/m0/s1
