18
gdb 16429	3.38041	2.17055	1.67914	1.3945	71.79	-0.252	0.0731	0.3251	838.7518	0.153655	-347.732402	-347.725211	-347.724267	-347.763233	28.72	
C	-0.1670709987	 1.6117006361	-0.0239795245	-0.432718
C	-0.0462119743	 0.0950976635	 0.0032032907	-0.058393
C	 1.1784872178	-0.5924497477	-0.6474122451	-0.05345
C	 2.1374748304	-0.2861340516	 0.5534047467	-0.11846
C	 2.5713048549	-1.7606410157	 0.6815141902	-0.276528
C	 1.0796396201	-1.8386077368	 0.2999121568	-0.075441
C	 0.7103090728	-0.5963088423	 1.1623018723	 0.401539
O	 0.3672537129	-0.6926632351	 2.4983946496	-0.477141
H	 0.782845953	 2.0988378368	 0.2220264675	 0.11181
H	-0.4738934148	 1.9670494521	-1.0136276321	 0.118893
H	-0.9191500613	 1.9606255568	 0.6932540937	 0.112629
H	-1.0039087583	-0.3821482335	-0.2421777808	 0.063714
H	 1.4686964475	-0.617600154	-1.6962034988	 0.073824
H	 2.7318959164	 0.6177343458	 0.6938427422	 0.06621
H	 3.2888088566	-2.1272857932	-0.0591645835	 0.08807
H	 2.8373217431	-2.1079753448	 1.6836585797	 0.101083
H	 0.4419938399	-2.709328945	 0.1397638738	 0.070253
H	 0.379867492	 0.1910263586	 2.8817963315	 0.284107
197.347	210.6543	214.5605	254.8339	301.9478	373.9429	488.1855	530.066	642.6433	724.6999	741.8056	834.818	872.8656	887.5986	912.9519	915.7107	932.6923	997.5826	1026.0425	1036.5454	1071.2029	1095.0514	1101.7889	1113.9178	1153.1035	1154.7596	1179.2011	1212.1244	1228.066	1245.8408	1279.3955	1286.4359	1374.7107	1408.2273	1416.3967	1495.0345	1502.0609	1505.8071	3022.9827	3026.0338	3045.1978	3086.8171	3094.1798	3101.4916	3103.9558	3105.215	3135.3664	3804.8311
CC1C2C3CC2C13O	C[C@H]1[C@H]2[C@@H]3C[C@H]2[C@]13O	
InChI=1S/C7H10O/c1-3-6-4-2-5(6)7(3,4)8/h3-6,8H,2H2,1H3	InChI=1S/C7H10O/c1-3-6-4-2-5(6)7(3,4)8/h3-6,8H,2H2,1H3/t3-,4-,5+,6-,7-/m0/s1
