18
gdb 78096	2.98043	1.27679	1.08323	4.5126	74.62	-0.2305	0.0238	0.2544	1161.0583	0.146436	-439.067319	-439.058476	-439.057532	-439.100795	32.739	
C	 0.0960756982	 1.575573602	-0.1177952164	-0.49679
C	 0.002450438	 0.0874753391	 0.0488951164	 0.255062
C	-1.3265132852	-0.6852974245	 0.183170608	-0.224852
N	-0.7008409236	-1.5342476922	 1.2126842285	-0.030068
C	-0.9356376218	-2.8569156498	 1.4303138296	 0.131283
O	-1.9367327107	-3.4481427545	 1.0899679114	-0.321519
C	 0.5788029531	-0.8508926845	 1.1332819772	-0.157724
C	 1.100853646	-0.8764726592	-0.2863361919	 0.058819
O	 0.849425048	-1.9298860727	-1.1609531302	-0.415796
H	 1.1256521591	 1.9261616901	 0.0028362977	 0.124029
H	-0.2409076213	 1.87735484	-1.1164715123	 0.13374
H	-0.5257248213	 2.0981027419	 0.6170126407	 0.126963
H	-2.1395412976	-0.0761831813	 0.5889677789	 0.119118
H	-1.6685618687	-1.2376068967	-0.6946386783	 0.142615
H	-0.1124320621	-3.3266943892	 2.0107677235	 0.06157
H	 1.1753493384	-0.6456829657	 2.0153789855	 0.107157
H	 2.0765372939	-0.3987140614	-0.3978194732	 0.09326
H	 1.3689655675	-2.6928298712	-0.8849781751	 0.293133
70.483	158.9729	186.6543	220.1162	232.4704	265.0318	298.4843	326.7826	352.6876	503.8483	537.7703	608.9928	663.0643	785.7957	808.7195	894.1614	920.8764	955.1478	965.4241	1006.2586	1034.7968	1068.2657	1109.8828	1145.1144	1176.3701	1183.0474	1241.255	1250.326	1283.1748	1302.9566	1352.2772	1387.0698	1419.3521	1432.5886	1476.9529	1486.2358	1496.4094	1505.4074	1800.1296	2901.7972	3027.5488	3057.4444	3085.6215	3089.2279	3104.6214	3121.2219	3172.4695	3804.5504
CC12CN(C=O)C1C2O	C[C@]12CN(C=O)[C@H]1[C@H]2O	
InChI=1S/C6H9NO2/c1-6-2-7(3-8)4(6)5(6)9/h3-5,9H,2H2,1H3	InChI=1S/C6H9NO2/c1-6-2-7(3-8)4(6)5(6)9/h3-5,9H,2H2,1H3/t4-,5+,6-/m0/s1
