17
gdb 105723	2.36059	1.48318	1.18989	5.2579	73.47	-0.2361	-0.0012	0.2349	1091.9443	0.138303	-414.202072	-414.193475	-414.192531	-414.235476	31.7	
N	-0.0806798183	 1.4339056717	-0.153522634	-0.506613
C	 0.0583758104	-0.0027553985	-0.0370289612	-0.175722
C	 0.8526663436	-0.5098845129	 1.2088598117	 0.119221
C	 1.0536755425	-2.0656757521	 1.1776158969	-0.236653
N	 2.4595538884	-2.155919205	 0.7724282173	-0.29572
C	 3.0091716308	-0.905311972	 0.9367057218	 0.067568
N	 2.2181674566	 0.0725447766	 1.1698824621	-0.274799
C	 0.1566893828	-0.0789218631	 2.4288701799	 0.277391
N	-0.4298872111	 0.2480641539	 3.3695868837	-0.349386
H	-0.6451412214	 1.7938353941	 0.6109893723	 0.241208
H	 0.8362419189	 1.8629030732	-0.0639576168	 0.245486
H	-0.9357531979	-0.4642192338	-0.0279860447	 0.115129
H	 0.5916862703	-0.3858503711	-0.9153110969	 0.117384
H	 0.8797876498	-2.5225443445	 2.1575350174	 0.132547
H	 0.3927523022	-2.54199302	 0.4472054749	 0.129069
H	 2.9971088141	-2.9748044519	 1.0131637496	 0.255106
H	 4.0815073783	-0.7795297045	 0.8168803859	 0.138785
76.5846	113.4181	172.745	181.2487	237.0972	322.7473	378.083	401.6678	460.154	523.2225	543.9767	577.379	675.1028	784.663	853.8685	890.8712	900.783	929.3457	969.7194	1015.2634	1032.3891	1080.6665	1118.0998	1146.7057	1157.7359	1221.2411	1249.9671	1310.4369	1342.833	1375.0522	1403.0604	1452.4335	1478.2322	1520.9897	1671.4485	1679.9877	2354.3442	3029.9838	3039.9588	3078.9706	3084.2564	3187.9547	3492.5399	3570.4694	3620.2381
NCC1(CNC=N1)C#N	NC[C@]1(CN[CH][N]1)C#N	
InChI=1S/C5H8N4/c6-1-5(2-7)3-8-4-9-5/h4H,1,3,6H2,(H,8,9)	InChI=1S/C5H8N4/c6-1-5(2-7)3-8-4-9-5/h4H,1,3,6H2,(H,8,9)/t5-/m1/s1
