23
gdb 107013	2.80271	1.21629	1.013	1.4177	85.56	-0.2421	0.0701	0.3122	1295.9462	0.204654	-388.270445	-388.260493	-388.259548	-388.304957	37.77	
C	 0.1662670374	 1.4947201523	-0.2551205681	-0.373728
C	-0.085793138	 0.0129618416	 0.0585555377	-0.295173
C	 0.6505640629	-0.4773457871	 1.2769457813	 0.381623
C	 2.0726286296	-0.9654213161	 1.229211619	-0.333142
C	 0.9976569238	-1.9215700693	 1.6736327903	-0.129092
C	 0.6150390004	-1.6454408843	 3.1173189996	 0.095638
O	 1.6747625122	-1.8612456956	 4.0292976878	-0.427217
C	 0.2511662135	-0.1571976387	 2.7323014887	-0.08845
C	 0.9442402795	 0.9731047442	 3.4837174886	-0.415618
H	 1.2325292753	 1.6862897501	-0.4132356212	 0.118564
H	-0.371109402	 1.8036560776	-1.157353157	 0.109038
H	-0.1680782812	 2.1374229438	 0.5660771787	 0.118068
H	-1.1638191933	-0.1508551159	 0.1938505437	 0.091481
H	 0.2098593048	-0.5964807372	-0.8052379276	 0.094392
H	 2.4568763677	-1.1511053559	 0.230555284	 0.104683
H	 2.8230659631	-0.6262277361	 1.9356961355	 0.119471
H	 0.7951478765	-2.8426689044	 1.1396728518	 0.079615
H	-0.2785369826	-2.2058757878	 3.4221635344	 0.063144
H	 1.3614590824	-1.6384911213	 4.9118275508	 0.280936
H	-0.8354808614	-0.0258306967	 2.7948229741	 0.062143
H	 2.0307359206	 0.856712797	 3.4813596494	 0.127338
H	 0.7059380233	 1.9458002512	 3.0409104946	 0.115694
H	 0.6195703153	 1.0029914986	 4.5309528139	 0.100593
76.0887	105.8124	159.9611	179.9055	209.6612	226.7927	283.5951	287.6205	323.8325	357.41	435.4377	536.7319	581.0651	670.0756	693.5516	775.1002	802.5803	845.3018	881.9831	920.1509	964.3717	979.2682	1006.3526	1017.8397	1036.0393	1074.8132	1077.612	1093.3772	1107.3106	1131.5367	1151.3572	1207.1869	1231.4376	1239.2772	1276.1609	1303.2961	1338.3189	1357.9522	1366.2454	1401.0565	1406.8096	1423.3772	1424.016	1480.2323	1490.89	1491.9748	1499.263	1505.1592	1508.7582	3004.1126	3007.5814	3027.2329	3033.6108	3036.4203	3042.4457	3086.4309	3101.9687	3105.3253	3121.9234	3125.3594	3176.2529	3205.4545	3814.8373
CCC12CC1C(O)C2C	CC[C@]12C[C@H]1[C@@H](O)[C@H]2C	
InChI=1S/C8H14O/c1-3-8-4-6(8)7(9)5(8)2/h5-7,9H,3-4H2,1-2H3	InChI=1S/C8H14O/c1-3-8-4-6(8)7(9)5(8)2/h5-7,9H,3-4H2,1-2H3/t5-,6+,7+,8-/m1/s1
