23
gdb 59953	2.79197	0.95928	0.89215	2.8197	82.63	-0.2492	-0.0234	0.2258	1463.8537	0.199975	-425.44243	-425.430768	-425.429824	-425.480359	41.558	
C	-0.9932774988	 1.0893889415	-0.6296907375	-0.381921
C	-0.2185926085	-0.1016132173	-0.066123377	 0.140473
C	-1.1454510572	-1.1863593426	 0.4828168353	-0.381515
O	 0.5710352615	-0.666183546	-1.1201374195	-0.314999
C	 1.986274578	-0.7149720866	-0.9785337222	 0.263865
C	 2.6324621277	 0.6749421689	-0.8935522043	-0.421656
C	 2.4318118881	-1.6156680228	 0.1904762717	-0.42189
C	 2.4394814066	-1.4023812455	-2.2735278899	 0.145461
O	 3.5808399005	-1.4467429559	-2.6496827172	-0.262225
H	-0.3105503452	 1.8614130892	-0.9945258306	 0.117352
H	-1.6209935772	 0.7668022857	-1.4664268172	 0.1243
H	-1.6389279488	 1.5323878166	 0.1354694504	 0.111376
H	 0.4332227353	 0.251574984	 0.742661604	 0.074653
H	-1.7783278514	-1.5797927414	-0.3189976037	 0.124264
H	-0.571109497	-2.0172842738	 0.9012219389	 0.115811
H	-1.7936878031	-0.7848780954	 1.2684958203	 0.111703
H	 2.4281859185	 1.1532837108	 0.0686386589	 0.113949
H	 3.7144101503	 0.578077572	-1.0108467557	 0.140609
H	 2.2550092118	 1.3191571977	-1.6924570587	 0.125968
H	 1.9781047539	-2.6078219225	 0.108428772	 0.125618
H	 3.519198309	-1.7271078485	 0.1774609365	 0.137547
H	 2.1425764041	-1.1816569299	 1.1521704183	 0.119588
H	 1.6050269717	-1.8794103684	-2.8317011729	 0.091668
28.8549	35.7588	78.3265	156.9032	211.8239	218.2206	246.7493	253.7096	271.1424	287.2092	326.3477	345.8346	361.8837	447.0487	456.1876	467.6731	636.4634	753.713	824.9188	892.8599	906.8035	924.0919	937.6495	950.1136	982.8676	1035.8316	1043.3128	1140.8674	1148.8227	1194.0591	1199.8554	1207.7654	1268.7569	1354.6363	1373.6187	1384.7195	1394.4342	1398.1997	1409.4257	1415.6348	1477.1055	1480.213	1484.5259	1486.3068	1494.0907	1497.8199	1506.5366	1507.9207	1837.7009	2905.9448	3022.584	3035.2756	3039.5321	3040.3714	3045.9115	3106.0188	3112.3108	3114.0129	3116.3646	3117.9904	3119.4897	3124.7873	3132.9931	28.8551	35.7594	78.3266	156.9032	211.8239	218.2207	246.7493	253.7096	271.1424	287.2092	326.3478	345.8346	361.8837	447.0488	456.1876	467.6731	636.4634	753.713	824.9188	892.8599	906.8035	924.0919	937.6495	950.1136	982.8676	1035.8316	1043.3128	1140.8673	1148.8227	1194.0591	1199.8554	1207.7654	1268.7569	1354.6362	1373.6186	1384.7195	1394.4341	1398.1997	1409.4257	1415.6348	1477.1055	1480.213	1484.5259	1486.3068	1494.0907	1497.8199	1506.5366	1507.9207	1837.7009	2905.9448	3022.584	3035.2756	3039.5321	3040.3714	3045.9115	3106.0188	3112.3108	3114.0129	3116.3646	3117.9904	3119.4897	3124.7873	3132.9931
CC(C)OC(C)(C)C=O	CC(C)OC(C)(C)C=O	
InChI=1S/C7H14O2/c1-6(2)9-7(3,4)5-8/h5-6H,1-4H3	InChI=1S/C7H14O2/c1-6(2)9-7(3,4)5-8/h5-6H,1-4H3
