16
gdb 115991	2.24362	1.4128	0.91288	4.2974	73.72	-0.2583	-0.0585	0.1998	1219.4914	0.124549	-437.897176	-437.888725	-437.887781	-437.930988	30.3	
O	 0.0473534728	 1.4073240975	-0.2050592158	-0.415643
C	 0.0816454096	 0.0006151085	-0.1227537045	-0.061533
C	-1.3112830067	-0.5537535497	 0.1935671142	-0.013193
O	-2.2219534631	-0.1117304747	-0.8214117979	-0.28937
C	-2.8209180684	-1.2181154649	-1.490473117	-0.113871
C	-2.2605665825	-2.4339530573	-0.819279512	-0.2025
C	-1.4146980051	-2.0652816262	 0.1463160693	 0.189614
C	-0.6894264153	-2.9161889351	 1.0192538444	 0.223149
N	-0.0826083026	-3.5804054055	 1.748780492	-0.330563
H	-0.6482633543	 1.6229976814	-0.8379050267	 0.292771
H	 0.4438520233	-0.4595301545	-1.0564115818	 0.088071
H	 0.7799086201	-0.2623808033	 0.6786765593	 0.127304
H	-1.6386343566	-0.1496209883	 1.162119913	 0.110477
H	-3.9164247556	-1.1639436684	-1.3979520288	 0.128427
H	-2.5846537268	-1.1919288971	-2.565256664	 0.126201
H	-2.5215175689	-3.4481712123	-1.0908066336	 0.140659
69.5116	110.5527	128.6061	172.7022	216.1917	329.3191	409.0411	454.8182	460.4063	536.9161	576.3875	628.0447	767.8133	828.1495	853.1252	945.3711	953.7731	1026.7766	1041.1751	1078.1966	1089.2425	1112.0701	1190.8588	1195.3744	1227.3311	1271.6711	1310.1603	1350.6448	1381.9496	1393.4405	1432.8007	1498.6059	1513.7983	1687.3422	2342.523	2974.9815	2985.8795	3005.1576	3011.6965	3082.7093	3233.3121	3792.4389
OCC1OCC=C1C#N	OC[C@H]1OCC=C1C#N	
InChI=1S/C6H7NO2/c7-3-5-1-2-9-6(5)4-8/h1,6,8H,2,4H2	InChI=1S/C6H7NO2/c7-3-5-1-2-9-6(5)4-8/h1,6,8H,2,4H2/t6-/m1/s1
