23
gdb 86421	2.41379	1.55544	1.12827	1.7602	84.61	-0.2411	0.0774	0.3185	1191.6568	0.207238	-388.299238	-388.290508	-388.289564	-388.332203	34.335	
C	-0.1000222337	 1.5581168063	-0.0357618003	-0.413553
C	 0.0954825712	 0.0421583406	-0.0412306986	 0.023781
C	 0.999103372	-0.5012074281	-1.167854073	-0.22967
C	 1.3302983067	-1.9427315874	-0.7305841449	 0.017337
C	 2.5210782087	-2.5847871876	-1.4401292394	-0.409415
C	 1.5050044555	-1.8129799245	 0.7887507545	 0.118891
O	 2.7640443283	-1.1961418355	 1.1570623007	-0.29699
C	 2.0954353458	-0.0297554702	 1.6785085612	-0.081569
C	 0.7114405846	-0.556139886	 1.2415175124	-0.0815
H	 0.8528149572	 2.0869330181	 0.0728393131	 0.115942
H	-0.5567597994	 1.8964143954	-0.9717306922	 0.114833
H	-0.7531146624	 1.8743650586	 0.7849623691	 0.111231
H	-0.8927308998	-0.4251895802	-0.1582915853	 0.071707
H	 0.521731402	-0.4537821658	-2.1514165255	 0.090182
H	 1.9238232458	 0.0873648694	-1.228017709	 0.103317
H	 0.4355429183	-2.5624727276	-0.8908775231	 0.066378
H	 3.4379400142	-2.0332375938	-1.2143121783	 0.133849
H	 2.665362588	-3.6218687469	-1.1183634467	 0.109457
H	 2.3780445488	-2.5893361905	-2.525566435	 0.107752
H	 1.3580290892	-2.7552990246	 1.3293207487	 0.063523
H	 2.2305989034	 0.0622144398	 2.763861441	 0.09677
H	 2.4494698185	 0.8929342137	 1.2022476939	 0.09814
H	-0.0120190729	-0.6683557433	 2.0505721068	 0.069605
114.8434	144.2048	219.0427	221.5554	229.0375	250.2982	301.522	368.4107	478.2722	518.979	541.983	590.6343	774.0869	825.1232	865.2713	879.1495	899.7749	917.0887	936.4458	967.6945	999.4184	1000.6492	1029.3305	1034.264	1079.6493	1092.8266	1139.4179	1147.9695	1167.2194	1192.6774	1204.5734	1230.281	1255.3576	1282.9281	1308.8857	1325.2722	1337.006	1352.9285	1372.9027	1375.0221	1377.3126	1408.176	1415.7377	1490.9096	1496.1732	1499.1004	1501.6397	1505.1983	1527.9986	2993.7572	2998.1424	3009.0598	3029.2383	3031.9271	3033.9017	3037.3606	3049.6074	3083.2786	3094.5677	3095.7349	3096.2532	3101.8672	3118.1192
CC1CC(C)C2OCC12	C[C@H]1C[C@@H](C)[C@H]2OC[C@@H]12	
InChI=1S/C8H14O/c1-5-3-6(2)8-7(5)4-9-8/h5-8H,3-4H2,1-2H3	InChI=1S/C8H14O/c1-5-3-6(2)8-7(5)4-9-8/h5-8H,3-4H2,1-2H3/t5-,6+,7-,8+/m0/s1
