17
gdb 97515	4.85466	0.60087	0.54001	4.026	87.37	-0.2572	-0.0505	0.2066	2007.5628	0.131591	-384.647916	-384.637365	-384.636421	-384.686348	35.773	
C	-0.0056407795	 1.6128689947	-0.0189278809	-0.369995
C	 0.0202285391	 0.0739408099	-0.0304299227	-0.325872
C	 0.6854654396	-0.48921115	-1.1968409143	 0.172299
C	 1.2371334731	-0.9571662807	-2.1641121825	-0.046083
C	 1.8991453219	-1.5135651973	-3.3249625434	 0.216708
O	 2.0157579581	-2.7025170178	-3.5050825148	-0.265879
C	 2.4362467664	-0.4520099015	-4.3005664028	-0.45951
C	 3.1033583951	-0.9941488884	-5.4707307943	 0.318208
C	 3.6569561204	-1.4313531914	-6.4420659637	-0.439821
H	 1.0090035312	 2.0195170537	-0.0254557474	 0.133145
H	-0.5322292622	 2.0001082925	-0.8950891907	 0.133145
H	-0.5162060291	 1.9744834712	 0.8778654085	 0.124145
H	 0.5202434983	-0.2997844989	 0.8723793945	 0.146478
H	-1.0037468439	-0.318976655	 0.0124717742	 0.146478
H	 1.5895710375	 0.1859475297	-4.5888423667	 0.158728
H	 3.1083493907	 0.205107186	-3.7318614145	 0.158727
H	 4.1450526032	-1.8263289866	-7.2982608987	 0.199099
13.378	39.1798	56.3445	131.5921	139.8809	198.1125	233.5409	322.2237	337.5097	388.9932	412.3639	541.2588	566.5436	566.609	626.1148	649.0439	778.781	786.702	890.6379	941.7411	969.9953	1023.6762	1081.7896	1098.6671	1179.6614	1210.0194	1282.3221	1329.9982	1347.618	1411.2024	1434.5729	1462.2579	1495.7136	1504.222	1779.6075	2249.9789	2330.5096	3018.478	3024.6139	3046.1222	3048.4412	3053.2231	3123.7913	3127.1392	3507.5088
CCC#CC(=O)CC#C	CCC#CC(=O)CC#C	
InChI=1S/C8H8O/c1-3-5-7-8(9)6-4-2/h2H,3,6H2,1H3	InChI=1S/C8H8O/c1-3-5-7-8(9)6-4-2/h2H,3,6H2,1H3
