17
gdb 123897	3.59783	1.56321	1.1362	4.3482	73.32	-0.2459	0.0046	0.2505	1032.1488	0.141297	-414.190206	-414.183402	-414.182458	-414.221562	26.58	
C	-0.0142314052	 1.4594943256	 0.069075021	-0.185535
C	 1.4257052203	 1.9917738434	-0.0317251375	-0.156526
N	 2.096716223	 1.3086122595	-1.1261935245	 0.01074
N	 3.2573463162	 1.7501213832	-1.6528636589	-0.163366
N	 3.6193298427	 0.8865524288	-2.5606517828	-0.192392
C	 2.6991132528	-0.1148099369	-2.6153345352	-0.17902
C	 1.7089286269	 0.1375428553	-1.691225567	 0.319307
C	 0.4196513946	-0.5150487599	-1.2694465291	-0.299359
N	-0.1033586139	 0.0022661009	-0.0005650436	-0.280605
H	-0.4621708923	 1.8059592252	 1.0047502837	 0.120102
H	-0.6145979286	 1.8711014404	-0.751400696	 0.125315
H	 1.453202381	 3.067629281	-0.2228592728	 0.141521
H	 1.973672344	 1.8011681654	 0.8990827086	 0.127813
H	 2.7992181954	-0.9388675239	-3.3034674912	 0.120096
H	-0.3422637792	-0.3519378769	-2.0443947022	 0.135359
H	 0.5471109582	-1.5981297993	-1.1861899479	 0.131816
H	 0.4143252641	-0.4069778316	 0.7718003953	 0.224732
99.1552	188.7693	278.2897	329.9615	375.6649	459.0612	526.6899	656.3452	701.9543	718.9832	728.8214	801.1487	835.2011	877.5589	951.4202	977.2546	992.8682	1003.5872	1120.7012	1130.4576	1142.0848	1166.5294	1214.7584	1222.7145	1271.9375	1297.2841	1315.6824	1335.1925	1354.5834	1382.186	1391.5278	1472.4524	1484.0804	1489.1616	1492.7645	1517.162	1574.0965	3011.893	3032.7355	3040.9315	3085.5046	3094.6524	3104.2338	3265.9722	3508.0615
C1CN2N=NC=C2CN1	C1Cn2nncc2CN1	
InChI=1S/C5H8N4/c1-2-9-5(3-6-1)4-7-8-9/h4,6H,1-3H2	InChI=1S/C5H8N4/c1-2-9-5(3-6-1)4-7-8-9/h4,6H,1-3H2
