17
gdb 23559	2.56996	1.53198	1.09338	0.8559	78.25	-0.2278	0.0008	0.2285	1112.0754	0.135352	-417.897384	-417.889401	-417.888456	-417.929764	30.947	
O	-0.1450054649	 1.3440234493	 0.0789818165	-0.395307
N	 0.0247441254	-0.0493658306	-0.0424885601	-0.276502
C	-1.0941143575	-0.6411333074	-0.0886671493	 0.371636
C	-2.5350876978	-0.2867252026	 0.0353477938	-0.13844
C	-3.3202080549	-1.0121647115	-1.0000905936	-0.235889
N	-2.894968416	-1.7736478028	 0.1808327082	-0.170195
C	-1.4511229494	-2.0877570597	-0.0573968667	 0.291991
C	-0.948621161	-3.2601613354	-0.8460954693	-0.32451
C	-0.7424945622	-3.1976587338	 0.6510360077	-0.332855
H	 0.7651384719	 1.6552876091	 0.1257621748	 0.307958
H	-2.9558700377	 0.4815317059	 0.671674802	 0.123767
H	-4.3884957038	-0.817217566	-1.0228229413	 0.128973
H	-2.8690180597	-1.2347957335	-1.9636985393	 0.126381
H	-1.6925160726	-3.9539348862	-1.2238431881	 0.12609
H	-0.0947503442	-3.1011998018	-1.4954571375	 0.130959
H	 0.2504633519	-2.98777793	 1.0324804326	 0.133647
H	-1.3556262674	-3.8419052828	 1.2713018499	 0.132296
132.6945	152.2203	162.3644	262.9641	269.3681	321.6219	402.3148	480.5781	553.1564	581.1577	659.1958	709.345	765.3404	797.4569	820.8314	908.8248	923.1799	951.4363	966.2984	989.8306	1005.5194	1036.6047	1054.3454	1077.5165	1111.0579	1121.7668	1156.0949	1192.7655	1219.8376	1237.3405	1306.6138	1360.282	1428.0734	1450.0541	1489.6085	1498.9228	1794.7208	3110.3748	3132.5725	3139.0017	3197.2721	3206.5876	3219.191	3235.6107	3820.5823
ON=C1C2CN2C11CC1	ON=C1[C@H]2CN2C21CC2	
InChI=1S/C6H8N2O/c9-7-5-4-3-8(4)6(5)1-2-6/h4,9H,1-3H2	InChI=1S/C6H8N2O/c9-7-5-4-3-8(4)6(5)1-2-6/h4,9H,1-3H2/t4-,8?/m1/s1
