14
gdb 77212	3.82625	1.03935	0.89702	2.564	67.84	-0.2776	-0.0219	0.2557	1222.3524	0.10079	-432.851113	-432.842519	-432.841575	-432.88506	30.135	
O	 0.0360225916	 1.3344054242	-0.0707617069	-0.399521
C	-0.0013425083	-0.0544228928	-0.0658237385	 0.112128
C	 0.0580048439	-0.7141259915	 1.3670914683	-0.150077
N	-1.4128347448	-0.8784886052	 1.3229959256	-0.298941
C	-1.4652029271	-0.5971559505	-0.1278515823	-0.170898
C	-2.5126644435	 0.3347832416	-0.5405791133	 0.329975
N	-3.3544376077	 1.0442538067	-0.8892353274	-0.315444
C	 0.8299404232	-1.9535643053	 1.4137912904	 0.258612
N	 1.420612472	-2.9478631972	 1.4302615503	-0.312934
H	 0.9445155684	 1.629596555	-0.1875236988	 0.305073
H	 0.6749521574	-0.5037604805	-0.7980838105	 0.116974
H	 0.3931669581	-0.0330919959	 2.1556046845	 0.14073
H	-1.7753014573	-1.7784610344	 1.61570997	 0.249823
H	-1.5234501359	-1.4881518341	-0.7663229814	 0.134501
48.5471	123.8596	157.8022	181.596	212.1918	261.2961	351.6305	393.2143	469.7285	520.9117	567.8131	616.743	690.2501	821.206	851.9547	957.094	985.3596	1011.7721	1058.0316	1094.7126	1130.1937	1192.9167	1221.4777	1267.5508	1281.6752	1310.8819	1355.6205	1402.1502	1442.8793	2346.2511	2367.4267	3024.1463	3064.7731	3073.2573	3555.9746	3828.9106
OC1C(NC1C#N)C#N	O[C@H]1[C@@H](N[C@H]1C#N)C#N	
InChI=1S/C5H5N3O/c6-1-3-5(9)4(2-7)8-3/h3-5,8-9H	InChI=1S/C5H5N3O/c6-1-3-5(9)4(2-7)8-3/h3-5,8-9H/t3-,4-/m0/s1
