22
gdb 119564	3.22565	0.92517	0.83025	2.0011	81.81	-0.2308	0.0773	0.3081	1482.9054	0.193723	-404.301049	-404.291379	-404.290435	-404.335843	36.085	
C	-0.0707774634	 1.5747133795	-0.1797367682	-0.414649
C	 0.0162785693	 0.075238868	 0.0763719797	-0.043301
C	 0.9707152443	-0.8185514557	-0.7636489212	-0.176669
N	 1.6146228641	-1.4023997454	 0.4656923278	-0.166277
C	 2.2289013451	-0.2477752606	 1.1521178089	-0.29294
C	 0.7714260101	-0.4481646401	 1.308453919	 0.336342
C	 0.079902506	-0.8588675035	 2.5818520182	-0.318442
C	 0.9579674823	-1.6059624139	 3.5905879683	-0.075088
O	 0.2205327741	-2.0462388566	 4.7207018272	-0.418679
H	 0.9164158911	 2.0471879846	-0.1741357593	 0.116023
H	-0.5285906282	 1.7772705526	-1.1542653444	 0.117262
H	-0.6826679076	 2.0703279312	 0.5820850531	 0.118843
H	-0.9922735963	-0.3514112248	 0.0637065522	 0.077436
H	 0.4679634332	-1.5982935087	-1.339225748	 0.107678
H	 1.6808206465	-0.2981882288	-1.41699633	 0.099538
H	 2.8757893608	-0.5391970185	 1.9731609583	 0.121486
H	 2.6192171299	 0.5724335929	 0.5524390097	 0.105793
H	-0.3447505046	 0.0290754051	 3.0687838821	 0.110975
H	-0.7728189679	-1.5030071271	 2.3195694858	 0.089008
H	 1.4678359226	-2.4408505343	 3.0878403256	 0.113228
H	 1.7298958002	-0.9403580971	 3.9895368028	 0.111526
H	-0.4040795917	-2.7139270988	 4.4200539826	 0.280908
61.2416	96.5112	141.1714	179.4674	200.17	233.3703	297.1579	305.3502	369.6612	398.1928	473.3069	545.7334	662.2035	703.0761	755.7812	803.3099	855.6494	874.1257	904.4583	941.8744	1008.3939	1023.8146	1064.5133	1075.221	1093.5553	1099.0104	1112.4578	1134.2635	1150.7255	1184.4574	1197.9597	1218.3811	1262.1333	1294.3473	1313.9181	1341.7224	1364.1153	1398.1423	1407.3817	1415.5831	1424.1187	1478.5128	1491.7035	1494.9944	1498.2549	1514.1529	1521.8282	2995.1963	3001.4867	3029.2462	3035.604	3041.5656	3045.682	3081.7916	3093.1762	3099.6701	3104.4061	3109.1462	3196.1002	3816.226
CC1CN2CC12CCO	C[C@H]1CN2C[C@@]12CCO	
InChI=1S/C7H13NO/c1-6-4-8-5-7(6,8)2-3-9/h6,9H,2-5H2,1H3	InChI=1S/C7H13NO/c1-6-4-8-5-7(6,8)2-3-9/h6,9H,2-5H2,1H3/t6-,7-,8?/m0/s1
