15
gdb 25587	4.34937	0.91885	0.82054	4.3639	69.79	-0.2385	-0.0106	0.2279	1349.0804	0.112641	-457.807411	-457.799422	-457.798478	-457.841697	28.004	
O	 0.4608337092	 0.1445710654	 0.6079980631	-0.271974
C	 0.5481274526	 1.3346112446	 0.6275864656	 0.179199
O	 0.7367670724	 2.0670944655	-0.4884360964	-0.172753
C	 0.8874236066	 3.4931607525	-0.3278574607	-0.226276
C	 2.3106422543	 3.9054945284	-0.2925319222	 0.379655
C	 3.1283010246	 4.5306696848	-1.1824099783	-0.269058
C	 4.4110842783	 4.6307582473	-0.5539436826	-0.165937
C	 4.273890487	 4.0540718259	 0.6681404413	-0.010542
O	 3.0025628541	 3.6113813019	 0.8475824015	-0.17591
H	 0.4738585762	 1.9536398033	 1.5426290097	 0.081211
H	 0.3937741304	 3.9476473421	-1.1881538564	 0.141618
H	 0.3645695678	 3.8120390039	 0.582531201	 0.128421
H	 2.852326174	 4.8747838815	-2.1670257469	 0.120264
H	 5.3084193807	 5.0697776582	-0.9600540645	 0.119807
H	 4.9478488418	 3.8858045047	 1.4918278158	 0.142277
46.0885	49.9315	128.6148	187.2767	281.6476	365.8908	389.54	613.7851	624.2821	679.1084	755.3151	768.5724	823.6674	864.5667	901.9236	931.6923	978.811	1013.8357	1039.3944	1043.6485	1109.8925	1149.758	1187.2579	1249.615	1253.5403	1315.1201	1389.535	1420.9489	1432.3351	1482.5834	1534.376	1641.9098	1868.4483	2951.6948	3033.058	3126.9954	3254.9201	3265.8716	3288.1932
O=COCC1=CC=CO1	O=COCc1ccco1	
InChI=1S/C6H6O3/c7-5-8-4-6-2-1-3-9-6/h1-3,5H,4H2	InChI=1S/C6H6O3/c7-5-8-4-6-2-1-3-9-6/h1-3,5H,4H2
