19
gdb 38059	2.43187	2.13629	1.55104	0.194	86.44	-0.2124	-0.0235	0.1889	931.8563	0.163664	-348.775366	-348.7687	-348.767755	-348.805903	28.396	
C	-0.0369033547	 1.5538012521	 0.0855083261	-0.241284
C	 1.463121525	 1.9118473533	 0.0014745818	-0.093847
C	 2.0996540745	 0.7083452103	 0.6806999951	-0.067163
C	 1.2671438736	-0.3371887406	 0.6834299941	-0.067172
C	-0.0500298136	 0.0114495076	 0.0063330965	-0.093848
C	 0.0049244678	-0.512982277	-1.4139521187	-0.090414
C	 0.7256089671	 0.0083697984	-2.4251904058	-0.057602
C	 1.6337579113	 1.1491052891	-2.4281287261	-0.057606
C	 1.9829053398	 1.9714350591	-1.4203253099	-0.090421
H	-0.4205371274	 1.861754562	 1.0630973124	 0.097718
H	-0.6374009837	 2.029952572	-0.6924959171	 0.102583
H	 1.6861701401	 2.8557564993	 0.5082091887	 0.066398
H	 3.1341056861	 0.6956547231	 1.0056081977	 0.093367
H	 1.5120252255	-1.3414752598	 1.0109284248	 0.093367
H	-0.9187441592	-0.415785642	 0.5165271814	 0.066397
H	-0.5749163637	-1.4096228276	-1.6208818256	 0.086984
H	 0.6532922995	-0.5017638377	-3.383488064	 0.08278
H	 2.1122365253	 1.3309523314	-3.3882274607	 0.08278
H	 2.7262137367	 2.7368613568	-1.6315445911	 0.086984
201.8268	221.5881	327.3773	346.2372	413.0744	518.3318	538.9171	612.7074	705.3667	750.9002	770.7064	786.0795	814.3192	837.6696	848.3498	894.8197	913.0505	938.5575	971.9945	980.1721	992.1719	1006.9552	1025.9066	1061.8404	1071.8096	1131.9786	1190.2826	1216.6006	1258.1465	1264.0479	1281.8377	1295.0428	1346.8352	1355.2069	1355.2641	1417.0421	1450.2902	1482.9823	1637.8805	1660.8997	1687.0816	3046.2395	3053.2467	3063.92	3113.6864	3129.9399	3140.3744	3155.9522	3165.5788	3181.6703	3207.5371
C1C2C=CC1C=CC=C2	C1[C@H]2C=C[C@@H]1C=CC=C2	
InChI=1S/C9H10/c1-2-4-9-6-5-8(3-1)7-9/h1-6,8-9H,7H2	InChI=1S/C9H10/c1-2-4-9-6-5-8(3-1)7-9/h1-6,8-9H,7H2/t8-,9+
