21
gdb 92120	2.72543	1.5353	1.19845	1.6113	82.17	-0.2353	0.0789	0.3142	1114.8555	0.182608	-387.045898	-387.03768	-387.036736	-387.078515	32.728	
C	 0.1145690749	 1.4334704271	-0.5112664312	-0.407459
C	-0.0101893239	 0.0342253759	 0.054016749	 0.156612
O	 0.5629839857	-0.9787874935	-0.81911246	-0.316162
C	 1.306378664	-1.5657837268	 0.2637893363	 0.132228
C	 2.7700075812	-1.0610192551	 0.3295456147	-0.325594
C	 2.3066174146	 0.0230347629	 1.3254746204	 0.382722
C	 3.0241464273	 0.3663286445	 2.6013042171	-0.335965
C	 2.8464039636	 1.4110026898	 1.5264163771	-0.319374
C	 0.8498341638	-0.4507263046	 1.2500285182	-0.201597
H	 1.1587964774	 1.700314931	-0.6876026532	 0.129654
H	-0.4222954039	 1.4951790614	-1.4634492505	 0.124797
H	-0.3263092204	 2.1664184532	 0.1735838341	 0.111346
H	-1.0712208595	-0.1988089537	 0.2294116986	 0.070614
H	 1.1109546111	-2.6344646673	 0.3820671889	 0.073821
H	 3.4820904186	-1.7776026755	 0.7510967424	 0.097854
H	 3.1389620865	-0.710424805	-0.6379935889	 0.108164
H	 2.4370749932	 0.4638195813	 3.5094636025	 0.110703
H	 4.0146923473	-0.0513529835	 2.7528506867	 0.111299
H	 3.7166130852	 1.7053804436	 0.9480129601	 0.113256
H	 2.1443788134	 2.216931599	 1.7119453428	 0.113435
H	 0.3286134099	-0.6253201646	 2.1918611849	 0.069644
78.4054	146.4982	227.2178	257.8952	282.5357	307.6669	392.0742	403.202	500.2183	594.5716	671.3014	773.6153	795.7205	828.6313	855.2489	859.1646	894.6458	914.4971	920.9382	968.7908	986.1268	1019.6731	1044.2405	1053.3074	1076.4227	1086.644	1098.2461	1137.2631	1150.906	1181.0056	1190.5823	1207.962	1253.0532	1259.7044	1276.5005	1306.9062	1330.2259	1380.8402	1389.2819	1406.892	1465.1503	1467.3782	1482.3793	1492.6272	1501.9301	2982.1381	3036.9328	3044.9869	3074.0167	3101.9917	3102.3852	3105.2147	3119.3651	3126.853	3130.4196	3198.6225	3214.6948
CC1OC2CC3(CC3)C12	C[C@H]1O[C@H]2CC3(CC3)[C@@H]12	
InChI=1S/C8H12O/c1-5-7-6(9-5)4-8(7)2-3-8/h5-7H,2-4H2,1H3	InChI=1S/C8H12O/c1-5-7-6(9-5)4-8(7)2-3-8/h5-7H,2-4H2,1H3/t5-,6+,7+/m1/s1
