25
gdb 58561	2.21524	1.33914	1.12998	1.2342	88.01	-0.2514	0.0662	0.3176	1283.0475	0.22692	-389.492143	-389.481523	-389.480579	-389.526711	41.098	
C	-0.2336530636	 1.5277159443	-0.9043785505	-0.414017
C	-0.0860539418	 0.1109637165	-0.3251601302	-0.023435
C	 0.6476128447	 0.1490920106	 1.0230386967	-0.391473
C	-1.4497374795	-0.5855356902	-0.2106801707	 0.431052
O	-2.2545667135	 0.0129157566	 0.8086049401	-0.493599
C	-2.2886239559	-0.7975430437	-1.5063224299	-0.277797
C	-2.7279056251	-2.1786899178	-0.9540253383	-0.230138
C	-1.5346521026	-2.1291939046	 0.0468654534	-0.005676
C	-0.3447598736	-2.9760137825	-0.3974625665	-0.415684
H	 0.7459849428	 1.9938941323	-1.048226837	 0.115153
H	-0.7453200278	 1.5214338786	-1.8723282364	 0.115501
H	-0.7987867498	 2.1789862041	-0.2262952509	 0.104466
H	 0.5136433586	-0.4743913437	-1.0340700866	 0.068641
H	 0.0633562149	 0.7083678751	 1.7589270595	 0.122904
H	 0.8077532824	-0.8547717082	 1.4271318562	 0.114528
H	 1.6261386591	 0.6295552633	 0.9208679744	 0.102947
H	-2.5074630143	 0.8922980284	 0.5076736253	 0.275073
H	-3.0678674877	-0.0558809022	-1.7044906055	 0.086347
H	-1.6588208095	-0.8872842894	-2.3967129873	 0.096207
H	-3.6946553816	-2.1321219786	-0.4501377302	 0.107849
H	-2.7351379164	-3.0134077082	-1.6597894394	 0.088709
H	-1.789600827	-2.3524453489	 1.0860952452	 0.077539
H	-0.0751257244	-2.7857604834	-1.4424417781	 0.112817
H	 0.5449626795	-2.7988755776	 0.2143494998	 0.118491
H	-0.5955994278	-4.0393562207	-0.3173351032	 0.113595
103.2154	115.209	164.8153	208.5954	234.0895	246.4115	251.6316	288.3529	307.2083	324.5271	339.5553	377.0908	451.8374	475.6218	509.7182	657.0804	716.4479	797.714	873.6038	884.6979	906.3111	924.6027	942.4323	960.3036	972.3772	979.9014	1043.2393	1063.7976	1079.3013	1114.7202	1141.1396	1178.6484	1194.4463	1209.9786	1226.0648	1271.7054	1275.6889	1283.541	1321.489	1345.5334	1347.7425	1382.0697	1396.5984	1411.84	1418.7283	1468.288	1486.5383	1488.9227	1490.0645	1499.0776	1500.3708	1507.2812	1513.6956	3021.3407	3025.6481	3030.5185	3039.6637	3045.4808	3063.1937	3069.7929	3087.9144	3092.7405	3095.0387	3101.4705	3103.596	3107.8196	3118.5034	3125.5741	3804.0292
CC(C)C1(O)CCC1C	CC(C)[C@@]1(O)CC[C@H]1C	
InChI=1S/C8H16O/c1-6(2)8(9)5-4-7(8)3/h6-7,9H,4-5H2,1-3H3	InChI=1S/C8H16O/c1-6(2)8(9)5-4-7(8)3/h6-7,9H,4-5H2,1-3H3/t7-,8+/m1/s1
