19
gdb 15991	3.30431	1.66944	1.2664	2.0671	72.5	-0.2399	0.0751	0.315	1015.8034	0.165382	-365.01235	-365.004154	-365.00321	-365.045126	30.351	
C	 0.1677715467	 1.508395807	-0.2220004667	-0.239025
O	-0.3283043175	 0.2284229281	-0.5487833444	-0.243741
C	 0.6196072615	-0.6005822076	-1.1617215341	 0.08198
C	 1.6945389828	-1.3322298619	-0.2978233443	-0.258501
C	 1.4093383874	-2.629319139	-1.1149147454	-0.299936
C	 0.1053879106	-1.9756751523	-1.580143793	 0.327613
C	-1.281623442	-2.4422968672	-1.3808937157	-0.292753
N	-0.6976527165	-2.3387110529	-2.7372235301	-0.381723
H	 0.9861242551	 1.4573129074	 0.5111270716	 0.111181
H	 0.536713803	 2.0396452974	-1.1134972177	 0.10525
H	-0.6581558138	 2.0766977782	 0.2122149609	 0.128068
H	 1.0939393125	-0.0753849358	-2.0090581313	 0.063027
H	 2.7124203672	-0.938693563	-0.3126141046	 0.097328
H	 1.3500002028	-1.4198891062	 0.7357308717	 0.112438
H	 2.1144268972	-2.7706332925	-1.939020395	 0.110332
H	 1.3272385074	-3.563617594	-0.5562569168	 0.107583
H	-1.4681496552	-3.4586433203	-1.0434538777	 0.113885
H	-2.0161730677	-1.7059043084	-1.0692258386	 0.126776
H	-1.0437294614	-1.4983918169	-3.1964844289	 0.230219
83.6535	107.8746	163.862	196.9384	268.6854	300.945	356.4375	452.5601	514.9676	553.8614	733.5225	791.8222	838.2946	895.6555	915.3932	952.7488	961.2641	978.6719	1033.5209	1038.7902	1103.4475	1107.5961	1126.0683	1163.4893	1182.1417	1184.3273	1223.8137	1242.8384	1246.1914	1266.2983	1290.153	1306.5735	1391.1232	1418.9683	1476.243	1480.956	1487.8913	1497.1682	1509.1567	1513.6189	2949.1849	2977.003	3026.5488	3062.1087	3068.2935	3109.6847	3113.4733	3116.0048	3130.4169	3201.3956	3482.5995
COC1CCC11CN1	CO[C@H]1CC[C@]21CN2	
InChI=1S/C6H11NO/c1-8-5-2-3-6(5)4-7-6/h5,7H,2-4H2,1H3	InChI=1S/C6H11NO/c1-8-5-2-3-6(5)4-7-6/h5,7H,2-4H2,1H3/t5-,6+/m0/s1
