21
gdb 121569	7.29258	0.38546	0.38004	1.3766	86.1	-0.2464	0.0588	0.3052	2845.683	0.179566	-424.184184	-424.172645	-424.171701	-424.224544	38.361	
C	-0.3981272948	 1.2754323576	-0.2316706552	-0.228892
O	 0.1107220487	-0.0154249181	 0.0025390201	-0.226887
C	 0.683190734	-0.5966628239	-1.1461303305	-0.041732
C	 1.1986564692	-1.9861620551	-0.7571076429	-0.353129
C	 1.8135099873	-2.6854010719	-1.8785806618	 0.048917
C	 2.3241143824	-3.2347859744	-2.8210476107	 0.052616
C	 2.9214065769	-3.929239356	-3.9545643928	-0.323779
C	 2.0607590525	-5.0962443091	-4.450764625	-0.062766
O	 2.7456826274	-5.6792204197	-5.5465047675	-0.415559
H	 0.388827324	 1.9715520577	-0.5629839239	 0.104848
H	-1.1924806367	 1.2698864385	-0.9950282102	 0.104296
H	-0.816609061	 1.6385561268	 0.7101534209	 0.127504
H	-0.059673823	-0.6824877798	-1.9559487584	 0.094623
H	 1.5127285083	 0.0204609465	-1.5280353483	 0.096087
H	 1.9155963429	-1.872448784	 0.0651330748	 0.135839
H	 0.3591478016	-2.56703403	-0.3559912631	 0.134709
H	 3.0774941802	-3.2365625604	-4.7907584386	 0.134869
H	 3.9117157405	-4.3192053645	-3.6889926063	 0.135638
H	 1.9142981611	-5.8157447587	-3.6314379053	 0.097704
H	 1.0690063194	-4.7198310017	-4.7429824444	 0.096442
H	 2.2245489992	-6.4199216098	-5.8689254409	 0.28865
5.8027	60.6587	65.2505	98.3356	109.7762	122.293	229.9609	237.7375	244.4665	282.424	315.6611	381.9369	428.0428	508.2104	527.5053	793.8822	797.0963	817.3853	993.2552	1003.0936	1053.7519	1079.7807	1083.5809	1092.4375	1157.3542	1169.9713	1182.2861	1221.5128	1227.1998	1232.9195	1238.4576	1300.142	1303.7081	1314.4338	1335.3167	1418.492	1454.1843	1477.425	1478.5328	1481.7641	1485.6144	1504.7785	1527.7082	1531.7668	2371.3889	2960.5191	2973.3839	2982.4265	2994.5494	3012.7082	3012.9192	3028.3254	3029.2375	3064.9395	3065.3978	3113.4506	3835.2082	5.8031	60.6588	65.251	98.3361	109.7762	122.2932	229.961	237.738	244.4668	282.4242	315.6612	381.9372	428.0428	508.2105	527.5054	793.8822	797.0963	817.3853	993.2554	1003.0936	1053.7519	1079.7808	1083.5809	1092.4375	1157.3543	1169.9714	1182.2861	1221.5129	1227.1998	1232.9195	1238.4577	1300.142	1303.7082	1314.4338	1335.3167	1418.4921	1454.1844	1477.4247	1478.5328	1481.7641	1485.6144	1504.7785	1527.7085	1531.7671	2371.389	2960.5192	2973.384	2982.4266	2994.5494	3012.7082	3012.9192	3028.3253	3029.2374	3064.9396	3065.3978	3113.4506	3835.2083
COCCC#CCCO	COCCC#CCCO	
InChI=1S/C7H12O2/c1-9-7-5-3-2-4-6-8/h8H,4-7H2,1H3	InChI=1S/C7H12O2/c1-9-7-5-3-2-4-6-8/h8H,4-7H2,1H3
