17
gdb 28005	3.56009	1.11087	0.85205	3.5327	82.68	-0.1976	-0.0217	0.1759	1310.6638	0.136435	-418.067566	-418.058796	-418.057851	-418.100831	32.608	
C	-0.0574039215	 1.5183190579	 0.0278506086	-0.512352
C	-0.0150093224	 0.0234313082	 0.0048940943	 0.227866
C	-0.0122239204	-0.7956672184	-1.084100786	-0.173464
N	 0.0163506805	-2.1155422572	-0.6519479517	-0.036712
C	 0.0299455264	-3.2231344764	-1.4772181178	 0.175535
O	 0.0587559397	-4.3645711105	-1.088636263	-0.30901
C	 0.0395209724	-2.1342480092	 0.7433684013	-0.169269
C	 0.017401984	-0.8357178353	 1.172230589	 0.155576
N	-0.0559264319	-0.3595566483	 2.483731572	-0.600996
H	 0.8413032436	 1.9474523732	 0.4906881504	 0.122285
H	-0.1280021198	 1.9271711556	-0.9834534627	 0.1283
H	-0.9174752336	 1.8849728865	 0.6005893315	 0.138163
H	-0.0295551904	-0.5654049801	-2.1377786175	 0.133789
H	 0.0118657596	-2.933454299	-2.5440030881	 0.087226
H	 0.0616101761	-3.0744485596	 1.2660577089	 0.139869
H	 0.2145175132	-1.0425231181	 3.1785014852	 0.247653
H	 0.4570325647	 0.5001516808	 2.6286165556	 0.24554
103.8917	143.6591	188.2956	215.0768	233.7962	243.948	293.6512	380.9019	424.5132	518.4517	603.8923	609.6428	646.057	684.5405	737.6113	750.0088	766.4873	824.4613	1002.7234	1016.6435	1019.3499	1063.6506	1100.2175	1192.1881	1216.6333	1257.1192	1336.6175	1404.6238	1420.5255	1446.2717	1455.9008	1480.7018	1500.904	1584.6123	1645.3965	1679.3811	1811.458	2967.7333	3014.9897	3063.818	3112.9134	3256.4357	3290.4518	3542.6229	3635.2686
CC1=CN(C=O)C=C1N	Cc1cn(C=O)cc1N	
InChI=1S/C6H8N2O/c1-5-2-8(4-9)3-6(5)7/h2-4H,7H2,1H3	InChI=1S/C6H8N2O/c1-5-2-8(4-9)3-6(5)7/h2-4H,7H2,1H3
