18
gdb 80101	2.56623	1.49291	1.23181	4.4383	81.87	-0.2511	-0.0041	0.247	1080.2335	0.148795	-364.832875	-364.824854	-364.823909	-364.865154	31.088	
C	-0.1088378294	 1.5377219546	-0.0033969587	-0.42436
C	 0.0555513808	 0.0371023611	 0.0294736919	-0.046369
C	 1.3515993641	-0.6987889188	-0.2447238047	-0.13228
C	 2.6274942381	 0.0589689487	-0.1130874978	-0.073076
C	 2.8249961456	 0.5074422295	 1.1283609608	-0.076898
C	 1.7257204737	 0.082444152	 2.0759688573	-0.340756
C	 0.7492861584	-0.6942706365	 1.1757580796	 0.16303
C	 0.1135451514	-1.8595895103	 1.7152081614	 0.203739
N	-0.4018089621	-2.7957922803	 2.1606725842	-0.354374
H	 0.8090718714	 2.0588032506	 0.2749634233	 0.130351
H	-0.3854883826	 1.8631993952	-1.0117024266	 0.12661
H	-0.9053215191	 1.8535580226	 0.6783768932	 0.128469
H	-0.8164337876	-0.5045781021	-0.327799372	 0.110894
H	 1.3103216833	-1.589398942	-0.8619767332	 0.111758
H	 3.2860747042	 0.2309296625	-0.9562688426	 0.107534
H	 3.6556685522	 1.1246596268	 1.4505187568	 0.10658
H	 2.105348076	-0.5595262804	 2.8792601598	 0.134138
H	 1.2426302517	 0.9379133667	 2.5647859972	 0.125009
134.3373	165.4316	182.5699	223.1207	223.4592	363.5113	434.6529	486.0071	553.029	567.9423	577.2971	710.5904	728.9222	760.8285	838.9323	874.8655	937.8625	957.7338	964.794	993.9522	1013.7416	1047.037	1081.6557	1096.3891	1123.0939	1146.254	1176.8709	1233.4794	1255.6963	1312.2244	1341.8483	1375.7893	1410.9731	1432.297	1479.0517	1497.7521	1501.152	1671.0733	2344.8574	3030.8429	3040.4028	3061.8208	3098.5533	3128.2223	3148.4595	3175.2724	3192.6803	3216.2044
CC1C2C=CCC12C#N	C[C@H]1[C@H]2C=CC[C@@]12C#N	
InChI=1S/C8H9N/c1-6-7-3-2-4-8(6,7)5-9/h2-3,6-7H,4H2,1H3	InChI=1S/C8H9N/c1-6-7-3-2-4-8(6,7)5-9/h2-3,6-7H,4H2,1H3/t6-,7+,8+/m0/s1
