16
gdb 19939	3.72492	2.39501	1.93825	3.0193	62.41	-0.2402	0.0635	0.3036	730.6801	0.132808	-383.707001	-383.701084	-383.70014	-383.736889	23.706	
C	 0.3423553637	 1.5571932833	 0.2558707988	-0.07707
O	 1.460016806	 1.4265430511	-0.6540545916	-0.28736
C	 1.2954989468	-0.0034914572	-0.7130147259	 0.104612
C	 2.2687912574	-0.7841479139	 0.1568462404	 0.01598
O	 2.4399714287	-0.1929218559	 1.4503452143	-0.242171
C	 1.5538003147	-1.3078968357	 1.3381071682	 0.049073
C	 0.089657883	-0.9031523295	 1.2991405355	-0.27002
C	-0.0245354896	 0.0618391663	 0.1029054831	-0.077623
H	 0.6675872413	 1.8519333827	 1.259256777	 0.112206
H	-0.3969370636	 2.2736610528	-0.1204457173	 0.097407
H	 1.2754821816	-0.3747541351	-1.7436793265	 0.074083
H	 3.1546616075	-1.2553621602	-0.261327599	 0.097396
H	 1.8676309246	-2.2082659122	 1.8622045571	 0.095682
H	-0.5339610368	-1.7913158604	 1.1460555328	 0.105701
H	-0.2238349583	-0.444859594	 2.2436700059	 0.116862
H	-0.936929897	-0.095534302	-0.4729607228	 0.085242
158.3662	231.7682	345.9319	376.6279	531.2389	652.8821	695.6115	763.8682	832.7452	856.318	860.0287	890.0816	903.8629	952.7386	987.0656	1006.6115	1021.535	1056.1255	1079.5821	1096.1584	1129.1597	1162.9873	1197.6915	1225.3055	1255.401	1261.4472	1306.9961	1316.1103	1337.8563	1347.1351	1375.4362	1428.3478	1477.5856	1515.1155	3025.5611	3039.74	3046.6383	3075.9956	3079.2001	3107.1931	3134.8655	3151.1677
C1OC2C3OC3CC12	C1O[C@H]2[C@H]3O[C@H]3C[C@@H]12	
InChI=1S/C6H8O2/c1-3-2-7-5(3)6-4(1)8-6/h3-6H,1-2H2	InChI=1S/C6H8O2/c1-3-2-7-5(3)6-4(1)8-6/h3-6H,1-2H2/t3-,4-,5+,6-/m0/s1
