21
gdb 62565	2.3265	1.46823	1.16866	3.6164	84.3	-0.2338	-0.0049	0.2289	1172.1766	0.180222	-387.096063	-387.086568	-387.085624	-387.129625	36.501	
C	-0.0148379565	 1.5317869487	 0.0230532046	-0.462631
C	 0.0464365027	 0.011425835	 0.0650661468	 0.26593
C	-1.1782767131	-0.6168660263	-0.5883941212	-0.457914
C	 1.3419083449	-0.7610507878	-0.2418432902	-0.267093
C	 2.5291070482	-0.0678265745	 0.3399693022	 0.423272
O	 3.6307566309	 0.1753602891	-0.0694083071	-0.328251
C	 1.89400019	 0.0062362743	 1.7511937216	-0.427986
C	 0.6817914136	-0.7603777056	 1.182620284	 0.297887
C	 0.0541045358	-1.8946289606	 1.9454124718	-0.496349
H	 0.8679107347	 2.0152722324	 0.4439515083	 0.129778
H	-0.1136342617	 1.8755905364	-1.0122713592	 0.12356
H	-0.8907589111	 1.8931370199	 0.5747070235	 0.11677
H	-1.303934513	-0.2271909152	-1.6040353106	 0.124144
H	-1.1065369098	-1.7046364967	-0.6602513674	 0.120984
H	-2.0869331363	-0.3734527562	-0.0260043401	 0.1211
H	 1.3558591763	-1.5141363087	-1.02194643	 0.098361
H	 2.483329181	-0.6055049155	 2.4425706895	 0.125967
H	 1.7280006525	 0.9864005696	 2.2052858038	 0.116451
H	-0.4695788204	-1.5154037199	 2.8315655412	 0.126635
H	-0.670828529	-2.4531838589	 1.3497349523	 0.124792
H	 0.8172718303	-2.5989486892	 2.2944092961	 0.124593
101.7108	173.7842	176.4781	184.1822	200.4131	273.3144	302.3332	332.2272	364.2368	439.4123	453.5026	491.9125	559.3758	611.4067	651.3999	662.1361	832.3779	855.4039	934.1192	951.6727	960.0655	968.8929	1000.9294	1029.844	1065.8448	1075.6809	1128.9053	1149.749	1163.0163	1189.7644	1211.5038	1260.6343	1293.8585	1401.9783	1415.4023	1426.2238	1428.8748	1463.9221	1480.9002	1487.1417	1490.3687	1498.2485	1507.6801	1515.4089	1873.0061	3027.3983	3029.9868	3034.7946	3054.0061	3081.5384	3087.7419	3093.3537	3104.8958	3115.0518	3127.0856	3133.7154	3179.3154
CC1(C)C2C(=O)CC12C	CC1(C)[C@H]2C(=O)C[C@@]12C	
InChI=1S/C8H12O/c1-7(2)6-5(9)4-8(6,7)3/h6H,4H2,1-3H3	InChI=1S/C8H12O/c1-7(2)6-5(9)4-8(6,7)3/h6H,4H2,1-3H3/t6-,8-/m1/s1
