21
gdb 109922	2.34914	1.28586	1.02342	3.7849	74.43	-0.2475	0.0595	0.307	1247.1678	0.180515	-461.344969	-461.334997	-461.334053	-461.379135	38.175	
C	-0.8439271306	 1.4126522586	-0.0309134119	-0.46003
C	-0.0577743378	 0.1110548506	-0.0149159752	 0.394336
O	-0.8709086455	-0.9738023637	-0.4590130048	-0.484939
C	 1.340978737	 0.0817778397	-0.7054118576	-0.315827
C	 1.8337686242	-0.829524898	 0.4483809536	 0.117215
O	 3.0904416759	-0.5387479935	 1.0405311274	-0.436535
C	 0.6205461495	-0.3754316987	 1.304761075	-0.066102
C	 0.9670728259	 0.7003060404	 2.3361168706	-0.077633
O	 1.736794817	 0.1695093979	 3.3979690925	-0.43205
H	-0.2568552503	 2.2508736922	 0.3542506963	 0.122135
H	-1.1401000788	 1.6630971394	-1.057706454	 0.103776
H	-1.7543991551	 1.3173645967	 0.5687699393	 0.128695
H	-1.1789857748	-0.764008966	-1.3479897155	 0.272227
H	 1.3749747486	-0.309024555	-1.7261237759	 0.087452
H	 1.8407696084	 1.0539175259	-0.6666568891	 0.104251
H	 1.7626535184	-1.8903446702	 0.1864292156	 0.086001
H	 3.7904983853	-0.8951780213	 0.4861509863	 0.290113
H	 0.073045507	-1.1804557629	 1.799580127	 0.088016
H	 1.4843426409	 1.546694204	 1.8571309344	 0.083359
H	 0.0474242993	 1.0943312939	 2.7819075841	 0.104736
H	 2.5455064056	-0.1629749701	 2.9882545018	 0.290805
83.9946	163.9127	172.1426	199.5697	236.1751	249.2241	295.8496	329.6311	336.1463	369.5935	373.3892	415.635	499.1377	526.0046	573.35	631.8851	758.0356	834.3294	894.8492	916.2302	944.3828	966.2999	1006.314	1046.2589	1071.6854	1083.1209	1126.1299	1139.9368	1165.6692	1195.2732	1208.2455	1252.2558	1253.1075	1273.0225	1320.5986	1337.3514	1368.6935	1399.594	1411.1472	1420.1637	1455.6417	1469.4851	1490.6486	1493.0331	1507.6846	2975.0193	3023.0999	3044.9983	3052.512	3064.1278	3090.3831	3092.5035	3112.699	3119.8554	3773.4402	3791.5166	3831.8841
CC1(O)CC(O)C1CO	C[C@@]1(O)C[C@@H](O)[C@H]1CO	
InChI=1S/C6H12O3/c1-6(9)2-5(8)4(6)3-7/h4-5,7-9H,2-3H2,1H3	InChI=1S/C6H12O3/c1-6(9)2-5(8)4(6)3-7/h4-5,7-9H,2-3H2,1H3/t4-,5-,6-/m1/s1
