20
gdb 78172	2.00153	1.73889	1.21705	2.5423	79.28	-0.2352	-0.0222	0.2129	1124.2081	0.170686	-403.156711	-403.14804	-403.147096	-403.189941	33.323	
C	-0.0315789085	 1.6413122191	-0.0125404946	-0.432171
C	 0.0185643954	 0.1293652769	-0.0622064018	 0.017205
C	 0.6792358767	-0.6876073721	-1.1345657027	-0.180749
N	 1.1838881831	-0.6908215221	 0.2568725019	-0.12283
C	 2.4968900015	 0.0287168545	 0.2838225888	 0.059642
C	 3.5554245373	-0.9461935699	 0.7950215654	-0.3914
C	 2.7952046208	 0.5431685503	-1.1431190603	-0.367038
C	 1.666372325	-0.0011945104	-2.0283788135	 0.416879
O	 1.6187523919	 0.0494445534	-3.2316197933	-0.323497
H	 0.8178466431	 2.1346533887	-0.4865056833	 0.129145
H	-0.93801659	 1.9901213638	-0.5172010492	 0.135098
H	-0.083012922	 1.9820569746	 1.0276211953	 0.130991
H	-0.8934810232	-0.3221240661	 0.3276077707	 0.104241
H	 0.1902255422	-1.5763371352	-1.5212111356	 0.110881
H	 2.4098065417	 0.859458383	 0.991746679	 0.085081
H	 3.6491154811	-1.8021418774	 0.1180262592	 0.121145
H	 4.532349929	-0.4565218139	 0.8650819938	 0.111985
H	 3.2803232754	-1.3265518585	 1.7819849079	 0.125834
H	 2.8467283503	 1.6329771	-1.231619087	 0.133456
H	 3.7441255693	 0.1559288912	-1.5274257809	 0.136102
77.8232	125.8795	175.9354	224.7286	255.3662	305.228	354.5169	391.5856	454.5563	543.7064	583.9322	598.7964	681.9017	724.8663	765.8095	831.6555	864.7683	915.9856	936.3529	982.078	997.0275	1037.3086	1077.8177	1091.7125	1118.384	1124.2203	1171.397	1193.1307	1216.4038	1259.3944	1280.6457	1323.0764	1347.8537	1370.1856	1408.204	1411.1582	1422.6578	1456.2728	1487.7436	1489.9926	1496.1745	1503.5569	1833.9642	3034.598	3041.517	3047.271	3056.6589	3093.9533	3099.2703	3102.7783	3104.775	3122.285	3142.5928	3162.8235
CC1C2N1C(C)CC2=O	C[C@H]1[C@@H]2N1[C@@H](C)CC2=O	
InChI=1S/C7H11NO/c1-4-3-6(9)7-5(2)8(4)7/h4-5,7H,3H2,1-2H3	InChI=1S/C7H11NO/c1-4-3-6(9)7-5(2)8(4)7/h4-5,7H,3H2,1-2H3/t4-,5-,7-,8?/m0/s1
