19
gdb 97736	2.85985	0.81787	0.76528	2.2569	82.09	-0.2452	0.0214	0.2666	1578.6862	0.156492	-422.974495	-422.963853	-422.962909	-423.012026	36.909	
C	-0.3445869976	 1.4280169347	 0.2052404343	-0.401916
C	 0.0108166747	-0.0321937737	 0.0638784332	-0.050359
C	 1.415272365	-0.4607654461	-0.2524594241	 0.112844
O	 2.4175109581	 0.4948577302	-0.3733919217	-0.421577
C	 0.8411740271	-0.7667269897	 1.1318750872	-0.27249
C	 1.4009863361	-0.0643238514	 2.2444695422	 0.033657
C	 1.9405511009	 0.5327573451	 3.1464243395	 0.075712
C	 2.4920835818	 1.2591201537	 4.2904013938	-0.193174
O	 1.7922648532	 2.4570820026	 4.5969471889	-0.40011
H	 0.5089455107	 2.0108299627	 0.5552248646	 0.134586
H	-0.6521228178	 1.8364836588	-0.7629417886	 0.122269
H	-1.1704167593	 1.5689829585	 0.9098556687	 0.115609
H	-0.7694646878	-0.6552722366	-0.3654898384	 0.092163
H	 1.5590014694	-1.3095369123	-0.9173159943	 0.100629
H	 2.8062896293	 0.635100048	 0.499963246	 0.29171
H	 0.5648474718	-1.7986793576	 1.3266552067	 0.112566
H	 2.5292386906	 0.5812354778	 5.1585769039	 0.120675
H	 3.5247771607	 1.5641436296	 4.0880703059	 0.13959
H	 0.8577057031	 2.2346494856	 4.6634617021	 0.287616
18.0206	67.7588	85.6636	128.1997	158.031	191.2545	237.7052	256.1458	312.3123	341.2648	411.0511	461.4413	550.2488	615.9135	644.3917	737.3407	753.773	830.0731	916.3468	967.5486	985.6477	1013.2489	1043.0304	1072.5181	1096.6571	1140.5365	1172.1116	1180.6746	1217.0621	1245.2498	1354.9365	1357.877	1363.8865	1382.9174	1416.9709	1422.6468	1428.3621	1488.447	1490.9638	1498.8625	2335.6298	2974.2625	3041.907	3061.5713	3099.7804	3125.958	3133.3283	3144.1929	3153.7877	3748.0302	3816.5471
CC1C(O)C1C#CCO	C[C@H]1[C@@H](O)[C@H]1C#CCO	
InChI=1S/C7H10O2/c1-5-6(7(5)9)3-2-4-8/h5-9H,4H2,1H3	InChI=1S/C7H10O2/c1-5-6(7(5)9)3-2-4-8/h5-9H,4H2,1H3/t5-,6+,7-/m1/s1
