16
gdb 48396	2.31801	1.67966	1.19344	1.8132	75.25	-0.2418	-0.0395	0.2023	1048.0297	0.122305	-400.665907	-400.6576	-400.656656	-400.698958	31.02	
O	-0.1269521456	 0.0716289211	-0.3207700033	-0.250853
C	 0.0180195518	 1.1934565299	 0.0889311743	 0.112354
C	 1.339038249	 1.9554830241	 0.0401884931	 0.026935
C	 2.5771784573	 1.2103793199	-0.5484857236	-0.216016
N	 2.7073177879	 2.1780361144	-1.6944593143	-0.118689
C	 1.4517748038	 2.0756332522	-2.4580782732	-0.250404
C	 1.4552151458	 2.8703255683	-1.2134506942	-0.078356
C	 1.5611862819	 2.6418808267	 1.2967570294	 0.231707
C	 1.7043637577	 3.1981020474	 2.3530850079	-0.4086
H	-0.8272828537	 1.7786161485	 0.5100069356	 0.097766
H	 3.4519828716	 1.2679405425	 0.0977855043	 0.133154
H	 2.3891336404	 0.1770583533	-0.8495293277	 0.134004
H	 1.4800048804	 2.6293591225	-3.3911573424	 0.129759
H	 0.929501506	 1.1234857963	-2.5004682894	 0.140379
H	 1.360849972	 3.9498797088	-1.1758446657	 0.113587
H	 1.8503053236	 3.6913581942	 3.2824866492	 0.203274
77.2659	128.0355	158.3291	192.5799	236.3621	355.9856	461.8577	478.5905	506.3546	531.6792	633.8993	643.7802	658.52	751.7198	787.4104	853.5482	915.851	930.6526	963.6017	1019.1316	1052.3079	1085.651	1114.4121	1123.3343	1163.8813	1196.0828	1217.0613	1229.513	1283.4187	1337.4069	1413.9093	1485.6182	1503.6525	1821.8727	2233.9618	2907.229	3077.0762	3117.5176	3150.7376	3176.1689	3210.2703	3499.2404
O=CC1(CN2CC12)C#C	O=C[C@]1(CN2C[C@@H]12)C#C	
InChI=1S/C7H7NO/c1-2-7(5-9)4-8-3-6(7)8/h1,5-6H,3-4H2	InChI=1S/C7H7NO/c1-2-7(5-9)4-8-3-6(7)8/h1,5-6H,3-4H2/t6-,7+,8?/m0/s1
