20
gdb 64297	2.26563	1.50589	1.13847	4.3954	86.87	-0.2584	-0.0382	0.2202	1162.8087	0.170961	-366.059185	-366.050073	-366.049129	-366.092714	34.559	
C	 0.2917812931	 1.4494270339	-0.1207947537	-0.425903
C	-0.0680578062	-0.0443378757	 0.0118677866	 0.181077
C	-1.5878057344	-0.2038749632	 0.1597077828	-0.439414
C	 0.5000966911	-0.8813977729	-1.1748593477	-0.25081
C	 1.8440742056	-1.4800564099	-0.6933013688	-0.263525
C	 1.7305491443	-1.4140625282	 0.8048139242	-0.17103
C	 0.7003159774	-0.651702239	 1.1921356324	 0.194894
C	 0.3594949044	-0.3563064117	 2.5406299519	 0.220679
N	 0.0454666631	-0.090760838	 3.6242736153	-0.35149
H	 1.365754755	 1.5878035098	-0.2812384008	 0.115869
H	-0.2405026622	 1.8961172994	-0.9673281862	 0.116951
H	 0.0133290314	 2.0026014732	 0.7819511878	 0.1325
H	-2.0991924244	 0.1752569071	-0.7314914317	 0.116534
H	-1.8650498878	-1.2547976106	 0.288860155	 0.117638
H	-1.9628170859	 0.3529566272	 1.0243341598	 0.134557
H	-0.1946159354	-1.6952914043	-1.4045394408	 0.107488
H	 0.6055202493	-0.2797481801	-2.0813291516	 0.103986
H	 2.008939711	-2.4998415113	-1.0575747402	 0.118107
H	 2.7104544394	-0.8942876573	-1.0313282686	 0.12253
H	 2.4260832513	-1.8982667583	 1.4805182443	 0.119362
79.4872	138.9672	153.1049	233.8836	247.9945	268.8649	325.0157	347.7849	364.1982	444.9414	513.6304	567.9955	641.3958	666.7521	712.2037	801.5354	868.6533	903.7384	929.8776	944.3145	967.8372	996.9596	1025.2799	1043.2071	1109.8378	1129.1381	1217.9403	1229.6802	1235.0914	1255.5798	1306.3781	1323.0026	1350.6426	1400.0063	1422.503	1475.9032	1482.809	1488.5825	1497.9935	1501.7721	1509.0207	1677.4466	2331.982	3012.9192	3028.2337	3032.2724	3050.3393	3064.9497	3098.9352	3099.8493	3103.2736	3106.1178	3108.1335	3205.2042
CC1(C)CCC=C1C#N	CC1(C)CCC=C1C#N	
InChI=1S/C8H11N/c1-8(2)5-3-4-7(8)6-9/h4H,3,5H2,1-2H3	InChI=1S/C8H11N/c1-8(2)5-3-4-7(8)6-9/h4H,3,5H2,1-2H3
