19
gdb 102525	2.11278	1.20625	0.84723	5.8322	71.96	-0.2591	0.0227	0.2818	1355.639	0.15818	-456.326584	-456.316062	-456.315118	-456.362291	37.463	
N	 0.042596055	 1.3603626819	 0.2977135431	-0.510944
C	-0.0682834798	-0.0648604726	-0.0313578748	-0.117785
C	-1.5062182104	-0.381277792	-0.0888575171	 0.310442
N	-2.6405970876	-0.5763170164	-0.1911917502	-0.338954
C	 0.6219222798	-0.5694161408	-1.3417074037	-0.049984
C	 1.9781379684	 0.1053641599	-1.5582754243	-0.101571
O	 2.5295774263	-0.417703898	-2.7556022124	-0.418076
C	 0.8079249656	-2.1011742744	-1.3163607639	-0.057054
O	-0.3103982171	-2.8164642624	-0.8252642691	-0.416471
H	 1.0102660495	 1.6099076276	 0.4685236025	 0.240484
H	-0.2947176128	 1.9351794318	-0.468404466	 0.241796
H	 0.355152287	-0.6230642218	 0.8129107875	 0.138092
H	-0.0177025392	-0.2964460038	-2.1919193924	 0.094075
H	 1.852439779	 1.1950296695	-1.6272756578	 0.084951
H	 2.6338132212	-0.0997544682	-0.6932507154	 0.087379
H	 3.3805145176	 0.0031315838	-2.9084415878	 0.293299
H	 1.1118739459	-2.4425975738	-2.3125429148	 0.119792
H	 1.6273268551	-2.3443317366	-0.6281322613	 0.106169
H	-1.0651882338	-2.6614281337	-1.4032046122	 0.294359
62.0979	94.0177	116.2362	159.2117	207.4571	228.8562	235.6457	268.1233	310.3533	342.7618	359.734	419.1787	437.1903	507.8868	588.3516	611.0252	800.8208	850.616	898.6285	934.8242	1036.783	1063.4021	1067.8217	1094.9913	1113.5848	1127.2456	1174.648	1218.5854	1237.7457	1264.7624	1311.4881	1339.6351	1367.7333	1387.6455	1400.7774	1424.2358	1460.5005	1505.3407	1527.3782	1653.3139	2359.734	2946.3827	3006.2311	3021.7331	3027.3853	3044.9198	3070.5701	3503.2881	3595.5573	3812.8223	3833.5512
NC(C#N)C(CO)CO	N[C@@H](C#N)C(CO)CO	
InChI=1S/C5H10N2O2/c6-1-5(7)4(2-8)3-9/h4-5,8-9H,2-3,7H2	InChI=1S/C5H10N2O2/c6-1-5(7)4(2-8)3-9/h4-5,8-9H,2-3,7H2/t5-/m0/s1
