16
gdb 28295	5.25607	1.30598	1.05288	3.1433	78.24	-0.1917	0.0289	0.2205	1102.55	0.127008	-396.984695	-396.977247	-396.976302	-397.016394	28.771	
C	 0.0014719604	 1.4703516792	 0.0633057104	-0.486373
C	 0.0141301645	-0.0212189221	-0.0212585675	 0.282008
C	-0.0965795966	-0.7936216384	-1.1583804578	-0.251434
N	-0.0291556483	-2.1066007951	-0.7077894517	 0.00664
C	-0.0503772538	-3.4440125791	-1.0874104628	-0.13878
C	 0.0821568066	-4.1745853889	 0.0528545653	-0.086411
N	 0.1847225948	-3.302972362	 1.1309572195	-0.415717
C	 0.1153489587	-2.0195361813	 0.6552586763	 0.489445
N	 0.1479155748	-0.7941787509	 1.1238551765	-0.453578
H	 0.9291217159	 1.8471668339	 0.5080627049	 0.129714
H	-0.1105047929	 1.9197213539	-0.9272571963	 0.113516
H	-0.8221667496	 1.8220208552	 0.6944284928	 0.129702
H	-0.2105773264	-0.5413897512	-2.1980605426	 0.121123
H	-0.1550010613	-3.7643195417	-2.108776874	 0.141588
H	 0.1117266253	-5.241974295	 0.1863435852	 0.141733
H	 0.2913123378	-3.5536399363	 2.0964314517	 0.276825
113.8725	145.5091	262.4376	279.1045	316.2698	354.4056	517.1053	573.3325	589.4757	644.3037	651.9542	676.2151	750.2121	763.6712	779.4136	843.1514	945.0066	987.2179	1014.7984	1061.435	1089.1261	1106.8263	1177.1724	1220.5427	1289.3146	1327.928	1361.6813	1404.2935	1436.6227	1460.1326	1473.7634	1488.6554	1571.2436	1597.0186	1661.5145	3031.5427	3084.5345	3114.07	3283.6357	3285.5229	3303.3812	3712.5151
CC1=CN2C=CNC2=N1	Cc1cn2cc[nH]c2n1	
InChI=1S/C6H7N3/c1-5-4-9-3-2-7-6(9)8-5/h2-4H,1H3,(H,7,8)	InChI=1S/C6H7N3/c1-5-4-9-3-2-7-6(9)8-5/h2-4H,1H3,(H,7,8)
