20
gdb 71572	3.24889	1.47506	1.45655	1.6355	78.34	-0.227	0.0792	0.3063	1026.3184	0.171465	-403.110681	-403.102889	-403.101945	-403.142293	31.912	
C	 0.0274404091	 1.4998377882	 0.0047646666	-0.502613
C	 0.0156258977	-0.0053661264	 0.0083365121	 0.288629
C	-1.3122058423	-0.7872687188	-0.1527628946	-0.286594
C	-0.7285423572	-2.102651608	 0.3989369659	 0.401627
C	-1.4541509366	-3.4103698287	 0.2866128033	-0.506881
O	-0.4194011931	-1.6910539522	 1.7745210932	-0.329095
C	 0.6239170987	-0.9197497271	 1.1868554393	 0.078014
C	 0.8145482916	-1.8599238055	-0.0018553256	-0.101515
N	 0.9553498236	-0.7240368941	-0.9133547686	-0.34551
H	 1.0454980864	 1.8792709624	 0.1317252326	 0.126166
H	-0.3650018563	 1.8992561459	-0.937915609	 0.116213
H	-0.5948932219	 1.8909265813	 0.8164131062	 0.122588
H	-2.1313958153	-0.4381705074	 0.4806497243	 0.105744
H	-1.6379669749	-0.8228484099	-1.1975305868	 0.086042
H	-1.6149146563	-3.6666573278	-0.7657081263	 0.119254
H	-0.8804523874	-4.215116694	 0.7556567915	 0.128316
H	-2.4318173332	-3.3577202608	 0.7776378659	 0.130531
H	 1.3813964001	-0.5282513297	 1.8627534766	 0.086968
H	 1.4950973897	-2.7089996926	-0.0600570544	 0.078136
H	 0.5819792576	-0.8698693547	-1.8519813625	 0.203978
191.6371	201.9835	210.2644	219.7921	308.8719	334.6076	468.1062	506.9669	535.7849	572.9321	655.7358	697.4652	743.7947	798.7162	827.8837	859.0995	874.2935	905.928	911.2452	955.9879	1005.0968	1019.3493	1040.2555	1058.4487	1101.8182	1113.1285	1148.2674	1172.8402	1182.3958	1194.2798	1240.06	1271.1722	1294.8755	1333.1069	1344.713	1357.672	1412.1979	1415.8047	1475.956	1478.8454	1485.7702	1493.286	1494.8213	3028.8057	3034.1692	3050.3507	3091.8654	3102.3149	3110.4907	3111.7491	3113.0159	3121.3255	3146.7097	3438.2675
CC12CC3(C)OC1C3N2	C[C@]12C[C@]3(C)O[C@H]1[C@@H]3N2	
InChI=1S/C7H11NO/c1-6-3-7(2)4(8-6)5(6)9-7/h4-5,8H,3H2,1-2H3	InChI=1S/C7H11NO/c1-6-3-7(2)4(8-6)5(6)9-7/h4-5,8H,3H2,1-2H3/t4-,5-,6-,7-/m0/s1
