17
gdb 87102	2.44467	1.36046	1.00077	2.5516	76.59	-0.2591	-0.064	0.1951	1212.7187	0.131293	-421.792142	-421.782206	-421.781262	-421.82728	35.249	
C	 0.2515888171	 0.9425377268	-0.5420308089	-0.425487
C	 0.5849985678	-0.3381244516	 0.1787066489	 0.02091
O	 1.8700042736	-0.4631048539	 0.7800195609	-0.279291
C	 0.7309387279	-0.4520391643	 1.655659597	 0.26547
C	 0.5790374171	 0.7120745082	 2.6037536573	-0.467901
C	 0.4085121535	-1.7966906441	 2.2684924392	 0.191651
O	-0.1976480502	-1.8897627638	 3.3148831964	-0.293236
C	 0.8604651537	-2.9745727761	 1.5457376128	 0.266431
C	 1.204102385	-3.9820076806	 0.9839872363	-0.408219
H	 0.6018767043	 1.8236678382	-0.00303554	 0.133782
H	 0.7219312999	 0.9404015429	-1.5308754353	 0.137314
H	-0.8307289833	 1.0233303291	-0.6870880975	 0.131393
H	 0.2702592561	-1.2427839551	-0.3447438544	 0.102055
H	 0.8568330999	 1.6499285072	 2.1229925217	 0.12613
H	-0.4513448353	 0.7776083254	 2.9614520944	 0.143319
H	 1.2203053702	 0.568376017	 3.4779978396	 0.140804
H	 1.5141264327	-4.8714584053	 0.4911501218	 0.214877
51.5653	108.978	130.394	146.3871	156.9943	243.3448	257.1073	298.0834	352.6021	397.011	461.7261	489.3652	600.2717	650.9647	674.5177	708.3038	730.5656	798.3419	850.3025	915.2236	999.2868	1052.2033	1086.9255	1098.9093	1135.8039	1188.9066	1286.8942	1344.2609	1405.3508	1415.5902	1446.8902	1471.9647	1482.2425	1491.2268	1509.6227	1756.6053	2212.8761	3043.8689	3059.9801	3095.1042	3104.449	3124.1758	3144.0256	3157.7748	3493.8643
CC1OC1(C)C(=O)C#C	C[C@H]1O[C@]1(C)C(=O)C#C	
InChI=1S/C7H8O2/c1-4-6(8)7(3)5(2)9-7/h1,5H,2-3H3	InChI=1S/C7H8O2/c1-4-6(8)7(3)5(2)9-7/h1,5H,2-3H3/t5-,7+/m1/s1
