18
gdb 16811	3.53684	1.849	1.386	3.2471	71.48	-0.2339	-0.0072	0.2266	923.8011	0.154892	-347.8331	-347.82584	-347.824896	-347.864392	28.467	
C	 0.0522257229	 1.5939348689	 0.0032758221	-0.396781
C	 0.019527676	 0.0649163888	 0.0315355416	 0.018001
C	 0.6599791256	-0.6182129034	-1.1982631574	-0.357806
C	 1.2198606088	-1.9544163128	-0.68223487	 0.417622
O	 1.3762885004	-2.9536822284	-1.3392696621	-0.332729
C	 1.4591138919	-1.8173368551	 0.7869933314	-0.148114
C	 2.2345464553	-0.5725572601	 1.2085431964	-0.289959
C	 0.7421203373	-0.5530047583	 1.2358626009	-0.03605
H	 1.0825106615	 1.9642384776	-0.0358181653	 0.115769
H	-0.478250906	 1.9845619806	-0.8712468642	 0.117286
H	-0.4200321521	 2.0159879685	 0.896767089	 0.114614
H	-1.0278460883	-0.2586271071	 0.0864099599	 0.084181
H	-0.0358613964	-0.7941424176	-2.0205862717	 0.1273
H	 1.4872421061	-0.0222477998	-1.6053392846	 0.123505
H	 1.5375814499	-2.7164148714	 1.3846013699	 0.104491
H	 2.7560463462	-0.6482332572	 2.1559090726	 0.124851
H	 2.7729879374	-0.0101487792	 0.4528057632	 0.121126
H	 0.2447766137	-0.5229362638	 2.1991986085	 0.092694
110.3774	182.2525	236.207	260.9975	343.2086	460.2231	473.2995	532.4677	568.4778	659.3162	762.1146	794.4483	836.4087	889.7063	895.6978	941.4376	944.8549	979.5977	1036.6954	1054.9964	1073.0179	1104.2207	1114.2517	1144.0514	1191.7637	1199.1324	1212.3792	1262.3333	1318.8844	1334.8261	1366.3952	1383.854	1411.6376	1462.1567	1493.1041	1496.8791	1500.3511	1833.6463	3019.5278	3028.954	3036.5805	3098.0182	3100.3328	3116.8742	3134.4305	3168.7761	3200.7832	3219.5966
CC1CC(=O)C2CC12	C[C@H]1CC(=O)[C@H]2C[C@@H]12	
InChI=1S/C7H10O/c1-4-2-7(8)6-3-5(4)6/h4-6H,2-3H2,1H3	InChI=1S/C7H10O/c1-4-2-7(8)6-3-5(4)6/h4-6H,2-3H2,1H3/t4-,5-,6-/m0/s1
