19
gdb 75446	2.68205	1.22437	0.86911	2.6875	78.65	-0.243	-0.0279	0.2152	1321.0469	0.157881	-423.046332	-423.037375	-423.036431	-423.080438	32.761	
C	 0.3288984705	 1.4733092435	 0.1934020967	-0.47778
C	 0.0972957489	-0.0004439493	 0.0139110026	 0.298401
C	-0.0807468012	-0.5721466144	-1.1778610514	-0.159324
C	-0.3551971391	-2.0399214735	-1.3527586028	-0.121956
O	-0.6561162267	-2.7026325861	-0.1360765843	-0.267342
C	 0.2089748931	-2.3272335576	 0.9169042767	 0.019717
C	 0.0657493685	-0.8445647123	 1.2674966049	-0.294693
C	-0.0916844578	-3.2582038108	 2.080257897	 0.139455
O	 0.1553541111	-3.0007330313	 3.2291892885	-0.248087
H	 1.2943287103	 1.6664313475	 0.6783335127	 0.125723
H	 0.3123853024	 2.0049627359	-0.761729718	 0.121685
H	-0.4377196796	 1.9152316838	 0.8429806912	 0.12801
H	-0.0354095941	 0.0181882171	-2.0900637254	 0.085884
H	-1.2260331956	-2.1944282773	-2.0007734435	 0.12103
H	 0.5015390969	-2.5313735667	-1.8504766389	 0.098568
H	 1.2600513011	-2.5237729142	 0.6262910659	 0.093795
H	 0.8710213193	-0.5565914527	 1.95265623	 0.120539
H	-0.8701153447	-0.6798520731	 1.8181970883	 0.121047
H	-0.5569963334	-4.2191688085	 1.7690666299	 0.095328
63.6091	112.3177	163.7507	173.4341	199.3811	265.7426	333.2407	393.9508	437.5273	446.3975	500.7114	609.6074	702.4134	797.0992	845.689	868.9398	898.4417	949.9912	1025.0253	1031.2937	1044.5308	1059.3145	1093.0802	1118.6704	1160.7542	1183.8337	1223.9804	1258.953	1297.0979	1341.539	1348.4247	1381.8251	1395.4623	1407.7095	1415.465	1469.7685	1478.505	1490.6408	1492.291	1746.5495	1838.4897	2900.834	2913.8986	2932.0742	3015.4147	3024.2358	3050.6864	3062.6283	3068.7613	3111.5786	3155.9982
CC1=CCOC(C1)C=O	CC1=CCO[C@@H](C1)C=O	
InChI=1S/C7H10O2/c1-6-2-3-9-7(4-6)5-8/h2,5,7H,3-4H2,1H3	InChI=1S/C7H10O2/c1-6-2-3-9-7(4-6)5-8/h2,5,7H,3-4H2,1H3/t7-/m0/s1
