15
gdb 91733	2.68159	1.71685	1.53914	2.5252	58.92	-0.2736	-0.0083	0.2652	900.3003	0.114554	-494.936184	-494.929469	-494.928525	-494.967335	26.606	
O	 0.1132195968	 1.4070333337	 0.1106066863	-0.434602
C	 0.0090322329	 0.011478759	 0.017429773	 0.125872
C	-1.4406723925	-0.5679988603	-0.1211642633	-0.281294
C	-1.3178026402	-1.3288527857	-1.4657205416	-0.094573
O	 0.0333200545	-1.8308667474	-1.4125919508	-0.238659
C	 0.6415969689	-0.5773638938	-1.2697710098	 0.146527
O	 0.1163824435	 0.2098287076	-2.3737179575	-0.26308
C	-1.1691172887	-0.2576119533	-2.5485882234	 0.456359
O	-1.9352996858	 0.176529159	-3.3506861343	-0.328422
H	-0.0671917698	 1.7738508424	-0.7642439881	 0.296787
H	 0.5110418382	-0.3979730453	 0.8966437129	 0.110346
H	-1.6794721098	-1.266897482	 0.6819693476	 0.127046
H	-2.1897289519	 0.2260148024	-0.1348875459	 0.136007
H	-2.0313640314	-2.1179759394	-1.6828708522	 0.123055
H	 1.7248216454	-0.6273669868	-1.3478308228	 0.118628
113.8491	204.7409	288.8358	405.9335	420.3063	458.5212	523.4787	553.4029	622.2477	729.6067	766.7596	807.6097	846.4794	867.9015	896.2331	930.1942	956.5483	998.9424	1054.3402	1083.5539	1087.6043	1148.0964	1166.6673	1215.3762	1255.601	1287.489	1299.4236	1319.9016	1339.3141	1353.0992	1439.729	1482.7616	1917.0232	3082.0058	3094.8158	3138.6478	3167.5979	3179.3317	3779.3826
OC1CC2OC1OC2=O	O[C@H]1C[C@@H]2O[C@H]1OC2=O	
InChI=1S/C5H6O4/c6-2-1-3-4(7)9-5(2)8-3/h2-3,5-6H,1H2	InChI=1S/C5H6O4/c6-2-1-3-4(7)9-5(2)8-3/h2-3,5-6H,1H2/t2-,3-,5-/m0/s1
