17
gdb 94097	4.57365	0.97731	0.85177	2.2112	74.02	-0.2386	-0.0111	0.2276	1346.3993	0.13666	-455.192209	-455.183489	-455.182545	-455.226962	30.651	
C	 0.1077161572	 1.5625258085	 0.0519007892	-0.385534
C	-0.0064663029	 0.0391511662	 0.0290558057	 0.028012
C	 0.6730707806	-0.6203472388	-1.206835322	-0.117869
O	 1.6008949634	-1.5784716392	-0.6423927048	-0.226836
C	 1.5019712545	-1.4127332774	 0.6888383212	 0.532999
N	 2.3272080638	-2.1938339651	 1.4802835744	-0.394648
C	 3.2784290684	-3.1301591212	 1.1162221402	 0.155894
O	 3.5805808263	-3.4574118082	 4.3757*^-6	-0.272734
N	 0.6775589184	-0.5752617267	 1.1791117081	-0.376521
H	 1.1577692486	 1.8704901027	 0.0123517101	 0.119332
H	-0.4153738411	 2.0050604666	-0.802767743	 0.113188
H	-0.3304595435	 1.9628877027	 0.9697257906	 0.130907
H	-1.0690620028	-0.2323982471	 0.0711865315	 0.088068
H	-0.0155934947	-1.1631787115	-1.8579603122	 0.125196
H	 1.2485715988	 0.0918300968	-1.8066400374	 0.120249
H	 2.1915925547	-2.0278941982	 2.4667308081	 0.27319
H	 3.7447167603	-3.5572659498	 2.0262887247	 0.087108
41.3267	53.3155	153.5838	161.5351	241.8948	271.2354	315.3123	387.6041	463.811	617.5467	633.4266	694.8452	736.1106	836.7529	870.2197	927.997	939.4424	961.6106	1025.5108	1027.3562	1100.4858	1114.9807	1140.1902	1161.3507	1228.722	1305.0877	1337.0462	1377.9567	1403.6916	1419.9188	1461.0867	1487.9339	1489.344	1497.0912	1523.1403	1731.7532	1843.0597	2938.0488	3014.4785	3034.1071	3053.1846	3104.1895	3109.7433	3122.8469	3626.9648
CC1COC(NC=O)=N1	C[C@H]1COC(=N1)NC=O	
InChI=1S/C5H8N2O2/c1-4-2-9-5(7-4)6-3-8/h3-4H,2H2,1H3,(H,6,7,8)	InChI=1S/C5H8N2O2/c1-4-2-9-5(7-4)6-3-8/h3-4H,2H2,1H3,(H,6,7,8)/t4-/m0/s1
