22
gdb 112261	2.45063	1.10978	0.82716	3.7041	83.65	-0.2407	0.0377	0.2784	1471.6749	0.193283	-404.386584	-404.37633	-404.375386	-404.422303	37.053	
C	-0.0661655377	 1.6556140755	-0.2031610486	-0.390991
C	 0.0205851399	 0.157417883	 0.1070470529	-0.176887
C	-1.3418924999	-0.5266582607	 0.0872915348	 0.04043
N	-1.9679758728	-0.6548888638	-1.239007028	-0.337963
C	-2.0850227057	-2.02271677	-1.2182108159	 0.441226
O	-2.534311541	-2.8158118571	-2.0049762896	-0.372942
C	-1.4183037657	-2.0939595992	 0.178846267	-0.174609
C	-0.1458137325	-2.9323660371	 0.2852565132	-0.193138
C	-0.453160136	-4.4333659688	 0.2135878361	-0.391195
H	 0.9204028777	 2.1260574176	-0.1598257837	 0.120551
H	-0.4689960772	 1.830237378	-1.2069203031	 0.114419
H	-0.7150859145	 2.1733580591	 0.5120458626	 0.11727
H	 0.6852536256	-0.3305416951	-0.6138114823	 0.104418
H	 0.4647376002	 0.0120923284	 1.0998463236	 0.103009
H	-2.0058690123	-0.0369299882	 0.8125881874	 0.078112
H	-2.3420998435	 0.029847023	-1.8796200842	 0.246057
H	-2.1414991714	-2.4167545513	 0.9355894824	 0.096475
H	 0.5453837738	-2.6644256054	-0.5220314284	 0.104812
H	 0.3688415168	-2.6991350605	 1.2259592372	 0.097026
H	 0.467095112	-5.0242947028	 0.2452075266	 0.109022
H	-1.0813740152	-4.7464372305	 1.0549375808	 0.112107
H	-0.9887374006	-4.6724357439	-0.7091766907	 0.152791
66.646	82.8225	103.8827	132.1239	163.5447	225.2134	248.2719	277.4889	311.3954	392.1862	430.5907	489.5791	540.6784	698.5228	738.9082	775.6052	804.8292	818.0284	886.6035	929.466	961.6811	994.4949	1056.2218	1058.5042	1097.8214	1098.701	1146.6928	1167.787	1186.5701	1205.8397	1261.7297	1286.7322	1299.0274	1334.7144	1346.9076	1380.1731	1383.936	1409.3977	1412.5721	1416.0363	1475.3247	1491.1595	1497.6602	1500.6764	1505.5224	1511.6412	1879.4006	3006.6488	3022.5314	3030.2415	3032.3921	3035.4337	3051.259	3065.3023	3074.8367	3099.8127	3102.5453	3107.7684	3124.1228	3605.3686
CCC1NC(=O)C1CC	CC[C@H]1NC(=O)[C@H]1CC	
InChI=1S/C7H13NO/c1-3-5-6(4-2)8-7(5)9/h5-6H,3-4H2,1-2H3,(H,8,9)	InChI=1S/C7H13NO/c1-3-5-6(4-2)8-7(5)9/h5-6H,3-4H2,1-2H3,(H,8,9)/t5-,6+/m0/s1
