23
gdb 122515	4.30112	0.58409	0.56363	0.9542	84.44	-0.2529	0.0928	0.3457	2093.2436	0.203226	-425.401083	-425.390138	-425.389194	-425.438648	38.052	
C	-0.053295452	 1.2659122785	-0.7891474756	-0.37501
C	-0.002815782	 0.1668892831	 0.279921938	-0.212975
C	-1.3336188332	-0.531544496	 0.4242578875	 0.076192
O	-1.7169046919	-1.4433616049	-0.6144120987	-0.268531
C	-1.5270812551	-1.9632413888	 0.7104830509	 0.04991
C	-0.422464637	-2.9717213959	 0.9087926725	-0.246621
C	-0.7798236471	-4.3209675115	 0.2920537623	-0.04208
O	 0.2759800697	-5.2198974445	 0.5499164495	-0.232388
C	 0.0583250297	-6.4931561401	-0.0070663154	-0.228869
H	 0.9139611327	 1.7676686427	-0.8849221542	 0.113565
H	-0.3165265555	 0.8413716897	-1.7624635056	 0.134428
H	-0.8022409781	 2.0262159622	-0.5417208586	 0.114878
H	 0.7753251917	-0.5582849541	 0.0260994662	 0.10773
H	 0.2681079021	 0.6007640703	 1.2514251435	 0.100712
H	-2.1468961557	 0.1334321524	 0.7293020335	 0.082656
H	-2.4665341063	-2.2343597312	 1.2003639355	 0.084786
H	 0.5132600769	-2.6229950489	 0.4655168059	 0.11464
H	-0.2460721775	-3.1087417257	 1.9827792202	 0.109504
H	-1.7242224197	-4.7028726368	 0.7192640611	 0.081265
H	-0.9388572495	-4.2054398673	-0.7925281927	 0.103966
H	 0.9245661373	-7.1119895498	 0.2399106851	 0.125606
H	-0.846867718	-6.9704951489	 0.4018631571	 0.102048
H	-0.0459760115	-6.4486868947	-1.102934778	 0.104588
39.7867	70.0793	82.0873	105.8663	118.8914	184.0079	219.1439	233.4353	267.8282	293.579	420.442	458.8886	491.7497	571.8799	742.8833	793.3982	823.7024	834.749	940.7324	968.3597	996.4154	1036.5971	1050.1845	1071.2463	1119.8298	1129.1385	1162.9994	1174.7036	1184.8855	1190.8223	1228.1461	1241.9772	1288.8499	1299.7619	1312.9679	1314.3787	1346.5587	1408.182	1417.9862	1426.0114	1468.8671	1480.4673	1481.4802	1484.9633	1497.3087	1499.0375	1504.8183	1509.9251	1533.3572	2944.9661	2968.4475	2988.5383	3010.538	3028.3267	3036.3534	3042.4836	3057.817	3071.9333	3086.199	3105.4812	3111.9549	3112.4651	3117.2369
CCC1OC1CCOC	CC[C@H]1O[C@H]1CCOC	
InChI=1S/C7H14O2/c1-3-6-7(9-6)4-5-8-2/h6-7H,3-5H2,1-2H3	InChI=1S/C7H14O2/c1-3-6-7(9-6)4-5-8-2/h6-7H,3-5H2,1-2H3/t6-,7+/m1/s1
