19
gdb 59251	2.87504	1.48463	1.33143	1.7551	75.17	-0.2173	0.0201	0.2374	1052.7651	0.159736	-419.180592	-419.172257	-419.171313	-419.213601	31.306	
C	 0.0620819929	 1.2317038172	-0.2912805946	-0.319392
N	 0.021838864	-0.1479979405	 0.1644397587	-0.029882
C	 0.7234961993	-0.3705562268	 1.4184301994	-0.321359
C	-1.28763932	-0.7018286532	 0.1504730385	-0.036216
C	-1.8802792646	-1.1888933082	-1.1458248865	 0.014005
O	-0.9579141769	-1.4258408761	-2.1955484747	-0.204758
C	-0.1354888785	-2.4054934604	-1.734369533	 0.113778
N	-0.3810254313	-2.9357656047	-0.6049904352	-0.256181
C	-1.4955842822	-2.1983796989	-0.0649456966	-0.076709
H	 1.1032821729	 1.5598255191	-0.3745574418	 0.117963
H	-0.3993037212	 1.3036407076	-1.2799455157	 0.129045
H	-0.4596850908	 1.9327972291	 0.3872558542	 0.089905
H	 0.2620809176	 0.1542088734	 2.2759646511	 0.088945
H	 0.7431107997	-1.4414286412	 1.636687978	 0.140429
H	 1.7562680717	-0.0190842957	 1.3269871629	 0.116499
H	-2.0356150518	-0.2658394877	 0.8246139515	 0.07622
H	-2.8667189801	-0.9171496015	-1.4981842888	 0.112731
H	 0.6694254681	-2.6736879292	-2.4065301439	 0.142545
H	-2.1869418588	-2.7415067423	 0.5673725665	 0.102433
75.6607	131.9503	165.7742	230.1883	241.2534	316.1439	341.4668	375.1914	486.7315	632.977	664.531	743.5018	770.6699	825.7469	873.4244	895.748	937.1925	969.2299	1023.0324	1038.2421	1068.5835	1075.6172	1089.1578	1112.7842	1123.9559	1131.8159	1171.9926	1195.651	1262.7302	1287.7064	1319.5912	1335.0687	1359.2406	1408.2916	1440.9212	1475.2266	1481.936	1497.1337	1499.3893	1515.3727	1666.5287	2926.9202	2935.1717	3014.8948	3062.1708	3065.4431	3112.517	3117.7024	3185.7171	3199.5787	3238.4182
CN(C)C1C2OC=NC12	CN(C)[C@H]1[C@H]2OC=N[C@@H]12	
InChI=1S/C6H10N2O/c1-8(2)5-4-6(5)9-3-7-4/h3-6H,1-2H3	InChI=1S/C6H10N2O/c1-8(2)5-4-6(5)9-3-7-4/h3-6H,1-2H3/t4-,5+,6-/m0/s1
