19
gdb 74220	2.26168	1.52135	0.96988	5.3326	80.26	-0.2538	-0.0345	0.2194	1227.1777	0.160135	-423.075765	-423.067243	-423.066299	-423.109088	32.002	
C	-0.5776022951	 1.3284957911	 0.0909398615	-0.460302
C	 0.0721510243	-0.0339698127	 0.0837970558	 0.269366
C	-0.008182417	-0.7890921703	-1.0236495862	-0.253138
C	 0.564832859	-2.102037131	-1.4213933923	 0.384872
O	 0.6922065602	-2.3668421503	-2.5921691414	-0.337779
O	 0.9395736288	-3.0384329529	-0.5164445169	-0.22852
C	 0.7417810637	-2.8682383985	 0.8867881921	-0.072236
C	 1.5264902766	-1.6884924598	 1.4524485372	-0.233369
C	 0.7523280747	-0.3733870369	 1.3844267368	-0.282855
H	 0.173921216	 2.1150137852	 0.2339628401	 0.134343
H	-1.1142234394	 1.5319544144	-0.8375999001	 0.133437
H	-1.2831841758	 1.41840417	 0.9263601664	 0.129912
H	-0.5162221883	-0.3605102595	-1.8826204234	 0.111719
H	-0.3296205575	-2.7748727426	 1.1088750996	 0.110707
H	 1.092271845	-3.8100333966	 1.3148357574	 0.124051
H	 1.7831891413	-1.8911861975	 2.4980822301	 0.107603
H	 2.4725290489	-1.6194191903	 0.9041893717	 0.125401
H	 1.4125042581	 0.4615811744	 1.6564688543	 0.118036
H	-0.0270093734	-0.3727364463	 2.1621307475	 0.118752
80.2945	139.2536	146.7291	209.4982	283.3225	302.1044	364.9875	408.223	443.6651	505.6165	544.4565	653.8506	705.2391	789.9885	840.6343	873.2189	904.1629	919.5563	977.1035	1041.8533	1044.4011	1077.3469	1107.8322	1128.2541	1139.1681	1218.7931	1264.4777	1284.2262	1313.3476	1355.1377	1384.3604	1409.1167	1416.1108	1424.6215	1463.5121	1480.1239	1480.9983	1487.9502	1505.8863	1703.9388	1795.7533	2994.2051	3022.5785	3022.8623	3028.1678	3044.1381	3070.9254	3084.6966	3103.821	3129.416	3171.1352
CC1=CC(=O)OCCC1	CC1=CC(=O)OCCC1	
InChI=1S/C7H10O2/c1-6-3-2-4-9-7(8)5-6/h5H,2-4H2,1H3	InChI=1S/C7H10O2/c1-6-3-2-4-9-7(8)5-6/h5H,2-4H2,1H3
