15
gdb 77782	2.61155	1.45226	1.09993	4.133	74.16	-0.2613	-0.017	0.2443	1101.1922	0.110327	-420.591295	-420.58307	-420.582126	-420.624069	30.837	
C	 0.0509897013	 1.5967791673	 0.0236047644	-0.424617
C	 0.0742573492	 0.0860186183	 0.0346572174	-0.075403
C	 1.3084614734	-0.7744205926	-0.2723251007	-0.343624
C	 2.5006413829	-0.1688887769	 0.4160934801	 0.461429
O	 3.6201211948	 0.1230135254	 0.1547081765	-0.318452
O	 1.8664480475	-0.0486745186	 1.6491147151	-0.289235
C	 0.686972043	-0.7397322039	 1.1239560321	 0.262791
C	 0.0795307181	-1.7448100743	 1.9155679618	 0.233045
C	-0.456418773	-2.5865583959	 2.5861367954	-0.388516
H	 0.9208224603	 2.0153775805	 0.5331616852	 0.153288
H	 0.0364486158	 1.9710425348	-1.0043846524	 0.132988
H	-0.8468419518	 1.9629057273	 0.5310659444	 0.133894
H	-0.8187245005	-0.3862154575	-0.3711553191	 0.119527
H	 1.3213015993	-1.5551631967	-1.0187625226	 0.138594
H	-0.9219176503	-3.3330161471	 3.1817016524	 0.204291
107.7469	150.1119	154.3761	181.0826	269.1384	351.7325	440.5846	494.1287	508.343	523.2367	596.122	634.7604	699.1872	708.6366	746.0152	827.1585	898.6714	908.0488	932.0832	992.7989	1035.1493	1081.8399	1104.0867	1130.717	1198.4834	1229.2548	1313.5964	1413.1886	1451.9503	1489.3052	1501.0932	1948.2652	2242.8348	3047.1035	3110.3673	3130.4626	3145.4341	3231.7362	3499.2606
CC1C2C(=O)OC12C#C	C[C@H]1[C@H]2C(=O)O[C@@]12C#C	
InChI=1S/C7H6O2/c1-3-7-4(2)5(7)6(8)9-7/h1,4-5H,2H3	InChI=1S/C7H6O2/c1-3-7-4(2)5(7)6(8)9-7/h1,4-5H,2H3/t4-,5-,7-/m0/s1
