19
gdb 104270	2.24608	1.3162	1.08892	2.127	77.57	-0.2504	0.0462	0.2966	1200.3769	0.157071	-422.977928	-422.968402	-422.967458	-423.011931	36.207	
O	-0.1557679674	 1.4587007671	-0.2232966439	-0.438636
C	-0.0799172526	 0.0461086911	-0.4163660233	-0.14767
C	-1.4284481215	-0.5077817063	 0.0267793076	 0.423412
O	-1.6867355825	-0.1178896296	 1.3510341453	-0.488499
C	-2.5677056011	-0.2863915903	-1.0160996295	-0.286047
C	-2.35870424	-1.7384710355	-1.5161380202	-0.241083
C	-1.5851864104	-2.0482680142	-0.1930949009	-0.207279
C	-0.4136649185	-2.8986843923	-0.2327356698	 0.311335
C	 0.5689202774	-3.5911688061	-0.2896175256	-0.463309
H	 0.7337235028	 1.820415341	-0.2594517483	 0.295731
H	 0.1237205603	-0.2042795704	-1.4667311791	 0.097552
H	 0.7096814422	-0.3991298818	 0.2027773356	 0.109366
H	-1.3710839898	 0.7932569033	 1.4228140547	 0.284134
H	-3.5209563275	-0.1621110432	-0.49751435	 0.110277
H	-2.4363609021	 0.5273922026	-1.7315397629	 0.1075
H	-3.2465158247	-2.3428804921	-1.7071529165	 0.109273
H	-1.7004314646	-1.7970311121	-2.3854195398	 0.112563
H	-2.28495335	-2.4020941265	 0.5709340632	 0.118379
H	 1.4285726801	-4.2129177946	-0.3310500565	 0.193001
97.294	111.6882	130.5083	190.1573	247.1925	262.9601	323.4977	351.7348	396.3442	439.0166	478.0233	516.5091	588.3934	614.3369	628.8856	652.7597	740.8975	797.9141	878.7163	925.8897	954.3857	975.2114	1036.6024	1060.5229	1076.7199	1090.6041	1150.4885	1168.7189	1209.7885	1228.3524	1245.3891	1247.3465	1274.0596	1307.7382	1354.8316	1395.8508	1451.8652	1483.4509	1498.6434	1506.8074	2228.5301	3002.9857	3048.9474	3059.436	3072.6654	3077.7626	3123.3108	3138.6376	3503.3846	3755.4947	3844.798
OCC1(O)CCC1C#C	OC[C@@]1(O)CC[C@H]1C#C	
InChI=1S/C7H10O2/c1-2-6-3-4-7(6,9)5-8/h1,6,8-9H,3-5H2	InChI=1S/C7H10O2/c1-2-6-3-4-7(6,9)5-8/h1,6,8-9H,3-5H2/t6-,7+/m1/s1
