21
gdb 81686	3.39988	1.26825	1.22026	1.3335	78.29	-0.2401	0.0917	0.3318	1154.7557	0.183039	-424.214753	-424.206448	-424.205504	-424.247096	33.097	
C	-0.2147503011	 1.4612428147	-0.0292297837	-0.432205
C	-0.0054724371	-0.0475810194	 0.0027844796	 0.020224
C	 1.1930095691	-0.6160659764	-0.820472534	 0.1114
C	 2.0901770616	-0.3740218699	 0.4247892587	-0.29919
C	 0.7799794922	-0.6300302434	 1.2197921601	 0.111408
O	 0.4994650388	-2.028396109	 1.2954202784	-0.295962
C	 1.029631911	-2.7521389575	 0.1938263567	 0.230751
C	 0.2388363364	-4.0311182198	 0.0250612498	-0.4011
O	 0.9676570791	-2.0125657031	-1.0175995709	-0.295955
H	 0.7045129077	 2.0241992541	 0.1607801088	 0.115351
H	-0.596311456	 1.7774833165	-1.0061348381	 0.121611
H	-0.9471275008	 1.7655805053	 0.7263773787	 0.121612
H	-0.9442562851	-0.5730916328	-0.1908725451	 0.076417
H	 1.4549930577	-0.1889327115	-1.7908740283	 0.0746
H	 2.9558701458	-1.0151972777	 0.5956520565	 0.108801
H	 2.4002642892	 0.6687033856	 0.4946944273	 0.110232
H	 0.642784131	-0.2163657775	 2.2211997064	 0.0746
H	 2.0862880692	-2.9833082015	 0.4061142724	 0.068648
H	-0.8065585999	-3.7938550236	-0.1858785153	 0.128659
H	 0.6484277679	-4.6137536283	-0.8037446157	 0.125033
H	 0.2939516633	-4.6245904251	 0.9409767478	 0.125064
128.2516	181.7519	211.5183	239.3657	281.4992	306.7879	338.3922	440.7388	470.6246	503.3283	532.9223	637.5173	804.2215	830.2874	838.3559	853.8501	868.2773	899.7202	948.1727	956.0255	1027.2397	1058.7085	1061.4171	1092.7671	1117.5417	1130.3858	1131.4603	1157.3685	1175.5377	1186.9774	1232.9856	1261.6093	1280.1085	1324.9109	1346.6428	1384.5997	1390.814	1396.6261	1415.8957	1427.8988	1481.5583	1487.5206	1491.101	1499.1177	1506.8902	2959.244	3031.9868	3054.9073	3072.6861	3083.3981	3087.0231	3094.168	3096.9765	3105.5845	3136.1818	3138.8942	3144.6504
CC1C2CC1OC(C)O2	C[C@H]1[C@H]2C[C@@H]1O[C@@H](C)O2	
InChI=1S/C7H12O2/c1-4-6-3-7(4)9-5(2)8-6/h4-7H,3H2,1-2H3	InChI=1S/C7H12O2/c1-4-6-3-7(4)9-5(2)8-6/h4-7H,3H2,1-2H3/t4-,5-,6+,7-
