19
gdb 61871	2.43538	0.93291	0.76965	2.875	73.44	-0.2524	-0.0268	0.2256	1522.9564	0.154802	-460.217684	-460.207002	-460.206058	-460.255183	36.114	
C	-0.0654270092	 1.5476356375	-0.0819500391	-0.408026
C	 0.0393333737	 0.0270235975	-0.0792528004	 0.117795
C	 0.7455520897	-0.5169442307	 1.1659174521	-0.287636
C	 0.9738728538	-2.0141300036	 1.1266135583	 0.155157
O	 2.0037837987	-2.5505236001	 1.4448704303	-0.237071
O	-1.2859222183	-0.563660527	-0.0736825811	-0.258697
C	-1.9103425088	-0.6834298039	-1.2699552404	 0.431926
C	-3.2650969248	-1.325632149	-1.0964305106	-0.479106
O	-1.4313984002	-0.326305074	-2.3157868787	-0.348937
H	 0.9335873742	 1.9936606853	-0.0679543671	 0.126494
H	-0.5798452133	 1.887096305	-0.9831751767	 0.147023
H	-0.6135336684	 1.8985540295	 0.7980917021	 0.123237
H	 0.5463117539	-0.305131553	-0.9902133383	 0.119263
H	 1.7102241771	-0.0229457004	 1.3087450946	 0.127651
H	 0.1187734646	-0.2959269072	 2.0415217489	 0.132147
H	 0.0985569929	-2.6076537234	 0.7828663255	 0.084482
H	-3.8663103243	-0.7512089014	-0.3864134982	 0.15081
H	-3.7687938509	-1.3750089519	-2.060848753	 0.151552
H	-3.1510424504	-2.3328718193	-0.685106388	 0.151937
46.4979	59.8064	72.85	83.3845	121.8419	194.7699	198.02	239.8231	330.0464	367.1109	432.0528	475.3254	513.7235	612.5914	640.315	777.2623	835.0231	931.7571	953.4786	968.7289	1008.9199	1037.5782	1064.7044	1115.698	1137.4468	1160.2452	1243.8812	1257.4886	1295.7382	1366.9242	1387.2978	1399.1503	1407.6613	1426.7912	1445.51	1468.8397	1476.6135	1486.1891	1501.6334	1823.5117	1834.3012	2895.6974	3022.2423	3044.4229	3057.6293	3072.5555	3107.1152	3118.1743	3122.5865	3138.4437	3170.806
CC(CC=O)OC(C)=O	C[C@@H](CC=O)OC(=O)C	
InChI=1S/C6H10O3/c1-5(3-4-7)9-6(2)8/h4-5H,3H2,1-2H3	InChI=1S/C6H10O3/c1-5(3-4-7)9-6(2)8/h4-5H,3H2,1-2H3/t5-/m0/s1
