14
gdb 26568	2.40522	1.87986	1.05664	4.6165	69.57	-0.1967	-0.0283	0.1684	1036.9589	0.101688	-473.870283	-473.862435	-473.861491	-473.90234	29.843	
N	 0.0019837863	 1.4234334438	 0.1662300598	-0.591059
C	-0.027336992	 0.0361494496	 0.0645596372	 0.008237
C	-1.1673711022	-0.6955889	 0.0364528858	 0.395413
O	-2.394917414	-0.1398219876	 0.0338787721	-0.417691
O	-1.2008510896	-2.0482877196	-0.0041326659	-0.224785
C	-0.026827419	-2.7267770509	-0.0153360089	 0.049806
C	 1.1648339635	-2.1108734961	-0.0023757596	-0.260537
C	 1.262195875	-0.6542129519	 0.0218795387	 0.356779
O	 2.3193865923	-0.0264086329	-0.0005029609	-0.407254
H	 0.9261894326	 1.7593109512	-0.0827296301	 0.261038
H	-0.7416483639	 1.9069463367	-0.316554361	 0.250103
H	-3.0527465555	-0.8452187574	 0.0130367436	 0.309657
H	-0.1954239477	-3.7947784594	-0.038555339	 0.145515
H	 2.0780687842	-2.6917434956	-0.0229223717	 0.124778
132.3268	197.6348	217.5596	272.1277	302.463	350.4944	356.0922	495.2561	502.2949	528.6745	563.2941	596.2769	690.8325	712.537	751.7876	836.4181	864.7301	935.6345	978.2551	1046.4498	1150.9288	1214.9913	1281.7993	1314.165	1333.3861	1418.2064	1447.1375	1607.2452	1637.8918	1721.5526	1744.5314	3217.1039	3238.577	3522.088	3642.8309	3812.1597
NC1=C(O)OC=CC1=O	Nc1c(O)occc1=O	
InChI=1S/C5H5NO3/c6-4-3(7)1-2-9-5(4)8/h1-2,8H,6H2	InChI=1S/C5H5NO3/c6-4-3(7)1-2-9-5(4)8/h1-2,8H,6H2
