17
gdb 38600	3.22465	2.16122	1.84217	1.2637	68.82	-0.2431	0.072	0.3151	796.701	0.140134	-421.791788	-421.7864	-421.785456	-421.821231	24.034	
C	-0.0266289149	 1.5241841453	 0.074004089	-0.257376
C	 1.5149846981	 1.4948203494	-0.00730579	 0.084879
O	 2.0529302017	 1.3107991201	 1.3084377963	-0.266032
C	 1.8850070688	-0.0474937449	 1.5868176722	 0.082782
C	 0.4842392351	-0.7157109198	 1.3124259215	 0.021938
O	 1.1969049385	-1.872648125	 0.784407921	-0.298849
C	 2.189181464	-0.9059034341	 0.3444117971	 0.047794
C	 1.4469119081	 0.0451185137	-0.6259012907	-0.085044
C	 0.0129440059	-0.0204301115	 0.0145186168	-0.033718
H	-0.4520422015	 2.0106623501	 0.9559737365	 0.102674
H	-0.4767800096	 1.9449476606	-0.8295115939	 0.104102
H	 2.0521542978	 2.3100960828	-0.4938850718	 0.078677
H	 2.3553132912	-0.3195307938	 2.5290983173	 0.098826
H	-0.2452637148	-0.9568978794	 2.0854849059	 0.078971
H	 3.1579972454	-1.3302659108	 0.088694898	 0.084747
H	 1.5685197311	-0.0705186233	-1.6993329833	 0.077014
H	-0.788780825	-0.5677878391	-0.4814900119	 0.078613
303.9037	391.0876	478.3453	498.9641	614.3147	660.6187	694.9504	770.933	834.5675	849.4893	865.9933	882.7397	895.0954	912.2744	921.0706	929.9593	958.8555	972.1245	1018.9879	1032.1377	1055.7586	1101.5119	1121.3986	1144.1481	1159.859	1188.2417	1210.0375	1224.4688	1230.5068	1257.3058	1273.862	1282.5835	1303.568	1313.6861	1341.9562	1382.3788	1478.394	3054.0643	3101.8774	3105.8236	3111.6678	3124.2959	3141.0414	3155.0964	3161.7757
C1C2OC3C4OC3C2C14	C1[C@H]2O[C@H]3[C@@H]4O[C@H]3[C@H]2[C@H]14	
InChI=1S/C7H8O2/c1-2-4-3(1)8-7-5(2)9-6(4)7/h2-7H,1H2	InChI=1S/C7H8O2/c1-2-4-3(1)8-7-5(2)9-6(4)7/h2-7H,1H2/t2-,3+,4-,5+,6-,7-/m0/s1
