20
gdb 104990	2.58891	1.30663	1.00373	2.0167	79.93	-0.2498	0.0397	0.2896	1227.8413	0.169398	-403.084561	-403.074734	-403.07379	-403.119121	36.914	
C	 0.6979819694	 0.5657985993	-0.684358157	-0.386804
C	-0.0151807598	-0.8058788021	-0.6104198435	-0.246519
C	 0.8238432542	-1.7573885038	 0.1182387999	 0.29667
C	 1.5275880308	-2.5066842243	 0.7434406621	-0.454171
C	-1.4324824327	-0.7050128011	-0.0164168281	 0.301246
C	-2.378467051	 0.2582485099	-0.72807892	-0.122633
O	-2.2043203792	 1.5899438923	-0.283449011	-0.415102
C	-2.0212351647	-1.8502491389	 0.7207908294	-0.286181
N	-1.6058943106	-0.6315538945	 1.4464357631	-0.360671
H	 1.6694597217	 0.4539280164	-1.1722629294	 0.120252
H	 0.0964340527	 1.290054404	-1.2344192938	 0.146109
H	 0.8653386714	 0.9644978906	 0.3200229023	 0.124019
H	-0.1329364756	-1.1795045978	-1.6379210938	 0.113846
H	 2.1547383386	-3.1794530643	 1.2748249358	 0.200704
H	-2.194419539	 0.2560200363	-1.8081552998	 0.105165
H	-3.4148878445	-0.0749316268	-0.5692273932	 0.091087
H	-2.2114561085	 1.5306489251	 0.6814859423	 0.292063
H	-3.0941241118	-2.0169208897	 0.6819539708	 0.114862
H	-1.4185632249	-2.7435357036	 0.8484587962	 0.128315
H	-0.7140833365	-0.812682727	 1.9044529178	 0.237744
56.7814	104.7958	153.2909	202.5466	206.4224	245.5054	288.4478	331.8116	363.8704	388.2709	498.5176	513.2847	560.5652	613.4249	626.6447	652.5805	716.1709	831.8016	901.3779	915.9845	928.3794	984.877	996.9767	1031.0969	1059.5836	1076.2981	1096.923	1129.611	1163.0866	1202.8586	1274.0701	1280.6445	1319.1704	1346.2013	1367.0967	1395.3389	1418.745	1438.7037	1485.2683	1496.9408	1501.8179	1512.3664	2227.4118	2990.4323	3001.7426	3054.6464	3066.3366	3116.0088	3123.5053	3153.4873	3207.4231	3479.3592	3500.8306	3757.9468
CC(C#C)C1(CO)CN1	C[C@@H](C#C)[C@@]1(CO)CN1	
InChI=1S/C7H11NO/c1-3-6(2)7(5-9)4-8-7/h1,6,8-9H,4-5H2,2H3	InChI=1S/C7H11NO/c1-3-6(2)7(5-9)4-8-7/h1,6,8-9H,4-5H2,2H3/t6-,7-/m0/s1
