13
gdb 131424	4.21284	0.98418	0.80173	1.8828	64.42	-0.2664	-0.0221	0.2443	1297.5147	0.089452	-452.754728	-452.74701	-452.746066	-452.788121	27.665	
O	-0.1977041387	 1.3256785402	 0.0786598963	-0.411983
C	 0.0636520429	 0.0130778968	 0.0800806767	 0.480076
N	 0.9426607624	-0.5236051194	-0.7315583555	-0.253301
O	 0.9236488582	-1.8912178369	-0.4236422408	-0.223762
C	 0.0322999201	-2.1022968373	 0.5584013075	 0.470418
C	-0.1033550252	-3.52795647	 1.0012244382	-0.462022
C	-1.0864325672	-3.6889339179	 2.0690893935	 0.284274
N	-1.864005663	-3.813799184	 2.9132310603	-0.298872
C	-0.5581914978	-0.9417907499	 0.9352241089	-0.429096
H	 0.3595372943	 1.7394265568	-0.5946154692	 0.316288
H	-0.391811728	-4.156409496	 0.1495745529	 0.186546
H	 0.8673962143	-3.9043684416	 1.3468007221	 0.186546
H	-1.3079876823	-0.7785424507	 1.689552669	 0.154888
37.4469	106.4277	178.8985	290.9411	361.0987	383.7742	446.3701	456.9163	465.749	616.8902	670.3117	720.3168	775.2006	816.2414	946.3315	957.6203	970.1233	1007.0877	1050.3643	1156.4361	1219.8214	1221.0012	1268.8549	1371.9165	1453.7966	1535.7405	1560.762	1666.17	2376.3283	3036.6582	3068.2135	3293.8462	3777.2474
OC1=NOC(CC#N)=C1	Oc1noc(CC#N)c1	
InChI=1S/C5H4N2O2/c6-2-1-4-3-5(8)7-9-4/h3H,1H2,(H,7,8)	InChI=1S/C5H4N2O2/c6-2-1-4-3-5(8)7-9-4/h3H,1H2,(H,7,8)
