22
gdb 88200	3.33201	1.17843	1.01395	1.4661	82.67	-0.2391	0.078	0.3171	1267.9532	0.196108	-404.338195	-404.329588	-404.328644	-404.37115	33.786	
C	-0.0865386375	 1.5095842868	-0.1857769481	-0.401516
C	 0.0150502751	 0.0208841562	 0.0486084507	-0.062534
N	 1.348970849	-0.5996633354	-0.0666042147	-0.371459
C	 0.6524024643	-0.6094380596	 1.2350679858	 0.334246
C	 1.3363701338	 0.1611902118	 2.3516104149	-0.270838
C	 2.3427350961	-0.7655127757	 3.0551536179	-0.206235
C	 1.6668707497	-2.076267289	 3.4635882659	-0.064634
O	 1.0712915424	-2.7295112646	 2.3518036201	-0.24411
C	 0.0811937108	-1.9235268066	 1.7351137959	-0.150167
H	 0.7792437968	 2.0380203027	 0.218306955	 0.127398
H	-0.1338037836	 1.7231359001	-1.2589981205	 0.121028
H	-0.9916632824	 1.9170923019	 0.2779162321	 0.114685
H	-0.8172451918	-0.5444820307	-0.3742092747	 0.074393
H	 1.2868425991	-1.5133025774	-0.5102471021	 0.226831
H	 1.8399406098	 1.046098022	 1.9570869003	 0.106087
H	 0.5808974646	 0.5025279448	 3.073162702	 0.091801
H	 3.1651692998	-0.9903810885	 2.3667725683	 0.117666
H	 2.7718355652	-0.2794022111	 3.9386043292	 0.091506
H	 2.3886213842	-2.7846867928	 3.8801819621	 0.105831
H	 0.9009617728	-1.8802731936	 4.2356198072	 0.080612
H	-0.7393512111	-1.7238537623	 2.4481187026	 0.085193
H	-0.3274639171	-2.5134256489	 0.9074222502	 0.094216
99.2656	156.236	189.9241	195.7721	267.3599	307.79	395.722	403.4454	439.4341	496.8347	503.4151	589.6218	716.2478	799.6464	863.3094	873.6489	876.9943	922.5415	944.2164	992.408	996.6484	1037.4033	1041.0844	1059.5606	1102.3321	1116.3421	1123.8271	1160.0861	1206.5346	1228.392	1243.1914	1272.4008	1308.4831	1320.9875	1336.5314	1370.8802	1377.7478	1401.4058	1409.8623	1420.1248	1468.8365	1471.7291	1478.4432	1484.5974	1492.43	1500.1678	1504.9368	2940.261	2947.5266	3015.0708	3036.4442	3036.6626	3062.8755	3081.4258	3085.9571	3086.6629	3095.0869	3102.5145	3133.7872	3488.3489
CC1NC11CCCOC1	C[C@H]1N[C@]21CCCOC2	
InChI=1S/C7H13NO/c1-6-7(8-6)3-2-4-9-5-7/h6,8H,2-5H2,1H3	InChI=1S/C7H13NO/c1-6-7(8-6)3-2-4-9-5-7/h6,8H,2-5H2,1H3/t6-,7-/m1/s1
