16
gdb 28070	6.4171	0.81467	0.74065	4.5927	76.24	-0.1936	0.0256	0.2192	1473.68	0.125193	-434.085305	-434.076559	-434.075615	-434.119362	31.764	
N	 0.0691996837	 1.3489996038	 0.3318403195	-0.608561
C	-0.0077296125	-0.0292942433	 0.0582449369	 0.325313
C	-1.071386997	-0.8980806639	-0.0632628305	-0.347498
C	-0.5127343996	-2.1906508106	-0.2611329487	 0.347173
O	-1.2708283299	-3.3169537932	-0.4735301004	-0.214176
C	-0.9278703346	-4.4397044798	 0.2023541878	 0.106291
N	-1.4625491967	-5.5402651225	-0.1027562139	-0.43731
C	 0.8582050475	-2.0895431748	-0.2696655362	-0.209163
N	 1.1482017745	-0.7536943151	-0.0651122115	-0.269432
H	 0.3299207685	 1.8931329625	-0.4856179157	 0.247141
H	-0.8207161817	 1.6982682303	 0.6646264301	 0.250894
H	-2.1201285965	-0.6495858983	-0.0391392008	 0.100512
H	-0.1886342888	-4.2481460891	 0.9901986343	 0.092709
H	-1.1232494686	-6.2705517697	 0.5201258553	 0.22907
H	 1.6277913727	-2.8222353228	-0.4405681045	 0.124448
H	 2.0635660291	-0.3714586634	 0.0963306781	 0.262591
49.313	112.5131	128.0647	159.0742	239.8691	320.924	374.6081	435.0072	464.0871	503.7805	624.7733	665.3027	672.194	703.0971	770.0975	799.2794	822.3846	829.4947	988.2544	1006.6107	1052.8148	1063.2283	1118.0978	1150.9432	1199.0038	1273.2269	1286.4861	1340.2267	1402.935	1435.018	1489.1738	1562.3332	1625.5814	1658.8979	1741.4102	3044.602	3263.2272	3280.868	3494.9219	3516.5645	3601.9774	3683.0029
NC1=CC(OC=N)=CN1	Nc1cc(O[CH][NH])c[nH]1	
InChI=1S/C5H7N3O/c6-3-9-4-1-5(7)8-2-4/h1-3,6,8H,7H2	InChI=1S/C5H7N3O/c6-3-9-4-1-5(7)8-2-4/h1-3,6,8H,7H2
