21
gdb 87507	3.35089	1.37445	1.27218	0.2581	87.13	-0.2191	0.0168	0.2359	1104.0325	0.183482	-349.905007	-349.897198	-349.896254	-349.936838	32.228	
C	-0.05176043	 1.5212163169	-0.0508594959	-0.404856
C	 0.031642716	 0.0113309686	 0.0174251478	-0.101937
C	 1.3667700295	-0.6950448069	-0.2040903979	-0.398196
C	 0.7241150657	-0.6931420398	 1.1404267464	 0.465037
C	 1.1912034066	-0.133090909	 2.51531314	-0.16018
C	-0.1579437091	-0.7249969492	 3.0572684324	-0.205357
C	 0.1911214327	-1.8549457188	 2.0249784616	-0.160557
C	 1.5119307369	-2.3677268061	 2.621921079	-0.082421
C	 2.1642839718	-1.245679854	 2.9397036724	-0.080197
H	 0.8495664885	 1.9853549877	 0.3625793664	 0.114089
H	-0.1550021024	 1.8650621519	-1.0860958984	 0.115643
H	-0.9099122379	 1.9035145996	 0.5138663961	 0.114749
H	-0.8350931602	-0.5028943751	-0.3947477622	 0.080098
H	 1.3770091226	-1.6161469188	-0.7787442886	 0.106541
H	 2.2420161656	-0.0691814321	-0.3553283608	 0.106168
H	 1.4777274581	 0.9073556498	 2.6656574352	 0.059176
H	-0.1882673021	-1.0076855889	 4.1123324038	 0.088433
H	-1.0352274901	-0.1354342465	 2.7743121489	 0.094336
H	-0.5468524037	-2.5729548285	 1.6668126307	 0.057258
H	 1.8099770998	-3.4009871234	 2.7287258274	 0.096264
H	 3.1421584117	-1.1084004172	 3.3787476957	 0.095909
144.1526	147.2082	210.0234	242.0543	338.9634	403.6136	450.7998	538.3191	551.2851	593.6643	718.5494	735.1472	815.2344	832.115	834.6221	869.5679	897.2177	907.2133	911.4243	925.0111	957.8409	987.2653	1000.4411	1027.011	1049.2188	1090.8579	1098.9512	1109.8016	1129.743	1142.5758	1173.0851	1192.8201	1203.3696	1221.2502	1241.3753	1247.8494	1315.6947	1335.317	1409.9256	1427.1867	1485.4688	1492.9075	1496.2406	1508.9871	1622.7883	3024.6356	3049.8867	3084.4827	3093.433	3114.6899	3115.2067	3119.172	3119.9618	3120.8815	3197.9735	3218.733	3246.0295
CC1CC11C2CC1C=C2	C[C@H]1C[C@]21[C@H]1C[C@@H]2C=C1	
InChI=1S/C9H12/c1-6-5-9(6)7-2-3-8(9)4-7/h2-3,6-8H,4-5H2,1H3	InChI=1S/C9H12/c1-6-5-9(6)7-2-3-8(9)4-7/h2-3,6-8H,4-5H2,1H3/t6-,7-,8+,9+/m0/s1
