21
gdb 108233	2.14282	1.48559	1.1387	2.0476	79.24	-0.2218	0.0626	0.2844	1201.828	0.18011	-424.18719	-424.177292	-424.176348	-424.221737	36.747	
C	-0.0545691376	 1.522013729	 0.0117154287	-0.37912
C	 0.1103288739	-0.0026379679	 0.0976633509	-0.290554
C	 0.6753546305	-0.5789507164	-1.1621876188	 0.413977
O	 2.0123865516	-0.175631104	-1.5240091887	-0.329516
C	 2.3285410254	-1.5195975004	-1.9781538608	-0.142683
C	 0.8900668203	-1.9585598014	-1.7373796704	 0.226181
O	 0.5089687687	-3.1903686653	-1.2398645838	-0.455553
C	-0.0604554551	-0.9832398594	-2.4247871455	-0.138251
C	-1.5400829637	-1.2996912764	-2.3545503601	-0.433708
H	 0.9029257849	 1.9994888353	-0.2144117732	 0.138016
H	-0.761995617	 1.7988807861	-0.776576133	 0.116383
H	-0.4241526838	 1.9281170392	 0.9579331006	 0.109948
H	 0.7770726315	-0.2564141733	 0.9304050687	 0.109694
H	-0.8532583795	-0.477999457	 0.3087866338	 0.108734
H	 2.715158511	-1.5342235491	-3.0047556244	 0.096258
H	 3.0410616654	-2.0049823369	-1.3003858906	 0.109545
H	 0.2344660466	-3.7475344484	-1.9770144985	 0.289857
H	 0.272214597	-0.51354421	-3.3502626598	 0.081252
H	-1.7964056519	-1.8272816296	-1.432284181	 0.132594
H	-2.1430635319	-0.3873058201	-2.4056737383	 0.12355
H	-1.8422887363	-1.9401609238	-3.1912655058	 0.113396
66.278	115.2305	163.2913	194.5993	210.5374	239.8397	258.3839	280.9889	296.5036	378.4153	418.1923	516.9077	563.8806	631.1626	716.3121	742.6688	780.4653	837.1195	946.4714	970.2426	988.5704	1005.771	1036.1273	1050.8755	1097.6973	1112.363	1123.4741	1144.3058	1164.7914	1194.4712	1260.7506	1282.3524	1308.6486	1327.8957	1369.8908	1373.1357	1406.1078	1412.9214	1470.4541	1481.2123	1494.5456	1497.3666	1504.7958	1509.9559	1523.8215	3014.8728	3030.9163	3036.0366	3039.6867	3067.2387	3077.4611	3086.8745	3100.3142	3108.692	3119.7724	3121.303	3786.0536
CCC12OCC1(O)C2C	CC[C@@]12OC[C@]1(O)[C@H]2C	
InChI=1S/C7H12O2/c1-3-7-5(2)6(7,8)4-9-7/h5,8H,3-4H2,1-2H3	InChI=1S/C7H12O2/c1-3-7-5(2)6(7,8)4-9-7/h5,8H,3-4H2,1-2H3/t5-,6+,7+/m1/s1
