27
gdb 122872	3.74583	0.54065	0.53442	1.3508	93.2	-0.2614	0.0745	0.3359	2238.0251	0.249066	-390.702898	-390.69073	-390.689786	-390.7407	44.386	
C	-0.1360439373	 1.5562252872	 0.1149423597	-0.39969
C	-0.0139908615	 0.0221121545	 0.0558348203	 0.262157
C	 0.6323760781	-0.4946008354	 1.3547341498	-0.399689
C	-1.4255555325	-0.5820333846	-0.0686585466	-0.400753
C	 0.802145555	-0.4219274626	-1.1844562334	-0.178847
C	 2.254598993	 0.0634046245	-1.2815586773	-0.209087
C	 2.9507109202	-0.4430717491	-2.5497203795	-0.159288
C	 4.3940934964	 0.0273910426	-2.6662059372	-0.076195
O	 4.933440192	-0.4992333255	-3.8700397398	-0.421913
H	 0.8347896788	 2.0405114947	 0.2587608021	 0.11023
H	-0.5762741858	 1.9536421968	-0.8067116322	 0.106263
H	-0.7793039437	 1.8612532347	 0.9478256358	 0.106547
H	 0.0102437383	-0.2461502008	 2.2217650994	 0.106544
H	 0.7493459056	-1.584088333	 1.3319117615	 0.106266
H	 1.6198880689	-0.0548610951	 1.5255728847	 0.110233
H	-1.9264683414	-0.2339307631	-0.9788600363	 0.106678
H	-1.3860708489	-1.6763543019	-0.1068813043	 0.106679
H	-2.0512581554	-0.3001679644	 0.7853891245	 0.105004
H	 0.7991637837	-1.5203284418	-1.2207457585	 0.08727
H	 0.2641728401	-0.091975514	-2.0841944944	 0.087268
H	 2.2860213917	 1.1602963399	-1.2685170018	 0.095493
H	 2.8218196393	-0.2699430867	-0.4032274779	 0.095502
H	 2.9407871435	-1.5398815358	-2.5741979848	 0.103103
H	 2.4043113201	-0.1085362109	-3.4403495733	 0.103092
H	 4.4273902675	 1.1297089347	-2.6640031163	 0.081594
H	 4.968836537	-0.3149574902	-1.7894506955	 0.08159
H	 5.8449136272	-0.2027930647	-3.945735699	 0.283948
52.1167	63.434	98.7796	131.4823	138.5866	225.1906	228.1332	258.1473	263.4879	268.7982	275.7897	329.7981	350.2756	408.57	427.947	453.2148	526.9884	741.7014	747.5145	794.7772	909.2098	912.899	936.1327	937.2342	955.2805	1014.4869	1019.0568	1021.6526	1058.4723	1066.2566	1093.6484	1114.6063	1202.2952	1207.8665	1246.1399	1255.7965	1272.8419	1300.2253	1305.934	1319.453	1349.1243	1361.3037	1393.3782	1399.6981	1401.2779	1430.0572	1465.4131	1473.8714	1480.199	1487.0737	1487.2211	1490.3867	1505.9316	1507.0195	1508.133	1517.9436	1529.7644	2955.4793	2979.7346	2998.9911	3018.0989	3020.2282	3022.5862	3029.6222	3030.0318	3031.1564	3051.9961	3077.1726	3086.7491	3087.1871	3091.6524	3094.5966	3098.1126	3101.9046	3829.9949
CC(C)(C)CCCCO	CC(C)(C)CCCCO	
InChI=1S/C8H18O/c1-8(2,3)6-4-5-7-9/h9H,4-7H2,1-3H3	InChI=1S/C8H18O/c1-8(2,3)6-4-5-7-9/h9H,4-7H2,1-3H3
