19
gdb 75329	2.82462	1.7334	1.40922	1.5533	80.2	-0.2237	0.0044	0.2281	997.7932	0.161074	-385.900514	-385.893165	-385.892221	-385.931885	29.976	
C	-0.0206896176	 1.5215906092	 0.0577166217	-0.495029
C	-0.0257459913	 0.0247661696	-0.0196628124	 0.341827
C	-0.0455051448	-0.6812570137	-1.1537904282	-0.149985
C	-0.0169590632	-2.194790228	-1.1715462236	-0.263941
C	 0.1145607188	-2.7608416803	 0.2642558226	 0.023513
O	-0.7284024193	-1.9767939509	 1.1129702054	-0.247791
C	 0.0314286188	-0.7793303645	 1.2808922366	-0.077263
C	 1.4562334867	-1.3131386037	 1.4508775098	-0.075737
C	 1.5012442224	-2.4908548508	 0.835120725	-0.084836
H	 0.8684530214	 1.8943803192	 0.5837073077	 0.122285
H	-0.0350749787	 1.9744456327	-0.9376535853	 0.122616
H	-0.8898430219	 1.8937649199	 0.615712924	 0.126087
H	-0.0783137568	-0.1742589627	-2.1160861924	 0.078944
H	-0.9387954646	-2.5766993746	-1.6301337401	 0.113042
H	 0.8090736994	-2.5532644046	-1.802271097	 0.102028
H	-0.2091887393	-3.8034538776	 0.3204830815	 0.079106
H	-0.3711249296	-0.2273066628	 2.1347194083	 0.077016
H	 2.2696407464	-0.7604412857	 1.901891134	 0.106153
H	 2.3633163231	-3.1236523709	 0.6696584124	 0.101968
138.4138	186.4916	282.6847	288.1222	318.8301	407.1661	471.5509	543.8182	568.5944	675.8911	720.3187	774.6142	809.9499	833.7062	851.4802	905.1707	921.2034	926.7541	942.6524	964.4699	1006.2658	1022.9489	1055.3116	1067.7196	1084.1626	1126.3587	1174.2128	1190.7056	1258.326	1281.2729	1306.952	1327.3747	1352.9162	1362.9738	1366.2736	1414.1782	1462.878	1478.4813	1489.7013	1658.1916	1727.7193	3007.0203	3010.6157	3036.5147	3055.2258	3073.2703	3077.9499	3106.7394	3143.0114	3209.9295	3236.0119
CC1=CCC2OC1C=C2	CC1=CC[C@@H]2O[C@H]1C=C2	
InChI=1S/C8H10O/c1-6-2-3-7-4-5-8(6)9-7/h2,4-5,7-8H,3H2,1H3	InChI=1S/C8H10O/c1-6-2-3-7-4-5-8(6)9-7/h2,4-5,7-8H,3H2,1H3/t7-,8-/m0/s1
