19
gdb 61311	5.41677	0.72417	0.67566	3.5783	78.45	-0.2519	0.0535	0.3054	1644.5069	0.156575	-422.965971	-422.956267	-422.955323	-423.001172	35.498	
O	 0.455810929	 1.3092087341	 0.0921480066	-0.441157
C	 0.0624849528	-0.0459951017	 0.0174699478	 0.148705
C	 0.6246176363	-0.6107268903	-1.2991266728	-0.359191
C	 0.0675433968	 0.0268291919	-2.4848809282	 0.311794
C	-0.4065901707	 0.5348560338	-3.4649841082	-0.440858
C	 0.5826120836	-0.8355932732	 1.2329067688	-0.258841
C	-0.126189066	-0.4354385278	 2.5073278852	 0.074528
C	 0.5905293643	-0.0331225433	 3.723600319	-0.177229
O	-0.0227550922	 0.952277012	 2.8861082303	-0.243383
H	 0.3168057038	 1.6033733017	 1.0018451011	 0.299183
H	-1.0374733226	-0.1323649718	-0.0176285388	 0.073586
H	 1.7145462656	-0.4843803159	-1.284754944	 0.133788
H	 0.4258325793	-1.6891658907	-1.337093762	 0.120816
H	-0.8179362332	 0.9964872688	-4.3278257656	 0.191702
H	 0.4359079825	-1.9117216864	 1.0796616647	 0.104031
H	 1.6595984436	-0.6536326063	 1.3242881191	 0.109575
H	-1.1373378965	-0.8277394239	 2.6236550177	 0.104965
H	 0.1232541957	-0.1579709419	 4.6985668817	 0.124116
H	 1.6792554878	-0.0327298092	 3.7242619077	 0.12387
59.6385	64.6096	114.9025	131.3352	215.631	278.7813	341.5309	360.9656	386.125	454.3357	468.4631	478.256	590.8845	612.0668	636.9304	782.8721	857.6746	875.3109	897.4908	945.5854	964.2138	1007.5291	1039.5409	1091.6703	1112.8265	1129.2205	1160.6909	1174.7586	1219.3219	1260.4826	1280.2659	1296.3178	1333.597	1339.8699	1387.1737	1438.6954	1450.044	1456.6008	1470.0421	1526.4017	2242.6808	2950.508	3021.5099	3032.0417	3060.9943	3078.3406	3091.2666	3108.7924	3181.1496	3508.4078	3759.9808
OC(CC#C)CC1CO1	O[C@@H](CC#C)C[C@H]1CO1	
InChI=1S/C7H10O2/c1-2-3-6(8)4-7-5-9-7/h1,6-8H,3-5H2	InChI=1S/C7H10O2/c1-2-3-6(8)4-7-5-9-7/h1,6-8H,3-5H2/t6-,7-/m0/s1
