20
gdb 23324	3.25934	1.27839	1.19273	1.0455	81.46	-0.2352	0.0186	0.2539	1125.959	0.173933	-403.137271	-403.129731	-403.128787	-403.169129	30.838	
O	-0.1442864385	 1.3428408478	 0.0080620745	-0.399048
N	 0.0157915788	-0.0608492002	-0.0028558238	-0.270902
C	-1.1124670639	-0.6443763976	 0.0042983046	 0.454552
C	-2.5097580488	-0.0474304119	 0.0478298552	-0.302186
C	-3.3861117283	-1.3213289398	 0.0086558383	-0.019384
C	-3.267525112	-1.9519013478	-1.4005896588	-0.20663
C	-1.815245901	-2.5313545572	-1.4133800371	-0.213471
C	-1.2674419841	-2.1469330101	-0.0096080582	-0.091779
C	-2.5417820647	-2.2997966997	 0.8590371398	-0.229912
H	 0.7690111777	 1.6481136014	 0.0201098153	 0.303303
H	-2.6449854248	 0.5209123037	 0.97569603	 0.121156
H	-2.68922156	 0.6463454106	-0.7792718777	 0.120302
H	-4.4134979251	-1.1598815497	 0.338649857	 0.06168
H	-4.0091638474	-2.7446368777	-1.5353349213	 0.096574
H	-3.4331464723	-1.2158927303	-2.1925810836	 0.098544
H	-1.8238929451	-3.6199472231	-1.5237993056	 0.098744
H	-1.1980158096	-2.1235191579	-2.2170834491	 0.10943
H	-0.3734864476	-2.6903361823	 0.2933725964	 0.074867
H	-2.402490044	-1.9686625988	 1.8923872706	 0.099554
H	-2.9332853492	-3.3215177094	 0.8604229634	 0.094608
95.0604	196.2752	231.1952	320.83	379.6567	397.3413	446.508	485.9148	566.6109	590.8908	734.083	773.8765	813.2954	830.2503	853.2033	884.9321	923.4442	935.8856	955.4823	958.4594	966.5355	969.4036	1043.3762	1066.6867	1102.6351	1132.1518	1150.6373	1181.3226	1216.3596	1229.1286	1257.6628	1270.8859	1287.9823	1310.4898	1332.9289	1334.1611	1343.7546	1405.3276	1465.7749	1493.606	1494.5824	1518.2198	1766.6366	3041.009	3048.3159	3051.4883	3059.0614	3083.9065	3087.8691	3101.289	3102.7835	3110.8603	3129.1819	3818.5606
ON=C1CC2CCC1C2	ON=C1C[C@H]2CC[C@@H]1C2	
InChI=1S/C7H11NO/c9-8-7-4-5-1-2-6(7)3-5/h5-6,9H,1-4H2	InChI=1S/C7H11NO/c9-8-7-4-5-1-2-6(7)3-5/h5-6,9H,1-4H2/t5-,6+/m0/s1
