22
gdb 8308	5.94263	0.81706	0.78422	1.4295	79.16	-0.2611	0.0812	0.3423	1523.0948	0.199704	-350.196975	-350.187592	-350.186648	-350.231442	34.373	
C	 0.0045097949	 1.5996515715	 0.0928257298	-0.406868
C	 0.0825162254	 0.0823650535	 0.0309146438	 0.059588
C	 1.1314592671	-0.5874782022	-0.9011737782	-0.255621
C	 1.366292731	-1.6675358418	 0.1909290972	 0.046099
C	 2.7814227863	-2.1762219587	 0.4275301119	-0.197287
C	 2.8808316598	-3.1463000564	 1.5981753122	-0.070079
O	 4.2382356709	-3.5445134037	 1.7269292153	-0.421132
C	 0.7180198262	-0.6940415547	 1.2184828913	-0.239455
H	 0.9881019964	 2.0349255043	 0.3041508889	 0.109488
H	-0.348487879	 2.0203871176	-0.8556774467	 0.112259
H	-0.68236054	 1.9324237746	 0.8794688852	 0.111659
H	-0.9104352953	-0.3304302422	-0.1830775675	 0.068212
H	 0.8072472282	-0.9178364161	-1.8917300053	 0.091219
H	 2.0158386716	 0.0496371345	-1.0197577338	 0.093581
H	 0.6925115016	-2.5159401399	 0.01627637	 0.065046
H	 3.1568172002	-2.6791118372	-0.4729112538	 0.101746
H	 3.4556743642	-1.3313356114	 0.6176375106	 0.097769
H	 2.5210699189	-2.6576303469	 2.5183352452	 0.086748
H	 2.2265962654	-4.015330677	 1.416061927	 0.080907
H	 4.305442698	-4.1452516774	 2.4746394138	 0.283667
H	 1.4822882456	-0.0882583301	 1.7203652892	 0.092822
H	 0.0500500026	-1.1078596704	 1.9788589438	 0.089636
59.8492	93.1432	105.0305	167.8115	229.3599	267.0032	294.5608	330.6581	386.3974	400.9474	458.3983	614.1444	781.2785	800.5179	810.7981	895.7254	910.8033	949.6584	959.3222	990.759	1003.0426	1058.9075	1078.6729	1094.0161	1141.6023	1146.0746	1184.4899	1223.1533	1229.3158	1241.2702	1262.2675	1269.725	1274.6411	1299.2501	1317.507	1333.7522	1370.0065	1397.6517	1411.018	1462.1245	1475.8344	1491.0888	1494.4217	1496.496	1505.8053	1527.0876	2957.0854	2983.0028	3018.9269	3020.375	3023.5754	3029.7478	3031.6331	3040.4779	3065.2763	3087.2654	3087.6386	3091.0834	3098.9125	3829.6192
CC1CC(CCO)C1	C[C@H]1C[C@@H](CCO)C1	
InChI=1S/C7H14O/c1-6-4-7(5-6)2-3-8/h6-8H,2-5H2,1H3	InChI=1S/C7H14O/c1-6-4-7(5-6)2-3-8/h6-8H,2-5H2,1H3/t6-,7+
