21
gdb 108205	3.07909	1.45328	1.325	1.4692	77.31	-0.2368	0.0824	0.3191	1074.7983	0.184522	-424.236539	-424.228514	-424.22757	-424.268898	31.806	
C	-0.0435315921	 1.3677573866	-0.0834045903	-0.260559
O	-0.0758303127	-0.0521019293	-0.0558459737	-0.298854
C	-1.3277738852	-0.615492161	 0.047252226	 0.519177
C	-2.1795281546	-0.2870165173	 1.2994820997	-0.26625
C	-3.2390968798	-1.4353631178	 1.2663810361	-0.22005
C	-2.8661372685	-2.2151394816	-0.019501338	-0.046832
C	-3.1333705292	-1.2931010775	-1.2225994902	-0.07118
O	-2.130333416	-0.2712321065	-1.1054575779	-0.311044
C	-1.3287567756	-2.1486126483	 0.0152257396	-0.282685
H	 1.0017482813	 1.6490924448	-0.2266661463	 0.125381
H	-0.6437617361	 1.7627993969	-0.9095308298	 0.134212
H	-0.4000711059	 1.8019483613	 0.8602080872	 0.108901
H	-1.5665815769	-0.3137802082	 2.2051082997	 0.101411
H	-2.6331373661	 0.7023959104	 1.2168047465	 0.105519
H	-3.1504169875	-2.0798380085	 2.1457189857	 0.09961
H	-4.266558877	-1.0618096483	 1.2371214378	 0.098297
H	-3.3231555735	-3.2015288564	-0.1056586469	 0.067505
H	-3.0154293339	-1.8142526164	-2.1823346609	 0.095734
H	-4.1327334646	-0.8402459629	-1.1969334171	 0.093579
H	-0.8349960477	-2.5332982923	-0.8795967871	 0.108072
H	-0.8869127985	-2.5952390978	 0.9090480701	 0.100056
102.6179	155.7069	181.844	213.2865	334.5195	381.2521	399.6983	465.6307	504.4442	570.8199	627.5982	772.0402	788.1992	827.4834	852.5237	923.416	933.266	942.923	968.2605	983.2291	986.6125	1030.9812	1054.8881	1099.1143	1135.4217	1153.6888	1180.2803	1185.5502	1191.9262	1220.1784	1236.5238	1253.7177	1263.7985	1284.8164	1316.7517	1335.1143	1357.4234	1383.6803	1478.3336	1481.3511	1490.3987	1491.7689	1508.158	1511.5333	1532.1966	3002.9696	3010.397	3039.8118	3050.6981	3062.3858	3073.0412	3082.7518	3090.7949	3110.785	3119.8665	3128.4356	3130.9632
COC12CCC(CO1)C2	CO[C@@]12CC[C@@H](CO1)C2	
InChI=1S/C7H12O2/c1-8-7-3-2-6(4-7)5-9-7/h6H,2-5H2,1H3	InChI=1S/C7H12O2/c1-8-7-3-2-6(4-7)5-9-7/h6H,2-5H2,1H3/t6-,7+/m1/s1
