18
gdb 33085	6.02384	0.78236	0.70047	1.4118	75.86	-0.1699	0.066	0.236	1589.6659	0.148626	-435.306821	-435.297696	-435.296752	-435.340909	33.767	
C	 0.0048975637	 1.5324419477	-0.0654656687	-0.398726
C	-0.0510455734	 0.0091201885	-0.1091152394	-0.106497
N	 0.8213537955	-0.5132476315	-1.1460606673	-0.386179
C	 0.8511568772	-1.8859713161	-1.3424201826	 0.339381
C	 0.459937191	-2.8984746009	-0.5047579938	-0.211769
N	 0.7830868324	-4.076676705	-1.2016379797	-0.306307
C	 1.3133475436	-3.6913355613	-2.3780507053	 0.450439
O	 1.7116273219	-4.6115968143	-3.274166181	-0.427839
N	 1.3795118707	-2.3923492733	-2.5198041158	-0.435535
H	 1.0285936106	 1.8783572095	 0.1044575008	 0.129424
H	-0.3479751446	 1.9668264217	-1.0080927944	 0.115461
H	-0.6313098337	 1.9191957257	 0.7355248599	 0.118157
H	 0.2884796335	-0.3974214713	 0.8526975625	 0.107662
H	-1.0944975625	-0.3299024997	-0.2380833094	 0.087013
H	 0.7615802543	-0.0165341629	-2.0252517635	 0.231479
H	 0.0151866061	-2.9206590594	 0.4730573569	 0.114625
H	 0.6412765613	-5.0235010899	-0.8979024818	 0.267145
H	 2.0644319024	-4.1177070675	-4.0245974374	 0.312065
67.2234	92.2532	128.2534	242.2291	266.3864	294.3624	339.0239	348.5145	402.313	435.1283	505.4323	570.3727	574.7422	692.8396	720.8694	739.1822	786.0548	822.2399	928.5935	1014.1868	1038.5877	1082.8874	1094.6658	1155.4652	1180.5858	1203.4284	1274.7079	1287.9351	1297.6772	1365.3602	1399.6617	1417.6313	1486.1305	1497.9834	1504.969	1528.0461	1582.3253	1625.6137	1648.3853	2941.7115	3025.2695	3035.9459	3101.9374	3121.0608	3298.3659	3574.2818	3688.5537	3809.7021
CCNC1=CNC(O)=N1	CCNc1c[nH]c(O)n1	
InChI=1S/C5H9N3O/c1-2-6-4-3-7-5(9)8-4/h3,6H,2H2,1H3,(H2,7,8,9)	InChI=1S/C5H9N3O/c1-2-6-4-3-7-5(9)8-4/h3,6H,2H2,1H3,(H2,7,8,9)
