14
gdb 130187	3.44894	1.67788	1.13058	1.9123	70.22	-0.1982	0.0018	0.2	990.0481	0.104543	-432.879425	-432.87236	-432.871415	-432.910694	27.241	
N	-0.0173555205	 1.396262671	 0.1601205519	-0.597558
C	 0.0509530709	 0.0090997237	 0.0452864655	 0.225992
N	-1.046684204	-0.7469235916	 0.01679469	-0.301757
N	-0.6245901323	-2.0539722492	-0.0117270591	-0.373458
C	 0.727190341	-2.133732624	-0.017112263	 0.341483
C	 1.1827275019	-0.8319462866	 0.0213795323	 0.241125
O	 2.5467677379	-0.7885491147	 0.0222900698	-0.217669
C	 2.9342906272	-2.1015375616	-0.0149003706	-0.001421
C	 1.8852774779	-2.9755447437	-0.0389979699	-0.345602
H	 0.6624661585	 1.8759803107	-0.4153148129	 0.249901
H	-0.9510190266	 1.7324695046	-0.040355858	 0.252201
H	-1.3163248748	-2.7798863444	-0.0167420559	 0.269441
H	 4.0004846726	-2.262563429	-0.0202224388	 0.137921
H	 1.9579664803	-4.0505689253	-0.0684109213	 0.1194
181.324	187.8505	240.4513	265.7353	293.454	449.5924	542.7617	591.0068	639.5742	651.7401	680.7521	726.2601	744.8421	778.099	810.3626	844.8973	911.6787	1050.3679	1055.4626	1130.4823	1161.0731	1184.2403	1252.2001	1338.1187	1367.0907	1447.2924	1509.0859	1566.3762	1602.5899	1611.6086	1650.674	3259.5439	3280.09	3537.9963	3634.2798	3710.0761
NC1=NNC2=C1OC=C2	Nc1n[nH]c2c1occ2	
InChI=1S/C5H5N3O/c6-5-4-3(7-8-5)1-2-9-4/h1-2H,(H3,6,7,8)	InChI=1S/C5H5N3O/c6-5-4-3(7-8-5)1-2-9-4/h1-2H,(H3,6,7,8)
