17
gdb 55548	4.28559	0.84711	0.76883	2.712	72.3	-0.2508	-0.0474	0.2034	1459.1823	0.135901	-455.17186	-455.162848	-455.161904	-455.20725	32.308	
N	 0.6261384508	 0.336930388	-0.5822311483	-0.508982
C	 0.0037555858	 0.0310691005	 0.5859805799	 0.385107
O	 0.3724985841	 0.4035369243	 1.6802559895	-0.350204
C	-1.2966792253	-0.7842811979	 0.4289274697	-0.409657
C	-1.2420069967	-1.9633408044	-0.5267385752	 0.376646
O	-0.733770299	-1.8824864146	-1.6338970346	-0.355979
C	-1.8670678831	-3.2422520631	-0.0792832236	-0.098762
C	-2.8629644306	-3.8521005986	-1.0280925239	-0.215694
N	-1.5552881345	-4.4558744674	-0.8459207271	-0.297748
H	 1.5270767057	 0.7836729963	-0.5184077472	 0.259695
H	 0.3836273244	-0.1831617232	-1.4145237203	 0.276859
H	-1.6088298485	-1.0870609895	 1.4282942378	 0.141783
H	-2.0606613094	-0.1001686972	 0.0351759751	 0.163684
H	-2.0047367865	-3.3789391414	 0.9881835541	 0.113478
H	-3.7003444712	-4.4038901936	-0.6112201083	 0.134482
H	-3.0657611123	-3.3048324571	-1.9446059193	 0.134173
H	-0.9505422836	-4.1698388113	-1.6171051981	 0.251119
29.9384	62.1099	82.2988	194.0589	259.0551	290.7951	352.4327	383.3605	471.3542	523.4831	571.0567	619.1056	694.1714	733.2341	814.3243	840.4774	892.168	909.2295	935.1247	977.5523	1008.844	1084.3508	1119.1251	1129.1383	1147.9565	1178.559	1186.8322	1282.8066	1310.3814	1319.8942	1354.0685	1400.6193	1446.6544	1497.6148	1615.6407	1752.5452	1814.583	3037.0047	3113.4976	3138.6709	3170.5945	3207.8677	3464.327	3543.077	3693.4506
NC(=O)CC(=O)C1CN1	NC(=O)CC(=O)[C@H]1CN1	
InChI=1S/C5H8N2O2/c6-5(9)1-4(8)3-2-7-3/h3,7H,1-2H2,(H2,6,9)	InChI=1S/C5H8N2O2/c6-5(9)1-4(8)3-2-7-3/h3,7H,1-2H2,(H2,6,9)/t3-/m1/s1
