17
gdb 51648	4.61356	0.94427	0.87038	3.505	68.92	-0.251	-0.0242	0.2268	1319.346	0.134317	-458.944081	-458.935932	-458.934988	-458.977963	29.719	
O	-0.4354862344	 0.65267966	 0.7706887123	-0.235708
C	 0.0697849284	 1.0278322548	-0.2535636562	 0.170444
C	 1.3561731292	 1.8238114639	-0.3320066868	-0.306425
C	 1.2852100151	 2.9376486563	-1.3595809737	 0.213133
O	 0.325054571	 3.9074624312	-0.9643838037	-0.268359
C	 0.7729581454	 5.1318935257	-1.5029737829	 0.061291
C	 1.8175572205	 5.8588546584	-0.6869679403	-0.322031
C	 2.2214468185	 4.9388806136	-1.8169263764	 0.057207
O	 2.530790265	 3.6133590419	-1.4447628192	-0.271125
H	-0.3841707475	 0.780876636	-1.2414515067	 0.076362
H	 1.6044331503	 2.2262547519	 0.6520480727	 0.137562
H	 2.1559269954	 1.1377271688	-0.6428403401	 0.139676
H	 1.0146892438	 2.5434217398	-2.3567963898	 0.073781
H	 0.060570629	 5.6493999092	-2.1352747134	 0.110888
H	 1.9257378689	 6.9270769365	-0.846145178	 0.119749
H	 1.9887347808	 5.5090464531	 0.324254164	 0.133505
H	 2.7181240907	 5.2962481689	-2.7117858819	 0.11005
53.6611	79.846	108.78	192.8005	304.0288	358.5717	419.0252	474.3255	568.7764	692.2319	736.7683	757.9366	789.4708	805.0869	900.3494	942.1637	988.9233	1006.822	1010.2341	1067.777	1070.728	1091.7133	1103.1566	1112.4831	1139.4573	1153.2643	1200.1627	1215.5071	1274.9811	1306.3434	1369.6586	1379.6436	1430.8591	1435.2148	1444.5779	1457.7322	1842.4224	2860.5845	2931.0793	3035.6701	3127.5173	3133.8344	3170.2149	3179.3106	3234.6576
O=CCC1OC2CC2O1	O=CC[C@H]1O[C@H]2C[C@H]2O1	
InChI=1S/C6H8O3/c7-2-1-6-8-4-3-5(4)9-6/h2,4-6H,1,3H2	InChI=1S/C6H8O3/c7-2-1-6-8-4-3-5(4)9-6/h2,4-6H,1,3H2/t4-,5+,6-
