20
gdb 105812	2.44134	1.45491	1.21505	1.5433	78.96	-0.2119	0.059	0.2709	1130.348	0.169915	-403.040171	-403.031321	-403.030377	-403.073748	34.014	
C	-0.1126150416	 1.5203028811	 0.153968428	-0.332551
N	 0.1578707186	 0.0851697526	 0.1680947771	-0.117527
C	 1.2627261783	-0.672326898	-0.3464642434	-0.136233
C	 2.7060495254	-0.2135830556	 0.0606171008	-0.067121
C	 2.7726200124	 1.0229767717	 0.912105884	-0.316287
C	 2.3026055348	-0.2655117063	 1.5273590421	-0.099593
C	 0.8677711237	-0.7462654939	 1.104619223	 0.283184
C	 0.1254247201	-1.8009430829	 1.8696800114	-0.157957
O	-0.45742881	-1.2923985823	 3.0649095836	-0.41728
H	 0.5003266084	 2.0451697893	-0.585396023	 0.130972
H	-1.1637823814	 1.6779221027	-0.1166990116	 0.114911
H	 0.0503668845	 1.9775318508	 1.1355926607	 0.127983
H	 1.088999503	-1.3828539995	-1.14950883	 0.093411
H	 3.584457695	-0.6476415065	-0.3992024024	 0.090115
H	 3.7854705965	 1.2903259981	 1.2028871987	 0.114553
H	 2.1357948325	 1.8814048461	 0.7644445425	 0.112407
H	 2.831579227	-0.7389378621	 2.3442365122	 0.093554
H	-0.6294016918	-2.251464442	 1.2093834077	 0.093921
H	 0.8128643796	-2.5908403655	 2.1918128521	 0.106789
H	-1.0918007251	-0.617273538	 2.8014902766	 0.282749
58.8204	126.2012	148.0616	252.0637	262.5692	287.2484	336.8066	369.9594	407.9724	496.0768	630.3647	640.6115	700.4248	751.9789	760.578	837.0154	872.8996	917.3843	949.3371	956.3728	982.282	1017.2343	1050.7529	1051.2803	1056.2127	1082.574	1097.8086	1142.7815	1167.2161	1177.0843	1196.0893	1238.5801	1269.6069	1284.1142	1319.9607	1369.4097	1412.8841	1435.1761	1467.3542	1489.0752	1494.3149	1508.0043	1519.0517	3002.5979	3012.283	3065.1788	3072.1131	3099.8546	3137.5822	3147.376	3190.8591	3201.3077	3254.1437	3809.166
CN1C2C3CC3C12CO	CN1[C@H]2[C@H]3C[C@H]3[C@@]12CO	
InChI=1S/C7H11NO/c1-8-6-4-2-5(4)7(6,8)3-9/h4-6,9H,2-3H2,1H3	InChI=1S/C7H11NO/c1-8-6-4-2-5(4)7(6,8)3-9/h4-6,9H,2-3H2,1H3/t4-,5+,6-,7+,8?/m0/s1
