18
gdb 50712	3.23094	1.19395	0.90827	0.7582	74.12	-0.2487	-0.0383	0.2103	1244.8637	0.147722	-439.098154	-439.089718	-439.088774	-439.131995	30.691	
O	-0.9157608478	 1.0706559826	 0.4751121002	-0.242342
C	 0.1327377255	 0.878173391	-0.0799385431	 0.141808
C	 1.3317269972	 1.816885244	 0.0294840809	 0.036612
C	 1.5021442439	 2.3810853863	 1.4351638846	-0.202337
C	 2.4962562809	 3.5386006204	 1.4765206337	-0.232437
C	 3.9501369332	 3.1133662648	 1.2408772531	-0.142824
N	 4.3163825372	 2.4887813764	-0.017702718	-0.238954
C	 3.6668155128	 1.625893671	-0.6596072618	 0.115803
O	 2.430675147	 1.0641491147	-0.4823564717	-0.247534
H	 0.3120081419	 0.0003157208	-0.7366236189	 0.101892
H	 1.1379815569	 2.6554394802	-0.6617405252	 0.112603
H	 0.5084080309	 2.7066340068	 1.7588623881	 0.130792
H	 1.8135292347	 1.5750647368	 2.1117074627	 0.108382
H	 2.2097498819	 4.2947902059	 0.7336283607	 0.104143
H	 2.4500630131	 4.0295082185	 2.4557556601	 0.104554
H	 4.5948518069	 3.9910183385	 1.3593382497	 0.11204
H	 4.2451035912	 2.4159331864	 2.0398268795	 0.117136
H	 4.1323736927	 1.1460146249	-1.5215613045	 0.120661
67.4268	87.114	112.4627	199.0407	286.9144	338.0751	361.1271	437.9614	454.1348	533.8558	602.1077	759.4867	783.3214	844.4925	858.9191	929.4985	953.2369	960.2292	980.7485	1070.8606	1084.3994	1104.8808	1135.3696	1150.6331	1210.6844	1250.6695	1297.5334	1312.627	1350.7428	1374.6181	1378.0775	1399.9909	1406.627	1434.7576	1474.5276	1481.5019	1488.9295	1768.513	1841.1227	2915.9846	2961.6562	2996.4639	3020.0124	3034.0895	3058.1583	3066.7784	3092.8177	3129.2503
O=CC1CCCN=CO1	O=C[C@H]1CCCN=CO1	
InChI=1S/C6H9NO2/c8-4-6-2-1-3-7-5-9-6/h4-6H,1-3H2	InChI=1S/C6H9NO2/c8-4-6-2-1-3-7-5-9-6/h4-6H,1-3H2/t6-/m1/s1
