17
gdb 69460	3.79504	1.16679	1.00402	3.8514	69.06	-0.2508	-0.0303	0.2205	1185.4191	0.133813	-458.956049	-458.947536	-458.946592	-458.989748	30.805	
C	 0.1293764058	 1.5032612315	 0.1208469265	-0.491997
C	-0.0149190915	 0.008238768	 0.1179008165	 0.396427
C	-1.2173997615	-0.665985309	-0.5175127597	-0.135649
O	-1.2137461306	-2.0127637003	-0.0494129492	-0.276951
C	-0.4682103157	-2.1165449646	 1.1552400071	 0.022444
C	 0.3025315566	-3.4318307202	 1.1374419107	 0.147932
O	 0.6502432945	-4.0063740271	 2.1344661366	-0.244601
C	 0.4565080226	-0.9092805615	 1.1615231298	-0.082359
O	 1.1784643848	-0.7720455204	-0.0690535419	-0.287288
H	 1.0325673053	 1.7975299253	 0.6598868771	 0.140843
H	 0.2052666241	 1.8854968824	-0.9027397683	 0.137353
H	-0.7355286329	 1.978180118	 0.5949125698	 0.130614
H	-2.1394635589	-0.1438780044	-0.2186427499	 0.101222
H	-1.1673720046	-0.6904870583	-1.6110914791	 0.123004
H	-1.1077780093	-2.0943833002	 2.0506846796	 0.099514
H	 0.5320948884	-3.7968983136	 0.1147719695	 0.102855
H	 0.967243713	-0.6063453855	 2.0705991748	 0.116636
59.7748	98.8788	173.5311	186.9134	214.7102	319.3488	351.7237	399.1337	452.7918	525.3547	598.6629	707.3138	791.7449	863.3807	891.917	917.0028	972.4989	994.1737	997.5004	1052.0339	1065.051	1101.2942	1114.7034	1131.9024	1235.0568	1251.1544	1278.6911	1291.6245	1303.0342	1369.5882	1393.9639	1411.853	1461.0251	1486.7628	1496.9136	1507.0484	1837.2729	2925.5548	2989.7233	2999.7559	3040.3016	3074.3729	3103.1295	3130.8797	3167.9032
CC12COC(C=O)C1O2	C[C@]12CO[C@@H](C=O)[C@H]1O2	
InChI=1S/C6H8O3/c1-6-3-8-4(2-7)5(6)9-6/h2,4-5H,3H2,1H3	InChI=1S/C6H8O3/c1-6-3-8-4(2-7)5(6)9-6/h2,4-5H,3H2,1H3/t4-,5+,6-/m0/s1
