24
gdb 64408	2.30797	1.5939	1.2633	1.4024	88.08	-0.2134	0.0772	0.2905	1153.0737	0.218982	-368.40319	-368.394315	-368.393371	-368.435957	36.086	
C	-0.0185777113	 1.5493953539	-0.0111527621	-0.413482
C	-0.0059310334	 0.0107551155	-0.0021026709	 0.257557
C	-1.4637207745	-0.4904711178	 0.0802030295	-0.42028
C	 0.6635996895	-0.5222428692	-1.2904461798	-0.225639
C	 0.9897194827	-2.0147135708	-1.1881759876	-0.213808
C	 1.9954069653	-2.2839228337	-0.0638995459	-0.143116
N	 1.6715522938	-1.6334793155	 1.2203192385	-0.107755
C	 2.2032015489	-0.2883550617	 1.4314887467	-0.267925
C	 0.7443101405	-0.4878238465	 1.2371263128	 0.007815
H	 0.9953127959	 1.9553656472	-0.0802139443	 0.110078
H	-0.593520116	 1.9286551083	-0.8640670514	 0.106781
H	-0.4767655935	 1.9467248344	 0.9014262795	 0.109791
H	-2.0385210112	-0.1605829925	-0.7919470286	 0.107642
H	-1.5234579567	-1.5815416866	 0.1312756443	 0.119358
H	-1.9579218201	-0.0939299222	 0.973395294	 0.112001
H	 0.0010950886	-0.3268877402	-2.1417020476	 0.091701
H	 1.5874115055	 0.037663651	-1.4887068714	 0.088896
H	 0.0714469446	-2.5849338629	-1.0080126386	 0.103638
H	 1.4027787762	-2.3861483063	-2.1326408957	 0.094356
H	 2.0612904308	-3.362410769	 0.1211752867	 0.10135
H	 2.9943689461	-1.9616323929	-0.3861529323	 0.095109
H	 2.6102452337	-0.085036352	 2.4197636502	 0.106369
H	 2.7664613882	 0.166328496	 0.6170861425	 0.100389
H	 0.1266131666	-0.4743777265	 2.1357952314	 0.079174
89.0172	197.9484	235.5239	256.5506	274.2708	318.6816	332.848	383.2899	404.3454	458.2757	459.135	500.0594	616.9448	690.7402	736.5029	832.8895	865.2439	893.8423	909.0988	945.182	947.9435	967.7343	1012.0404	1020.2633	1051.3152	1063.6896	1078.324	1114.3922	1124.1592	1165.6335	1189.3851	1195.7737	1228.8818	1253.4942	1278.0333	1307.2797	1338.1593	1358.736	1381.8243	1386.5666	1397.3381	1407.7663	1428.6178	1480.6037	1484.2665	1492.9284	1498.0191	1503.2665	1505.3412	1514.0313	1522.3946	3010.7332	3014.4811	3023.0398	3031.1087	3035.1386	3048.3987	3058.3489	3077.1231	3080.8237	3087.1579	3088.2736	3098.7241	3101.8995	3108.3164	3159.7979
CC1(C)CCCN2CC12	CC1(C)CCCN2C[C@@H]12	
InChI=1S/C8H15N/c1-8(2)4-3-5-9-6-7(8)9/h7H,3-6H2,1-2H3	InChI=1S/C8H15N/c1-8(2)4-3-5-9-6-7(8)9/h7H,3-6H2,1-2H3/t7-,9?/m0/s1
