21
gdb 116465	2.59916	1.29467	1.01692	1.6659	75.1	-0.2333	0.065	0.2983	1247.903	0.182521	-461.350134	-461.34077	-461.339826	-461.384329	34.773	
C	-0.0114975976	 1.3841884331	-0.0647149242	-0.238971
O	 0.0016005494	-0.017675267	 0.0856692523	-0.243161
C	-1.2721024906	-0.6240957782	 0.0332213178	 0.130089
C	-1.7817467879	-0.8151036551	-1.4063539961	-0.107269
O	-3.0635453251	-1.4257982373	-1.4040872894	-0.252344
C	-3.0405331051	-2.7173464507	-0.8166309946	-0.057681
C	-2.5797298998	-2.6587285325	 0.6427599012	-0.244014
C	-1.2007206854	-1.98285785	 0.7367309282	 0.080024
O	-0.2006545598	-2.7516175602	 0.0777401431	-0.428101
H	 1.0168062905	 1.7292951208	 0.0683653022	 0.128457
H	-0.358079007	 1.7037617902	-1.0581282861	 0.108784
H	-0.64828607	 1.8681396056	 0.6927455491	 0.103237
H	-2.0093055876	-0.0118328564	 0.578850299	 0.06572
H	-1.9027902888	 0.1461104922	-1.9124161589	 0.099903
H	-1.052004934	-1.4174310817	-1.9654844189	 0.11514
H	-4.0602262722	-3.105237757	-0.8922381371	 0.103391
H	-2.3741827697	-3.3822808864	-1.3868906821	 0.097136
H	-3.3083547094	-2.0947472793	 1.2370598391	 0.105185
H	-2.5300733758	-3.6706442291	 1.0655274022	 0.085588
H	-0.9211644156	-1.8163170466	 1.7875021623	 0.065563
H	-0.1225040187	-3.5922294645	 0.5389683209	 0.283323
64.8105	125.5524	175.8096	185.1993	217.0681	234.0182	319.1326	338.1154	356.0566	410.4746	442.8046	525.2879	587.0079	695.5245	811.5742	870.004	888.9326	967.1497	992.7013	1016.4512	1038.5808	1054.7648	1094.7876	1127.8419	1142.1167	1172.3332	1183.1369	1205.7566	1225.7792	1243.3252	1268.1063	1302.5782	1335.4223	1346.9103	1363.701	1386.3422	1400.327	1415.831	1447.5179	1473.8824	1480.7375	1489.5887	1493.7964	1504.9718	1509.7847	2964.832	2976.5113	2990.9508	2994.4862	3016.005	3024.7371	3026.2383	3068.7234	3089.8186	3096.5362	3112.939	3824.0308
COC1COCCC1O	CO[C@H]1COCC[C@H]1O	
InChI=1S/C6H12O3/c1-8-6-4-9-3-2-5(6)7/h5-7H,2-4H2,1H3	InChI=1S/C6H12O3/c1-8-6-4-9-3-2-5(6)7/h5-7H,2-4H2,1H3/t5-,6+/m1/s1
