19
gdb 84003	2.22585	1.76068	1.43787	2.6178	70.69	-0.2319	0.0747	0.3066	1013.6327	0.15936	-460.144111	-460.135695	-460.134751	-460.176674	32.455	
C	-0.1218769591	 1.4463526398	-0.0426062866	-0.453545
C	 0.0734201276	-0.0457729854	-0.0025839031	 0.336241
O	-0.9848020489	-0.7568201364	-0.6171323984	-0.292
C	-1.6749472982	-1.5967364733	 0.2840722959	-0.00739
O	-0.8383481995	-2.5905415048	 0.7913674388	-0.234915
C	 0.1438095285	-2.0475252533	 1.6781666613	-0.10527
C	 0.7518054663	-0.7541998757	 1.1654115793	-0.190577
C	 1.420509128	-0.6972713003	-0.198696827	 0.088821
O	 1.5319171812	-1.8385041185	-0.9815900912	-0.430269
H	 0.7585173145	 1.962606551	 0.3514486691	 0.118658
H	-0.2839025961	 1.779947588	-1.0727029331	 0.132515
H	-0.9895754318	 1.7481769789	 0.5547001472	 0.119326
H	-2.1105559865	-0.9958042356	 1.1011165079	 0.086438
H	-2.4617295827	-2.0898279964	-0.2897429459	 0.120219
H	-0.3175035307	-1.8686099096	 2.661624291	 0.099081
H	 0.9029810647	-2.8265419833	 1.790197782	 0.12852
H	 1.1631440363	-0.1152728812	 1.9419902656	 0.092707
H	 2.2857282437	-0.0492062014	-0.3061220994	 0.098792
H	 0.6316610826	-2.0906182727	-1.2313964436	 0.292648
128.8876	160.4708	211.9894	219.8891	235.1575	299.5173	350.8999	389.4489	455.9626	497.7382	584.6526	619.5929	678.7439	781.5417	806.4238	835.3043	926.3957	945.219	978.0714	1030.8256	1054.2806	1073.3945	1101.3612	1124.3413	1139.3184	1170.7026	1200.0894	1231.4345	1267.8092	1275.6174	1323.4468	1339.0826	1375.7178	1404.7836	1416.7123	1434.2402	1468.5052	1480.9593	1494.7551	1501.2204	1510.9448	2953.7751	2986.095	3030.6678	3087.5904	3096.9772	3112.7107	3118.0229	3142.8933	3152.915	3743.8623
CC12OCOCC1C2O	C[C@]12OCOC[C@H]1[C@H]2O	
InChI=1S/C6H10O3/c1-6-4(5(6)7)2-8-3-9-6/h4-5,7H,2-3H2,1H3	InChI=1S/C6H10O3/c1-6-4(5(6)7)2-8-3-9-6/h4-5,7H,2-3H2,1H3/t4-,5+,6-/m0/s1
