19
gdb 91126	3.68486	1.43229	1.32414	2.8174	74.04	-0.2303	0.0753	0.3055	1012.9308	0.162222	-423.009509	-423.002591	-423.001647	-423.040568	28.648	
O	-0.0904349278	 1.3978098302	-0.0067529091	-0.443138
C	-0.030966531	-0.0217921111	 0.0155029156	 0.106418
C	 0.5147568713	-0.6144878265	 1.3557477257	-0.27957
C	-0.7463347335	-1.3178447289	 1.8517130031	-0.037815
C	-1.3310028512	-2.0371024622	 0.58446041	-0.087949
C	-2.7616983046	-2.3568266841	 1.0079263569	-0.097374
O	-3.1210136261	-1.1266567874	 1.6680268238	-0.284543
C	-1.9292225916	-0.3583676248	 1.5239896803	 0.128371
C	-1.4512880095	-0.5662296387	 0.0548602497	-0.036298
H	 0.8108360201	 1.7346172016	-0.0205473138	 0.28193
H	 0.5272709655	-0.3921763419	-0.8561077907	 0.063503
H	 1.3506266556	-1.3058265187	 1.2079207808	 0.095318
H	 0.8456096846	 0.1878035656	 2.0229774186	 0.098729
H	-0.7158712489	-1.8310212581	 2.8142840391	 0.065027
H	-0.7693000611	-2.8020762728	 0.0457920803	 0.066976
H	-3.4386533658	-2.5455241555	 0.1656383869	 0.099861
H	-2.8291010767	-3.1966737272	 1.7105035706	 0.099168
H	-2.0534175401	 0.624052457	 1.9748793364	 0.090821
H	-2.1090146094	-0.3185149166	-0.7787102442	 0.070564
137.1545	251.2299	279.9417	319.3015	363.4957	431.2049	474.9096	603.1753	688.8188	697.2971	792.6751	848.5345	902.6278	914.5877	947.6954	957.299	957.8818	963.2676	1003.2486	1016.1051	1026.4215	1047.2131	1051.1924	1087.3887	1105.5629	1163.1806	1164.4335	1196.5471	1216.2747	1231.5631	1247.2687	1255.86	1273.3165	1279.3046	1296.1456	1336.8581	1351.8365	1391.1157	1427.5278	1489.4259	1526.3008	2991.7067	3017.0407	3043.5196	3054.3013	3089.0973	3100.8612	3106.8022	3119.27	3150.4242	3819.0395
OC1CC2C3COC2C13	O[C@H]1C[C@@H]2[C@H]3CO[C@@H]2[C@@H]13	
InChI=1S/C7H10O2/c8-5-1-3-4-2-9-7(3)6(4)5/h3-8H,1-2H2	InChI=1S/C7H10O2/c8-5-1-3-4-2-9-7(3)6(4)5/h3-8H,1-2H2/t3-,4-,5+,6-,7+/m1/s1
