20
gdb 112796	2.25018	1.17754	0.85951	3.5842	77.12	-0.2346	-0.033	0.2016	1387.1253	0.16865	-440.262275	-440.2525	-440.251556	-440.29756	35.142	
C	 0.0603665221	 1.6033576509	 0.0092932975	-0.385766
C	-0.0616851031	 0.0817542685	-0.0029621922	-0.125762
N	 0.5169442884	-0.4954279943	-1.2038586454	-0.095395
C	-0.166546039	-0.3066920348	-2.5013056463	-0.211582
C	 0.3043726865	-1.7233400577	-2.9086787634	 0.123348
O	 1.4731334094	-1.7736511095	-3.6862601853	-0.428389
C	 0.494825846	-1.9594637185	-1.3648881678	-0.101688
C	 1.7419169048	-2.6918593697	-0.9251785774	 0.164107
O	 1.7662798191	-3.8492923384	-0.5970299444	-0.244768
H	 1.1088255815	 1.907182398	-0.0602338522	 0.125612
H	-0.4788306403	 2.0509822044	-0.8323064203	 0.121772
H	-0.3622261065	 2.0151935306	 0.9303289557	 0.119968
H	 0.4689654961	-0.3414658963	 0.8587829324	 0.108321
H	-1.124980524	-0.2095576108	 0.1052225196	 0.080929
H	-1.2636270199	-0.2412229049	-2.4136608624	 0.094025
H	 0.1943916413	 0.527166328	-3.1134514817	 0.106055
H	-0.4209021011	-2.3743940073	-3.3954521849	 0.108073
H	 2.0856368422	-1.1104220684	-3.3478734124	 0.291037
H	-0.3889572939	-2.4561127174	-0.9341199396	 0.079849
H	 2.6619033504	-2.0639168625	-0.9412219094	 0.070254
66.7689	84.7676	91.8288	178.886	197.5311	212.1067	260.3922	344.0715	364.6448	401.1711	449.5648	502.312	563.5517	680.2138	810.0869	825.3446	858.6148	939.7438	971.6633	998.4714	1021.4921	1044.3476	1088.1213	1118.3233	1144.2266	1147.7614	1191.6081	1201.8444	1238.1743	1245.5588	1288.3893	1301.8707	1324.8351	1339.3939	1392.7767	1408.0242	1416.494	1439.0507	1489.2408	1491.9094	1506.1319	1517.7648	1831.7601	2871.7389	2914.4818	2968.6521	2986.4108	3039.0069	3044.7938	3059.9287	3107.5927	3119.9003	3126.6921	3798.6881
CCN1CC(O)C1C=O	CCN1C[C@@H](O)[C@H]1C=O	
InChI=1S/C6H11NO2/c1-2-7-3-6(9)5(7)4-8/h4-6,9H,2-3H2,1H3	InChI=1S/C6H11NO2/c1-2-7-3-6(9)5(7)4-8/h4-6,9H,2-3H2,1H3/t5-,6-/m1/s1
