21
gdb 75501	2.58075	1.65544	1.23014	1.4296	84.02	-0.2268	0.0205	0.2473	1096.9497	0.184273	-387.078905	-387.070936	-387.069991	-387.110958	32.131	
C	 0.1072141181	 1.5795198128	 0.066890514	-0.487469
C	 0.0087016753	 0.077062177	 0.0347148172	 0.323263
C	-0.1592886634	-0.5889392276	-1.1119452687	-0.170271
C	-0.2664883216	-2.0854821078	-1.3053908478	-0.128694
O	-0.9107592614	-2.8557060818	-0.3011232598	-0.272223
C	-0.5560203816	-2.6669566211	 1.0560475194	 0.13844
C	-1.2328277075	-1.4215425865	 1.6944086138	-0.227537
C	 0.0718650119	-0.6195083485	 1.3770994304	-0.106314
C	 0.8143076701	-1.9890012342	 1.3262389348	-0.267127
H	 1.0586785983	 1.9022127999	 0.5092467735	 0.122887
H	 0.0291389045	 2.0155217775	-0.9324291706	 0.118814
H	-0.6853354547	 2.0134419797	 0.69080185	 0.124667
H	-0.1954669691	-0.022487848	-2.040837878	 0.080766
H	-0.8543255685	-2.2797874378	-2.2088054396	 0.112879
H	 0.7384523286	-2.4962162315	-1.505906436	 0.101611
H	-0.7382562452	-3.6305175974	 1.5398417984	 0.075603
H	-2.1599969717	-1.0841874102	 1.2276270586	 0.102525
H	-1.3821962314	-1.5508278921	 2.7708213049	 0.092872
H	 0.4056374115	 0.078392232	 2.1489742572	 0.059411
H	 1.1880598192	-2.2757210885	 2.3129109953	 0.100566
H	 1.6171970085	-2.114855046	 0.5973988528	 0.105331
115.4619	197.3907	215.6714	274.5614	321.1136	338.6624	375.4093	402.2158	481.9603	581.282	683.8142	747.7364	774.4911	797.7944	836.0365	867.8125	907.044	920.4545	937.205	994.0578	1023.7838	1041.3479	1057.6457	1066.0474	1091.1125	1118.9545	1139.5314	1162.0795	1183.4481	1225.3482	1254.5856	1270.4546	1278.121	1288.3036	1336.4792	1381.2763	1392.2385	1408.5367	1416.2844	1461.3461	1478.0389	1485.0521	1490.916	1503.6882	1732.3067	2946.8969	3012.1849	3050.4021	3057.6029	3059.8054	3061.7259	3067.2353	3077.586	3111.0369	3121.7406	3124.1802	3139.1691
CC1=CCOC2CC1C2	CC1=CCO[C@@H]2C[C@H]1C2	
InChI=1S/C8H12O/c1-6-2-3-9-8-4-7(6)5-8/h2,7-8H,3-5H2,1H3	InChI=1S/C8H12O/c1-6-2-3-9-8-4-7(6)5-8/h2,7-8H,3-5H2,1H3/t7-,8+
