22
gdb 101666	2.4283	0.9953	0.82684	4.5437	80.75	-0.2351	0.0374	0.2725	1502.6414	0.191406	-441.502621	-441.491425	-441.490481	-441.540026	38.568	
C	 0.0045516334	 1.4024521652	-0.0421221217	-0.238293
O	-0.0191499413	-0.0015147058	 0.0816396661	-0.241406
C	-1.3099853553	-0.5877266146	 0.0385244754	 0.134453
C	-1.8205277466	-0.7506751957	-1.394959004	-0.401539
C	-1.1725921647	-1.9463330779	 0.7421107395	-0.196069
N	-0.8639300069	-1.8481705684	 2.1538014049	-0.023589
C	-1.9411115669	-1.6054364392	 3.096231431	-0.348773
C	 0.429953414	-1.8612673446	 2.5922948744	 0.155985
O	 0.784053952	-1.7027358392	 3.7422350525	-0.348846
H	 1.0437950685	 1.7168346093	 0.0792455102	 0.134321
H	-0.3508157418	 1.7461746404	-1.0245044347	 0.10671
H	-0.6047777893	 1.8874192855	 0.7357604395	 0.109087
H	-2.015291596	 0.0418451064	 0.6062889502	 0.069082
H	-1.8758001681	 0.2134065334	-1.9074614668	 0.123145
H	-1.1518538339	-1.4019040861	-1.9670919868	 0.126634
H	-2.8239879299	-1.1884230898	-1.4027295959	 0.117541
H	-2.0967395398	-2.5224022323	 0.6163350598	 0.10531
H	-0.3695414746	-2.4997902905	 0.2430268804	 0.125561
H	-2.6839100223	-2.4107999142	 3.0492145459	 0.120982
H	-1.5035831949	-1.5682854392	 4.0939766257	 0.169375
H	-2.4505893605	-0.6547794101	 2.8965204428	 0.121082
H	 1.1373650648	-2.0514097024	 1.7646294713	 0.079249
46.3825	58.1671	82.1909	114.9705	146.6251	189.7094	211.8529	262.3576	282.1838	308.5367	339.1834	381.0319	398.6281	468.7172	521.2503	710.8508	817.8571	873.5576	912.1619	922.011	1023.6153	1075.2782	1090.1262	1115.2884	1120.7163	1158.143	1165.4308	1183.269	1210.4964	1265.4956	1289.0038	1332.0386	1380.068	1398.8558	1407.744	1430.7161	1438.9177	1443.7983	1472.5056	1479.7564	1484.0647	1495.211	1499.2396	1500.9216	1511.3348	1520.4455	1792.6527	2964.6395	2967.4915	2981.3795	3016.6391	3028.8946	3033.0718	3041.1562	3065.4179	3083.2656	3110.634	3117.0212	3118.6541	3156.006
COC(C)CN(C)C=O	CO[C@@H](C)CN(C)C=O	
InChI=1S/C6H13NO2/c1-6(9-3)4-7(2)5-8/h5-6H,4H2,1-3H3	InChI=1S/C6H13NO2/c1-6(9-3)4-7(2)5-8/h5-6H,4H2,1-3H3/t6-/m0/s1
