19
gdb 60934	2.91963	1.12456	0.95914	2.2525	76.22	-0.2426	-0.0274	0.2152	1270.5989	0.157461	-422.958848	-422.950131	-422.949186	-422.993368	32.053	
C	 0.0499155792	 1.4809842813	 0.1139061605	-0.410212
C	 0.1475650362	-0.0550886988	 0.0705496963	-0.127194
C	 0.8682110557	-0.558687284	 1.3094116577	 0.169728
O	 1.8428269606	-1.2643111575	 1.3048044354	-0.248807
C	-1.2471471052	-0.6854405932	 0.0382283185	 0.041335
C	-2.1585400944	-0.6942398107	-1.2272875609	 0.022865
C	-1.2766073514	-1.782041356	-1.8852970463	-0.231549
C	-1.5254773403	-2.15295411	-0.4034630888	 0.027813
O	-2.94682358	-1.7711458342	-0.5879828916	-0.306751
H	 1.0422153103	 1.9412794969	 0.1260184924	 0.131079
H	-0.487982227	 1.8564545754	-0.7613163331	 0.129566
H	-0.4907113508	 1.8164472171	 1.0059320476	 0.126353
H	 0.7460135304	-0.369144555	-0.7881935681	 0.097089
H	 0.4068057411	-0.2219028191	 2.2691549604	 0.072711
H	-1.8227460693	-0.4254832733	 0.9325093685	 0.087065
H	-2.7116076216	 0.1257731181	-1.6865941676	 0.095971
H	-1.8003347983	-2.413944636	-2.602825737	 0.114197
H	-0.2660279953	-1.5278109234	-2.2086911626	 0.105691
H	-1.3199723398	-3.0850808579	 0.1229681286	 0.10305
45.7001	56.743	161.1781	206.2345	210.1933	280.6143	384.1914	391.8778	472.658	563.4856	635.9468	729.4219	818.1809	861.215	885.444	887.9426	904.7294	925.0594	954.885	1009.0796	1012.9671	1053.5077	1078.9968	1111.9593	1139.2228	1154.2508	1165.4412	1172.5063	1204.3508	1224.3914	1252.5698	1272.6884	1287.4632	1315.3067	1399.3093	1407.3043	1428.6136	1495.4124	1496.2755	1500.2257	1834.7919	2842.9929	3035.6831	3064.193	3077.0481	3088.3049	3107.9321	3112.9907	3115.5742	3123.3599	3156.7943
CC(C=O)C1C2CC1O2	C[C@@H](C=O)[C@H]1[C@H]2C[C@@H]1O2	
InChI=1S/C7H10O2/c1-4(3-8)7-5-2-6(7)9-5/h3-7H,2H2,1H3	InChI=1S/C7H10O2/c1-4(3-8)7-5-2-6(7)9-5/h3-7H,2H2,1H3/t4-,5-,6+,7+/m0/s1
