17
gdb 66608	4.19164	1.6012	1.47211	1.2196	74.67	-0.2275	0.0166	0.2441	907.4554	0.138066	-384.631536	-384.625231	-384.624287	-384.661683	27.269	
O	-0.1164809174	 1.4160964927	-0.0085679787	-0.456473
C	 0.0155054512	 0.0522238312	-0.0059885306	 0.368981
C	 0.0516654075	-0.9957437193	 1.0740035766	-0.171354
C	-1.0454881716	-0.9947664806	-0.0202881081	-0.125959
C	-0.3993287278	-1.7831956187	-1.2083875437	-0.062051
C	-0.0579743371	-3.2096083311	-0.8647762779	-0.08919
C	 0.8946174852	-3.2053657813	 0.0769843037	-0.087977
C	 1.2354378361	-1.7757681851	 0.411249209	-0.066443
C	 0.8819819202	-0.9537452633	-0.8703004733	-0.156242
H	 0.6639452938	 1.7998679862	 0.4074556201	 0.288281
H	-0.2113482967	-0.9271595154	 2.1216339229	 0.086982
H	-2.091204007	-0.9087894819	 0.2436839459	 0.089925
H	-0.8721534303	-1.5889649984	-2.1710585114	 0.067327
H	-0.5846825538	-4.0769261909	-1.2453606167	 0.092887
H	 1.2861563344	-4.0683761314	 0.6027303962	 0.092532
H	 2.2044090783	-1.5810656513	 0.872411642	 0.059882
H	 1.6295081451	-0.7225425614	-1.6280373659	 0.06889
232.1805	269.4321	331.064	415.0941	439.5196	566.4585	589.759	698.2463	722.9564	730.9124	747.5511	818.4017	845.6387	875.5733	898.1774	915.4574	944.0198	944.7589	949.4306	983.7195	994.2543	995.5396	1037.1818	1095.0199	1120.691	1124.8604	1149.1804	1165.1762	1204.2	1237.8708	1253.31	1272.6491	1293.2882	1317.6918	1359.7852	1496.2932	1637.6795	3103.3248	3112.3457	3127.3679	3186.2864	3197.3489	3207.6146	3211.8565	3784.646
OC12C3C1C1C=CC3C21	O[C@@]12[C@H]3[C@@H]1[C@@H]1C=C[C@H]3[C@H]21	
InChI=1S/C8H8O/c9-8-5-3-1-2-4(5)7(8)6(3)8/h1-7,9H	InChI=1S/C8H8O/c9-8-5-3-1-2-4(5)7(8)6(3)8/h1-7,9H/t3-,4+,5-,6+,7-,8-
