21
gdb 73367	2.46927	2.09055	1.579	1.4558	80.71	-0.2335	0.0914	0.3249	951.4309	0.185561	-387.092834	-387.085792	-387.084848	-387.123667	30.134	
C	 0.045516219	 1.4621819453	-0.0918862603	-0.480834
C	-0.0134518536	-0.0421223948	 0.0340254345	 0.443387
C	-1.4245107586	-0.7027741848	 0.153574744	-0.267017
C	-1.0288488258	-1.849703938	 1.105689688	-0.04244
C	-0.4203993921	-1.0408009957	 2.2840072737	-0.242964
C	 0.6831028708	-0.7212458175	 1.250382463	-0.071109
C	 0.4535071242	-2.1408156574	 0.6580043723	-0.032587
C	 0.7660893653	-2.0256163779	-0.8312895204	-0.118754
O	 0.6426937366	-0.6244416372	-1.1066856519	-0.308517
H	 1.082510298	 1.797132886	-0.1888621523	 0.122189
H	-0.5043751433	 1.7983148741	-0.9764165806	 0.123731
H	-0.3960712469	 1.9394233017	 0.7882009687	 0.114057
H	-2.1781692017	-0.0466138956	 0.6002496346	 0.091051
H	-1.7806065064	-1.0199362287	-0.8298114114	 0.102098
H	-1.7489394736	-2.6525705212	 1.2673295909	 0.059234
H	-1.0120834561	-0.2180551374	 2.6981478017	 0.087859
H	-0.0500021275	-1.6742375294	 3.094166212	 0.096774
H	 1.6705948818	-0.3445329067	 1.5179882302	 0.060858
H	 0.9231246154	-2.9701196039	 1.187282769	 0.071329
H	 1.7881829144	-2.3434214454	-1.0706197582	 0.099808
H	 0.0748262101	-2.6081151453	-1.4575958075	 0.091848
215.5383	227.6415	254.6575	302.7335	394.2726	446.0427	483.9975	579.0071	597.4082	720.8739	742.905	793.7738	815.1892	856.1424	878.2823	896.1327	937.439	939.8643	968.1262	986.4889	1011.1899	1024.7772	1031.1879	1067.7991	1075.6759	1079.5648	1149.6978	1170.7375	1186.5062	1188.6903	1214.0415	1228.3939	1237.8313	1265.6352	1272.039	1298.157	1328.3395	1350.6877	1373.5896	1413.0666	1481.0233	1493.5413	1495.9659	1513.7573	1525.1973	2995.0703	3038.3507	3042.1963	3044.8047	3050.7465	3100.9066	3103.1321	3106.8539	3109.4373	3110.4129	3115.0575	3121.2001
CC12CC3CC1C3CO2	C[C@]12C[C@@H]3C[C@H]1[C@@H]3CO2	
InChI=1S/C8H12O/c1-8-3-5-2-7(8)6(5)4-9-8/h5-7H,2-4H2,1H3	InChI=1S/C8H12O/c1-8-3-5-2-7(8)6(5)4-9-8/h5-7H,2-4H2,1H3/t5-,6+,7-,8-/m0/s1
