23
gdb 111806	2.73234	1.37349	1.3194	1.0046	84.18	-0.2441	0.0779	0.3221	1142.4014	0.208971	-388.307104	-388.298816	-388.297872	-388.33987	32.801	
C	-0.0133757759	 1.3063222763	-0.1915259171	-0.241608
O	-0.0495250194	-0.0297254148	 0.2526211849	-0.262106
C	-1.3100271718	-0.6455027756	 0.1143298742	 0.171917
C	-1.689743799	-1.1106828401	-1.3159925351	-0.043838
C	-0.5679032456	-2.1301226327	-1.6180336087	-0.202973
C	-0.2952114332	-2.7863784181	-0.2258476597	-0.202954
C	-1.2970966063	-2.0666469006	 0.7057956811	-0.036707
C	-2.7255892963	-2.5411683725	 0.364583072	-0.217751
C	-2.9999463628	-1.8744366282	-1.0265955337	-0.216977
H	 0.9855103555	 1.6935000388	 0.0251334792	 0.12445
H	-0.1974663347	 1.3950756044	-1.272383656	 0.106439
H	-0.7550880435	 1.9285797667	 0.3342333993	 0.102158
H	-2.0894099994	-0.007610604	 0.562240823	 0.050412
H	-1.7968264831	-0.3272986358	-2.0689937948	 0.052293
H	-0.8780180863	-2.85535254	-2.3762276146	 0.087673
H	 0.32695629	-1.6267186666	-1.9915181371	 0.099479
H	-0.4551770216	-3.8687021011	-0.2286997575	 0.086387
H	 0.7316760796	-2.6024310336	 0.0964850877	 0.10662
H	-1.0439720891	-2.1257485198	 1.7656553407	 0.058482
H	-2.7896780657	-3.6323382501	 0.3281353305	 0.095618
H	-3.4466965818	-2.2007538005	 1.1140240094	 0.093753
H	-3.8518178136	-1.1893660809	-0.972801289	 0.093089
H	-3.2238930758	-2.604863051	-1.8092597186	 0.096145
88.6558	164.0019	166.7515	191.5431	279.8119	320.3028	370.8803	442.9905	530.4532	580.4828	752.7869	771.5352	797.1258	839.0778	847.1513	883.2727	898.3972	926.3768	957.1358	971.6913	999.1297	1019.645	1036.4719	1049.3872	1095.9119	1125.7273	1145.8522	1172.7843	1182.9543	1188.5241	1212.4473	1237.2497	1241.1019	1262.742	1286.4849	1290.46	1306.8535	1318.7038	1333.4912	1352.8951	1357.1393	1402.3459	1479.632	1482.2086	1488.8564	1492.8548	1497.8857	1509.5289	1516.7546	2968.512	2976.868	3022.5404	3042.5937	3050.7099	3053.2991	3060.9575	3077.6809	3089.1857	3094.5276	3098.6641	3101.2657	3110.0795	3114.1352
COC1C2CCC1CC2	CO[C@H]1[C@H]2CC[C@@H]1CC2	
InChI=1S/C8H14O/c1-9-8-6-2-3-7(8)5-4-6/h6-8H,2-5H2,1H3	InChI=1S/C8H14O/c1-9-8-6-2-3-7(8)5-4-6/h6-8H,2-5H2,1H3/t6-,7+,8-
