14
gdb 48682	3.79459	1.26362	1.1103	3.5597	62.75	-0.2802	-0.0568	0.2233	1052.7011	0.100851	-473.842395	-473.835007	-473.834063	-473.874703	26.882	
O	-0.4769209342	 0.4924891416	-0.7143607229	-0.246784
C	 0.1123704381	 0.9773315096	 0.2172477467	 0.099007
C	 1.3173459499	 1.8411974693	 0.0570494473	 0.195239
C	 1.5923980842	 2.9389180649	 1.0267495673	-0.291576
N	 2.3842085971	 1.6987458032	 1.0780592675	-0.202786
C	 3.6257788343	 1.8324553409	 0.3529989988	 0.466193
O	 4.7096555647	 1.8095981838	 0.8401347946	-0.326495
O	 3.400780753	 1.9824465253	-0.9821451349	-0.230117
C	 2.0040081903	 1.9152108817	-1.2957182714	-0.162843
H	-0.2022894762	 0.8203592217	 1.2703016521	 0.103226
H	 2.0646650754	 3.8381248849	 0.6392207097	 0.155233
H	 0.9383388638	 3.0859834702	 1.8806294889	 0.148856
H	 1.7989011177	 1.0139617247	-1.8788857003	 0.153821
H	 1.7346643319	 2.7940187283	-1.8868636235	 0.139027
86.5611	147.8873	191.508	204.2138	341.6523	367.4788	468.7029	517.1753	673.8865	699.0651	763.8082	805.2349	821.7601	857.4473	931.1329	973.2554	1019.054	1069.1597	1078.1988	1090.5856	1130.753	1155.9051	1213.5963	1313.353	1330.8214	1398.8778	1425.4324	1500.7761	1524.9157	1822.6576	1913.3574	2919.9044	3069.2453	3113.9976	3118.0012	3209.1802
O=CC12CN1C(=O)OC2	O=C[C@@]12CN1C(=O)OC2	
InChI=1S/C5H5NO3/c7-2-5-1-6(5)4(8)9-3-5/h2H,1,3H2	InChI=1S/C5H5NO3/c7-2-5-1-6(5)4(8)9-3-5/h2H,1,3H2/t5-,6?/m1/s1
