23
gdb 96174	2.12072	1.81649	1.12982	1.6354	84.88	-0.2393	0.0777	0.317	1168.6505	0.208452	-388.296957	-388.28857	-388.287626	-388.329777	33.22	
C	 0.048583802	 1.5722815294	 0.0145094648	-0.403201
C	 0.0653642361	 0.0395122222	-0.0162547488	 0.000516
C	 0.6313775899	-0.5212214758	-1.3303552705	-0.191244
C	 0.7235974075	-2.0509553487	-1.284922589	-0.208305
C	 1.7314227051	-2.4899149985	-0.214464771	-0.204771
C	 1.403356877	-1.9419862685	 1.1879655103	-0.070126
C	 2.5895300366	-1.2331428404	 1.874788921	-0.083082
O	 2.100617228	 0.0580663696	 1.454102502	-0.298139
C	 0.7890186778	-0.5158013531	 1.2055118135	 0.157131
H	 1.0691155014	 1.9653607297	-0.000443281	 0.136574
H	-0.4888986063	 1.9731634167	-0.8509159512	 0.10621
H	-0.4403423955	 1.9479216273	 0.919690196	 0.10924
H	-0.9716845309	-0.3208000401	 0.0677822061	 0.068534
H	-0.0017447885	-0.1947690821	-2.1633918194	 0.086724
H	 1.6302602575	-0.101577024	-1.5095735693	 0.101385
H	-0.2683437174	-2.4740297201	-1.0723127733	 0.08927
H	 1.0280449378	-2.4467393229	-2.2600970619	 0.09139
H	 1.8051550769	-3.5820839959	-0.1754651184	 0.092151
H	 2.7203604225	-2.126673049	-0.520882155	 0.101465
H	 0.868516287	-2.6817901104	 1.7883773013	 0.068343
H	 2.5946423741	-1.3229528077	 2.970804491	 0.090114
H	 3.5942929041	-1.4415045797	 1.4900895754	 0.100546
H	 0.1586071374	-0.3658126978	 2.0972542172	 0.059275
95.3878	123.9763	211.8924	226.4194	283.2535	321.1821	376.5525	406.1511	441.8698	551.0209	600.4739	739.7869	789.2681	826.1528	849.6032	881.4522	914.4869	943.2117	967.4946	980.0292	1000.9481	1006.5314	1048.2686	1057.556	1091.6199	1115.4171	1149.8944	1153.5443	1177.8902	1201.7814	1224.4286	1258.7399	1272.3447	1300.3502	1322.4143	1337.8931	1360.5345	1362.6608	1374.8116	1378.3414	1390.382	1401.5878	1417.0168	1482.4914	1489.541	1493.8089	1499.3694	1504.8028	1520.3723	2957.7319	2987.6253	2995.1673	3010.0142	3020.6578	3024.0038	3034.2157	3058.4026	3059.4202	3062.8865	3066.4641	3083.2629	3098.3559	3116.7765
CC1CCCC2COC12	C[C@H]1CCC[C@H]2CO[C@@H]12	
InChI=1S/C8H14O/c1-6-3-2-4-7-5-9-8(6)7/h6-8H,2-5H2,1H3	InChI=1S/C8H14O/c1-6-3-2-4-7-5-9-8(6)7/h6-8H,2-5H2,1H3/t6-,7-,8-/m0/s1
