18
gdb 79791	3.74032	1.71271	1.58223	1.8297	73.26	-0.232	0.0645	0.2965	889.1795	0.151043	-401.879062	-401.872834	-401.871889	-401.909339	26.664	
O	 0.1244168291	 1.4240483138	 0.1870400955	-0.448926
C	 0.0084203467	 0.0363127394	 0.0260795919	 0.173943
C	-1.3828849526	-0.637224675	-0.1475650043	-0.107148
C	-1.9595316167	 0.047805428	-1.3890715008	-0.012737
C	-2.7246169636	-1.0238503649	-2.1863773961	-0.249647
C	-1.3169313626	-1.5869068047	-2.3705289912	 0.004451
C	-0.6653393997	-1.7858386587	-0.9818773592	-0.07315
C	 0.3227617828	-0.6333547451	-1.3091204602	-0.066582
N	-0.7335416447	-0.165735027	-2.3165533623	-0.18263
H	-0.1490459221	 1.8437744286	-0.6359881668	 0.294724
H	 0.5729932961	-0.4312179114	 0.8386506516	 0.091391
H	-2.0420312972	-0.8332090361	 0.6970698128	 0.070667
H	-2.3356824454	 1.0666039747	-1.2868871561	 0.071324
H	-3.4754700918	-1.621573033	-1.6636529064	 0.098457
H	-3.1264128757	-0.6304339729	-3.1229702398	 0.11396
H	-1.0242485271	-2.2355468435	-3.1968542219	 0.07684
H	-0.4194074365	-2.7354435272	-0.5105308465	 0.06961
H	 1.3203774407	-0.7293490949	-1.7352834501	 0.075453
167.6763	267.7941	331.0585	392.6269	532.352	551.0779	694.9396	740.0902	760.7984	777.1231	800.0301	838.8484	866.885	881.9188	910.6358	931.907	969.1007	970.4819	989.0135	1010.8953	1023.2491	1046.5255	1087.1575	1113.4303	1117.176	1158.1117	1169.3333	1190.5722	1207.2317	1221.9521	1238.9851	1252.6316	1266.6475	1282.6443	1297.0674	1321.546	1331.6088	1436.094	1482.2345	3063.565	3074.4044	3102.2958	3109.3077	3123.3249	3125.7638	3126.4644	3137.9375	3807.7015
OC1C2C3CC4C2C1N34	O[C@H]1[C@H]2[C@@H]3C[C@@H]4[C@H]2[C@H]1N34	
InChI=1S/C7H9NO/c9-7-5-3-1-2-4(5)6(7)8(2)3/h2-7,9H,1H2	InChI=1S/C7H9NO/c9-7-5-3-1-2-4(5)6(7)8(2)3/h2-7,9H,1H2/t2-,3+,4-,5+,6-,7+/m1/s1
