18
gdb 66324	2.44903	1.47391	1.32891	2.0539	78.25	-0.2486	0.0166	0.2651	1067.5623	0.147412	-401.930023	-401.921509	-401.920565	-401.962822	32.781	
C	-0.028295837	 1.5480010286	 0.0136037515	-0.410892
C	 0.0144522545	 0.0093882726	-0.0052160837	 0.058697
C	 0.7365700558	-0.50516247	-1.2731152581	-0.251126
C	 1.0294153535	-1.9880660699	-1.1134690572	-0.08491
O	 1.7777816908	-2.2361623034	 0.0893443933	-0.223589
C	 1.5038893465	-1.4262175634	 1.1337147961	 0.130615
N	 0.7323112484	-0.425121648	 1.2135111997	-0.276687
C	-1.3557927227	-0.5206591711	 0.0382691335	 0.401647
C	-2.4773692364	-0.9533738159	 0.0499677577	-0.518032
H	 0.9918604548	 1.9427101199	 0.0039142245	 0.116965
H	-0.5694376331	 1.931466036	-0.8560696746	 0.116317
H	-0.5239421679	 1.8929172279	 0.9230954845	 0.136953
H	 0.130744516	-0.3355824964	-2.1675127678	 0.115553
H	 1.6753675735	 0.0480667341	-1.3875041866	 0.111866
H	 0.0962076901	-2.5605261672	-1.0620237705	 0.130035
H	 1.6398337918	-2.3815716548	-1.9291027292	 0.119695
H	 2.0809566288	-1.7405189165	 2.0020840594	 0.128231
H	-3.4686392873	-1.3337254026	 0.0771497374	 0.198662
87.9858	152.8417	185.8161	248.4831	269.6987	315.798	355.5982	410.6197	508.4776	510.9955	588.5901	606.6036	633.7734	643.0344	686.7486	794.7901	862.9471	889.3953	920.5797	976.869	993.542	1021.1141	1048.4264	1122.9646	1159.2786	1195.9199	1221.8237	1277.2377	1280.4593	1356.9856	1398.7973	1403.5593	1415.2198	1471.4986	1482.9326	1492.6	1506.2161	1716.0233	2230.5421	3042.3716	3045.1525	3048.6977	3101.3914	3110.7161	3120.3798	3138.157	3154.6413	3499.9282
CC1(CCOC=N1)C#C	C[C@]1(CCOC=N1)C#C	
InChI=1S/C7H9NO/c1-3-7(2)4-5-9-6-8-7/h1,6H,4-5H2,2H3	InChI=1S/C7H9NO/c1-3-7(2)4-5-9-6-8-7/h1,6H,4-5H2,2H3/t7-/m1/s1
