23
gdb 98457	2.14272	1.25191	0.93192	2.618	86.49	-0.2389	-0.0065	0.2324	1396.8064	0.203701	-388.311767	-388.301298	-388.300354	-388.347518	38.587	
C	-1.3798715135	 1.7523341542	-1.0343684216	-0.377092
C	-1.3066310267	 0.2290171393	-1.1087371256	-0.299774
C	-1.8240344269	-0.4587819736	 0.1503086792	 0.318865
O	-2.2371437949	 0.1938849665	 1.0878947035	-0.327011
C	-1.88161164	-1.9666154099	 0.1679664762	 0.26289
C	-1.0197860099	-2.7743443622	-0.7928267784	-0.282392
C	 0.4675141169	-2.8100998519	-0.4145625064	-0.379615
C	-2.2133581124	-2.5835448174	 1.5128804559	-0.284246
C	-3.2895304564	-2.4860058105	 0.481956954	-0.293635
H	-1.0010765084	 2.201329426	-1.9570047194	 0.105622
H	-2.4086051023	 2.0873880966	-0.8811436065	 0.130149
H	-0.78973287	 2.1302596528	-0.1958181945	 0.130846
H	-1.8869184258	-0.1523582392	-1.9604965572	 0.123963
H	-0.278081796	-0.1036797069	-1.2961853534	 0.125664
H	-1.4012126178	-3.802059445	-0.8111895997	 0.096039
H	-1.1359039729	-2.3986263888	-1.8160932865	 0.099656
H	 0.605750623	-3.2382481889	 0.5832522245	 0.122674
H	 1.0368056761	-3.4180393674	-1.124507461	 0.114815
H	 0.9128632673	-1.8100346763	-0.4039845819	 0.119627
H	-1.7858211192	-3.5585149811	 1.7205226268	 0.110231
H	-2.2635382827	-1.9010577959	 2.3523047051	 0.138623
H	-4.0630946147	-1.7420159791	 0.6329248153	 0.130665
H	-3.6059653731	-3.3842277015	-0.0376508783	 0.113436
51.7257	72.2473	130.5889	173.8584	193.9307	215.2218	221.3377	274.3611	320.2043	330.7668	419.5795	446.6331	552.4097	588.6082	709.9666	779.6654	795.2156	808.043	849.715	874.2581	936.2262	956.4609	994.9581	1017.5747	1036.7024	1069.0674	1083.1234	1089.8425	1100.5082	1115.6223	1126.1685	1204.8711	1268.0834	1280.2953	1300.8712	1337.4497	1371.4871	1384.8493	1412.623	1415.3193	1448.8729	1454.3022	1481.4716	1492.1712	1492.3778	1496.7249	1498.3319	1506.9635	1774.8885	3021.4002	3030.5198	3037.3942	3051.0473	3055.2356	3060.9906	3105.0306	3108.9182	3121.7153	3128.9901	3132.9096	3140.5466	3222.9289	3240.0311
CCC(=O)C1(CC)CC1	CCC(=O)C1(CC)CC1	
InChI=1S/C8H14O/c1-3-7(9)8(4-2)5-6-8/h3-6H2,1-2H3	InChI=1S/C8H14O/c1-3-7(9)8(4-2)5-6-8/h3-6H2,1-2H3
