18
gdb 126686	3.15956	1.20707	0.95242	4.4249	75.1	-0.2062	-0.03	0.1762	1244.1381	0.146692	-435.23231	-435.223251	-435.222307	-435.266812	32.273	
C	 0.0255949838	 1.5070020407	-0.0900160639	-0.385621
C	 0.0367812933	-0.0261560157	 0.0009420599	-0.164451
N	 0.6385475447	-0.7097152149	-1.1350720054	-0.155843
C	 2.0900668852	-0.6986380207	-1.2378564448	-0.344949
C	-0.0988822911	-0.7910092588	-2.2916894167	 0.359125
C	-1.4166247494	-0.5379879234	-2.5584680092	-0.085324
O	-1.6467941342	-0.8565170233	-3.8467621751	-0.159948
N	-0.4384766299	-1.2970391512	-4.3820833044	-0.003135
N	 0.4446010316	-1.2511307409	-3.4750108825	-0.221639
H	 1.0424706002	 1.9074394412	-0.1420077086	 0.127644
H	-0.5176043385	 1.8488594557	-0.9759946088	 0.128967
H	-0.4593382482	 1.9355027664	 0.7926779514	 0.121601
H	 0.5844113976	-0.3399416597	 0.8964012147	 0.112102
H	-0.9861590983	-0.4037745924	 0.1189142166	 0.112665
H	 2.5115908629	-0.9627037819	-0.2637062153	 0.122892
H	 2.4097731087	-1.4390153433	-1.9715382611	 0.163184
H	 2.4977314689	 0.2778357737	-1.5405950623	 0.117838
H	-2.2491435873	-0.1628448616	-1.9919419442	 0.154893
60.2175	87.4722	127.3148	149.262	197.0564	251.8126	309.9966	376.356	424.7436	524.2162	605.6363	634.6402	705.7292	741.5125	772.5923	794.6126	886.611	975.1308	1006.4897	1055.0874	1085.7045	1104.6404	1128.2751	1153.036	1208.7255	1234.5623	1297.6585	1359.0803	1382.9839	1388.4964	1405.8696	1442.2715	1461.573	1485.2434	1488.6265	1494.554	1508.1278	1518.2723	1661.1269	2988.5701	3029.3991	3041.0655	3068.1364	3082.9468	3112.1693	3117.6429	3147.5182	3307.7111
CCN(C)C1=CON=N1	CCN(C)c1conn1	
InChI=1S/C5H9N3O/c1-3-8(2)5-4-9-7-6-5/h4H,3H2,1-2H3	InChI=1S/C5H9N3O/c1-3-8(2)5-4-9-7-6-5/h4H,3H2,1-2H3
