20
gdb 117494	2.8654	0.96811	0.77069	1.5634	79.46	-0.2365	0.0152	0.2517	1531.8484	0.168471	-440.259904	-440.24966	-440.248716	-440.296117	35.679	
C	-0.2549906432	 1.5902000065	 0.1065252005	-0.39081
C	-0.0351710381	 0.0885265226	 0.0976283972	-0.027821
O	 0.4682930417	-0.2642549361	-1.1968327788	-0.262241
C	 0.7444328965	-1.5769782485	-1.413069864	 0.382588
N	 0.5449402037	-2.4362004908	-0.5111635721	-0.323438
C	 0.8066564575	-3.8559736315	-0.6617539556	-0.346025
C	 1.2937154343	-1.6586127451	-2.8141035344	 0.01121
C	 2.6036459518	-2.2614044526	-3.1186706276	-0.179944
O	 1.3896900982	-2.9126443088	-3.4837189669	-0.219421
H	 0.6815644398	 2.1238106218	-0.0795482905	 0.124972
H	-0.97575423	 1.8844603616	-0.6618307493	 0.12619
H	-0.6425513317	 1.9037569564	 1.0804931018	 0.119304
H	 0.6829492096	-0.2268439894	 0.8622707847	 0.112993
H	-0.9622011019	-0.4638677499	 0.2846786419	 0.11551
H	-0.0827044616	-4.4077335182	-0.3363627767	 0.124096
H	 1.0645705919	-4.178198781	-1.6725077856	 0.144488
H	 1.6128227962	-4.1434747605	 0.0250737364	 0.117792
H	 0.9586650156	-0.8353990936	-3.4422517432	 0.115235
H	 3.1919679985	-1.8672880963	-3.9452353888	 0.127761
H	 3.1682337313	-2.7393781967	-2.320302529	 0.127561
43.9892	74.6785	116.4019	131.9092	152.249	235.8143	250.0258	264.7661	307.1827	329.4804	374.5573	423.2938	690.732	696.7276	768.589	810.5884	866.135	907.1595	928.9566	1005.0066	1056.0319	1092.5471	1105.9886	1141.1997	1147.91	1158.6665	1169.0866	1177.3992	1184.4772	1237.7792	1285.3184	1296.219	1386.0298	1414.4761	1432.6423	1449.2867	1486.3363	1494.1639	1496.9742	1513.5076	1521.3041	1526.5263	1771.2245	3019.9729	3043.7289	3044.5077	3065.8952	3078.4679	3092.2142	3118.673	3122.3355	3124.1034	3132.5261	3184.6519
CCOC(=NC)C1CO1	CCOC(=NC)[C@H]1CO1	
InChI=1S/C6H11NO2/c1-3-8-6(7-2)5-4-9-5/h5H,3-4H2,1-2H3	InChI=1S/C6H11NO2/c1-3-8-6(7-2)5-4-9-5/h5H,3-4H2,1-2H3/t5-/m1/s1
