18
gdb 83912	2.61811	1.41055	1.2187	4.9425	76.53	-0.2693	0.0326	0.3019	1088.7021	0.149214	-401.963974	-401.955734	-401.95479	-401.996592	31.405	
O	-0.4284198078	 1.5186079961	 0.0319526848	-0.413063
C	-0.1831085906	 0.1463151524	 0.0447970073	 0.054303
C	-0.4497330088	-0.7247416809	 1.242721537	-0.134427
C	-1.2579715254	-0.1759987146	 2.4088729893	-0.227391
C	-2.5152463195	 0.4848751452	 1.793657664	-0.219206
C	-2.7425806701	-0.211661584	 0.4319534215	-0.270135
C	-1.3815291769	-0.7806643984	 0.0170452571	 0.148896
C	-1.3589943369	-1.8876893203	-0.8955405905	 0.207512
N	-1.3447196471	-2.7829959062	-1.6290171297	-0.350599
H	 0.2837493885	 1.9544633921	 0.5124582315	 0.296635
H	 0.6464671905	-0.1700012998	-0.5869642375	 0.111909
H	 0.2460953019	-1.5360410046	 1.4268461187	 0.107595
H	-1.5330825002	-1.0124485183	 3.0603099998	 0.114442
H	-0.6838949219	 0.5273610471	 3.0219399318	 0.102472
H	-3.3859874207	 0.3876174768	 2.4470155276	 0.101971
H	-2.3352272002	 1.5477260311	 1.633735998	 0.122707
H	-3.4444112364	-1.046297912	 0.5248062172	 0.120932
H	-3.1443148884	 0.4723134982	-0.3200088977	 0.125449
130.2855	162.5315	175.4693	196.9605	237.9548	250.5801	430.8056	471.3648	535.1123	555.3064	575.7847	676.4908	702.6629	784.3186	846.0419	868.6066	908.5774	931.2871	988.626	1010.252	1058.5733	1085.5094	1101.8363	1112.93	1187.2916	1205.0359	1235.4586	1252.9129	1270.906	1295.994	1321.7996	1337.6642	1349.2665	1375.8128	1456.4617	1485.9093	1490.0866	1512.4006	2347.333	3040.6953	3056.6284	3074.3355	3076.8231	3100.3449	3109.5174	3136.787	3174.1927	3805.9933
OC1C2CCCC12C#N	O[C@H]1[C@H]2CCC[C@@]12C#N	
InChI=1S/C7H9NO/c8-4-7-3-1-2-5(7)6(7)9/h5-6,9H,1-3H2	InChI=1S/C7H9NO/c8-4-7-3-1-2-5(7)6(7)9/h5-6,9H,1-3H2/t5-,6+,7+/m1/s1
