13
gdb 20672	3.47351	1.96523	1.26493	3.3284	67.81	-0.2604	-0.0348	0.2255	896.9207	0.094622	-361.429049	-361.42175	-361.420806	-361.460809	26.379	
C	-0.0358779945	 1.514089992	 0.0425371161	-0.513505
C	-0.011682677	 0.0214865212	-0.0029276922	 0.063261
C	-0.0234035311	-0.8191510884	-1.0672294339	-0.013528
O	 0.0086112899	-2.1029729319	-0.6687450155	-0.159508
N	 0.0431556431	-2.1519277754	 0.7097787268	-0.205096
C	 0.0314064456	-0.8907356777	 1.1056190099	 0.19381
C	 0.0589619178	-0.5494487759	 2.4810606153	 0.26513
C	 0.0809662515	-0.2054469662	 3.6333220286	-0.408603
H	 0.8569628219	 1.9099327958	 0.5377806662	 0.144999
H	-0.0807896063	 1.9372255165	-0.9638731172	 0.13143
H	-0.9025004593	 1.8789043144	 0.6036124892	 0.145052
H	-0.0526790771	-0.6584411129	-2.133953465	 0.153596
H	 0.1011747258	 0.0788664785	 4.6564734017	 0.202962
92.0411	132.5823	172.6106	270.4956	304.0871	464.4675	529.4098	587.3982	612.1657	620.8437	672.8933	694.1766	742.0315	831.3775	930.8885	964.2995	1018.8114	1070.1803	1144.6773	1202.1159	1294.8565	1395.2966	1423.0466	1474.203	1480.7984	1496.9914	1645.3742	2243.4264	3039.3528	3094.1171	3122.3317	3264.4532	3502.4412
CC1=CON=C1C#C	Cc1conc1C#C	
InChI=1S/C6H5NO/c1-3-6-5(2)4-8-7-6/h1,4H,2H3	InChI=1S/C6H5NO/c1-3-6-5(2)4-8-7-6/h1,4H,2H3
