15
gdb 22139	5.3344	0.5862	0.53161	3.3478	82.26	-0.2441	-0.04	0.2041	1934.3643	0.109669	-416.752516	-416.742456	-416.741512	-416.790322	33.658	
C	 0.9706292026	 0.9560210082	 0.1160539556	-0.479636
C	-0.179630797	-0.0204572051	 0.1004798332	 0.199545
N	-1.0633053642	-0.1161596458	 1.0332087208	-0.152677
O	-0.8108100166	 0.8001555127	 2.0498882398	-0.387233
C	-0.3252532001	-0.9079482876	-1.0040467966	-0.010308
C	-0.3886980346	-1.6285712066	-1.9673213281	 0.191807
C	-0.4952207361	-2.5167735799	-3.1204180958	-0.48277
C	 0.5710015127	-2.3062812677	-4.1089052334	 0.280914
N	 1.4038648623	-2.1500209105	-4.8928401606	-0.297168
H	 1.5893346811	 0.7912982157	 1.0036421526	 0.153992
H	 1.584054197	 0.8515580978	-0.7784522753	 0.139763
H	 0.5909700068	 1.9804671383	 0.1801423727	 0.153993
H	-1.5290439735	 0.6254780855	 2.668110075	 0.314744
H	-0.4649509532	-3.5665707469	-2.8000030012	 0.187516
H	-1.4619529274	-2.379137388	-3.6225556686	 0.187518
13.04	53.2295	58.9904	120.8971	144.2918	278.7958	287.7895	340.1738	372.7481	404.4744	426.8703	489.5364	549.7279	574.6497	618.2859	764.6904	910.5925	932.4491	960.9265	1046.2831	1049.1214	1062.3113	1230.827	1293.2158	1337.5925	1398.9022	1407.9358	1445.1725	1475.4736	1482.867	1668.9937	2361.5417	2373.978	3023.1448	3049.1451	3052.6162	3107.7953	3157.0061	3813.1006
CC(=NO)C#CCC#N	CC(=NO)C#CCC#N	
InChI=1S/C6H6N2O/c1-6(8-9)4-2-3-5-7/h9H,3H2,1H3	InChI=1S/C6H6N2O/c1-6(8-9)4-2-3-5-7/h9H,3H2,1H3
