15
gdb 29884	3.3036	1.40124	0.99003	7.463	71.73	-0.2267	-0.0171	0.2096	1119.2785	0.113932	-454.002697	-453.994787	-453.993843	-454.035298	29.275	
C	-0.0295543997	 1.4827507536	 0.0631940616	-0.340503
N	-0.0075306389	 0.0236630857	 0.0429613642	-0.128587
C	-0.0363562758	-0.68753172	-1.1377761094	 0.099992
N	-0.0195966064	-1.9597956354	-1.2653859233	-0.326156
C	 0.0341204022	-2.7767307435	-0.1003912593	 0.389638
O	 0.0520483186	-3.9878875267	-0.1898815834	-0.370763
C	 0.0665807044	-2.0608021949	 1.1713433136	-0.410753
C	 0.04532217	-0.7089438993	 1.2069324555	 0.497158
O	 0.0709666529	 0.0693563665	 2.3091519224	-0.421314
H	 0.8720137797	 1.8802739896	 0.5357667251	 0.156463
H	-0.0774546775	 1.8343661544	-0.9681803026	 0.146333
H	-0.9015087043	 1.8519226287	 0.6084709894	 0.156703
H	-0.0775689437	-0.0535484407	-2.0232375174	 0.129803
H	 0.1081774266	-2.6375620259	 2.0878698504	 0.103229
H	 0.1074556021	-0.4999093722	 3.0864985532	 0.318758
89.6322	135.8909	186.8708	229.151	328.9161	379.6872	418.3709	455.6795	458.0334	561.7856	602.7916	687.5922	755.8263	768.319	799.4464	841.7365	907.7415	961.3489	1067.8263	1153.6151	1181.6431	1188.7651	1242.3495	1263.114	1355.4679	1426.7048	1464.1442	1478.4436	1503.045	1531.2272	1608.274	1720.7435	1777.6978	3055.0677	3122.7156	3133.1886	3150.7313	3198.4207	3818.3816
CN1C=NC(=O)C=C1O	Cn1cnc(=O)cc1O	
InChI=1S/C5H6N2O2/c1-7-3-6-4(8)2-5(7)9/h2-3,9H,1H3	InChI=1S/C5H6N2O2/c1-7-3-6-4(8)2-5(7)9/h2-3,9H,1H3
