23
gdb 58575	2.79216	1.23707	1.08933	1.5861	86.91	-0.2474	0.0148	0.2622	1260.4672	0.205017	-388.311085	-388.301262	-388.300317	-388.345252	37.979	
C	 1.0147792454	-0.7064710422	-0.9775711014	-0.396428
C	 0.0183494842	 0.0073753667	-0.0500697932	 0.016275
C	 0.1113797636	 1.5284239975	-0.2407270952	-0.40252
C	-1.4198838045	-0.5214383004	-0.2579511831	 0.386171
O	-1.7490612667	-0.2163869462	-1.6265513623	-0.47965
C	-1.5586484397	-2.0466877746	 0.0457704945	-0.26768
C	-2.9104801493	-2.2363759379	 0.7771861917	-0.278517
C	-3.2797719683	-0.8317385845	 1.1840550095	-0.074542
C	-2.4659274768	 0.08380294	 0.6604498916	-0.144855
H	 2.0315571601	-0.3425868977	-0.7982921825	 0.1029
H	 1.0176819318	-1.7892918141	-0.8215203887	 0.107783
H	 0.7638908478	-0.5189056087	-2.0250391982	 0.133186
H	 0.2823979061	-0.2272606106	 0.9897770786	 0.067473
H	-0.4874485168	 2.0732983401	 0.495071617	 0.105212
H	 1.1475494899	 1.8645560967	-0.1317448179	 0.103728
H	-0.2371480783	 1.8094072056	-1.238097158	 0.131219
H	-2.6990801598	-0.3355134875	-1.7258636374	 0.272074
H	-1.4826564282	-2.6241196582	-0.8779462094	 0.106709
H	-0.742513627	-2.3660240792	 0.7005637764	 0.103775
H	-3.685217537	-2.6743517614	 0.1330938514	 0.105858
H	-2.8240987529	-2.9092258449	 1.6380848529	 0.108547
H	-4.133178199	-0.6151542618	 1.8187914199	 0.095425
H	-2.5635100647	 1.1550853132	 0.790400324	 0.097856
74.2881	102.5379	192.1406	217.4104	231.7554	261.8833	281.3237	307.523	342.0381	375.8438	453.6603	464.2767	506.6585	643.8944	738.0844	764.6375	791.373	835.3934	877.5722	928.319	931.0155	954.7917	966.1972	980.8046	985.0762	1037.3839	1043.8839	1089.0126	1135.4006	1139.1145	1184.3078	1196.288	1198.3017	1245.9852	1281.0785	1319.1575	1329.5055	1349.4593	1364.8374	1395.8576	1402.8876	1418.2312	1475.6673	1489.6438	1494.7455	1496.6023	1505.5881	1518.0978	1681.6245	3014.6228	3015.4344	3038.0032	3042.4297	3049.072	3063.3866	3100.0705	3104.3001	3113.7422	3120.0825	3124.4017	3178.874	3212.0562	3814.5538
CC(C)C1(O)CCC=C1	CC(C)[C@@]1(O)CCC=C1	
InChI=1S/C8H14O/c1-7(2)8(9)5-3-4-6-8/h3,5,7,9H,4,6H2,1-2H3	InChI=1S/C8H14O/c1-7(2)8(9)5-3-4-6-8/h3,5,7,9H,4,6H2,1-2H3/t8-/m0/s1
