21
gdb 84853	2.33176	1.82748	1.24791	1.7362	82.8	-0.2383	0.0208	0.2591	1082.8122	0.184396	-387.091082	-387.082979	-387.082035	-387.123632	31.804	
C	-0.2599797215	 1.4789527544	 0.1114592311	-0.401784
C	 0.1016596086	-0.0044970108	-0.0428042897	-0.050158
C	 1.0537981437	-0.2528038215	-1.1902458552	-0.031459
C	 1.8018171932	-1.3519219971	-1.2763799055	-0.08401
C	 1.7587850097	-2.4251373995	-0.2179793585	-0.283538
C	 1.5351391095	-1.8466230082	 1.183699494	-0.078158
C	 2.6535231066	-0.9375185816	 1.7375457113	-0.069719
O	 1.7834834531	 0.2092830425	 1.7626352235	-0.292984
C	 0.6627122196	-0.5643893296	 1.2699077582	 0.135782
H	 0.6275182541	 2.0564366765	 0.3829539644	 0.140916
H	-0.6652649389	 1.8802449929	-0.8228026125	 0.10856
H	-1.0109682336	 1.6237868158	 0.8948844579	 0.109224
H	-0.8272255299	-0.5646305407	-0.2415172597	 0.081566
H	 1.0953610381	 0.4997694645	-1.974215831	 0.082601
H	 2.4530114697	-1.5062226935	-2.1323347154	 0.085704
H	 0.953996837	-3.1390795126	-0.4482100648	 0.111077
H	 2.6847284427	-3.012959767	-0.2255331781	 0.103647
H	 1.2297937959	-2.6332372366	 1.8768435234	 0.074301
H	 3.021413711	-1.1946985755	 2.7389610628	 0.094389
H	 3.509948337	-0.7854682572	 1.0680614377	 0.098983
H	-0.1345390357	-0.6043145453	 2.0250207761	 0.06506
96.9317	120.2132	213.5335	231.0174	287.245	324.0726	397.2273	458.7838	522.7547	587.6375	710.6571	727.8406	778.6346	838.721	877.2615	888.0885	925.8974	944.1169	988.8758	995.6913	1012.7153	1033.1188	1058.1009	1080.3246	1108.845	1117.6936	1149.2286	1165.4991	1192.3032	1226.8909	1267.6431	1283.1326	1307.4896	1318.5613	1334.3934	1345.7224	1372.676	1391.5336	1401.6368	1425.4427	1479.8982	1492.8009	1505.1915	1517.469	1713.3128	2963.2665	2996.7636	3000.4111	3007.8962	3037.0138	3044.7934	3048.2983	3083.6509	3101.6744	3123.9262	3145.2153	3170.755
CC1C=CCC2COC12	C[C@H]1C=CC[C@H]2CO[C@@H]12	
InChI=1S/C8H12O/c1-6-3-2-4-7-5-9-8(6)7/h2-3,6-8H,4-5H2,1H3	InChI=1S/C8H12O/c1-6-3-2-4-7-5-9-8(6)7/h2-3,6-8H,4-5H2,1H3/t6-,7-,8-/m0/s1
