13
gdb 123977	3.89423	1.66334	1.17387	2.3958	63.65	-0.2406	-0.027	0.2136	941.8162	0.092238	-452.740286	-452.734111	-452.733167	-452.771112	23.587	
C	 0.0053630754	 1.5363774106	-0.0520257342	-0.283162
N	 1.3882725369	 2.004533606	 0.1149263075	-0.237465
C	 2.351229173	 1.2146762709	 0.2548120245	 0.122932
O	 2.33943795	-0.1859276889	 0.2829761413	-0.235004
C	 1.0961143828	-0.6659970641	 0.1340812555	 0.494431
C	-0.0502317783	 0.0381647797	-0.0274529146	 0.013319
C	-1.0104893953	-1.0018369296	-0.1282560776	-0.072655
N	-0.4768801296	-2.1990951374	-0.0349351436	-0.146603
O	 0.9117883551	-1.9762693787	 0.1381949499	-0.222849
H	-0.5964716462	 1.9939247084	 0.7437234642	 0.137235
H	-0.3745283206	 1.9572305135	-0.9918854365	 0.137236
H	 3.3744977768	 1.5529541053	 0.3785455123	 0.152137
H	-2.0808185899	-0.9306656357	-0.2666784186	 0.140447
100.8448	241.123	311.3107	407.7388	490.7926	506.7681	632.4396	640.3708	720.1496	738.6616	839.5831	894.1442	910.989	936.8176	948.1996	958.8699	1033.4596	1035.5833	1198.9753	1209.8004	1250.4794	1316.6551	1358.3586	1397.3645	1431.088	1500.9904	1529.7038	1682.4993	1768.272	3017.147	3033.8359	3206.9597	3237.9209
C1N=COC2=C1C=NO2	C1N=COc2c1cno2	
InChI=1S/C5H4N2O2/c1-4-2-7-9-5(4)8-3-6-1/h2-3H,1H2	InChI=1S/C5H4N2O2/c1-4-2-7-9-5(4)8-3-6-1/h2-3H,1H2
