25
gdb 118683	2.10385	1.04029	0.9406	1.2873	89.51	-0.2368	0.0605	0.2973	1496.739	0.226224	-389.486347	-389.474868	-389.473923	-389.52299	42.009	
C	 0.1539932684	 1.5977092462	 0.0011274389	-0.379539
C	 0.2865746547	 0.072972835	 0.0450029014	-0.165388
C	 0.5012430682	-0.541637232	-1.3477619522	-0.243758
C	 0.6730162232	-2.0540319538	-1.3521376371	 0.281755
C	-0.5154007277	-2.847427157	-0.8356753563	-0.461881
C	 1.4801755935	-2.7131659943	-2.4694514808	-0.08752
C	 2.1078172621	-1.9553243674	-3.6210282483	-0.415062
C	 2.0514829184	-2.6312201366	-1.0774630569	 0.042364
O	 3.1533966226	-1.7813731743	-0.9119516952	-0.418966
H	 1.0504129351	 2.062191838	-0.4246256507	 0.114952
H	-0.6978760179	 1.9004218746	-0.61810429	 0.115092
H	 0.0032470878	 2.0166482904	 1.0010443848	 0.10947
H	 1.1265325561	-0.2027486692	 0.6977399234	 0.076261
H	-0.6083426286	-0.3534680584	 0.5127440097	 0.099895
H	-0.3532712409	-0.2778857028	-1.9872760035	 0.088771
H	 1.3780171807	-0.0694854035	-1.7987273304	 0.105024
H	-1.4113249863	-2.649787307	-1.4372609342	 0.112689
H	-0.3214406329	-3.9237978948	-0.8821627331	 0.111091
H	-0.7542367231	-2.6039271354	 0.2054142706	 0.113609
H	 1.1166796852	-3.6995912583	-2.74925228	 0.07691
H	 2.6764242132	-1.0902076527	-3.2774407931	 0.137137
H	 2.8046150526	-2.6044611372	-4.1621758144	 0.114686
H	 1.3509116317	-1.6137003234	-4.3356079284	 0.110455
H	 2.1073465601	-3.5518183797	-0.4942047712	 0.073905
H	 3.1047108636	-1.3986472165	-0.0300227732	 0.288048
54.8689	73.8496	114.1742	158.2865	191.0445	197.582	233.8796	243.8965	270.3459	279.4306	299.9041	330.1098	392.7902	482.6013	519.3204	592.1496	732.5591	739.563	781.5948	851.4642	871.5619	900.9483	965.5872	980.516	1031.1885	1046.4136	1052.3619	1080.5999	1100.302	1129.1639	1139.9802	1175.2958	1182.3438	1243.0328	1281.0006	1292.9418	1305.5896	1330.7006	1345.6044	1372.2229	1393.9736	1411.2216	1416.081	1419.5111	1459.8724	1475.3771	1488.8299	1493.5992	1497.289	1499.0609	1503.0424	1508.0077	1509.1973	3002.3623	3015.1594	3020.0128	3028.8685	3035.4678	3052.2611	3077.9273	3080.9853	3088.4659	3090.1797	3094.6943	3098.7943	3101.6951	3121.1387	3141.6303	3809.412
CCCC1(C)C(C)C1O	CCC[C@@]1(C)[C@@H](C)[C@H]1O	
InChI=1S/C8H16O/c1-4-5-8(3)6(2)7(8)9/h6-7,9H,4-5H2,1-3H3	InChI=1S/C8H16O/c1-4-5-8(3)6(2)7(8)9/h6-7,9H,4-5H2,1-3H3/t6-,7+,8-/m0/s1
