19
gdb 70792	2.9719	1.69154	1.44236	2.3229	74.69	-0.2365	0.0729	0.3094	975.8451	0.159348	-422.990554	-422.98298	-422.982036	-423.021857	31.416	
C	-0.104223143	 1.4730979984	 0.0519669251	-0.494388
C	 0.0865147647	-0.0159702587	 0.0532659681	 0.413122
C	 0.9680361453	-0.7820522531	-0.9724546248	-0.344098
C	 0.8260048788	-1.9009815266	 0.0647141406	 0.38717
O	 1.501155025	-3.1093655317	 0.0799281843	-0.481947
C	-0.7121947284	-1.9878736777	 0.4382126234	 0.051998
C	-0.3533881159	-1.656684511	 1.9050412059	-0.253216
C	 0.7629146138	-0.8421374751	 1.2369198237	-0.179954
O	-1.1661213215	-0.7263355821	-0.0654991427	-0.300231
H	 0.8592255931	 1.9870818809	 0.1145102014	 0.116563
H	-0.6056569978	 1.7918938444	-0.8676906875	 0.130121
H	-0.7207746193	 1.7835856236	 0.9008660052	 0.127729
H	 0.5650871509	-0.9073321563	-1.9808721504	 0.101214
H	 1.9944186976	-0.4003093722	-1.001693604	 0.08741
H	 2.4475666776	-2.933493808	 0.0510232262	 0.28392
H	-1.3601333145	-2.8066780645	 0.129799744	 0.082052
H	-1.1216034065	-1.1553761827	 2.4983768465	 0.096838
H	 0.0594582992	-2.5168871913	 2.4373878006	 0.109421
H	 1.6301916809	-0.4157979463	 1.7400084344	 0.066275
198.3757	232.2719	239.9692	269.6099	332.7263	366.0869	437.6133	490.641	537.9185	587.515	606.6846	667.9527	723.4917	823.1922	851.9836	882.3461	905.249	918.6074	968.3342	987.6508	994.3689	1023.2327	1040.1388	1083.2433	1100.4255	1125.6584	1154.9287	1158.3731	1183.7139	1193.8558	1234.6852	1252.3965	1294.1137	1321.3175	1339.9479	1384.689	1419.9256	1475.7149	1480.5519	1484.8718	1492.64	3038.6069	3043.7089	3064.3824	3108.2124	3110.1709	3116.9945	3124.2287	3128.3023	3138.1637	3806.1113
CC12CC3(O)C(CC13)O2	C[C@@]12C[C@]3(O)[C@@H](C[C@H]13)O2	
InChI=1S/C7H10O2/c1-6-3-7(8)4(6)2-5(7)9-6/h4-5,8H,2-3H2,1H3	InChI=1S/C7H10O2/c1-6-3-7(8)4(6)2-5(7)9-6/h4-5,8H,2-3H2,1H3/t4-,5-,6-,7-/m1/s1
