23
gdb 103468	2.29074	1.49363	1.11647	1.7615	85.8	-0.2246	0.0774	0.302	1226.8117	0.203895	-388.256371	-388.246373	-388.245429	-388.291074	37.741	
C	 0.3534274328	 1.3488437734	 0.3802204643	-0.378395
C	-0.2058210839	 0.0303653022	-0.1711391243	-0.256906
C	 0.5921778527	-0.5282899075	-1.3432573697	 0.262858
C	 0.4397742754	 0.253662806	-2.6397501497	-0.47152
C	 1.9678827728	-1.106356761	-1.1461981306	 0.015572
O	 2.1150979555	-1.7027212862	 0.1457301228	-0.292392
C	 1.1062103469	-2.6890139987	-0.190840115	-0.14309
C	 0.8301998258	-2.0330065797	-1.5450843141	 0.197801
C	 0.5042148708	-2.8290780974	-2.7776602536	-0.49949
H	 1.3776684438	 1.2080889908	 0.7388302201	 0.130935
H	 0.3648863455	 2.1422369309	-0.3739156646	 0.111126
H	-0.2511448397	 1.7053336185	 1.2201553068	 0.108669
H	-0.2336559238	-0.6948339995	 0.6454472887	 0.107775
H	-1.246491181	 0.1711506852	-0.4921909383	 0.088005
H	 0.606971342	 1.3213119226	-2.4679455693	 0.122376
H	 1.15787737	-0.0660165496	-3.4008984583	 0.116258
H	-0.5653682222	 0.1373669676	-3.061451257	 0.117963
H	 2.868729197	-0.7734874443	-1.6531370711	 0.093897
H	 1.563562308	-3.6808832924	-0.2965422404	 0.102464
H	 0.2987133544	-2.739823756	 0.5495406229	 0.101784
H	-0.5039629878	-3.2571493424	-2.7094351109	 0.120676
H	 0.5367949968	-2.2233134156	-3.6859970475	 0.124165
H	 1.2057728684	-3.6612504169	-2.9069712011	 0.119468
44.5851	139.0466	150.7574	198.2787	219.5038	249.7678	272.3954	306.4613	317.5623	346.5097	389.3983	457.4561	560.8213	659.3296	672.1	766.7659	778.3912	871.9622	924.6619	962.3798	979.907	986.6163	998.6594	1007.424	1031.6279	1046.0441	1069.954	1119.7364	1135.3764	1160.332	1194.1019	1215.6729	1239.4906	1281.869	1310.5696	1345.4453	1368.2831	1405.271	1412.7329	1423.1332	1444.6986	1477.9105	1489.3405	1491.0238	1497.6119	1504.5929	1507.4627	1511.2567	1518.3607	3012.1944	3021.4053	3022.7087	3030.2406	3038.3986	3057.2449	3073.7079	3088.6135	3092.4204	3103.2524	3106.4105	3115.6423	3119.9912	3154.8651
CCC1(C)C2OCC12C	CC[C@@]1(C)[C@H]2OC[C@@]12C	
InChI=1S/C8H14O/c1-4-7(2)6-8(7,3)5-9-6/h6H,4-5H2,1-3H3	InChI=1S/C8H14O/c1-4-7(2)6-8(7,3)5-9-6/h6H,4-5H2,1-3H3/t6-,7+,8-/m1/s1
