15
gdb 45350	2.43605	1.80242	1.1761	3.1226	66.56	-0.2546	-0.0575	0.1971	1003.1247	0.11165	-457.783592	-457.776128	-457.775184	-457.816419	27.695	
O	 0.0824237008	 0.1677265795	-0.8391079534	-0.269262
C	 0.0324803114	 1.2018334232	-0.2484265004	 0.399919
C	-1.0762826138	 1.9924289881	 0.4590875098	-0.377301
C	-0.0662138265	 3.1714747592	 0.6306495815	 0.108198
O	 0.2844832431	 3.5005512899	 1.9697722272	-0.261754
C	 1.3527709335	 2.6926387665	 2.4199653508	-0.193106
C	 2.005842792	 2.0506725185	 1.1907074798	 0.372509
O	 3.0388151262	 1.4423818549	 1.1733902253	-0.283565
C	 1.0748031267	 2.3279099271	 0.0075081468	-0.304245
H	-1.9491720217	 2.190073065	-0.1692082225	 0.14395
H	-1.4175684323	 1.5532991882	 1.4018290155	 0.145519
H	-0.3517283357	 4.093068723	 0.1231873304	 0.105928
H	 2.0764901355	 3.3061500898	 2.9661451656	 0.1471
H	 1.0121771932	 1.8917976262	 3.0955001239	 0.133681
H	 1.6340140476	 2.6624132908	-0.8666194201	 0.132429
55.3291	104.7316	130.1405	353.1737	413.7268	451.4727	455.1692	537.8814	581.8752	654.6168	727.7571	731.2298	817.8267	867.4463	913.3774	929.1108	971.1187	1018.6902	1044.4483	1089.6568	1093.7854	1153.6439	1177.3049	1187.1956	1215.1538	1233.1172	1262.7888	1326.4561	1368.5403	1424.9712	1485.8133	1845.7304	1906.3238	2987.8388	3060.627	3077.7447	3108.4523	3119.7524	3124.7581
O=C1CC2OCC(=O)C12	O=C1C[C@H]2OCC(=O)[C@@H]12	
InChI=1S/C6H6O3/c7-3-1-5-6(3)4(8)2-9-5/h5-6H,1-2H2	InChI=1S/C6H6O3/c7-3-1-5-6(3)4(8)2-9-5/h5-6H,1-2H2/t5-,6-/m1/s1
