16
gdb 109199	4.25832	0.94498	0.85935	2.9472	72.33	-0.264	0.0067	0.2707	1333.2945	0.123233	-437.859336	-437.850495	-437.849551	-437.893832	31.525	
O	 0.1206475771	 1.2437206556	 0.4349060275	-0.420518
C	-0.001143602	-0.1189145577	 0.1270571184	-0.127213
C	-1.4348847179	-0.5153113794	-0.0561325417	 0.393427
N	-2.4099564534	 0.2850699155	 0.0785882193	-0.333483
C	-3.6308681258	-0.4844806746	-0.1672892729	-0.201696
C	-3.1247509602	-1.9382622807	-0.4674618308	-0.083226
O	-1.6732326686	-1.808240228	-0.3797122949	-0.251301
C	-3.5999858278	-2.9475004244	 0.4639025639	 0.332459
C	-4.0273015424	-3.7643822964	 1.2339995861	-0.455826
H	-0.7817348345	 1.5881238639	 0.4988506489	 0.298785
H	 0.5483840172	-0.3625654921	-0.7948709737	 0.123755
H	 0.4296588264	-0.7483540308	 0.9216227742	 0.12438
H	-4.2857013119	-0.4593832587	 0.7076018733	 0.134998
H	-4.1824583765	-0.0673173939	-1.0151197518	 0.126448
H	-3.3498601734	-2.2421740907	-1.4942335727	 0.127462
H	-4.3981010163	-4.4923770475	 1.9131346469	 0.211549
37.5343	88.9388	144.3224	209.9645	224.7613	239.6293	298.8402	408.8261	493.1044	557.7271	596.9684	625.7236	681.2523	707.6433	750.5865	832.0865	951.9158	973.347	1030.1526	1040.6512	1059.6466	1073.2988	1114.4702	1205.2674	1233.4745	1245.9745	1305.6613	1316.4217	1344.8881	1379.1382	1480.929	1502.5279	1505.5398	1743.9278	2242.2533	2989.0754	3008.8244	3054.0612	3062.6024	3100.5819	3501.5343	3729.0752
OCC1=NCC(O1)C#C	OCC1=NC[C@@H](O1)C#C	
InChI=1S/C6H7NO2/c1-2-5-3-7-6(4-8)9-5/h1,5,8H,3-4H2	InChI=1S/C6H7NO2/c1-2-5-3-7-6(4-8)9-5/h1,5,8H,3-4H2/t5-/m0/s1
