17
gdb 93297	2.15605	1.84631	1.2336	2.8221	68.28	-0.2446	-0.0477	0.1969	1040.4397	0.134322	-458.955365	-458.947002	-458.946058	-458.988659	30.865	
C	 0.4165490932	 1.4374820279	-0.3734071696	-0.399001
C	-0.0990726651	 0.1049723023	 0.17002448	 0.007923
O	-0.0463026126	-0.9150149697	-0.8494496843	-0.271493
C	 1.1582164251	-1.6529578388	-0.7456973914	-0.196569
C	 1.6184787962	-1.5207970896	 0.7018948962	 0.316187
O	 2.4983426876	-2.1212215537	 1.2575813174	-0.298198
C	 0.7235357796	-0.4581181448	 1.3143975486	 0.313164
C	 1.0777593643	 0.1947913159	 2.5785691197	-0.236968
O	 0.086051232	-0.8273593818	 2.5439976817	-0.258497
H	 1.4816456442	 1.3829847426	-0.6227559821	 0.119226
H	-0.1340503699	 1.7029863724	-1.2793962556	 0.134966
H	 0.2812874001	 2.2363897979	 0.3622807782	 0.121958
H	-1.1475891917	 0.1934357605	 0.468519649	 0.111724
H	 0.9694875326	-2.6987638676	-1.007041809	 0.147736
H	 1.9446410656	-1.2721096005	-1.4177034302	 0.12538
H	 2.014154703	-0.081444198	 3.0601404768	 0.139238
H	 0.7098671857	 1.2004647351	 2.7772932545	 0.123223
57.4328	127.1026	195.1744	233.1642	248.4864	260.896	340.4641	460.9869	490.5277	570.7824	586.6471	643.4143	723.4515	834.9506	856.7035	874.6572	953.8203	1006.494	1012.6174	1055.6695	1091.0427	1109.4616	1125.6224	1136.3478	1177.3839	1207.6326	1240.3867	1294.3393	1340.7613	1366.5146	1403.773	1426.7744	1476.7488	1490.1343	1491.9158	1514.5918	1862.0954	2976.7177	3038.1148	3072.2966	3082.7792	3085.9345	3109.4858	3124.8106	3181.4486
CC1OCC(=O)C11CO1	C[C@H]1OCC(=O)[C@]21CO2	
InChI=1S/C6H8O3/c1-4-6(3-9-6)5(7)2-8-4/h4H,2-3H2,1H3	InChI=1S/C6H8O3/c1-4-6(3-9-6)5(7)2-8-4/h4H,2-3H2,1H3/t4-,6-/m1/s1
