20
gdb 22475	3.05392	0.69185	0.59189	0.8533	92.43	-0.2241	-0.0207	0.2034	1938.268	0.168146	-403.094534	-403.083575	-403.08263	-403.132451	38.125	
C	 0.0943890729	 1.4856547386	-0.0800758612	-0.364038
C	-0.0134866143	-0.0503495923	-0.0764097306	-0.324449
C	-1.3905020393	-0.5254281435	-0.0235379365	 0.180303
C	-2.5454530616	-0.8748788287	 0.021426919	-0.039328
C	-3.8747091569	-1.3839242192	 0.0722726535	 0.191976
C	-4.0769547394	-2.8850140426	 0.0445320699	-0.274682
C	-4.1923757099	-3.4761213592	 1.4604904895	-0.373538
N	-4.8230848928	-0.5157221283	 0.1653207716	-0.168213
O	-6.0764577447	-1.1347431515	 0.2329679227	-0.395942
H	 1.1437839346	 1.7922295919	-0.1184397079	 0.115355
H	-0.4219306233	 1.9084819763	-0.9457961807	 0.13269
H	-0.3574755734	 1.9080365237	 0.8211403348	 0.132831
H	 0.4761192846	-0.4569091181	-0.971079933	 0.132497
H	 0.54203109	-0.456902888	 0.7790193805	 0.132666
H	-4.9884076817	-3.1015640693	-0.5187975297	 0.12856
H	-3.2338419901	-3.3392961776	-0.4827289496	 0.108606
H	-4.3254672707	-4.5610635529	 1.4120185633	 0.114585
H	-3.291745166	-3.2704318856	 2.0469691252	 0.12394
H	-5.0495625755	-3.0478171188	 1.9857554917	 0.136464
H	-6.6708775324	-0.3780123548	 0.2705223375	 0.309717
25.0188	48.1623	76.0105	109.6835	176.7025	210.9403	226.7821	257.2379	315.4909	329.2752	419.6122	435.9032	473.2065	501.0298	575.5726	659.216	732.0051	784.3169	807.3312	876.9796	975.2043	986.8837	1045.7377	1079.2728	1089.8435	1101.9387	1108.6461	1266.6016	1283.7005	1298.7349	1345.7636	1349.7475	1402.9841	1410.0758	1421.7312	1471.7563	1482.7173	1494.3918	1497.4225	1505.2383	1508.4421	1666.8729	2344.7377	3017.0134	3042.6842	3043.381	3046.7537	3061.4677	3103.1518	3114.1507	3120.6316	3127.7413	3131.0969	3820.712
CCC#CC(CC)=NO	CCC#CC(=NO)CC	
InChI=1S/C7H11NO/c1-3-5-6-7(4-2)8-9/h9H,3-4H2,1-2H3	InChI=1S/C7H11NO/c1-3-5-6-7(4-2)8-9/h9H,3-4H2,1-2H3
