23
gdb 59969	2.28044	0.95783	0.89933	2.5295	82.24	-0.238	-0.008	0.23	1509.9506	0.201756	-425.45837	-425.446833	-425.445889	-425.495879	41.085	
C	-2.1078831542	 1.6990284698	-1.0881691993	-0.40563
C	-2.0325800357	 0.181460141	-1.2474300456	 0.122171
O	-1.1245086367	-0.1835342069	-2.2906748526	-0.432141
C	-1.6876486388	-0.5232307438	 0.0723248069	-0.197139
C	-1.5893916295	-2.0483902345	-0.0527888677	-0.070002
C	-1.0273540637	-2.6852546192	 1.2353278732	-0.410629
C	-2.9579219397	-2.6764799804	-0.3402508608	 0.399291
C	-2.9587628636	-3.9491652216	-1.1659660198	-0.482197
O	-3.9833825318	-2.187165364	 0.0792207914	-0.320644
H	-2.3433823215	 2.1709413024	-2.0459142347	 0.122852
H	-2.8756737389	 1.9820397212	-0.3613120813	 0.122783
H	-1.149657114	 2.1010383395	-0.7340035562	 0.102467
H	-3.0042411828	-0.1859017785	-1.596036141	 0.104073
H	-0.2662192724	 0.1980612785	-2.0737130353	 0.274209
H	-0.7300114637	-0.131719787	 0.444544856	 0.073568
H	-2.450384865	-0.2758933881	 0.8181327211	 0.116835
H	-0.9208497233	-2.2923053823	-0.8856566086	 0.087797
H	-0.9458120605	-3.7737749485	 1.1527299286	 0.116768
H	-0.0287176903	-2.2922472977	 1.4494042295	 0.118592
H	-1.6729824529	-2.4592347373	 2.0900810155	 0.132791
H	-2.1992606868	-4.6546699712	-0.8136531143	 0.133358
H	-3.945205152	-4.4141216942	-1.1443415779	 0.138349
H	-2.6990414922	-3.6972956973	-2.2015242372	 0.152476
39.4141	50.3237	97.2	139.3481	144.5162	217.6404	231.0069	245.1453	276.3881	301.6827	313.5556	340.225	426.5519	479.8207	494.7146	598.09	607.3858	733.4532	834.5433	891.9973	911.0734	952.2416	957.5093	992.294	1020.6329	1056.6021	1077.8232	1118.408	1140.4559	1166.1499	1184.7914	1220.5099	1291.6096	1327.3798	1339.5015	1376.5185	1385.3994	1393.6361	1403.1783	1409.3112	1423.6993	1462.9154	1465.0536	1474.1018	1491.9041	1494.9773	1496.1595	1503.5455	1804.2596	3005.9092	3022.0434	3033.4543	3035.1705	3052.2929	3057.1925	3081.1166	3096.4465	3096.7252	3103.8892	3109.7881	3119.4949	3150.45	3791.9546
CC(O)CC(C)C(C)=O	C[C@@H](O)C[C@@H](C)C(=O)C	
InChI=1S/C7H14O2/c1-5(7(3)9)4-6(2)8/h5-6,8H,4H2,1-3H3	InChI=1S/C7H14O2/c1-5(7(3)9)4-6(2)8/h5-6,8H,4H2,1-3H3/t5-,6-/m1/s1
