22
gdb 60006	3.99471	0.67004	0.65414	4.9904	83.58	-0.2849	0.0296	0.3145	1802.9552	0.191821	-404.37372	-404.362762	-404.361818	-404.410448	39.32	
C	-0.0664485145	 1.5522695539	-0.164737253	-0.3908
C	 0.0227599716	 0.0248666369	-0.0395269903	 0.041991
C	 0.7323560946	-0.5791037834	-1.2585667941	-0.393019
C	 0.7258262818	-0.4142265911	 1.2583375657	-0.203651
C	-0.0255203247	-0.0586092004	 2.5474319585	 0.117454
O	-1.3502001989	-0.5606644285	 2.5599325096	-0.413889
C	 0.7658069631	-0.5410984696	 3.7873095932	-0.367944
C	 0.1166555151	-0.1897016103	 5.0476194904	 0.270835
N	-0.3865435515	 0.0961649075	 6.0474127425	-0.303662
H	 0.9321456862	 2.0063501661	-0.1572390066	 0.109872
H	-0.5500347058	 1.8343942462	-1.1053092923	 0.116176
H	-0.6474875785	 2.0005864727	 0.6463142783	 0.124507
H	-0.9997409513	-0.3707710344	-0.0038364825	 0.086066
H	 1.7640456013	-0.2148859234	-1.3352984682	 0.112436
H	 0.7695143815	-1.6723320096	-1.2017696101	 0.107873
H	 0.2174626438	-0.3093592477	-2.1861375084	 0.115061
H	 0.8712677302	-1.5053383692	 1.2366630099	 0.083322
H	 1.7323120626	 0.0251208897	 1.2980534892	 0.097555
H	-0.1420282249	 1.0269599057	 2.6253477955	 0.11466
H	-1.3147209413	-1.5159122389	 2.4322587971	 0.28256
H	 0.8876195293	-1.6311353707	 3.7443594795	 0.140512
H	 1.7737219503	-0.1108699218	 3.7782923859	 0.152088
44.4849	60.7743	103.5938	122.9495	197.833	230.2312	248.1591	276.1337	308.6784	351.104	389.1022	396.857	420.0423	436.7181	479.965	617.4198	815.0698	854.2439	865.7744	931.5047	935.7864	964.9837	977.9093	989.6419	1031.9472	1100.6246	1121.2811	1161.0307	1194.8075	1201.9592	1239.5388	1282.063	1319.289	1350.0042	1363.7534	1382.1429	1393.333	1403.3503	1423.195	1425.2766	1457.8129	1477.7889	1488.4646	1496.5987	1505.641	1512.7394	2366.0481	2989.6405	3023.6945	3025.3767	3029.1697	3031.5666	3043.3237	3068.3789	3084.2472	3088.9966	3095.5507	3101.7356	3109.3541	3791.0848
CC(C)CC(O)CC#N	CC(C)C[C@@H](O)CC#N	
InChI=1S/C7H13NO/c1-6(2)5-7(9)3-4-8/h6-7,9H,3,5H2,1-2H3	InChI=1S/C7H13NO/c1-6(2)5-7(9)3-4-8/h6-7,9H,3,5H2,1-2H3/t7-/m0/s1
