17
gdb 9311	5.96639	0.84176	0.74879	3.4501	73.33	-0.2498	-0.0386	0.2112	1480.1649	0.14166	-360.064587	-360.05518	-360.054236	-360.099818	32.061	
C	 0.049896311	 1.5181441579	 0.008568625	-0.380572
C	-0.0297270783	-0.0091914498	 0.0606165024	-0.204676
C	-1.4646558256	-0.5168270387	-0.0702521696	-0.103091
N	-1.5033981484	-1.9705945616	-0.0263776869	-0.325715
C	-2.68232647	-2.6492614947	 0.035157384	 0.300781
N	-3.8151716782	-2.0619665266	 0.1563530657	-0.525071
C	-2.5337282928	-4.0974224129	-0.0262202443	 0.223417
N	-2.4574097164	-5.250011738	-0.0805796331	-0.322344
H	 1.0841091409	 1.8604582561	 0.1032005367	 0.121377
H	-0.3450986867	 1.9041319458	-0.9370665942	 0.123512
H	-0.528197954	 1.9719275786	 0.8203217669	 0.125289
H	 0.5807227538	-0.4361761365	-0.7470458052	 0.100538
H	 0.3957630907	-0.3764746271	 1.0023273836	 0.112359
H	-2.0887736758	-0.137556629	 0.7455902144	 0.138044
H	-1.9209214917	-0.1503336388	-1.0014130566	 0.117045
H	-0.6808193196	-2.479444143	-0.3053832609	 0.260151
H	-4.5712674489	-2.7373990515	 0.2301292321	 0.238957
41.0793	64.8985	98.1288	162.3165	200.6785	231.1959	296.6797	316.8538	363.5746	376.2978	533.5476	614.7266	723.2717	756.497	820.0566	879.8852	895.2604	941.7027	1036.6251	1078.1862	1149.4674	1173.4703	1179.4405	1267.2063	1298.4914	1320.325	1350.3071	1407.404	1417.6474	1492.3808	1499.4944	1505.1008	1523.0969	1544.0846	1683.3958	2347.0234	3003.8348	3014.8239	3037.5173	3054.2871	3077.6846	3105.3901	3113.4758	3534.4619	3650.3002
CCCNC(=N)C#N	CCCNC(=N)C#N	
InChI=1S/C5H9N3/c1-2-3-8-5(7)4-6/h2-3H2,1H3,(H2,7,8)	InChI=1S/C5H9N3/c1-2-3-8-5(7)4-6/h2-3H2,1H3,(H2,7,8)
