18
gdb 26516	3.79882	1.48138	1.23952	1.8356	83.34	-0.1971	0.0235	0.2206	1043.7071	0.149373	-364.787425	-364.780127	-364.779183	-364.818831	29.382	
C	 0.0942775299	 1.6063473857	 0.1001020778	-0.493581
C	 0.0993948072	 0.1100020241	-0.0040129669	 0.202126
C	-0.9166404751	-0.8040582944	 0.6766421604	-0.32069
C	 0.5499315197	-0.9497254446	 1.0023803695	-0.072376
N	 1.2584159021	-1.6371168386	-0.0887896199	 0.021624
C	 1.4890463845	-2.8649239903	-0.6620244452	-0.152459
C	 1.3084461623	-2.6937570711	-2.0224215041	-0.121375
C	 0.8205992709	-1.3671283108	-2.2714518631	-0.285271
C	 0.808584161	-0.7475016081	-1.0436036474	 0.188434
H	 1.1035148166	 2.014029171	-0.0153714414	 0.129149
H	-0.5374638134	 2.0513279179	-0.6770725092	 0.128522
H	-0.2983397161	 1.9314342433	 1.0688418382	 0.118468
H	-1.5243426065	-0.3419834119	 1.452289383	 0.114025
H	-1.4169333482	-1.5835457952	 0.110388125	 0.131141
H	 0.9887983003	-0.8424752698	 1.9860858839	 0.111558
H	 1.8653135434	-3.7079329793	-0.1042088798	 0.114381
H	 1.5499743145	-3.4286160218	-2.7775973805	 0.091859
H	 0.544510257	-0.9555730362	-3.2298941106	 0.094467
140.0415	191.5017	197.8833	257.5184	359.6859	477.1071	497.8074	595.5324	619.5654	710.5238	720.7041	730.5969	789.646	819.3274	833.8036	847.1488	913.3307	949.7161	971.9277	980.7025	1008.6971	1050.6412	1073.9708	1088.9085	1104.2264	1114.2225	1212.4616	1231.4025	1244.6695	1257.3787	1365.5344	1385.7999	1415.0821	1432.5941	1462.0569	1480.8911	1484.7968	1499.588	1575.5121	3029.9398	3091.4331	3104.8644	3108.2768	3195.3836	3202.5652	3227.7137	3252.4948	3262.1397
CC12CC1N1C=CC=C21	C[C@]12C[C@H]1n1cccc21	
InChI=1S/C8H9N/c1-8-5-7(8)9-4-2-3-6(8)9/h2-4,7H,5H2,1H3	InChI=1S/C8H9N/c1-8-5-7(8)9-4-2-3-6(8)9/h2-4,7H,5H2,1H3/t7-,8-/m1/s1
