14
gdb 48901	3.04384	1.49105	1.1463	1.2168	67.64	-0.2508	-0.0542	0.1966	1016.0456	0.099698	-436.595699	-436.588507	-436.587563	-436.627831	26.708	
O	-0.0733695457	 0.0014251099	 0.0573325034	-0.23752
C	 0.0119387425	 1.2012012217	-0.0109624878	 0.034309
C	 1.317652221	 1.9254663463	-0.0023046744	 0.241988
C	 2.7421633651	 1.4061454346	 0.0886505699	-0.231036
N	 2.9850764233	 2.9192902549	 0.0029725835	-0.152268
C	 1.7997139085	 3.043896571	-1.0143553155	-0.214151
C	 1.1735556672	 4.1259278568	-0.1474137331	 0.497655
O	 0.5553196967	 5.1381566767	-0.2366971893	-0.313057
C	 1.7213738572	 3.1645959419	 0.8967085545	-0.214313
H	-0.8878417786	 1.8531945962	-0.086528862	 0.092569
H	 3.0711460882	 0.96502808	 1.0322675184	 0.126461
H	 3.1444692022	 0.8517076109	-0.762200937	 0.126523
H	 1.9628826388	 2.9311076781	-2.0841719787	 0.121445
H	 1.7964181837	 3.1882729008	 1.981908198	 0.121396
95.6449	104.8676	210.4834	269.0693	357.3327	426.6205	531.7016	605.3421	648.7433	710.7861	788.1768	803.7523	814.7292	843.2241	917.3816	1006.1818	1025.4865	1046.485	1051.3151	1078.5742	1093.9144	1110.0966	1162.1646	1194.0784	1221.1011	1251.956	1316.9085	1416.6818	1528.6172	1819.7778	1930.6822	2877.6773	3067.4494	3131.0381	3150.7472	3153.6706
O=CC12CN3C1C(=O)C23	O=C[C@@]12CN3[C@@H]1C(=O)[C@@H]23	
InChI=1S/C6H5NO2/c8-2-6-1-7-4(6)3(9)5(6)7/h2,4-5H,1H2	InChI=1S/C6H5NO2/c8-2-6-1-7-4(6)3(9)5(6)7/h2,4-5H,1H2/t4-,5+,6+
