16
gdb 61097	2.41961	1.23295	1.03104	3.7753	80.62	-0.2775	0.0048	0.2823	1208.1935	0.120282	-363.554175	-363.544286	-363.543342	-363.588718	35.913	
C	-0.0487217549	 1.5702474602	-0.0557487665	-0.405816
C	-0.0082808024	 0.0210172509	-0.0353992094	-0.132572
C	 0.7776640687	-0.5015402997	 1.2213915201	-0.370996
C	 2.1511293722	-0.0274710769	 1.2901605428	 0.311038
C	 3.2842176194	 0.3686199406	 1.339547949	-0.431841
C	-1.3701422267	-0.522747437	 0.0103034015	 0.337321
C	-2.487640366	-0.9540201032	 0.0897179829	-0.436839
C	 0.6609847156	-0.4621315795	-1.2605544427	 0.305156
N	 1.1882922305	-0.8294725903	-2.2201910576	-0.337063
H	 0.9678221497	 1.9676084831	-0.0711756051	 0.153535
H	-0.5888261269	 1.9243442564	-0.9353654844	 0.147443
H	-0.5626056011	 1.9278686938	 0.8399995998	 0.134728
H	 0.215253251	-0.1786250295	 2.1044769061	 0.149411
H	 0.7535245229	-1.5958480696	 1.2123206067	 0.159302
H	 4.2904050372	 0.7062282089	 1.3826534905	 0.207087
H	-3.476125649	-1.3401913582	 0.1415782962	 0.210105
72.1919	113.5542	129.6296	181.0666	190.9767	237.1668	268.0928	326.9947	353.4547	443.2367	481.3052	495.2047	578.0845	599.2489	632.592	654.3237	667.0935	670.4113	708.8998	884.5682	924.5496	963.5072	988.4083	1087.9953	1153.9376	1187.5841	1277.3386	1337.5999	1406.3159	1465.0769	1487.9928	1494.1415	2241.3967	2245.3264	2362.3037	3046.1093	3057.7262	3087.833	3140.1604	3151.4862	3499.2257	3503.7292
CC(CC#C)(C#C)C#N	C[C@@](CC#C)(C#C)C#N	
InChI=1S/C8H7N/c1-4-6-8(3,5-2)7-9/h1-2H,6H2,3H3	InChI=1S/C8H7N/c1-4-6-8(3,5-2)7-9/h1-2H,6H2,3H3/t8-/m0/s1
