18
gdb 77318	2.97695	1.27048	0.93836	2.4126	79.39	-0.262	0.0215	0.2834	1229.3657	0.147403	-401.942525	-401.933736	-401.932792	-401.976022	32.997	
C	-0.2643905605	 1.4708421391	 0.005393917	-0.404897
C	 0.0551336144	-0.0176676218	 0.0624546372	-0.076534
C	 0.8555817253	-0.5878362041	-1.1357105811	-0.208771
C	 1.5058340497	-1.8307167359	-0.4923604567	-0.105661
O	 1.7463165887	-1.4592042928	 0.8705897972	-0.240469
C	 0.9277253207	-0.4242160245	 1.2359167117	 0.40614
N	 0.911111571	 0.1075262568	 2.3794514051	-0.543428
C	 0.0750345299	-0.8751856057	-2.3256867272	 0.309951
C	-0.581225377	-1.1235985347	-3.3015718496	-0.435453
H	 0.6504713751	 2.0620289372	-0.1026164254	 0.121287
H	-0.9223631198	 1.6909811816	-0.8400698535	 0.123
H	-0.7543351566	 1.7833811194	 0.929901274	 0.14775
H	-0.8801469429	-0.5885287115	 0.1416132216	 0.114726
H	 1.6510534186	 0.1272011298	-1.3850438901	 0.11561
H	 0.8277348468	-2.6913927273	-0.5281637053	 0.12213
H	 2.4597623373	-2.1076350591	-0.9448992055	 0.129702
H	 1.5777817861	-0.3512074168	 3.00272337	 0.223697
H	-1.1560027566	-1.3381145998	-4.1684680093	 0.201218
75.9362	126.8155	162.3817	218.483	225.8197	260.2683	348.8758	422.4431	477.9758	543.6841	552.2712	626.9808	638.3211	645.4037	685.3592	815.9269	849.5133	894.6506	980.0155	1000.1022	1027.7303	1052.3792	1078.8952	1094.2267	1136.9192	1159.3787	1229.0819	1252.3769	1277.3814	1306.5118	1356.0052	1359.6078	1405.1195	1413.6815	1493.319	1496.7828	1520.4374	1779.3966	2240.4461	3013.0834	3026.7565	3041.9772	3045.3732	3114.383	3116.993	3135.5848	3473.7278	3503.5523
CC1C(COC1=N)C#C	C[C@H]1[C@@H](CO[C]1[NH])C#C	
InChI=1S/C7H9NO/c1-3-6-4-9-7(8)5(6)2/h1,5-6,8H,4H2,2H3	InChI=1S/C7H9NO/c1-3-6-4-9-7(8)5(6)2/h1,5-6,8H,4H2,2H3/t5-,6+/m0/s1
