20
gdb 9915	4.75902	0.9828	0.92215	2.3232	72.74	-0.2554	0.0838	0.3392	1346.2771	0.174223	-386.117501	-386.107984	-386.10704	-386.152321	33.612	
C	-0.1579746388	 1.4846605767	-0.0881506671	-0.385803
C	 0.0365119875	-0.0195992485	-0.0053369623	-0.022719
O	 0.6426856414	-0.4619365761	-1.2027746747	-0.246548
C	 0.8785174165	-1.8508502243	-1.2304192317	-0.111809
C	 1.5381342188	-2.2140726485	-2.5423311688	 0.407466
C	 2.7584715592	-1.4075283652	-2.9222636317	-0.460032
C	 1.3548642654	-3.5807235432	-3.0505910307	-0.232707
O	 0.6264137464	-2.491401701	-3.6169617173	-0.268275
H	 0.8037274867	 1.9894071168	-0.2170884784	 0.125787
H	-0.7964432381	 1.7416294873	-0.9379422412	 0.130775
H	-0.6274992147	 1.8592737959	 0.826290844	 0.114644
H	 0.6694807688	-0.2826972164	 0.8598914102	 0.083668
H	-0.9315895249	-0.5282741081	 0.1395523539	 0.088174
H	 1.5356879711	-2.1456800844	-0.3921832599	 0.083996
H	-0.0636680277	-2.4124857687	-1.1309917485	 0.091926
H	 3.5508014577	-1.5280694504	-2.1752369505	 0.115862
H	 3.1401049262	-1.7294784518	-3.8939042945	 0.122234
H	 2.5038690738	-0.346410665	-2.9739217746	 0.145684
H	 2.1219776482	-4.0187222794	-3.6884050103	 0.110307
H	 0.7598182063	-4.3005081255	-2.4881323258	 0.10737
57.3094	73.381	122.3405	144.5935	195.6951	244.7065	287.0366	323.4035	368.9908	384.3399	463.847	519.5089	744.6672	822.3483	838.7105	906.9053	907.0996	938.0486	975.5838	1044.3731	1067.3934	1113.4966	1134.6044	1148.1575	1162.8397	1174.4401	1190.7113	1259.2802	1297.0783	1302.23	1366.5745	1398.5255	1407.9113	1420.7658	1455.2959	1478.9041	1483.3699	1497.2257	1501.0718	1503.1051	1533.571	1534.9448	2939.7207	2954.1659	2977.2026	2996.7299	3043.0915	3045.4265	3074.596	3113.1713	3119.5903	3122.7389	3136.4157	3157.8811
CCOCC1(C)CO1	CCOC[C@@]1(C)CO1	
InChI=1S/C6H12O2/c1-3-7-4-6(2)5-8-6/h3-5H2,1-2H3	InChI=1S/C6H12O2/c1-3-7-4-6(2)5-8-6/h3-5H2,1-2H3/t6-/m0/s1
