18
gdb 90360	2.40484	1.55023	1.31668	3.6687	73.57	-0.2553	0.03	0.2853	1057.9189	0.146748	-439.070355	-439.061811	-439.060867	-439.103451	32.474	
C	 0.1495783048	 1.6199353466	-0.0767729793	-0.486365
C	 0.125919382	 0.126170356	 0.0839340482	 0.427649
O	-1.2064926095	-0.3607169932	 0.4601846832	-0.286239
C	-0.7059271032	-1.0309583085	 1.5618568624	 0.43734
N	-1.2994145675	-1.6637183812	 2.4673599778	-0.557474
C	 0.7347801993	-0.7293650404	 1.2428667628	-0.224845
C	 1.2961545296	-1.738680559	 0.189705018	-0.284523
C	 0.7956065613	-0.8027862298	-0.9578467525	 0.0821
O	-0.0909317421	-1.3009560109	-1.9214698623	-0.424533
H	 1.1678561824	 1.9723200032	-0.2673509053	 0.121787
H	-0.4800416768	 1.9162888931	-0.922537497	 0.143621
H	-0.2287472954	 2.1143124261	 0.8224630779	 0.13274
H	-2.3100855309	-1.6612292005	 2.317205921	 0.226843
H	 1.3887054106	-0.3602001242	 2.0290697295	 0.099618
H	 2.3796814971	-1.8664440249	 0.2233708464	 0.107219
H	 0.8158515294	-2.7183941786	 0.2172341163	 0.125169
H	 1.6436421731	-0.2742655053	-1.4198249442	 0.070698
H	 0.4032977358	-1.8576214388	-2.5314956232	 0.289195
66.5711	167.3984	205.0489	227.2759	239.6319	278.589	316.3033	414.9237	427.7986	548.8905	596.353	638.8748	706.3329	799.286	812.8167	864.7926	870.7934	904.2726	936.1246	992.0627	1011.3546	1046.6223	1091.2408	1098.4052	1129.6896	1173.8809	1182.1332	1210.6975	1236.6734	1261.6593	1283.6935	1313.6124	1341.4474	1411.85	1436.7497	1479.3746	1483.0194	1489.4451	1822.5911	2980.5104	3038.2163	3074.7635	3108.9226	3118.3585	3132.9144	3150.4896	3472.4579	3819.9558
CC12OC(=N)C1CC2O	C[C@]12O[C]([NH])[C@H]1C[C@H]2O	
InChI=1S/C6H9NO2/c1-6-3(2-4(6)8)5(7)9-6/h3-4,7-8H,2H2,1H3	InChI=1S/C6H9NO2/c1-6-3(2-4(6)8)5(7)9-6/h3-4,7-8H,2H2,1H3/t3-,4-,6+/m1/s1
