23
gdb 118874	2.92455	1.05969	0.93638	1.4634	85.54	-0.2309	0.0874	0.3183	1403.1987	0.204208	-388.260558	-388.25093	-388.249986	-388.295002	36.923	
C	-0.0799427095	 1.5771589364	 0.1573328636	-0.382336
C	-0.0735421411	 0.0466754372	 0.2017756479	-0.168085
C	-1.4019368456	-0.5610515878	-0.2706743704	-0.22194
C	-1.4881789136	-2.0792013311	-0.1233767517	 0.415872
C	-0.5275205244	-2.8326220671	-1.0357044362	-0.433365
O	-1.26149122	-2.5120945291	 1.2695072944	-0.336832
C	-2.4928696259	-3.2326674651	 1.2613423886	 0.109289
C	-3.661688718	-2.3117129907	 1.1230410197	-0.316685
C	-2.8817367829	-2.7326216117	-0.1067665841	-0.1764
H	 0.8732168018	 1.9889811508	 0.5035980872	 0.1109
H	-0.2515192007	 1.9462181323	-0.8603641144	 0.110542
H	-0.870976267	 1.9886924142	 0.7942213176	 0.113519
H	 0.7526762664	-0.327807162	-0.4139870245	 0.094263
H	 0.1208767788	-0.2968510722	 1.2238806343	 0.118929
H	-2.2184104971	-0.1036955253	 0.2989346799	 0.093388
H	-1.5792808073	-0.3058930842	-1.3245135683	 0.091374
H	 0.5095411363	-2.5702116478	-0.8115327164	 0.127275
H	-0.6432745817	-3.9112338255	-0.8999325364	 0.119266
H	-0.7260041834	-2.5925933636	-2.0864107768	 0.110897
H	-2.5106721228	-4.2149630244	 1.7194244895	 0.099467
H	-4.6382271788	-2.779458068	 1.2081069366	 0.112349
H	-3.6025673985	-1.3026013605	 1.5195658259	 0.115465
H	-3.3325169651	-3.2484250748	-0.9446302961	 0.092848
73.4039	84.7994	146.6671	219.2257	225.2919	246.9593	284.802	323.6029	359.2018	418.0063	489.581	503.5591	685.9832	742.7463	759.4929	806.7737	844.1586	870.4261	906.0762	911.7335	956.7252	969.4045	979.8904	1004.3037	1040.5914	1049.3554	1053.7471	1070.4544	1087.5149	1098.851	1164.0158	1176.1867	1215.9651	1249.6609	1274.8808	1288.1243	1327.2451	1340.0096	1357.1647	1396.1007	1406.6191	1413.8823	1467.2961	1479.8861	1488.9542	1494.3032	1494.7774	1499.469	1510.9934	3017.3457	3027.3468	3034.3012	3037.9315	3059.8194	3075.2177	3098.4166	3100.5625	3108.1892	3118.524	3124.5104	3174.0398	3193.8561	3207.8218
CCCC1(C)OC2CC12	CCC[C@@]1(C)O[C@H]2C[C@@H]12	
InChI=1S/C8H14O/c1-3-4-8(2)6-5-7(6)9-8/h6-7H,3-5H2,1-2H3	InChI=1S/C8H14O/c1-3-4-8(2)6-5-7(6)9-8/h6-7H,3-5H2,1-2H3/t6-,7+,8-/m1/s1
