20
gdb 89290	1.99809	1.7588	1.11299	3.336	80.71	-0.2115	-0.0175	0.194	1164.423	0.169206	-403.126932	-403.117945	-403.117001	-403.16049	33.962	
C	 0.0180175145	 1.5302162546	 0.1044528599	-0.325433
N	 0.0657627371	 0.0918802594	 0.2164499987	-0.072154
C	-1.1769762052	-0.6680652427	 0.4354651987	-0.218794
C	-0.4279308152	-1.6011199836	 1.4148847381	 0.331346
C	-1.1268059349	-2.0763233837	 2.6680509617	-0.493421
C	 0.5335589509	-2.615082183	 0.7105824361	-0.418388
C	 1.6923127497	-1.6043169915	 0.8802129818	 0.456666
O	 2.876150028	-1.6704070276	 0.7273400605	-0.30798
C	 0.7250799304	-0.5241426334	 1.3941954118	-0.181224
H	 1.0339172207	 1.9303229696	 0.0285026211	 0.132468
H	-0.5198358786	 1.8092824589	-0.8080167148	 0.124796
H	-0.4835539042	 2.021111819	 0.9602107054	 0.090971
H	-1.9561045416	-0.0812254827	 0.9503943047	 0.084674
H	-1.6126253432	-1.1131017034	-0.4677851381	 0.100455
H	-1.8971892492	-2.8191540435	 2.4284400721	 0.124071
H	-0.4221066035	-2.5468673406	 3.362608651	 0.121187
H	-1.614175862	-1.2492420797	 3.1943506268	 0.119744
H	 0.7041753619	-3.5426813523	 1.266600493	 0.127079
H	 0.2920248471	-2.869784002	-0.3248533458	 0.131269
H	 0.9936533873	 0.1423852284	 2.2208919172	 0.072668
81.1168	105.309	204.0482	215.8317	239.4337	297.7161	319.3146	330.7275	385.5879	449.7504	517.4659	590.1464	602.8672	725.9024	818.0041	830.8883	901.2995	953.8372	960.7167	985.496	1006.7139	1066.2573	1077.0275	1106.184	1136.4133	1156.0953	1163.8186	1197.8106	1212.2685	1229.041	1252.0776	1278.914	1317.9132	1356.8602	1415.9058	1434.7969	1451.5762	1486.6816	1491.7002	1494.8259	1500.2604	1518.5043	1893.4589	2924.6324	2959.6888	3023.3687	3038.9614	3053.1495	3055.8479	3059.2942	3085.8443	3098.0384	3102.9376	3110.655
CN1CC2(C)CC(=O)C12	CN1C[C@@]2(C)CC(=O)[C@@H]12	
InChI=1S/C7H11NO/c1-7-3-5(9)6(7)8(2)4-7/h6H,3-4H2,1-2H3	InChI=1S/C7H11NO/c1-7-3-5(9)6(7)8(2)4-7/h6H,3-4H2,1-2H3/t6-,7-/m1/s1
