19
gdb 57679	2.39041	1.01269	0.85319	3.9807	73.39	-0.2558	-0.0315	0.2243	1402.541	0.154387	-460.199035	-460.188544	-460.1876	-460.235325	36.568	
C	-0.0341536226	 1.5968237576	 0.0144936916	-0.417559
C	 0.0561464032	 0.06973835	 0.0996281808	 0.308948
C	 0.8112784136	-0.3935433198	 1.3515266948	-0.418516
C	-1.3589579581	-0.540578628	 0.054204086	-0.28596
C	-1.3825937451	-2.0575957167	 0.0899849954	 0.144711
O	-2.031609517	-2.698142315	 0.8773587775	-0.241556
O	 0.6847817296	-0.4645196331	-1.1091809921	-0.229702
C	 1.9568432871	-0.1550578903	-1.4150914993	 0.166751
O	 2.4935939988	-0.5735324586	-2.3981752387	-0.274597
H	 0.9533406351	 2.0642813393	 0.0588985185	 0.125288
H	-0.5199392151	 1.8997309655	-0.9169887449	 0.137211
H	-0.6211549478	 1.9834552465	 0.8526597505	 0.132689
H	 0.2395878307	-0.1300587381	 2.2461594003	 0.137911
H	 0.9500667912	-1.4781499017	 1.3455927265	 0.144561
H	 1.7931284811	 0.0796497303	 1.4341541619	 0.125696
H	-1.9588302071	-0.1662425354	 0.8877034826	 0.122893
H	-1.8314874665	-0.2255226485	-0.8854049646	 0.133063
H	-0.7593890228	-2.5513576947	-0.6841252875	 0.106382
H	 2.4483251915	 0.5105926407	-0.6851549093	 0.081787
49.7006	71.7028	101.7754	137.5124	176.1485	225.4513	248.4332	254.9044	327.9048	340.232	378.7054	425.1258	480.5334	535.7478	593.5773	758.0971	854.5098	920.622	930.2886	956.3633	995.3782	1046.461	1052.6225	1063.456	1161.5572	1180.5998	1202.1368	1239.9284	1292.5009	1329.7512	1405.5384	1417.555	1422.5237	1436.4773	1448.6341	1480.2068	1489.2965	1501.8327	1506.5252	1828.2896	1855.8127	2924.9258	2990.924	3032.2244	3044.7636	3049.5718	3109.8783	3117.0282	3123.225	3124.3832	3126.764
CC(C)(CC=O)OC=O	CC(C)(CC=O)OC=O	
InChI=1S/C6H10O3/c1-6(2,3-4-7)9-5-8/h4-5H,3H2,1-2H3	InChI=1S/C6H10O3/c1-6(2,3-4-7)9-5-8/h4-5H,3H2,1-2H3
