17
gdb 77317	2.93208	1.26252	0.938	2.7695	73.18	-0.2592	0.0115	0.2707	1204.7683	0.137316	-418.075527	-418.066947	-418.066003	-418.109012	31.336	
C	-0.0698871142	 1.5919482359	 0.004315632	-0.409806
C	 0.0985593842	 0.0773068279	 0.0034216213	-0.114393
C	 0.871573679	-0.5203568348	-1.2001158465	-0.160385
C	 1.4981012346	-1.823270428	-0.6301410682	-0.184532
N	 1.688901714	-1.4678596061	 0.7616974328	-0.321146
C	 0.896421914	-0.4445127274	 1.2111939728	 0.413016
O	 0.8288804968	-0.0343149351	 2.3468675339	-0.37432
C	 0.0602138408	-0.7406654852	-2.3905245709	 0.275371
N	-0.5914435628	-0.9155950691	-3.3288824032	-0.318626
H	 0.896056722	 2.095448104	-0.108156365	 0.123783
H	-0.7254729815	 1.9173697019	-0.8080119086	 0.13207
H	-0.502062729	 1.908337993	 0.9565015971	 0.151478
H	-0.8883498838	-0.4007624593	 0.0623468888	 0.124706
H	 1.6840801361	 0.1674323059	-1.4625781932	 0.136262
H	 0.8145237493	-2.6732483331	-0.7578136556	 0.131482
H	 2.4429055488	-2.0678877361	-1.1226884603	 0.134667
H	 2.1932021017	-2.0469701245	 1.4144769329	 0.260374
73.4039	132.7714	161.0388	207.6943	222.56	253.681	363.6718	446.502	476.6136	513.0245	565.4843	588.2546	673.2271	706.1195	819.9901	838.6335	984.0248	1012.9887	1035.9919	1074.9256	1078.0251	1129.5569	1139.1172	1221.9086	1241.7465	1265.6149	1301.2193	1337.5532	1346.0031	1373.1567	1410.611	1446.6792	1494.4437	1496.8422	1532.5138	1837.3727	2360.8874	3016.0252	3026.673	3042.7571	3049.2367	3089.0449	3112.9126	3133.3604	3641.004
CC1C(CNC1=O)C#N	C[C@H]1[C@@H](CNC1=O)C#N	
InChI=1S/C6H8N2O/c1-4-5(2-7)3-8-6(4)9/h4-5H,3H2,1H3,(H,8,9)	InChI=1S/C6H8N2O/c1-4-5(2-7)3-8-6(4)9/h4-5H,3H2,1H3,(H,8,9)/t4-,5+/m0/s1
