16
gdb 13686	5.16714	1.01797	0.97606	5.3147	62.61	-0.2727	0.007	0.2798	1206.5027	0.128289	-420.875574	-420.867037	-420.866093	-420.909711	29.234	
C	 0.3016442523	 1.3046881369	-0.32297319	-0.423563
C	 0.1556757547	-0.0982641947	 0.2103148566	 0.080425
O	 1.342306017	-0.7825624846	 0.6298242598	-0.255431
C	 0.3377264462	-0.5079318092	 1.6139225714	 0.050349
C	 0.7338940691	 0.4280285682	 2.7252759562	-0.126603
O	 1.4888653677	-0.2709596985	 3.725402123	-0.183772
C	 2.8200727599	-0.3877048543	 3.5166379442	 0.178009
O	 3.5314918227	-0.983163109	 4.2667790909	-0.270874
H	 0.9851696123	 1.9081339083	 0.2769910042	 0.12801
H	 0.6914286259	 1.2729481068	-1.3453928561	 0.139962
H	-0.6731016967	 1.8030163329	-0.3529947241	 0.130229
H	-0.5148094759	-0.7280766118	-0.3780165359	 0.099634
H	-0.1975404144	-1.3933354471	 1.9604986852	 0.110141
H	 1.3100093037	 1.2751537004	 2.3417869541	 0.119389
H	-0.1497279178	 0.810970733	 3.2429760048	 0.13213
H	 3.1587657933	 0.1263709126	 2.5986127758	 0.091965
49.0477	73.5324	130.8464	169.6153	212.604	272.7383	344.9291	396.3683	467.6569	504.0293	675.6263	768.8595	838.2346	908.3563	986.027	1004.4059	1035.5665	1051.4181	1094.6853	1106.4166	1148.2875	1172.2066	1199.7717	1297.7382	1310.2667	1368.788	1409.9372	1419.3947	1434.3606	1467.6067	1487.7904	1490.6799	1513.336	1869.6985	2978.56	3043.5121	3059.3613	3086.4004	3102.5055	3105.7611	3116.3052	3139.1808
CC1OC1COC=O	C[C@H]1O[C@H]1COC=O	
InChI=1S/C5H8O3/c1-4-5(8-4)2-7-3-6/h3-5H,2H2,1H3	InChI=1S/C5H8O3/c1-4-5(8-4)2-7-3-6/h3-5H,2H2,1H3/t4-,5+/m1/s1
