17
gdb 13691	5.2998	0.94248	0.87585	5.0915	66.79	-0.2449	0.037	0.2819	1295.7	0.141661	-401.001307	-400.992637	-400.991693	-401.036131	30.59	
O	 0.0497191149	 1.4209369806	 0.4149061217	-0.414722
C	-0.0747374951	 0.1005303676	-0.028576265	 0.099242
C	-0.5704814805	-0.9587859473	 0.9246142906	-0.338259
C	-1.4681453752	-0.431404449	-0.1853683093	-0.021309
C	-2.6628616445	 0.4341493916	 0.151656461	-0.182122
N	-3.8056729614	-0.358505013	 0.5862216266	-0.270552
C	-4.9976400377	-0.3762809043	-0.066235064	 0.153328
O	-5.2750845112	 0.2792709728	-1.0486366617	-0.323346
H	 0.8220023331	 1.4710881958	 0.9875694682	 0.290818
H	 0.6567846961	-0.1973652674	-0.779389167	 0.092882
H	-0.1724443041	-1.9650775817	 0.8538080959	 0.115236
H	-0.789580529	-0.6240639645	 1.9344070289	 0.111075
H	-1.6282400834	-1.0985612664	-1.0274657037	 0.10005
H	-2.3883167464	 1.1617547595	 0.9214387536	 0.121565
H	-3.0000697653	 0.9916513013	-0.725008704	 0.152895
H	-3.6853137214	-0.9809236126	 1.369751682	 0.24425
H	-5.7135757789	-1.073383333	 0.4145626163	 0.068971
22.4616	62.1467	137.7229	199.2974	257.0656	302.6025	320.0103	394.2547	464.568	541.6424	569.9014	740.353	781.741	841.6361	894.0756	920.5244	968.5845	1016.3668	1031.8196	1048.5514	1077.8659	1135.2053	1166.9141	1177.7701	1213.5384	1236.4997	1273.8962	1303.1706	1348.3552	1410.282	1428.1699	1431.9639	1484.9972	1497.0804	1532.9237	1806.4052	2926.6591	3061.5985	3100.5506	3119.9576	3124.6386	3153.2198	3214.8132	3630.9835	3809.2435
OC1CC1CNC=O	O[C@H]1C[C@H]1CNC=O	
InChI=1S/C5H9NO2/c7-3-6-2-4-1-5(4)8/h3-5,8H,1-2H2,(H,6,7)	InChI=1S/C5H9NO2/c7-3-6-2-4-1-5(4)8/h3-5,8H,1-2H2,(H,6,7)/t4-,5-/m0/s1
