17
gdb 11885	4.46582	1.54405	1.31881	3.569	68.12	-0.2348	-0.0169	0.2179	943.4519	0.143054	-363.870264	-363.863126	-363.862182	-363.901845	27.58	
O	 0.0787280061	 0.0225020053	 0.2098904824	-0.308748
C	 0.0077486952	 1.2185740711	 0.1090090238	 0.402793
C	-1.1742844395	 2.0878954738	 0.5670937964	-0.31599
C	-0.9357907295	 3.4568780318	-0.0919179397	-0.301523
C	 0.586208996	 3.5437133537	-0.2081727043	 0.340832
C	 1.285202685	 4.7791577349	-0.6156232858	-0.303576
N	 1.3681539588	 4.306701394	 0.7829648696	-0.347121
C	 1.0750302971	 2.1363350751	-0.504407934	-0.378692
H	-2.1268502387	 1.611987038	 0.325153204	 0.129064
H	-1.1157656912	 2.1592090508	 1.6608594295	 0.13685
H	-1.3869572819	 3.4764785371	-1.0916113765	 0.113969
H	-1.3569779802	 4.2958544813	 0.4701489779	 0.100719
H	 2.2170952599	 4.7246755457	-1.1722817078	 0.120158
H	 0.6826105867	 5.6583833621	-0.8331307076	 0.109847
H	 0.7472324508	 4.864606931	 1.3654483225	 0.225914
H	 2.0652448706	 1.9279906594	-0.0945565673	 0.14458
H	 1.1090274648	 1.936320185	-1.5836720532	 0.130924
71.1444	133.3109	269.3298	361.9776	374.9362	467.3232	476.4651	507.7556	588.1682	711.9001	755.9987	808.0304	843.7557	905.3649	927.5267	934.3368	961.7018	990.0421	1011.7213	1078.7506	1122.2514	1136.3847	1165.7525	1185.3843	1211.9036	1246.9452	1266.7201	1289.1372	1309.7268	1331.2876	1412.1142	1437.4409	1450.5907	1491.7752	1514.6493	1851.6421	3030.5962	3034.2924	3039.0301	3083.5755	3100.0905	3114.7717	3119.2118	3183.8358	3484.7973
O=C1CCC2(CN2)C1	O=C1CC[C@]2(CN2)C1	
InChI=1S/C6H9NO/c8-5-1-2-6(3-5)4-7-6/h7H,1-4H2	InChI=1S/C6H9NO/c8-5-1-2-6(3-5)4-7-6/h7H,1-4H2/t6-/m1/s1
