17
gdb 51167	4.39602	1.04504	0.94862	4.2394	74.71	-0.2497	-0.0042	0.2455	1237.3931	0.135758	-421.84124	-421.833417	-421.832472	-421.873991	29.603	
O	 0.1014042725	-0.0321487212	-0.238472269	-0.271802
C	 0.1444778153	 1.1579327997	-0.3176899902	 0.148383
O	 1.0346278467	 1.899044824	 0.3806271937	-0.233032
C	 0.9548631832	 3.3006076612	 0.2333217011	 0.402975
C	 1.2301170901	 3.948749816	-1.1040067662	-0.334465
C	 2.2042376994	 4.1287149258	 0.042616087	-0.110304
C	 2.0725827675	 5.3606722175	 0.9356253529	-0.280336
C	 0.6955047903	 5.2089280039	 1.5501327237	-0.069818
C	 0.1023904231	 4.0702795726	 1.1876800307	-0.146486
H	-0.5146365047	 1.7735771651	-0.9570780074	 0.085384
H	 1.5696896725	 3.301575108	-1.9063744465	 0.126122
H	 0.5969027857	 4.7735432395	-1.41474735	 0.122312
H	 3.1622435402	 3.6325726255	-0.0499796036	 0.10977
H	 2.8531191716	 5.3904344506	 1.7065889167	 0.1202
H	 2.1650405549	 6.2941964985	 0.366263544	 0.118621
H	 0.2550299609	 5.9688620192	 2.1851178581	 0.105702
H	-0.8785313293	 3.728269704	 1.4960407947	 0.106776
69.9192	140.7482	149.6349	271.4723	304.9442	372.1292	434.3455	450.8431	540.6385	706.8387	741.4257	765.6842	776.7517	861.1932	917.7563	931.9033	951.355	964.2132	983.9976	1026.6474	1049.2475	1061.2563	1071.8555	1088.541	1132.1871	1169.1265	1191.6498	1239.3447	1262.9436	1313.1171	1356.4368	1393.1752	1420.0947	1467.6354	1480.5264	1669.1949	1867.5748	2971.6835	3024.5879	3052.8112	3124.6883	3192.7635	3194.2581	3216.3316	3217.255
O=COC12CC1CC=C2	O=CO[C@]12C[C@H]1CC=C2	
InChI=1S/C7H8O2/c8-5-9-7-3-1-2-6(7)4-7/h1,3,5-6H,2,4H2	InChI=1S/C7H8O2/c8-5-9-7-3-1-2-6(7)4-7/h1,3,5-6H,2,4H2/t6-,7-/m1/s1
