15
gdb 49539	2.94651	1.20723	0.94244	2.603	72.65	-0.2432	-0.035	0.2082	1198.3237	0.110187	-420.519257	-420.511351	-420.510406	-420.552088	29.576	
O	-0.1870785297	-0.0458388199	-0.146899735	-0.255493
C	-0.0908508857	 1.1334518333	 0.0898678648	 0.137685
C	 1.2176836431	 1.8717056375	 0.0367216778	-0.105561
C	 1.2133629675	 3.3028490088	-0.5829944144	 0.028126
O	 0.4294736239	 3.7885350458	 0.5700105282	-0.306418
C	 1.4905215315	 2.9366131367	 1.1428763433	 0.02805
C	 2.5155909466	 3.6574505327	 0.207163546	-0.172671
C	 3.7915138966	 3.0657089871	-0.1232930937	 0.296966
C	 4.8591350136	 2.5852471107	-0.3969914729	-0.431629
H	-0.9704784894	 1.748371682	 0.3632440335	 0.103421
H	 2.0414427825	 1.2113796286	-0.2357930999	 0.113872
H	 0.9095367384	 3.621942635	-1.5795649052	 0.117977
H	 1.5205914858	 2.8146735009	 2.2252419887	 0.11795
H	 2.5800613231	 4.725953719	 0.4235372498	 0.122082
H	 5.8012669822	 2.1588874518	-0.6400970608	 0.205641
95.2092	110.5317	161.5883	236.6516	276.6922	386.2813	473.562	497.3248	549.1813	624.9132	648.0901	664.1466	721.9248	790.2329	885.8776	890.7698	902.9133	961.2423	1028.8483	1053.824	1077.7881	1120.359	1127.8258	1140.0682	1183.3195	1187.2403	1228.4569	1255.9495	1325.0998	1355.4443	1423.4797	1818.622	2236.2689	2946.194	3096.5586	3122.9915	3127.1127	3133.3857	3500.3528
O=CC1C2OC1C2C#C	O=C[C@H]1[C@H]2O[C@@H]1[C@H]2C#C	
InChI=1S/C7H6O2/c1-2-4-6-5(3-8)7(4)9-6/h1,3-7H	InChI=1S/C7H6O2/c1-2-4-6-5(3-8)7(4)9-6/h1,3-7H/t4-,5-,6-,7+
