21
gdb 52713	4.32639	0.65201	0.5981	1.791	88.53	-0.2453	0.0417	0.287	1920.7503	0.17993	-387.049541	-387.038681	-387.037737	-387.087961	37.878	
C	-0.0489451766	 1.4646685066	 0.0326046126	-0.499607
C	-0.0383394213	 0.0097470929	-0.0169267118	 0.087919
C	-0.0282668223	-1.1949321041	-0.0366066254	 0.038054
C	-0.0420743632	-2.6583900622	-0.1232924651	-0.062719
O	-1.366490216	-3.1613985944	-0.2966209874	-0.412517
C	 0.9232186999	-3.1606009585	-1.2201063776	-0.210043
C	 1.0602249541	-4.6662700247	-1.2531739024	 0.039519
C	 0.0873201281	-5.5157894991	-2.0263606226	-0.23476
C	 1.5060378671	-5.3644876665	-2.5151685624	-0.290697
H	 0.5937479365	 1.8368810463	 0.8380162998	 0.151429
H	 0.3086373223	 1.901568287	-0.9062575828	 0.147738
H	-1.0594921615	 1.8470181845	 0.2139899199	 0.150839
H	 0.28415998	-3.0782274696	 0.8374344062	 0.110553
H	-1.7731003688	-2.650360641	-1.0049690796	 0.279828
H	 0.5681112235	-2.7906796306	-2.1911283434	 0.089577
H	 1.9014624199	-2.6933399903	-1.0500068235	 0.105683
H	 1.4263786159	-5.096659706	-0.3235074059	 0.07935
H	-0.2168158131	-6.4667968222	-1.6038181728	 0.110012
H	-0.6982384141	-5.0066977572	-2.5732784499	 0.1042
H	 1.679034792	-4.7544989833	-3.3962290665	 0.106868
H	 2.1782905977	-6.2108123576	-2.4262507493	 0.108776
15.5373	41.7679	76.0498	88.7318	148.7587	195.6355	255.7483	282.1395	323.4378	352.2595	358.0768	436.8433	539.5841	555.0073	765.5832	781.3445	802.4361	844.8388	883.6654	931.9483	952.8785	1027.7803	1051.8217	1054.4961	1057.1664	1070.945	1082.3731	1124.0809	1137.1501	1167.4154	1195.8225	1226.1472	1243.5606	1273.9681	1319.5447	1358.6419	1410.6665	1414.597	1425.5318	1468.9212	1475.3318	1477.1727	1478.8287	1508.5766	2364.7761	3014.6024	3024.5178	3027.2126	3058.4304	3088.0967	3088.9821	3126.1987	3128.2779	3139.2348	3206.2317	3223.9902	3806.5729
CC#CC(O)CC1CC1	CC#C[C@@H](O)CC1CC1	
InChI=1S/C8H12O/c1-2-3-8(9)6-7-4-5-7/h7-9H,4-6H2,1H3	InChI=1S/C8H12O/c1-2-3-8(9)6-7-4-5-7/h7-9H,4-6H2,1H3/t8-/m1/s1
