16
gdb 8641	2.1912	1.88158	1.63118	0.8214	72.48	-0.2651	0.0134	0.2785	938.2144	0.125614	-346.517391	-346.50802	-346.507076	-346.550701	34.087	
C	-0.0545419672	 1.3974771035	 0.0781049808	-0.248166
O	 0.0075154877	-0.0168467574	-0.0058965885	-0.240705
C	 0.6631728547	-0.542450353	-1.1572206854	-0.033205
C	 0.5868557005	-2.0727580507	-0.9940076322	-0.40827
C	-0.024627601	-0.1334712413	-2.3989368283	 0.362785
C	-0.6090434127	 0.1795213083	-3.4008894624	-0.488135
C	 2.0750910898	-0.111689734	-1.213102291	 0.36298
C	 3.2299092299	 0.2190899968	-1.2329701608	-0.488286
H	 0.9474306629	 1.8437211476	 0.1132610284	 0.120573
H	-0.6080344663	 1.8277107628	-0.766207475	 0.120569
H	-0.5821986721	 1.6221247979	 1.0072228436	 0.128736
H	-0.4620497627	-2.3717351987	-0.94392954	 0.135549
H	 1.0685872818	-2.5693053575	-1.8379260033	 0.134728
H	 1.0901950364	-2.3556428055	-0.0673345506	 0.135543
H	-1.118476233	 0.4614983856	-4.2894565303	 0.202647
H	 4.2499389612	 0.5147679859	-1.259394145	 0.202658
115.0977	126.0388	163.4941	174.7051	215.5848	233.7728	275.8632	283.0517	422.5504	470.5847	511.3441	561.1202	630.5472	639.0691	641.0034	672.5812	672.9579	673.5531	887.3091	931.9381	1076.3788	1129.5048	1153.2165	1184.6621	1196.4882	1234.3283	1398.4896	1471.7799	1478.27	1485.7138	1485.8375	1511.1544	2231.2616	2234.3262	3009.6568	3060.1079	3070.3085	3127.7935	3147.2241	3151.4916	3498.6738	3499.2418
COC(C)(C#C)C#C	COC(C)(C#C)C#C	
InChI=1S/C7H8O/c1-5-7(3,6-2)8-4/h1-2H,3-4H3	InChI=1S/C7H8O/c1-5-7(3,6-2)8-4/h1-2H,3-4H3
