21
gdb 82888	2.44572	1.89787	1.43531	1.2903	81.32	-0.2456	0.0753	0.3208	1007.0605	0.184114	-387.061448	-387.053614	-387.05267	-387.093155	32.286	
C	-0.2312941741	 1.6256776259	-0.0562768323	-0.446325
C	 0.0251829688	 0.1249234514	-0.0210822731	-0.016425
C	 1.111391712	-0.5852265753	-0.894260752	-0.073882
C	 2.4129085445	 0.1404713921	-0.496034072	-0.212531
C	 2.3654274493	-0.3155076859	 0.9758065994	-0.111638
C	 2.5253430552	-1.8530116106	 0.8222402095	-0.248015
C	 1.1320506571	-1.7601431866	 0.1835459692	-0.063253
C	 0.7853933399	-0.5693050983	 1.1200703172	 0.411449
O	 0.2656445874	-0.7892188572	 2.3922673378	-0.492054
H	 0.6650342996	 2.2145240725	 0.1594870985	 0.113369
H	-0.6106178815	 1.9425609364	-1.0343007483	 0.116811
H	-0.9870242165	 1.8976884508	 0.6893625455	 0.11518
H	-0.9233536449	-0.4124198613	-0.1449350541	 0.073002
H	 0.9295855408	-0.7885827584	-1.9484559607	 0.059573
H	 3.3002284264	-0.2356489182	-1.0144717722	 0.091695
H	 2.365943568	 1.2209343231	-0.6468744372	 0.091199
H	 2.9232458552	 0.2498942311	 1.7237907625	 0.052156
H	 3.3755773773	-2.2219110203	 0.2399158267	 0.0842
H	 2.4700210293	-2.3750789813	 1.7802335347	 0.107127
H	 0.4592051795	-2.6021820632	 0.0274480472	 0.068509
H	 0.432216357	-0.0069680569	 2.928758144	 0.279854
155.313	190.12	220.4642	241.0961	296.4189	352.4958	478.564	486.2613	529.031	599.4433	650.7162	694.526	752.6324	820.4148	857.5135	889.989	929.1446	936.1778	951.5235	957.4338	986.3866	1004.8442	1020.1196	1062.9613	1080.576	1093.5489	1122.836	1135.3854	1150.3374	1187.2156	1197.2627	1223.5706	1231.9914	1239.4095	1255.6674	1286.1559	1305.7139	1323.2514	1370.4273	1403.8678	1413.4439	1484.8144	1494.887	1497.836	1523.3128	3028.7057	3033.8649	3046.582	3055.1215	3087.7993	3096.7553	3101.6577	3110.714	3114.5716	3120.9699	3130.8919	3804.0922
CC1C2CC3CC2C13O	C[C@H]1[C@H]2C[C@@H]3C[C@H]2[C@]13O	
InChI=1S/C8H12O/c1-4-6-2-5-3-7(6)8(4,5)9/h4-7,9H,2-3H2,1H3	InChI=1S/C8H12O/c1-4-6-2-5-3-7(6)8(4,5)9/h4-7,9H,2-3H2,1H3/t4-,5+,6+,7+,8-/m0/s1
