20
gdb 121540	5.3101	0.49936	0.47411	1.8651	88.64	-0.2361	0.0256	0.2616	2342.4419	0.169256	-403.079501	-403.069136	-403.068192	-403.11705	35.507	
C	 0.5129873079	 1.3691919775	 0.1554803991	-0.386723
C	-0.0295072643	-0.0156613493	-0.1513510761	-0.017015
O	 0.7312485286	-0.570228861	-1.2077359069	-0.24077
C	 0.2957718962	-1.8682677553	-1.5614594167	-0.207262
C	 1.1037678633	-2.3957030733	-2.6516336227	-0.013508
C	 1.7612215451	-2.8476468716	-3.5550425327	 0.174206
C	 2.5376206207	-3.4028437951	-4.625869083	-0.164905
C	 3.9788858564	-3.0310574409	-4.7645243986	-0.224769
N	 3.6152824569	-4.383622507	-4.3357872399	-0.307209
H	 1.5641727727	 1.3119019698	 0.4514261648	 0.128885
H	 0.4396017719	 2.0132890633	-0.7251848967	 0.129892
H	-0.0539771201	 1.8280388876	 0.9709678552	 0.115466
H	 0.0300182661	-0.6628197296	 0.7408158026	 0.086021
H	-1.094188973	 0.038382356	-0.4370242851	 0.086739
H	 0.3568914917	-2.5445756507	-0.690263399	 0.113905
H	-0.7658370462	-1.8498996794	-1.8652177177	 0.11629
H	 1.9852444506	-3.6368659868	-5.5322933132	 0.116962
H	 4.4106061258	-2.9642830392	-5.7590479638	 0.125834
H	 4.3848601555	-2.335687299	-4.0361896142	 0.127988
H	 3.7195891041	-4.459693466	-3.3265466355	 0.239975
29.2885	60.5505	65.9708	111.9037	136.2264	175.9794	246.7684	277.7269	310.2115	375.2448	472.6314	529.0356	564.9476	738.7689	813.3485	821.4661	880.2167	908.0249	962.194	994.9873	1025.4327	1031.0504	1089.0225	1119.6751	1131.4763	1152.9968	1161.9833	1188.5494	1220.6617	1254.9162	1259.2395	1295.6769	1300.2695	1378.5645	1396.1967	1405.483	1447.4208	1483.4249	1495.0735	1500.6451	1505.4565	1531.5881	2362.775	2940.4079	2953.0719	2959.084	2973.8622	3045.9762	3115.8822	3120.3276	3123.6581	3139.0449	3207.1457	3503.3057
CCOCC#CC1CN1	CCOCC#C[C@H]1CN1	
InChI=1S/C7H11NO/c1-2-9-5-3-4-7-6-8-7/h7-8H,2,5-6H2,1H3	InChI=1S/C7H11NO/c1-2-9-5-3-4-7-6-8-7/h7-8H,2,5-6H2,1H3/t7-/m0/s1
