14
gdb 19892	4.10276	2.0214	1.65892	3.5827	65.21	-0.245	0.0005	0.2456	774.7811	0.108008	-341.494449	-341.488174	-341.48723	-341.524731	24.51	
N	-0.3666896002	-1.2073364795	-0.293817628	-0.344208
C	-0.1397364643	-0.0915381424	-0.0869216404	 0.297007
C	 0.029114998	 1.328781159	 0.0898445306	-0.141423
C	 0.5306333529	 2.0904595413	 1.2684607393	-0.050277
C	 1.7384074037	 1.5404482611	 2.0426316573	-0.075283
C	 2.2619117589	 0.2440102976	 1.4901490066	-0.318203
C	 2.4620744793	 1.5116696658	 0.713572237	 0.000779
N	 1.281011266	 2.1252242089	-0.0292780969	-0.159151
H	-0.7589759362	 1.8595626942	-0.4430580318	 0.153081
H	-0.0207813784	 2.9616982723	 1.6096879327	 0.115762
H	 2.04981241	 1.9587062332	 2.9893971099	 0.108528
H	 3.1792859173	-0.0783439364	 1.975294332	 0.127368
H	 1.6289798984	-0.5742857746	 1.1803541691	 0.167562
H	 3.4329876648	 1.8894556995	 0.4236589527	 0.118461
132.4894	184.4323	337.9483	370.7624	452.1756	599.5783	627.5228	675.0892	708.0184	751.9331	770.9863	884.0798	888.5398	939.7482	949.6795	1004.2178	1018.6628	1057.3711	1060.0664	1076.6152	1082.1271	1107.3272	1188.1999	1249.7458	1269.1674	1333.3125	1353.1624	1406.9722	1495.4118	2343.629	3121.7456	3144.018	3154.2998	3204.8935	3216.6149	3249.6178
N#CC1C2C3CC3N12	N#C[C@H]1[C@H]2[C@H]3C[C@H]3N12	
InChI=1S/C6H6N2/c7-2-5-6-3-1-4(3)8(5)6/h3-6H,1H2	InChI=1S/C6H6N2/c7-2-5-6-3-1-4(3)8(5)6/h3-6H,1H2/t3-,4+,5-,6+,8?/m0/s1
