22
gdb 22910	3.05097	1.10541	0.90727	0.8338	85.44	-0.2367	0.0129	0.2496	1359.1772	0.193748	-404.336793	-404.327176	-404.326232	-404.370949	36.813	
C	-0.3780805318	 1.4290798172	-0.0076332708	-0.415961
C	 0.073533941	-0.0287069992	 0.0382155392	 0.032786
C	 0.9344651194	-0.4740355533	-1.1635854024	-0.227277
C	 1.5423073421	-1.8188795331	-0.7232011381	-0.302328
C	 1.5763186493	-1.7307703998	 0.788134592	 0.403583
N	 2.0580341207	-2.5748134839	 1.6086714591	-0.236581
O	 2.6270407838	-3.6739639099	 0.932042206	-0.397413
C	 0.9164252969	-0.4513746714	 1.2755719179	-0.07437
C	 1.9733968931	 0.5766535017	 1.7208261684	-0.396887
H	 0.4732752208	 2.1151893652	-0.0622810612	 0.11759
H	-1.0043089535	 1.6109488016	-0.8875342484	 0.112733
H	-0.9665493731	 1.6958262594	 0.8769869377	 0.113297
H	-0.824805653	-0.6623230586	 0.044254087	 0.074789
H	 0.3536224914	-0.5498945999	-2.0871094365	 0.096737
H	 1.7277353	 0.2611910636	-1.3452586067	 0.100767
H	 0.9118913735	-2.6678532628	-1.0163472573	 0.125569
H	 2.5339017326	-2.0233953984	-1.1368323039	 0.125707
H	 2.937719701	-4.2197598843	 1.6619087271	 0.303228
H	 0.2712638673	-0.6635524162	 2.1338607395	 0.085238
H	 2.6508089869	 0.8495087773	 0.9045013492	 0.114233
H	 1.5041874241	 1.4934267693	 2.0903700637	 0.113926
H	 2.5793948278	 0.1525852256	 2.5256674984	 0.130636
58.6992	162.8039	173.6172	209.9503	233.0903	247.4925	282.6053	319.5326	353.0276	409.4595	438.7764	536.4966	558.7415	568.3465	677.641	771.6195	797.617	835.8927	903.9278	953.9631	970.3669	982.0621	999.8535	1027.1248	1048.8087	1088.3924	1119.156	1160.4259	1193.1514	1210.7596	1244.2825	1271.3889	1304.2388	1316.8998	1334.2247	1360.2255	1382.1261	1394.3833	1405.9635	1413.9988	1465.6081	1489.5918	1494.7576	1498.3274	1505.8495	1508.3428	1750.1976	2998.2226	3030.0316	3033.6666	3036.3116	3039.5847	3055.8236	3084.0054	3092.1452	3094.6604	3102.1679	3105.5722	3119.2033	3820.325
CC1CCC(=NO)C1C	C[C@H]1CCC(=NO)[C@H]1C	
InChI=1S/C7H13NO/c1-5-3-4-7(8-9)6(5)2/h5-6,9H,3-4H2,1-2H3	InChI=1S/C7H13NO/c1-5-3-4-7(8-9)6(5)2/h5-6,9H,3-4H2,1-2H3/t5-,6-/m0/s1
