17
gdb 126060	3.05875	1.5766	1.15117	2.7896	73.25	-0.2394	-0.0125	0.2269	1053.4058	0.13868	-417.992359	-417.984943	-417.983999	-418.024457	28.461	
C	 0.2730332122	 1.5328537911	-0.1079400032	-0.362075
C	-0.0919142396	 0.0543753508	 0.0733537157	-0.121873
N	 0.3352521088	-0.7672094796	-1.1005073341	-0.309202
C	 1.5785690306	-1.5228385113	-0.7652980653	-0.315369
C	 1.6283706023	-1.4922601885	 0.7354469112	 0.149781
C	 2.2168146071	-1.9439308788	 1.8662427421	-0.091362
O	 1.6395258921	-1.3633703296	 2.9440029605	-0.175127
N	 0.6314340281	-0.4825891912	 2.5177173672	-0.255292
C	 0.6534351334	-0.5848390785	 1.218355079	 0.382759
H	 1.3515858181	 1.6506090768	-0.2503034264	 0.120243
H	-0.2340658001	 1.9367358572	-0.9877690343	 0.122033
H	-0.0207286503	 2.1107612867	 0.7734337411	 0.128941
H	-1.1764618301	-0.0321136438	 0.1944912221	 0.100495
H	-0.3951479735	-1.4404632451	-1.2971228031	 0.226321
H	 1.5336852334	-2.5281297992	-1.1943688259	 0.120642
H	 2.4530172869	-1.0267148062	-1.2057272836	 0.127641
H	 3.0051554305	-2.6450219008	 2.091789257	 0.151442
80.9938	152.9397	230.1982	246.1139	320.7532	435.2328	466.7984	593.5738	604.8654	688.931	723.0615	758.7298	786.5575	827.8902	859.6551	882.5423	959.795	986.6472	1022.3822	1044.5729	1095.9409	1105.7326	1114.6291	1161.1089	1213.8285	1277.3888	1292.2622	1339.3999	1357.4103	1402.1907	1427.0031	1461.4785	1488.3053	1491.5628	1506.7099	1547.5634	1668.3522	3019.1575	3042.0434	3056.7886	3077.0017	3117.0405	3126.4118	3264.8977	3547.1323
CC1NCC2=CON=C12	C[C@H]1NCc2conc12	
InChI=1S/C6H8N2O/c1-4-6-5(2-7-4)3-9-8-6/h3-4,7H,2H2,1H3	InChI=1S/C6H8N2O/c1-4-6-5(2-7-4)3-9-8-6/h3-4,7H,2H2,1H3/t4-/m1/s1
