18
gdb 13543	3.7039	1.35049	1.09047	1.3592	74.22	-0.2613	0.0334	0.2947	1110.7944	0.151274	-347.750664	-347.741487	-347.740543	-347.784525	33.504	
C	 0.070952854	 1.568071996	-0.2177027309	-0.400422
C	 0.0452004693	 0.0667846333	-0.0251101945	-0.007412
C	 1.305127917	-0.7613660636	-0.0981484153	-0.295634
C	 0.5771495598	-0.608683343	 1.2170786285	-0.005205
C	 1.1895904125	 0.1906741747	 2.355111415	-0.076855
O	 0.2047950144	 0.8967672944	 3.1111552373	-0.418837
C	 2.0072199068	-0.6712033065	 3.2179464192	 0.307617
C	 2.6330117343	-1.4004947156	 3.9405283607	-0.447087
H	 1.0143348278	 2.0100215426	 0.1156799521	 0.115308
H	-0.0475560734	 1.8208890017	-1.2768051585	 0.112134
H	-0.7349557282	 2.0531236777	 0.3419007066	 0.130042
H	-0.8432403128	-0.4068855386	-0.4356618307	 0.084772
H	 1.2853215623	-1.7254782361	-0.5937258705	 0.112253
H	 2.2449573844	-0.2280181813	-0.2095175153	 0.112553
H	 0.0258912715	-1.4797605276	 1.5633119695	 0.083006
H	 1.8292264789	 0.9774843458	 1.9410505957	 0.113927
H	-0.3048002218	 0.2426572971	 3.6023013089	 0.282167
H	 3.2024310031	-2.032018181	 4.5768708724	 0.197673
53.906	108.4538	162.7556	179.834	225.0789	239.3941	292.6524	360.688	398.9096	490.1651	540.6405	592.3857	630.1422	665.9477	776.1407	836.0401	861.907	894.6795	933.5783	1011.7431	1034.8486	1057.1765	1069.993	1109.4703	1146.2523	1153.1681	1196.0818	1237.4941	1268.7004	1292.4574	1391.295	1413.1175	1419.221	1428.9567	1491.1794	1494.5846	1502.3021	2231.2201	3035.0963	3055.5403	3097.1939	3106.4104	3125.7062	3129.08	3140.0746	3210.8924	3503.319	3805.8497
CC1CC1C(O)C#C	C[C@H]1C[C@H]1[C@@H](O)C#C	
InChI=1S/C7H10O/c1-3-7(8)6-4-5(6)2/h1,5-8H,4H2,2H3	InChI=1S/C7H10O/c1-3-7(8)6-4-5(6)2/h1,5-8H,4H2,2H3/t5-,6+,7-/m0/s1
