20
gdb 87192	3.55135	0.96375	0.88509	6.1455	75.92	-0.2484	0.0243	0.2727	1377.9767	0.170024	-440.31242	-440.302861	-440.301917	-440.346932	35.341	
C	 0.0488092319	 1.5526101716	-0.1877996073	-0.43231
C	 0.1358090487	 0.053419051	-0.0366273635	-0.020357
N	 1.4490314696	-0.6284128214	-0.0613214273	-0.385355
H	 1.9705652888	-2.3745730411	 0.1477860737	 0.314284
H	 2.1977707777	 0.0550298579	 0.0279847517	 0.236651
C	 0.6270562096	-0.6504738248	 1.1829713404	 0.293392
C	 1.1246246732	 0.0970108077	 2.4025307661	-0.471728
C	 0.0752044496	-2.0426158347	 1.4849700299	-0.38812
C	 1.159097099	-3.106525806	 1.7053084665	 0.402401
O	 2.1098878366	-3.1362529654	 0.757050973	-0.371837
O	 1.1516598484	-3.8801119684	 2.6251252869	-0.329759
H	 0.811969827	 2.0775407764	 0.3923281714	 0.121583
H	 0.1740085136	 1.8355595043	-1.2383277819	 0.136058
H	-0.9314847744	 1.9150054745	 0.1389191376	 0.135643
H	-0.6133986724	-0.480736822	-0.619552333	 0.099841
H	 1.583420585	 1.0553795615	 2.1483229887	 0.118517
H	 0.3018997326	 0.2906642936	 3.0988410328	 0.135297
H	 1.8715729312	-0.5010882777	 2.9358725402	 0.147928
H	-0.5580607496	-2.0269964666	 2.3738354608	 0.13061
H	-0.5396646463	-2.3834503803	 0.6437554134	 0.127262
76.7675	85.1247	167.6437	176.0551	188.8009	249.9956	278.7357	346.4163	374.8515	422.1509	475.3475	529.1354	590.2303	670.1734	737.5754	812.8212	840.8911	890.1364	898.7225	940.4638	977.5487	986.4451	1030.3084	1046.986	1096.8148	1119.2217	1162.4839	1205.6818	1242.8552	1263.0528	1297.2209	1334.0025	1371.9891	1413.3918	1426.7816	1444.2006	1456.7679	1469.5777	1483.2413	1489.4874	1498.8549	1513.5996	1862.4688	3036.2539	3040.5003	3046.9547	3098.869	3100.7313	3107.5164	3118.3845	3123.3306	3129.8467	3389.7682	3494.5787
CC1[NH2+]C1(C)CC([O-])=O	C[C@H]1N[C@]1(C)CC(=O)O	
InChI=1S/C6H11NO2/c1-4-6(2,7-4)3-5(8)9/h4,7H,3H2,1-2H3,(H,8,9)	InChI=1S/C6H11NO2/c1-4-6(2,7-4)3-5(8)9/h4,7H,3H2,1-2H3,(H,8,9)/t4-,6-/m1/s1
