17
gdb 36579	2.94945	0.92275	0.76805	5.0787	79.84	-0.2567	0.0196	0.2762	1453.0231	0.134862	-380.82767	-380.818416	-380.817471	-380.862411	33.501	
C	 0.0433799752	-1.2492016516	 0.2506235865	-0.457371
C	-0.0130425759	-0.0485612438	 0.1944095619	 0.295212
C	-0.0966722099	 1.3864355309	 0.0858035501	 0.133749
C	-1.342498052	 1.9306242404	-0.5956032345	-0.261839
C	-1.3932075399	 1.5146292561	-2.0793839607	-0.336633
C	-2.5760866844	 2.0286116213	-2.7630326034	 0.255423
N	-3.5189890868	 2.442376307	-3.2877071314	-0.307073
C	 0.6050540825	 2.2058146521	 1.1213952371	-0.275986
N	 1.1464683748	 2.1329976218	-0.239732721	-0.345355
H	 0.0970975442	-2.3083042035	 0.3137652732	 0.206393
H	-2.2361771795	 1.5722667973	-0.0756020366	 0.129654
H	-1.3300447595	 3.0214100804	-0.5259229819	 0.131198
H	-0.4972572981	 1.8860270885	-2.5885544885	 0.166003
H	-1.3838322715	 0.4222393775	-2.1634785996	 0.161052
H	 0.1848547587	 3.1687582663	 1.3981799054	 0.130392
H	 1.1154434515	 1.677374271	 1.9205903964	 0.129899
H	 1.9331912604	 1.4890420985	-0.2654242031	 0.245281
59.3985	86.1226	116.1078	158.1972	211.6668	257.5745	336.0458	394.8902	414.1109	515.8675	551.766	573.1502	612.0699	667.0761	716.3155	767.2878	834.1099	916.7574	932.9623	965.1874	990.9465	1037.9545	1047.0635	1084.7292	1139.1843	1188.5291	1264.5082	1282.9533	1300.4023	1330.2761	1360.1696	1388.3228	1468.4005	1481.6247	1506.4362	2230.9755	2362.668	3047.9936	3062.5633	3087.8605	3114.6666	3116.2619	3207.6283	3499.0341	3509.6211
C#CC1(CCC#N)CN1	C#C[C@@]1(CCC#N)CN1	
InChI=1S/C7H8N2/c1-2-7(6-9-7)4-3-5-8/h1,9H,3-4,6H2	InChI=1S/C7H8N2/c1-2-7(6-9-7)4-3-5-8/h1,9H,3-4,6H2/t7-/m1/s1
