16
gdb 80598	3.80368	1.11291	1.0088	4.6505	64.49	-0.2475	0.0189	0.2664	1163.6122	0.125125	-475.006418	-474.998618	-474.997674	-475.039184	29.377	
O	-0.0101747656	 1.4348661474	 0.173325315	-0.421317
C	 0.0212720621	 0.0423289594	 0.0936426533	 0.085699
C	-0.4017872719	-0.7503440759	 1.2857974594	-0.039868
N	-1.5132601816	-0.1135513376	 2.007400145	-0.352928
H	-2.9336527798	-1.2068358888	 2.6487315049	 0.307001
H	-1.2840548955	 0.8195429803	 2.3415887664	 0.243071
C	-2.3540878362	-0.1174759465	 0.7705378497	-0.130023
C	-1.2268456888	-0.7973290225	-0.01259202	-0.147078
C	-3.6004190629	-0.9915894719	 0.9365627032	 0.428308
O	-3.7254972484	-1.5226594341	 2.156591732	-0.36412
O	-4.3759002759	-1.1813202212	 0.0380242742	-0.349163
H	-0.2400751513	 1.784738061	-0.6943814545	 0.296504
H	 0.8779403276	-0.3751452709	-0.4366405145	 0.10464
H	 0.2183896802	-1.4937662432	 1.7725403266	 0.108456
H	-2.6595073802	 0.8658520117	 0.4012376155	 0.109128
H	-1.3628234519	-1.5908130771	-0.7348642761	 0.121691
82.5591	118.372	170.3264	231.0816	317.543	339.2399	474.4575	496.3232	621.7529	637.6473	707.7421	747.3948	794.5623	845.0376	879.1411	892.7493	945.0549	966.798	1010.2305	1019.0067	1049.4212	1067.3189	1081.774	1105.2561	1200.0129	1222.9808	1238.6908	1276.2252	1287.0637	1295.4259	1341.1755	1375.1324	1436.5432	1454.0234	1870.9574	3072.2596	3106.0038	3181.9604	3213.0402	3449.4953	3496.3323	3805.2004
OC1C2[NH2+]C(C12)C([O-])=O	O[C@H]1[C@H]2N[C@@H]([C@@H]12)C(=O)O	
InChI=1S/C5H7NO3/c7-4-1-2(4)6-3(1)5(8)9/h1-4,6-7H,(H,8,9)	InChI=1S/C5H7NO3/c7-4-1-2(4)6-3(1)5(8)9/h1-4,6-7H,(H,8,9)/t1-,2-,3-,4+/m0/s1
