15
gdb 66661	4.64232	1.20877	1.16552	5.3448	74.63	-0.2393	-0.007	0.2323	1069.2306	0.112126	-379.562873	-379.555572	-379.554628	-379.594524	28.037	
C	 0.0018771245	 1.5123007997	 0.0412001937	-0.526711
C	-0.0114929222	 0.0217771566	 0.0005601044	 0.333781
C	 0.9841813057	-0.9959676717	-0.5028734855	-0.060032
C	 0.6164560035	-1.0031349411	 0.9590044504	-0.234946
C	-0.5100599251	-2.0069363284	 0.60411172	 0.313942
C	-1.0577504515	-3.1326384207	 1.2755131365	 0.137852
N	-1.504137933	-4.0289491379	 1.8561775658	-0.34698
C	-1.1157302683	-1.0180830814	-0.3433999876	-0.174562
N	-0.1150698398	-2.0006170453	-0.8620450426	-0.198298
H	 0.9951355594	 1.8786302006	 0.3213321228	 0.133527
H	-0.2481268345	 1.9403073511	-0.9359059085	 0.134888
H	-0.7143841488	 1.8991189011	 0.7743914138	 0.134707
H	 1.9322434813	-0.9172922574	-1.0185301257	 0.11517
H	 1.2046899208	-0.8495395626	 1.8514281269	 0.117722
H	-2.1262192321	-0.9553202026	-0.7298203144	 0.119938
126.3354	149.8269	213.9998	264.7984	283.2234	496.7361	509.472	530.5047	616.7696	672.2041	761.3356	766.8871	842.4728	848.5525	871.7822	881.3854	926.7297	947.0094	996.3635	1014.7954	1052.4545	1104.3745	1122.9412	1147.8014	1175.2299	1220.2967	1278.9077	1368.1208	1411.4939	1446.9115	1481.2522	1498.1948	2345.8996	3027.5293	3090.4714	3100.1618	3188.9319	3201.648	3233.8897
CC12C3C1C1(C#N)C2N31	C[C@@]12[C@H]3[C@@H]1[C@@]1(C#N)[C@@H]2N31	
InChI=1S/C7H6N2/c1-6-3-4(6)9-5(6)7(3,9)2-8/h3-5H,1H3	InChI=1S/C7H6N2/c1-6-3-4(6)9-5(6)7(3,9)2-8/h3-5H,1H3/t3-,4+,5+,6-,7-,9?/m0/s1
