20
gdb 110237	1.94585	1.61322	1.05756	2.6695	80.96	-0.2266	-0.0175	0.2092	1223.2785	0.168867	-403.128982	-403.119695	-403.118751	-403.163359	34.693	
C	 0.3111904403	 1.4091211517	 0.2022521593	-0.37465
C	-0.2536376298	 0.0139558492	-0.0477536142	-0.133043
N	 0.4886281765	-0.6378031348	-1.1308139125	-0.111958
C	 1.7725217286	-1.3049841628	-0.9115582362	-0.230732
C	 1.7449935911	-2.1351258181	 0.3531538043	 0.418936
O	 2.5218438327	-2.3029390088	 1.2496344479	-0.31282
C	 0.4445154238	-2.8679258327	-0.0703855553	-0.424402
C	 0.5099596674	-2.0515703991	-1.3813684121	 0.322045
C	 0.1827934283	-2.5813444095	-2.7456656905	-0.482474
H	 1.3484034961	 1.352383835	 0.547667497	 0.129116
H	 0.2897514226	 2.0041639052	-0.7148558671	 0.126869
H	-0.2718914705	 1.9262081065	 0.9698903206	 0.116307
H	-0.254515547	-0.5559677705	 0.8918326323	 0.102266
H	-1.2955854382	 0.0840050557	-0.3811275787	 0.107365
H	 2.6471498581	-0.9549745949	-1.4499518605	 0.106634
H	 0.6563140611	-3.9327113558	-0.2097783362	 0.131039
H	-0.4474255965	-2.7622167205	 0.5520327086	 0.121281
H	-0.8958061085	-2.7493981624	-2.8475758021	 0.127759
H	 0.4858627991	-1.8650451745	-3.5131678998	 0.136305
H	 0.6867545148	-3.535947799	-2.9283426148	 0.124158
45.2276	105.0472	177.4404	201.1063	209.8724	260.2148	294.931	329.0468	455.6923	470.4282	492.4603	594.1794	618.6015	665.3203	727.9273	812.6673	861.5935	878.3413	944.7407	951.9133	988.8917	1006.9744	1052.4808	1069.1985	1107.4693	1134.7371	1154.6868	1174.1951	1194.7435	1222.513	1251.6017	1306.8205	1381.372	1395.3567	1410.4109	1429.9057	1463.9351	1482.065	1489.5231	1492.7255	1495.8716	1513.2639	1879.0118	3003.0977	3031.9038	3042.2599	3055.9351	3059.873	3092.5533	3111.2373	3113.2134	3122.5591	3125.3847	3171.6971
CCN1C2C(=O)CC12C	CCN1[C@H]2C(=O)C[C@@]12C	
InChI=1S/C7H11NO/c1-3-8-6-5(9)4-7(6,8)2/h6H,3-4H2,1-2H3	InChI=1S/C7H11NO/c1-3-8-6-5(9)4-7(6,8)2/h6H,3-4H2,1-2H3/t6-,7+,8?/m0/s1
