15
gdb 44596	3.46083	1.79849	1.43164	4.4559	70.21	-0.2453	-0.05	0.1954	886.9747	0.114683	-420.60025	-420.594085	-420.593141	-420.630686	25.075	
O	 0.1914472667	 0.1167826302	 0.4922543883	-0.3238
C	 0.1780921132	 1.1929999854	-0.0127620996	 0.418216
O	-0.9515615374	 2.0168869879	-0.0002212064	-0.244277
C	-0.7427854269	 3.1532287602	-0.8499310928	 0.092545
C	 0.3543553955	 4.2684669308	-0.7546623236	-0.084577
C	 1.5082064897	 4.3129606935	 0.2500776493	-0.270134
C	 1.8435116489	 2.8359847819	 0.3666348702	-0.067039
C	 1.2164559554	 2.1191182603	-0.5884219005	-0.069362
C	 0.5261819516	 3.022615682	-1.5895294064	-0.156789
H	-1.6785913251	 3.4556265966	-1.304035916	 0.120286
H	 0.0305405548	 5.1973364348	-1.2166759494	 0.094335
H	 2.3204762514	 4.962111391	-0.1065254857	 0.123196
H	 1.2218948496	 4.6853907762	 1.241569796	 0.13059
H	 2.2129329574	 2.4036479958	 1.291115354	 0.133097
H	 0.666575315	 2.9351942333	-2.6606756775	 0.103714
149.3549	233.7709	325.4849	427.2543	477.4055	621.4734	683.2249	696.3236	742.2649	770.4354	771.8875	817.8634	861.5129	865.2565	917.0929	952.0612	973.5322	987.5489	1019.2494	1048.5931	1072.6009	1104.1805	1123.5891	1160.8104	1198.9145	1246.8848	1297.0063	1312.9468	1346.7426	1394.6336	1471.7381	1596.4202	1907.9367	3007.4063	3051.2527	3151.7708	3171.5251	3188.9719	3193.1631
O=C1OC2C3CC=C1C23	O=C1O[C@H]2[C@H]3C[CH][C]1[C@@H]23	
InChI=1S/C7H6O2/c8-7-4-2-1-3-5(4)6(3)9-7/h2-3,5-6H,1H2	InChI=1S/C7H6O2/c8-7-4-2-1-3-5(4)6(3)9-7/h2-3,5-6H,1H2/t3-,5-,6-/m0/s1
