18
gdb 31562	3.31851	1.09566	0.83231	0.4426	76.41	-0.1599	0.0604	0.2203	1367.7075	0.145914	-439.109381	-439.099337	-439.098392	-439.144661	35.394	
C	 0.5319326294	 0.6613428196	-0.3715322056	-0.242165
O	-0.7675205026	 0.9561285001	 0.1059301598	-0.261347
C	-1.6326282056	-0.0832981472	 0.0545183068	 0.418934
C	-1.5448610796	-1.3838663535	-0.3605196403	-0.395231
C	-2.8441495193	-1.9884920676	-0.1517280669	 0.144575
C	-3.2316617311	-3.4023257048	-0.4581987762	-0.511247
C	-3.6384850663	-1.0088115676	 0.3792030606	 0.29574
O	-4.9389989417	-0.9644851853	 0.7823470504	-0.441386
N	-2.9102684143	 0.1513725735	 0.5075666727	-0.386878
H	 1.1161737434	 1.5773573165	-0.2728095397	 0.13174
H	 0.9972541914	-0.1385401249	 0.2192270636	 0.123682
H	 0.5046551306	 0.3528426107	-1.4248209379	 0.123683
H	-0.6754801092	-1.8738788835	-0.7676214436	 0.089219
H	-2.6279264366	-4.1275218889	 0.1015543047	 0.125604
H	-4.2797165762	-3.6035194857	-0.2035701138	 0.091354
H	-3.115731536	-3.6418021732	-1.522598605	 0.125601
H	-5.3247774163	-1.8337465026	 0.6381861325	 0.302112
H	-3.2521141398	 1.0233275246	 0.8711687079	 0.26601
61.9101	77.5583	137.1893	176.0385	191.6324	224.1172	233.7514	265.8361	334.6405	365.2268	376.6788	517.3801	621.434	635.9389	654.4543	669.5511	723.865	794.8399	986.1722	1014.0586	1058.305	1087.8406	1133.8502	1183.2725	1184.4107	1205.5531	1234.2857	1268.6394	1348.6894	1421.864	1458.2935	1473.2519	1479.7763	1480.6837	1505.4081	1511.5995	1530.1079	1624.5896	1672.9197	3003.4533	3007.7088	3056.9875	3059.9059	3065.4664	3136.9487	3257.6613	3691.799	3843.3311
COC1=CC(C)=C(O)N1	COc1cc(C)c(O)[nH]1	
InChI=1S/C6H9NO2/c1-4-3-5(9-2)7-6(4)8/h3,7-8H,1-2H3	InChI=1S/C6H9NO2/c1-4-3-5(9-2)7-6(4)8/h3,7-8H,1-2H3
