17
gdb 124956	2.2542	1.66048	0.9676	4.7344	78.67	-0.242	-0.0349	0.2071	1184.6426	0.135737	-418.062705	-418.05358	-418.052636	-418.097282	32.034	
C	 0.0094397984	 1.5056492119	 0.0856563033	-0.502943
C	-0.006563977	 0.0197683035	-0.0695896451	 0.309355
C	 0.0146385863	-0.8078350032	-1.1934602994	-0.017611
C	 0.0232703545	-0.3922338891	-2.5828467916	 0.061824
O	 0.0491461513	-1.1436658919	-3.5375625894	-0.2997
C	 0.0181152824	-2.142610333	-0.6747268184	 0.278111
C	 0.0343831617	-3.4228145995	-1.4411667071	-0.477728
N	 0.0001439691	-2.134657763	 0.6486021339	-0.281317
N	-0.0133450349	-0.8159855838	 0.9852901149	-0.262284
H	 1.0329072065	 1.8976011685	 0.0844835978	 0.154521
H	-0.5298220163	 1.9905704506	-0.7308368251	 0.15568
H	-0.4621602775	 1.8083013728	 1.0255886194	 0.13536
H	 0.0027732822	 0.7108992132	-2.7386556735	 0.055372
H	 0.9199311226	-3.4833980949	-2.0805393084	 0.143893
H	 0.0260919941	-4.2685714101	-0.7505701144	 0.129993
H	-0.8297811921	-3.4888970363	-2.1086386752	 0.143865
H	-0.0325261013	-0.5667983456	 1.9607501983	 0.273608
44.3378	111.0316	134.7961	174.7395	177.1048	261.122	281.8906	347.8873	385.602	522.8704	546.5471	598.8939	675.9815	716.2721	739.0589	807.5957	991.9029	1018.7422	1030.4011	1055.07	1069.4443	1074.915	1143.807	1259.7275	1321.0522	1403.6272	1416.1987	1419.5516	1443.4734	1470.2223	1474.6194	1478.1985	1487.6395	1514.3878	1528.9222	1604.5173	1774.3495	2858.7596	3037.4332	3049.2231	3096.0931	3106.8776	3128.2045	3138.7132	3659.6493
CC1=C(C=O)C(C)=NN1	Cc1c(C=O)c(C)n[nH]1	
InChI=1S/C6H8N2O/c1-4-6(3-9)5(2)8-7-4/h3H,1-2H3,(H,7,8)	InChI=1S/C6H8N2O/c1-4-6(3-9)5(2)8-7-4/h3H,1-2H3,(H,7,8)
