17
gdb 52058	2.87314	0.94158	0.77849	2.8268	76.19	-0.2533	-0.0286	0.2247	1449.6951	0.131326	-421.768257	-421.758645	-421.757701	-421.803882	34.127	
O	-0.1734055528	 0.0553814273	 0.2311956426	-0.237958
C	 0.0281624877	 1.1758659088	-0.1544887045	 0.140088
C	 1.4137846559	 1.776627887	-0.2977803159	-0.169189
O	 1.2800267165	 3.0147618713	-0.9675341745	-0.280267
C	 2.4801098471	 3.7238385526	-1.1182875677	 0.268617
C	 3.3614386424	 3.3473741012	-2.2992232157	-0.317484
C	 2.5253119897	 4.600390832	-2.3422833056	-0.314167
C	 3.0931204832	 4.1698403627	 0.1076348933	 0.314929
C	 3.5914589752	 4.5202357376	 1.1448053653	-0.500863
H	-0.7930757141	 1.8733887184	-0.4303182851	 0.097425
H	 1.845528026	 1.9086803903	 0.7065491583	 0.139486
H	 2.0619807655	 1.077160577	-0.8460782788	 0.125295
H	 4.4348421443	 3.4366524869	-2.1833179779	 0.132408
H	 3.0248210208	 2.5019815538	-2.8885866101	 0.128901
H	 1.6303992744	 4.587476491	-2.9533062484	 0.135558
H	 3.0169794296	 5.5612609106	-2.2539005844	 0.133436
H	 4.0317607788	 4.8413075016	 2.0564891591	 0.203786
50.3919	59.1639	117.5225	128.501	175.6113	213.8923	319.3221	347.5951	402.3574	516.9192	550.1919	587.6341	608.1073	689.4422	708.8053	743.984	777.517	902.2475	917.2477	951.9877	986.2578	1056.9209	1062.4895	1085.5955	1113.8797	1118.1916	1194.0521	1238.29	1264.5047	1308.5729	1358.3633	1410.9595	1449.1303	1479.6446	1483.7723	1844.5477	2231.362	2900.2412	2990.1573	3028.2796	3142.6754	3149.1892	3232.5734	3247.4039	3500.0566
O=CCOC1(CC1)C#C	O=CCOC1(CC1)C#C	
InChI=1S/C7H8O2/c1-2-7(3-4-7)9-6-5-8/h1,5H,3-4,6H2	InChI=1S/C7H8O2/c1-2-7(3-4-7)9-6-5-8/h1,5H,3-4,6H2
