20
gdb 83831	2.25742	1.81298	1.23683	3.6505	79.06	-0.2359	0.0117	0.2476	1078.0061	0.172584	-403.172151	-403.163875	-403.162931	-403.204949	31.952	
C	-0.4013114868	 1.3245348321	 0.3521305878	-0.409953
C	-0.0324929409	-0.0959348634	 0.0017560724	-0.017006
C	 0.6387517788	-0.5146981034	-1.2820273072	-0.030835
C	 1.2138410938	 0.416019534	-2.3293238921	-0.245733
C	 2.7329714084	 0.1562736574	-2.3759998525	-0.202946
C	 3.3774879346	 0.4731997434	-1.0076933824	-0.295725
C	 2.4352434353	 0.3277058687	 0.1916659853	 0.368034
O	 2.6301403952	 0.8900559136	 1.247045404	-0.355734
N	 1.3604850827	-0.5351939743	-0.0128265751	-0.097895
H	 0.2005523472	 2.0615147291	-0.1837189917	 0.126818
H	-1.4556024162	 1.5021987852	 0.1176412127	 0.119955
H	-0.248341471	 1.4986166924	 1.4209091917	 0.152713
H	-0.69826507	-0.8390748922	 0.439131539	 0.100021
H	 0.392391331	-1.5093059598	-1.6544803038	 0.095753
H	 0.7511892416	 0.2267582407	-3.3023514439	 0.106589
H	 1.0258052872	 1.4662697005	-2.0807825325	 0.109174
H	 2.8988858632	-0.8953746627	-2.6369331679	 0.108437
H	 3.208559174	 0.751483973	-3.1617406244	 0.103242
H	 4.2547448349	-0.1589213795	-0.8299355168	 0.132679
H	 3.7375291568	 1.5055474854	-0.9670150028	 0.132413
87.6267	144.6729	173.0391	181.0325	285.196	384.1082	390.2046	483.4838	496.2203	542.3595	600.2816	643.3971	688.5906	782.3962	828.2612	885.3511	899.1328	947.8838	974.7313	1002.7789	1040.7646	1058.7841	1100.5741	1120.7948	1155.8892	1170.7112	1190.3605	1206.5879	1227.7796	1266.6652	1333.3335	1339.9629	1359.5731	1380.4766	1393.7237	1420.6647	1441.8502	1459.7451	1482.1812	1485.6068	1498.029	1502.6762	1787.3072	3036.8031	3044.891	3049.3293	3052.9249	3076.5175	3086.6584	3098.4725	3103.9032	3111.0863	3116.652	3133.6895
CC1C2CCCC(=O)N12	C[C@H]1[C@H]2CCCC(=O)N12	
InChI=1S/C7H11NO/c1-5-6-3-2-4-7(9)8(5)6/h5-6H,2-4H2,1H3	InChI=1S/C7H11NO/c1-5-6-3-2-4-7(9)8(5)6/h5-6H,2-4H2,1H3/t5-,6+,8?/m0/s1
