16
gdb 49536	3.80298	1.16096	1.00796	3.3984	77.24	-0.2442	-0.0381	0.2061	1162.5724	0.122991	-400.627585	-400.619719	-400.618775	-400.660142	29.813	
O	-0.2548977749	-0.0463592377	 0.2091232634	-0.237499
C	-0.1017298159	 1.1121229737	-0.0852121514	 0.125569
C	 1.1799646203	 1.892763596	-0.0042956531	-0.049099
C	 1.5868752626	 2.6341042283	 1.3088103005	-0.091821
C	 1.9361125845	 1.2304347495	 1.8382721399	-0.182963
N	 2.4813304009	 1.1700662546	 0.3913423289	-0.149609
C	 3.0190192643	 2.6042694211	 0.7083357333	-0.160354
C	 3.392904275	 3.4468727569	-0.4062711101	 0.332833
C	 3.7331478697	 4.1687316306	-1.3058780033	-0.424617
H	-0.9522077548	 1.7235615832	-0.468765254	 0.081624
H	 1.2838286833	 2.4860505494	-0.9193319582	 0.107818
H	 1.0805997905	 3.4697638018	 1.80260535	 0.084362
H	 2.7211430472	 1.1602641943	 2.5950163517	 0.107647
H	 1.1350624228	 0.518691612	 2.0192981554	 0.142986
H	 3.8277652647	 2.557744238	 1.4432111419	 0.109932
H	 4.0338836398	 4.7998161682	-2.1058013448	 0.203191
90.9313	139.1582	171.8634	210.5829	286.3237	377.3846	488.803	520.7955	551.1441	639.1617	659.243	694.4523	754.8911	791.6293	837.1065	856.9426	909.3104	929.7598	1011.0439	1037.2549	1063.5966	1072.3536	1128.61	1143.812	1147.189	1163.5285	1218.6342	1230.3101	1254.2109	1385.7606	1394.6141	1425.8513	1541.9417	1824.4028	2232.5126	2857.8627	3051.0331	3060.6544	3069.0194	3079.9927	3182.6463	3500.5536
O=CC1C2CN1C2C#C	O=C[C@H]1[C@H]2CN1[C@H]2C#C	
InChI=1S/C7H7NO/c1-2-6-5-3-8(6)7(5)4-9/h1,4-7H,3H2	InChI=1S/C7H7NO/c1-2-6-5-3-8(6)7(5)4-9/h1,4-7H,3H2/t5-,6-,7-/m0/s1
