17
gdb 49191	3.48389	1.34215	1.23503	4.3135	75.87	-0.2455	-0.0624	0.1831	1047.6679	0.137979	-421.837246	-421.830256	-421.829312	-421.868813	27.473	
O	-0.0602818536	-0.0323880594	 0.1054924939	-0.271561
C	-0.003596459	 1.176779502	 0.0581566596	 0.047655
C	 1.2369730724	 1.9421282152	-0.0251062427	 0.275097
C	 1.3730186504	 3.2829914159	-0.0078273376	-0.165312
C	 2.8555996564	 3.5851810497	-0.0009464157	-0.105154
C	 3.3632602035	 3.0633351063	 1.382850348	-0.06932
O	 3.2014414474	 1.645283226	 1.3009692513	-0.271369
C	 2.6523013401	 1.3785695651	-0.0198187936	-0.009303
C	 3.3834443253	 2.4167695157	-0.8829920794	-0.229785
H	-0.9280380542	 1.7978165478	 0.0623363341	 0.068083
H	 0.5820592057	 4.017526759	 0.0927604877	 0.117772
H	 3.1602337549	 4.6019012917	-0.243550815	 0.080352
H	 4.422445772	 3.3093343545	 1.5289476115	 0.107156
H	 2.7859173082	 3.4638674992	 2.2239116191	 0.104429
H	 2.7628331971	 0.3181471979	-0.2297049862	 0.100728
H	 3.0247219	 2.4667395071	-1.9120355654	 0.110803
H	 4.4699352535	 2.3000450463	-0.8595409396	 0.109729
101.7424	173.1123	225.2144	298.6849	438.0099	466.286	508.8552	568.0328	697.9105	722.1506	816.2332	843.9564	867.097	878.7318	907.0069	927.2131	937.328	970.8677	993.05	1032.091	1041.5359	1066.3072	1127.4785	1162.4934	1202.9015	1233.9077	1246.9481	1271.5539	1291.6324	1296.4876	1356.6491	1365.0733	1418.8365	1489.011	1523.6384	1646.5899	1783.197	2872.803	3018.819	3062.3842	3072.3701	3133.3422	3137.5111	3169.363	3201.204
O=CC1=CC2COC1C2	O=CC1=C[C@H]2CO[C@@H]1C2	
InChI=1S/C7H8O2/c8-3-6-1-5-2-7(6)9-4-5/h1,3,5,7H,2,4H2	InChI=1S/C7H8O2/c8-3-6-1-5-2-7(6)9-4-5/h1,3,5,7H,2,4H2/t5-,7-/m1/s1
