14
gdb 49316	2.4264	1.87973	1.05918	6.1163	75.96	-0.2511	-0.0872	0.1639	1041.8634	0.102477	-432.913303	-432.905818	-432.904873	-432.945567	27.633	
N	-0.007091515	 1.3178002339	 0.0110940124	-0.483836
C	 0.0462149215	 0.0495931261	 0.003562793	 0.355547
C	 1.2124661325	-0.8618244618	-0.0087933102	-0.148644
C	 0.7951231153	-2.1319292357	-0.0134340527	-0.174151
C	-0.6801097927	-2.1560710764	-0.0045715205	 0.376842
N	-1.5036036859	-3.1250488147	-0.0049914035	-0.525694
N	-1.089052112	-0.8000172488	 0.0056701652	-0.169578
C	-2.4442506566	-0.4314903401	 0.0164201752	 0.167786
O	-2.8544226332	 0.6953845774	 0.0271072719	-0.273589
H	 0.9394389303	 1.7001005667	 0.0074857775	 0.230536
H	 2.2292292201	-0.4932808153	-0.0129490502	 0.137452
H	 1.391415614	-3.0338290093	-0.0222185211	 0.136466
H	-1.0088058941	-4.0154007204	-0.0130187168	 0.234514
H	-3.0764854641	-1.3326872215	 0.0167892199	 0.136348
81.2595	169.7462	218.8815	223.8482	285.1093	361.7751	462.384	553.9419	630.5672	649.3802	729.4516	748.9227	781.7445	813.1885	862.491	889.1063	967.6548	1025.3216	1045.871	1049.5858	1109.4584	1150.4336	1229.8685	1304.5256	1363.8275	1422.902	1441.9765	1635.4148	1712.4076	1737.7322	1841.8214	3030.4799	3225.1682	3246.7827	3475.6089	3503.716
N=C1C=CC(=N)N1C=O	[NH]c1ccc([NH])n1C=O	
InChI=1S/C5H5N3O/c6-4-1-2-5(7)8(4)3-9/h1-3,6-7H	InChI=1S/C5H5N3O/c6-4-1-2-5(7)8(4)3-9/h1-3,6-7H
