14
gdb 20447	6.35357	1.41398	1.25477	3.0811	63.49	-0.241	0.0019	0.2429	932.191	0.110266	-374.870674	-374.864207	-374.863263	-374.901899	23.803	
C	 1.0393542722	 1.1182001883	 0.1079449437	-0.226054
N	 0.4591637439	 0.1120691979	-0.7906935546	-0.317458
C	-0.3270518943	 0.5750523761	 0.3651801877	-0.127891
C	-0.5927309693	-0.4285859566	 1.4126971469	 0.352421
C	-0.0983544615	-1.7059361202	 1.5461670024	-0.169754
N	-0.6739505418	-2.1541250292	 2.6859685119	-0.152336
N	-1.4830541433	-1.2290008398	 3.2329487094	-0.114436
N	-1.4332040111	-0.1815489841	 2.460728484	-0.266992
H	 1.8714235869	 0.7660440587	 0.7106301736	 0.121879
H	 1.1219131843	 2.1470722483	-0.2325157524	 0.118293
H	 0.1211286485	 0.5496658609	-1.6429318185	 0.238533
H	-1.1539508756	 1.2591604993	 0.1927148031	 0.102185
H	 0.5693409012	-2.2938650611	 0.9414319577	 0.159607
H	-0.5802372102	-3.0520375887	 3.1330337252	 0.282002
66.3024	167.7936	185.2674	398.2897	456.0882	580.3875	657.1626	698.1033	740.8767	806.519	867.6842	898.9602	915.319	973.1734	985.762	1035.6055	1049.1807	1103.0838	1117.1177	1125.1588	1182.0218	1232.1841	1257.4144	1287.0749	1293.6213	1349.2692	1427.2286	1497.0389	1515.5146	1603.7131	3109.7158	3145.341	3199.6339	3299.9129	3514.7693	3658.9891
C1NC1C1=CNN=N1	C1N[C@H]1c1c[nH]nn1	
InChI=1S/C4H6N4/c1-3(5-1)4-2-6-8-7-4/h2-3,5H,1H2,(H,6,7,8)	InChI=1S/C4H6N4/c1-3(5-1)4-2-6-8-7-4/h2-3,5H,1H2,(H,6,7,8)/t3-/m1/s1
