15
gdb 24682	3.8358	1.72162	1.21227	4.3494	73.53	-0.2053	-0.0183	0.1871	958.1688	0.116176	-416.8446	-416.838092	-416.837148	-416.875531	25.601	
C	 0.0064768579	 1.4842161261	 0.0497201251	-0.146208
O	 1.3451693193	 2.0158305274	-0.0031196964	-0.26175
C	 2.1742573222	 1.3960319456	-0.8573574539	 0.466267
N	 3.2471053026	 1.8990886545	-1.3913384731	-0.364157
C	 3.810893699	 0.8382502406	-2.0913142836	-0.090482
C	 3.0688908274	-0.2966294502	-1.962704475	-0.142179
N	 1.9900280425	 0.0649754133	-1.1578364399	-0.090145
C	 0.9616541272	-0.6778061251	-0.5770908424	 0.023668
C	-0.0133282639	-0.0220682646	 0.0513559134	-0.149847
H	-0.425162204	 1.89433784	 0.9651119437	 0.136122
H	-0.5674141114	 1.8861719789	-0.8013378363	 0.123895
H	 4.71944169	 0.9740591688	-2.6569283026	 0.115268
H	 3.1625022597	-1.2903616227	-2.3669703394	 0.130214
H	 1.043772415	-1.7545120268	-0.6512412424	 0.132057
H	-0.8197666435	-0.5456549258	 0.5471041827	 0.117277
137.0816	143.2922	317.1579	420.8987	447.9593	546.9173	614.5522	622.3572	674.7972	705.2234	727.7235	754.1973	843.8215	865.9071	921.4283	931.7392	949.4519	1032.5036	1044.3706	1108.3586	1152.5338	1180.493	1236.0842	1264.0866	1296.2692	1321.9456	1382.532	1432.4464	1470.9032	1498.0764	1549.2795	1621.2038	1720.7385	2969.0151	3104.4914	3213.1746	3232.8925	3255.3968	3283.9863
C1OC2=NC=CN2C=C1	C1Oc2nccn2C=C1	
InChI=1S/C6H6N2O/c1-3-8-4-2-7-6(8)9-5-1/h1-4H,5H2	InChI=1S/C6H6N2O/c1-3-8-4-2-7-6(8)9-5-1/h1-4H,5H2
