19
gdb 77491	1.94416	1.92176	1.19988	2.848	76.96	-0.242	-0.001	0.241	1111.3241	0.15561	-422.995237	-422.98565	-422.984706	-423.029048	35.339	
C	-0.1134038149	 1.5281614844	-0.0121849837	-0.438968
C	-0.0717896802	 0.0088405444	-0.0113601501	-0.056491
C	 1.1726729539	-0.6795602885	-0.6547881305	 0.259006
C	 1.7735688444	-0.5365489738	-2.0129087587	-0.523269
O	 1.9739412533	-0.2494804156	 0.5376449409	-0.368936
C	 0.6837957436	-0.6919620154	 1.161051771	 0.259007
C	 0.5211484753	-0.5683197292	 2.6389817206	-0.523269
C	 0.8680066234	-1.9162939479	 0.2285128977	 0.411174
O	 0.9130598577	-3.1044818146	 0.2325278104	-0.325892
H	 0.8615771981	 1.9415364947	 0.2531120632	 0.139619
H	-0.3960281957	 1.9073943669	-0.9997153258	 0.120722
H	-0.8548830002	 1.8957516019	 0.7047507754	 0.120722
H	-1.0376726402	-0.4383203527	-0.2744586834	 0.081441
H	 1.9406766989	 0.5154793549	-2.263532931	 0.136592
H	 2.7301209165	-1.0642378933	-2.0634714429	 0.147645
H	 1.103082134	-0.9687486352	-2.7621727777	 0.138331
H	 0.5361582666	 0.4798553093	 2.9529959714	 0.136591
H	-0.4333549899	-1.0078003602	 2.9448010738	 0.138331
H	 1.3248811155	-1.0998197801	 3.1562105795	 0.147646
132.0049	160.0167	162.6018	180.3827	200.4019	216.5762	230.4725	230.6876	324.7164	387.7106	552.9332	582.3986	603.0737	667.0134	725.4952	729.9224	764.4129	822.6103	871.1409	891.652	1015.6871	1054.8818	1061.5973	1102.0115	1106.2726	1148.3159	1183.913	1189.7878	1278.7202	1356.661	1396.2524	1400.1218	1408.7169	1449.3772	1473.6877	1475.6251	1486.4629	1486.6976	1498.7539	1504.515	1921.121	3038.0313	3041.5977	3041.78	3046.2565	3097.8069	3113.2176	3113.2573	3120.6784	3120.7864	3135.8698
CC1C2(C)OC1(C)C2=O	C[C@H]1[C@@]2(C)O[C@]1(C)C2=O	
InChI=1S/C7H10O2/c1-4-6(2)5(8)7(4,3)9-6/h4H,1-3H3	InChI=1S/C7H10O2/c1-4-6(2)5(8)7(4,3)9-6/h4H,1-3H3/t4-,6+,7-
