21
gdb 76900	2.34489	1.73038	1.43277	2.3164	76.81	-0.2481	0.0633	0.3114	1030.6475	0.184901	-424.222126	-424.214127	-424.213183	-424.254434	32.103	
C	-0.9799885917	 1.1200288559	-0.0991374119	-0.412477
C	-0.118965976	-0.1322357445	-0.0241210224	-0.00272
C	 1.0963341026	-0.2624769771	-1.0030692778	 0.109752
O	 1.528775926	 0.9180685808	-1.6362651833	-0.433947
C	 1.985225997	-0.756949821	 0.1924675796	-0.068889
C	 3.1279758387	 0.1843408859	 0.5470452282	-0.115973
O	 2.4731343012	 1.3550696297	 1.0528953429	-0.268084
C	 1.412336979	 0.8750235245	 1.8868708167	-0.102124
C	 0.8372347403	-0.3660341214	 1.1870022883	-0.066827
H	-0.3830994863	 2.036159494	-0.0633878017	 0.117315
H	-1.5454906336	 1.1423027474	-1.0359546225	 0.122895
H	-1.6976806624	 1.1539730419	 0.7280540414	 0.110443
H	-0.7594116725	-1.013916256	-0.1371225928	 0.070691
H	 0.9555257998	-0.9916853973	-1.8048291194	 0.081508
H	 1.7569221658	 1.5507286879	-0.939949732	 0.291282
H	 2.2742758046	-1.8079740264	 0.152089136	 0.070638
H	 3.7825006509	-0.252027826	 1.3168460753	 0.09538
H	 3.7333328294	 0.4897805087	-0.3091515715	 0.12457
H	 1.812741535	 0.5991519115	 2.8743283252	 0.094107
H	 0.7023694225	 1.6947227598	 2.0211664029	 0.113264
H	 0.5055017898	-1.1145650783	 1.9088888587	 0.069195
82.2046	199.1905	215.0761	248.219	270.7097	343.0703	445.6233	486.902	519.9427	590.3413	626.6499	731.1597	753.43	788.8264	837.818	870.7936	893.7594	925.0804	965.6056	986.9615	1007.2649	1025.2145	1031.96	1076.9444	1120.1295	1154.8889	1156.1418	1174.6981	1204.0363	1233.0692	1241.668	1263.4981	1276.7576	1293.1978	1326.4224	1336.7888	1346.3005	1371.6161	1397.1412	1413.1304	1458.4297	1491.7756	1494.9831	1502.4048	1516.2348	2987.1125	2993.0087	3033.446	3038.1661	3075.5434	3087.8937	3098.8359	3099.6156	3106.7106	3109.2115	3110.804	3725.553
CC1C(O)C2COCC12	C[C@H]1[C@@H](O)[C@H]2COC[C@@H]12	
InChI=1S/C7H12O2/c1-4-5-2-9-3-6(5)7(4)8/h4-8H,2-3H2,1H3	InChI=1S/C7H12O2/c1-4-5-2-9-3-6(5)7(4)8/h4-8H,2-3H2,1H3/t4-,5+,6+,7-/m1/s1
