21
gdb 112945	4.42484	0.81598	0.7219	3.8035	80.79	-0.2316	0.0571	0.2887	1603.2646	0.182964	-420.439923	-420.430115	-420.429171	-420.475303	35.699	
C	-0.3720466284	 1.3900327229	 0.0148927955	-0.383294
C	 0.0698942241	-0.0762021047	 0.0276982791	-0.189501
C	 0.9366496125	-0.4287024672	 1.2321543711	 0.017395
C	 0.2011125826	-0.5397991884	 2.604276853	-0.177338
N	 0.475323127	-1.9801515812	 2.6002551319	-0.096965
C	 1.305479859	-1.9338629006	 1.3867837885	-0.214843
C	 0.638996604	-2.7310664066	 3.7377862651	 0.405396
N	 1.2889685146	-3.9429137712	 3.5284407585	-0.557868
O	 0.271143838	-2.3526857534	 4.8354667521	-0.395493
H	 0.492240783	 2.0624794639	-0.0194974348	 0.116728
H	-0.9987306259	 1.6074267955	-0.8551720343	 0.116605
H	-0.9505788146	 1.6407315864	 0.9105556957	 0.123243
H	-0.8120504184	-0.7308083418	 0.0175956145	 0.102315
H	 0.6283690177	-0.2997277322	-0.8907499082	 0.097454
H	 1.8101003235	 0.2276108641	 1.2698442268	 0.080514
H	 0.6721652467	-0.0178874357	 3.4431274165	 0.121081
H	-0.8658404744	-0.2915572053	 2.5917557553	 0.110291
H	 0.956117517	-2.5848282856	 0.5746953264	 0.100001
H	 2.3663301489	-2.1391659568	 1.5732137264	 0.115261
H	 1.1760186746	-4.3829449124	 2.6274022675	 0.250271
H	 1.1899001785	-4.5729832495	 4.3100977234	 0.258748
44.7124	99.3755	106.448	160.9578	171.099	226.4989	251.279	355.7816	411.4048	422.0232	459.8038	552.1236	574.5033	679.004	764.2842	777.3776	804.7104	889.7828	914.1645	955.864	981.7958	995.4861	1067.7074	1084.0462	1125.3578	1146.6344	1155.9505	1188.0955	1195.1774	1216.7219	1261.9948	1293.3692	1297.8119	1327.8873	1353.157	1392.0548	1413.8937	1438.9729	1485.9143	1500.1532	1506.8537	1510.0684	1530.0412	1622.6784	1790.6409	3005.4319	3014.3107	3032.2819	3035.56	3043.344	3052.2142	3072.4106	3086.1584	3099.4855	3106.5303	3572.5901	3687.9783
CCC1CN(C1)C(N)=O	CCC1CN(C1)C(=O)N	
InChI=1S/C6H12N2O/c1-2-5-3-8(4-5)6(7)9/h5H,2-4H2,1H3,(H2,7,9)	InChI=1S/C6H12N2O/c1-2-5-3-8(4-5)6(7)9/h5H,2-4H2,1H3,(H2,7,9)
