16
gdb 48925	3.9012	1.53966	1.3477	2.1043	71.59	-0.2462	-0.0331	0.2131	939.7253	0.125274	-400.667041	-400.66047	-400.659526	-400.698222	26.029	
O	-0.0581339245	-0.0123525291	 0.1403651641	-0.254868
C	 0.0772778531	 1.1529236922	-0.14566018	 0.032336
C	 1.3659453579	 1.8868477199	-0.0790959676	 0.243724
C	 2.7022201628	 1.2593564449	 0.3779241026	-0.297281
C	 3.1010458725	 2.7128882186	 0.7367374101	-0.081775
C	 2.9515729241	 3.5497658992	-0.5526564484	-0.036309
C	 1.7038214394	 2.9769688654	-1.126582839	-0.109338
N	 1.6223552164	 4.1526930751	-0.1942997085	-0.17642
C	 1.5998789883	 3.1027878521	 0.9142129193	-0.027815
H	-0.7929120942	 1.7716031506	-0.4638779393	 0.081127
H	 2.5595443928	 0.6366274623	 1.2649370251	 0.123279
H	 3.2987650224	 0.7242508468	-0.3650370598	 0.107968
H	 3.8855073687	 2.9628182583	 1.447089683	 0.086094
H	 3.6949706731	 4.0971746668	-1.1182151223	 0.105617
H	 1.3990720707	 3.0413050768	-2.1638289071	 0.105962
H	 1.0612189565	 3.2721436	 1.8435848677	 0.0977
86.1513	174.0508	261.4862	393.8114	434.4759	544.6656	685.6601	743.7343	771.8329	798.7354	816.5424	846.4684	854.8668	864.1069	903.9952	949.0019	956.8468	1003.678	1011.7249	1035.7679	1052.5049	1078.4794	1123.8089	1141.6263	1159.6812	1201.1406	1214.4841	1222.6192	1250.7532	1273.0793	1313.4701	1354.2405	1426.8772	1486.8113	1810.1959	2870.5109	3063.7744	3124.7644	3142.4442	3151.6523	3187.8019	3200.6213
O=CC12CC3C4C1N4C23	O=C[C@@]12C[C@H]3[C@H]4[C@@H]1N4[C@@H]23	
InChI=1S/C7H7NO/c9-2-7-1-3-4-6(7)8(4)5(3)7/h2-6H,1H2	InChI=1S/C7H7NO/c9-2-7-1-3-4-6(7)8(4)5(3)7/h2-6H,1H2/t3-,4-,5+,6-,7+,8?/m0/s1
