15
gdb 98047	6.28001	0.53311	0.5068	2.5165	75.26	-0.2653	-0.047	0.2183	2074.4281	0.108776	-457.766857	-457.756773	-457.755829	-457.80488	32.468	
C	 0.0950818897	 1.3493011714	 0.2955657441	-0.242405
O	 0.0017650887	-0.0732742146	 0.1295102695	-0.217097
C	-1.2461573403	-0.5411647152	-0.0522576317	 0.263412
O	-2.2381689385	 0.1450060483	-0.0811256227	-0.355228
C	-1.2426403067	-1.9769407009	-0.2087974499	-0.063381
C	-1.3049253455	-3.1715429813	-0.3514598461	 0.223271
C	-1.4289892717	-4.6103040933	-0.4981987041	-0.433743
C	-2.7686318963	-5.1469778276	 0.0251461185	 0.170315
O	-2.879649437	-6.2127256168	 0.5632921629	-0.222165
H	 1.1560853476	 1.5591471055	 0.4273471745	 0.13851
H	-0.2932078847	 1.8655690631	-0.5858358017	 0.145626
H	-0.4729140542	 1.6720893736	 1.1715624084	 0.146046
H	-1.380916026	-4.874186752	-1.5659477997	 0.17074
H	-0.6183715719	-5.1515380462	-0.0000398673	 0.167125
H	-3.6346035231	-4.4752264041	-0.1526268048	 0.108974
16.2797	50.0041	77.1523	102.1297	125.0897	161.4791	218.4562	306.3877	374.6665	397.1954	457.2118	550.7241	602.7128	733.5215	773.0311	837.9732	981.5404	1023.6011	1040.2642	1104.7167	1176.8191	1207.343	1212.8749	1271.667	1297.3203	1413.2076	1432.3455	1471.8348	1481.0483	1495.5762	1791.7155	1844.1552	2356.3233	2917.763	3008.2872	3053.9939	3086.1816	3129.5243	3164.9344
COC(=O)C#CCC=O	COC(=O)C#CCC=O	
InChI=1S/C6H6O3/c1-9-6(8)4-2-3-5-7/h5H,3H2,1H3	InChI=1S/C6H6O3/c1-9-6(8)4-2-3-5-7/h5H,3H2,1H3
