19
gdb 104493	2.84642	1.41922	1.14187	3.0845	77.16	-0.2391	-0.0212	0.2179	1122.9037	0.157958	-422.993119	-422.984387	-422.983443	-423.026357	32.558	
C	 0.146895196	 1.1598982318	-0.2633852168	-0.26095
O	-0.0002579582	-0.1600908584	 0.2518085203	-0.289141
C	-1.2772143844	-0.6809795828	 0.1522318664	 0.351047
C	-2.3336856362	-0.0671477518	 1.0029124408	 0.118617
O	-2.1741795179	 0.8798954455	 1.7321808118	-0.280827
C	-1.8169936949	-1.2502847025	-1.1592564284	-0.140788
C	-0.6537372594	-1.8010050024	-1.9965988426	-0.236911
C	-0.2684852714	-2.7449033747	-0.8147838418	-0.233433
C	-1.4403374796	-2.1768336117	-0.0049528473	-0.125589
H	 1.2165842862	 1.3795088281	-0.2462162368	 0.12677
H	-0.2151369323	 1.2242806658	-1.2987936739	 0.106377
H	-0.3870612834	 1.8872897838	 0.3541382709	 0.145007
H	-3.3263822737	-0.567525809	 0.9100042557	 0.07399
H	-2.796239789	-0.9750826339	-1.5343255064	 0.094952
H	-1.0054377596	-2.3524780187	-2.8707154738	 0.110556
H	 0.0989973983	-1.0757713818	-2.3133248518	 0.111398
H	-0.4123646645	-3.7986646755	-1.0606250556	 0.108543
H	 0.7198992004	-2.6040770566	-0.374749905	 0.122132
H	-2.0770687766	-2.7384587853	 0.6692113645	 0.09825
115.9783	134.0999	162.2878	189.7749	209.7872	267.8177	302.546	330.1598	418.6309	532.9082	572.5633	756.8531	780.9423	808.3472	837.2451	847.1375	940.8673	984.4347	989.7536	991.175	1022.2178	1052.0826	1064.0382	1098.1269	1117.2295	1169.5387	1179.0089	1221.4382	1224.5148	1244.7623	1257.8388	1287.7135	1312.8345	1374.1622	1435.2176	1469.2201	1477.9628	1483.0375	1495.6895	1516.9043	1820.3974	2853.3875	3007.9671	3069.9724	3078.8566	3093.6844	3117.1789	3131.6923	3136.845	3169.1277	3179.4336
COC1(C=O)C2CCC12	CO[C@@]1(C=O)[C@H]2CC[C@@H]12	
InChI=1S/C7H10O2/c1-9-7(4-8)5-2-3-6(5)7/h4-6H,2-3H2,1H3	InChI=1S/C7H10O2/c1-9-7(4-8)5-2-3-6(5)7/h4-6H,2-3H2,1H3/t5-,6+,7-
