16
gdb 127703	5.0904	1.09209	0.94189	2.6733	73.34	-0.2327	-0.0169	0.2158	1231.6692	0.125827	-430.20358	-430.195614	-430.19467	-430.237132	28.139	
C	-0.254857493	 1.3372549362	 0.1426800248	-0.315193
N	 0.0033036741	-0.082018765	 0.0238346682	 0.1579
N	 0.4661536549	-0.6336290708	-1.0846046037	-0.125395
N	 0.5800555473	-1.9172092368	-0.8400468351	-0.275743
C	 0.1711075978	-2.0880510276	 0.4432335632	 0.43804
N	-0.2044443852	-0.9455354359	 1.0176857357	-0.332259
N	 0.2213471732	-3.3014390896	 1.1038286101	-0.131101
C	-0.9927569074	-3.8611169662	 1.6905599473	-0.220435
C	-0.3756020891	-4.4767279477	 0.4800266704	-0.216772
H	 0.3649566563	 1.7623201514	 0.9352666024	 0.160818
H	-0.0065874749	 1.7925618958	-0.8152082418	 0.170874
H	-1.3080699206	 1.5043692935	 0.3793234222	 0.157942
H	-0.8638895443	-4.3175949956	 2.6667058751	 0.129562
H	-1.9138705192	-3.2998698749	 1.5592158672	 0.132162
H	-0.8760115915	-4.3338428594	-0.4733359365	 0.139703
H	 0.2078842917	-5.3877335973	 0.5655163806	 0.129899
44.5598	112.249	135.5758	182.7455	230.3033	348.2664	409.2397	544.0862	560.6902	687.7352	745.5758	784.9306	820.6926	927.8018	933.5177	1034.7522	1044.7977	1055.8352	1093.2046	1127.8482	1135.5229	1151.9177	1174.4642	1182.3279	1250.3225	1280.1987	1319.8733	1417.9382	1431.7972	1449.4864	1475.2942	1495.3086	1510.6175	1522.4731	1573.8151	3062.9597	3118.1825	3123.4987	3133.9864	3176.2824	3203.634	3217.4171
CN1N=NC(=N1)N1CC1	Cn1nnc(n1)N1CC1	
InChI=1S/C4H7N5/c1-8-6-4(5-7-8)9-2-3-9/h2-3H2,1H3	InChI=1S/C4H7N5/c1-8-6-4(5-7-8)9-2-3-9/h2-3H2,1H3
