14
gdb 27901	2.04556	1.94888	1.00419	1.9068	66.33	-0.2716	-0.0332	0.2384	1101.6558	0.102631	-470.100388	-470.092699	-470.091755	-470.134034	27.95	
C	-0.0967706298	 1.4984234324	 0.0171627292	-0.45784
C	-0.005614188	 0.001970115	 0.0134773545	 0.350335
N	 0.0970645234	-0.5962006419	-1.1805128911	-0.32277
C	 0.1741338312	-1.9186367017	-1.1201838493	 0.446299
O	 0.2777252675	-2.5583509902	-2.2850885696	-0.379372
N	 0.1580596503	-2.6659964588	-0.0123814071	-0.447025
C	 0.052307521	-1.9492988556	 1.1071761564	 0.449935
O	 0.0286842386	-2.6149421116	 2.2614679075	-0.378421
N	-0.0330339242	-0.6250816875	 1.193859979	-0.321153
H	 0.7860756265	 1.9240285344	-0.4697766491	 0.149863
H	-0.9645807715	 1.8176643309	-0.5681900309	 0.149855
H	-0.1768791136	 1.8748256542	 1.0363575765	 0.143497
H	 0.3238437964	-3.502837887	-2.0813565743	 0.308325
H	 0.097966552	-3.5547998826	 2.0430027083	 0.308472
19.2548	188.0185	196.5603	209.7248	309.1703	369.7003	571.4568	577.954	578.3028	587.1752	589.5332	641.4761	654.0724	775.0789	847.6595	995.462	1001.1402	1034.2879	1065.2887	1124.7885	1224.2255	1231.1873	1322.9294	1390.0275	1442.3411	1469.8183	1476.2921	1494.7274	1524.4221	1596.722	1661.1856	3052.0704	3110.7357	3164.683	3775.06	3777.1903
CC1=NC(O)=NC(O)=N1	Cc1nc(O)nc(O)n1	
InChI=1S/C4H5N3O2/c1-2-5-3(8)7-4(9)6-2/h1H3,(H2,5,6,7,8,9)	InChI=1S/C4H5N3O2/c1-2-5-3(8)7-4(9)6-2/h1H3,(H2,5,6,7,8,9)
