15
gdb 43130	2.49138	1.91817	1.4483	4.3614	64.81	-0.2329	-0.0911	0.1417	911.05	0.113902	-457.784653	-457.777734	-457.776789	-457.816118	26.581	
O	 0.0026999403	-0.0072323266	 0.0272028972	-0.289475
C	-0.0266364397	 1.1902816867	 0.0150035297	 0.332115
C	-1.2273938398	 2.1385413052	 0.0388142704	-0.170814
C	-1.1694724946	 2.8488192966	 1.4075774033	-0.086767
O	 0.0192111503	 3.6610961637	 1.3326700005	-0.276766
C	 0.53613239	 3.5427751881	-0.0070534895	-0.012975
C	-0.7091436089	 3.288467966	-0.8668086822	-0.271941
C	 1.2101881287	 2.1622288466	-0.0416459901	 0.346206
O	 2.3668089402	 1.8578313313	-0.0828916046	-0.287242
H	-2.1797706716	 1.6711151539	-0.2039325727	 0.105044
H	-2.0472285871	 3.4882982907	 1.561699795	 0.116546
H	-1.0836823314	 2.1576001367	 2.2517433614	 0.130838
H	 1.1763030908	 4.393920401	-0.2292611444	 0.107915
H	-0.4726523367	 2.970411157	-1.886595156	 0.128505
H	-1.3842148305	 4.1470266131	-0.8987608879	 0.128811
100.4183	188.0048	234.6775	296.6917	408.4298	455.105	503.2658	570.1388	674.3316	707.7899	750.0905	855.4943	890.1181	903.9302	916.1749	942.0564	960.8034	981.1253	1046.8963	1067.4308	1136.0978	1168.9085	1176.4223	1207.8009	1270.5887	1275.0767	1284.0064	1309.7281	1371.7251	1486.4361	1529.4466	1857.6936	1885.6141	3026.9358	3061.6853	3082.2178	3118.02	3144.2173	3151.7266
O=C1C2COC(C2)C1=O	O=C1[C@H]2CO[C@H](C2)C1=O	
InChI=1S/C6H6O3/c7-5-3-1-4(6(5)8)9-2-3/h3-4H,1-2H2	InChI=1S/C6H6O3/c7-5-3-1-4(6(5)8)9-2-3/h3-4H,1-2H2/t3-,4-/m1/s1
