17
gdb 70958	3.16697	1.45142	1.20005	3.5684	74.19	-0.2408	-0.0252	0.2156	1039.987	0.134822	-421.727403	-421.719858	-421.718914	-421.759143	30.228	
O	 0.0779114428	 1.4164483421	 0.0345343709	-0.463698
C	 0.0732018337	 0.0395913917	-0.0114095689	 0.375978
C	 0.8009479447	-0.9664469309	 0.9061364531	-0.327727
C	-0.0235639802	-1.8265684841	-0.1110524705	 0.279153
C	-0.8288063066	-3.0106972029	 0.4530491668	-0.435975
C	-1.7030121783	-1.8930011632	 1.1583237365	 0.339648
O	-2.4535617475	-1.9011829628	 2.0816841867	-0.275508
C	-1.1986098034	-0.8405220216	 0.1054766072	-0.167197
C	 0.4918811007	-0.9082952309	-1.2492558149	-0.379281
H	 0.9910436337	 1.7228341927	 0.0723699127	 0.286213
H	 1.8887832137	-1.0380867076	 0.8188846689	 0.08982
H	 0.4780721258	-0.9898372765	 1.9505923618	 0.115514
H	-1.4378605224	-3.5293821417	-0.2951189231	 0.135706
H	-0.327691774	-3.7440034507	 1.0885822303	 0.128692
H	-1.9179901841	-0.7628929963	-0.7178455432	 0.097279
H	-0.1299203718	-0.8346608912	-2.1439331747	 0.106649
H	 1.5579141031	-0.9422527862	-1.4928340398	 0.094736
119.6014	192.5761	204.7924	291.9719	386.9521	407.0279	469.342	498.4991	550.4426	586.8321	633.0669	676.2015	771.6687	773.494	847.2706	875.3408	932.7081	979.6449	983.8044	996.0173	1020.7153	1070.524	1074.9188	1097.4244	1113.6422	1138.9075	1154.7501	1188.9795	1202.667	1247.8083	1277.5412	1316.967	1356.7306	1450.5848	1492.3686	1535.8514	1895.5896	3045.5193	3046.8274	3052.1171	3057.0094	3114.3722	3120.2458	3127.7452	3803.0421
OC12CC3(CC(=O)C13)C2	O[C@@]12C[C@]3(CC(=O)[C@@H]13)C2	
InChI=1S/C7H8O2/c8-4-1-6-2-7(9,3-6)5(4)6/h5,9H,1-3H2	InChI=1S/C7H8O2/c8-4-1-6-2-7(9,3-6)5(4)6/h5,9H,1-3H2/t5-,6-,7-/m1/s1
