16
gdb 45312	3.51956	1.47511	1.25281	5.0066	68.97	-0.2582	0.	0.2582	997.7916	0.127584	-437.952604	-437.945763	-437.944819	-437.98415	26.72	
O	 0.035799052	 0.0139798299	 0.3233262961	-0.389348
C	-0.0316104797	 1.1769931831	 0.0411065502	 0.469704
N	-1.1608537279	 1.9500709801	-0.122316032	-0.368674
C	-0.8438526274	 3.3664239724	-0.1848568958	-0.053478
C	-0.8972573472	 4.1248225243	 1.1247790139	-0.088828
C	 0.2924974809	 4.6150818483	 1.4662343233	-0.057008
C	 1.368743415	 4.2964644768	 0.4568922133	-0.280232
C	 0.6813190367	 3.3087860683	-0.5050983347	 0.100994
O	 1.0647559042	 1.9593517552	-0.2039839443	-0.250657
H	-2.017954441	 1.6063347933	 0.2790134075	 0.259403
H	-1.4286202115	 3.8566125404	-0.9716757309	 0.097463
H	-1.8167220505	 4.2431393797	 1.687078568	 0.102692
H	 0.4920958416	 5.1986557456	 2.3582503453	 0.107574
H	 1.7052513648	 5.1983627364	-0.0700948062	 0.115878
H	 2.2578571728	 3.8378818576	 0.9015161343	 0.136296
H	 0.9129401573	 3.4979767587	-1.556123278	 0.09822
98.2742	121.999	292.8383	354.816	450.4225	476.2737	533.1626	618.8657	687.1675	745.7908	768.7374	791.9701	842.3761	870.7037	907.5658	943.0756	969.5016	983.8067	1006.8237	1045.6735	1081.5564	1102.6601	1137.0068	1204.5434	1211.4111	1254.2198	1305.3916	1324.8248	1352.4537	1384.8014	1393.5842	1412.2141	1472.2199	1685.5139	1891.6024	3030.3097	3034.1638	3078.141	3083.0024	3185.9909	3210.4457	3656.7934
O=C1NC2C=CCC2O1	O=C1N[C@H]2C=CC[C@H]2O1	
InChI=1S/C6H7NO2/c8-6-7-4-2-1-3-5(4)9-6/h1-2,4-5H,3H2,(H,7,8)	InChI=1S/C6H7NO2/c8-6-7-4-2-1-3-5(4)9-6/h1-2,4-5H,3H2,(H,7,8)/t4-,5+/m0/s1
