14
gdb 133271	2.5099	1.53736	0.95901	0.7184	73.46	-0.2333	-0.0602	0.1731	1136.9444	0.09936	-477.92528	-477.917301	-477.916356	-477.959131	28.411	
C	-0.1855024966	 1.4123071594	 0.0388380377	-0.337614
N	-0.1170040819	-0.0255736901	-0.0816750061	-0.311481
C	 0.5878994739	-0.6026971001	-0.9803456986	 0.177424
C	 1.4337242675	 0.0005342012	-2.0275460733	-0.018021
N	 2.1356838149	-0.600117208	-2.9230898842	-0.055427
O	 2.1196781128	-1.9833455912	-2.9362371784	-0.235853
C	 1.3763844254	-2.6528673564	-2.0193165552	-0.029339
C	 0.6373435306	-2.0498786535	-1.077167228	 0.164861
F	-0.0619732234	-2.7753476743	-0.2167891386	-0.046514
H	 0.3995437862	 1.9998768739	-0.6816739033	 0.10582
H	-1.2340576189	 1.7221777438	-0.0460757212	 0.139845
H	 0.1388518464	 1.6959481996	 1.0473237351	 0.139845
H	 1.5132174121	 1.0794255803	-2.1013943689	 0.146373
H	 1.4513009009	-3.7256439945	-2.1391219467	 0.16008
29.609	96.1624	198.3718	219.6887	316.2623	335.736	421.8929	477.5454	538.3259	550.7359	598.3848	737.6586	749.7204	868.7406	879.1898	882.9184	934.663	1060.5742	1118.7122	1133.8678	1155.0915	1211.1926	1294.0958	1342.0017	1435.9647	1443.5846	1477.8833	1502.1918	1625.6095	1695.9313	1718.4842	2998.978	3062.7508	3070.4574	3200.896	3229.9875
CN=C1C=NOC=C1F	CN=c1cnocc1F	
InChI=1S/C5H5FN2O/c1-7-5-2-8-9-3-4(5)6/h2-3H,1H3	InChI=1S/C5H5FN2O/c1-7-5-2-8-9-3-4(5)6/h2-3H,1H3
