21
gdb 63955	2.68766	1.60527	1.45835	2.6392	76.21	-0.246	0.07	0.316	1022.0433	0.184234	-424.243813	-424.2358	-424.234856	-424.275774	32.886	
C	-0.1957027316	 1.5770583795	-0.0433928484	-0.459124
C	 0.0084235914	 0.0618601734	-0.0264616512	 0.436499
O	-1.2531233261	-0.5827615322	 0.1478968232	-0.483138
C	 0.7795091899	-0.5015637321	-1.2677436798	-0.289632
C	 1.9240570966	-1.2865155153	-0.5894270648	 0.089185
C	 2.9853204293	-0.3019572278	-0.0412637241	-0.220813
C	 2.2487700837	 0.2456834667	 1.2186928217	-0.231579
C	 0.8973368435	-0.494577781	 1.1175314021	 0.044502
O	 1.2960006614	-1.772217279	 0.6037625834	-0.263166
H	 0.7345938716	 2.1242785963	-0.2173234118	 0.116455
H	-0.8872300288	 1.8506577757	-0.8493777441	 0.105926
H	-0.6338586253	 1.9181237681	 0.8998234102	 0.124144
H	-1.8081991233	-0.3519895102	-0.6044841947	 0.271054
H	 0.1248050283	-1.178836377	-1.8216656186	 0.100886
H	 1.1359258836	 0.2779154761	-1.9469035412	 0.091833
H	 2.3177257154	-2.1250335577	-1.1641735872	 0.075242
H	 3.9023565275	-0.8296709253	 0.2295840192	 0.105184
H	 3.2463752869	 0.4771459126	-0.7627659228	 0.094648
H	 2.7582947872	-0.060569007	 2.1347277056	 0.108173
H	 2.1602029144	 1.3330663013	 1.2371209192	 0.099925
H	 0.3495037644	-0.6221214751	 2.0505698041	 0.083795
105.2638	229.791	246.8642	268.7409	305.695	368.8404	392.3073	418.2879	463.7042	560.8689	580.9186	690.1515	785.8028	820.4425	827.9758	851.4481	894.0313	917.8721	944.9502	952.7948	964.8385	973.2608	1011.5986	1029.8429	1039.3555	1110.7978	1118.6849	1141.1278	1189.8089	1215.3891	1236.6341	1252.1139	1270.7187	1284.5244	1297.5272	1316.5385	1339.0985	1357.8192	1382.8879	1408.3943	1473.6893	1481.9889	1492.8153	1500.7405	1514.5859	3029.3236	3056.7369	3063.1378	3078.6963	3092.0428	3103.8501	3108.6744	3118.6449	3119.5727	3128.219	3132.5742	3806.2755
CC1(O)CC2CCC1O2	C[C@@]1(O)C[C@H]2CC[C@@H]1O2	
InChI=1S/C7H12O2/c1-7(8)4-5-2-3-6(7)9-5/h5-6,8H,2-4H2,1H3	InChI=1S/C7H12O2/c1-7(8)4-5-2-3-6(7)9-5/h5-6,8H,2-4H2,1H3/t5-,6+,7-/m1/s1
