15
gdb 71189	2.69374	1.66086	1.34882	2.8869	68.4	-0.2515	0.0102	0.2617	954.7798	0.112924	-416.745449	-416.738126	-416.737182	-416.777162	28.269	
O	-0.1155538411	 1.4476477954	 0.0531737028	-0.468983
C	-0.0492599265	 0.0763875922	 0.0056622541	 0.344812
C	 0.4555528946	-0.7452851291	-1.1949467057	-0.223477
N	-0.4819424645	-1.8476812692	-0.7901751757	-0.136411
C	-0.4657864782	-1.8548811912	 0.7121554277	-0.044195
C	-1.3022898953	-0.875926445	-0.0179416646	-0.105903
C	 0.4721512662	-0.7633100827	 1.2401123699	-0.220113
C	 1.9010377703	-1.0025383778	 1.3801487405	 0.255763
N	 3.04334224	-1.1643714616	 1.4638044832	-0.329767
H	 0.771995481	 1.8129964567	-0.0455611203	 0.298927
H	 0.1115165004	-0.3356240196	-2.1471413845	 0.124796
H	 1.5144699523	-1.0178847327	-1.2483800393	 0.128662
H	-0.7381755386	-2.7802125181	 1.200238749	 0.121595
H	-2.3673475617	-0.7269832521	-0.1247444654	 0.117714
H	 0.0679755112	-0.334419265	 2.1603875483	 0.13658
123.1964	146.7426	211.3138	308.8128	352.7971	416.8645	432.2028	552.5225	572.2634	649.8385	723.5891	781.3534	801.5016	848.3234	897.3111	932.2742	972.3659	986.0802	1000.8383	1025.135	1062.8033	1100.2784	1140.7252	1157.1568	1169.5331	1226.9632	1266.0315	1284.7664	1328.0694	1345.9044	1394.082	1507.3415	2346.831	3053.6049	3091.3389	3123.9642	3213.6195	3227.7155	3791.8986
OC12CN3C(C13)C2C#N	O[C@]12CN3[C@H]([C@@H]13)[C@H]2C#N	
InChI=1S/C6H6N2O/c7-1-3-4-5-6(3,9)2-8(4)5/h3-5,9H,2H2	InChI=1S/C6H6N2O/c7-1-3-4-5-6(3,9)2-8(4)5/h3-5,9H,2H2/t3-,4+,5+,6+,8?/m1/s1
