16
gdb 44513	4.60147	1.413	1.23272	2.9487	68.57	-0.242	0.0534	0.2953	979.1819	0.127942	-434.045787	-434.03894	-434.037996	-434.077299	27.215	
O	-0.0063287331	-0.0758171755	 0.0139783712	-0.415037
C	-0.012575187	 1.1396374236	-0.0046594629	 0.457294
N	-1.1541314581	 1.9144599788	-0.0045379703	-0.378379
C	-1.099199246	 3.3449664771	 0.0824905287	 0.092029
C	-0.0536382075	 4.0691568771	-0.8186789632	-0.090172
N	-0.1164213762	 5.2097977877	 0.1662722458	-0.317703
C	-0.025769906	 3.9748559588	 1.0264854645	-0.100791
C	 1.0341508426	 3.3568800466	 0.0506589743	 0.048267
N	 1.1219432121	 1.9257083514	-0.0419814793	-0.378231
H	-2.0239775145	 1.420186976	 0.092138892	 0.256464
H	-2.0903911634	 3.7941809888	 0.1183908092	 0.101442
H	-0.0781286678	 4.2163827718	-1.8988349227	 0.088769
H	 0.7866526937	 5.6939267809	 0.1768304272	 0.212426
H	-0.0179607197	 4.0115927368	 2.1164365534	 0.086788
H	 2.0258395119	 3.8147876512	 0.0569046127	 0.082408
H	 1.9992425391	 1.441649919	 0.0426267195	 0.254425
55.9282	246.709	335.8868	337.9449	416.5833	461.0785	498.4084	521.6356	665.3976	766.499	775.9314	801.9159	832.1534	871.382	879.4948	905.0099	916.5151	1000.8176	1040.4247	1065.6247	1118.0703	1122.6688	1148.8525	1165.0912	1178.797	1188.1717	1248.9139	1275.7226	1288.3934	1293.957	1399.0156	1407.494	1452.7952	1457.9175	1826.7877	3090.7412	3109.6688	3115.2028	3137.3948	3391.9701	3669.5155	3677.5647
O=C1NC2C3NC2C3N1	O=C1N[C@@H]2[C@H]3N[C@@H]2[C@H]3N1	
InChI=1S/C5H7N3O/c9-5-7-3-1-4(8-5)2(3)6-1/h1-4,6H,(H2,7,8,9)	InChI=1S/C5H7N3O/c9-5-7-3-1-4(8-5)2(3)6-1/h1-4,6H,(H2,7,8,9)/t1-,2+,3-,4+
