17
gdb 127409	2.98431	1.68817	1.1093	3.9299	75.39	-0.2105	0.0057	0.2162	1061.2168	0.138364	-417.9972	-417.989686	-417.988742	-418.029239	28.393	
C	-0.1461262063	 1.508924279	-0.012999448	-0.339677
N	 0.1880798257	 0.1005693789	 0.0097836013	-0.156711
C	 0.7640731028	-0.5228573276	-1.1986223123	-0.164861
C	 1.3163956478	-1.9102396001	-0.7338159001	-0.37576
C	 1.5021730708	-1.6667257444	 0.7353464824	 0.120821
C	 2.0138094691	-2.0805854058	 1.9126805285	-0.07375
O	 1.6849434419	-1.2127366881	 2.8969594794	-0.19232
N	 0.908173711	-0.1503661618	 2.3542129669	-0.300619
C	 0.821796147	-0.4702775675	 1.089403028	 0.466667
H	 0.7313502179	 2.1479864116	-0.2036676784	 0.115251
H	-0.8893352966	 1.7007197006	-0.7927832343	 0.125064
H	-0.5738411495	 1.7898961911	 0.9515646738	 0.158672
H	 0.005721859	-0.6109664688	-1.9823306609	 0.114051
H	 1.5845893078	 0.0986051752	-1.5932439513	 0.103396
H	 0.579305085	-2.6999802866	-0.9189245131	 0.128947
H	 2.2273881056	-2.1787594959	-1.2738549681	 0.124827
H	 2.6138780908	-2.92137457	 2.2256119064	 0.146003
132.3666	139.0381	191.2154	243.2849	269.6998	351.5353	505.176	560.3935	588.2038	645.3406	715.8712	746.8625	830.082	844.5105	866.749	939.4644	954.2991	1008.984	1072.9423	1110.8971	1121.3622	1148.2559	1191.8536	1206.6262	1238.876	1261.8297	1291.5334	1324.53	1372.5486	1450.3764	1473.2141	1487.3811	1492.1119	1504.0497	1518.6818	1608.588	1698.7292	2968.5198	2976.4358	3039.6188	3075.8729	3076.364	3098.5772	3132.7694	3259.0952
CN1CCC2=CON=C12	CN1CCc2conc12	
InChI=1S/C6H8N2O/c1-8-3-2-5-4-9-7-6(5)8/h4H,2-3H2,1H3	InChI=1S/C6H8N2O/c1-8-3-2-5-4-9-7-6(5)8/h4H,2-3H2,1H3
