21
gdb 110846	2.56428	1.36616	1.17224	0.6771	84.95	-0.2098	0.0285	0.2384	1189.7167	0.182284	-387.082749	-387.073819	-387.072875	-387.116294	33.914	
C	-0.4877684286	 0.9607872336	-0.031094796	-0.230329
O	 0.4969864729	-0.0355547993	 0.1539144176	-0.228156
C	 0.9276772475	-0.6039746235	-1.0353689861	 0.124462
C	 1.4124566314	-2.0162092946	-1.0023086365	-0.122343
C	 1.0079055245	-2.8670482956	 0.2020730464	-0.308757
C	-0.5051692802	-2.9642424718	 0.1133930238	 0.329149
C	-1.3056201042	-3.6567284322	 1.1694120654	-0.490038
C	-0.9627869225	-2.3406045196	-0.9780930908	-0.172562
C	 0.1186895847	-1.6806348867	-1.7573533022	-0.145788
H	-0.1163399657	 1.7840447808	-0.6603587986	 0.102649
H	-1.3938182991	 0.5477881995	-0.4954877302	 0.11091
H	-0.737058423	 1.3558510529	 0.9566345522	 0.123719
H	 1.4685451242	 0.0872425583	-1.6860619389	 0.078256
H	 2.3305766758	-2.2537669517	-1.5268662958	 0.084568
H	 1.4754507472	-3.860228568	 0.166512229	 0.097965
H	 1.3203016401	-2.4050810953	 1.1472995847	 0.11837
H	-1.1907848816	-3.1632098585	 2.1431395355	 0.127181
H	-2.3710850898	-3.6710790703	 0.9233336825	 0.119879
H	-0.9726247577	-4.6939451074	 1.3063301892	 0.119688
H	-2.0086368681	-2.2735239807	-1.2585474493	 0.08128
H	 0.0696983621	-1.6389435097	-2.8407390219	 0.079899
82.2952	133.9437	162.7935	188.3525	197.5928	280.8972	314.5521	345.1796	431.696	539.2732	589.8311	634.6643	750.8191	751.5395	810.8419	854.7891	864.07	923.0169	946.4065	980.4164	1007.9663	1030.0305	1054.2629	1057.6769	1086.3135	1108.4657	1111.71	1179.658	1196.7323	1199.7621	1207.6896	1259.6165	1282.9771	1319.9342	1350.9906	1357.3828	1413.5754	1415.6177	1468.2771	1479.0211	1485.4732	1486.8795	1490.7719	1504.3906	1708.5074	2983.5712	3011.5022	3016.2397	3039.6113	3047.9402	3057.948	3070.7004	3106.7181	3116.594	3155.2253	3174.8815	3185.6508
COC1C2CC(C)=CC12	CO[C@H]1[C@H]2CC(=C[C@@H]12)C	
InChI=1S/C8H12O/c1-5-3-6-7(4-5)8(6)9-2/h3,6-8H,4H2,1-2H3	InChI=1S/C8H12O/c1-5-3-6-7(4-5)8(6)9-2/h3,6-8H,4H2,1-2H3/t6-,7+,8-/m1/s1
