15
gdb 25861	2.88253	1.14918	0.82644	5.833	83.93	-0.1971	-0.0267	0.1704	1307.3151	0.111478	-450.155649	-450.146358	-450.145414	-450.189649	34.165	
N	 0.068110931	 1.2837976964	-0.1384040189	-0.562555
C	-0.135447647	-0.0720704637	 0.0031566841	 0.30043
N	 1.0131038261	-0.8039695106	 0.1314269444	-0.541469
H	 0.8603325919	-1.8020294867	 0.0748615134	 0.277977
H	 1.8172522098	-0.4652008862	-0.3761435959	 0.258012
C	-1.3710834265	-0.6921915033	 0.0055404123	 0.166252
C	-2.6256853911	 0.0082917037	 0.0779894594	 0.06333
O	-3.7183268176	-0.5324495868	 0.0432455765	-0.317927
C	-2.2910532186	-2.8835663402	 0.0528767869	 0.456245
N	-3.0384019491	-3.8239963048	 0.289804832	-0.551314
N	-1.3641915457	-2.0926386986	-0.0677956465	-0.385735
H	 0.8045702187	 1.6637102631	 0.4407336306	 0.260877
H	-0.7588832182	 1.8591990534	-0.1498061453	 0.265862
H	-2.5581857845	 1.1155252098	 0.17980753	 0.041851
H	-3.6531735593	-4.1516767655	-0.4462714832	 0.268163
81.6443	123.2444	125.871	198.203	236.6868	322.8404	361.6453	399.7623	408.2622	450.4224	471.7492	492.489	568.4868	602.4378	617.1136	626.2467	629.7472	721.2168	839.5701	939.1476	982.2006	1034.5118	1123.2403	1197.5202	1252.3646	1427.0217	1437.822	1477.1108	1606.3319	1636.196	1686.4557	1743.0602	2234.8438	2847.1338	3551.9905	3562.6537	3571.5529	3665.8918	3678.3992
NC(=[NH2+])C1=COC(=N)[N-]1	[NH2]=C(N)C(=N[C][NH])C=O	
InChI=1S/C4H5N4O/c5-3(6)2-1-9-4(7)8-2/h1H,(H4-,5,6,7,8)/q-1/p+1	InChI=1S/C4H6N4O/c5-2-8-3(1-9)4(6)7/h1,5H,6-7H2
