21
gdb 104441	2.93416	1.23892	1.11818	1.6377	74.26	-0.2417	0.0736	0.3153	1185.5332	0.182805	-461.357879	-461.348905	-461.347961	-461.391067	34.778	
C	-0.124421163	 1.6263583979	-0.0855750077	-0.424653
C	-0.0323393392	 0.0966276435	-0.0657187164	 0.307293
C	-1.4265876537	-0.5431974426	-0.0065204749	-0.077925
O	-2.1235577363	-0.1667748945	 1.1631461518	-0.425476
C	 0.7703325994	-0.4425254666	-1.2582939361	-0.112527
O	 2.1433111705	-0.097071421	-1.1576398472	-0.251224
C	 2.7112641472	-0.638510325	 0.0240466813	-0.078951
C	 1.9810473059	-0.1082325581	 1.251650757	-0.087972
O	 0.5890506236	-0.3699580199	 1.1530846566	-0.313193
H	 0.8642729526	 2.0865131363	-0.1396551945	 0.124118
H	-0.689676772	 1.9551081866	-0.9635416028	 0.11554
H	-0.6457742469	 1.9788615302	 0.8063497208	 0.130046
H	-2.0291999257	-0.2147476928	-0.859955011	 0.105251
H	-1.3139631367	-1.6371155145	-0.0676112126	 0.086375
H	-1.5150708125	-0.3423898757	 1.8916064621	 0.290719
H	 0.6631800522	-1.5387961059	-1.3075510863	 0.088769
H	 0.4086864307	-0.0135420578	-2.1973446804	 0.110324
H	 2.6508488924	-1.7392776943	 0.0028905122	 0.09327
H	 3.7650448551	-0.3444019803	 0.036419284	 0.109376
H	 2.3265220398	-0.6124080184	 2.1599368458	 0.108689
H	 2.1725301667	 0.9686467028	 1.3630473484	 0.102148
114.6064	136.7283	200.5468	207.4031	240.0269	321.7941	351.5646	365.0504	422.0068	447.9161	464.185	475.4696	553.8431	662.2464	749.4355	865.6924	888.0338	908.3144	917.2929	965.7343	983.0137	1035.9757	1079.9047	1115.875	1129.6751	1139.4355	1168.1371	1206.558	1229.5988	1241.4129	1271.8756	1304.3128	1334.5317	1378.5159	1382.4837	1401.2863	1407.5919	1423.595	1439.6468	1478.7447	1484.9862	1487.3544	1492.833	1499.1286	1509.2422	2965.9625	2973.4885	2982.664	3005.3678	3050.2998	3073.9584	3080.5782	3087.5362	3089.6492	3118.3011	3144.3417	3786.3635
CC1(CO)COCCO1	C[C@@]1(CO)COCCO1	
InChI=1S/C6H12O3/c1-6(4-7)5-8-2-3-9-6/h7H,2-5H2,1H3	InChI=1S/C6H12O3/c1-6(4-7)5-8-2-3-9-6/h7H,2-5H2,1H3/t6-/m1/s1
