19
gdb 104832	2.10496	1.49488	1.21375	3.3422	72.04	-0.2467	-0.0357	0.211	1137.4928	0.156373	-460.147861	-460.138073	-460.137129	-460.183134	35.087	
C	 1.1331936935	-0.5274477615	 1.2922574822	-0.259046
O	 0.2374039352	-0.2160499599	 0.2382359237	-0.284674
C	 0.6707974282	-0.5324653831	-1.0552981533	 0.274612
C	 2.0668345083	 0.008527558	-1.4044474286	-0.11589
O	 2.1901843883	 1.3784550025	-1.1013182492	-0.421144
C	 0.4016862574	-1.9913854239	-1.5711316204	-0.303402
C	-0.5106784276	-1.4418605524	-2.7120484436	-0.346017
C	-0.3410043263	-0.0372315566	-2.1181343549	 0.367767
O	-0.7645932423	 1.0537370181	-2.3752800396	-0.304309
H	 1.4532714825	-1.5792050749	 1.2651000241	 0.105185
H	 2.0154943235	 0.1227090843	 1.2768638883	 0.136365
H	 0.583986656	-0.3561522143	 2.2207852334	 0.132157
H	 2.8339353724	-0.5190279757	-0.8264097696	 0.11333
H	 2.2691834281	-0.2045717678	-2.4678828892	 0.092988
H	 1.3986825987	 1.8254929398	-1.4276174292	 0.301358
H	 1.2813657622	-2.5485784886	-1.8992366888	 0.108028
H	-0.1433436178	-2.5784548207	-0.8306736214	 0.121878
H	-0.1143905806	-1.5339130954	-3.7277234938	 0.137877
H	-1.5438018096	-1.7994333381	-2.7173384502	 0.142938
44.0104	86.7865	104.0257	152.2446	206.9052	239.4551	299.2092	339.8785	348.3176	390.0159	454.5949	507.2739	561.6534	704.2889	711.1368	754.113	873.9432	891.1228	931.992	1030.3988	1040.8648	1067.2934	1092.2704	1099.0375	1155.741	1175.7935	1192.1546	1202.6573	1219.7877	1241.9293	1248.4828	1309.0233	1367.8288	1433.6841	1435.9512	1474.5073	1478.6722	1491.6387	1503.2857	1521.5528	1880.251	2962.6197	2995.2035	3060.9135	3062.8581	3069.625	3078.7991	3111.1019	3121.5072	3139.1134	3774.3161
COC1(CO)CCC1=O	CO[C@@]1(CO)CCC1=O	
InChI=1S/C6H10O3/c1-9-6(4-7)3-2-5(6)8/h7H,2-4H2,1H3	InChI=1S/C6H10O3/c1-9-6(4-7)3-2-5(6)8/h7H,2-4H2,1H3/t6-/m1/s1
