15
gdb 42997	2.36172	1.6866	1.30879	5.4668	69.13	-0.2415	-0.0415	0.1999	989.8514	0.114037	-416.812731	-416.805271	-416.804327	-416.845006	28.24	
O	-0.077324963	 0.2306564647	-0.8977314166	-0.306123
C	-0.0806410752	 1.2734967718	-0.3050027787	 0.421563
C	-1.2260296382	 2.0368739459	 0.2420371182	-0.176952
C	-1.0555113749	 2.4990191629	 1.6996307096	-0.297838
C	-0.674076062	 3.4146617531	 0.5999532145	 0.002798
N	 0.750341457	 3.5027782681	 0.2953827432	-0.290232
C	 1.2118541879	 2.1519776607	-0.0594634345	-0.289041
C	 2.0508173649	 1.5515812399	 0.9842504109	 0.331046
N	 2.6924334492	 1.0652508657	 1.8134358157	-0.328491
H	-2.2156998126	 1.8375004657	-0.1459048743	 0.121677
H	-1.9850579443	 2.6944046762	 2.2210264713	 0.139952
H	-0.2813998577	 2.0444188069	 2.3080675608	 0.159854
H	-1.2394794513	 4.3195863645	 0.4167778517	 0.11605
H	 0.8848008901	 4.115077309	-0.5000510786	 0.240197
H	 1.78339612	 2.1562190649	-0.9916513631	 0.155539
73.0973	143.3993	181.6501	271.6263	395.1838	413.1751	481.8055	539.7883	588.5187	635.8862	693.0195	768.4586	792.6918	818.7482	861.6027	933.4321	951.3583	971.6943	1006.4199	1059.2526	1069.8267	1092.0439	1152.3657	1167.4102	1192.0861	1203.6754	1300.4958	1315.1938	1399.8158	1457.5512	1494.132	1854.174	2355.7386	3081.3571	3143.7981	3197.2961	3211.6516	3235.392	3551.7376
O=C1C2CC2NC1C#N	O=C1[C@H]2C[C@H]2N[C@H]1C#N	
InChI=1S/C6H6N2O/c7-2-5-6(9)3-1-4(3)8-5/h3-5,8H,1H2	InChI=1S/C6H6N2O/c7-2-5-6(9)3-1-4(3)8-5/h3-5,8H,1H2/t3-,4+,5-/m0/s1
