13
gdb 123980	3.89446	1.68924	1.18677	3.8739	63.8	-0.2387	-0.0169	0.2218	930.9961	0.093339	-448.924443	-448.918283	-448.917339	-448.955215	23.516	
C	-0.0066229141	 1.5403311764	-0.0548943697	-0.276825
N	 1.3709270889	 2.0141519979	 0.1156296522	-0.254876
C	 2.3407054062	 1.2209317495	 0.2603395063	 0.126845
O	 2.3585225198	-0.155424935	 0.2927901319	-0.228331
C	 1.116936637	-0.6923649402	 0.1414522193	 0.372721
C	-0.0208666834	 0.0480713548	-0.024152691	 0.235632
N	-0.9730979657	-0.9085122413	-0.128357002	-0.290761
N	-0.4420697109	-2.1487004001	-0.0315053599	-0.1115
N	 0.849453423	-2.0121077562	 0.135139301	-0.278474
H	-0.6234342556	 1.983086024	 0.7392787696	 0.137355
H	-0.3951172369	 1.9450782363	-0.9995898543	 0.137355
H	 3.3536357269	 1.5920092034	 0.3852453504	 0.145177
H	-1.9677205253	-0.8165912195	-0.2609886639	 0.285682
106.179	230.6507	338.9486	416.8831	493.4962	523.1107	558.1184	644.9992	699.7519	739.1793	747.4856	875.7813	950.8897	955.796	1019.9105	1032.8692	1054.3451	1105.209	1205.8506	1239.6823	1244.0504	1332.6686	1368.2841	1388.796	1405.8674	1496.9383	1532.1948	1646.3574	1742.832	3004.0458	3020.2198	3193.1187	3656.5755
C1N=COC2=C1NN=N2	C1N=COc2c1[nH]nn2	
InChI=1S/C4H4N4O/c1-3-4(7-8-6-3)9-2-5-1/h2H,1H2,(H,6,7,8)	InChI=1S/C4H4N4O/c1-3-4(7-8-6-3)9-2-5-1/h2H,1H2,(H,6,7,8)
