17
gdb 74455	4.01032	1.18996	1.06899	4.7037	79.23	-0.2473	-0.0075	0.2398	1150.2856	0.137022	-380.835643	-380.827896	-380.826952	-380.867753	30.054	
C	-0.034765589	 1.4669832111	 0.0801006769	-0.519393
C	-0.0206055728	-0.0177083304	-0.0020387371	 0.385002
C	-0.0623259872	-0.8611620316	-1.0355222911	-0.225372
C	 0.0282738319	-2.2328617122	-0.3409142191	 0.203049
C	-1.0032434703	-2.0439167806	 0.8270868714	-0.250946
C	 0.0824619654	-0.9860399889	 1.1927009322	-0.131537
N	 1.1546977662	-1.9325285725	 0.6546527414	-0.333724
C	 0.1005383152	-3.4382317438	-1.1373253411	 0.152014
N	 0.1425339731	-4.4118061366	-1.7588293978	-0.338293
H	 0.8829968448	 1.8427668343	 0.5492271611	 0.141329
H	-0.1202590982	 1.9191511429	-0.9113242209	 0.135285
H	-0.8710337336	 1.8263223113	 0.6928563394	 0.132385
H	-0.1135690102	-0.6931841827	-2.1002466789	 0.126174
H	-2.0102263207	-1.707797749	 0.5680970525	 0.112546
H	-1.0310830161	-2.8965495178	 1.512465139	 0.111275
H	 0.2143819665	-0.5835942731	 2.1958329516	 0.082452
H	 1.2027814048	-2.7308737405	 1.2971665006	 0.217754
133.5968	138.4195	181.6875	216.7981	303.6052	468.0969	489.4688	522.8638	552.3445	568.6642	595.4	657.69	778.538	796.5236	840.2907	891.5763	922.0234	946.4648	986.9827	1017.0176	1036.2157	1065.1251	1090.6443	1113.8308	1156.9992	1205.8477	1224.9759	1235.865	1259.8516	1310.4692	1352.0913	1414.7623	1477.4796	1484.453	1500.1989	1695.961	2359.2481	3020.6171	3049.8042	3068.2305	3116.1569	3120.2854	3137.3746	3253.761	3387.2075
CC1=CC2(CC1N2)C#N	CC1=C[C@@]2(C[C@H]1N2)C#N	
InChI=1S/C7H8N2/c1-5-2-7(4-8)3-6(5)9-7/h2,6,9H,3H2,1H3	InChI=1S/C7H8N2/c1-5-2-7(4-8)3-6(5)9-7/h2,6,9H,3H2,1H3/t6-,7-/m1/s1
