21
gdb 113491	4.08752	0.93448	0.85964	1.3728	84.14	-0.2341	0.0301	0.2642	1402.1659	0.182772	-387.081171	-387.07225	-387.071306	-387.11526	33.921	
O	-0.1381262883	 1.3385478899	-0.8344118542	-0.41921
C	-0.0157435932	 0.1779202757	-0.0205261173	-0.104324
C	-1.3666762772	-0.4797889962	 0.0631278415	-0.034364
C	-1.824976848	-1.4174057011	-1.0269795639	-0.326671
C	-1.5157553135	-1.9535848688	 0.3498940864	 0.33932
C	-0.3149923916	-2.8945570724	 0.5663337702	-0.33756
C	-0.9264675203	-4.0589351307	 1.3075779887	-0.063352
C	-2.1859756915	-3.8260331228	 1.670570247	-0.059983
C	-2.6629007754	-2.4608192248	 1.241946524	-0.333114
H	 0.7060135887	 1.7995663329	-0.8227786196	 0.283176
H	 0.7178960153	-0.5265004299	-0.4436099529	 0.081617
H	 0.335767705	 0.4443408585	 0.9900670819	 0.083476
H	-2.1300970837	 0.1654921888	 0.4920179086	 0.083238
H	-2.8618864577	-1.3729399971	-1.3449209832	 0.106102
H	-1.121804443	-1.6336596498	-1.8263594243	 0.107164
H	 0.1525157716	-3.1975419956	-0.3786809106	 0.104074
H	 0.482094862	-2.4310019793	 1.1666078381	 0.103174
H	-0.3671759623	-4.9615124628	 1.5283649895	 0.089204
H	-2.8123380186	-4.5102544136	 2.2323694048	 0.089924
H	-2.8261263243	-1.8103414347	 2.1142159471	 0.103998
H	-3.619447304	-2.4961945863	 0.7051086783	 0.104113
53.3972	93.3021	139.5488	192.5424	266.1299	316.0807	347.9578	392.4205	419.2086	441.3298	602.9432	697.6919	771.7922	776.7163	843.1351	876.4761	918.8686	924.0083	956.5186	976.9098	980.5065	991.4415	1027.7251	1049.1982	1064.6357	1069.6485	1091.7071	1131.4973	1163.6559	1171.0144	1203.7297	1230.3457	1253.5582	1271.5519	1282.8224	1294.2793	1343.9797	1371.6638	1411.6923	1468.1505	1485.4397	1490.7783	1494.3566	1519.2018	1692.8511	2958.9834	2987.798	2993.6714	2995.2597	3033.465	3036.2544	3115.1994	3132.913	3180.533	3201.0623	3206.0525	3824.0351
OCC1CC11CC=CC1	OC[C@H]1C[C@]21CC=CC2	
InChI=1S/C8H12O/c9-6-7-5-8(7)3-1-2-4-8/h1-2,7,9H,3-6H2	InChI=1S/C8H12O/c9-6-7-5-8(7)3-1-2-4-8/h1-2,7,9H,3-6H2/t7-/m1/s1
