18
gdb 62547	2.34005	1.43485	1.18648	3.4203	73.99	-0.2617	-0.0425	0.2192	1124.0237	0.144935	-439.095974	-439.086603	-439.085659	-439.13028	33.8	
C	-0.1518359487	 1.4630805375	-0.0187881044	-0.441833
C	-0.0039968874	-0.0565355247	 0.038373407	 0.114417
C	-1.3460341617	-0.7586492824	 0.2508872655	-0.452414
C	 0.9593724083	-0.6665328862	-1.0510977831	 0.003995
O	 1.896276977	-1.0556354943	-0.0174584954	-0.252191
C	 1.0943347318	-0.5359722149	 0.9780507946	 0.441302
N	 1.2515411851	-0.4863213195	 2.2182335346	-0.54828
C	 0.4406794686	-1.825726022	-1.8640849182	 0.142905
O	 0.6272643101	-2.9847828152	-1.6085348352	-0.233646
H	 0.8133753021	 1.9567267867	-0.1652853561	 0.127988
H	-0.8192927516	 1.7580471202	-0.8354320578	 0.120466
H	-0.5773419545	 1.8295584041	 0.9198629851	 0.145584
H	-2.0616149264	-0.4865951162	-0.5323544812	 0.119074
H	-1.2395894151	-1.8463746074	 0.2631406247	 0.146504
H	-1.7638688723	-0.4524551448	 1.2138919497	 0.145267
H	 1.3966464872	 0.0844880357	-1.7204403012	 0.105258
H	 2.1298195422	-0.9175472403	 2.5102317962	 0.233809
H	-0.1638526846	-1.5055940364	-2.7446143847	 0.081794
69.6946	85.6455	174.9932	212.4667	225.5504	241.8479	256.2908	288.5573	327.3761	372.8396	519.3045	642.1369	683.7059	723.6291	782.6893	803.2029	865.0016	924.5044	962.7313	977.8453	996.111	1016.6051	1037.7421	1083.3549	1171.5083	1188.8474	1230.464	1254.7226	1310.2898	1367.0392	1402.348	1420.9267	1422.8591	1482.0107	1486.8167	1502.2394	1508.2672	1831.1603	1841.8441	2862.0507	3035.0259	3039.018	3042.4116	3107.0842	3111.5563	3118.1084	3125.9975	3482.5656
CC1(C)C(OC1=N)C=O	CC1(C)[C@@H](O[C]1[NH])C=O	
InChI=1S/C6H9NO2/c1-6(2)4(3-8)9-5(6)7/h3-4,7H,1-2H3	InChI=1S/C6H9NO2/c1-6(2)4(3-8)9-5(6)7/h3-4,7H,1-2H3/t4-/m0/s1
