18
gdb 81567	3.10622	1.27024	1.1187	10.5424	73.5	-0.1921	0.02	0.2121	1140.6805	0.148139	-439.005365	-438.997222	-438.996277	-439.038506	30.734	
C	 0.2029346543	 1.4357168561	-1.2249026904	-0.462476
C	 0.2309806322	-0.0158641794	-0.8017666255	 0.084805
C	 1.4445278519	-0.9760109228	-1.0439683034	-0.08963
C	 2.1817834911	-0.193657809	 0.0813192528	-0.204068
N	 0.7670351742	-0.3700566825	 0.6085995253	-0.093125
H	 0.3544976251	-0.0799190066	 1.4963965547	 0.286116
C	 0.8468346798	-1.8593970468	 0.0985407136	-0.071965
C	-0.5140496642	-2.6134396348	-0.010921627	 0.346113
O	-1.4735461761	-1.996744244	 0.4951411975	-0.489325
O	-0.3840662316	-3.6979105933	-0.5835801886	-0.444339
H	 1.15804311	 1.9605186904	-1.156554651	 0.128792
H	-0.1197276719	 1.468477113	-2.2704551955	 0.158555
H	-0.5426790993	 1.9867115432	-0.6429713796	 0.150236
H	-0.7464230551	-0.4827456564	-0.909551509	 0.174631
H	 1.8462660847	-1.3136866224	-1.992534405	 0.124907
H	 2.9260690696	-0.734181429	 0.666823566	 0.146549
H	 2.4658511598	 0.8454175267	-0.078163703	 0.136481
H	 1.5868600454	-2.4107676525	 0.6831599181	 0.117741
62.8172	123.6307	181.8746	188.016	285.9913	337.148	397.3285	457.2395	573.4626	645.6728	690.3388	734.8653	761.4137	793.226	817.3914	870.433	903.6831	965.1411	1013.1465	1032.5297	1066.9107	1090.2904	1100.1252	1127.7445	1144.3887	1156.603	1191.978	1210.7881	1225.9955	1277.7697	1282.4345	1315.8061	1346.668	1415.6037	1445.5331	1489.8909	1496.435	1535.4661	1798.4748	3047.1675	3094.1012	3099.4464	3111.7481	3121.2818	3149.1743	3169.6943	3200.7988	3477.8308
CC1C2C[NH+]1C2C([O-])=O	C[C@H]1[C@H]2C[N@@H]1[C@H]2C(=O)[O]	
InChI=1S/C6H9NO2/c1-3-4-2-7(3)5(4)6(8)9/h3-5H,2H2,1H3,(H,8,9)	InChI=1S/C6H9NO2/c1-3-4-2-7(3)5(4)6(8)9/h3-5,7H,2H2,1H3/t3-,4+,5+/m0/s1
