17
gdb 54814	3.07724	1.43669	1.32348	4.0122	72.72	-0.2394	-0.0313	0.2081	1030.6754	0.135729	-418.001058	-417.99286	-417.991916	-418.034838	29.757	
C	-0.3253158276	 1.5563212006	-0.0067071965	-0.481931
C	 0.054309954	 0.0883927638	 0.0802008429	 0.381736
O	 0.2328882867	-0.474405576	 1.1346045034	-0.291941
C	 0.1457534982	-0.6097588167	-1.2533529309	-0.129964
C	 1.4326588034	-0.8691984837	-1.9756893326	-0.053969
C	 2.7668473093	-0.880214924	-1.2266671535	-0.193338
N	 2.6501856852	-1.9664002794	-0.2402051911	-0.192436
C	 1.4860056026	-2.455696173	-0.3575890923	 0.059988
N	 0.63836444	-1.9913627023	-1.4247830504	-0.140405
H	 0.3698093324	 2.0983250019	-0.6571260901	 0.143674
H	-1.3231859595	 1.6630848799	-0.4473625286	 0.145717
H	-0.3215085235	 1.994253441	 0.9917492986	 0.150185
H	-0.7084414866	-0.3868065424	-1.8924168346	 0.114118
H	 1.4341411408	-0.7639680866	-3.056309797	 0.107079
H	 3.5937533504	-1.0853406347	-1.9156550552	 0.123691
H	 3.0059575662	 0.0574086605	-0.7113218458	 0.122127
H	 1.109522598	-3.2611584889	 0.2625352236	 0.135668
37.0885	102.6723	128.139	170.077	266.6589	355.7714	399.8216	500.7986	599.2766	643.1094	719.9263	769.8275	778.6129	856.7247	865.195	934.8419	957.4641	973.5469	980.1784	987.902	1046.4142	1063.9605	1103.9928	1113.3389	1178.2518	1208.9017	1268.7684	1309.5412	1321.6491	1361.3412	1378.099	1396.826	1462.8399	1473.6683	1488.4267	1686.7808	1809.3018	3037.1949	3037.604	3067.9604	3097.7466	3111.7332	3155.8841	3156.3985	3213.8797
CC(=O)C1C2CN=CN12	CC(=O)[C@H]1[C@H]2CN=CN12	
InChI=1S/C6H8N2O/c1-4(9)6-5-2-7-3-8(5)6/h3,5-6H,2H2,1H3	InChI=1S/C6H8N2O/c1-4(9)6-5-2-7-3-8(5)6/h3,5-6H,2H2,1H3/t5-,6+,8?/m1/s1
