17
gdb 8858	3.84558	1.20936	1.02165	3.7384	69.76	-0.2913	-0.0838	0.2076	1166.2256	0.139756	-363.893635	-363.884294	-363.88335	-363.928329	32.142	
C	 0.0584273364	 1.5743094979	-0.0148118457	-0.402407
C	 0.0362515851	 0.0456190436	-0.1002120307	-0.177156
C	-1.3706568456	-0.5583462092	 0.0233912721	-0.085413
C	-2.3063903424	-0.2077662387	-1.1541515537	-0.415427
C	-1.295661375	-2.0669027656	 0.175179585	 0.289323
O	-0.3036547588	-2.7393753764	 0.0540802197	-0.270985
C	-2.5861742731	-2.7252205129	 0.5040568844	 0.237028
N	-3.5909840361	-3.2304494015	 0.7733510486	-0.305913
H	 1.0875521011	 1.9432452167	-0.0494133441	 0.124425
H	-0.4839106548	 2.0436560849	-0.841235469	 0.122385
H	-0.3883164575	 1.9278247151	 0.9212994242	 0.118635
H	 0.4830263984	-0.2872174798	-1.044039364	 0.114892
H	 0.66631001	-0.3751307284	 0.6902164687	 0.116648
H	-1.8496597116	-0.19007508	 0.9440560933	 0.112894
H	-3.2860804013	-0.6811240918	-1.0451907534	 0.147538
H	-2.4627601284	 0.8718425956	-1.201362744	 0.138343
H	-1.8699172264	-0.5331459494	-2.1039323616	 0.13519
44.9151	73.0987	129.8711	194.8503	213.5073	227.8861	267.299	309.1666	364.7565	380.8405	474.955	605.0649	722.4769	762.6159	796.0748	850.6697	972.474	984.6516	1017.7819	1070.6554	1103.0635	1145.2566	1198.0962	1285.805	1312.5054	1332.4269	1387.8035	1408.6767	1417.4404	1479.7418	1495.6302	1501.3014	1505.9388	1511.3917	1795.6652	2334.5006	2994.3883	3035.6953	3044.6842	3046.9067	3077.2631	3104.8828	3112.2036	3118.3814	3132.7376
CCC(C)C(=O)C#N	CC[C@@H](C)C(=O)C#N	
InChI=1S/C6H9NO/c1-3-5(2)6(8)4-7/h5H,3H2,1-2H3	InChI=1S/C6H9NO/c1-3-5(2)6(8)4-7/h5H,3H2,1-2H3/t5-/m1/s1
