18
gdb 18378	2.96363	2.47061	1.64349	0.5886	79.36	-0.2042	-0.0194	0.1848	835.8695	0.156863	-310.668302	-310.661587	-310.660643	-310.699005	27.044	
C	-0.1720754146	 1.3028488138	 0.3688197964	-0.291347
C	 1.2448523517	 0.9650292331	 0.025746199	-0.016903
C	 2.3289659991	 0.7163237055	 1.0729245288	-0.269177
C	 1.8744743714	 0.3083441008	 2.4504708432	-0.095118
C	 1.0539937222	-0.7113579115	 2.7405176911	-0.063794
C	 0.3613699016	-1.5831730613	 1.7982190999	-0.10641
C	 0.0054992503	-1.3138634099	 0.5294661824	-0.060349
C	 0.1582484957	-0.0608200727	-0.2412024351	-0.055503
H	-0.4548476842	 1.3042956637	 1.4146368622	 0.128478
H	-0.7078858019	 2.016410706	-0.247462796	 0.108996
H	 1.6347167225	 1.4424105727	-0.8712120544	 0.083336
H	 3.0008004526	-0.0588912933	 0.6735851949	 0.115904
H	 2.9371209778	 1.6241167782	 1.1583772407	 0.101188
H	 2.2940290664	 0.8739319613	 3.2783833945	 0.086944
H	 0.8853042099	-0.9393962041	 3.7916989124	 0.082952
H	 0.0724063399	-2.5545922485	 2.1938868831	 0.083035
H	-0.5099505457	-2.1051672409	-0.010496037	 0.087138
H	-0.1185064145	-0.166132563	-1.2855628562	 0.080631
92.8556	229.6339	277.61	376.7517	405.1931	448.0686	588.7905	676.841	712.905	729.1148	757.9977	825.3495	848.3784	879.3765	901.6738	936.5414	954.9555	996.5508	1001.8034	1026.6899	1039.7644	1069.4723	1101.4012	1134.5662	1158.1787	1225.1192	1250.5939	1264.9172	1280.7599	1355.1147	1379.6288	1418.818	1427.9083	1464.5326	1482.1306	1491.8801	1671.813	1705.3053	2989.8369	3050.4701	3118.9772	3127.5372	3135.9768	3138.9098	3148.8606	3160.2825	3165.4658	3229.6994
C1C2CC=CC=CC12	C1[C@H]2CC=CC=C[C@@H]12	
InChI=1S/C8H10/c1-2-4-7-6-8(7)5-3-1/h1-4,7-8H,5-6H2	InChI=1S/C8H10/c1-2-4-7-6-8(7)5-3-1/h1-4,7-8H,5-6H2/t7-,8+/m0/s1
