16
gdb 39911	4.2204	1.51522	1.37483	3.4972	75.43	-0.2095	-0.0592	0.1503	944.326	0.123036	-400.589225	-400.582523	-400.581579	-400.619978	27.83	
C	-0.0525746019	 1.4784300103	 0.1070840878	-0.299485
C	 1.3056057652	 0.8151299302	 0.012749764	-0.320904
C	 0.0468741901	-0.015210039	-0.014794089	 0.370511
N	-0.4492846556	-0.8027085702	 1.1344802884	-0.261431
C	-0.7086870084	-1.9112182222	 0.5688823833	 0.236936
O	-2.0323434103	-2.2899573415	 0.2862297564	-0.269097
C	-1.5704721591	-1.9489942599	-1.099292867	 0.068378
C	-0.16393227	-2.2409822583	-0.8634250857	-0.198074
C	-0.4042355287	-0.8190996023	-1.2395018956	-0.169379
H	-0.3643818169	 1.8716131244	 1.0668908308	 0.135741
H	-0.4211642017	 2.0244759502	-0.755500577	 0.116043
H	 1.874587735	 0.9239818331	-0.9048068019	 0.113969
H	 1.903718139	 0.7609038818	 0.9149471396	 0.129768
H	-2.2693723998	-2.2037516228	-1.8866808245	 0.131786
H	 0.5193025303	-3.011260173	-1.1936784977	 0.1177
H	-0.2429112573	-0.4500087909	-2.249814992	 0.097539
131.438	236.5948	288.3465	370.7373	466.2673	516.0162	557.844	619.5828	685.9656	727.8787	767.1626	775.5102	792.811	818.3662	866.9128	893.2019	911.7631	946.9813	962.8501	975.8542	1020.0125	1036.8235	1048.2119	1071.6291	1080.9235	1147.2067	1181.7204	1188.0009	1208.0563	1224.3412	1321.7298	1368.4429	1453.6625	1486.8177	1582.6956	3132.3629	3135.8871	3146.8933	3195.2492	3208.4222	3220.1624	3235.384
C1CC11N=C2OC3C2C13	C1CC21[N][C]1O[C@@H]3[C@H]1[C@H]23	
InChI=1S/C7H7NO/c1-2-7(1)4-3-5(4)9-6(3)8-7/h3-5H,1-2H2	InChI=1S/C7H7NO/c1-2-7(1)4-3-5(4)9-6(3)8-7/h3-5H,1-2H2/t3-,4+,5-/m1/s1
