20
gdb 8309	4.84314	0.9481	0.9012	0.9558	71.96	-0.2428	0.0809	0.3237	1351.3268	0.175926	-386.125516	-386.116396	-386.115451	-386.159961	32.718	
C	 0.4813196327	 1.477734131	 0.2293730035	-0.398104
C	 0.06345121	 0.0447832555	-0.0258673045	 0.180494
C	 0.5610733126	-0.6656989808	-1.3045567276	-0.325929
C	 1.1105108709	-1.7295060381	-0.3318725775	 0.159309
C	 2.585092432	-2.0795320301	-0.3895019713	-0.191747
C	 3.0340623201	-2.9087453905	 0.8073603688	-0.073226
O	 4.4191566553	-3.1835354023	 0.6511448808	-0.423374
O	 0.7744270838	-0.9016738438	 0.811094229	-0.316703
H	 1.556774303	 1.6028167525	 0.0701244623	 0.11904
H	-0.0543102217	 2.1573691614	-0.4428029029	 0.114853
H	 0.2511847081	 1.7659029601	 1.260122358	 0.126378
H	-1.0214268991	-0.0626837026	 0.1212962457	 0.070139
H	-0.19827554	-0.9918421972	-2.0166075727	 0.105165
H	 1.3428707234	-0.1144282002	-1.8339974406	 0.105706
H	 0.5047419374	-2.6490044716	-0.3208175113	 0.067331
H	 2.7867571236	-2.6389198427	-1.312068871	 0.103569
H	 3.1807982053	-1.1603738558	-0.4273588792	 0.10397
H	 2.8343069325	-2.3459435363	 1.7305382559	 0.107869
H	 2.4464545925	-3.8409777754	 0.855359925	 0.080437
H	 4.7234395677	-3.6397646431	 1.4408505895	 0.284824
49.6433	97.7722	104.3638	163.02	234.3004	262.469	328.7245	339.7626	390.9203	424.7806	499.6295	689.9935	795.6195	832.3835	893.3132	918.7747	928.3383	961.9215	1003.0496	1058.5566	1067.8721	1090.9702	1111.4334	1141.7754	1168.0159	1200.1111	1220.5167	1247.9197	1256.8673	1286.8031	1308.4556	1320.137	1348.057	1379.9348	1403.1951	1421.9844	1462.2936	1478.5114	1483.0555	1491.3382	1497.6806	1530.0201	2960.5013	2977.7515	2989.7802	3014.6776	3030.7732	3032.2641	3066.9295	3079.6225	3104.2724	3112.0591	3128.2816	3831.3755
CC1CC(CCO)O1	C[C@H]1C[C@@H](CCO)O1	
InChI=1S/C6H12O2/c1-5-4-6(8-5)2-3-7/h5-7H,2-4H2,1H3	InChI=1S/C6H12O2/c1-5-4-6(8-5)2-3-7/h5-7H,2-4H2,1H3/t5-,6+/m0/s1
