20
gdb 108944	3.27203	1.0797	1.0546	2.2587	81.04	-0.2072	0.0192	0.2264	1255.2236	0.170957	-403.12283	-403.113991	-403.113047	-403.15638	33.459	
C	-0.1783679702	 1.5487675927	 0.0389422637	-0.423827
C	 0.0216438196	 0.0546139043	-0.0363361017	 0.023082
C	 0.588525913	-0.6736282641	-1.2189670129	-0.09491
C	 1.361772005	 0.1047689647	-2.2209911288	-0.171313
C	 2.443754055	 0.646891774	-1.6571807337	 0.293302
C	 3.4663819902	 1.5285459608	-2.2927035046	-0.1806
O	 3.1318324349	 1.7481788262	-3.6510044805	-0.41274
C	 2.5128680907	 0.2553972022	-0.1928432334	-0.262594
N	 1.3372278957	-0.6052221194	 0.0655948191	-0.124997
H	 0.4369231016	 2.0936202588	-0.6795406673	 0.127278
H	-1.2268422959	 1.7909377202	-0.1634227561	 0.120213
H	 0.0545856028	 1.917837895	 1.0449312072	 0.119888
H	-0.7221427066	-0.5003208028	 0.5355239139	 0.087501
H	 0.1709565218	-1.6376340734	-1.5026945973	 0.087992
H	 1.0759412015	 0.2115032821	-3.2583985684	 0.112621
H	 3.526399274	 2.4801417081	-1.7340514623	 0.095907
H	 4.4606980043	 1.0563560964	-2.1940838131	 0.097567
H	 3.8297868305	 2.275505879	-4.049548234	 0.29023
H	 3.4258311826	-0.3114922501	 0.0376053268	 0.108448
H	 2.5127413995	 1.1278234755	 0.4761852733	 0.106951
70.0212	133.6578	189.1969	202.204	234.5128	246.3347	306.2867	402.3989	416.6342	496.7042	572.2341	662.0387	723.5958	762.9446	766.1928	859.6851	905.1937	913.5549	978.1427	984.9172	1011.1792	1054.6009	1062.5073	1078.2506	1097.001	1139.1954	1166.7297	1187.8894	1209.4754	1217.0618	1253.6348	1283.4951	1296.8064	1342.6767	1364.4515	1402.2706	1421.0177	1467.1477	1487.7602	1498.263	1502.7392	1509.1379	1713.5316	2935.5894	2946.2896	2998.8428	3021.8398	3032.4926	3089.3422	3097.6536	3123.2686	3132.4237	3233.2697	3837.1149
CC1C2C=C(CO)CN12	C[C@H]1[C@H]2C=C(CO)CN12	
InChI=1S/C7H11NO/c1-5-7-2-6(4-9)3-8(5)7/h2,5,7,9H,3-4H2,1H3	InChI=1S/C7H11NO/c1-5-7-2-6(4-9)3-8(5)7/h2,5,7,9H,3-4H2,1H3/t5-,7+,8?/m0/s1
