15
gdb 51718	3.89903	0.94007	0.90121	3.4634	62.71	-0.2639	-0.0416	0.2223	1281.1701	0.111151	-494.944378	-494.936179	-494.935234	-494.978509	28.747	
O	 0.1047048046	 0.2447531808	-0.783389009	-0.263368
C	 0.1168369803	 1.2952598286	-0.2203927263	 0.175465
O	 1.151902325	 2.1631291408	-0.3250512891	-0.202744
C	 0.9866372083	 3.4376342692	 0.3101336532	 0.190176
C	 2.3514154681	 4.1122297541	 0.3304096307	-0.365761
C	 2.3423577382	 4.9185106335	-0.9724326663	 0.377118
O	 3.271404504	 5.4598171187	-1.5026236295	-0.285497
C	 0.8949601483	 4.8995556341	-1.4726631808	-0.190362
O	 0.1382999488	 4.2653496214	-0.445476449	-0.24683
H	-0.6875938514	 1.661968665	 0.4440876433	 0.091276
H	 0.513304167	 3.302097167	 1.2863537311	 0.109181
H	 2.4267829625	 4.8064039957	 1.1737415304	 0.151137
H	 3.1872586564	 3.4142901798	 0.3717184467	 0.162246
H	 0.5083376258	 5.9096164202	-1.6308532361	 0.148781
H	 0.839266684	 4.3470747512	-2.4199662791	 0.149182
54.4665	69.7725	131.198	167.9973	240.0065	358.6677	445.3326	464.6531	505.9472	621.4558	642.707	759.2553	800.6678	838.8705	949.2714	954.2334	1015.623	1040.4045	1048.4356	1097.7058	1138.5457	1173.1763	1194.0684	1220.5817	1274.2882	1319.5743	1370.8831	1384.1485	1435.2447	1444.2535	1479.7051	1870.8294	1876.9334	2967.7105	3028.3763	3068.0025	3083.4288	3104.1168	3149.2272
O=COC1CC(=O)CO1	O=CO[C@H]1CC(=O)CO1	
InChI=1S/C5H6O4/c6-3-9-5-1-4(7)2-8-5/h3,5H,1-2H2	InChI=1S/C5H6O4/c6-3-9-5-1-4(7)2-8-5/h3,5H,1-2H2/t5-/m0/s1
