19
gdb 103875	4.24803	0.79153	0.73119	1.6674	78.1	-0.2611	0.0473	0.3083	1562.516	0.155632	-422.971505	-422.961339	-422.960395	-423.007137	36.856	
C	-0.0405818166	 1.6261284772	-0.065565	-0.46621
C	-0.2215523485	 0.1470070855	 0.1901531606	 0.34468
C	-1.4064261945	-0.4852840866	-0.5215170714	-0.11563
O	-1.230144521	-0.4510155348	-1.9271309017	-0.416062
O	 0.9673616608	-0.6708527916	 0.0683039515	-0.29685
C	 0.3492128826	-0.5552509695	 1.3520749636	 0.011868
C	 1.145776595	 0.1249651582	 2.4551948504	-0.392402
C	 2.0730975307	-0.7910777902	 3.1113197092	 0.300113
C	 2.821965034	-1.563470861	 3.6459419931	-0.435067
H	 0.9345527846	 1.9816406289	 0.2697818609	 0.127666
H	-0.1272944987	 1.8163178789	-1.1390119455	 0.143791
H	-0.8208367461	 2.203650351	 0.4423398015	 0.122601
H	-1.5441432691	-1.5146617066	-0.1598150433	 0.092761
H	-2.3247489775	 0.0740920566	-0.312125889	 0.110323
H	-0.4060327752	-0.9189082579	-2.1076242796	 0.294407
H	-0.1500579562	-1.4676213984	 1.6836755587	 0.097348
H	 1.6947298581	 0.9778780932	 2.0455836307	 0.140862
H	 0.4415348249	 0.5263549612	 3.1967660886	 0.136858
H	 3.4931352531	-2.238412874	 4.1163928117	 0.198944
46.7833	70.0773	117.2231	174.1985	177.4302	246.2656	298.4806	333.225	337.4281	378.1912	440.5031	452.0833	502.0648	621.085	642.5727	647.0874	714.0734	829.0793	881.2809	923.2212	952.055	964.2816	1025.9361	1056.5952	1104.0387	1107.1228	1134.1681	1201.9963	1237.7382	1272.5192	1321.7544	1339.8948	1391.8242	1413.7115	1426.0272	1451.5909	1467.9735	1491.1052	1495.1903	1512.7671	2242.836	2997.9647	3022.029	3043.9924	3074.0721	3082.5899	3097.8925	3111.0362	3142.8231	3506.6485	3791.9576
CC1(CO)OC1CC#C	C[C@@]1(CO)O[C@H]1CC#C	
InChI=1S/C7H10O2/c1-3-4-6-7(2,5-8)9-6/h1,6,8H,4-5H2,2H3	InChI=1S/C7H10O2/c1-3-4-6-7(2,5-8)9-6/h1,6,8H,4-5H2,2H3/t6-,7-/m0/s1
