18
gdb 35794	3.66573	1.1957	1.00671	4.0105	76.15	-0.2308	0.019	0.2499	1172.4479	0.150679	-398.103272	-398.095546	-398.094602	-398.13568	29.856	
N	 0.0265361207	-1.1668916848	 0.0653484551	-0.315199
C	 0.0250308362	-0.0127611663	 0.0126173391	 0.273595
C	 0.0023205611	 1.4538143124	 0.0008204677	-0.11857
C	-0.8065978659	 1.980119554	 1.2152382217	-0.165278
N	-0.6730063996	 3.427549167	 1.4290148213	-0.100558
C	 0.4847457176	 3.8861761282	 2.198374747	-0.247097
C	 0.4061209862	 4.1619892154	 0.7432323034	 0.003825
C	 1.317872699	 3.443316206	-0.2417567138	-0.208469
N	 1.3612353141	 1.9902291479	-0.0819097835	-0.292968
H	-0.5094893051	 1.7670876752	-0.919355021	 0.135726
H	-1.8670198069	 1.7503442939	 1.0626993437	 0.12654
H	-0.4887954455	 1.4432525499	 2.1162047707	 0.119284
H	 0.2873780624	 4.6698974555	 2.9250839885	 0.120892
H	 1.2005168299	 3.1348947492	 2.5319296986	 0.099762
H	 0.1086427275	 5.1603931382	 0.4252761077	 0.097387
H	 0.9695226634	 3.6507938868	-1.2622936222	 0.119631
H	 2.3382490276	 3.8343920005	-0.1726590292	 0.120854
H	 1.8923203073	 1.7251877812	 0.7422576551	 0.230644
75.8606	155.316	189.8539	290.6563	350.9761	375.6876	426.1156	498.6506	535.4035	554.3523	661.0374	747.742	779.5478	812.4624	848.7187	926.7116	956.0167	1002.9892	1021.8821	1040.1702	1083.8561	1101.9868	1121.3326	1129.1438	1151.6417	1172.6243	1240.7942	1278.544	1312.9107	1323.3665	1357.5596	1370.857	1374.0901	1420.2035	1480.7112	1486.1944	1499.5377	1513.9625	2361.7976	3020.3623	3022.2761	3031.3492	3072.6804	3075.2031	3084.748	3112.4001	3172.3311	3517.8438
N#CC1CN2CC2CN1	N#C[C@H]1CN2C[C@H]2CN1	
InChI=1S/C6H9N3/c7-1-5-3-9-4-6(9)2-8-5/h5-6,8H,2-4H2	InChI=1S/C6H9N3/c7-1-5-3-9-4-6(9)2-8-5/h5-6,8H,2-4H2/t5-,6+,9?/m0/s1
