19
gdb 120692	3.2547	0.81904	0.73808	3.2397	73.51	-0.2537	-0.0326	0.2211	1582.7839	0.156004	-460.152808	-460.142631	-460.141687	-460.189165	35.429	
C	 0.3996889129	 1.0607462059	-0.973189104	-0.488152
C	 0.0588179094	 0.1003104742	 0.1494726352	 0.37459
O	 0.8562702977	-0.2228040254	 0.9993150186	-0.301094
C	-1.3587582114	-0.4169012512	 0.1359216362	-0.057013
O	-1.6405843508	-1.5975707181	 0.8776751627	-0.233339
C	-2.2175304032	-0.3867969108	 1.3521464651	 0.056538
C	-1.7712952847	 0.1132034541	 2.7017662269	-0.25364
C	-2.3705783286	-0.7251091672	 3.8396567823	-0.057917
O	-2.0085124749	-0.2315380969	 5.1174752336	-0.418414
H	 1.3963718085	 1.4735728691	-0.8162672588	 0.148516
H	 0.3685175514	 0.5367633018	-1.935915937	 0.148348
H	-0.337440306	 1.8701004719	-1.0288402456	 0.141826
H	-1.8632539625	-0.3538653604	-0.8296531717	 0.097119
H	-3.2908806811	-0.3115027748	 1.1582431366	 0.099442
H	-0.6799629233	 0.077195379	 2.756922249	 0.132335
H	-2.0876794997	 1.1559430495	 2.8264849985	 0.107203
H	-3.465308297	-0.6847344607	 3.8057263789	 0.107875
H	-2.0779518611	-1.777584716	 3.7115203044	 0.110554
H	-1.0571821055	-0.3423441041	 5.214994509	 0.285223
52.3031	66.4009	95.1047	122.3224	133.5558	202.1055	247.1976	317.2955	358.29	367.436	422.7576	503.7422	610.2002	624.1758	781.674	791.7781	847.3318	910.9035	961.41	990.1889	1016.7553	1043.9701	1072.9442	1090.3587	1115.7342	1139.8946	1193.6909	1206.5852	1280.7005	1297.722	1323.8391	1378.0772	1391.4232	1410.5887	1422.0131	1460.724	1463.9539	1474.001	1478.6626	1513.9223	1810.309	3000.111	3033.3283	3041.2416	3063.0293	3072.5382	3092.348	3099.4392	3111.9237	3157.0333	3814.7499
CC(=O)C1OC1CCO	CC(=O)[C@H]1O[C@H]1CCO	
InChI=1S/C6H10O3/c1-4(8)6-5(9-6)2-3-7/h5-7H,2-3H2,1H3	InChI=1S/C6H10O3/c1-4(8)6-5(9-6)2-3-7/h5-7H,2-3H2,1H3/t5-,6+/m0/s1
