19
gdb 87381	2.20527	1.58007	1.09227	4.068	78.57	-0.2341	0.0169	0.251	1168.8196	0.157915	-419.18467	-419.175479	-419.174535	-419.218286	34.474	
C	 0.0295739558	 1.4539141741	-0.3630815572	-0.420513
C	 0.0123199952	-0.0181921197	-0.0455474699	-0.020874
O	 1.2707031099	-0.7110981719	-0.1205297616	-0.28532
C	 0.6405053344	-0.6124830033	 1.1382769149	 0.340393
C	 1.2821964707	-0.0253804045	 2.4218938741	-0.029145
C	 0.6487121388	 1.2154717986	 3.0363234442	-0.406221
N	 0.9045936224	-1.3082172103	 3.0661346247	-0.369112
C	 0.2004289334	-1.8019972247	 1.9644750641	 0.318185
N	-0.5314387499	-2.7980502192	 1.701016085	-0.552218
H	 0.9086856924	 1.9401793648	 0.0659986959	 0.127223
H	 0.0542890418	 1.6025444789	-1.4475534464	 0.13402
H	-0.8707748681	 1.9442700806	 0.0215789844	 0.12611
H	-0.8153543872	-0.5856385318	-0.4736979752	 0.116936
H	 2.3687796654	 0.0875091147	 2.3411734736	 0.098718
H	-0.4432001937	 1.1373836706	 3.0459402589	 0.123434
H	 0.9915476981	 1.3495932887	 4.0682992571	 0.120655
H	 0.9270060443	 2.1151041888	 2.4801754814	 0.130272
H	 0.6372007198	-1.4159436367	 4.0346182739	 0.237081
H	-0.6510350234	-3.4102529775	 2.509849908	 0.210376
96.0901	134.9293	162.0517	206.5169	233.2031	257.0425	289.5829	314.6763	414.0225	423.6627	492.5806	569.2694	606.4229	683.1929	741.1547	814.8388	838.8164	889.9193	921.5349	954.9284	1028.3366	1045.6271	1055.1428	1097.964	1116.499	1133.1222	1136.9378	1191.8335	1236.9037	1312.0643	1328.2889	1365.0215	1389.9251	1408.6139	1410.8825	1472.1239	1486.4095	1494.0826	1501.2025	1527.5289	1797.4408	3033.8241	3040.1326	3047.6422	3099.9905	3103.1189	3104.9975	3117.248	3132.162	3461.5891	3595.4544
CC1OC11C(C)NC1=N	C[C@H]1O[C@]21[C@@H](C)N[C]2[NH]	
InChI=1S/C6H10N2O/c1-3-6(4(2)9-6)5(7)8-3/h3-4H,1-2H3,(H2,7,8)	InChI=1S/C6H10N2O/c1-3-6(4(2)9-6)5(7)8-3/h3-4H,1-2H3,(H2,7,8)/t3-,4-,6+/m1/s1
