19
gdb 97933	6.11939	0.52378	0.5091	2.8713	82.09	-0.2509	0.0327	0.2836	2161.6673	0.156419	-422.970624	-422.960153	-422.959209	-423.008657	35.948	
C	 0.2968738133	 1.3787248191	-0.3731850872	-0.419167
C	-0.1434583031	 0.0907313596	 0.2751916387	 0.074348
O	 0.8168512294	-0.9699249644	 0.3695537127	-0.252879
C	 0.3170802731	-0.4071306994	 1.5818690311	 0.075344
C	 1.3072452198	 0.3259199341	 2.4742959585	-0.387739
C	 2.0475183171	-0.5824659193	 3.3449360789	 0.021015
C	 2.6354601	-1.3617763405	 4.0507099634	 0.096803
C	 3.3613197244	-2.2636020604	 4.9440288638	-0.192685
O	 2.9549643187	-2.1672917559	 6.3032682161	-0.402832
H	 1.2834124421	 1.6969291614	-0.0308442712	 0.127261
H	 0.3438523886	 1.2531841201	-1.4598913031	 0.133036
H	-0.4224260552	 2.1773195959	-0.1609635576	 0.123779
H	-1.1308396263	-0.2506456809	-0.0444278556	 0.089806
H	-0.3538265727	-1.0682685278	 2.1331704435	 0.099023
H	 2.0042100517	 0.9023448005	 1.8579667874	 0.137082
H	 0.7544512376	 1.0497719159	 3.0893240672	 0.13342
H	 3.1816799934	-3.3048003787	 4.6539930076	 0.14162
H	 4.443999146	-2.0885443566	 4.8372812543	 0.116879
H	 2.995483602	-1.2371538729	 6.5486113416	 0.285888
16.4025	36.5752	77.0433	127.0841	166.3659	204.9073	235.9861	307.3734	339.737	351.6868	424.8255	483.5294	499.3493	570.1344	764.5851	784.195	829.9694	898.7773	967.8102	987.2991	1000.984	1043.7011	1089.087	1095.2512	1155.5652	1174.8238	1178.4459	1214.623	1241.2358	1301.1106	1321.4698	1358.6844	1397.8107	1414.9558	1419.1764	1450.7859	1469.6789	1489.9685	1492.8344	1511.0062	2364.0221	2975.0505	3016.9458	3039.7537	3062.6248	3074.1765	3079.6971	3100.3294	3100.5146	3134.9854	3817.2785
CC1OC1CC#CCO	C[C@H]1O[C@H]1CC#CCO	
InChI=1S/C7H10O2/c1-6-7(9-6)4-2-3-5-8/h6-8H,4-5H2,1H3	InChI=1S/C7H10O2/c1-6-7(9-6)4-2-3-5-8/h6-8H,4-5H2,1H3/t6-,7+/m1/s1
