18
gdb 115326	2.92163	1.1963	0.94808	2.6043	67.9	-0.2437	-0.0408	0.2029	1229.3218	0.148204	-476.227051	-476.218326	-476.217382	-476.260814	32.562	
O	-0.1061056265	 1.509409344	-0.0281589814	-0.419624
C	 0.0433337201	 0.1115934883	-0.0488905852	-0.034174
C	-1.3240950142	-0.5684238721	 0.1729865015	-0.145707
N	-2.2908721805	-0.0751379495	-0.832230603	-0.320113
C	-2.429058915	-1.1266276595	-1.8658023024	-0.219269
C	-2.2900551782	-2.4530362369	-1.1005301046	 0.059713
O	-1.9074231479	-3.5647109328	-1.8541256585	-0.435675
C	-1.2472347815	-2.0754793983	-0.0491117927	 0.363461
O	-0.4461873311	-2.8550277919	 0.40514286	-0.334132
H	-0.8572403282	 1.6863593508	-0.6129441566	 0.284396
H	 0.4773129005	-0.2383447046	-1.0001653031	 0.089167
H	 0.7306503504	-0.1737452	 0.7519246776	 0.127783
H	-1.660264902	-0.3301512482	 1.187195277	 0.114407
H	-3.1905067754	 0.0923213702	-0.3979519508	 0.234596
H	-3.3769297939	-1.0185706217	-2.3948153872	 0.122032
H	-1.6200427726	-1.0472980396	-2.6010387614	 0.12838
H	-3.237657145	-2.6388985249	-0.558475471	 0.090346
H	-1.2338017691	-4.0239095631	-1.329453878	 0.294413
63.328	117.3048	153.8257	186.7325	270.3521	319.6717	364.2407	402.6644	455.5358	502.4148	530.2811	623.5028	656.5197	667.9127	806.3505	827.3396	858.3807	988.17	1000.1911	1032.6446	1047.5032	1076.7081	1104.5419	1116.5193	1178.094	1189.526	1225.2583	1253.0321	1273.2334	1299.5867	1344.6498	1378.4897	1384.4623	1409.861	1431.7365	1454.5904	1501.0138	1510.9292	1837.1319	2918.7481	2968.4322	3048.7425	3064.4873	3099.4683	3124.6656	3546.2679	3709.7688	3729.1728
OCC1NCC(O)C1=O	OC[C@H]1NC[C@@H](O)C1=O	
InChI=1S/C5H9NO3/c7-2-3-5(9)4(8)1-6-3/h3-4,6-8H,1-2H2	InChI=1S/C5H9NO3/c7-2-3-5(9)4(8)1-6-3/h3-4,6-8H,1-2H2/t3-,4-/m1/s1
