15
gdb 80757	4.44126	1.09983	1.08095	2.8484	61.5	-0.2445	-0.0452	0.1993	1111.7417	0.110797	-494.858892	-494.850936	-494.849991	-494.892125	28.874	
O	 0.5256422678	 1.041159276	-0.2993959248	-0.418632
C	 0.1408398949	-0.2188428138	 0.1165289551	 0.097596
C	-0.5585088449	-0.4448162628	 1.4548460074	-0.000608
O	-1.0433545037	 0.7121542784	 2.1034532925	-0.248571
C	-2.2241873332	 1.1044223857	 1.4349808604	 0.089335
O	-2.1603957115	 0.5733206203	 0.1138156357	-0.276988
C	-1.3304223353	-0.5765086982	 0.1741203717	-0.04262
C	-3.451039759	 0.5436933807	 2.1596922577	 0.166481
O	-4.3369690077	 1.2306481468	 2.590270594	-0.229271
H	-0.2796950918	 1.5181236234	-0.539569024	 0.301617
H	 0.8302717882	-0.9998400575	-0.1946028488	 0.115072
H	-0.305997528	-1.2667694852	 2.1146653593	 0.118748
H	-2.2824588495	 2.1952326453	 1.3859127519	 0.123079
H	-1.7700182031	-1.4811032409	-0.2299750036	 0.117724
H	-3.4511854833	-0.5647087881	 2.2598256955	 0.087038
70.2186	74.8716	175.7613	215.1591	313.7736	334.3671	399.9618	438.0635	567.9515	699.8008	741.0143	759.596	764.6601	788.6803	931.5078	943.1171	1008.7844	1048.7917	1055.0226	1082.4937	1090.0776	1098.4651	1112.9337	1149.7117	1205.4518	1270.2508	1306.5694	1333.8679	1350.0235	1366.3515	1417.1334	1434.893	1844.8612	2888.187	3091.8864	3144.3059	3171.5571	3181.6942	3762.2499
OC1C2OC(OC12)C=O	O[C@H]1[C@H]2O[C@@H](O[C@@H]12)C=O	
InChI=1S/C5H6O4/c6-1-2-8-4-3(7)5(4)9-2/h1-5,7H	InChI=1S/C5H6O4/c6-1-2-8-4-3(7)5(4)9-2/h1-5,7H/t2-,3-,4+,5-
