18
gdb 36257	5.24953	0.95598	0.92903	4.1376	80.51	-0.3	0.0378	0.3378	1280.5198	0.14891	-364.751647	-364.744258	-364.743314	-364.784086	28.692	
N	-0.0179393744	-1.159368034	-0.3354005122	-0.310725
C	-0.037715186	-0.0343296888	-0.0714428797	 0.261316
C	-0.0319275824	 1.3908630059	 0.2562808787	-0.376483
C	 1.3685439747	 2.0070527486	 0.1413778568	-0.007078
C	 1.9512751904	 2.3033145681	-1.2556597582	-0.038584
C	 1.1116224896	 3.6213742152	-1.427775382	-0.046975
C	 2.3603132052	 4.4560691795	-1.7716841696	-0.265146
C	 2.8443429153	 3.4654287923	-0.6965449962	-0.04111
C	 1.4929397536	 3.5445041507	 0.0953952154	-0.064694
H	-0.7347881477	 1.9028883596	-0.4103771353	 0.1484
H	-0.4170793554	 1.5129431212	 1.2757640455	 0.149813
H	 2.0589647763	 1.5059510548	 0.8291337561	 0.084747
H	 2.2250936847	 1.6037501398	-2.0462303965	 0.086227
H	 0.1062038901	 3.7020360428	-1.842871422	 0.075449
H	 2.7730624609	 4.3312389521	-2.7776033999	 0.09824
H	 2.3372587914	 5.5145099722	-1.4935208236	 0.095749
H	 3.8338434501	 3.348156693	-0.2524965838	 0.076745
H	 1.2386942236	 4.2780616169	 0.8627346062	 0.074109
58.3239	116.6461	217.8475	278.0388	394.2321	421.8336	454.542	580.4142	727.7059	750.9646	836.766	846.4814	850.5144	876.169	904.341	924.9596	954.7584	969.8346	992.3013	1012.8558	1028.8586	1061.4203	1071.5832	1128.5667	1140.0071	1148.8675	1159.5789	1175.0764	1191.9301	1212.8119	1237.7693	1252.8183	1283.3103	1316.2499	1323.2316	1404.2679	1463.8616	1511.1715	2360.1492	3039.5984	3040.6725	3045.5779	3081.0664	3093.2477	3098.326	3102.2871	3104.512	3117.6931
N#CCC1C2C3CC2C13	N#CC[C@H]1[C@H]2[C@@H]3C[C@H]2[C@H]13	
InChI=1S/C8H9N/c9-2-1-4-7-5-3-6(7)8(4)5/h4-8H,1,3H2	InChI=1S/C8H9N/c9-2-1-4-7-5-3-6(7)8(4)5/h4-8H,1,3H2/t4-,5-,6+,7-,8+
