19
gdb 90345	3.9189	1.19537	0.98884	2.0087	87.21	-0.2083	-0.011	0.1973	1215.0824	0.161249	-385.918736	-385.910848	-385.909904	-385.951629	30.792	
O	 0.0944289179	 1.4280934772	 0.0884193335	-0.429844
C	 0.0393221344	 0.0029831245	 0.0335168017	 0.105771
C	-1.424672253	-0.565922996	-0.0253649129	-0.398285
C	-1.4732817753	-1.3165356815	-1.3286477944	 0.325909
C	-2.3319464981	-2.0242516507	-2.0716975339	-0.250072
C	-1.664562058	-2.5499086625	-3.3296613653	-0.250007
C	-0.1891299147	-2.0327460803	-3.2426546823	-0.362512
C	-0.1542473391	-1.2602827542	-1.9483372274	 0.34193
C	 0.7138670371	-0.560973348	-1.2045651175	-0.322147
H	-0.166555884	 1.7522384594	-0.7812567756	 0.270803
H	 0.5414680869	-0.3102279833	 0.9559130858	 0.087667
H	-1.6344379095	-1.2192065385	 0.827906585	 0.11812
H	-2.1382073081	 0.2623520435	 0.026440246	 0.118782
H	-3.3733188751	-2.222360919	-1.8446362376	 0.092156
H	-1.7080310659	-3.6453253718	-3.3829363474	 0.108915
H	-2.1685474117	-2.1874664997	-4.2348237982	 0.108327
H	 0.5288969553	-2.8589004047	-3.2387708316	 0.121821
H	 0.0697368705	-1.4017241207	-4.0989085724	 0.119677
H	 1.7567999104	-0.3607780936	-1.4205393356	 0.092988
46.87	117.7618	214.0651	304.0549	332.8498	355.5686	432.7803	482.774	583.6729	652.503	673.6537	761.7735	796.6625	809.9243	830.4235	840.5262	878.3492	910.8936	943.8528	990.4769	1026.4424	1036.0441	1048.2041	1071.0441	1154.4714	1160.1252	1179.5582	1234.5913	1248.0573	1264.7457	1269.7137	1278.1924	1309.3894	1330.3065	1385.9895	1427.4867	1467.7882	1469.2742	1495.8349	1691.8448	1706.9217	3018.2318	3038.9142	3039.773	3052.0794	3052.7529	3085.1187	3089.0009	3196.3388	3201.3443	3791.0127
OC1CC2=CCCC2=C1	O[C@H]1CC2=CCCC2=C1	
InChI=1S/C8H10O/c9-8-4-6-2-1-3-7(6)5-8/h2,5,8-9H,1,3-4H2	InChI=1S/C8H10O/c9-8-4-6-2-1-3-7(6)5-8/h2,5,8-9H,1,3-4H2/t8-/m0/s1
