17
gdb 83784	2.89164	1.89901	1.68104	0.6621	65.54	-0.2386	0.0581	0.2967	860.5007	0.138373	-458.909925	-458.903422	-458.902478	-458.940488	26.997	
O	 0.0645008969	 1.4849026987	 0.0427620849	-0.452516
C	-0.0345352611	 0.0862493804	 0.014481975	 0.150165
C	 0.191007143	-0.6777241969	 1.3471766768	-0.00053
O	-0.3459999003	 0.0947989893	 2.4147351744	-0.28279
C	-1.7249892038	 0.4566989484	 2.2107958531	-0.09476
C	-2.3236197125	-0.4790808947	 1.1791421042	 0.066946
O	-2.0150839558	-1.8283563572	 1.6419626501	-0.292024
C	-0.8396516703	-1.7666807343	 0.8331554437	 0.112966
C	-1.3949890763	-0.6432883466	-0.0761512152	-0.157521
H	 0.1829953897	 1.7290484279	 0.968996293	 0.297248
H	 0.6144262535	-0.3006667652	-0.7814809368	 0.086685
H	 1.1965389058	-0.9735040505	 1.6473145048	 0.086134
H	-2.2333063279	 0.3344837541	 3.1723062802	 0.122587
H	-1.8079850586	 1.5029004062	 1.8892405377	 0.100995
H	-3.3923858139	-0.3238283809	 1.0160058587	 0.09035
H	-0.4513071294	-2.7359829206	 0.5195483971	 0.086495
H	-1.8972103791	-0.8046603782	-1.0287239817	 0.079567
189.0011	238.8122	276.7485	391.6718	431.3368	494.3468	562.7732	648.5602	665.3571	740.919	788.5535	805.9017	821.5584	847.3816	895.3904	952.1295	996.1924	1021.8896	1033.8613	1054.4888	1073.2744	1094.4074	1113.0569	1151.7775	1187.0504	1194.0966	1226.0001	1234.8058	1272.1038	1294.5158	1316.1071	1339.1344	1347.5696	1363.6841	1405.8436	1417.7821	1500.8843	3020.0613	3028.8102	3081.4621	3090.2457	3107.0786	3115.7213	3127.7149	3778.6823
OC1C2OCC3OC2C13	O[C@H]1[C@H]2OC[C@@H]3O[C@H]2[C@H]13	
InChI=1S/C6H8O3/c7-4-3-2-1-8-6(4)5(3)9-2/h2-7H,1H2	InChI=1S/C6H8O3/c7-4-3-2-1-8-6(4)5(3)9-2/h2-7H,1H2/t2-,3-,4+,5-,6+/m0/s1
