23
gdb 115347	2.94218	1.16063	0.96638	1.9413	81.74	-0.2545	0.068	0.3224	1334.6349	0.205726	-425.435451	-425.425517	-425.424573	-425.470572	36.974	
C	-0.230672301	 1.2445439944	 0.836925686	-0.251196
O	-0.2780007802	 0.4633832172	-0.3431388374	-0.258022
C	-1.2577417776	-0.5673221195	-0.317578475	 0.098119
C	-1.52190123	-1.0714758647	-1.7570060671	-0.245473
C	-1.5110264884	-2.6183164683	-1.6799837553	-0.210196
C	-1.5861707866	-2.9527983661	-0.173711644	 0.030102
C	-1.111565087	-4.3558349878	 0.1961946577	-0.408917
C	-0.7782074266	-1.8142903614	 0.4660098492	 0.104028
O	 0.6068826129	-2.0147711381	 0.2351009527	-0.455077
H	 0.5221374022	 2.0203009577	 0.6779621447	 0.130707
H	-1.200523538	 1.7234217285	 1.0349366244	 0.113948
H	 0.0515239215	 0.6517522575	 1.7180605167	 0.119305
H	-2.1793587129	-0.1787355202	 0.1394008933	 0.067186
H	-2.4736376915	-0.6837516367	-2.1297666187	 0.099754
H	-0.7407193607	-0.6855423426	-2.4163475905	 0.115158
H	-2.3275902478	-3.076154858	-2.2450076083	 0.089628
H	-0.5737774563	-3.0107023834	-2.0851162904	 0.109886
H	-2.6268081846	-2.8268243838	 0.160684758	 0.063173
H	-0.0538569938	-4.4759943772	-0.0526646924	 0.136374
H	-1.2306119691	-4.5493691355	 1.267746369	 0.107154
H	-1.6827810615	-5.1171572083	-0.3455294441	 0.106111
H	-0.9706275421	-1.7318675073	 1.5466700496	 0.05036
H	 0.9582930293	-1.1519916762	-0.0247263981	 0.287891
45.0545	93.9187	132.3312	175.3372	221.5819	238.0342	260.3073	308.3191	327.1606	418.0963	464.7933	485.9461	566.5792	609.4543	726.8565	813.1998	843.7858	864.7973	913.655	954.825	977.1236	1004.5527	1013.6645	1055.3886	1090.8848	1134.9855	1140.2427	1170.3185	1183.6465	1202.2686	1226.0417	1228.9661	1256.1167	1303.6191	1314.1313	1323.8528	1343.0845	1364.2669	1382.5754	1390.3857	1409.0439	1422.8552	1479.1324	1483.4035	1490.6323	1495.7372	1503.8263	1504.2676	1508.1054	2975.4646	2987.65	2992.6598	3004.6027	3033.9749	3044.5371	3054.9041	3066.5994	3092.4165	3094.7795	3113.7673	3117.6489	3121.0762	3736.1039
COC1CCC(C)C1O	CO[C@H]1CC[C@@H](C)[C@H]1O	
InChI=1S/C7H14O2/c1-5-3-4-6(9-2)7(5)8/h5-8H,3-4H2,1-2H3	InChI=1S/C7H14O2/c1-5-3-4-6(9-2)7(5)8/h5-8H,3-4H2,1-2H3/t5-,6+,7-/m1/s1
