16
gdb 5069	3.25124	1.96766	1.24341	2.0956	67.68	-0.179	0.0558	0.2348	940.1575	0.130384	-379.950418	-379.941571	-379.940627	-379.983798	31.639	
C	-0.0213882136	 1.4997150194	 0.0675150498	-0.537759
C	 0.0216081805	 0.0037768695	 0.0262442025	 0.11725
C	-0.0001354956	-0.8067258101	-1.0982660426	 0.174278
N	-0.0654748462	-0.5384035387	-2.4871343017	-0.613166
N	 0.0558778846	-2.1084665905	-0.6823828587	-0.251404
C	 0.1150854149	-2.1726902914	 0.6934214575	-0.183341
C	 0.0941906053	-0.8750306618	 1.1474745257	 0.241773
O	 0.1382128595	-0.5200833979	 2.4686075503	-0.451625
H	 0.8618048377	 1.9313149295	 0.5579720738	 0.120799
H	-0.0565392466	 1.9122261764	-0.9454413462	 0.112157
H	-0.9039801688	 1.880835715	 0.5992076821	 0.12121
H	 0.7286367488	 0.0062110412	-2.807828788	 0.241586
H	-0.9038007426	-0.0235944168	-2.7361003523	 0.241627
H	 0.0516009788	-2.8865242126	-1.3178033757	 0.257765
H	 0.165607308	-3.1062206556	 1.2263510923	 0.116262
H	 0.1087892151	 0.4395120843	 2.5226559113	 0.292588
60.7608	116.2873	169.6322	179.005	232.7762	265.3177	306.2036	323.5275	481.4844	524.5314	570.5303	627.6609	655.8316	705.9813	715.7448	770.2819	799.2118	937.1011	1060.6921	1078.9317	1127.3566	1180.1296	1204.5701	1229.1458	1304.2051	1350.9112	1411.6673	1453.064	1487.0188	1502.1483	1506.1965	1567.3137	1646.6355	1672.475	3001.8198	3041.2233	3094.9772	3282.3869	3496.8554	3560.0976	3690.8003	3839.3162
CC1=C(N)NC=C1O	Cc1c(N)[nH]cc1O	
InChI=1S/C5H8N2O/c1-3-4(8)2-7-5(3)6/h2,7-8H,6H2,1H3	InChI=1S/C5H8N2O/c1-3-4(8)2-7-5(3)6/h2,7-8H,6H2,1H3
