21
gdb 121010	3.20747	0.99803	0.80875	3.3152	85.4	-0.2332	-0.0435	0.1896	1471.9116	0.182617	-387.137928	-387.128661	-387.127716	-387.17291	34.089	
C	-0.1528441387	 1.6117398284	 0.0093115546	-0.382726
C	-0.0844702832	 0.082693068	-0.0117870528	-0.173839
C	 0.7466358097	-0.452467159	-1.1840591078	-0.177472
C	 0.8565380909	-1.9870825037	-1.2363797798	-0.108822
C	 1.4612350697	-2.5427988229	-2.5467429565	-0.298222
C	 2.5516183045	-3.4813584437	-2.0994069123	-0.04999
C	 2.7134629088	-3.4997337665	-0.771921541	-0.162487
C	 1.7509950981	-2.5793724916	-0.124711825	 0.37756
O	 1.6769888123	-2.331452487	 1.0589786617	-0.338627
H	 0.8452309432	 2.0513507147	 0.116729755	 0.113614
H	-0.588841373	 2.0065826572	-0.915897086	 0.107008
H	-0.7633857739	 1.9703287941	 0.843784408	 0.112248
H	 0.3351353479	-0.2928789253	 0.9252601638	 0.136312
H	-1.1006993436	-0.3291502723	-0.0809221181	 0.087321
H	 0.3043755371	-0.1057418574	-2.1280055501	 0.091261
H	 1.7574165136	-0.0223393151	-1.1476791622	 0.096393
H	-0.1452380017	-2.4107230526	-1.0862180989	 0.102226
H	 0.7221120076	-3.0568961157	-3.172720713	 0.118281
H	 1.8804693935	-1.7432577051	-3.1722411679	 0.120876
H	 3.1358811854	-4.0587339776	-2.8087901825	 0.114667
H	 3.4379835019	-4.0710544969	-0.2059009392	 0.11442
40.3723	83.8248	116.7545	169.3079	237.4566	245.4705	301.9072	341.3955	406.2542	482.4038	630.5675	674.2111	737.8193	759.6124	777.8477	807.542	879.389	902.5474	934.1486	962.1887	999.6072	1022.9971	1050.0231	1064.2834	1107.5477	1116.172	1136.4599	1178.1618	1194.9094	1236.3643	1274.6719	1291.6334	1324.4871	1334.3255	1349.8135	1365.5195	1396.7373	1412.7365	1474.4796	1486.3343	1496.2522	1499.6472	1513.8191	1652.975	1799.7674	3001.9519	3015.9422	3020.9599	3022.6042	3026.2418	3041.7111	3055.6183	3081.1442	3100.8255	3109.0747	3185.6595	3226.9193
CCCC1CC=CC1=O	CCC[C@H]1CC=CC1=O	
InChI=1S/C8H12O/c1-2-4-7-5-3-6-8(7)9/h3,6-7H,2,4-5H2,1H3	InChI=1S/C8H12O/c1-2-4-7-5-3-6-8(7)9/h3,6-7H,2,4-5H2,1H3/t7-/m0/s1
