19
gdb 120410	3.0474	0.96971	0.85399	2.5354	74.54	-0.2395	0.0251	0.2646	1413.9834	0.1583	-456.31674	-456.307006	-456.306062	-456.352051	34.678	
C	-0.1137433179	 1.3114223939	-0.006005095	-0.227312
O	-0.1393635117	-0.0911075121	-0.136543733	-0.246084
C	 0.8885340887	-0.5851972723	-0.9720917753	-0.0518
C	 0.7304055799	-2.0921939386	-1.0328979174	-0.033098
N	-0.5369723839	-2.5431095722	-1.6497863767	-0.326298
C	 0.0624187806	-2.9051043588	-2.8451279564	 0.340719
N	-0.2671728044	-3.1456484233	-4.0430255196	-0.560879
C	 1.4588376097	-2.7893182613	-2.234221372	 0.045227
O	 2.3728489589	-2.0201698632	-2.9700165729	-0.431244
H	 0.8287255997	 1.6609784064	 0.4431921188	 0.10905
H	-0.2363996719	 1.8140162021	-0.978285808	 0.106802
H	-0.9428763081	 1.5948140647	 0.646813781	 0.128185
H	 0.8160771931	-0.1518680506	-1.9811440853	 0.093652
H	 1.8832542618	-0.3263273412	-0.5748012622	 0.100614
H	 0.9013794248	-2.5324793645	-0.0462508858	 0.088361
H	-1.429487422	-2.0839994203	-1.5272199456	 0.246704
H	-1.2706194279	-3.0453050068	-4.2021967449	 0.213779
H	 1.8948937663	-3.7538543852	-1.9474190218	 0.101516
H	 2.0739181141	-2.0538625767	-3.887734958	 0.302106
53.8619	97.7609	111.0023	129.4366	205.9377	232.9469	257.4749	310.1307	353.4927	433.3824	496.9632	510.7477	561.6129	695.3345	782.4265	837.375	866.1308	895.0846	943.1218	996.8797	1053.3449	1091.0062	1112.5388	1150.5764	1166.313	1185.9205	1202.7253	1223.3025	1237.0362	1256.2303	1305.4639	1345.1361	1367.423	1376.3007	1392.3666	1430.1807	1480.5345	1485.7582	1501.1164	1518.9852	1796.7666	2969.7306	2980.8442	3012.72	3020.2334	3033.7604	3070.8953	3115.2371	3467.4589	3589.2189	3775.297
COCC1NC(=N)C1O	COC[C@H]1N[C]([NH])[C@H]1O	
InChI=1S/C5H10N2O2/c1-9-2-3-4(8)5(6)7-3/h3-4,8H,2H2,1H3,(H2,6,7)	InChI=1S/C5H10N2O2/c1-9-2-3-4(8)5(6)7-3/h3-4,8H,2H2,1H3,(H2,6,7)/t3-,4+/m1/s1
