18
gdb 78577	4.99103	1.04776	1.00041	4.3407	81.03	-0.3011	0.0279	0.3291	1220.5466	0.148441	-364.75593	-364.748373	-364.747429	-364.787935	29.52	
C	-0.1720137532	 1.624355316	-0.0958966246	-0.421976
C	-0.0504289575	 0.109755828	-0.0313787114	-0.005408
C	 1.1819402888	-0.588162871	-0.6532112577	-0.064229
C	 2.095647227	-0.2545858819	 0.5770168526	-0.045162
C	 2.5502112371	-1.7312453039	 0.7122302788	-0.192932
C	 2.9365723499	-2.2090807761	 2.0318946707	 0.264183
N	 3.2370591451	-2.5839751472	 3.0839471414	-0.333695
C	 1.0537472652	-1.810483672	 0.3165502192	-0.042858
C	 0.671201132	-0.551310784	 1.1661951418	-0.053344
H	 0.7702710916	 2.1204639068	 0.1583141411	 0.11665
H	-0.4614292599	 1.9521123173	-1.1002599264	 0.119588
H	-0.9364344894	 1.9847366993	 0.6008870386	 0.121835
H	-1.003214944	-0.3692194608	-0.289629686	 0.070444
H	 1.5048690097	-0.6315221481	-1.6952590192	 0.076666
H	 2.7052078176	 0.6344041142	 0.7319042422	 0.092381
H	 3.2623198041	-2.081906837	-0.0412755751	 0.114266
H	 0.4482792284	-2.7042799711	 0.1666195993	 0.089638
H	 0.4042600474	-0.5507242684	 2.2234814946	 0.093952
111.4786	145.0786	222.0321	234.3479	278.9678	397.0201	480.4049	535.5162	585.0393	739.9329	762.6815	839.1063	847.245	854.6504	860.4795	911.7281	916.0582	974.103	994.9517	1021.2343	1046.2816	1051.087	1100.0345	1111.6153	1129.9285	1144.4312	1156.7163	1175.8338	1184.3984	1213.3244	1245.9265	1270.8987	1310.8935	1359.451	1400.0737	1417.2041	1494.123	1500.6618	2350.4562	3027.8867	3032.0259	3065.3388	3094.6783	3095.5626	3103.0807	3111.346	3121.6027	3130.932
CC1C2C3C(C#N)C2C13	C[C@H]1[C@H]2[C@@H]3[C@@H](C#N)[C@H]2[C@H]13	
InChI=1S/C8H9N/c1-3-5-7-4(2-9)8(5)6(3)7/h3-8H,1H3	InChI=1S/C8H9N/c1-3-5-7-4(2-9)8(5)6(3)7/h3-8H,1H3/t3-,4-,5-,6+,7-,8+/m1/s1
