15
gdb 48800	2.79098	1.50793	1.15479	3.1517	66.89	-0.2569	-0.0486	0.2083	1043.7747	0.110112	-457.696001	-457.688209	-457.687265	-457.728635	28.694	
O	-0.2646084232	 0.2958165654	-0.7373657839	-0.253353
C	 0.022350507	 1.0764890742	 0.1347686686	 0.042789
C	 1.2682581301	 1.8780341852	 0.1648922274	 0.233687
O	 2.0952179135	 1.9989712199	-0.9975138736	-0.258255
C	 2.6917503824	 1.4158902998	 0.1454434929	-0.024803
C	 3.1380077533	 2.5495791009	 1.0863324824	-0.345268
C	 1.6674283068	 3.0249172567	 1.0909076225	 0.377515
C	 1.0405406874	 4.3257480843	 1.3009697225	-0.257803
O	 0.9674360687	 3.2786888933	 2.2911172705	-0.268365
H	-0.6290153884	 1.2481344234	 1.0172771699	 0.100664
H	 3.0662855727	 0.4027730228	 0.0572773951	 0.133712
H	 3.4338624968	 2.1996178041	 2.0783261498	 0.135111
H	 3.8950054723	 3.2225115343	 0.6784829105	 0.127242
H	 1.6551143214	 5.1791113036	 1.581076847	 0.129124
H	 0.1018253992	 4.5648932419	 0.8047713386	 0.128003
94.3292	124.6064	161.3512	227.5025	304.315	331.1279	427.1945	492.4899	530.9809	600.7954	742.7911	829.6323	845.4112	862.3952	876.9892	917.4768	947.2581	1009.3352	1037.4857	1062.5359	1086.6643	1121.8197	1149.2106	1165.9093	1208.7761	1237.4982	1259.1319	1396.7852	1423.1389	1440.8738	1469.0842	1537.8346	1814.2932	2916.2091	3072.6067	3092.9664	3134.5016	3183.4863	3196.9505
O=CC12OC1CC21CO1	O=C[C@]12O[C@H]1C[C@]12CO1	
InChI=1S/C6H6O3/c7-2-6-4(9-6)1-5(6)3-8-5/h2,4H,1,3H2	InChI=1S/C6H6O3/c7-2-6-4(9-6)1-5(6)3-8-5/h2,4H,1,3H2/t4-,5+,6-/m0/s1
