23
gdb 115976	2.51476	1.1552	0.83714	1.0341	89.03	-0.2297	0.0322	0.2619	1451.7955	0.205844	-388.309804	-388.300162	-388.299217	-388.344263	36.285	
C	 0.0307437611	 1.3631642584	 0.1790333465	-0.239164
O	-0.0208935537	-0.0091382249	-0.1306557536	-0.246238
C	-1.3162433256	-0.5861611281	-0.0686381283	 0.131105
C	-1.245218934	-1.9382029635	-0.7705746429	-0.217931
C	-2.6301658791	-2.5960071033	-0.829600465	-0.26549
C	-3.3681524505	-2.4880020366	 0.4785769554	-0.133007
C	-3.0139056416	-1.6785635464	 1.4798172832	 0.315446
C	-3.7715188245	-1.6232088875	 2.7789286659	-0.474577
C	-1.8145519672	-0.7595435935	 1.3742024344	-0.309157
H	 1.0525702562	 1.699198686	-0.0160279864	 0.124377
H	-0.6589331487	 1.9485063795	-0.4502661382	 0.10042
H	-0.2065186621	 1.5723079726	 1.2324962004	 0.104914
H	-2.0263512378	 0.0623714535	-0.6123754924	 0.060609
H	-0.8281902588	-1.8054796129	-1.7732888065	 0.098002
H	-0.5494074118	-2.5776634671	-0.2139123785	 0.104049
H	-3.231895996	-2.1392434898	-1.6301813146	 0.105473
H	-2.529187608	-3.6512957028	-1.1129429082	 0.102857
H	-4.2468105505	-3.1196667862	 0.5961213207	 0.073281
H	-4.6024753756	-2.3336460803	 2.7944788767	 0.118189
H	-3.1147581745	-1.8491889952	 3.6294344992	 0.1208
H	-4.1764680846	-0.6189549103	 2.960552466	 0.118892
H	-0.9845718778	-1.1515226772	 1.9808728423	 0.111838
H	-2.0693639649	 0.2140797558	 1.8123878439	 0.095311
80.8518	101.3076	153.8669	192.5179	195.3275	251.978	273.8894	328.329	394.5117	433.2563	459.6943	471.8183	508.2441	634.0693	800.0708	838.6818	859.7436	905.975	931.1958	951.6594	1002.9757	1025.3723	1049.0351	1079.2355	1093.8442	1131.981	1148.0533	1165.2174	1172.4777	1181.8006	1220.0045	1245.2337	1265.6875	1319.4453	1334.2873	1365.0254	1375.4014	1382.2717	1406.3879	1413.2939	1474.7275	1478.6368	1479.1944	1481.5776	1491.8905	1491.9408	1502.0882	1511.9452	1743.2981	2940.735	2972.5674	2992.4512	3000.7716	3012.106	3021.102	3030.8841	3038.3935	3045.1413	3056.3321	3088.6719	3107.0412	3108.9443	3140.5444
COC1CCC=C(C)C1	CO[C@H]1CCC=C(C)C1	
InChI=1S/C8H14O/c1-7-4-3-5-8(6-7)9-2/h4,8H,3,5-6H2,1-2H3	InChI=1S/C8H14O/c1-7-4-3-5-8(6-7)9-2/h4,8H,3,5-6H2,1-2H3/t8-/m0/s1
