15
gdb 44060	2.65348	1.8132	1.62257	4.2028	63.72	-0.2633	-0.0149	0.2484	886.37	0.112717	-457.705669	-457.6988	-457.697856	-457.736877	26.764	
O	-0.1179213436	 0.1853597365	-0.5992801449	-0.306281
C	 0.0002971259	 1.2645583753	-0.1292123099	 0.394219
O	-1.0021867821	 2.0505165229	 0.4620891116	-0.287868
C	-0.0537595129	 3.1266865631	 0.7125496373	 0.299749
C	 0.6635350498	 3.1724479623	 2.0881866217	-0.299408
C	 1.8931272093	 2.4270435949	 1.4295266205	-0.312064
C	 1.070321137	 2.3572448018	 0.1123571533	 0.196794
O	 1.2903517791	 3.3049512387	-0.9503195826	-0.323221
C	 0.1843933207	 4.1288967996	-0.4337476654	-0.152852
H	 0.871494606	 4.1708518347	 2.4764437668	 0.123669
H	 0.1377709589	 2.5963261789	 2.8503595994	 0.138279
H	 2.7792206852	 3.0526111443	 1.3134507636	 0.136802
H	 2.1814696783	 1.4722927815	 1.8710365645	 0.132956
H	-0.634004944	 4.2160300902	-1.1539469939	 0.135405
H	 0.5367013826	 5.1210291454	-0.1352742821	 0.123821
128.7937	183.3645	274.724	298.5586	355.493	402.9321	619.1951	657.4962	676.2799	714.2084	733.3474	759.1192	828.6578	872.3979	892.7792	908.4578	944.6133	994.4117	1030.2415	1118.3001	1136.4216	1175.7776	1203.8361	1221.222	1233.3767	1252.6569	1261.0293	1271.0063	1336.8603	1458.5783	1470.5693	1498.7748	1943.9888	3047.202	3083.8292	3087.1504	3108.8262	3138.6151	3153.8241
O=C1OC23CCC12OC3	O=C1O[C@@]23CC[C@@]12OC3	
InChI=1S/C6H6O3/c7-4-6-2-1-5(6,9-4)3-8-6/h1-3H2	InChI=1S/C6H6O3/c7-4-6-2-1-5(6,9-4)3-8-6/h1-3H2/t5-,6-/m1/s1
