20
gdb 93355	3.09719	1.34505	1.05035	3.2486	79.05	-0.2326	-0.0167	0.216	1176.7402	0.172501	-403.164195	-403.155915	-403.15497	-403.19712	32.256	
C	-0.1610242393	 1.5377138714	 0.0834184029	-0.403573
C	 0.0162210621	 0.0157293564	 0.0189055431	 0.023883
C	 0.6982285024	-0.4208925513	-1.2896000294	-0.221009
C	 0.9253811977	-1.9368140323	-1.3597463904	-0.324259
C	 1.5743111272	-2.5690735168	-0.132326501	 0.434205
O	 2.008383871	-3.69897901	-0.1474248601	-0.326768
C	 1.5691842589	-1.765453489	 1.1357118354	-0.158065
N	 2.2619958076	-0.446842876	 1.0725606446	-0.332994
C	 0.8062158534	-0.4861939203	 1.2175988307	-0.022589
H	 0.8129560739	 2.0380944579	 0.0666576799	 0.127698
H	-0.7439589153	 1.9026481526	-0.7681783724	 0.114408
H	-0.680482358	 1.8412876318	 0.9987288919	 0.108896
H	-0.9775112211	-0.454084852	 0.0680996028	 0.073788
H	 0.0843275445	-0.1051933733	-2.1401113442	 0.094352
H	 1.6567276351	 0.0993193778	-1.375091099	 0.126728
H	-0.0406786146	-2.453215955	-1.4634101003	 0.128446
H	 1.5104655116	-2.2233710246	-2.2385805346	 0.128249
H	 1.7090095056	-2.3648345895	 2.030625365	 0.100464
H	 2.7133546645	-0.2774728201	 1.9672579629	 0.241481
H	 0.3882330826	-0.2379933779	 2.1921822119	 0.08666
58.1178	174.6719	212.3874	233.9165	273.7118	332.1121	389.4322	416.2375	480.868	572.5381	593.8684	641.822	726.4742	784.5395	838.0081	886.3684	905.3029	916.0255	951.1946	960.9348	1028.1123	1043.5074	1088.7272	1106.5198	1121.3628	1153.5143	1168.4605	1229.2736	1238.1947	1257.1108	1271.0601	1329.4205	1349.2406	1364.5851	1381.421	1392.0071	1408.3422	1442.362	1448.4551	1488.1448	1497.0504	1503.4791	1804.1589	2995.9413	3010.8978	3030.2321	3045.726	3086.6647	3096.1033	3098.1485	3106.1102	3116.8232	3158.351	3510.9281
CC1CCC(=O)C2NC12	C[C@H]1CCC(=O)[C@H]2N[C@@H]12	
InChI=1S/C7H11NO/c1-4-2-3-5(9)7-6(4)8-7/h4,6-8H,2-3H2,1H3	InChI=1S/C7H11NO/c1-4-2-3-5(9)7-6(4)8-7/h4,6-8H,2-3H2,1H3/t4-,6-,7+/m0/s1
