16
gdb 79433	3.87601	1.23997	1.05942	0.7091	69.82	-0.2393	-0.0424	0.1969	1102.7446	0.123658	-437.782603	-437.775093	-437.774149	-437.814856	28.621	
O	 0.1633883675	 1.4489890515	-0.0820632508	-0.447508
C	 0.1191417153	 0.0556328473	-0.0757003426	 0.161032
C	 0.0591582171	-0.6697427163	 1.2764991315	-0.107563
N	-1.4285018241	-0.2450524138	 1.4625739053	-0.191918
C	-1.7923595422	-1.6933016956	 1.7868393538	-0.22664
C	-0.7279324371	-1.9092947535	 0.7173472693	 0.231113
C	-0.1880915071	-3.1729602686	 0.143641377	 0.023961
O	-0.560217652	-4.2686128451	 0.4858976079	-0.244868
C	-1.2523215902	-0.6340909985	-0.0359910325	-0.107568
H	-0.4817877536	 1.7517050535	 0.5708461243	 0.299486
H	 0.8426423584	-0.3077519504	-0.808512631	 0.098008
H	 0.7456614346	-0.6627738371	 2.1251113994	 0.100523
H	-1.554983678	-1.9834145813	 2.8139190834	 0.117352
H	-2.8266664779	-1.9488593001	 1.5412671018	 0.117349
H	 0.5968199763	-3.0477361097	-0.6374406302	 0.07672
H	-2.0996488172	-0.5854338524	-0.7223934867	 0.100521
84.8202	131.858	230.3975	250.3633	331.1253	389.9295	455.1813	497.9527	604.9257	688.2446	700.9896	827.9895	845.7099	852.1978	890.1048	905.2812	948.8493	1024.2908	1032.0098	1074.0966	1076.5995	1088.7555	1122.3075	1129.5067	1189.4842	1192.415	1205.4333	1251.9771	1286.4222	1300.3556	1332.9644	1425.1413	1455.0491	1522.778	1812.6696	2865.1182	3056.3273	3096.9862	3104.0496	3111.1069	3118.66	3768.9668
OC1C2N3CC2(C=O)C13	O[C@H]1[C@H]2N3C[C@@]2(C=O)[C@H]13	
InChI=1S/C6H7NO2/c8-2-6-1-7-4(6)3(9)5(6)7/h2-5,9H,1H2	InChI=1S/C6H7NO2/c8-2-6-1-7-4(6)3(9)5(6)7/h2-5,9H,1H2/t3-,4+,5-,6-
