15
gdb 44239	4.14849	1.24272	1.1472	2.4004	64.95	-0.278	-0.001	0.277	1050.1779	0.112529	-457.743394	-457.736331	-457.735386	-457.775264	26.94	
O	-0.4527038008	 0.3802729919	-0.5548812086	-0.31524
C	-0.1275625058	 1.419619965	-0.083019319	 0.452974
O	-0.9361069431	 2.3410296783	 0.5559219456	-0.252448
C	 0.1973058402	 3.2323732994	 0.8121395406	 0.001111
C	 1.1455742702	 2.2478074136	 0.0790126367	-0.231619
C	 1.3492430538	 3.2978362083	-1.0639305914	-0.342521
C	 0.3835128672	 4.2398840302	-0.323852544	 0.436211
C	-0.5422251319	 5.2642724021	-0.8001295502	-0.251803
O	 0.6659087959	 5.6044873477	-0.0987882826	-0.262418
H	 0.2531525518	 3.5458566284	 1.8528015362	 0.113821
H	 2.0165767046	 1.7615667356	 0.5103635754	 0.119849
H	 2.3645447494	 3.700170182	-1.0752678164	 0.139023
H	 1.0768270229	 2.977876779	-2.0712716138	 0.1333
H	-0.5530290017	 5.5237029953	-1.8573125836	 0.127229
H	-1.4675811827	 5.4511387132	-0.258572925	 0.13253
72.9419	176.1371	227.1615	329.3545	339.2375	450.7135	467.9712	567.8279	688.6515	769.4267	790.6856	857.2695	867.5215	891.5371	913.2429	931.2699	953.6973	991.8226	1047.7408	1091.6203	1118.9817	1138.7581	1146.3626	1160.2955	1191.6873	1230.7327	1239.081	1273.1342	1294.0102	1437.5951	1474.2609	1534.5706	1941.1736	3076.506	3091.6569	3133.2164	3144.6606	3159.0026	3182.8943
O=C1OC2C1CC21CO1	O=C1O[C@H]2[C@@H]1C[C@]12CO1	
InChI=1S/C6H6O3/c7-5-3-1-6(2-8-6)4(3)9-5/h3-4H,1-2H2	InChI=1S/C6H6O3/c7-5-3-1-6(2-8-6)4(3)9-5/h3-4H,1-2H2/t3-,4-,6+/m0/s1
