22
gdb 118257	2.62283	0.70244	0.57964	2.1677	84.28	-0.2465	0.0259	0.2724	1957.0305	0.190824	-441.480307	-441.468959	-441.468015	-441.518004	39.312	
C	-0.0602323078	 1.4258555215	-0.1095772676	-0.314617
N	 0.0383250735	-0.0155844678	-0.0196738537	-0.210447
C	-1.0375725394	-0.6658036006	 0.0166970456	 0.132196
O	-1.032119193	-2.0073028722	 0.1411458565	-0.215982
C	-2.2947070685	-2.6844077637	-0.0079325028	 0.107016
C	-2.5957550803	-2.9061601608	-1.4882315871	-0.393808
C	-2.1887974782	-3.9873466278	 0.7793863584	-0.205694
C	-1.9920382065	-3.7811056887	 2.2838956639	-0.073542
O	-1.9572754006	-5.0078603023	 2.996579642	-0.417697
H	 0.4743592083	 1.7767305686	-0.9997819002	 0.126765
H	-1.0952826267	 1.8036368779	-0.1572362794	 0.093831
H	 0.43124828	 1.8846690101	 0.7562030924	 0.127453
H	-2.0433975812	-0.2159018879	-0.0266549562	 0.07125
H	-3.0806011441	-2.0547380584	 0.4369128759	 0.082942
H	-3.5544520905	-3.4189199079	-1.6124983875	 0.121784
H	-2.6463197892	-1.9536883214	-2.0244160483	 0.121436
H	-1.8113799326	-3.514839855	-1.9479075034	 0.133572
H	-3.0981523483	-4.5765202671	 0.6184007653	 0.108676
H	-1.3507466572	-4.5696984799	 0.373968872	 0.102313
H	-1.0900399572	-3.1811941685	 2.4639146307	 0.113492
H	-2.8418053836	-3.2244677563	 2.6965184982	 0.106163
H	-1.1400910569	-5.4594576319	 2.7634275354	 0.282898
42.887	74.3444	82.4305	112.2182	165.4945	174.8371	205.0183	235.8958	291.8635	299.9951	320.3967	354.9602	399.3413	468.7016	544.391	584.1228	787.1672	876.6983	945.8968	974.209	986.1157	1014.3021	1056.7265	1077.831	1112.3049	1122.525	1140.4947	1143.5706	1157.4011	1209.885	1257.1437	1294.2593	1318.1146	1368.3507	1373.6569	1406.6215	1408.8361	1421.5931	1423.3695	1449.8057	1474.5145	1480.0431	1488.5736	1495.8116	1504.7834	1515.1292	1776.7344	2962.1184	2975.2859	2991.2197	3015.7305	3027.1215	3040.3851	3056.1074	3060.045	3075.5752	3086.7174	3113.2022	3120.2026	3818.9034
CN=COC(C)CCO	CN=CO[C@@H](C)CCO	
InChI=1S/C6H13NO2/c1-6(3-4-8)9-5-7-2/h5-6,8H,3-4H2,1-2H3	InChI=1S/C6H13NO2/c1-6(3-4-8)9-5-7-2/h5-6,8H,3-4H2,1-2H3/t6-/m0/s1
