17
gdb 47208	2.66935	1.75321	1.16137	4.0007	76.25	-0.2445	0.0058	0.2503	1045.5057	0.136945	-421.859317	-421.851606	-421.850662	-421.892093	29.354	
O	-0.0274153616	 0.1894189379	-0.7435151713	-0.346332
C	-0.0067479783	 1.2507863662	-0.1743437412	 0.392887
O	-1.1532388905	 1.7095227723	 0.3771169529	-0.250203
C	-1.2828476985	 2.950190604	 1.083493987	-0.113346
C	-0.036222348	 3.7640091186	 1.1942600731	-0.129606
C	 1.1167263344	 3.3633888306	 0.6722453298	-0.11159
C	 1.2321164822	 2.084565692	-0.0506387059	 0.12878
C	 2.5347756487	 1.2859594222	 0.0406101632	-0.286202
C	 2.1978883894	 1.9756097644	-1.2331156054	-0.286209
H	-2.0725546232	 3.5178997848	 0.5723154492	 0.130351
H	-1.673421256	 2.7012937986	 2.0798575571	 0.130344
H	-0.1271900666	 4.7049092166	 1.7277770432	 0.105185
H	 2.0144382371	 3.9692823481	 0.7626593321	 0.098899
H	 3.3103288799	 1.7012480213	 0.6746006026	 0.119629
H	 2.4221398074	 0.2094243005	 0.0753036152	 0.1489
H	 1.8573368472	 1.3661438115	-2.0609997081	 0.148891
H	 2.7350376764	 2.8789240203	-1.5003473934	 0.119622
50.6562	105.342	249.1103	276.5661	282.2595	410.4118	478.5991	502.4896	554.6316	640.1507	725.997	739.3304	788.7181	840.7852	883.7515	922.1684	937.7375	970.327	992.4251	994.3047	1029.6427	1066.7449	1082.6971	1094.6667	1167.8684	1204.8332	1208.6998	1257.6851	1282.6649	1351.5932	1431.305	1436.1207	1450.1196	1482.3641	1506.4755	1744.6598	1821.543	3006.7369	3028.4904	3141.7429	3143.202	3158.3249	3186.7411	3233.927	3247.3125
O=C1OCC=CC11CC1	O=C1OCC=CC21CC2	
InChI=1S/C7H8O2/c8-6-7(3-4-7)2-1-5-9-6/h1-2H,3-5H2	InChI=1S/C7H8O2/c8-6-7(3-4-7)2-1-5-9-6/h1-2H,3-5H2
