21
gdb 58269	3.16235	1.01971	0.91035	1.6476	74.77	-0.2449	0.0706	0.3155	1374.9158	0.181129	-461.341939	-461.332072	-461.331128	-461.377008	36.372	
C	 0.0422455602	 1.5325808642	-0.1046750281	-0.409817
C	 0.0160210919	 0.018703267	 0.0741178862	 0.10675
O	 0.6301077897	-0.3837317366	 1.2978559367	-0.430303
C	-1.4156094046	-0.5571368961	-0.0155969163	 0.07879
O	-2.0762523323	-0.1336469484	-1.1958769267	-0.439662
C	-1.4070462621	-2.0816866233	 0.0540170863	 0.13455
C	-2.7603115828	-2.821359925	-0.0033637164	-0.299361
C	-2.1799961781	-3.4988055617	-1.2579806312	-0.064939
O	-1.0186696239	-2.6329121383	-1.2413770442	-0.316859
H	 1.0703840523	 1.9029882907	-0.0714891053	 0.119517
H	-0.4153798896	 1.8153377754	-1.0547003844	 0.137137
H	-0.5270073218	 2.0242624208	 0.6958817413	 0.10095
H	 0.6184415919	-0.4551796753	-0.7112330298	 0.100361
H	 0.2516322074	 0.1533525288	 2.0030158603	 0.277725
H	-1.998314899	-0.1691842158	 0.8334913865	 0.072372
H	-1.7483772038	-0.7299536359	-1.8850420693	 0.287605
H	-0.728339914	-2.4182885662	 0.8438250005	 0.096935
H	-2.9970318802	-3.4702542512	 0.8404340639	 0.108793
H	-3.6001290817	-2.1567602398	-0.2118806378	 0.124028
H	-1.8920617514	-4.5487080866	-1.1239265988	 0.107381
H	-2.7501936582	-3.3997870666	-2.1878213735	 0.108048
73.375	78.5105	99.1481	170.7604	226.3856	255.9656	290.8917	301.0996	317.5649	423.9482	461.6392	482.3848	529.228	680.4358	725.2619	821.0641	854.9139	885.6339	940.5067	960.2309	976.2241	1008.1042	1027.921	1058.1854	1100.8502	1114.4816	1119.0728	1159.2674	1179.664	1220.0155	1234.2659	1255.6904	1265.5556	1307.1374	1318.8353	1359.5212	1361.0484	1391.0056	1400.4041	1418.0695	1437.5984	1483.7582	1489.2841	1496.2934	1528.8432	3001.4169	3020.0178	3022.6702	3041.9625	3067.3928	3069.7139	3085.11	3099.8315	3139.6763	3144.3146	3727.8164	3796.6469
CC(O)C(O)C1CCO1	C[C@@H](O)[C@@H](O)[C@H]1CCO1	
InChI=1S/C6H12O3/c1-4(7)6(8)5-2-3-9-5/h4-8H,2-3H2,1H3	InChI=1S/C6H12O3/c1-4(7)6(8)5-2-3-9-5/h4-8H,2-3H2,1H3/t4-,5-,6-/m1/s1
