16
gdb 35504	3.04032	1.50695	1.2621	4.3746	73.41	-0.2623	-0.0056	0.2567	1009.4776	0.126049	-400.751303	-400.744125	-400.743181	-400.783298	27.391	
N	-0.6168200744	-0.9037754955	-1.0567392323	-0.321743
C	-0.3805488985	 0.106799623	-0.5487116477	 0.28808
C	-0.0795010457	 1.4036549273	 0.0607867733	-0.010715
O	-0.0460852534	 1.3661947927	 1.4974954384	-0.29586
C	 1.2385921031	 2.0469300829	 1.5425029117	 0.123679
C	 2.3399976868	 1.2031933466	 2.1967374128	-0.274383
C	 2.9557123658	 0.4779033817	 1.0219359775	-0.056167
C	 2.4568718404	 0.8653155105	-0.1527750402	-0.075346
C	 1.3937086723	 1.9158661706	 0.0030871672	-0.147847
H	-0.8093711876	 2.1386177652	-0.3040215248	 0.121098
H	 1.1281042164	 3.0502776794	 1.9636353867	 0.086605
H	 3.0746731137	 1.8215037432	 2.728502904	 0.111495
H	 1.90047777	 0.522073735	 2.9348957763	 0.133701
H	 3.7264662144	-0.2745115259	 1.1463276169	 0.107841
H	 2.7505555783	 0.474786935	-1.1197149559	 0.114225
H	 1.5379641883	 2.8107153484	-0.6051758238	 0.095337
76.9663	131.2078	227.1669	282.3632	377.701	433.8204	523.4744	575.6335	677.7748	749.8429	765.5231	808.5353	864.1456	871.4232	929.0232	950.3369	976.4471	999.1131	1015.8242	1037.8356	1041.9268	1080.6557	1134.282	1181.066	1204.8911	1244.0309	1260.4417	1302.6359	1325.5904	1338.8177	1356.9612	1399.0057	1465.676	1677.1903	2357.6876	3018.603	3025.0605	3064.8032	3069.8755	3095.0647	3193.1316	3217.6904
N#CC1OC2CC=CC12	N#C[C@H]1O[C@H]2CC=C[C@@H]12	
InChI=1S/C7H7NO/c8-4-7-5-2-1-3-6(5)9-7/h1-2,5-7H,3H2	InChI=1S/C7H7NO/c8-4-7-5-2-1-3-6(5)9-7/h1-2,5-7H,3H2/t5-,6+,7-/m1/s1
