18
gdb 26287	3.62496	1.25857	0.94653	4.3836	83.85	-0.2083	-0.0278	0.1805	1222.4916	0.149671	-398.167952	-398.159464	-398.15852	-398.201494	30.739	
C	-0.0024603966	 1.4424721341	 0.0357243648	-0.341917
N	 0.0143265289	-0.0003852288	-0.1192452985	-0.145336
C	 1.2716957523	-0.7042181716	 0.053311629	-0.341917
C	-1.1696254049	-0.702422924	-0.0333885957	 0.293755
C	-1.2232135917	-2.1103637012	 0.0212376024	-0.061127
N	-2.3645808515	-2.7912268972	 0.0656924403	-0.247678
C	-3.4910058803	-2.0794740653	 0.0693037864	 0.047412
N	-3.5762394788	-0.7499018743	 0.0490457543	-0.247677
C	-2.4315799023	-0.074584904	 0.0046334477	-0.06113
H	 1.008362204	 1.8275332582	-0.1054899414	 0.129536
H	-0.6430456494	 1.9118618426	-0.7192762137	 0.139427
H	-0.3571226343	 1.7634835965	 1.027431528	 0.125409
H	 1.376430192	-1.157303233	 1.0513396609	 0.12541
H	 1.382344835	-1.5004149442	-0.6913578196	 0.139426
H	 2.0948905558	-0.003029235	-0.0904224604	 0.129535
H	-0.3141593902	-2.7034852493	 0.0312067257	 0.103622
H	-4.4248303732	-2.6335058251	 0.1004001638	 0.109631
H	-2.5168923149	 1.0075326914	 0.0009534458	 0.103622
77.1769	94.8101	140.5349	184.7646	262.193	269.5155	395.9891	440.4316	464.404	527.1308	574.0994	632.8229	752.6632	790.9964	900.375	949.4363	963.6123	968.4953	1034.01	1083.5657	1144.0645	1145.6727	1154.9691	1217.2192	1219.6226	1247.0413	1302.2096	1382.5321	1389.718	1450.7038	1469.937	1473.5009	1482.9512	1489.4149	1507.104	1515.0716	1532.6757	1574.646	1620.1979	2980.9057	2988.3318	3057.5334	3058.5345	3125.3503	3135.9494	3172.1341	3174.5586	3178.248
CN(C)C1=CN=CN=C1	CN(C)c1cncnc1	
InChI=1S/C6H9N3/c1-9(2)6-3-7-5-8-4-6/h3-5H,1-2H3	InChI=1S/C6H9N3/c1-9(2)6-3-7-5-8-4-6/h3-5H,1-2H3
