20
gdb 77947	2.53659	1.60551	1.13148	2.3735	80.5	-0.2221	0.0914	0.3135	1123.6139	0.17053	-403.046505	-403.038318	-403.037374	-403.078695	33.024	
C	 0.0973047673	 1.4065703237	-0.3309009218	-0.333956
N	 0.0626779431	-0.0174610538	-0.0136483896	-0.136974
C	-1.0332348094	-0.5416878216	 0.9127072583	-0.187379
C	-0.1025286812	-1.793689596	 1.0756223639	 0.215783
O	 0.1015251231	-2.6211683479	-0.0142900938	-0.456706
C	 0.7913719179	-0.5145442402	 1.2337049793	-0.187377
C	-0.3162658762	 0.0521326226	 2.1344542391	 0.458283
C	-0.4742238383	 1.3044275839	 2.9264869438	-0.360823
C	-0.5731940309	-0.0543439091	 3.603949419	-0.37023
H	 1.0695032491	 1.6391296482	-0.7785280568	 0.120193
H	-0.6700958971	 1.6132499723	-1.0845610604	 0.120193
H	-0.062253251	 2.081367323	 0.5190170348	 0.115415
H	-2.0885428394	-0.4992273811	 0.6366008002	 0.080183
H	-0.2509311629	-2.3971531858	 1.9702006676	 0.09321
H	 0.2222250729	-2.0013171654	-0.7527697251	 0.280306
H	 1.875864746	-0.4402496333	 1.334046502	 0.080183
H	 0.4056864581	 1.9073058079	 3.12842552	 0.117425
H	-1.3872372392	 1.8806357073	 2.813020926	 0.117425
H	-1.5521559731	-0.3836154266	 3.9373862755	 0.117422
H	 0.2423143412	-0.356933298	 4.2530657481	 0.117422
174.4603	174.5613	208.2256	229.4058	246.0213	315.8514	386.09	421.9116	483.5416	617.4172	639.9208	690.3989	755.1733	774.7384	782.2303	787.5987	860.9937	889.6285	921.2244	963.118	985.1214	1051.0212	1056.4613	1081.9407	1098.0376	1121.1862	1125.4173	1150.4221	1164.359	1170.2062	1184.3742	1186.9135	1220.6859	1226.9713	1255.0126	1311.6447	1413.256	1437.4936	1459.4422	1463.1184	1485.6765	1504.5089	1514.4052	3017.0111	3079.1624	3094.4264	3098.2284	3103.3435	3120.6949	3125.5805	3135.2638	3197.7037	3212.7276	3679.5751
CN1C2C(O)C1C21CC1	CN1[C@H]2[C@@H](O)[C@@H]1C12CC1	
InChI=1S/C7H11NO/c1-8-5-4(9)6(8)7(5)2-3-7/h4-6,9H,2-3H2,1H3	InChI=1S/C7H11NO/c1-8-5-4(9)6(8)7(5)2-3-7/h4-6,9H,2-3H2,1H3/t4-,5+,6-
