16
gdb 132353	1.79887	1.75938	0.89437	0.6253	75.91	-0.2224	0.0009	0.2233	1224.4809	0.123668	-445.928827	-445.92065	-445.919705	-445.962425	30.874	
C	-0.0552225176	 1.5279422898	-0.0086884487	-0.489349
C	-0.0009253971	 0.0197113862	 0.0017692368	 0.352815
C	 0.0486658921	-0.6854742341	-1.2076632709	-0.370225
C	 0.1039872401	-2.0672534864	-1.1745921968	 0.3451
F	 0.1511755963	-2.7456803567	-2.3278073697	-0.082743
C	 0.1119993981	-2.7888742296	 0.0119829855	-0.439952
C	 0.0618762028	-2.078924961	 1.2102994694	 0.436008
O	 0.0644859419	-2.6976629477	 2.4232145576	-0.440313
C	 0.005502387	-0.6826691777	 1.2039141979	-0.302963
H	 0.8495801928	 1.9523791371	-0.4583281347	 0.135114
H	-0.9050585687	 1.8893765077	-0.5977396887	 0.133657
H	-0.1483670384	 1.9314740246	 1.0023479273	 0.126129
H	 0.0442818183	-0.1746265562	-2.1633619558	 0.100182
H	 0.1553598504	-3.8723649997	-0.0155664531	 0.097597
H	 0.1050349646	-3.6507019879	 2.2929603198	 0.29916
H	-0.0331460027	-0.1624251184	 2.154099624	 0.099785
28.1137	194.366	235.0636	248.5973	283.7462	326.8642	368.8152	508.2659	517.447	527.421	563.9254	588.0093	624.3658	699.5561	817.7801	843.8109	872.0175	985.4828	993.7391	1010.9677	1053.0218	1059.262	1161.2281	1182.7825	1196.4344	1293.1326	1359.3157	1380.5914	1412.5369	1474.0764	1484.6632	1506.165	1530.1583	1638.518	1665.7137	3033.5464	3087.321	3120.6379	3186.2947	3197.1835	3199.3177	3823.8992
CC1=CC(F)=CC(O)=C1	Cc1cc(F)cc(O)c1	
InChI=1S/C7H7FO/c1-5-2-6(8)4-7(9)3-5/h2-4,9H,1H3	InChI=1S/C7H7FO/c1-5-2-6(8)4-7(9)3-5/h2-4,9H,1H3
