16
gdb 67651	3.3601	1.84594	1.62912	1.5815	66.16	-0.2023	0.0656	0.2679	850.8955	0.125948	-437.797696	-437.791384	-437.79044	-437.827998	26.397	
O	-0.0435480602	 1.4161004243	-0.098745573	-0.46393
C	 0.0426771993	 0.0453275341	-0.0415047345	 0.35488
C	-0.018323329	-0.8562785952	 1.1462151802	-0.010905
O	 1.0844521258	-1.7269737303	 1.2320611068	-0.259787
C	 1.4168757511	-2.0499686451	-0.1159613912	 0.061412
C	 0.3370948504	-2.9775965705	-0.7020923137	-0.18358
N	-0.4610886174	-1.7739760963	-1.141565446	-0.137107
C	-1.0362102602	-1.0324219466	 0.0096048336	-0.13281
C	 0.7777835683	-0.9045880925	-1.0013237556	-0.122136
H	 0.6014632767	 1.7909252394	 0.5113932243	 0.292392
H	-0.3763117901	-0.5064222874	 2.1069901257	 0.112997
H	 2.4751993528	-2.3128569749	-0.1673371922	 0.080392
H	 0.6624102746	-3.5327823658	-1.5871209953	 0.108319
H	-0.1582050989	-3.6505722362	 0.0019225452	 0.113172
H	-2.1078343804	-0.9795679968	 0.1700257056	 0.100855
H	 1.2643658472	-0.5528372402	-1.9095475898	 0.085838
209.2667	277.579	293.2285	370.1578	429.6738	563.5694	601.2572	642.3495	691.5291	738.1819	818.3589	842.6644	887.0064	898.4121	916.117	925.2073	942.0479	956.47	1010.6716	1045.3748	1065.4121	1088.0291	1099.3981	1150.6433	1173.7702	1199.8285	1206.1835	1224.0516	1248.4388	1274.9539	1296.814	1323.9367	1352.7825	1482.5258	1485.2164	3051.4461	3093.3427	3115.9314	3132.9291	3166.9773	3199.6641	3793.3103
OC12C3OC4CN(C13)C24	O[C@@]12[C@@H]3O[C@H]4CN([C@H]13)[C@@H]24	
InChI=1S/C6H7NO2/c8-6-3-2-1-7(3)4(6)5(6)9-2/h2-5,8H,1H2	InChI=1S/C6H7NO2/c8-6-3-2-1-7(3)4(6)5(6)9-2/h2-5,8H,1H2/t2-,3+,4-,5+,6+/m0/s1
