14
gdb 35021	2.92653	1.32798	1.10693	4.4041	72.53	-0.2607	-0.0207	0.24	1077.2817	0.102045	-395.699741	-395.692067	-395.691123	-395.73218	28.218	
N	 0.0655787509	-1.162298982	-0.0135948231	-0.330731
C	 0.0682637481	-0.0067381864	 0.008734584	 0.329902
C	 0.0393729471	 1.4315590827	 0.0496341917	-0.238083
C	 0.4372995298	 2.2321847572	 1.2764087473	-0.149546
C	 1.6238949793	 1.5845693025	 1.9959724005	-0.189447
N	 2.3830903985	 1.4852879035	 0.7009358924	-0.356201
C	 1.320541117	 2.2536118604	 0.0303648239	 0.249866
C	 1.5686906774	 3.2743975841	-0.9341249429	 0.194125
N	 1.7852519049	 4.1093992102	-1.7053878802	-0.330431
H	-0.7774116367	 1.8811945995	-0.5066063446	 0.160448
H	-0.2248261554	 2.9883953702	 1.6755113973	 0.136605
H	 2.0834124479	 2.2768410094	 2.7058762001	 0.130859
H	 1.4496133322	 0.6184818183	 2.4767177805	 0.144465
H	 3.2547683889	 2.0025989706	 0.7318902231	 0.248169
103.6228	139.9948	160.1234	198.0453	336.5663	370.0423	484.3484	511.0367	545.259	579.3937	682.1139	737.7693	795.4763	819.2481	881.1619	953.8039	969.7457	1005.042	1022.7053	1061.3774	1121.4494	1145.855	1204.3994	1221.7934	1289.6822	1318.9657	1355.6581	1449.7383	1506.3436	2349.3894	2362.9388	3061.8971	3116.6266	3171.3374	3212.1261	3547.3085
N#CC1C2CNC12C#N	N#C[C@H]1[C@H]2CN[C@@]12C#N	
InChI=1S/C6H5N3/c7-1-4-5-2-9-6(4,5)3-8/h4-5,9H,2H2	InChI=1S/C6H5N3/c7-1-4-5-2-9-6(4,5)3-8/h4-5,9H,2H2/t4-,5+,6-/m0/s1
