15
gdb 47117	3.31735	1.18028	0.89334	4.308	75.94	-0.2725	-0.0581	0.2144	1219.7201	0.113713	-416.839303	-416.831276	-416.830332	-416.873151	28.697	
N	-0.1918068811	 1.2800896235	-0.3159423851	-0.502571
C	-0.0307820703	 0.0849262867	 0.0622571718	 0.389006
C	-1.1823827961	-0.8938265088	-0.0253416618	-0.39045
C	-1.0562669907	-2.0536105212	 0.9335788173	 0.155531
C	 0.1435221115	-2.4258267164	 1.3873990987	-0.152159
C	 1.3788754006	-1.6896516133	 0.9878386344	-0.12335
O	 1.1671723449	-0.3490471148	 0.5464433895	-0.247785
C	-2.2437158892	-2.758234777	 1.2958625424	 0.221581
N	-3.2238905343	-3.3111719143	 1.5689323373	-0.323078
H	 0.6775751851	 1.8070658541	-0.2135867092	 0.224801
H	-2.1050076609	-0.3339623379	 0.13451141	 0.169986
H	-1.2363486282	-1.2801223785	-1.0525093286	 0.160604
H	 0.2629811469	-3.2823036804	 2.0416578117	 0.134327
H	 2.0700009605	-1.6177393313	 1.8346488134	 0.14397
H	 1.9062428114	-2.2448750204	 0.1959878282	 0.139586
44.4816	71.1028	154.3728	172.4872	374.2624	395.8772	430.3159	481.6018	560.8583	575.4365	583.9737	698.7604	808.1365	850.7837	904.4034	909.2113	959.114	989.1644	1030.3458	1061.6452	1152.8023	1183.4571	1215.6723	1254.9322	1299.3099	1313.1672	1367.0216	1429.4877	1462.2169	1497.3109	1717.153	1752.8102	2341.1022	2986.5634	3024.5645	3065.6029	3123.013	3199.7998	3471.9668
N=C1CC(=CCO1)C#N	[NH][C]1CC(=CCO1)C#N	
InChI=1S/C6H6N2O/c7-4-5-1-2-9-6(8)3-5/h1,8H,2-3H2	InChI=1S/C6H6N2O/c7-4-5-1-2-9-6(8)3-5/h1,8H,2-3H2
