18
gdb 81199	3.28068	1.4024	1.26655	2.7674	78.73	-0.2624	0.0083	0.2706	1060.8757	0.147607	-401.820613	-401.813143	-401.812199	-401.852266	30.135	
C	-0.0830982386	 1.5973395913	 0.0868239444	-0.451334
C	 0.0732549225	 0.0931670707	-0.050431665	 0.015992
C	 1.2408568407	-0.5575069134	-0.8305663342	-0.106126
C	 2.2233896495	-0.1935194563	 0.3954339181	-0.319821
C	 0.8908205163	-0.768645435	 0.9568408392	 0.37296
O	 0.1380961873	-1.5635350635	 1.9299495891	-0.3269
C	-0.1771938126	-2.4372851045	 0.8461282717	 0.358142
N	-1.017416256	-3.3614701579	 0.8011103575	-0.541171
C	 0.9623829966	-1.897506587	-0.0375839004	-0.136007
H	 0.8499711505	 2.117274297	 0.3170132821	 0.120016
H	-0.4770965205	 2.0234486295	-0.8421105913	 0.124083
H	-0.7982452406	 1.8315191599	 0.8823283118	 0.130738
H	-0.8910073576	-0.3666805585	-0.2903975366	 0.090745
H	 1.4893915603	-0.4328400376	-1.8852712683	 0.095295
H	 3.1050443385	-0.8270112202	 0.4992093054	 0.117776
H	 2.4632183619	 0.8592770816	 0.5447897223	 0.112757
H	-1.5203818259	-3.4519811092	 1.6863026704	 0.236135
H	 1.829973388	-2.5542327769	 0.0552998941	 0.106719
129.9224	169.3614	219.1837	291.5481	347.2167	436.3851	467.3591	526.9399	585.4569	613.9534	723.065	727.5755	781.9361	809.8313	854.0474	883.0801	899.1946	936.5905	963.6303	996.2625	1010.2934	1039.7076	1073.3426	1101.9494	1116.8569	1133.13	1146.129	1178.0212	1198.5414	1222.8528	1230.2933	1242.1324	1337.3375	1412.2109	1432.4079	1494.6077	1500.0192	1527.2425	1810.7733	3039.1159	3056.0723	3084.9255	3087.6327	3097.2622	3108.0439	3119.8856	3159.0333	3469.6476
CC1C2CC11OC(=N)C21	C[C@H]1[C@H]2C[C@]31O[C]([NH])[C@@H]23	
InChI=1S/C7H9NO/c1-3-4-2-7(3)5(4)6(8)9-7/h3-5,8H,2H2,1H3	InChI=1S/C7H9NO/c1-3-4-2-7(3)5(4)6(8)9-7/h3-5,8H,2H2,1H3/t3-,4+,5+,7+/m0/s1
