19
gdb 86259	1.81273	1.62726	1.16023	2.8544	77.87	-0.2498	0.0543	0.3041	1156.6961	0.155717	-422.975166	-422.965002	-422.964058	-423.00964	37.773	
C	-0.0679910963	 1.5304870014	 0.0022673168	-0.422503
C	-0.0181414537	-0.006136994	 0.0001162918	 0.070151
C	-1.3320669143	-0.5763726266	-0.2454507579	 0.261327
C	-2.4116710029	-1.0674229553	-0.4473194106	-0.459171
C	 1.1461030761	-0.5705404341	-0.8880760885	 0.108821
O	 1.5278008642	 0.2875671391	-1.9329000207	-0.423352
C	 2.0440673816	-0.6683384808	 0.3740581723	-0.332722
C	 0.7559175962	-0.5861965593	 1.2359274168	 0.108816
O	 0.7391799065	 0.2559382552	 2.3603181168	-0.423357
H	 0.9180693363	 1.9600486446	 0.1865059564	 0.122931
H	-0.4246493823	 1.8888660015	-0.9651136312	 0.131126
H	-0.7460061214	 1.8760025216	 0.7848155403	 0.131127
H	-3.368122197	-1.492159979	-0.6264208313	 0.188579
H	 0.878180934	-1.5650259793	-1.2661208969	 0.077696
H	 2.2010248757	-0.1548381153	-2.4587882768	 0.28693
H	 2.682614872	-1.5479894368	 0.484858149	 0.092352
H	 2.6415104306	 0.2392697981	 0.4905482733	 0.116619
H	 0.3737385125	-1.585253698	 1.4798899834	 0.077699
H	 1.1825741423	-0.1957465829	 3.0848145469	 0.286931
100.0716	121.9675	163.8674	181.8958	196.7306	201.0606	248.4947	249.1924	347.2546	382.456	475.388	499.8619	537.5642	559.2369	583.8233	618.2579	622.1382	710.6906	843.0023	890.0027	907.7564	962.9096	1050.0536	1062.4724	1117.0853	1120.839	1159.7196	1169.2757	1196.8064	1224.2636	1228.1068	1291.729	1297.0332	1335.7942	1407.9164	1413.3166	1442.8308	1483.7361	1487.5399	1493.0198	2229.7191	3018.0584	3024.2562	3062.8822	3065.7253	3126.3301	3143.6742	3144.6351	3501.8804	3824.6747	3825.0022
CC1(C#C)C(O)CC1O	C[C@@]1(C#C)[C@@H](O)C[C@H]1O	
InChI=1S/C7H10O2/c1-3-7(2)5(8)4-6(7)9/h1,5-6,8-9H,4H2,2H3	InChI=1S/C7H10O2/c1-3-7(2)5(8)4-6(7)9/h1,5-6,8-9H,4H2,2H3/t5-,6+,7+
