17
gdb 60503	3.1987	1.00082	0.88147	2.3463	75.42	-0.2618	-0.0639	0.1979	1333.3298	0.132361	-421.779638	-421.770005	-421.769061	-421.815259	33.903	
C	 0.0745485085	 1.2329327983	-0.2343893864	-0.410134
C	-0.0809734459	-0.2773412371	 0.0410844137	-0.136453
C	 0.5866386535	-0.6685634263	 1.3422494856	 0.100988
C	 1.3348675016	-1.9197315475	 1.489821119	-0.181803
O	 2.0154864943	-0.6725375075	 1.3165399897	-0.248935
C	-1.5536650063	-0.6725471761	 0.0519845534	 0.228688
O	-2.133615192	-1.043799822	 1.0500373326	-0.29426
C	-2.2413663816	-0.567958997	-1.2264905644	 0.259878
C	-2.7952541048	-0.4907487592	-2.2926443868	-0.392173
H	 1.1370465625	 1.4863291698	-0.2610214261	 0.146666
H	-0.3768069694	 1.5089456596	-1.190536421	 0.132127
H	-0.4017950208	 1.8235238086	 0.5548733855	 0.130327
H	 0.401874624	-0.8212305282	-0.7811975795	 0.105232
H	 0.1520896972	-0.2243872276	 2.2367658035	 0.108551
H	 1.4358722115	-2.3763852006	 2.4727282497	 0.121749
H	 1.4039917852	-2.6088385548	 0.6488926805	 0.113089
H	-3.3010075176	-0.4269932722	-3.225710449	 0.216465
31.737	66.8159	123.4474	182.3545	200.2227	231.5293	267.7654	273.8258	382.3079	459.0813	467.4555	611.5365	649.5933	705.1903	730.595	800.2303	818.2746	875.8431	939.248	970.7415	1048.7526	1068.8374	1095.3463	1109.6189	1157.4449	1168.5057	1197.378	1288.1886	1302.5986	1316.3174	1402.7021	1449.5921	1497.9343	1501.3412	1531.4905	1761.4659	2209.4342	3031.4322	3044.6292	3085.6598	3118.3309	3124.9463	3132.8697	3173.5253	3493.5206
CC(C1CO1)C(=O)C#C	C[C@@H]([C@H]1CO1)C(=O)C#C	
InChI=1S/C7H8O2/c1-3-6(8)5(2)7-4-9-7/h1,5,7H,4H2,2H3	InChI=1S/C7H8O2/c1-3-6(8)5(2)7-4-9-7/h1,5,7H,4H2,2H3/t5-,7-/m1/s1
