17
gdb 76116	3.20535	1.3233	1.12342	4.5906	73.1	-0.2481	0.0218	0.2699	1108.8855	0.135471	-417.984866	-417.976162	-417.975218	-418.01809	32.398	
C	-0.0915438313	 1.5153425761	 0.0512496947	-0.507798
C	 0.1517776077	 0.0440189373	-0.0077357679	 0.42657
O	-0.7547226721	-0.8316381994	 0.6909470976	-0.278289
C	 0.6397220975	-0.9392836763	 0.9759232977	-0.054362
C	 1.2588179352	-1.8375340341	-0.1070023918	-0.2415
C	 0.7742380937	-3.1996405682	-0.2054592274	 0.29454
N	 0.3689785591	-4.2752444609	-0.3341096774	-0.331652
C	 0.6807673181	-0.7803260392	-1.1944882914	-0.05045
N	-0.3116349204	-1.1395643953	-2.1601319195	-0.510984
H	 0.8051439513	 2.0680090942	-0.2462494593	 0.129003
H	-0.901238765	 1.7931904732	-0.6311357601	 0.149473
H	-0.3730486439	 1.8163677642	 1.0633572049	 0.139541
H	 0.9566826156	-0.8243506552	 2.0056984531	 0.120071
H	 2.3516858084	-1.8233131916	-0.0895576204	 0.121761
H	 1.5268376075	-0.2954505889	-1.6890295705	 0.098278
H	 0.0540191324	-1.7736240655	-2.8622738564	 0.242475
H	-1.0904369139	-1.6023174904	-1.700867006	 0.253323
90.7641	123.6126	180.1063	197.5953	229.7016	289.2103	341.3099	365.4567	422.5666	527.4326	565.2514	645.7458	701.2275	743.1983	769.8835	860.2206	868.7518	882.6892	917.6058	1017.6218	1023.0812	1047.7431	1086.2515	1106.5694	1150.229	1197.0356	1241.1116	1266.0588	1278.4753	1321.8181	1398.9722	1416.6699	1472.0826	1485.6162	1496.3666	1655.4701	2351.0288	3042.1174	3075.8313	3088.1695	3108.0372	3127.5251	3193.0803	3507.1994	3588.2662
CC12OC1C(C#N)C2N	C[C@]12O[C@H]1[C@@H](C#N)[C@H]2N	
InChI=1S/C6H8N2O/c1-6-4(8)3(2-7)5(6)9-6/h3-5H,8H2,1H3	InChI=1S/C6H8N2O/c1-6-4(8)3(2-7)5(6)9-6/h3-5H,8H2,1H3/t3-,4+,5-,6+/m0/s1
