19
gdb 66723	1.95256	1.81062	1.77538	1.2185	79.45	-0.2083	0.0678	0.2761	990.5881	0.156838	-385.786361	-385.777702	-385.776758	-385.818984	33.702	
C	-0.0594582346	 1.4763674437	 0.0847898906	-0.527795
C	 0.0111943959	-0.0130686666	 0.0073020332	 0.24371
C	 0.9024400812	-0.9760846203	-0.8387885498	-0.140419
C	-0.2035506996	-2.0185444236	-0.8370023924	-0.14707
C	 0.8487111114	-2.0245120154	 0.2637577484	-0.180765
C	-0.057102974	-1.0568321846	 1.1048633753	 0.271872
O	-0.1693548255	-0.8138422642	 2.4502332831	-0.453549
C	-1.1172215703	-1.0700769667	 0.0009609448	 0.198415
C	-2.5992298977	-0.8970622843	 0.0646861786	-0.532284
H	 0.9082101534	 1.9063326611	 0.3697662642	 0.123657
H	-0.3525303301	 1.919179131	-0.8745835433	 0.116924
H	-0.7899073172	 1.7905075271	 0.8373809287	 0.127639
H	 1.6810418734	-0.7879773204	-1.5678411763	 0.081919
H	-0.4343573478	-2.7879204585	-1.5636523342	 0.081283
H	 1.5728863898	-2.7863054071	 0.5226443851	 0.085529
H	-0.6833879653	-1.5256294467	 2.8499016258	 0.287249
H	-2.8682483091	-0.1496051031	 0.8189289405	 0.125595
H	-3.0132692616	-0.5640055366	-0.8946842456	 0.122358
H	-3.1046511423	-1.8332341549	 0.3338283234	 0.115732
145.4272	152.8318	182.9567	189.0592	214.4091	318.0551	333.4796	378.2154	401.1143	600.272	612.4592	681.2085	705.3584	752.8292	754.3281	787.629	794.8407	847.7187	869.8803	961.7939	967.1031	988.1812	1002.7482	1050.0491	1075.565	1095.7511	1140.9346	1174.2479	1184.6344	1204.8516	1271.744	1311.3789	1350.9622	1371.2876	1408.2127	1418.1259	1478.8246	1481.3898	1485.9873	1494.4116	1514.9444	3012.6564	3019.1193	3065.5799	3073.9757	3089.8954	3097.9327	3177.4887	3182.5217	3198.7936	3770.6544
CC12C3C4C3C1(O)C24C	C[C@@]12[C@@H]3[C@H]4[C@@H]3[C@]1(O)[C@@]24C	
InChI=1S/C8H10O/c1-6-3-4-5(3)8(6,9)7(4,6)2/h3-5,9H,1-2H3	InChI=1S/C8H10O/c1-6-3-4-5(3)8(6,9)7(4,6)2/h3-5,9H,1-2H3/t3-,4+,5-,6+,7-,8-
