20
gdb 102863	1.74572	1.04359	0.69978	2.8917	77.95	-0.2425	-0.0428	0.1996	1600.3765	0.166368	-440.281034	-440.270296	-440.269352	-440.318581	36.402	
C	-0.0755775123	 1.8684357393	 0.6297756243	-0.396087
C	 0.0050148552	 0.4210011512	 0.149306591	-0.123698
N	 0.8089358997	-0.4425637867	 1.023838514	-0.09564
C	 0.5093201252	-1.8514652549	 0.8115948795	-0.243266
C	-0.8505050113	-2.2234336214	 1.3854626999	 0.152125
O	-1.5660903414	-3.0798309253	 0.9391337044	-0.23361
C	 2.2371279352	-0.1716789032	 0.9714095655	-0.234442
C	 2.943914226	-0.6839026895	 2.2175346544	 0.149201
O	 4.0729814019	-1.0960142311	 2.2404573098	-0.233077
H	 0.8906713817	 2.380192632	 0.585413956	 0.124019
H	-0.7666091548	 2.4314734718	-0.004598465	 0.125149
H	-0.4366675399	 1.9105039423	 1.6612369673	 0.1293
H	-1.0086249101	 0.0046781019	 0.1294394503	 0.116765
H	 0.3695394122	 0.3842164087	-0.893991996	 0.092178
H	 0.5569206276	-2.1728297957	-0.2429310997	 0.115433
H	 1.2438076939	-2.4593540554	 1.3596150153	 0.138168
H	-1.1211322395	-1.6349943681	 2.2917526937	 0.086374
H	 2.7451800701	-0.5711978417	 0.0774095552	 0.113148
H	 2.3930628796	 0.9145249353	 0.969441122	 0.132142
H	 2.3149037907	-0.6227906894	 3.1350608081	 0.085818
52.9517	63.7335	72.8645	92.0394	104.5222	183.0637	227.2571	255.8243	266.1109	390.9113	424.2908	431.6366	509.216	560.5089	729.182	777.7572	807.6465	860.8684	988.2039	1042.0729	1049.959	1072.2203	1085.5102	1087.1243	1141.7847	1174.8982	1214.8499	1267.6876	1269.2967	1314.6103	1360.0635	1362.4914	1400.4295	1401.909	1406.1012	1422.4257	1463.4041	1468.89	1489.8972	1495.7151	1513.3147	1840.129	1841.7325	2876.9917	2880.0958	2936.5312	2964.7454	2971.1389	3029.9223	3042.5382	3052.5865	3056.0913	3109.5987	3121.9503
CCN(CC=O)CC=O	CCN(CC=O)CC=O	
InChI=1S/C6H11NO2/c1-2-7(3-5-8)4-6-9/h5-6H,2-4H2,1H3	InChI=1S/C6H11NO2/c1-2-7(3-5-8)4-6-9/h5-6H,2-4H2,1H3
