13
gdb 25792	4.37604	1.10829	0.88433	3.5596	63.79	-0.2342	-0.0478	0.1864	1198.2536	0.089447	-489.942953	-489.93486	-489.933916	-489.976134	29.119	
N	-0.1480026543	 1.2780627678	 0.0662410715	-0.5352
C	 0.027822188	-0.0715413378	 0.1368532634	 0.316972
O	 1.1059845459	-0.6192518541	 0.2232627807	-0.339152
C	-1.2464996515	-0.8474745961	 0.0984603309	 0.330914
N	-1.3899736485	-2.1391238085	 0.1482562024	-0.361535
C	-2.7458501091	-2.3391244487	 0.079388748	 0.332417
O	-3.2848845413	-3.5672632035	 0.103533692	-0.425844
C	-3.3882008083	-1.1415138606	-0.0111843246	-0.149753
O	-2.4164137648	-0.17362229	 0.0010128609	-0.183579
H	 0.6700464687	 1.8628610647	 0.0872887192	 0.27009
H	-1.0595442029	 1.6946668792	-0.0044200486	 0.273972
H	-2.5529003799	-4.1928461698	 0.175026174	 0.313747
H	-4.4110856019	-0.8221785328	-0.0848262098	 0.156949
60.9043	137.3229	165.3203	178.3557	346.9026	366.128	389.449	426.1754	526.9419	541.7216	648.6109	659.4912	677.7109	731.601	738.4059	799.6021	977.9197	1028.0217	1088.9473	1126.4362	1164.4178	1229.526	1308.0037	1371.2475	1411.5367	1575.9218	1614.0244	1687.8175	1805.1621	3314.0398	3612.8617	3751.4857	3800.488
NC(=O)C1=NC(O)=CO1	NC(=O)c1nc(O)co1	
InChI=1S/C4H4N2O3/c5-3(8)4-6-2(7)1-9-4/h1,7H,(H2,5,8)	InChI=1S/C4H4N2O3/c5-3(8)4-6-2(7)1-9-4/h1,7H,(H2,5,8)
