20
gdb 114563	2.54914	1.19777	0.95793	4.3447	84.66	-0.2664	0.0198	0.2862	1306.7034	0.171336	-366.010774	-366.001892	-366.000948	-366.044475	33.507	
C	 0.0326441502	 1.5503690894	-0.0702443897	-0.382989
C	 0.0117638673	 0.0364952385	 0.166435732	-0.201932
C	-1.3812167962	-0.5634375544	 0.0106351348	-0.036762
C	-2.0503052191	-0.637641434	-1.4076033298	-0.251959
C	-2.2418743757	-2.1482057237	-1.2380941638	-0.096716
C	-0.9264129936	-2.8247527917	-1.0349078351	-0.322068
C	-1.5441928724	-2.0962088135	 0.1415221293	 0.208369
C	-1.8881902553	-2.7702658961	 1.3492715999	 0.184069
N	-2.1701296269	-3.2952911138	 2.3425427599	-0.355321
H	 1.0421765771	 1.954377498	 0.0493787382	 0.118636
H	-0.3077154816	 1.8014916491	-1.0807633387	 0.118973
H	-0.6210318536	 2.0708392711	 0.6381931607	 0.119637
H	 0.7080409043	-0.4520722609	-0.5262612498	 0.096344
H	 0.3787334826	-0.1852131206	 1.1766589309	 0.111836
H	-2.0679559887	-0.0734652463	 0.7073942793	 0.092447
H	-2.9857573844	-0.0789846224	-1.4610016427	 0.116229
H	-1.419929515	-0.3469859667	-2.2543198449	 0.105279
H	-3.1355282185	-2.7049121466	-1.489375851	 0.114247
H	-0.9574662721	-3.906120596	-0.9599950189	 0.139434
H	-0.0235650385	-2.4309176096	-1.4933678906	 0.122247
85.8077	118.8161	157.8518	167.1516	214.1881	265.4615	360.3123	399.5265	439.903	518.3397	574.6637	614.1978	707.824	777.5738	814.2317	842.422	866.8538	922.8431	948.8564	973.2135	1005.2486	1031.6436	1041.9813	1078.9959	1091.1483	1128.4172	1145.3591	1180.2332	1212.2584	1239.745	1265.3709	1282.4886	1299.4234	1341.345	1369.9559	1403.6543	1413.9851	1480.9047	1483.9281	1498.9086	1500.5406	1507.2384	2339.9751	3023.8899	3032.9645	3050.7065	3052.4861	3067.5921	3099.7206	3107.7038	3120.8245	3122.4333	3198.9918	3217.7067
CCC1CC2CC12C#N	CC[C@H]1C[C@H]2C[C@@]12C#N	
InChI=1S/C8H11N/c1-2-6-3-7-4-8(6,7)5-9/h6-7H,2-4H2,1H3	InChI=1S/C8H11N/c1-2-6-3-7-4-8(6,7)5-9/h6-7H,2-4H2,1H3/t6-,7-,8+/m0/s1
