18
gdb 94601	3.23903	1.02939	0.84092	5.2788	68.94	-0.2328	0.0389	0.2717	1342.9106	0.14681	-476.232121	-476.222688	-476.221744	-476.26747	33.745	
N	 0.3771763824	 0.1377368135	 0.9779791065	-0.508032
C	-0.1402479885	 0.0894621401	-0.2835324634	 0.35454
O	 0.2456760759	 0.8006689115	-1.1909706622	-0.360829
C	-1.2906398408	-0.9085399111	-0.4534798619	-0.290875
C	-0.943270442	-2.3265700464	-0.0138298081	 0.092331
O	-0.6950434862	-2.4442797627	 1.4188099413	-0.295094
C	-1.8823757919	-3.2436633604	 1.6173609391	-0.105031
C	-2.1226861433	-3.3261727572	 0.0922860571	 0.047282
O	-3.335099628	-2.8258222516	-0.4079112027	-0.415221
H	 1.1928443655	 0.710531817	 1.1229040206	 0.252451
H	 0.1469895017	-0.5853862165	 1.6442965051	 0.269779
H	-2.1625995757	-0.5570247073	 0.1074551685	 0.1286
H	-1.5583633427	-0.9123183782	-1.5118143832	 0.135183
H	-0.0772518475	-2.6980914358	-0.5739646366	 0.094659
H	-1.6581131858	-4.1771854305	 2.144887275	 0.107508
H	-2.6711324736	-2.6958686703	 2.1474486116	 0.110701
H	-1.8852663807	-4.3084237309	-0.331948857	 0.08725
H	-3.9772140387	-3.5406419232	-0.4425394597	 0.294797
44.9092	79.5328	91.5412	153.3292	179.6574	235.2946	345.0928	403.9174	421.3045	461.6656	506.6697	579.7772	609.636	723.4939	744.0487	851.9971	866.1212	907.7536	913.2667	998.6036	1016.9901	1062.4124	1095.2335	1135.3504	1151.7083	1173.8127	1189.9253	1226.3473	1273.3948	1299.4322	1306.6908	1346.5293	1362.655	1388.5561	1440.4166	1460.0496	1514.3121	1619.5917	1802.7777	3021.7355	3029.0362	3044.6128	3065.3028	3079.1192	3128.7577	3552.6916	3702.2713	3834.9331
NC(=O)CC1OCC1O	NC(=O)C[C@H]1OC[C@H]1O	
InChI=1S/C5H9NO3/c6-5(8)1-4-3(7)2-9-4/h3-4,7H,1-2H2,(H2,6,8)	InChI=1S/C5H9NO3/c6-5(8)1-4-3(7)2-9-4/h3-4,7H,1-2H2,(H2,6,8)/t3-,4-/m1/s1
