20
gdb 93148	2.54304	1.54282	1.04899	2.3293	81.41	-0.2382	-0.0057	0.2326	1174.1865	0.171741	-403.14764	-403.139114	-403.13817	-403.180532	32.888	
C	 0.1215927087	 1.5895292964	 0.1126515678	-0.39062
C	-0.05596342	 0.0820642175	-0.0297994847	 0.127298
C	 0.5331491992	-0.4432363052	-1.3578580282	-0.247608
C	 0.1087134613	-1.8378872414	-1.7549781548	-0.062831
C	 0.4060181203	-2.9665384411	-1.1104791422	-0.041476
C	 1.2142966819	-3.0366590539	 0.1639465942	-0.213714
N	 0.3556512408	-2.8337934384	 1.3417732841	-0.206257
C	 0.1055916524	-1.6445872643	 1.6748819891	 0.096156
O	 0.6169739241	-0.5073579622	 1.1064751926	-0.251055
H	 1.1830439163	 1.8531285744	 0.0669803457	 0.128116
H	-0.401722328	 2.1181477105	-0.6894524241	 0.1168
H	-0.273595211	 1.9302617839	 1.0727563928	 0.124279
H	-1.1214658782	-0.173887277	 0.0235630588	 0.088775
H	 0.2402225936	 0.2554780785	-2.1484484888	 0.101803
H	 1.6249846359	-0.3724008651	-1.2728165337	 0.121944
H	-0.5152025062	-1.9076024575	-2.6433488973	 0.089252
H	 0.0116087622	-3.906621304	-1.4873551223	 0.094178
H	 1.6714295984	-4.0248040437	 0.261764235	 0.103411
H	 2.0162588209	-2.2875161836	 0.1385444922	 0.111536
H	-0.5259693427	-1.449928214	 2.5445591838	 0.110013
104.4776	135.9497	201.4262	235.1983	260.5506	276.1617	341.6917	420.9343	469.5345	479.0256	537.0411	643.1075	721.7436	744.0253	828.8437	882.0578	910.5143	931.0155	970.5026	973.0275	1000.7269	1010.5398	1053.2058	1101.6547	1119.2706	1123.9515	1147.9787	1231.4819	1258.3001	1282.57	1314.6121	1348.0401	1370.5712	1372.782	1403.0564	1410.3508	1417.8744	1470.5466	1486.2018	1497.2435	1504.763	1719.6254	1729.5184	3019.8843	3023.0554	3033.2357	3043.5273	3075.8112	3084.8425	3109.7812	3116.9797	3125.9044	3141.5165	3169.3607
CC1CC=CCN=CO1	C[C@H]1CC=CCN=CO1	
InChI=1S/C7H11NO/c1-7-4-2-3-5-8-6-9-7/h2-3,6-7H,4-5H2,1H3/b3-2-,8-6-	InChI=1S/C7H11NO/c1-7-4-2-3-5-8-6-9-7/h2-3,6-7H,4-5H2,1H3/b3-2-,8-6-/t7-/m0/s1
