21
gdb 62622	2.24268	1.84413	1.57084	1.1335	81.48	-0.2437	0.0738	0.3174	1005.0213	0.181319	-387.047165	-387.038498	-387.037554	-387.07942	35.105	
C	-0.0226643113	 1.5705845162	 0.0213862025	-0.465223
C	 0.0752174204	 0.0507458956	 0.0254266154	 0.397678
O	-1.2194911964	-0.5164543371	-0.1657719816	-0.486137
C	 1.1261457346	-0.6568037798	-0.8319702995	-0.131631
C	 2.4124055732	-0.774678001	 0.0007981049	-0.076785
C	 2.145441789	-0.1357254818	 1.3612210207	-0.291744
C	 0.7074969536	-0.7164773618	 1.2393804154	 0.289586
C	-0.1273533127	-1.0233740727	 2.4536630266	-0.512829
C	 1.2842353889	-1.7580137111	 0.1818201772	-0.124571
H	 0.9515507314	 2.0488884955	 0.1462892012	 0.120542
H	-0.4346563577	 1.9171226348	-0.9349373594	 0.101078
H	-0.6925816673	 1.9158849466	 0.8153372179	 0.12216
H	-1.5242736636	-0.2670005423	-1.0442463252	 0.273257
H	 1.1481247748	-0.740185621	-1.9128013878	 0.073364
H	 3.3666712208	-0.941449303	-0.4834222359	 0.082365
H	 2.7040099722	-0.650029824	 2.1496513215	 0.094984
H	 2.2594008548	 0.9466157304	 1.4900402462	 0.084409
H	-0.3390871498	-0.1098717136	 3.0226655977	 0.113282
H	-1.0826493017	-1.4689779635	 2.165016801	 0.138923
H	 0.3931729694	-1.7160784227	 3.1236057868	 0.110434
H	 1.2296726675	-2.8326611638	 0.0929776645	 0.086857
167.1955	191.0007	212.2532	243.6274	260.5195	276.262	304.6232	393.8715	424.5582	474.4031	545.2783	629.0094	640.822	739.5848	788.9345	794.8481	811.376	881.5223	898.9462	935.3164	947.9824	976.8982	995.1233	1015.8902	1025.6224	1045.3645	1095.7559	1119.9955	1134.4239	1159.3948	1180.9024	1199.6204	1205.6641	1235.1301	1298.9137	1324.5881	1346.3507	1387.1193	1402.437	1410.6272	1483.2938	1489.3249	1490.2519	1496.6066	1516.5288	3025.8522	3026.4843	3032.7463	3082.2266	3085.8794	3090.1197	3119.6748	3127.1232	3173.7861	3189.5775	3228.858	3809.8537
CC1(O)C2C3CC1(C)C23	C[C@@]1(O)[C@H]2[C@H]3C[C@]1(C)[C@@H]23	
InChI=1S/C8H12O/c1-7-3-4-5(7)6(4)8(7,2)9/h4-6,9H,3H2,1-2H3	InChI=1S/C8H12O/c1-7-3-4-5(7)6(4)8(7,2)9/h4-6,9H,3H2,1-2H3/t4-,5+,6-,7+,8+/m0/s1
