16
gdb 30077	3.14041	1.42832	1.0775	2.5053	73.25	-0.2144	-0.0016	0.2128	1092.5117	0.12612	-434.128186	-434.119877	-434.118933	-434.161762	29.646	
C	-0.7748633934	 0.9584777842	 0.6488581521	-0.339664
N	-0.2069241834	-0.3054984481	 0.2077139237	-0.027096
C	-0.2340320151	-0.8005967021	-1.0826524241	-0.124331
C	 0.4899776974	-1.9605482253	-1.0596634385	-0.097582
N	 0.9551215306	-2.2114937763	 0.2091670269	-0.32536
C	 0.5118238824	-1.2089920661	 0.9332493329	 0.416695
N	 0.8261702457	-1.0557932076	 2.2914034883	-0.38865
C	-0.0680876572	-0.8382071025	 3.3095324198	 0.136559
O	-1.2364227092	-0.5545045611	 3.1759743957	-0.305358
H	-0.0298936939	 1.522976074	 1.2165551344	 0.140902
H	-1.0534193925	 1.5370645084	-0.2329248941	 0.135594
H	-1.6433061545	 0.7923487316	 1.2868216917	 0.179544
H	-0.7623565392	-0.2821461181	-1.8654578449	 0.12766
H	 0.6988698657	-2.6323874232	-1.8776442679	 0.110673
H	 1.708682634	-1.4760333865	 2.5471138289	 0.27029
H	 0.4259898126	-0.9276153114	 4.2957019554	 0.090123
70.8477	74.9567	163.7292	207.0065	213.6101	300.0673	352.3046	477.108	572.9108	623.7572	637.3151	698.3929	722.1478	737.1628	844.2559	884.5919	932.5565	1023.357	1062.6396	1106.6669	1142.5378	1155.5241	1178.7175	1263.3787	1315.3888	1380.3994	1425.2828	1435.5191	1459.9901	1477.3361	1508.7328	1517.5324	1553.0329	1588.0392	1810.1172	2956.3773	3057.9893	3130.896	3158.7992	3252.0108	3279.2077	3607.9153
CN1C=CN=C1NC=O	Cn1ccnc1NC=O	
InChI=1S/C5H7N3O/c1-8-3-2-6-5(8)7-4-9/h2-4H,1H3,(H,6,7,9)	InChI=1S/C5H7N3O/c1-8-3-2-6-5(8)7-4-9/h2-4H,1H3,(H,6,7,9)
