18
gdb 59841	4.93569	0.53862	0.51092	4.5245	81.75	-0.2624	0.0216	0.284	2117.0716	0.144917	-401.9343	-401.923768	-401.922824	-401.972296	36.238	
C	-0.0963648019	 1.5513134243	-0.1164950387	-0.405508
C	-0.0841031414	 0.0229862474	-0.1383875008	 0.14667
O	 1.0180182746	-0.5045846298	 0.5821300997	-0.420507
C	-1.4253997629	-0.5559969998	 0.3717490976	-0.37687
C	-1.489264984	-2.0098891393	 0.3099121989	 0.073896
C	-1.5364641136	-3.2090717222	 0.2408604349	 0.119674
C	-1.5811675178	-4.6667445008	 0.164699711	-0.473917
C	-2.6158162413	-5.1663122961	-0.7518149399	 0.278121
N	-3.4256106088	-5.5708480099	-1.468523582	-0.303023
H	 0.8649037539	 1.9373580929	-0.4645890251	 0.130417
H	-0.8867687635	 1.9549857055	-0.7572833466	 0.121148
H	-0.2672059774	 1.9250054596	 0.9012081825	 0.108644
H	 0.0675392988	-0.3257701284	-1.1658031238	 0.1052
H	 0.9639369441	-0.1802780401	 1.4883236454	 0.27776
H	-1.5840358527	-0.2187204724	 1.4063819187	 0.119479
H	-2.2473252288	-0.1277485561	-0.2161950503	 0.136685
H	-0.6125721559	-5.0641547236	-0.1654670589	 0.18309
H	-1.7664712315	-5.1012217613	 1.1556875075	 0.179041
11.8501	51.6789	87.795	100.5271	237.8349	241.4783	268.078	285.6225	321.0417	371.2263	390.1113	397.4631	456.7266	505.3353	582.921	800.3759	836.7427	894.628	924.2044	936.117	945.2021	1062.5619	1090.5759	1147.5644	1167.0493	1202.203	1234.1415	1306.3444	1331.8445	1338.6028	1372.1347	1404.2142	1424.8698	1448.1754	1461.8176	1491.5868	1495.7821	2369.6487	2384.4356	3004.8418	3024.3367	3024.9068	3046.2419	3053.8615	3060.5492	3097.2216	3124.1573	3794.4963
CC(O)CC#CCC#N	C[C@@H](O)CC#CCC#N	
InChI=1S/C7H9NO/c1-7(9)5-3-2-4-6-8/h7,9H,4-5H2,1H3	InChI=1S/C7H9NO/c1-7(9)5-3-2-4-6-8/h7,9H,4-5H2,1H3/t7-/m1/s1
