17
gdb 13093	3.86576	1.3089	1.12904	2.6861	66.05	-0.2538	0.0203	0.2742	1072.5018	0.141728	-401.006389	-400.997976	-400.997031	-401.040756	29.359	
C	-0.3468721677	 1.4106068481	 0.1509542142	-0.400654
C	 0.0829350636	-0.0399450818	 0.0592850333	 0.138516
O	 1.1450111894	-0.2475911098	-0.9060376001	-0.289214
C	 2.0529524624	-0.732668715	 0.0984421686	-0.097201
C	 0.972684895	-0.6328648411	 1.1956796588	-0.027663
N	 1.2723092449	 0.1713485856	 2.3506720778	-0.281497
C	 0.9389241505	-0.1947101724	 3.6224000407	 0.153029
O	 0.3609668149	-1.2142844202	 3.927998289	-0.315481
H	 0.4968116843	 2.0690476535	 0.3814513097	 0.104815
H	-0.7678592911	 1.7313860005	-0.8064672355	 0.134848
H	-1.1115597704	 1.5387262851	 0.92402053	 0.126549
H	-0.7807955552	-0.6730206799	-0.1814084705	 0.085753
H	 2.423648549	-1.7402429305	-0.1226163026	 0.114393
H	 2.9138894493	-0.0637425697	 0.240462469	 0.093489
H	 0.6133586116	-1.5894674272	 1.5715549789	 0.132105
H	 1.7468782871	 1.0515441276	 2.2242705177	 0.249867
H	 1.2678260824	 0.5606163572	 4.3630937609	 0.078347
28.3931	58.7587	168.5854	204.4322	228.8962	259.3318	379.6581	403.3234	522.9465	533.8446	709.8691	769.4169	858.8683	881.5253	921.079	1006.2206	1023.3052	1031.6129	1065.808	1094.0058	1138.3953	1147.4224	1160.6999	1232.1881	1265.4443	1285.4921	1348.622	1372.3451	1382.1982	1407.1526	1432.4995	1481.3617	1494.1071	1525.2224	1535.5967	1809.6723	2940.0129	2997.5941	3020.4214	3036.9075	3055.4135	3108.8841	3115.673	3138.9	3629.2943
CC1OCC1NC=O	C[C@H]1OC[C@H]1NC=O	
InChI=1S/C5H9NO2/c1-4-5(2-8-4)6-3-7/h3-5H,2H2,1H3,(H,6,7)	InChI=1S/C5H9NO2/c1-4-5(2-8-4)6-3-7/h3-5H,2H2,1H3,(H,6,7)/t4-,5-/m1/s1
