21
gdb 118300	4.78584	0.56883	0.52533	2.8938	77.69	-0.2564	-0.0276	0.2288	2074.4684	0.177527	-461.348192	-461.33683	-461.335886	-461.386698	37.82	
C	-0.5871922327	 1.5559563465	-0.6619184615	-0.226021
O	-0.7557368545	 0.1610119793	-0.7511059149	-0.234737
C	-0.4498641788	-0.5079786024	 0.4498407168	-0.070419
C	-0.6502083092	-2.0060602537	 0.2271983586	 0.122266
C	 0.2912858984	-2.5627627057	-0.8386828281	-0.404408
O	-0.4476855899	-2.5994666077	 1.5054134037	-0.266859
C	-0.9010900127	-3.920968816	 1.6356922144	-0.151928
C	-0.8464618173	-4.2935296476	 3.1080880487	 0.141575
O	-1.0792021522	-5.3959030202	 3.5264796824	-0.237888
H	-0.8485608436	 1.9797894436	-1.6344050308	 0.128901
H	-1.2412335545	 1.9971565506	 0.106413601	 0.106993
H	 0.4531850403	 1.8266029217	-0.4226346025	 0.106936
H	 0.5921069994	-0.31605836	 0.757475358	 0.093115
H	-1.1044447422	-0.1735489156	 1.2701017633	 0.093615
H	-1.694798749	-2.165555717	-0.0867130134	 0.079142
H	 0.0834950107	-3.6140666439	-1.0571327107	 0.115682
H	 0.1713294513	-1.9910662397	-1.7618290626	 0.14133
H	 1.3306513656	-2.4762728352	-0.5047602329	 0.120828
H	-1.9440072808	-4.0318209394	 1.2902303814	 0.120634
H	-0.2958783555	-4.6443999346	 1.068463426	 0.126857
H	-0.5762227828	-3.4420026931	 3.770974983	 0.094384
44.6355	54.9927	74.4523	85.1642	98.6944	129.0707	211.1845	226.7882	247.6543	302.7952	327.9843	384.3689	461.4829	542.9654	575.2441	743.5863	858.1885	934.9425	952.4618	995.4802	1040.3553	1104.9988	1117.6983	1137.378	1157.213	1176.1252	1178.3561	1198.4262	1232.8613	1239.9009	1257.5064	1326.2955	1361.6512	1383.209	1400.1717	1408.7448	1426.8531	1480.1419	1481.2316	1485.6598	1494.3032	1498.3913	1505.8735	1529.0178	1845.099	2897.823	2959.6295	2960.5	2972.5396	2976.7763	3004.397	3009.0403	3018.8685	3042.9936	3112.5854	3116.4563	3133.9983
COCC(C)OCC=O	COC[C@@H](C)OCC=O	
InChI=1S/C6H12O3/c1-6(5-8-2)9-4-3-7/h3,6H,4-5H2,1-2H3	InChI=1S/C6H12O3/c1-6(5-8-2)9-4-3-7/h3,6H,4-5H2,1-2H3/t6-/m1/s1
