19
gdb 116969	8.91375	0.42189	0.41397	1.3334	89.9	-0.247	0.0323	0.2793	2597.3437	0.155422	-385.81398	-385.80301	-385.802066	-385.85269	37.047	
C	 0.5797289212	 1.3193964357	-0.0856362156	-0.218318
O	 0.5854428256	-0.0880899821	-0.036344409	-0.227787
C	 0.0953818852	-0.5769537186	 1.1978345893	-0.2026
C	 0.115694237	-2.0331864274	 1.2072469649	 0.045979
C	 0.1099065868	-3.2366066373	 1.232937228	 0.102856
C	 0.1454832593	-4.6925436887	 1.2649809931	-0.351772
C	 1.5552591831	-5.2446276646	 1.6075812449	-0.339518
C	 1.5844448832	-6.7007451838	 1.6401921859	 0.293971
C	 1.5743763568	-7.9025076254	 1.6595130257	-0.439272
H	 1.2169832804	 1.7603125429	 0.697887616	 0.104178
H	 0.9698687127	 1.610066813	-1.0634619524	 0.131217
H	-0.4363662917	 1.7301040656	 0.029225118	 0.104531
H	 0.7051666604	-0.1880484153	 2.0326458913	 0.112499
H	-0.9343250123	-0.2168174508	 1.37094668	 0.114194
H	-0.5731778312	-5.0700383637	 2.001703285	 0.142054
H	-0.1694475815	-5.0974870142	 0.2963209396	 0.144937
H	 2.27303171	-4.8698442438	 0.8691456402	 0.145325
H	 1.8708815526	-4.8403306058	 2.5761345719	 0.141103
H	 1.5828942722	-8.9640092659	 1.6798276231	 0.196424
15.2952	48.6807	61.1755	100.0634	116.5971	176.7386	230.6304	287.2107	303.7969	353.3673	371.115	451.3726	496.0727	552.0748	620.2766	649.3498	763.6016	823.6369	964.4314	977.6726	1008.4687	1027.7481	1033.5938	1136.6399	1177.9332	1182.5912	1193.6815	1220.3563	1254.8658	1283.1196	1305.2829	1366.0391	1411.6357	1469.694	1477.7691	1480.4241	1484.3479	1495.6807	1516.5476	2239.4708	2373.6404	2940.7422	2957.279	2967.0982	3009.1587	3032.6174	3042.3774	3060.6908	3082.5056	3120.0396	3507.2733
COCC#CCCC#C	COCC#CCCC#C	
InChI=1S/C8H10O/c1-3-4-5-6-7-8-9-2/h1H,4-5,8H2,2H3	InChI=1S/C8H10O/c1-3-4-5-6-7-8-9-2/h1H,4-5,8H2,2H3
