17
gdb 62744	2.57126	1.51801	1.23423	1.5463	69.99	-0.2478	-0.0192	0.2287	1052.0981	0.13284	-458.946617	-458.937536	-458.936592	-458.979995	34.202	
C	-0.1672340703	 1.5939669064	-0.1258332043	-0.448944
C	 0.0293606077	 0.09481792	-0.0883421108	 0.390721
O	-1.0922793926	-0.5455654569	 0.4616251378	-0.485824
C	 0.7083267998	-0.7134963563	-1.1515461216	-0.193625
C	 1.9424093681	-0.0089456791	-1.7159774549	-0.37191
C	 2.5548820858	-0.0654010079	-0.2897236263	 0.323659
O	 3.6887666467	-0.0355064725	 0.1104334554	-0.33021
C	 1.3153026488	-0.5970092987	 0.3332937778	 0.201333
O	 1.248360405	-1.3897611803	 1.4506704291	-0.461529
H	 0.683101929	 2.1173180698	-0.5675212685	 0.123408
H	-1.0631284198	 1.83077732	-0.708432023	 0.133069
H	-0.3142976604	 1.9717767192	 0.8898522042	 0.13234
H	-0.7911463971	-1.0930675802	 1.1980341085	 0.300967
H	 0.219658055	-1.5768949488	-1.5829776441	 0.117891
H	 2.5314533342	-0.6289879646	-2.3974158157	 0.134509
H	 1.7980444542	 0.9762227188	-2.1651390496	 0.124801
H	 2.0116420057	-1.9794569789	 1.4624501561	 0.309344
72.508	169.5257	197.1739	213.8741	258.919	285.9809	300.0203	337.4003	390.4909	414.7001	490.6048	529.2753	591.4948	663.3257	683.5166	711.2317	848.2557	886.074	940.6317	970.3687	1001.178	1010.6081	1035.948	1093.4033	1128.1651	1199.2772	1214.1449	1246.9656	1278.2474	1340.8852	1380.4476	1415.437	1441.7571	1474.8437	1486.2848	1499.9264	1849.2692	3046.2532	3067.0925	3114.5606	3117.1703	3132.1499	3214.749	3771.4656	3794.4034
CC1(O)C2CC(=O)C12O	C[C@@]1(O)[C@H]2CC(=O)[C@@]12O	
InChI=1S/C6H8O3/c1-5(8)3-2-4(7)6(3,5)9/h3,8-9H,2H2,1H3	InChI=1S/C6H8O3/c1-5(8)3-2-4(7)6(3,5)9/h3,8-9H,2H2,1H3/t3-,5-,6-/m1/s1
