19
gdb 95266	2.6945	1.74631	1.36779	1.6373	73.17	-0.2321	0.0722	0.3044	987.2833	0.161729	-422.993714	-422.986533	-422.985588	-423.025047	29.626	
O	 0.0954911727	 1.4266006899	-0.0764008377	-0.434326
C	 0.0370533007	 0.0052348092	-0.0027511877	 0.114543
C	 0.9641749226	-0.5332064823	 1.1034054365	-0.2213
C	 0.7037136336	-2.0045257497	 1.4697052878	-0.237308
C	-0.7858347024	-2.2118224604	 1.7158242751	 0.108259
O	-1.358971575	-1.0939442616	 2.4754786277	-0.305127
C	-2.1816597555	-0.757251627	 1.3596705224	 0.074474
C	-1.7042053446	-1.9115852106	 0.5216051587	-0.17535
C	-1.3958525487	-0.4936756748	 0.0932003901	-0.082995
H	-0.2625153258	 1.7683525064	 0.7508478998	 0.278109
H	 0.4207702334	-0.3260765508	-0.9766870974	 0.087595
H	 2.0042470267	-0.3832990291	 0.7988906919	 0.097187
H	 0.8004839541	 0.069868165	 2.0017491456	 0.109645
H	 1.020133759	-2.6837823256	 0.6672734195	 0.102847
H	 1.2838806643	-2.2710329554	 2.3601722288	 0.104947
H	-1.012144989	-3.1554955078	 2.2205763745	 0.08285
H	-3.1697895315	-0.3608261766	 1.5643521027	 0.10521
H	-2.2367966331	-2.6387962732	-0.0760966613	 0.096048
H	-2.0302296313	-0.1390629754	-0.716655837	 0.094691
112.6957	245.4034	292.5217	336.3843	349.7858	396.6114	449.5821	511.7946	643.4572	685.6483	718.4444	783.3074	806.9328	821.9161	887.4085	919.3958	924.9258	968.8309	998.9404	1024.7209	1039.3795	1054.3023	1064.1724	1078.5446	1101.6074	1111.332	1146.6201	1197.2865	1215.3769	1253.2573	1276.4241	1296.0778	1339.2487	1345.1979	1362.4442	1375.2648	1385.844	1424.0015	1435.9766	1477.2271	1488.0477	3020.2694	3025.5909	3051.8959	3063.5342	3072.2725	3098.574	3137.4402	3176.3897	3202.3937	3796.248
OC1CCC2OC3C2C13	O[C@H]1CC[C@H]2O[C@@H]3[C@H]2[C@H]13	
InChI=1S/C7H10O2/c8-3-1-2-4-6-5(3)7(6)9-4/h3-8H,1-2H2	InChI=1S/C7H10O2/c8-3-1-2-4-6-5(3)7(6)9-4/h3-8H,1-2H2/t3-,4+,5-,6+,7-/m0/s1
