17
gdb 36006	2.25835	1.1939	0.85137	1.4506	79.3	-0.2592	0.0383	0.2975	1340.2647	0.132549	-384.591909	-384.582428	-384.581484	-384.626764	34.496	
C	-0.563875713	-0.8107777079	-0.2268769736	-0.419211
C	-0.1902039205	 0.3234652707	-0.3589311343	 0.297778
C	 0.2745657157	 1.6953203857	-0.5005059959	-0.391987
C	 1.7466589872	 1.8803958165	-0.0390597808	-0.19067
C	 2.6979953643	 1.2492588835	-0.9496735861	 0.339881
C	 3.48887689	 0.7633601868	-1.7127393483	-0.472682
C	 2.1270572149	 3.3491660251	 0.1579890968	 0.071474
C	 1.5282558507	 4.4649602127	-0.5803684926	-0.171903
O	 1.1640021046	 4.1934612959	 0.7804447438	-0.235758
H	-0.8996470645	-1.8119299969	-0.1168580579	 0.195692
H	 0.1796010386	 2.009795354	-1.545720948	 0.137245
H	-0.3454005657	 2.36857537	 0.1018319583	 0.154796
H	 1.8368182682	 1.3997408439	 0.9444188239	 0.130108
H	 4.183484928	 0.3164401823	-2.3802348624	 0.201374
H	 3.143717782	 3.4788239507	 0.52994084	 0.110039
H	 2.1056220596	 5.374723558	-0.7339947392	 0.121988
H	 0.7465719797	 4.2847982991	-1.3146458338	 0.121837
65.2331	73.2087	121.2187	156.3503	210.1847	233.5219	344.7044	355.5518	430.8702	485.5206	556.6126	570.3495	617.249	633.1286	645.1826	652.4388	818.1637	844.2275	875.2023	943.5835	984.8201	1009.5923	1046.6938	1087.9297	1120.5952	1160.9284	1177.6211	1217.1243	1278.9636	1300.9366	1340.853	1352.1815	1431.1888	1480.941	1531.9011	2238.6866	2243.3781	3019.0858	3039.3713	3081.7911	3097.9163	3110.602	3185.1942	3503.8834	3507.7303
C#CCC(C#C)C1CO1	C#CC[C@@H](C#C)[C@H]1CO1	
InChI=1S/C8H8O/c1-3-5-7(4-2)8-6-9-8/h1-2,7-8H,5-6H2	InChI=1S/C8H8O/c1-3-5-7(4-2)8-6-9-8/h1-2,7-8H,5-6H2/t7-,8-/m1/s1
