13
gdb 31471	6.92461	0.91961	0.81602	6.6239	68.03	-0.2496	-0.0379	0.2117	1306.4185	0.089683	-452.778262	-452.770398	-452.769453	-452.811323	27.37	
C	 0.0257206655	 1.4015267899	-0.0670515486	-0.251282
O	 0.0266272665	-0.0323507102	-0.0402223495	-0.249812
C	 0.5980210583	-0.6668054742	-1.0428594025	 0.508703
N	 0.6858590648	-1.9478823065	-1.1799064573	-0.397874
C	 1.3705075367	-2.0920263507	-2.3884583222	 0.159329
C	 1.6544079813	-0.8714341808	-2.9098368719	-0.109555
O	 1.1578347919	 0.0666984078	-2.0443784937	-0.18297
C	 1.6956890202	-3.3571211452	-2.9449600078	 0.223984
N	 1.9716164483	-4.3762549642	-3.4180784229	-0.329683
H	 1.0474102993	 1.7910991289	-0.0681721517	 0.148074
H	-0.5091229128	 1.7736514004	-0.9451870481	 0.148032
H	-0.4902944311	 1.7047741999	 0.8427232913	 0.157534
H	 2.1509498811	-0.5157104949	-3.7945620952	 0.175522
65.0203	141.1864	143.4011	173.1345	255.7559	320.6392	458.0605	507.9463	564.551	623.4239	667.9769	725.4899	750.3437	759.9995	951.8502	998.829	1079.3356	1135.0537	1177.8308	1196.2112	1242.3793	1305.9333	1369.4127	1481.4731	1488.8116	1497.5988	1595.2936	1681.1883	2359.3725	3047.3237	3122.5355	3169.4355	3309.6535
COC1=NC(=CO1)C#N	COc1nc(co1)C#N	
InChI=1S/C5H4N2O2/c1-8-5-7-4(2-6)3-9-5/h3H,1H3	InChI=1S/C5H4N2O2/c1-8-5-7-4(2-6)3-9-5/h3H,1H3
