17
gdb 32003	2.95396	1.42178	1.02538	2.3458	76.23	-0.2181	0.0255	0.2435	1145.4277	0.138177	-418.004342	-417.996373	-417.995429	-418.037685	29.098	
O	 0.5404683636	 0.4738766183	-0.8827703195	-0.416199
C	-0.0900279244	 0.2818192455	 0.3840982017	-0.178133
C	-1.4330163999	-0.3466950235	 0.2740457725	 0.177653
C	-2.7031719072	 0.0871235154	 0.6269642409	-0.168404
N	-3.7024295822	-0.8197940232	 0.3036262395	-0.372162
C	-3.0172277813	-1.8013171458	-0.2317315321	 0.368464
C	-2.9387128972	-3.1110048365	-1.0004355773	-0.367661
C	-1.3887060102	-2.8012298197	-1.0617525169	-0.168774
N	-1.6866983334	-1.5927832458	-0.2646631767	-0.030181
H	-0.0639325474	 0.9974124123	-1.4203494603	 0.280793
H	 0.6035964372	-0.3525468052	 0.9476096926	 0.117249
H	-0.1896465665	 1.2264385799	 0.9381986345	 0.105303
H	-2.9437230344	 1.0181567042	 1.1207565988	 0.108253
H	-3.2054421408	-4.0143021436	-0.4471429374	 0.134753
H	-3.4366649935	-3.122710472	-1.9725093336	 0.136343
H	-0.7349833849	-3.5147361213	-0.5547524165	 0.133012
H	-0.9978132575	-2.5788487289	-2.0570925601	 0.13969
59.332	103.9302	125.5245	216.163	266.3418	369.1131	427.1095	508.4041	625.0844	684.8238	700.7887	734.896	808.0969	832.1267	846.5551	894.9986	964.806	1035.9075	1054.7408	1072.4946	1133.1733	1142.0767	1173.5342	1184.4978	1201.8149	1228.9952	1258.9955	1272.4928	1355.8621	1402.0478	1418.3989	1444.9719	1480.7308	1498.1126	1504.4891	1537.8576	1588.0057	3003.5847	3060.3015	3068.6273	3075.021	3118.0111	3131.5183	3235.8262	3802.6466
OCC1=CN=C2CCN12	OCc1cnc2CCn12	
InChI=1S/C6H8N2O/c9-4-5-3-7-6-1-2-8(5)6/h3,9H,1-2,4H2	InChI=1S/C6H8N2O/c9-4-5-3-7-6-1-2-8(5)6/h3,9H,1-2,4H2
