21
gdb 81447	3.29618	1.30461	1.21919	1.4491	81.95	-0.2385	0.0724	0.3109	1122.8435	0.184081	-387.059579	-387.05173	-387.050786	-387.091453	32.415	
O	 0.2094040186	 1.3566790076	-0.1893923703	-0.458943
C	 0.0686735119	-0.0355900037	-0.0477050496	 0.185979
C	 0.1468896046	-0.6317833057	 1.3975739341	-0.063733
C	-1.3634744858	-0.2606645598	 1.5306025551	-0.266204
C	-1.3808406453	-0.6250807221	 0.0134748363	-0.135179
C	-1.0751628523	-2.1170461529	 0.0624761419	 0.431674
C	-2.1312785584	-3.1788854147	-0.0322511005	-0.34091
C	-1.1211975326	-3.0034975486	-1.147850552	-0.341772
C	 0.0757209016	-2.1427501659	 1.1019796003	-0.306178
H	-0.3583216946	 1.7988276162	 0.4496971647	 0.279789
H	 0.7375795932	-0.4727001992	-0.7944956278	 0.080909
H	 0.8967744539	-0.288539476	 2.1114674046	 0.062233
H	-1.9818781726	-0.8596993226	 2.2045237563	 0.097937
H	-1.5421932904	 0.7983938018	 1.7357347831	 0.08253
H	-2.1661635033	-0.2904956336	-0.6661080165	 0.057805
H	-2.0380340932	-4.052399195	 0.6060637545	 0.107303
H	-3.1565505174	-2.8754359977	-0.2211146525	 0.108305
H	-1.467934572	-2.5801805845	-2.0855889934	 0.110683
H	-0.3505719495	-3.7595805096	-1.2616991873	 0.108803
H	 1.011865151	-2.5302386965	 0.6867434408	 0.100186
H	-0.1716144375	-2.7302065374	 1.9921584182	 0.098784
123.2237	204.137	228.5813	269.2777	308.8235	375.9942	421.7331	449.0178	506.523	557.281	731.1119	777.4977	820.6144	830.2096	863.4663	878.9513	906.8272	916.2487	947.4286	958.4523	973.9568	1008.3598	1023.5588	1042.9051	1056.0768	1067.5338	1077.9101	1108.2765	1112.3934	1175.6616	1185.7505	1205.6371	1217.2372	1229.9292	1238.1829	1274.9895	1288.4268	1292.0352	1307.9626	1389.5772	1440.2649	1465.0458	1494.246	1505.3249	1520.6043	3038.7109	3054.9365	3072.2022	3081.4847	3103.9842	3104.7851	3109.952	3116.7924	3121.6271	3194.1081	3209.2776	3816.9432
OC1C2CC1C1(CC1)C2	O[C@H]1[C@H]2C[C@@H]1C1(CC1)C2	
InChI=1S/C8H12O/c9-7-5-3-6(7)8(4-5)1-2-8/h5-7,9H,1-4H2	InChI=1S/C8H12O/c9-7-5-3-6(7)8(4-5)1-2-8/h5-7,9H,1-4H2/t5-,6-,7-/m0/s1
