18
gdb 61209	4.20937	0.79555	0.7487	3.0542	73.2	-0.2888	-0.0541	0.2347	1489.8217	0.144997	-439.11323	-439.103329	-439.102385	-439.148586	34.928	
C	 0.0769035049	 1.5759667281	-0.1251170346	-0.414049
C	 0.0159572617	 0.0481724028	-0.0136257588	-0.008885
C	 0.768089054	-0.4650940054	 1.2382426011	-0.345112
C	 2.1888155307	-0.1279400751	 1.2223356481	 0.262586
N	 3.3119339056	 0.1427282663	 1.1886240114	-0.311006
C	-1.4410523641	-0.4684477844	 0.0552430021	 0.039628
O	-2.1026739711	 0.0141717516	 1.1915861742	-0.434826
C	-2.2123353106	-0.1045722092	-1.19881707	 0.132393
O	-3.2525274067	 0.5047438388	-1.146631468	-0.257296
H	 1.1119610216	 1.9262029928	-0.1077800379	 0.148265
H	-0.3785139234	 1.926464724	-1.0566796255	 0.124864
H	-0.4604372781	 2.0378062291	 0.7077218187	 0.140587
H	 0.4838347492	-0.4039753017	-0.8977540385	 0.096952
H	 0.306059418	-0.0401216818	 2.1354271008	 0.174768
H	 0.6732844045	-1.5542544577	 1.3174211967	 0.148286
H	-1.4056182155	-1.5747815767	 0.0757322828	 0.096489
H	-2.9064831252	 0.4501638927	 0.8656102528	 0.300286
H	-1.7749723256	-0.4373767242	-2.1619925755	 0.106072
60.8729	87.6741	94.4745	155.5898	219.6116	239.1178	277.3107	288.1589	337.7511	396.2341	399.9939	458.9344	541.4049	636.6952	739.8952	823.474	855.6591	890.031	954.0635	965.9241	1003.1602	1025.041	1122.889	1133.8309	1175.9118	1245.8658	1258.0949	1296.5681	1326.3109	1359.1736	1371.99	1401.5843	1418.4089	1434.1708	1467.3759	1498.4058	1504.2694	1815.0744	2360.8586	2921.4935	2938.4283	3029.3706	3045.0128	3046.9742	3093.8987	3113.4092	3130.1564	3685.9093
CC(CC#N)C(O)C=O	C[C@@H](CC#N)[C@@H](O)C=O	
InChI=1S/C6H9NO2/c1-5(2-3-7)6(9)4-8/h4-6,9H,2H2,1H3	InChI=1S/C6H9NO2/c1-5(2-3-7)6(9)4-8/h4-6,9H,2H2,1H3/t5-,6-/m0/s1
