20
gdb 87234	4.54421	0.70983	0.68737	4.2845	80.8	-0.2705	0.035	0.3056	1674.7028	0.168914	-403.155621	-403.145469	-403.144524	-403.191085	36.741	
C	-0.063585572	 1.5094622965	-0.1445081811	-0.402575
C	 0.0409875343	 0.0087169099	 0.0014161004	-0.045196
C	 1.3923101637	-0.6826284004	-0.0731992936	-0.362101
C	 0.6407577992	-0.6139656705	 1.2354033527	 0.397001
O	 1.1072713518	 0.2821992177	 2.2162622891	-0.469993
C	 0.006480489	-1.862269554	 1.8169964944	-0.233041
C	 1.0112533535	-2.6796088804	 2.6564650401	-0.351785
C	 0.422199059	-3.8892014363	 3.2229834785	 0.25741
N	-0.0589370748	-4.8446503603	 3.6602947211	-0.305109
H	 0.7484044453	 2.0095646968	 0.387721976	 0.126198
H	-0.0222867164	 1.8028574277	-1.1986736599	 0.116305
H	-1.0071236433	 1.8790184781	 0.270687257	 0.121975
H	-0.7861516063	-0.5474991115	-0.4331261584	 0.089637
H	 1.4722609564	-1.6350778458	-0.5872761152	 0.113652
H	 2.2629354067	-0.0413683117	-0.1745492221	 0.112018
H	 2.0411809224	 0.1091176682	 2.3690487209	 0.287181
H	-0.8383365402	-1.5756663029	 2.4525020692	 0.128956
H	-0.3901668526	-2.4869366828	 1.0108069933	 0.11845
H	 1.8729946484	-2.9668796778	 2.0421212195	 0.148488
H	 1.3902772561	-2.0591114206	 3.4758016681	 0.152529
59.1234	91.2956	101.6367	173.9037	196.4924	229.3774	245.4694	276.9394	344.8964	394.393	418.6805	444.8882	531.6254	581.578	724.4924	777.5226	816.2015	879.0752	917.228	930.7762	971.0731	1000.2933	1015.3532	1046.4007	1048.9346	1112.0686	1134.2599	1183.7717	1191.4899	1238.3217	1271.4277	1291.6693	1326.1221	1349.7748	1379.7194	1407.7923	1425.242	1471.5134	1483.1525	1485.2435	1492.5996	1504.4973	2362.0479	3037.9534	3038.2985	3051.649	3078.2227	3096.3053	3102.3333	3119.5833	3124.2201	3141.3398	3207.736	3818.8728
CC1CC1(O)CCC#N	C[C@H]1C[C@]1(O)CCC#N	
InChI=1S/C7H11NO/c1-6-5-7(6,9)3-2-4-8/h6,9H,2-3,5H2,1H3	InChI=1S/C7H11NO/c1-6-5-7(6,9)3-2-4-8/h6,9H,2-3,5H2,1H3/t6-,7+/m0/s1
