15
gdb 45605	2.70078	1.76905	1.4569	4.2579	60.39	-0.2592	-0.0006	0.2586	913.8245	0.114081	-494.911507	-494.904465	-494.903521	-494.943548	26.133	
O	-0.1990449047	 0.4761252971	 0.889160189	-0.319581
C	-0.0314889349	 1.4484997065	 0.2323936468	 0.415186
O	-0.9639094586	 2.1460913499	-0.5111761059	-0.25137
C	-0.0299075499	 3.2297706984	-0.8006747182	 0.072996
C	-0.2845550751	 4.4363821778	 0.0875696543	-0.106733
O	-0.0499678333	 4.0495660277	 1.4352801339	-0.236426
C	 1.2972377215	 3.8092778544	 1.7173112864	 0.014895
O	 1.9581374062	 3.0156300344	 0.729335792	-0.266113
C	 1.1235395702	 2.3938753577	-0.193133455	-0.050508
H	-0.01440687	 3.457877039	-1.8677409658	 0.101739
H	 0.3703682025	 5.2691625651	-0.2115741087	 0.112068
H	-1.3253029157	 4.7632009862	 0.0299643096	 0.139293
H	 1.8708790413	 4.7472053946	 1.7712392874	 0.108015
H	 1.3172078655	 3.2944521064	 2.6839140486	 0.132039
H	 1.7679999751	 1.9096617548	-0.9297870543	 0.134502
73.5565	118.8998	243.9112	279.4273	372.2559	461.952	527.4407	552.3278	679.6779	715.8476	818.629	834.7165	889.9665	909.8305	963.6005	1002.7144	1024.1818	1051.893	1109.4515	1111.657	1153.8816	1195.8586	1219.248	1246.9625	1291.2171	1324.2173	1347.4609	1367.4321	1396.9558	1455.7901	1480.2373	1528.553	1947.577	2988.0373	2998.2449	3070.7365	3099.4313	3109.1789	3112.6847
O=C1OC2COCOC12	O=C1O[C@H]2COCO[C@@H]12	
InChI=1S/C5H6O4/c6-5-4-3(9-5)1-7-2-8-4/h3-4H,1-2H2	InChI=1S/C5H6O4/c6-5-4-3(9-5)1-7-2-8-4/h3-4H,1-2H2/t3-,4+/m0/s1
