21
gdb 91327	2.67158	1.56938	1.29792	1.5043	77.51	-0.2333	0.072	0.3054	1072.6022	0.183591	-424.227863	-424.219657	-424.218713	-424.259937	33.4	
C	-0.1311177276	 1.5557831152	 0.0174353942	-0.470666
C	 0.0633746548	 0.059560331	-0.0591312108	 0.400958
C	 0.6511676379	-0.5798556969	-1.3419067596	-0.293762
C	-0.4283762441	-1.641526767	-1.0537525957	 0.092079
C	 0.0398292515	-2.7016955371	-0.0556365531	-0.225198
C	 0.9735725916	-2.0661447238	 1.0076561633	 0.090284
O	 2.347527805	-2.144308342	 0.6100602465	-0.430619
C	 0.6709211957	-0.5638208506	 1.2055317946	-0.220879
O	-1.1940523434	-0.6582450591	-0.3043537516	-0.332517
H	 0.8357134404	 2.0648866583	 0.0910686249	 0.119064
H	-0.6514640772	 1.9185556509	-0.8732296591	 0.120075
H	-0.7259096296	 1.8257860965	 0.8968620834	 0.121651
H	 0.4091241202	 0.012222823	-2.2267371267	 0.09637
H	 1.6971129323	-0.8818131852	-1.3386568134	 0.119209
H	-1.0004433428	-2.0599726518	-1.8866981402	 0.069642
H	-0.8487053852	-3.1271925628	 0.4239723869	 0.107553
H	 0.5654054083	-3.5241289883	-0.5579081492	 0.080535
H	 0.8498902402	-2.5920723351	 1.9648725599	 0.066688
H	 2.5562420792	-3.0707082419	 0.4518772264	 0.278931
H	 1.6037926723	-0.06888587	 1.4937002018	 0.108118
H	-0.0493992197	-0.4281962332	 2.0189844475	 0.102485
148.5122	183.0546	214.8154	277.3015	317.2873	361.9858	369.0131	403.6272	433.8043	499.9517	517.5349	658.3443	719.4431	803.0573	834.0521	860.2155	878.8173	900.1405	926.8997	938.9386	963.276	1000.5059	1021.1374	1051.7643	1071.3821	1087.082	1136.3775	1198.3589	1206.3096	1236.8379	1244.737	1263.9438	1277.3538	1309.085	1326.036	1360.7785	1374.6638	1394.3363	1407.4988	1421.5809	1457.6792	1466.7296	1480.5663	1489.4156	1495.0661	2987.34	3023.4083	3032.4966	3048.138	3065.6051	3073.0528	3083.6087	3094.2578	3102.8091	3115.8193	3159.6457	3811.8702
CC12CC(CC(O)C1)O2	C[C@@]12C[C@@H](C[C@@H](O)C1)O2	
InChI=1S/C7H12O2/c1-7-3-5(8)2-6(4-7)9-7/h5-6,8H,2-4H2,1H3	InChI=1S/C7H12O2/c1-7-3-5(8)2-6(4-7)9-7/h5-6,8H,2-4H2,1H3/t5-,6-,7+/m1/s1
