16
gdb 106660	2.76568	1.30712	1.05337	1.157	67.48	-0.2631	0.0117	0.2748	1143.5281	0.12247	-474.976757	-474.967993	-474.967049	-475.010448	32.335	
O	 0.0401573237	 1.3529135832	-0.2337969631	-0.406236
C	-0.0047681713	-0.0089692347	 0.1566553353	-0.178151
C	-1.3739025231	-0.591182097	 0.0389124781	 0.380942
C	-2.1188932212	-1.068159479	-1.1647457607	-0.386807
C	-1.9488952467	-1.9872997654	 0.0571098803	 0.18273
O	-1.3072397705	-3.1969662728	 0.0206948833	-0.440838
C	-2.8350769122	-1.4672982109	 1.152344324	 0.387788
N	-3.6585414788	-1.971893829	 1.9468230029	-0.560667
O	-2.3653048279	-0.1566016353	 1.0282975938	-0.316901
H	-0.5272075186	 1.8445798923	 0.3699748319	 0.295048
H	 0.6703986953	-0.5505067701	-0.5125640677	 0.130028
H	 0.3576114948	-0.1480398772	 1.1856119266	 0.110758
H	-3.0807576866	-0.6351662858	-1.4199689979	 0.130868
H	-1.4946652651	-1.3703977373	-2.0008755465	 0.134411
H	-1.8989295929	-3.8467039338	-0.3759432466	 0.303752
H	-4.0375964089	-1.2748990672	 2.5897671861	 0.233274
64.202	112.78	160.3338	221.2475	255.3995	298.2852	331.2603	388.1764	421.8379	468.4057	535.1039	631.5718	687.1943	759.2486	788.8447	864.5581	879.2527	892.1752	941.0728	982.7198	1003.0149	1055.7216	1063.5597	1082.6584	1137.8787	1208.7952	1252.6394	1299.6163	1362.5315	1387.8051	1419.3844	1433.5829	1485.2316	1517.7905	1838.8385	3003.9506	3092.6257	3122.2851	3219.3256	3481.6668	3794.571	3811.1157
OCC12CC1(O)C(=N)O2	OC[C@@]12C[C@]1(O)[C]([NH])O2	
InChI=1S/C5H7NO3/c6-3-5(8)1-4(5,2-7)9-3/h6-8H,1-2H2	InChI=1S/C5H7NO3/c6-3-5(8)1-4(5,2-7)9-3/h6-8H,1-2H2/t4-,5-/m0/s1
