19
gdb 120212	3.89288	1.04191	0.99642	1.9479	75.72	-0.2375	0.0005	0.238	1280.868	0.158617	-422.966778	-422.958518	-422.957574	-423.000489	31.185	
C	-0.0378080125	 1.5257659305	-0.0498626954	-0.38546
C	-0.1192655322	 0.0399807497	 0.2533671588	-0.042044
O	-1.3138317895	-0.4702274679	-0.3185842412	-0.249624
C	-1.4568551168	-1.8414408099	-0.1931952343	 0.163703
C	-2.0292793901	-2.5407201691	 1.1074737508	-0.045131
C	-3.3317356108	-1.763073627	 1.336347708	-0.069772
C	-3.8426237429	-1.7242093963	 0.1045362819	-0.062034
C	-2.7770515518	-2.490648645	-0.6980394489	-0.04921
O	-2.4637773921	-3.6042114968	 0.2010659859	-0.281465
H	 0.8716664764	 1.9535179168	 0.3823448272	 0.115998
H	-0.0237762466	 1.69604392	-1.1300674577	 0.128177
H	-0.9017691419	 2.0497701283	 0.3682249074	 0.129551
H	 0.7528495113	-0.4913621859	-0.1614927085	 0.091558
H	-0.1170217636	-0.1340541466	 1.3412790276	 0.091408
H	-0.5727277995	-2.3823385909	-0.5577253977	 0.083982
H	-1.425043701	-2.8810090046	 1.9470170427	 0.077667
H	-3.6930365672	-1.3515705489	 2.2667045925	 0.109398
H	-4.7468055998	-1.2748681101	-0.2768709909	 0.111556
H	-2.9574102496	-2.7745234866	-1.7335094282	 0.081742
62.2291	65.1563	134.7219	234.703	287.3816	333.3096	372.0238	564.3675	582.6966	625.9081	724.3751	795.3832	805.9169	822.6887	841.6685	878.5662	891.7202	907.8167	918.2382	938.1194	962.9027	1004.5123	1069.3202	1127.976	1139.9592	1148.0785	1182.5921	1194.5206	1213.4921	1244.439	1252.5001	1290.3952	1298.0527	1318.6594	1366.4652	1403.9817	1441.1728	1483.2075	1499.7479	1527.2127	1616.3061	2966.7257	2995.0598	3022.0299	3046.0084	3120.6562	3123.5518	3135.9737	3141.4597	3236.9556	3264.0603
CCOC1C2C=CC1O2	CCO[C@H]1[C@H]2C=C[C@@H]1O2	
InChI=1S/C7H10O2/c1-2-8-7-5-3-4-6(7)9-5/h3-7H,2H2,1H3	InChI=1S/C7H10O2/c1-2-8-7-5-3-4-6(7)9-5/h3-7H,2H2,1H3/t5-,6+,7+
