20
gdb 8109	2.95445	1.87839	1.44419	1.4487	75.5	-0.242	0.074	0.316	962.9712	0.176358	-348.980547	-348.972008	-348.971064	-349.012796	32.837	
C	-0.080428363	 1.590947632	 0.0763954214	-0.417379
C	 0.0861846378	 0.0841707161	 0.0966456154	-0.041237
C	 1.3499690874	-0.6813559967	-0.2215533273	-0.134565
C	 2.6005636802	-0.0450913373	 0.363898781	 0.130215
O	 3.0059013298	 1.1613325428	-0.2546990853	-0.430008
C	 1.9287981236	-0.0063065069	 1.779452896	-0.343902
C	 0.7128065825	-0.7385463592	 1.1882840334	 0.340487
C	 0.0134383218	-1.8775689868	 1.874517366	-0.49404
H	 0.8212701651	 2.1112585971	 0.3984995645	 0.134315
H	-0.3007414126	 1.9329409461	-0.9407524693	 0.114527
H	-0.9146127268	 1.8986042211	 0.7180819048	 0.103123
H	-0.7767677475	-0.4341876422	-0.3221523364	 0.077548
H	 1.3639185852	-1.4416286486	-0.9950258194	 0.075122
H	 3.4275772856	-0.7682084421	 0.3643192861	 0.070188
H	 3.8208008014	 1.4536604686	 0.1662347938	 0.280446
H	 2.4731619716	-0.6001453464	 2.5189357004	 0.093559
H	 1.742105369	 0.9884035309	 2.1953206539	 0.095254
H	-0.5766977226	-1.5250199574	 2.7298101317	 0.118305
H	-0.6719192874	-2.3915972448	 1.1923918831	 0.116182
H	 0.7281988989	-2.6181569264	 2.2528976063	 0.111859
135.6657	178.7801	206.502	210.3508	245.1802	281.4741	294.1428	358.6402	427.8208	483.2293	559.7508	663.0887	695.3813	737.665	851.2815	890.8019	935.9983	959.6141	972.8151	993.8884	1030.6642	1061.5165	1075.4415	1123.1895	1138.7391	1151.6937	1171.9984	1219.6222	1234.7948	1265.4576	1289.0039	1331.4273	1351.1913	1414.6211	1415.8055	1426.0459	1465.4039	1485.3704	1487.764	1496.5293	1506.69	1510.8844	3000.0224	3015.596	3030.3665	3048.9997	3071.143	3084.7662	3091.6827	3099.5703	3103.4525	3152.3031	3166.2778	3812.2207
CC1C2C(O)CC12C	C[C@H]1[C@H]2[C@@H](O)C[C@@]12C	
InChI=1S/C7H12O/c1-4-6-5(8)3-7(4,6)2/h4-6,8H,3H2,1-2H3	InChI=1S/C7H12O/c1-4-6-5(8)3-7(4,6)2/h4-6,8H,3H2,1-2H3/t4-,5-,6-,7-/m0/s1
