23
gdb 102636	2.24764	1.04578	0.97458	2.1895	78.47	-0.2503	0.0681	0.3184	1414.2938	0.203777	-462.555239	-462.544437	-462.543493	-462.591145	39.712	
C	-1.4314438808	 0.2358379079	-1.1812027263	-0.390123
C	-0.0970997094	-0.0221073353	-0.4901528567	 0.147253
C	-0.2796376389	-0.6416964244	 0.8969024127	-0.396462
O	 0.6285257314	-0.8889298496	-1.3674143068	-0.295424
C	 1.9951910546	-1.1658336243	-1.0859738418	 0.082707
C	 2.4736722036	-1.8966902689	-2.3446785216	-0.078145
O	 2.2879649091	-1.0847961701	-3.5022832711	-0.423933
C	 2.8469276755	 0.0806824777	-0.7888829862	-0.084395
O	 2.7171787144	 1.1011307768	-1.7541318661	-0.427107
H	-1.2702152821	 0.6754164215	-2.1692058449	 0.119538
H	-1.9859969908	-0.6998599587	-1.30515538	 0.119503
H	-2.0421395725	 0.92592822	-0.5918858693	 0.115648
H	 0.4413903644	 0.9301656286	-0.4034962674	 0.098928
H	-0.7971060199	-1.6036477603	 0.819562029	 0.120686
H	 0.6765566087	-0.8067986024	 1.4024663849	 0.115451
H	-0.8761722292	 0.021333148	 1.5312709846	 0.11805
H	 2.0931513485	-1.8507261933	-0.2269546908	 0.068267
H	 3.5423522925	-2.1201970217	-2.2776415914	 0.113337
H	 1.927208555	-2.8445601939	-2.4463750076	 0.103136
H	 1.3547754598	-0.8329160339	-3.4729602891	 0.295701
H	 2.5633648775	 0.51850324	 0.1742199111	 0.105915
H	 3.8914130072	-0.2607198177	-0.6806094497	 0.084836
H	 2.7788221613	 0.6662191739	-2.6172270356	 0.286634
62.5985	84.4734	114.458	169.923	199.5352	206.2799	238.8998	263.33	301.0893	322.6946	388.2124	425.3059	450.2463	482.1253	549.8308	676.7253	754.5196	804.6537	852.9341	915.2118	928.6058	930.9661	949.8673	980.9298	1023.5672	1074.2159	1117.6451	1126.8077	1154.2029	1167.206	1195.7243	1227.1623	1241.4056	1327.4071	1343.1602	1370.8828	1386.1123	1394.2092	1398.9713	1406.639	1414.8223	1433.9778	1471.4789	1480.9546	1486.2261	1493.8963	1498.799	1509.6603	1517.9943	2952.8158	2968.9663	3012.0746	3029.2767	3035.6319	3042.053	3063.9676	3094.9168	3106.9368	3108.7329	3117.2945	3120.9762	3713.0528	3764.6769
CC(C)OC(CO)CO	CC(C)OC(CO)CO	
InChI=1S/C6H14O3/c1-5(2)9-6(3-7)4-8/h5-8H,3-4H2,1-2H3	InChI=1S/C6H14O3/c1-5(2)9-6(3-7)4-8/h5-8H,3-4H2,1-2H3
