15
gdb 127746	5.96468	0.96995	0.83871	4.3393	73.51	-0.2289	-0.0186	0.2103	1320.8151	0.114269	-446.290594	-446.282224	-446.28128	-446.324925	28.902	
C	-0.16280894	 1.438027897	 0.1843966297	-0.315839
N	-0.1328110464	-0.0015663449	 0.037539384	 0.156292
N	-0.186112014	-0.6028271199	-1.1367320925	-0.117063
N	-0.1376940321	-1.895015758	-0.904664529	-0.259446
C	-0.0548627347	-2.0149735975	 0.4416936211	 0.520346
N	 0.019666779	-3.1814021214	 1.1712018634	-0.377369
C	 0.0289050376	-4.4951542334	 0.7370828483	 0.073945
N	-0.0339839062	-4.8478984558	-0.4788639486	-0.408254
N	-0.0493001649	-0.8373751685	 1.0706313067	-0.350885
H	 0.7501165876	 1.7803291586	 0.6769191096	 0.15936
H	-0.2331961528	 1.8627063387	-0.8161185591	 0.173383
H	-1.0285822291	 1.7325819066	 0.7817738655	 0.159359
H	 0.0746002713	-3.0327086776	 2.1654951366	 0.267157
H	 0.0982135121	-5.1704462237	 1.5991615493	 0.09207
H	-0.0108165975	-5.8632776602	-0.545583965	 0.226944
27.2539	109.1463	151.2795	156.6168	213.7224	283.9208	384.1093	437.239	495.064	590.5794	685.1233	756.5725	774.0855	805.8607	830.1487	1040.1816	1050.3105	1054.2158	1064.9162	1143.3514	1151.6847	1224.5649	1250.743	1324.9579	1417.1089	1419.8402	1426.2175	1450.6376	1474.9472	1501.1488	1518.7751	1624.4946	1743.7696	3037.352	3062.52	3133.4736	3177.2131	3510.1328	3654.9124
CN1N=NC(NC=N)=N1	Cn1nnc(NC=N)n1	
InChI=1S/C3H6N6/c1-9-7-3(5-2-4)6-8-9/h2H,1H3,(H2,4,5,7)	InChI=1S/C3H6N6/c1-9-7-3(5-2-4)6-8-9/h2H,1H3,(H2,4,5,7)
