20
gdb 53289	2.41995	1.15133	0.88126	1.1806	89.5	-0.2055	0.0499	0.2554	1391.4671	0.169694	-365.935778	-365.926129	-365.925185	-365.971523	34.809	
C	-0.223289299	 1.2224486698	-0.8240221451	-0.501186
C	-0.1927246425	-0.1957176402	-0.4955434481	 0.089543
C	-0.1846706855	-1.3709783094	-0.2220475964	 0.061994
C	-0.0939406039	-2.7725742374	 0.0673272567	-0.214716
C	-0.4409484095	-3.3322386781	 1.4466677851	-0.306054
C	-1.2863325496	-3.7282569453	 0.2824460175	 0.0386
N	-2.6886736867	-3.4423608532	 0.2323460108	-0.085619
C	-3.2297494817	-2.1116374085	 0.4712834964	-0.234409
C	-3.2484035528	-2.7070771334	-0.8965117193	-0.21959
H	 0.1255476649	 1.8383201725	 0.0127472734	 0.146242
H	 0.4188730399	 1.4422576382	-1.684342057	 0.148127
H	-1.2369766404	 1.5531858606	-1.0783270398	 0.145916
H	 0.7469950324	-3.2590519966	-0.421979812	 0.107343
H	 0.2299615679	-4.0553298644	 1.8971504889	 0.117474
H	-0.8769107896	-2.6244964965	 2.1432739253	 0.127791
H	-1.0935631248	-4.7172644287	-0.1257729777	 0.101683
H	-4.1360837143	-2.0929011049	 1.0716456869	 0.110341
H	-2.5471573411	-1.2844499654	 0.6371669037	 0.130785
H	-2.5549390791	-2.2837555341	-1.6191360943	 0.123704
H	-4.1670182846	-3.1114813749	-1.3134541151	 0.112032
35.2942	64.8858	95.9968	144.5764	204.1786	246.6164	278.231	310.6209	415.2813	462.4602	517.7189	616.4359	669.7846	712.4823	804.5395	826.8251	874.7005	910.0215	923.0859	1001.0693	1029.2969	1051.369	1053.8899	1069.194	1079.4477	1107.724	1128.3899	1132.2728	1163.755	1171.7487	1182.029	1186.8346	1241.3127	1364.8448	1388.304	1402.564	1416.5196	1477.2823	1480.0394	1481.9721	1488.985	1515.2759	2355.7967	3021.6605	3079.25	3083.2549	3102.2093	3107.7516	3120.9259	3133.6346	3137.3384	3187.7677	3204.6405	3224.8008
CC#CC1CC1N1CC1	CC#C[C@H]1C[C@H]1N1CC1	
InChI=1S/C8H11N/c1-2-3-7-6-8(7)9-4-5-9/h7-8H,4-6H2,1H3	InChI=1S/C8H11N/c1-2-3-7-6-8(7)9-4-5-9/h7-8H,4-6H2,1H3/t7-,8+/m0/s1
