14
gdb 132106	3.06752	1.4284	0.97537	3.4589	74.	-0.19	-0.0374	0.1526	1102.124	0.10079	-477.998851	-477.99116	-477.990216	-478.030922	29.637	
N	 0.0998238441	 1.3622208732	 0.1832523241	-0.56725
C	-0.0213552876	 0.0022339856	 0.066740307	 0.324196
C	-1.1894265551	-0.6884189404	 0.0308682994	 0.10367
F	-2.3536157484	-0.0037593452	 0.0388336046	-0.098567
C	-1.1717466843	-2.1026755722	-0.0161893876	-0.157237
C	 0.0104700003	-2.7685430824	-0.0321548744	-0.184988
C	 1.2641330794	-2.0555636757	-0.007198393	 0.380919
N	 2.415713363	-2.5901245678	-0.0279580392	-0.541068
O	 1.1598056135	-0.6423718606	 0.0413935133	-0.271028
H	 0.953016353	 1.7482459271	-0.1939542394	 0.26858
H	-0.7346778859	 1.8789765177	-0.0504021728	 0.273313
H	-2.1195261065	-2.62962442	-0.0402918668	 0.125627
H	 0.0731451794	-3.8468441922	-0.0672323234	 0.125704
H	 3.1510732952	-1.885107337	 0.0007608881	 0.21813
104.9082	180.1432	268.6903	302.6536	335.6844	364.6956	418.2121	464.6336	497.1094	547.9494	591.8061	655.0587	709.4645	733.9473	778.0228	797.5422	828.3053	887.7398	971.6043	1021.5659	1094.242	1144.7022	1238.1916	1272.5431	1282.2131	1418.3882	1465.6774	1586.8112	1633.5783	1688.2058	1757.1456	3195.9885	3239.3535	3503.8312	3573.3767	3687.5771
NC1=C(F)C=CC(=N)O1	NC1=C(F)CC=C([NH])O1	
InChI=1S/C5H5FN2O/c6-3-1-2-4(7)9-5(3)8/h1-2,7H,8H2	InChI=1S/C5H6FN2O/c6-3-1-2-4(7)9-5(3)8/h2,7H,1,8H2
