16
gdb 48707	3.89848	1.14247	1.011	1.7919	71.17	-0.2578	-0.0364	0.2214	1158.7014	0.123371	-437.826305	-437.818563	-437.817619	-437.85885	29.139	
O	-0.5438089097	 0.7897118688	 0.7027749372	-0.263166
C	 0.2256356254	 0.9903411803	-0.2055987983	 0.087338
C	 1.3794635039	 1.9040914325	-0.1141313947	 0.22633
C	 1.8033641561	 2.7320163457	 1.1085956161	-0.406575
C	 2.0818452952	 3.8996684957	 0.1412845071	 0.448873
C	 1.9234787535	 5.3355950901	 0.3536147721	-0.262777
O	 3.2199892637	 4.7424128861	 0.1727969128	-0.2692
C	 1.6902630052	 3.069837703	-1.0649843982	-0.174557
N	 2.4291145324	 1.8264859179	-1.1248002408	-0.352318
H	 0.1160307485	 0.5072904459	-1.1999993989	 0.089256
H	 0.9785912673	 2.9264259055	 1.7965283578	 0.142266
H	 2.6609843504	 2.342153981	 1.6640914941	 0.119238
H	 1.58723887	 5.9736261222	-0.4627599513	 0.123447
H	 1.715385699	 5.7104951289	 1.35453551	 0.125639
H	 1.1566343626	 3.3977469356	-1.9499119587	 0.11515
H	 3.3604917565	 1.8928328805	-0.7179245563	 0.251055
77.1086	149.6986	177.0858	281.2378	287.4443	374.4499	410.3712	484.9346	522.4738	596.8821	732.4162	758.9108	820.5972	865.8388	892.8377	942.2163	968.3101	984.7681	1036.6541	1063.0609	1102.5971	1119.5785	1131.9699	1134.7794	1164.6392	1180.6721	1225.5365	1262.1316	1289.3089	1387.016	1436.5005	1441.5083	1480.6393	1537.6277	1809.1235	2911.6855	3065.0926	3083.9971	3130.5561	3171.9256	3183.8758	3475.3521
O=CC12CC3(CO3)C1N2	O=C[C@]12C[C@]3(CO3)[C@H]1N2	
InChI=1S/C6H7NO2/c8-2-5-1-6(3-9-6)4(5)7-5/h2,4,7H,1,3H2	InChI=1S/C6H7NO2/c8-2-5-1-6(3-9-6)4(5)7-5/h2,4,7H,1,3H2/t4-,5+,6-/m0/s1
