23
gdb 101476	3.72624	0.87582	0.85929	1.2595	81.44	-0.2495	0.0789	0.3284	1495.4496	0.205471	-425.432422	-425.42239	-425.421446	-425.468396	36.181	
C	-0.0826943561	 1.5856240351	 0.0222423615	-0.395625
C	-0.0251461019	 0.0570774625	-0.0543045476	-0.167657
C	 0.8321814782	-0.5042956099	-1.2075245658	 0.012274
C	 2.3082228407	-0.1016493878	-1.0776879314	-0.403182
C	 0.6453998514	-2.0283601415	-1.2954111987	 0.12158
C	 1.2221581998	-2.7263902396	-2.5405514082	-0.143611
O	 1.6252826644	-3.9961924988	-2.048221708	-0.236661
C	 2.0905137429	-3.7434451716	-0.7482313635	 0.028554
O	 1.3007052142	-2.7003031002	-0.2092954828	-0.276228
H	 0.8929486796	 2.0251938742	 0.2495418289	 0.119317
H	-0.429885012	 2.0176856614	-0.9237018765	 0.110599
H	-0.7748181149	 1.9080702116	 0.8064187801	 0.11359
H	 0.3519478162	-0.3511683779	 0.8914130159	 0.112833
H	-1.0468188103	-0.3285282009	-0.1653082946	 0.090735
H	 0.4351401252	-0.0927908191	-2.1489655274	 0.068799
H	 2.4190611473	 0.9854504018	-1.0684173381	 0.116334
H	 2.7288484266	-0.4978165381	-0.1489297499	 0.130623
H	 2.9139109012	-0.477629713	-1.9073712979	 0.109781
H	-0.428923856	-2.2524859838	-1.2258015146	 0.074938
H	 0.4816139509	-2.8819915085	-3.3277479394	 0.118124
H	 2.0779840564	-2.1773910791	-2.9597015191	 0.097543
H	 1.9710511241	-4.652824441	-0.1494185214	 0.114454
H	 3.1522172722	-3.4371027859	-0.7603770814	 0.082886
40.5687	66.5027	86.2473	176.1402	198.6808	227.4517	252.0077	280.3031	322.1569	343.4013	440.8245	608.1153	658.453	741.7342	775.8563	817.8076	868.3253	945.3335	968.1495	977.0262	982.9871	1027.7216	1033.2739	1052.2623	1088.2266	1120.9809	1135.1542	1164.0464	1181.6844	1195.7977	1210.4929	1261.2192	1283.9128	1306.8378	1333.4722	1347.0624	1374.1979	1382.1354	1396.192	1413.6014	1416.282	1438.6144	1485.3345	1494.3623	1501.6772	1507.1677	1509.8505	1518.1845	1548.1803	2935.6331	2981.9982	2990.9429	3003.4988	3020.1669	3031.2209	3049.089	3058.8476	3064.8714	3096.9181	3105.8867	3108.5891	3113.8002	3124.0694
CCC(C)C1COCO1	CC[C@@H](C)[C@H]1COCO1	
InChI=1S/C7H14O2/c1-3-6(2)7-4-8-5-9-7/h6-7H,3-5H2,1-2H3	InChI=1S/C7H14O2/c1-3-6(2)7-4-8-5-9-7/h6-7H,3-5H2,1-2H3/t6-,7-/m1/s1
