19
gdb 65742	2.7721	1.14188	1.00083	3.977	76.2	-0.2449	-0.0321	0.2128	1252.6117	0.156034	-423.047953	-423.03829	-423.037346	-423.083346	34.453	
C	 0.0343324522	 1.6154777074	-0.0255614074	-0.443975
C	 0.0011725782	 0.0803296463	-0.0544490505	 0.185152
C	-1.4273556734	-0.4636246434	 0.1227389172	-0.334024
C	-2.0792343701	-0.0235053168	 1.4219160133	 0.148314
O	-3.1470612211	 0.5316505717	 1.483713678	-0.246505
C	 0.8318551972	-0.52744527	-1.2407530934	-0.285243
C	 1.9918505099	-0.900377463	-0.2694649503	-0.339226
C	 1.0590615962	-0.5353497321	 0.8926660895	 0.375154
O	 1.0793803592	-0.7336433245	 2.0743457967	-0.301464
H	 1.0498050226	 1.9975030732	-0.1710836164	 0.12067
H	-0.5962528189	 2.0206925749	-0.8242533037	 0.131435
H	-0.3360654519	 2.0035998596	 0.9280592235	 0.142941
H	-2.0666509674	-0.1484503166	-0.7088970052	 0.121083
H	-1.3961433535	-1.5625827018	 0.1303987789	 0.117711
H	-1.492117263	-0.2574022786	 2.3347378467	 0.10934
H	 0.3541762525	-1.4030963989	-1.6851933625	 0.113474
H	 1.0834037376	 0.1776426424	-2.0343511537	 0.111697
H	 2.3536572691	-1.9313235348	-0.2736532717	 0.135098
H	 2.8577117845	-0.233657685	-0.3297015589	 0.138366
50.1431	72.5462	85.4936	156.5936	218.3083	231.6617	273.0661	318.8669	363.2061	454.0252	512.0663	526.2383	681.1765	709.	744.747	817.6736	870.1585	923.0713	941.8652	967.7356	999.7655	1028.4512	1067.2043	1087.9876	1145.6179	1166.5857	1199.4119	1210.7007	1233.134	1262.9187	1297.9412	1310.6346	1411.242	1425.7599	1438.0619	1459.0099	1487.4343	1491.9339	1496.1883	1826.9816	1877.7747	2923.4131	3011.8647	3032.4965	3062.1439	3076.1073	3081.7729	3101.7943	3111.2498	3114.0047	3133.8952
CC1(CC=O)CCC1=O	C[C@@]1(CC=O)CCC1=O	
InChI=1S/C7H10O2/c1-7(4-5-8)3-2-6(7)9/h5H,2-4H2,1H3	InChI=1S/C7H10O2/c1-7(4-5-8)3-2-6(7)9/h5H,2-4H2,1H3/t7-/m0/s1
