19
gdb 103005	2.09119	1.40526	1.16772	1.0385	79.42	-0.228	0.0257	0.2536	1183.9696	0.155091	-422.959112	-422.948717	-422.947773	-422.994174	37.689	
C	-0.331483806	 1.3421493758	-0.1870939669	-0.265399
O	 0.043133715	-0.0262023709	-0.0343817599	-0.300008
C	 0.7009055935	-0.5633459508	-1.1556682716	 0.143847
C	 1.8644070932	 0.1349472279	-1.6238378578	 0.30495
C	 2.8361612536	 0.713292763	-2.0366617386	-0.450828
C	 0.6555948983	-2.0904508087	-1.2334756116	-0.134456
C	 0.1193325784	-2.9218259599	-0.090292981	-0.404181
C	-0.2427526252	-1.2763203613	-2.1318572075	 0.062821
O	-1.608762921	-1.1830712694	-1.8880639251	-0.429239
H	 0.5505584666	 1.9805343204	-0.3090427297	 0.134468
H	-0.9947269937	 1.4819106234	-1.0501181173	 0.125723
H	-0.857539433	 1.6195906799	 0.7287247972	 0.130035
H	 3.6976594295	 1.2190520425	-2.3968048146	 0.195648
H	 1.5259179574	-2.5107903576	-1.7295407848	 0.102902
H	-0.7487047887	-2.4608207513	 0.38254661	 0.1223
H	-0.1803140177	-3.9097428737	-0.4545629742	 0.124959
H	 0.8821893423	-3.0604016809	 0.6816780579	 0.12667
H	-0.0264077555	-1.2323644396	-3.1935434943	 0.114221
H	-1.7065568069	-0.8765175189	-0.9769841502	 0.295568
91.6059	115.0051	128.5244	149.243	158.2302	184.6852	220.9721	277.7211	330.1206	413.0134	427.7157	463.5783	554.3467	563.9698	588.03	633.4267	681.3892	702.6379	804.5614	860.8603	963.6861	998.902	1059.4283	1089.1634	1095.5991	1139.3074	1146.7579	1183.2535	1195.9223	1242.9953	1255.9211	1318.6022	1379.2691	1417.1785	1448.163	1473.728	1485.9183	1487.8742	1501.8234	1511.853	2223.4363	3015.2889	3045.4989	3083.4951	3105.2165	3130.0168	3134.8435	3152.5667	3177.1124	3500.4132	3764.2737
COC1(C#C)C(C)C1O	CO[C@@]1(C#C)[C@@H](C)[C@H]1O	
InChI=1S/C7H10O2/c1-4-7(9-3)5(2)6(7)8/h1,5-6,8H,2-3H3	InChI=1S/C7H10O2/c1-4-7(9-3)5(2)6(7)8/h1,5-6,8H,2-3H3/t5-,6+,7-/m0/s1
