17
gdb 71446	4.14632	1.41371	1.27779	3.9814	73.55	-0.2258	0.0183	0.2441	1014.0311	0.137716	-417.968103	-417.960972	-417.960027	-417.999354	28.716	
C	-0.0681332138	 1.478182209	 0.0030670099	-0.511812
C	-0.0073951129	-0.0154348735	 0.0284402434	 0.316127
N	-1.2090307909	-0.8490261604	-0.1903048366	-0.359148
C	-0.4998665105	-1.9810219779	 0.543416179	-0.145731
C	 0.6464635981	-1.0278399361	 0.9757419094	-0.200863
C	 1.1927082915	-0.8402165381	-0.4049567402	 0.053206
O	 1.002714498	-1.9927131598	-1.2128124898	-0.245719
C	 0.0972381188	-2.8080993109	-0.5698712457	 0.492061
N	-0.1919201966	-3.9904170624	-0.8915821872	-0.559968
H	 0.9210684142	 1.9142099152	 0.1720584191	 0.128978
H	-0.4336586611	 1.8264243698	-0.9692072291	 0.1432
H	-0.7410256391	 1.8632878475	 0.7779767739	 0.123032
H	-1.9401985335	-0.5056881913	 0.4301305172	 0.223426
H	-1.0937288949	-2.5326556048	 1.2651701808	 0.102955
H	 1.1882518189	-0.9726521193	 1.9120188272	 0.101608
H	 2.1381571592	-0.3490841763	-0.5942173383	 0.113985
H	 0.3417817046	-4.2817221807	-1.712953133	 0.224663
139.9772	207.6732	224.9549	297.6492	363.5529	423.11	493.0026	586.9057	668.2244	709.7877	734.1438	783.5544	817.9014	851.2988	865.0995	894.6154	909.4999	926.7487	967.5222	977.971	1027.2864	1050.2696	1071.3926	1098.1334	1120.9959	1172.9971	1220.3865	1231.8627	1266.4041	1269.1779	1317.6862	1374.9139	1411.516	1458.7921	1481.1928	1499.856	1795.9628	3027.6131	3090.4362	3109.286	3175.1632	3183.6178	3210.0564	3468.2764	3473.7661
CC12NC3C1C2OC3=N	C[C@]12N[C@@H]3[C@H]1[C@H]2O[C]3[NH]	
InChI=1S/C6H8N2O/c1-6-2-3(8-6)5(7)9-4(2)6/h2-4,7-8H,1H3	InChI=1S/C6H8N2O/c1-6-2-3(8-6)5(7)9-4(2)6/h2-4,7-8H,1H3/t2-,3+,4+,6-/m0/s1
