17
gdb 94481	3.04364	1.08353	0.94942	2.0783	76.27	-0.2375	0.0191	0.2565	1273.2325	0.134297	-417.948962	-417.939534	-417.93859	-417.983869	33.761	
O	 0.5682115124	 0.8825860307	 0.4992106683	-0.435189
C	-0.1457294731	-0.2141318727	-0.0045944263	 0.037705
C	-1.4513342174	 0.1236593134	-0.7917834501	-0.182164
N	-0.891888852	-0.6563429459	-1.9173584773	-0.34619
C	 0.359827602	-0.759524423	-1.3385325224	 0.396429
N	 1.5375810717	-1.0658768029	-1.6877295608	-0.355472
C	 1.7899387547	-1.4553788578	-3.0774610272	-0.304954
C	 1.2323467686	-0.5657275983	-4.1020749267	 0.303474
C	 0.7629106963	 0.1744732223	-4.9266589534	-0.476525
H	 1.4800992745	 0.7717579738	 0.2027393488	 0.298695
H	-0.2953660021	-0.9853621626	 0.7621332216	 0.095009
H	-2.3926019129	-0.2693143731	-0.3992933329	 0.111735
H	-1.5319202646	 1.1974947056	-0.9837045438	 0.123798
H	-1.0637409822	-0.5065344998	-2.9022161095	 0.254163
H	 2.8755303786	-1.5071951244	-3.2167084866	 0.140685
H	 1.4149077223	-2.4754773434	-3.2515510126	 0.13721
H	 0.3795917133	 0.8326851482	-5.6669443791	 0.201591
45.7162	95.3189	121.9777	144.2238	217.4479	244.3484	298.2846	327.0553	416.5366	467.7318	510.0257	616.8754	643.4451	657.5255	705.5715	756.6461	845.5005	916.0992	930.5949	988.0045	998.5449	1044.5007	1069.4659	1144.2267	1173.8239	1197.1896	1216.5758	1256.7564	1298.8473	1340.1695	1365.2718	1379.3986	1394.2635	1473.3455	1513.0422	1804.5247	2222.6963	2993.0541	3021.9952	3052.8621	3054.1187	3111.7648	3501.5741	3588.9726	3783.5206
OC1CNC1=NCC#C	O[C@H]1CNC1=NCC#C	
InChI=1S/C6H8N2O/c1-2-3-7-6-5(9)4-8-6/h1,5,9H,3-4H2,(H,7,8)	InChI=1S/C6H8N2O/c1-2-3-7-6-5(9)4-8-6/h1,5,9H,3-4H2,(H,7,8)/t5-/m0/s1
