18
gdb 49642	3.34442	1.49836	1.32953	4.1391	76.75	-0.2335	0.0219	0.2554	1001.4096	0.149771	-401.926578	-401.919583	-401.918638	-401.958327	27.673	
O	 0.0276228193	 0.0490860774	-0.2346109765	-0.331605
C	 0.0753998851	 1.2493403027	-0.0574125426	 0.126709
N	 1.2074879208	 1.9460042637	 0.2092394507	-0.025769
C	 2.605824255	 1.5149198996	 0.1007636037	-0.010103
C	 3.1235047103	 1.5811859466	-1.3616596992	-0.234366
C	 3.2032462235	 3.1299546083	-1.2602811705	-0.044934
C	 1.8201309377	 3.8328660062	-1.3317026783	-0.234528
C	 1.5174171062	 3.3788877627	 0.1239304666	-0.029786
C	 3.0312016025	 3.0100596743	 0.3009807642	-0.057072
H	-0.8216798087	 1.9040668217	-0.0536563453	 0.065778
H	 2.8792994495	 0.6699572762	 0.7317124783	 0.097617
H	 4.126606255	 1.1481663967	-1.4254732989	 0.10812
H	 2.4917199387	 1.1359231182	-2.1343761128	 0.11617
H	 4.0419686793	 3.6238796394	-1.749486774	 0.074553
H	 1.941912235	 4.9202647908	-1.3673524452	 0.107567
H	 1.1178048082	 3.525722468	-2.1123739901	 0.104365
H	 0.9314495311	 4.0278113434	 0.7769525325	 0.087971
H	 3.6924841815	 3.3905338139	 1.0734474674	 0.079313
64.8755	167.8368	269.3307	335.6482	355.6874	472.5122	530.4033	651.6409	717.9476	764.5231	827.5489	838.6001	840.8473	876.4406	905.6487	954.9534	959.8322	993.745	1003.5732	1035.2554	1079.2525	1107.0791	1113.0063	1114.4466	1163.329	1181.6727	1203.0947	1211.3869	1251.2274	1258.7399	1281.1355	1286.0798	1320.6286	1325.0575	1394.1371	1435.2851	1471.664	1482.0249	1787.4378	2910.5679	3044.5912	3052.9272	3092.4121	3100.5152	3109.2193	3114.0869	3118.8525	3165.151
O=CN1C2CC3CC1C23	O=CN1[C@H]2C[C@H]3C[C@@H]1[C@@H]23	
InChI=1S/C7H9NO/c9-3-8-5-1-4-2-6(8)7(4)5/h3-7H,1-2H2	InChI=1S/C7H9NO/c9-3-8-5-1-4-2-6(8)7(4)5/h3-7H,1-2H2/t4-,5-,6+,7+
