16
gdb 18744	3.17691	2.30594	1.59872	3.2438	65.51	-0.2122	0.017	0.2292	815.9259	0.131534	-379.905637	-379.898525	-379.897581	-379.936924	26.733	
C	-0.2853471101	 1.4845419483	-0.0425234385	-0.32985
N	 0.1053020581	 0.0892765809	-0.004846985	-0.063569
C	 1.194699239	-0.4150761059	-0.8673311359	-0.189171
C	 1.7945673566	-1.1739300463	 0.3467936055	 0.002222
N	 2.7863106646	-0.412125026	 1.1044129075	-0.320991
C	 1.8604539421	 0.3220191561	 1.8328879386	 0.410905
O	 1.9731195285	 1.267714219	 2.56512506	-0.358531
C	 0.6890511702	-0.4976654007	 1.2150442278	-0.157608
H	 0.5421844426	 2.1878142265	 0.1496380449	 0.114546
H	-0.7120672642	 1.7123800006	-1.0249456884	 0.121279
H	-1.0590686152	 1.6638529075	 0.7107532342	 0.131375
H	 0.8279955028	-1.0381605968	-1.6908436683	 0.109979
H	 1.8728244161	 0.3496403615	-1.272967803	 0.0927
H	 1.9647514785	-2.2471134578	 0.2834058327	 0.096245
H	 3.714725327	-0.1272977959	 0.8176149081	 0.244228
H	-0.0079622066	-0.9962089608	 1.8910786497	 0.096241
118.7221	136.1532	201.9802	327.669	341.3725	397.7811	471.7873	539.1282	638.6571	720.7392	772.3117	844.1516	859.6328	903.5791	980.8969	996.5786	1014.3566	1073.0563	1124.6066	1132.3526	1162.9305	1170.0001	1221.6416	1232.0642	1253.2558	1276.7656	1321.6061	1336.12	1357.4222	1453.2603	1486.7388	1502.0534	1508.8934	1880.6898	2966.7668	2996.4906	3054.7055	3062.7396	3095.3129	3104.2643	3132.1665	3565.3952
CN1CC2NC(=O)C12	CN1C[C@H]2NC(=O)[C@@H]12	
InChI=1S/C5H8N2O/c1-7-2-3-4(7)5(8)6-3/h3-4H,2H2,1H3,(H,6,8)	InChI=1S/C5H8N2O/c1-7-2-3-4(7)5(8)6-3/h3-4H,2H2,1H3,(H,6,8)/t3-,4+/m1/s1
