17
gdb 26480	3.68881	1.24657	1.06183	3.3215	74.61	-0.2296	0.0052	0.2347	1143.235	0.137327	-418.013688	-418.005815	-418.004871	-418.046562	29.504	
C	-0.3019894994	 1.3678602341	-0.5839525572	-0.474476
C	-0.0266696349	-0.028581087	-0.0589272582	 0.165155
C	 0.9895001098	-0.8745194851	-0.7606320521	-0.260641
N	 1.2673954988	-0.3276454394	 0.5759453436	-0.333557
C	-1.1564152852	-0.6896188468	 0.6265738957	 0.332823
C	-1.290397401	-1.4134765617	 1.7652148729	-0.196562
N	-2.6170950559	-1.8083126219	 1.9099104239	-0.257083
C	-3.2069077418	-1.3117628694	 0.8748382716	 0.065078
O	-2.3968478141	-0.6169517809	 0.0398496927	-0.189055
H	 0.5717811604	 1.7585736616	-1.1145929845	 0.114045
H	-1.1488553574	 1.3646486101	-1.2760810789	 0.142128
H	-0.5437725206	 2.0514284477	 0.2369411527	 0.131788
H	 0.8632946877	-1.9522688566	-0.7937827246	 0.126956
H	 1.4937371127	-0.4419479664	-1.6213037931	 0.114717
H	 1.876208062	 0.4840383829	 0.5060487568	 0.234113
H	-0.529335824	-1.6724019455	 2.4816870343	 0.13794
H	-4.2470094468	-1.3759463358	 0.5962100044	 0.146631
56.5918	140.7335	180.4497	219.4989	311.8871	346.1212	402.0128	488.0589	552.6401	667.3815	707.1077	827.4344	827.6717	845.0027	876.9301	930.2963	942.2267	962.5497	986.8637	1000.7715	1052.6685	1112.0574	1117.6463	1129.6407	1140.2529	1182.5027	1241.1182	1262.7984	1322.4984	1338.2914	1382.6096	1414.1048	1482.1784	1501.3613	1508.719	1549.3939	1642.5466	3035.1808	3103.7403	3108.5524	3115.6596	3200.9978	3275.8473	3286.0865	3500.7036
CC1(CN1)C1=CN=CO1	C[C@]1(CN1)c1cnco1	
InChI=1S/C6H8N2O/c1-6(3-8-6)5-2-7-4-9-5/h2,4,8H,3H2,1H3	InChI=1S/C6H8N2O/c1-6(3-8-6)5-2-7-4-9-5/h2,4,8H,3H2,1H3/t6-/m0/s1
