17
gdb 64655	3.62434	1.21248	1.09352	1.2504	74.15	-0.2403	0.0395	0.2799	1130.2581	0.133781	-421.717233	-421.709063	-421.708118	-421.749902	32.124	
O	 0.0491194026	 1.4185661216	-0.0383405367	-0.486691
C	 0.0385601144	 0.0218359953	 0.0026577827	 0.44135
C	 1.0462365945	-0.5906986576	-0.9816168625	-0.417422
C	 2.3830150095	-0.0518543813	-0.7568110872	 0.259279
C	 3.4513729629	 0.4548425195	-0.5330643681	-0.434318
C	-0.1368145433	-0.7012239626	 1.3891543794	-0.01475
C	-1.5432625392	-0.0714501935	 1.515813107	-0.236871
C	-1.3720957073	-0.6238028326	 0.079278845	-0.003522
O	-0.7440187681	-1.8351287471	 0.6540414791	-0.315727
H	 0.9731307302	 1.7004323234	-0.0643207511	 0.288531
H	 1.0347363441	-1.6774528959	-0.8725879348	 0.159633
H	 0.7269662326	-0.3544563133	-2.0046097978	 0.136095
H	 4.414122154	 0.8660123901	-0.3536989859	 0.202593
H	 0.5991477014	-0.9375288629	 2.1581112577	 0.096538
H	-2.2365217532	-0.6424733282	 2.1333410391	 0.107812
H	-1.6153222641	 1.0069227548	 1.6474295302	 0.123058
H	-2.1110659811	-0.7647327196	-0.7105224461	 0.094414
69.8412	123.343	238.1719	287.9777	350.2234	390.1606	403.3894	411.9438	456.7928	575.8843	618.329	625.261	659.318	707.7251	781.0438	822.2226	876.1107	886.0136	916.4445	951.9167	980.8707	1019.9998	1043.4538	1083.5285	1128.8041	1147.3898	1173.7194	1193.0722	1210.2373	1242.0107	1268.8723	1277.8017	1304.9547	1416.1096	1468.9045	1477.8797	2228.6957	3033.4121	3092.5587	3109.6519	3113.073	3121.8659	3176.3493	3503.0826	3754.772
OC1(CC#C)C2CC1O2	O[C@@]1(CC#C)[C@H]2C[C@@H]1O2	
InChI=1S/C7H8O2/c1-2-3-7(8)5-4-6(7)9-5/h1,5-6,8H,3-4H2	InChI=1S/C7H8O2/c1-2-3-7(8)5-4-6(7)9-5/h1,5-6,8H,3-4H2/t5-,6+,7+
