19
gdb 60601	3.83189	1.02271	0.95521	3.2872	70.78	-0.2419	0.0704	0.3122	1275.1396	0.158923	-460.106493	-460.097789	-460.096845	-460.140731	31.783	
O	-0.3908854489	 1.2781751675	 0.0453770125	-0.431675
C	-0.101978061	-0.1059583862	 0.0058586416	 0.05364
C	 0.6484575199	-0.4515188104	-1.274365537	 0.06625
C	 0.4084698399	 0.2721672407	-2.5251466014	-0.188047
O	 1.5613355389	 0.5639592395	-1.7157996536	-0.248499
C	 0.6672874367	-0.578641895	 1.2438720471	-0.042472
C	 1.9639155304	 0.1690967393	 1.6375520495	-0.085048
O	 1.4280298192	 0.5110356745	 2.9289867308	-0.270751
C	 0.1547763949	-0.0921904708	 2.6173112169	-0.09373
H	 0.4034551932	 1.7259912585	-0.2781996403	 0.296508
H	-1.0721694244	-0.6217934003	-0.0119470013	 0.09693
H	 1.0458206867	-1.4654535494	-1.3301443606	 0.098999
H	 0.6275767969	-0.2088391967	-3.4760823723	 0.123355
H	-0.3457716044	 1.054551488	-2.5461022013	 0.132728
H	 0.7988784065	-1.6635112036	 1.1914066385	 0.078596
H	 2.8687223491	-0.4455129306	 1.7142422232	 0.100701
H	 2.1960877875	 1.058340994	 1.0384014723	 0.101371
H	-0.6460814196	 0.6538033579	 2.5602772487	 0.115391
H	-0.1178526615	-0.8722101471	 3.3382276967	 0.095756
66.767	80.7667	96.5188	183.873	251.8773	292.4166	319.224	379.9459	490.0661	583.7943	686.0083	742.6204	787.5998	860.8027	885.5391	896.9455	941.7313	980.3082	1004.911	1035.4181	1047.2332	1057.1419	1102.6908	1120.4119	1154.9841	1163.958	1165.0082	1170.572	1175.7038	1250.5752	1262.5594	1294.0082	1313.5526	1336.8365	1353.3595	1395.6273	1422.5056	1439.7531	1508.9727	1517.3247	1536.8549	3013.3185	3017.3542	3023.7274	3050.9302	3063.0691	3075.2353	3101.5118	3112.2971	3197.7643	3747.0561
OC(C1CO1)C1COC1	O[C@@H]([C@H]1CO1)C1COC1	
InChI=1S/C6H10O3/c7-6(5-3-9-5)4-1-8-2-4/h4-7H,1-3H2	InChI=1S/C6H10O3/c7-6(5-3-9-5)4-1-8-2-4/h4-7H,1-3H2/t5-,6-/m1/s1
