12
gdb 43914	2.96017	1.50508	1.15994	2.5217	59.97	-0.2904	-0.0447	0.2457	990.1349	0.077218	-472.6122	-472.605162	-472.604217	-472.644055	25.553	
O	-0.1164876223	 0.1988664905	-0.5516228777	-0.288234
C	 0.0170494783	 1.2919224109	-0.1255545549	 0.460473
O	-0.970095897	 2.1290231793	 0.3935638989	-0.276389
C	-0.021733873	 3.1957444502	 0.6658543175	 0.256756
C	 0.6624172087	 3.0429147091	 2.0397334739	-0.122152
O	 1.6677748532	 2.1627464194	 1.4767947532	-0.270977
C	 1.1439367707	 2.3089621746	 0.1509573431	-0.126946
C	-0.437266753	 4.4846270035	 0.170822373	 0.243131
N	-0.7399150866	 5.5338076708	-0.2064082567	-0.315172
H	 1.1142747726	 3.9642981926	 2.4183751372	 0.146342
H	 0.0467196432	 2.5627460725	 2.8047153635	 0.149024
H	 1.8846321452	 2.5400639066	-0.6134273311	 0.144145
105.9993	159.2455	199.884	248.6097	376.0894	448.7293	501.626	530.2267	578.8757	699.4439	760.0765	832.4769	872.1451	951.648	993.8516	1008.1616	1041.4502	1068.2769	1140.5388	1159.2722	1179.6101	1263.552	1274.1695	1352.283	1497.171	1967.2161	2366.4869	3056.4997	3122.8379	3138.1151
O=C1OC2(COC12)C#N	O=C1O[C@]2(CO[C@@H]12)C#N	
InChI=1S/C5H3NO3/c6-1-5-2-8-3(5)4(7)9-5/h3H,2H2	InChI=1S/C5H3NO3/c6-1-5-2-8-3(5)4(7)9-5/h3H,2H2/t3-,5-/m0/s1
