19
gdb 92613	4.1103	1.26818	1.04097	3.9723	77.36	-0.216	0.0565	0.2724	1176.3169	0.162383	-419.233483	-419.225785	-419.224841	-419.265692	29.55	
C	-0.2305522019	 1.4952909124	-0.0668190542	-0.384583
C	 0.1574498868	 0.0277627159	 0.0591291482	 0.057362
C	 0.9382335998	-0.5284016738	-1.1806697981	-0.207135
N	 1.8204253792	-1.4918749303	-0.5281408138	-0.12144
C	 3.1597625322	-1.8710014072	-0.9386395559	-0.195882
C	 3.7236961901	-2.3090274738	 0.4300401763	-0.094532
O	 2.9999561579	-1.5221471357	 1.4020602382	-0.261591
C	 1.9112532032	-1.0302943397	 0.7862242802	 0.484878
N	 1.0486719113	-0.2088688983	 1.2215908682	-0.39033
H	 0.6605602938	 2.1202542228	-0.1849784092	 0.114946
H	-0.8851331699	 1.6552578025	-0.9309091793	 0.105579
H	-0.7581972645	 1.8263961877	 0.8314403313	 0.129611
H	-0.756404608	-0.5687470708	 0.1969982976	 0.082005
H	 0.2912443457	-0.9961253266	-1.9268627817	 0.110578
H	 1.5205326594	 0.270292231	-1.6708290412	 0.090454
H	 3.1677409342	-2.6865978035	-1.6668201975	 0.120037
H	 3.7241545783	-1.0209307709	-1.3569800963	 0.103707
H	 3.5295952097	-3.369366779	 0.6231306919	 0.126655
H	 4.7888220027	-2.1064893028	 0.5522705554	 0.12968
99.1285	186.1955	197.6795	227.9628	282.7954	302.0716	461.6153	477.9809	599.0992	678.1546	724.5897	742.0522	832.6559	839.7608	892.5122	910.0937	944.0391	956.1696	1044.8427	1098.1248	1105.7893	1132.0311	1135.7465	1157.157	1201.1682	1225.7131	1245.1617	1249.2742	1259.2763	1314.3858	1324.5971	1369.6945	1386.7669	1406.1662	1438.831	1485.8952	1497.6011	1510.3536	1517.6971	1532.5149	1761.634	2960.0959	2966.4955	2990.954	3033.0403	3051.9167	3083.7212	3089.0363	3102.0896	3120.459	3124.9745
CC1CN2CCOC2=N1	C[C@H]1CN2CCO[C]2[N]1	
InChI=1S/C6H10N2O/c1-5-4-8-2-3-9-6(8)7-5/h5H,2-4H2,1H3	InChI=1S/C6H10N2O/c1-5-4-8-2-3-9-6(8)7-5/h5H,2-4H2,1H3/t5-/m0/s1
