22
gdb 57956	3.30891	0.94394	0.83873	1.9683	83.43	-0.2339	-0.0178	0.2161	1486.6984	0.191896	-404.335926	-404.325497	-404.324553	-404.372449	37.284	
C	 0.3873407138	 1.3951766656	-0.7047461236	-0.386071
C	 0.0101813246	 0.1644181294	 0.1208332293	-0.073686
C	 0.8184388084	-1.0826075259	-0.3001679721	-0.389747
C	 0.1801094589	 0.4146414684	 1.615545183	 0.392524
O	 0.7534202153	 1.3853289073	 2.055716241	-0.307959
C	-0.3918309113	-0.6321867487	 2.5864208691	-0.243038
N	 0.6827014889	-1.5284756609	 3.0077299807	-0.071865
C	 1.5401701649	-1.032396792	 4.0821006686	-0.209784
C	 0.5482555337	-2.1114094098	 4.3417280026	-0.223813
H	 1.4380546462	 1.6552728198	-0.5499123932	 0.130264
H	 0.2313000916	 1.2027433564	-1.7706545451	 0.105795
H	-0.2092400837	 2.2655612436	-0.4188276019	 0.119904
H	-1.0546489994	-0.0676253858	-0.0316777232	 0.087231
H	 1.8918340909	-0.8879369748	-0.2077799243	 0.127211
H	 0.588033813	-1.9523699411	 0.3191181774	 0.140116
H	 0.6071667676	-1.3289859382	-1.3451029635	 0.115138
H	-0.8412315631	-0.0810988611	 3.4296783507	 0.10188
H	-1.1714837005	-1.2343742172	 2.1080462603	 0.10507
H	 2.5954277792	-1.2687792836	 3.9836055204	 0.119369
H	 1.3298528819	-0.0420046501	 4.4770882181	 0.130721
H	-0.3343644304	-1.8500673278	 4.9229538259	 0.111525
H	 0.8653360495	-3.1458702434	 4.4356751296	 0.119215
43.5593	47.3457	81.2831	160.3884	192.8646	213.4612	232.4181	294.3802	304.3589	363.006	379.4622	437.9725	615.1887	659.8137	759.1146	795.5672	842.4919	889.0262	902.5701	933.1156	966.7283	980.471	1018.4113	1036.7483	1102.6679	1110.1923	1119.4014	1124.2776	1143.3374	1173.5599	1181.573	1209.6112	1271.0984	1306.5508	1315.1983	1364.8473	1371.9161	1400.7858	1420.8451	1480.384	1484.2134	1487.036	1495.4606	1499.1398	1507.3486	1524.1802	1802.817	2961.6817	2995.827	3039.5158	3044.776	3067.9928	3099.9125	3107.509	3115.0689	3115.4116	3121.8752	3128.7437	3184.8093	3203.3311
CC(C)C(=O)CN1CC1	CC(C)C(=O)CN1CC1	
InChI=1S/C7H13NO/c1-6(2)7(9)5-8-3-4-8/h6H,3-5H2,1-2H3	InChI=1S/C7H13NO/c1-6(2)7(9)5-8-3-4-8/h6H,3-5H2,1-2H3
