16
gdb 29155	3.16337	1.36647	0.95635	3.4992	79.53	-0.1728	-0.0131	0.1598	1165.1069	0.127235	-434.137263	-434.129202	-434.128258	-434.169315	31.944	
N	 0.0211250534	 1.4615492209	 0.1683436055	-0.5955
C	-0.0040818534	 0.0566842271	 0.0397796471	 0.257368
C	-1.1604945976	-0.6611929651	 0.0142860508	-0.092946
N	-1.1024910629	-2.0436086383	-0.017029731	-0.373525
C	 0.0398662697	-2.8051995632	-0.055038277	 0.4059
O	 0.0209958506	-4.0367078199	-0.0675592765	-0.433094
C	 1.280585711	-2.0176605024	-0.0608768197	 0.194744
N	 2.4145236045	-2.7887834449	-0.1592910376	-0.578419
C	 1.2367132233	-0.6519798494	 0.0054012966	-0.229873
H	 0.7278942936	 1.8905619823	-0.416467395	 0.243555
H	-0.8740655585	 1.8896972574	-0.030521644	 0.239526
H	-2.149053675	-0.2230925966	 0.0296569606	 0.1081
H	-1.9589365393	-2.578225928	-0.0060484553	 0.257457
H	 2.2320208762	-3.7652948079	 0.0347533764	 0.266492
H	 3.2709358162	-2.4183704907	 0.2194949376	 0.248276
H	 2.1607420181	-0.0801939415	 0.0374077517	 0.08194
134.8259	207.0454	225.1586	300.8656	347.993	354.9457	395.2889	432.5516	472.1945	512.4191	567.2006	599.3773	618.5372	674.3154	708.6807	723.8456	772.4804	790.9827	825.881	877.0863	992.242	1085.7466	1142.9281	1177.4179	1233.305	1286.8129	1336.5896	1406.1656	1458.4421	1492.6927	1589.8851	1633.0489	1656.4589	1692.3927	1749.5084	3155.7193	3219.1916	3528.6596	3548.5707	3619.6752	3619.9825	3682.7412
NC1=CNC(=O)C(N)=C1	Nc1c[nH]c(=O)c(N)c1	
InChI=1S/C5H7N3O/c6-3-1-4(7)5(9)8-2-3/h1-2H,6-7H2,(H,8,9)	InChI=1S/C5H7N3O/c6-3-1-4(7)5(9)8-2-3/h1-2H,6-7H2,(H,8,9)
