17
gdb 86681	2.148	1.57061	1.2039	2.2602	69.23	-0.2516	-0.036	0.2156	1089.8227	0.132792	-458.924092	-458.915296	-458.914352	-458.95832	31.488	
C	-0.5974228934	 1.4085329275	-0.0323371478	-0.407092
C	-0.0532397614	-0.0045718844	 0.0026308892	 0.074698
O	 1.1303474616	-0.1625980127	-0.8306174275	-0.292812
C	 1.9479608939	-0.5948584647	 0.2576662515	-0.03807
C	 3.1183814164	 0.3159997015	 0.5627466811	 0.135627
O	 3.2855349206	 1.4039461804	 0.0809490765	-0.23444
C	 0.7549350098	-0.4498357894	 1.2240920706	 0.333718
C	 0.6730074556	-0.1061053003	 2.6419911066	-0.257449
O	 0.3493794687	-1.4207691629	 2.1501116137	-0.255286
H	 0.179301816	 2.1254588359	 0.246390915	 0.139964
H	-0.9431877416	 1.6503507356	-1.0416769315	 0.137337
H	-1.4468779426	 1.5098023594	 0.6517066522	 0.119865
H	-0.8205759151	-0.7395035942	-0.2731041948	 0.098326
H	 2.2979638964	-1.6323472005	 0.1535561834	 0.109798
H	 3.818714526	-0.1069031962	 1.3214671194	 0.077519
H	 1.577742772	-0.0449388307	 3.2444346363	 0.127835
H	-0.1714124129	 0.4741190559	 3.009083496	 0.130462
46.392	82.3742	195.5616	205.1536	220.9815	232.8216	299.8084	371.9747	420.1618	507.6131	549.2506	741.8144	779.1133	840.1451	875.4212	895.2059	921.8345	939.4997	1014.653	1076.6583	1090.5354	1115.8123	1117.1732	1136.033	1164.9719	1175.996	1218.3773	1289.2679	1327.6052	1381.0884	1404.9028	1414.1217	1439.5979	1482.941	1495.0392	1540.9561	1838.8277	2852.3732	3008.8893	3027.0798	3039.558	3091.4729	3111.5928	3128.1541	3180.0162
CC1OC(C=O)C11CO1	C[C@H]1O[C@@H](C=O)[C@]21CO2	
InChI=1S/C6H8O3/c1-4-6(3-8-6)5(2-7)9-4/h2,4-5H,3H2,1H3	InChI=1S/C6H8O3/c1-4-6(3-8-6)5(2-7)9-4/h2,4-5H,3H2,1H3/t4-,5+,6-/m1/s1
