16
gdb 35828	2.07529	1.60422	1.02374	4.0754	84.13	-0.2456	-0.0365	0.2091	1161.5915	0.124511	-363.612966	-363.604638	-363.603694	-363.646289	30.85	
C	 0.0240854161	-1.203534282	-0.3541004661	-0.40413
C	-0.0299979182	-0.0115732562	-0.1880143311	 0.236969
C	-0.0307511583	 1.389872028	-0.0077488668	 0.181032
C	-1.087618007	 2.1980319459	 0.1555562722	-0.166947
C	-0.7001943333	 3.6376523388	 0.3519309639	-0.250563
C	 0.7899891601	 3.6655188134	-0.0630632399	-0.23346
C	 1.2795244557	 2.1903503093	 0.0555180209	-0.267637
C	 2.0031477067	 1.9307994172	 1.3052572979	 0.28191
N	 2.5713606197	 1.7425900059	 2.2941621483	-0.326678
H	 0.0579036999	-2.256323632	-0.4897040361	 0.200514
H	-2.114081884	 1.8519740371	 0.1738383657	 0.11378
H	-1.308737878	 4.3242680564	-0.2460019478	 0.119011
H	-0.8418500785	 3.9336360891	 1.4005674366	 0.132648
H	 0.875961763	 3.9680307294	-1.1098551413	 0.121648
H	 1.3938456015	 4.3502023632	 0.5339333735	 0.129005
H	 1.9485434746	 1.9208651664	-0.76820546	 0.132897
66.9866	114.128	157.4149	195.4946	239.2206	358.8778	449.7174	478.1947	531.9846	574.3701	604.5574	649.2842	659.7575	691.8628	796.1697	858.0664	878.6295	929.8884	934.9653	990.8925	1044.3464	1065.7664	1144.3641	1179.9304	1232.6157	1248.3903	1280.7328	1315.1101	1338.8137	1347.9883	1479.8741	1496.5759	1677.353	2226.0268	2354.161	3018.133	3057.0037	3064.1848	3078.5695	3130.3249	3211.1836	3501.9788
C#CC1=CCCC1C#N	C#CC1=CCC[C@H]1C#N	
InChI=1S/C8H7N/c1-2-7-4-3-5-8(7)6-9/h1,4,8H,3,5H2	InChI=1S/C8H7N/c1-2-7-4-3-5-8(7)6-9/h1,4,8H,3,5H2/t8-/m0/s1
