21
gdb 86789	3.08428	0.9869	0.84484	2.2445	84.87	-0.241	0.0561	0.2971	1442.4589	0.179895	-387.04754	-387.037456	-387.036511	-387.083214	37.07	
C	 0.2132326135	 1.4853728057	-0.2690420728	-0.403481
C	 0.0879967087	 0.0110884769	 0.0573030619	 0.161988
O	 0.9230911867	-0.814530558	-0.7899996104	-0.306134
C	 1.3949899182	-1.5790524656	 0.3356438419	 0.152868
C	 2.9159723254	-1.759151599	 0.3289696176	-0.379941
C	 3.3676804146	-2.6460017525	-0.7359172409	 0.297339
C	 3.7233447879	-3.388900505	-1.6108199894	-0.426806
C	 0.7344743483	-0.5927454761	 1.3390054831	-0.093976
C	 1.6387110475	 0.3021232629	 2.1797316289	-0.406027
H	 1.2455392739	 1.8334533488	-0.1828216383	 0.119216
H	-0.116624346	 1.6611640968	-1.2978657017	 0.130185
H	-0.4184139114	 2.0846543894	 0.3956022241	 0.114947
H	-0.9646514879	-0.2939195578	-0.0413392723	 0.07076
H	 0.9251436714	-2.5725823737	 0.3544053286	 0.079817
H	 3.3962474276	-0.7801751184	 0.2251329054	 0.131083
H	 3.2235730876	-2.1655748408	 1.3019799222	 0.128067
H	 4.0411742443	-4.0369150461	-2.3892708493	 0.193346
H	 0.0072586555	-1.0807524568	 1.9934276108	 0.075622
H	 2.3967186135	 0.8171424402	 1.5834598584	 0.124623
H	 1.0499969643	 1.0673239948	 2.6960035878	 0.117682
H	 2.1592742365	-0.281509296	 2.9463122545	 0.118821
39.3585	60.7666	115.7627	206.6272	209.6859	231.3914	272.028	334.835	354.5413	373.0709	456.141	477.1853	528.8404	616.2841	636.1917	751.0394	771.3143	833.1706	886.3179	910.8031	955.709	993.0937	1019.8598	1044.1026	1059.5385	1097.2289	1131.6677	1166.2009	1183.3927	1225.8262	1255.6137	1280.7511	1299.7884	1348.6737	1376.3148	1377.4488	1399.7364	1412.9349	1428.1763	1454.4803	1479.6273	1490.1842	1500.9399	1509.0134	2241.1243	2982.7246	2999.2554	3020.3901	3036.289	3040.1253	3066.8161	3071.284	3098.1902	3106.6372	3112.5933	3125.3357	3508.3315
CC1OC(CC#C)C1C	C[C@H]1O[C@@H](CC#C)[C@H]1C	
InChI=1S/C8H12O/c1-4-5-8-6(2)7(3)9-8/h1,6-8H,5H2,2-3H3	InChI=1S/C8H12O/c1-4-5-8-6(2)7(3)9-8/h1,6-8H,5H2,2-3H3/t6-,7+,8-/m0/s1
