19
gdb 71902	2.35571	1.80811	1.61683	1.939	74.45	-0.2252	0.0728	0.298	954.9233	0.158917	-422.98142	-422.973352	-422.972408	-423.013357	32.376	
O	-0.0065744336	 1.4005434803	 0.0188929005	-0.483177
C	 0.0014708061	 0.0049612533	 0.0039892641	 0.378786
C	 0.4634774301	-0.7197276652	-1.286872829	-0.291351
C	-0.6923828736	-1.7468900523	-1.139786829	-0.118318
C	-0.4292555716	-2.8037599287	-0.0382511749	-0.223025
C	-0.7528779489	-1.7708311791	 1.0698751855	-0.118366
C	 0.3925989392	-0.7478243255	 1.3023048955	-0.29105
C	-1.3399051731	-0.8077350858	-0.0415043387	 0.359356
O	-2.5624194038	-0.1768666994	-0.0681613618	-0.470657
H	 0.9076444511	 1.7060322337	 0.0352913553	 0.275073
H	 0.286948455	-0.06339295	-2.1439487823	 0.108041
H	 1.4875410321	-1.1063499791	-1.3268883772	 0.083655
H	-1.1921123403	-2.0684870746	-2.0540985564	 0.065869
H	-1.1842065215	-3.595875278	-0.067545102	 0.093957
H	 0.5609340524	-3.2706500494	-0.0162010665	 0.090257
H	-1.3018464739	-2.1118518614	 1.9482079514	 0.065843
H	 1.4131376328	-1.1358535143	 1.390185656	 0.083536
H	 0.1690187133	-0.1098237956	 2.1622001613	 0.108188
H	-3.2553964417	-0.8462748389	-0.0928462318	 0.283383
143.7802	199.4882	205.3294	251.6689	260.2676	382.6288	398.016	417.527	452.9439	550.7335	598.6299	664.733	729.8391	825.4041	830.7884	880.4891	907.832	925.6019	932.806	969.7741	1022.9816	1029.4837	1041.9585	1061.27	1089.8611	1124.8116	1164.7536	1173.2952	1217.0675	1221.4048	1232.0082	1249.8771	1282.8835	1296.7307	1297.6966	1321.1414	1340.8464	1427.4233	1469.8912	1478.2895	1497.1245	3035.5511	3037.3053	3041.1574	3086.4343	3095.1116	3097.5778	3102.1194	3106.6482	3791.1394	3794.4197
OC12CC3CC(C1)C23O	O[C@@]12C[C@H]3C[C@@H](C1)[C@@]23O	
InChI=1S/C7H10O2/c8-6-2-4-1-5(3-6)7(4,6)9/h4-5,8-9H,1-3H2	InChI=1S/C7H10O2/c8-6-2-4-1-5(3-6)7(4,6)9/h4-5,8-9H,1-3H2/t4-,5+,6+,7-
