15
gdb 128532	2.78331	1.32064	0.90081	3.5104	73.59	-0.2342	-0.0569	0.1773	1220.1116	0.113543	-453.963988	-453.955829	-453.954885	-453.997239	28.948	
C	-0.0292372659	 1.4178265575	-0.0130204497	-0.256734
O	-0.0001639664	-0.0030485543	-0.0072395764	-0.259652
C	 0.6251248141	-0.5741806976	 1.0369625804	 0.215076
C	 0.7532292495	-1.9557412516	 1.2077342551	 0.171674
N	 1.4433937083	-2.1021562009	 2.3775160364	-0.233849
N	 1.7613960992	-0.9541301186	 2.9576762132	-0.197989
C	 1.2696367159	-0.0014041177	 2.1534072561	-0.125241
C	 0.3170924543	-3.0932694155	 0.4260350099	 0.077589
O	 0.5319203979	-4.2459043481	 0.7521791831	-0.310446
H	 0.9856085326	 1.8333514013	-0.038723192	 0.13279
H	-0.5650804761	 1.7100695581	-0.9165435036	 0.144986
H	-0.5569940783	 1.8054977597	 0.8670036279	 0.13278
H	 1.7031959843	-2.984454101	 2.789623334	 0.291901
H	 1.3997782767	 1.0374734493	 2.41029906	 0.124115
H	-0.2326674462	-2.8379527704	-0.5010011645	 0.092999
80.965	139.9563	166.2006	196.0948	246.7	254.961	367.5972	386.3253	567.3005	594.8174	664.6769	695.724	724.3119	804.0804	841.7833	956.0103	1031.5128	1067.1666	1146.7009	1179.4594	1206.1667	1213.2099	1273.7779	1312.1339	1373.1837	1404.8056	1457.891	1473.7072	1489.0143	1503.8489	1543.5239	1614.6656	1759.6178	2941.2078	3013.1414	3076.555	3147.2958	3266.3011	3657.155
COC1=C(NN=C1)C=O	COc1c([nH]nc1)C=O	
InChI=1S/C5H6N2O2/c1-9-5-2-6-7-4(5)3-8/h2-3H,1H3,(H,6,7)	InChI=1S/C5H6N2O2/c1-9-5-2-6-7-4(5)3-8/h2-3H,1H3,(H,6,7)
