19
gdb 74477	3.0613	1.41117	1.10661	2.1592	82.88	-0.223	0.0093	0.2323	1143.7629	0.159353	-385.873044	-385.865103	-385.864158	-385.905236	31.454	
C	 0.0076500871	 1.4947264108	 0.0722472043	-0.494525
C	-0.014846628	 0.0018070958	-0.002545874	 0.320841
C	-0.0202614266	-0.7639657433	-1.1009179941	-0.286605
C	-0.054032809	-2.2155305045	-0.7574918301	 0.461232
C	-0.6969956425	-3.2437252494	-1.5911152419	-0.25636
O	 0.7251718812	-3.1330526089	-1.5482000478	-0.286667
C	 0.0241931849	-2.2867187425	 0.7487208259	-0.141869
C	 1.2581216568	-1.7021322276	 1.3942485895	-0.286681
C	 0.0136661934	-0.8525019268	 1.2333378019	-0.141004
H	 0.8905012635	 1.8473148083	 0.6200916581	 0.132132
H	 0.0141673481	 1.9490922011	-0.9217674281	 0.126211
H	-0.867017602	 1.875201427	 0.6150157085	 0.127972
H	 0.0356138403	-0.4149746963	-2.1252993187	 0.096877
H	-1.1135409065	-4.1331858266	-1.1166739774	 0.108745
H	-1.1648106464	-2.9633945606	-2.5350146002	 0.108087
H	-0.5131949036	-3.0695841101	 1.2696079656	 0.089179
H	 1.4982947251	-2.0588488311	 2.3904049967	 0.111674
H	 2.1149695143	-1.4780396045	 0.7680044006	 0.12406
H	-0.5355545601	-0.545060961	 2.116650391	 0.086699
117.049	182.5892	183.2584	241.4282	278.6084	364.4677	422.2807	480.3353	514.8467	594.4144	618.7186	767.506	805.8116	827.0214	837.0214	870.0998	895.3204	937.436	948.332	989.4337	1012.0977	1039.5934	1060.6491	1068.2928	1086.1351	1096.8683	1128.3946	1146.2947	1174.7052	1198.6773	1235.2709	1296.5556	1319.5848	1371.8741	1412.9902	1431.0916	1477.7114	1478.4008	1487.7253	1526.1858	1700.981	3019.3862	3065.8453	3065.9324	3115.3972	3128.7202	3151.1867	3167.2215	3185.1192	3202.7558	3220.1841
CC1=CC2(CO2)C2CC12	CC1=C[C@]2(CO2)[C@H]2C[C@@H]12	
InChI=1S/C8H10O/c1-5-3-8(4-9-8)7-2-6(5)7/h3,6-7H,2,4H2,1H3	InChI=1S/C8H10O/c1-5-3-8(4-9-8)7-2-6(5)7/h3,6-7H,2,4H2,1H3/t6-,7-,8-/m0/s1
