21
gdb 59052	3.13888	1.0509	0.94714	2.0249	81.52	-0.2361	0.0214	0.2575	1346.3829	0.182577	-424.231264	-424.222	-424.221056	-424.26539	34.956	
C	 0.0647040239	 1.5044203178	 0.18188295	-0.408542
C	-0.0365860912	-0.0174139522	 0.0095018714	 0.037516
O	-1.3970246658	-0.4243778904	-0.1560555802	-0.440271
C	 0.7216449417	-0.5146234214	-1.1983083571	 0.309596
C	 1.919031483	-1.0920958826	-1.1024030589	-0.181149
C	 2.678738332	-1.5763385704	-2.308684136	-0.252465
C	 1.7397260046	-1.6632684793	-3.5139629109	-0.079144
O	 0.9617203647	-0.4863272673	-3.6347606974	-0.247767
C	 0.0678396687	-0.3211580052	-2.5496874422	-0.154095
H	 1.1057466593	 1.8077207809	 0.3250596798	 0.125826
H	-0.3346009143	 2.0292973339	-0.690704345	 0.12776
H	-0.503192496	 1.8275499755	 1.0632363316	 0.104333
H	 0.3930494757	-0.4938526792	 0.9050920222	 0.067637
H	-1.9204935353	 0.0100892302	 0.5245860236	 0.282281
H	 2.3800780428	-1.2254341822	-0.125487783	 0.077159
H	 3.5159018278	-0.8992573505	-2.5287551154	 0.11288
H	 3.1230571716	-2.5605973364	-2.1123786668	 0.101345
H	 2.2958548997	-1.7633332778	-4.4504392983	 0.1028
H	 1.0848921384	-2.544713187	-3.410707681	 0.089099
H	-0.7877154829	-1.0106208658	-2.6394226301	 0.113898
H	-0.3370935783	 0.6919008894	-2.6450464363	 0.111303
58.7224	105.012	188.6921	215.378	249.9837	277.5274	283.0563	337.6012	363.8877	462.3065	497.2578	544.4696	559.8659	655.0274	800.4544	869.9033	877.7705	904.1895	937.1975	970.1857	1004.4281	1035.1416	1051.2495	1080.1249	1101.0987	1121.0435	1144.9205	1167.9009	1226.7497	1250.5317	1265.8825	1314.7414	1349.8575	1357.4723	1364.3149	1398.1151	1402.9905	1420.259	1421.5198	1470.625	1479.133	1492.0217	1498.38	1501.5305	1742.7634	2966.092	2969.0905	2974.4603	3010.0183	3026.3481	3046.0293	3064.7463	3084.9559	3096.3186	3123.5646	3139.4839	3819.6787
CC(O)C1=CCCOC1	C[C@@H](O)C1=CCCOC1	
InChI=1S/C7H12O2/c1-6(8)7-3-2-4-9-5-7/h3,6,8H,2,4-5H2,1H3	InChI=1S/C7H12O2/c1-6(8)7-3-2-4-9-5-7/h3,6,8H,2,4-5H2,1H3/t6-/m1/s1
