16
gdb 28829	3.46722	1.25465	0.92183	6.3052	89.25	-0.2051	-0.0617	0.1434	1202.2495	0.126863	-400.799298	-400.791634	-400.79069	-400.831484	29.902	
N	 0.0075646316	 1.4366936677	 0.135765046	-0.561957
C	-0.0378967795	 0.0558745249	 0.0490328199	 0.296251
C	-1.2522818044	-0.587725124	 0.03616607	-0.172609
C	-1.5150279068	-1.9809471009	 0.0152357186	-0.053887
C	-0.6885469347	-3.0635704102	-0.0188971044	-0.196192
C	 0.7649983712	-3.1321055259	-0.0418880746	 0.317939
O	 1.3470897027	-4.215508651	-0.0855840186	-0.382708
C	 1.5800647083	-1.9011221713	-0.0084894954	-0.151508
C	 1.2518460624	-0.591873452	 0.0325638853	-0.108061
H	 0.8390089495	 1.8915070079	-0.2065121973	 0.259327
H	-0.8422561839	 1.9353747718	-0.0770021434	 0.258444
H	-2.1321130562	 0.0516463557	 0.0496061528	 0.079564
H	-2.5776830281	-2.2172546909	 0.0193532572	 0.101348
H	-1.1486436422	-4.0475468803	-0.0363008901	 0.10422
H	 2.6408872688	-2.1401164575	-0.0176853773	 0.116107
H	 2.0912098712	 0.1021118461	 0.0631420314	 0.093721
70.558	185.2812	316.6565	350.935	366.2831	374.1151	397.4116	407.1983	495.4489	525.4638	593.703	699.184	715.4507	759.349	815.7917	852.354	885.7398	911.5118	915.3796	1029.3035	1036.4318	1047.5687	1142.1724	1246.2402	1259.8343	1304.9831	1322.131	1421.0847	1453.858	1490.4458	1579.5582	1643.4344	1656.3763	1670.9234	1707.3706	3125.4999	3133.7041	3152.0569	3169.0241	3177.0575	3585.8487	3693.614
NC1=CC=CC(=O)C=C1	Nc1cccc(=O)cc1	
InChI=1S/C7H7NO/c8-6-2-1-3-7(9)5-4-6/h1-5H,8H2	InChI=1S/C7H7NO/c8-6-2-1-3-7(9)5-4-6/h1-5H,8H2
