17
gdb 62275	2.84642	1.72313	1.36154	4.2238	74.96	-0.2579	0.018	0.2759	968.4501	0.136824	-380.81624	-380.808796	-380.807852	-380.847853	29.264	
C	-0.1085696978	 1.5054027656	 0.0279743886	-0.450772
C	 0.0257705277	-0.0228149758	 0.0149447934	 0.156104
C	-1.286392065	-0.6483994805	 0.1957076547	 0.23676
N	-2.3235447304	-1.1376809571	 0.3443761936	-0.348038
C	 0.9017804163	-0.520931239	-1.1503463286	-0.067255
C	 2.1307061134	-0.4335029472	-0.329257104	-0.064136
C	 1.1886087634	-0.5444432387	 0.9306673373	-0.11654
C	 1.2092871113	-2.0534988011	 0.6474602773	-0.172889
N	 1.6397059558	-1.7682485037	-0.7650154458	-0.145677
H	 0.8779172419	 1.9670307575	-0.069397926	 0.130851
H	-0.7343776691	 1.8505312501	-0.7999312052	 0.139137
H	-0.5652654428	 1.845863387	 0.9614394176	 0.138854
H	 0.7492483938	-0.3455525691	-2.2069742237	 0.113431
H	 3.1237020271	-0.047987172	-0.5130720614	 0.109584
H	 1.3213202663	-0.1115642409	 1.9201789095	 0.089206
H	 2.0277638096	-2.5715682568	 1.1518203194	 0.118261
H	 0.2793318485	-2.6203708682	 0.7552219334	 0.133119
143.1179	158.6273	227.9329	259.5652	280.6112	438.0082	461.0743	539.3706	571.8489	620.5001	767.5267	777.3583	808.752	836.6352	885.8462	914.1698	949.7589	951.9656	981.435	1002.5822	1025.5574	1050.937	1128.6878	1141.533	1154.8569	1174.2204	1193.761	1201.2309	1230.6927	1269.1215	1299.2248	1328.7528	1413.218	1485.1532	1497.4055	1511.4405	2347.4779	3043.8412	3057.33	3117.8733	3120.1027	3123.22	3139.3622	3206.0616	3221.1328
CC1(C#N)C2C3C1CN23	C[C@@]1(C#N)[C@H]2[C@H]3[C@@H]1CN23	
InChI=1S/C7H8N2/c1-7(3-8)4-2-9-5(4)6(7)9/h4-6H,2H2,1H3	InChI=1S/C7H8N2/c1-7(3-8)4-2-9-5(4)6(7)9/h4-6H,2H2,1H3/t4-,5+,6+,7-,9?/m0/s1
