17
gdb 126773	2.60734	1.36369	0.95177	3.7122	72.03	-0.1997	0.0411	0.2408	1228.6765	0.137464	-451.378008	-451.369099	-451.368155	-451.412071	32.515	
C	 0.2352783556	 1.5838279777	-0.0296716444	-0.375403
C	 0.0037309029	 0.0820930201	 0.1428009151	-0.142107
N	 0.6733434849	-0.4610091142	 1.3035127314	-0.073628
N	 2.0639350995	-0.5300744357	 1.3624950424	-0.325776
C	 2.307825294	-1.0307033285	 2.5345084811	 0.451855
N	 3.5654261471	-1.1990820023	 3.0891515646	-0.59121
N	 1.1581943117	-1.3217986819	 3.2238831915	-0.410983
C	 0.0580054331	-0.9353331757	 2.4349528986	 0.469173
O	-1.1227941337	-1.01482351	 2.7071614339	-0.440406
H	 1.3035990537	 1.799136753	-0.1161514841	 0.136477
H	-0.2641063712	 1.9406150639	-0.9357028861	 0.116043
H	-0.1618298016	 2.1393367408	 0.824954181	 0.127562
H	-1.0566640906	-0.139633524	 0.2888258993	 0.144773
H	 0.3474187362	-0.4613832467	-0.7448049743	 0.115702
H	 4.284637874	-0.985759707	 2.4088244375	 0.266862
H	 3.7160861958	-2.1188739195	 3.4865255913	 0.256411
H	 1.0728789984	-1.60349374	 4.1848321313	 0.274654
55.618	85.4213	191.374	203.1038	279.6959	294.27	315.8195	331.6033	421.0413	435.4967	578.4313	631.609	672.2431	686.192	739.7341	785.1723	794.6319	841.0042	971.0663	1031.9633	1053.8782	1102.7065	1156.2031	1160.7723	1231.9208	1290.6177	1339.484	1392.6029	1409.0771	1423.8601	1478.4504	1489.5908	1505.9055	1529.4022	1624.5764	1691.13	1835.3377	3040.5355	3043.6579	3105.3067	3116.7215	3130.8885	3528.6572	3625.4351	3687.4751
CCN1N=C(N)NC1=O	CCn1nc(N)[nH]c1=O	
InChI=1S/C4H8N4O/c1-2-8-4(9)6-3(5)7-8/h2H2,1H3,(H3,5,6,7,9)	InChI=1S/C4H8N4O/c1-2-8-4(9)6-3(5)7-8/h2H2,1H3,(H3,5,6,7,9)
