22
gdb 114002	4.15017	0.60716	0.57112	2.8796	85.11	-0.2325	-0.0211	0.2114	1987.5768	0.191642	-404.328468	-404.317951	-404.317007	-404.365726	36.785	
C	-0.3190585167	-3.0433546773	-0.0491131658	-0.379926
C	-0.7236006513	-1.6476334377	-0.539646004	-0.202362
C	 0.2473934969	-1.1215776843	-1.5792920855	 0.028041
C	 0.0196604547	-1.3332518732	-3.0382135059	-0.256528
N	-0.032733506	 0.0107966757	-2.4655420134	-0.092691
C	-1.3269841244	 0.6773666734	-2.4138442937	-0.149506
C	-1.5209334598	 1.5237381852	-3.6817364399	-0.266448
C	-2.7356774249	 2.4150898024	-3.5840637555	 0.155091
O	-3.6547220067	 2.4241974989	-4.3618524595	-0.236167
H	-0.3231481737	-3.76562136	-0.8718227641	 0.121628
H	 0.6891553487	-3.0343284451	 0.3790686748	 0.119328
H	-1.0054364447	-3.4047485714	 0.7222360605	 0.116042
H	-1.739624085	-1.6851444053	-0.9451721848	 0.101485
H	-0.7521751317	-0.9557791448	 0.3125262626	 0.103077
H	 1.2819640274	-1.1207935286	-1.2338909217	 0.089381
H	 0.8432960055	-1.5342092502	-3.7181940129	 0.115402
H	-0.9252274436	-1.7977899482	-3.3222567301	 0.106766
H	-2.1769574642	-0.0164639146	-2.3126324873	 0.09859
H	-1.3370511702	 1.3302721852	-1.5315954477	 0.106734
H	-0.6346680194	 2.1622969605	-3.7973877462	 0.130621
H	-1.6112534336	 0.8939802639	-4.5709855715	 0.122017
H	-2.7299212476	 3.0990387855	-2.7014467783	 0.069425
42.4239	63.156	74.9498	93.4194	122.163	208.5464	235.1302	279.8605	296.6983	372.323	442.1196	494.5684	578.6291	746.1525	784.9959	794.4649	834.604	870.5221	916.6211	960.8436	990.7637	1015.5057	1045.9328	1069.366	1091.3272	1115.1922	1132.4013	1150.8155	1169.6229	1194.9959	1229.6635	1273.2157	1284.2868	1318.6529	1337.793	1346.3818	1391.4376	1409.473	1427.8863	1431.7877	1465.4242	1485.0192	1494.7902	1498.4746	1507.3281	1515.68	1836.4363	2844.2475	2967.0065	3022.7592	3029.5023	3034.8366	3040.1668	3069.4062	3081.6549	3094.3283	3106.3251	3107.1723	3109.9892	3171.944
CCC1CN1CCC=O	CC[C@H]1CN1CCC=O	
InChI=1S/C7H13NO/c1-2-7-6-8(7)4-3-5-9/h5,7H,2-4,6H2,1H3	InChI=1S/C7H13NO/c1-2-7-6-8(7)4-3-5-9/h5,7H,2-4,6H2,1H3/t7-,8?/m0/s1
