18
gdb 51733	3.39531	0.9621	0.82142	2.5358	73.3	-0.2467	-0.0272	0.2194	1383.7721	0.146173	-439.037844	-439.028983	-439.028039	-439.072811	31.493	
O	-0.3189395223	 0.0824075982	-0.0117130219	-0.237724
C	-0.0810316255	 1.2631919853	-0.0174781315	 0.152575
C	 1.3152334945	 1.852207762	-0.0717295306	-0.295601
C	 1.4849351994	 2.7893854043	-1.2673873708	 0.048205
O	 0.602184791	 3.933697232	-1.1962892631	-0.300461
C	 1.6992608464	 4.8737832824	-1.3072937335	-0.127273
C	 2.6988710843	 3.7235007838	-1.3055108826	 0.271659
C	 4.0221109859	 3.5728731895	-0.6694237101	-0.302975
N	 3.8825484479	 3.6457908038	-2.1403111494	-0.35577
H	-0.8949534314	 2.0184841752	 0.0128989088	 0.101769
H	 1.4832112747	 2.4300299141	 0.8462848568	 0.12258
H	 2.0374992254	 1.0307709557	-0.1154462315	 0.117321
H	 1.3323960123	 2.2363811017	-2.206786554	 0.091293
H	 1.6650021294	 5.4428226315	-2.2437123899	 0.118152
H	 1.7343976312	 5.5640469296	-0.4565736934	 0.111491
H	 4.5099501989	 4.4310081541	-0.2146904504	 0.127251
H	 4.2668785517	 2.6173926519	-0.2116240023	 0.120876
H	 3.9725656463	 2.7201136749	-2.5539165607	 0.23663
50.2305	68.6212	90.0994	143.3669	242.4912	276.8881	328.1989	434.0876	449.5918	533.5909	572.5022	803.6723	837.7496	838.8963	887.9094	924.3132	935.347	968.9343	1009.4483	1030.9911	1053.8957	1075.9081	1089.398	1117.2001	1135.7252	1150.0719	1218.3313	1249.2614	1267.0696	1277.976	1302.7377	1333.9729	1376.1314	1421.0244	1439.6152	1450.6611	1518.4499	1519.7684	1829.8297	2911.9376	2987.3194	3024.446	3029.959	3072.9919	3097.6235	3104.4217	3189.1484	3490.9382
O=CCC1OCC11CN1	O=CC[C@H]1OC[C@]21CN2	
InChI=1S/C6H9NO2/c8-2-1-5-6(3-7-6)4-9-5/h2,5,7H,1,3-4H2	InChI=1S/C6H9NO2/c8-2-1-5-6(3-7-6)4-9-5/h2,5,7H,1,3-4H2/t5-,6+/m1/s1
