21
gdb 116359	2.29408	1.50801	0.96869	1.2627	82.39	-0.239	0.021	0.2601	1268.7213	0.182053	-424.233027	-424.223677	-424.222733	-424.267198	34.601	
C	 0.0076645104	 1.3726262376	-0.0625261865	-0.235335
O	 0.0224458328	-0.043797773	-0.0291478127	-0.242036
C	-1.2425606131	-0.6239822951	-0.0465698571	 0.146956
O	-1.8530389887	-0.3210612618	-1.28670071	-0.259641
C	-3.0289784488	-1.0758571327	-1.5204070304	-0.080764
C	-2.6922105275	-2.5596196038	-1.6677076138	-0.257153
C	-1.7645713331	-2.9821505767	-0.5603926506	-0.157126
C	-1.0931170027	-2.1140777636	 0.1970984063	 0.281768
C	-0.1978156996	-2.5126458744	 1.3353195308	-0.478846
H	 1.0427973452	 1.7014513084	 0.0522214645	 0.124751
H	-0.3929501371	 1.7500056319	-1.0091996565	 0.130959
H	-0.5926807358	 1.7820074484	 0.7643336456	 0.102847
H	-1.8612410912	-0.1770694583	 0.7643944426	 0.048568
H	-3.7441448604	-0.9357388527	-0.6925894871	 0.089855
H	-3.4814782326	-0.6675240607	-2.4282149998	 0.106685
H	-3.6136299956	-3.155502388	-1.6456318886	 0.101398
H	-2.2272125143	-2.7459773115	-2.6456744429	 0.117038
H	-1.6504454176	-4.0489641572	-0.3791379991	 0.081984
H	-0.19599605	-3.5972606135	 1.472582695	 0.115046
H	 0.8281783681	-2.1741716585	 1.1619819873	 0.144131
H	-0.5238111786	-2.0504427446	 2.2762525729	 0.118914
75.6683	108.3891	171.086	180.491	201.5331	248.0373	300.0549	307.3623	391.3352	457.7861	467.4138	524.0878	611.6112	662.0752	804.184	877.8839	928.9035	944.0307	950.6282	1028.3433	1044.7206	1069.6069	1073.5043	1090.9234	1114.994	1163.1251	1180.7945	1190.1149	1226.8211	1238.3456	1298.643	1338.0174	1363.6917	1376.1475	1398.226	1411.6293	1419.5253	1472.9787	1474.2086	1477.6026	1483.0255	1492.4217	1499.718	1512.0679	1745.157	2840.4483	2967.6608	2991.2048	3012.0274	3023.0218	3047.0039	3074.1514	3083.4319	3087.581	3117.8407	3125.7985	3145.0968
COC1OCCC=C1C	CO[C@H]1OCCC=C1C	
InChI=1S/C7H12O2/c1-6-4-3-5-9-7(6)8-2/h4,7H,3,5H2,1-2H3	InChI=1S/C7H12O2/c1-6-4-3-5-9-7(6)8-2/h4,7H,3,5H2,1-2H3/t7-/m0/s1
