19
gdb 46321	2.95712	1.34082	1.2018	3.2981	76.08	-0.2261	-0.023	0.2031	1118.9265	0.159557	-423.042726	-423.034502	-423.033558	-423.076393	30.919	
O	-0.4798326888	 0.3861167607	-0.9392727267	-0.298914
C	-0.2424941229	 1.3647902676	-0.295260973	 0.339472
C	-1.0676246614	 2.2819836218	 0.6272569221	-0.347472
C	 0.0627763913	 3.3428399827	 0.4876952383	-0.300472
C	 1.0081609343	 2.2794092868	-0.1607654802	 0.349659
C	 2.1210758031	 1.682451535	 0.7324839381	-0.297892
C	 3.394482961	 2.2932300895	 0.1262198815	-0.22584
C	 3.0153707482	 2.3540038849	-1.3527554392	-0.075191
O	 1.624041953	 2.6773860758	-1.3666008526	-0.301169
H	-2.0623867109	 2.547797912	 0.263104409	 0.133932
H	-1.167420586	 1.8612737187	 1.6331735969	 0.130279
H	-0.1849198957	 4.1188260379	-0.2390525903	 0.123495
H	 0.4200038213	 3.8075920683	 1.4083976102	 0.101995
H	 1.9809690924	 1.9134799416	 1.7905537721	 0.110226
H	 2.138396417	 0.5928581291	 0.6218392387	 0.123869
H	 3.5639134995	 3.3020874086	 0.5163872263	 0.111449
H	 4.2891125032	 1.6956357142	 0.3163420009	 0.108144
H	 3.5457389035	 3.1260173019	-1.9175621466	 0.109972
H	 3.1842897277	 1.3855507829	-1.8459341655	 0.104458
46.1044	76.8957	154.9058	238.392	266.2556	334.7586	420.4329	510.6432	584.8052	599.9599	695.5085	746.1582	757.8187	844.1689	888.765	900.9259	923.8135	932.6142	957.8427	1008.3824	1018.8633	1037.5467	1061.6428	1132.7003	1157.966	1163.9137	1198.0345	1209.3155	1217.7186	1230.5738	1263.9829	1283.3163	1320.9883	1337.7781	1389.4338	1440.5883	1478.6844	1487.5277	1496.0741	1525.5903	1892.1128	2999.4487	3049.0208	3054.2812	3059.4442	3077.5475	3086.196	3106.8048	3116.0158	3116.816	3138.175
O=C1CCC11CCCO1	O=C1CC[C@]21CCCO2	
InChI=1S/C7H10O2/c8-6-2-4-7(6)3-1-5-9-7/h1-5H2	InChI=1S/C7H10O2/c8-6-2-4-7(6)3-1-5-9-7/h1-5H2/t7-/m0/s1
