15
gdb 18671	3.36556	2.38805	1.55999	2.0712	62.41	-0.2607	0.0113	0.272	795.2007	0.120992	-399.791085	-399.784665	-399.783721	-399.821805	24.763	
N	-0.0702656289	 1.2664001647	 0.1876890776	-0.522661
C	-0.0029465381	 0.0193453449	-0.0091938103	 0.388626
O	 1.1954379318	-0.6349289096	-0.1653831652	-0.244413
C	 1.1336478262	-1.8476411793	-0.9130529695	 0.001258
O	 0.2864784534	-2.7852005311	-0.3271459	-0.232933
C	-1.039513839	-2.3222711547	-0.2639191594	 0.082036
C	-1.495236001	-1.8320936896	 1.0703551985	-0.299968
C	-1.2189471936	-0.8367484032	-0.0544656391	-0.126768
H	 0.8674094675	 1.6732359695	 0.171274289	 0.222109
H	 0.8210209976	-1.6155292688	-1.9425142163	 0.101386
H	 2.1420468024	-2.26243178	-0.9016963596	 0.131626
H	-1.7220785515	-2.8607386484	-0.9158558917	 0.106756
H	-2.5308914753	-1.9695958163	 1.3578044998	 0.126572
H	-0.7734001159	-1.8938956365	 1.8760227442	 0.14127
H	-2.0816943754	-0.3473902616	-0.4874357882	 0.125105
87.5167	212.5165	292.3369	405.5203	430.6411	486.8667	558.3734	685.2094	742.1364	794.4302	805.7871	831.562	908.3743	952.3607	970.4219	1020.3301	1037.1285	1060.0558	1079.0051	1119.0473	1131.9296	1172.8473	1191.9091	1229.9597	1302.9956	1313.2729	1376.5441	1386.711	1454.7861	1473.9572	1518.1988	1757.0152	2989.2442	3132.9773	3141.395	3147.8424	3200.997	3242.4169	3464.6363
N=C1OCOC2CC12	[NH][C]1OCO[C@H]2C[C@@H]12	
InChI=1S/C5H7NO2/c6-5-3-1-4(3)7-2-8-5/h3-4,6H,1-2H2	InChI=1S/C5H7NO2/c6-5-3-1-4(3)7-2-8-5/h3-4,6H,1-2H2/t3-,4+/m1/s1
