19
gdb 112896	3.273	1.06046	0.84342	3.5954	71.6	-0.249	-0.0323	0.2167	1340.235	0.158996	-460.190805	-460.181915	-460.180971	-460.224607	33.56	
O	-0.0965766549	 1.4760251799	-0.2189069774	-0.426034
C	 0.0010095092	 0.0712110766	-0.1874090374	-0.070057
C	-1.3655366664	-0.5976787716	 0.024509101	-0.120642
C	-1.4000772418	-2.1325564794	 0.0024440278	-0.252658
C	-2.6400925966	-2.5071323233	 0.8306723461	 0.113066
O	-2.5294985001	-3.8528520904	 1.2524003396	-0.428317
C	-2.6442634382	-1.4738860657	 1.9734002463	-0.353638
C	-1.9737055747	-0.2365566876	 1.3836771677	 0.407864
O	-1.8990586781	 0.8499908052	 1.9116740482	-0.339221
H	-0.5679277411	 1.7306318628	 0.5873382152	 0.295343
H	 0.4219939433	-0.2445032826	-1.1482927887	 0.108314
H	 0.6935228083	-0.2762460036	 0.599012739	 0.085219
H	-2.0508322211	-0.1909862299	-0.7342292595	 0.114489
H	-1.4279488386	-2.5566448015	-1.003278128	 0.114549
H	-0.5192238098	-2.543075284	 0.5125537465	 0.117555
H	-3.5405574386	-2.3698894889	 0.2110429099	 0.076709
H	-3.3495180521	-4.1044080599	 1.6885852646	 0.286371
H	-3.6216881629	-1.2400700186	 2.4031716594	 0.126154
H	-2.0048759758	-1.8451546077	 2.7858709799	 0.144936
71.4877	103.6413	164.462	210.8584	284.6075	308.1291	326.1188	382.5417	449.7335	497.8882	510.7738	565.5552	603.8081	633.7061	734.2419	854.599	886.4931	939.0909	974.9235	1013.1232	1054.1924	1082.8256	1101.5509	1111.035	1157.5506	1160.2035	1188.5181	1214.3345	1240.2995	1269.7329	1283.0881	1317.0435	1339.9921	1368.1331	1385.8609	1428.0232	1446.8894	1462.1061	1497.3658	1513.5141	1814.9457	2953.1787	2972.9828	3007.1817	3033.5702	3040.3717	3063.0171	3104.0359	3111.2126	3730.5775	3821.8525
OCC1CC(O)CC1=O	OC[C@H]1C[C@@H](O)CC1=O	
InChI=1S/C6H10O3/c7-3-4-1-5(8)2-6(4)9/h4-5,7-8H,1-3H2	InChI=1S/C6H10O3/c7-3-4-1-5(8)2-6(4)9/h4-5,7-8H,1-3H2/t4-,5-/m1/s1
