20
gdb 63913	2.87537	1.43175	1.29042	1.3515	80.58	-0.2224	0.0033	0.2258	1076.8176	0.171496	-403.128099	-403.11979	-403.118846	-403.160271	33.542	
C	 0.5927519362	 1.3580170126	-0.1318039814	-0.406492
C	-0.064658997	-0.0192934886	 0.0152839481	 0.320406
O	-1.4598911289	 0.2899366442	 0.16796819	-0.465956
C	 0.1105141295	-0.9034344608	-1.261272531	-0.201612
N	 1.2183084063	-1.8528255265	-1.3314884346	-0.101408
C	 2.5749654333	-1.4778625279	-0.9752159799	-0.247134
C	 1.7609561943	-2.3600264181	-0.069502788	-0.058946
C	 1.2353051938	-1.8070931084	 1.1976972138	-0.059741
C	 0.4215578774	-0.7500832279	 1.2393651006	-0.148371
H	 1.6643661724	 1.2796042583	-0.3244902219	 0.11833
H	 0.125142675	 1.8935720505	-0.9643574049	 0.124651
H	 0.4458482368	 1.9460358389	 0.778518087	 0.121743
H	-1.9154550881	-0.5303741007	 0.387945729	 0.274387
H	-0.8044910832	-1.4998594707	-1.3552542679	 0.099661
H	 0.1566170658	-0.2606661544	-2.146316435	 0.111282
H	 3.3511718024	-1.9156364995	-1.5986307487	 0.11626
H	 2.7904907736	-0.4760636636	-0.6146462877	 0.119315
H	 1.9798266574	-3.4262554877	-0.0655512607	 0.093567
H	 1.5290749929	-2.3131289729	 2.1136321035	 0.094228
H	 0.0473130302	-0.3676906968	 2.1858963299	 0.095832
134.2021	170.0743	219.1415	312.6542	331.1371	340.9591	346.7351	393.2044	414.6459	500.6999	534.4218	592.3126	693.2283	749.6025	773.3116	818.7887	856.9718	917.5372	931.7021	956.1301	981.6532	998.9148	1039.8824	1048.1364	1097.3964	1107.7514	1115.4174	1148.4851	1158.6062	1181.348	1256.8151	1278.382	1323.0552	1343.225	1373.566	1394.8475	1411.9269	1425.2809	1476.0983	1480.475	1492.8391	1509.6455	1706.1001	3031.3243	3043.4191	3079.4019	3103.1208	3113.3679	3118.9375	3137.2288	3150.4492	3172.2297	3193.0142	3798.3192
CC1(O)CN2CC2C=C1	C[C@@]1(O)CN2C[C@H]2C=C1	
InChI=1S/C7H11NO/c1-7(9)3-2-6-4-8(6)5-7/h2-3,6,9H,4-5H2,1H3	InChI=1S/C7H11NO/c1-7(9)3-2-6-4-8(6)5-7/h2-3,6,9H,4-5H2,1H3/t6-,7+,8?/m1/s1
