25
gdb 99782	2.09785	1.29452	0.96508	1.043	88.84	-0.246	0.0781	0.3241	1387.4699	0.226773	-389.47306	-389.46202	-389.461075	-389.509241	40.498	
C	-0.2889765656	 1.370547728	-0.839424534	-0.236236
O	-0.1336454932	 0.2374757658	-0.0142774502	-0.253082
C	-1.2958735542	-0.5819499078	 0.1253109769	 0.089975
C	-1.006067411	-1.9988842591	-0.4200648537	 0.043106
C	-0.7540384068	-1.9594730548	-1.9334703735	-0.403492
C	 0.1566954356	-2.6870856304	 0.3078602953	-0.384736
C	-1.7588539433	-0.5827661104	 1.5748649083	 0.009546
C	-0.7893943728	-0.4191606612	 2.7178270151	-0.246016
C	-1.7650351603	 0.6834784818	 2.3926798895	-0.291527
H	 0.6644484766	 1.9063597086	-0.8314403429	 0.123784
H	-0.5284269152	 1.0964881187	-1.877050405	 0.107154
H	-1.0746007316	 2.0468896517	-0.4717726078	 0.10645
H	-2.1065622661	-0.1559706928	-0.4869079109	 0.062259
H	-1.9201324468	-2.5840480044	-0.2435044177	 0.0652
H	 0.1450762522	-1.3769721839	-2.1591749559	 0.12408
H	-0.6053439449	-2.968414398	-2.3313538525	 0.10797
H	-1.5953445381	-1.5091272601	-2.4721734681	 0.102345
H	-0.0481844871	-2.8107315693	 1.374100361	 0.118103
H	 0.3419535511	-3.6788639248	-0.1175914536	 0.101969
H	 1.0726455112	-2.0975491562	 0.2055213265	 0.12591
H	-2.5923409106	-1.2589651377	 1.7487964565	 0.077782
H	-0.9464635873	-1.0072263972	 3.6154392351	 0.103245
H	 0.2480923629	-0.2423347338	 2.4622800269	 0.126936
H	-1.357102677	 1.5802062654	 1.9403485533	 0.114356
H	-2.6002987176	 0.8570469518	 3.0622664816	 0.104919
67.7503	75.5376	96.8168	168.8796	172.3595	203.0509	223.2667	251.2079	277.9549	310.0069	331.0397	368.1007	436.7727	557.0179	617.9816	781.3788	797.2688	830.1039	842.7829	917.273	922.2757	943.3915	965.1758	973.4669	1027.6478	1061.4407	1085.4648	1087.6136	1126.218	1137.7418	1139.5705	1168.749	1181.6223	1200.306	1206.2263	1223.524	1232.1259	1310.0699	1349.3355	1366.6022	1392.196	1394.5213	1402.6487	1419.885	1457.2797	1480.9333	1485.1033	1488.6973	1495.7864	1500.4809	1506.3069	1511.855	1517.6255	2967.135	2985.362	3002.7697	3027.6671	3033.0656	3040.7532	3093.5382	3102.6435	3104.8947	3107.3493	3122.4151	3133.5562	3136.205	3143.0627	3217.961	3235.1997
COC(C(C)C)C1CC1	CO[C@@H](C(C)C)C1CC1	
InChI=1S/C8H16O/c1-6(2)8(9-3)7-4-5-7/h6-8H,4-5H2,1-3H3	InChI=1S/C8H16O/c1-6(2)8(9-3)7-4-5-7/h6-8H,4-5H2,1-3H3/t8-/m0/s1
