20
gdb 111464	2.69523	1.45706	1.05824	2.7905	79.46	-0.2486	0.0243	0.2729	1181.3499	0.171922	-403.159001	-403.150602	-403.149658	-403.192217	32.413	
C	-0.0334813808	 1.5214617804	 0.21860131	-0.390792
C	-0.1235605334	 0.011578904	-0.0194805129	-0.16977
C	 0.6111613465	-0.4684795852	-1.2860101277	-0.099137
C	 0.8215898153	-1.971483953	-1.3921178229	-0.081029
C	-0.3987112739	-2.8509260541	-1.6164415781	-0.321078
C	 0.4083725794	-2.3532499702	-2.7793270599	 0.080657
O	-0.100736878	-1.2096746395	-3.4407737947	-0.237405
C	-0.0952562145	-0.1260135848	-2.5982380736	 0.390613
N	-0.6108818324	 0.9880114813	-2.8944198683	-0.526164
H	 1.0097618985	 1.8362292584	 0.3390599609	 0.104914
H	-0.457575726	 2.0710968918	-0.6235927276	 0.161339
H	-0.5711874877	 1.8006248001	 1.1301964255	 0.104182
H	 0.3075952514	-0.5229706358	 0.8359870015	 0.095154
H	-1.1741638806	-0.2953561494	-0.0766454122	 0.100303
H	 1.596186823	 0.0173948517	-1.31407139	 0.104993
H	 1.69403667	-2.4081620726	-0.9218461984	 0.098802
H	-0.3059934375	-3.8982750632	-1.3507942696	 0.121455
H	-1.3900805656	-2.4324858867	-1.4764543671	 0.129441
H	 0.9563047204	-3.007694014	-3.4448704529	 0.110841
H	-1.0314277642	 0.9521988106	-3.8244702521	 0.222678
70.1229	112.272	174.9618	212.097	265.61	326.3384	404.119	452.0527	460.6741	611.81	687.0998	698.7323	747.3285	790.0166	820.0173	846.3463	892.5117	929.3822	951.6634	991.4659	1014.1795	1026.5716	1047.9212	1071.7755	1077.996	1100.0085	1129.493	1148.6262	1158.4013	1203.9889	1260.7468	1275.8321	1294.5304	1333.0158	1372.6339	1375.7372	1392.5645	1410.6909	1475.9034	1485.9221	1495.2215	1516.418	1767.8472	3014.3275	3027.2898	3032.8818	3065.459	3095.918	3131.6741	3141.7247	3182.3447	3198.1597	3222.2635	3472.3852
CCC1C2CC2OC1=N	CC[C@H]1[C@H]2C[C@H]2O[C]1[NH]	
InChI=1S/C7H11NO/c1-2-4-5-3-6(5)9-7(4)8/h4-6,8H,2-3H2,1H3	InChI=1S/C7H11NO/c1-2-4-5-3-6(5)9-7(4)8/h4-6,8H,2-3H2,1H3/t4-,5+,6+/m0/s1
