15
gdb 128902	6.86362	0.73919	0.69342	3.6555	72.51	-0.2712	-0.0277	0.2435	1523.0134	0.11351	-416.821859	-416.813848	-416.812904	-416.855937	28.107	
N	 0.0256964894	-1.1905601544	-0.1653831667	-0.297447
C	-0.0097709645	-0.0358889539	-0.1466125635	 0.258317
C	-0.0279699675	 1.4238306438	-0.1127816828	-0.33672
C	 1.3773428201	 2.0137637268	 0.1664492518	-0.318094
C	 1.355985882	 3.5037385392	 0.205512941	 0.437076
C	 1.6743666703	 4.424486703	 1.1551436036	-0.343898
C	 1.4123228448	 5.6656338279	 0.5149221211	 0.039996
N	 0.9719434175	 5.5111306386	-0.7080872721	-0.132489
O	 0.9355992909	 4.1319450703	-0.9095698153	-0.213374
H	-0.403890402	 1.8004195606	-1.0690034056	 0.178157
H	-0.7328521165	 1.7516890043	 0.6586722625	 0.162654
H	 1.7555557511	 1.6394912906	 1.1204982675	 0.144924
H	 2.0668136686	 1.6709881858	-0.612684858	 0.154398
H	 2.0402790117	 4.2481138145	 2.1526500737	 0.126919
H	 1.5300262842	 6.6665285729	 0.9057961627	 0.139581
52.4538	62.2983	99.1042	191.2873	303.3074	366.9524	402.29	507.166	647.7543	672.7172	745.1663	770.8914	815.85	916.2075	920.4989	943.0716	958.249	1004.6547	1019.9187	1033.7435	1054.1534	1178.5973	1214.3692	1262.7287	1285.6039	1309.8588	1368.6803	1389.4194	1469.6582	1482.6412	1514.6456	1639.9389	2365.2719	3051.3464	3061.8	3096.0817	3119.2853	3245.5479	3282.0991
N#CCCC1=CC=NO1	N#CCCc1ccno1	
InChI=1S/C6H6N2O/c7-4-1-2-6-3-5-8-9-6/h3,5H,1-2H2	InChI=1S/C6H6N2O/c7-4-1-2-6-3-5-8-9-6/h3,5H,1-2H2
