15
gdb 13445	3.44847	1.7485	1.49581	2.7894	57.78	-0.2433	0.0048	0.2481	862.1062	0.11905	-436.932799	-436.925216	-436.924272	-436.96481	28.124	
O	-0.2976148818	 1.1396203392	-0.2965683916	-0.434878
C	-0.1393886675	-0.2184362171	-0.0610566534	 0.040961
C	-0.3410054882	-0.6227261186	 1.3720567511	 0.07066
O	-0.729183522	 0.3759321298	 2.2515929575	-0.42904
C	-1.3462587672	-1.070673398	 0.3074522219	-0.093747
N	-2.6598371977	-0.5003567357	 0.3548030878	-0.255491
C	-3.2227110905	 0.3076617067	-0.5706572445	 0.164404
O	-2.6727862829	 0.7649233784	-1.5604798435	-0.352558
H	-1.0087045501	 1.2240357727	-0.9614262906	 0.317706
H	 0.6297621045	-0.7120220419	-0.6527992506	 0.101831
H	 0.2941140206	-1.3771821337	 1.8255840313	 0.106608
H	-0.6798494022	 1.1997102894	 1.740840529	 0.297592
H	-1.3145234605	-2.1103766903	-0.0113930141	 0.107508
H	-3.2177052101	-0.7122595842	 1.1693417755	 0.26121
H	-4.2781836643	 0.5334101432	-0.3311589058	 0.097232
73.385	153.8872	231.2813	255.5163	280.8369	339.8672	481.1274	519.3391	556.9701	646.53	655.9095	728.3722	754.8078	793.82	887.1216	935.7633	1024.1335	1040.8711	1069.8238	1099.7774	1119.8998	1179.9798	1221.4788	1288.2603	1343.8437	1355.0342	1385.8574	1424.1707	1431.8316	1459.3646	1534.5606	1773.8566	2968.7518	3111.9757	3122.9077	3160.4031	3549.5557	3604.1485	3692.017
OC1C(O)C1NC=O	O[C@H]1[C@@H](O)[C@H]1NC=O	
InChI=1S/C4H7NO3/c6-1-5-2-3(7)4(2)8/h1-4,7-8H,(H,5,6)	InChI=1S/C4H7NO3/c6-1-5-2-3(7)4(2)8/h1-4,7-8H,(H,5,6)/t2-,3+,4-
