17
gdb 50858	2.85956	1.00959	0.80198	1.6102	71.91	-0.2525	-0.0294	0.223	1412.2594	0.135389	-455.144418	-455.135314	-455.13437	-455.179977	31.53	
N	-0.6673624422	 0.5377077094	-1.3120212095	-0.419245
C	-0.2752003525	-0.3443015589	-0.5070121039	 0.12111
O	-1.1806435067	-1.303037629	-0.1182950841	-0.207209
C	-0.7688124918	-2.2617646917	 0.7832480408	 0.462573
O	 0.3206431929	-2.2863706538	 1.2826546667	-0.334039
C	-1.8842093003	-3.2602240106	 0.9957338304	-0.345821
C	-1.9247541217	-4.2769440158	-0.1369833087	 0.021371
C	-3.2290847709	-4.7492547149	-0.6641529832	-0.242257
N	-2.3650382731	-3.8822927316	-1.4799622342	-0.306616
H	 0.0961989574	 1.1798086597	-1.5200349772	 0.242262
H	 0.7047624393	-0.4771359036	-0.0487973527	 0.146332
H	-1.703487652	-3.7638108723	 1.9485676671	 0.138472
H	-2.8354504108	-2.7219449206	 1.0479700595	 0.128578
H	-1.080129293	-4.9628640184	-0.1422963503	 0.110146
H	-3.3345031911	-5.7673459222	-1.0277840023	 0.124803
H	-4.1314091506	-4.3301578629	-0.2251085541	 0.114387
H	-2.7014854327	-2.9222979428	-1.4708091543	 0.245152
45.1603	65.307	95.8917	111.076	195.4513	223.677	346.2402	359.146	443.5821	533.675	627.2559	753.641	815.9558	830.2206	854.0708	919.2881	928.3526	944.6153	981.4567	1037.466	1056.0746	1071.6825	1121.0788	1128.2488	1158.9397	1219.2915	1253.3295	1261.8473	1272.1753	1316.2748	1317.7446	1387.8054	1411.7909	1466.6155	1513.2328	1747.3003	1849.9011	3059.2576	3106.6155	3116.3503	3134.3125	3142.2738	3192.4689	3505.4344	3507.4121
N=COC(=O)CC1CN1	[NH][CH]OC(=O)C[C@H]1CN1	
InChI=1S/C5H8N2O2/c6-3-9-5(8)1-4-2-7-4/h3-4,6-7H,1-2H2	InChI=1S/C5H8N2O2/c6-3-9-5(8)1-4-2-7-4/h3-4,6-7H,1-2H2/t4-/m0/s1
