14
gdb 20985	3.47223	2.21438	1.36702	4.4641	60.97	-0.211	0.0308	0.2418	847.8501	0.108159	-412.03586	-412.028211	-412.027267	-412.067924	27.565	
C	-0.1220621488	 1.4188799342	 0.007420953	-0.352993
N	 0.0109931378	-0.0215346977	 0.0192344064	-0.134606
C	 0.0468284271	-0.814705456	-1.1213887253	 0.488695
N	 0.0454836971	-0.3812565657	-2.3113578384	-0.617268
O	 0.0713429051	-2.1011015876	-0.6773262722	-0.250494
N	 0.0720313418	-2.1238600503	 0.7624903617	-0.230746
C	 0.0163777801	-0.8716847626	 1.0920513232	 0.453376
N	-0.108390098	-0.4112826285	 2.3846649632	-0.596065
H	 0.833308411	 1.9177845497	 0.206786099	 0.135841
H	-0.4584241472	 1.7022210477	-0.9911991673	 0.185231
H	-0.8587983684	 1.732360126	 0.7518596881	 0.146798
H	 0.0554820289	-1.1476067032	-2.9788612098	 0.232285
H	-0.021638889	-1.1630418051	 3.0566556117	 0.27539
H	 0.5016611125	 0.362970289	 2.6138403465	 0.264555
80.2301	139.4696	170.133	269.8612	296.7434	346.0157	354.0857	554.3895	624.0747	642.4679	717.1806	737.1074	739.194	764.0095	790.2013	908.1549	1009.8905	1045.0231	1153.872	1160.3002	1235.4111	1255.4298	1373.8364	1433.1124	1494.1587	1510.57	1556.5576	1627.7922	1695.2057	1776.9225	3031.7785	3101.1033	3150.9232	3544.2879	3545.0653	3641.8805
CN1C(=N)ON=C1N	CN1[C@H]([NH])ON=C1N	
InChI=1S/C3H6N4O/c1-7-2(4)6-8-3(7)5/h5H,1H3,(H2,4,6)	InChI=1S/C3H7N4O/c1-7-2(4)6-8-3(7)5/h3,5H,1H3,(H2,4,6)/t3-/m0/s1
