15
gdb 13164	3.45834	1.75469	1.19019	3.0343	64.31	-0.2441	-0.0709	0.1732	962.9868	0.118432	-399.815275	-399.807381	-399.806436	-399.848351	26.91	
O	-0.8825258595	 1.3785191978	-0.0146437479	-0.24717
C	 0.2205202801	 1.0522163862	-0.3704028519	 0.095119
C	 1.4533937905	 1.9546590839	-0.3684761583	 0.275206
O	 2.5230473903	 1.5057863278	-0.7556345993	-0.367121
N	 1.2734104132	 3.2132017448	 0.0699782481	-0.070088
C	 0.1511394504	 4.0168591088	 0.5813108126	-0.154567
C	 1.1387214453	 5.2097179093	 0.7311442681	-0.250411
C	 2.2637074332	 4.2846020422	 0.1810121617	-0.162946
H	 0.4659707391	 0.0378538547	-0.7466121716	 0.115874
H	-0.6572605349	 4.1530990078	-0.1415488661	 0.1315
H	-0.2781079654	 3.6318285427	 1.509809604	 0.131481
H	 0.910385746	 6.0700117978	 0.1018293512	 0.121931
H	 1.290045153	 5.5478780008	 1.7563373059	 0.121928
H	 3.0778250272	 4.0511600352	 0.8744458926	 0.129629
H	 2.6980326713	 4.5738231101	-0.7811915792	 0.129635
74.3104	105.2615	142.8465	166.4375	175.3684	272.7177	457.6038	584.1693	591.1649	694.0798	764.3209	834.7535	883.8712	939.1882	966.2153	1027.2874	1096.6088	1137.3122	1141.3062	1187.2618	1203.136	1226.7819	1272.0292	1295.2269	1332.9489	1368.6054	1461.9704	1494.7601	1505.1268	1527.3007	1750.4238	1821.7878	2938.1462	3045.7017	3061.3472	3087.864	3095.979	3103.8514	3150.7771
O=CC(=O)N1CCC1	O=CC(=O)N1CCC1	
InChI=1S/C5H7NO2/c7-4-5(8)6-2-1-3-6/h4H,1-3H2	InChI=1S/C5H7NO2/c7-4-5(8)6-2-1-3-6/h4H,1-3H2
