15
gdb 48643	2.63351	1.61502	1.32021	3.7798	66.97	-0.2402	-0.0488	0.1914	980.03	0.111577	-457.749505	-457.741946	-457.741002	-457.781915	28.02	
O	-0.7455598973	 0.8923026421	 0.4952854084	-0.250973
C	 0.2586496464	 0.8218866899	-0.1680975179	 0.06097
C	 1.3646132644	 1.8163130173	-0.068771213	 0.235245
C	 1.7372235723	 2.6285446766	 1.1968766038	-0.284715
C	 2.5423490564	 3.5092892243	 0.1766518345	-0.201674
C	 3.51024486	 2.4552736749	-0.3865402808	-0.084571
O	 2.6210908451	 1.3121017797	-0.539488889	-0.323139
C	 1.3378663485	 3.2434604227	-0.7518647503	 0.410804
O	 0.644084783	 3.8546193485	-1.4956616097	-0.290268
H	 0.4195982446	 0.0275259755	-0.926411048	 0.100025
H	 0.8836680881	 3.1346404027	 1.6479946804	 0.147736
H	 2.3263400156	 2.0844464917	 1.9374431248	 0.126986
H	 2.9186769204	 4.5063569665	 0.3908741326	 0.108426
H	 3.9356027407	 2.7321841772	-1.3568692611	 0.125814
H	 4.3199960718	 2.1970663604	 0.3042852653	 0.119337
76.	159.3204	184.4557	204.2712	296.4449	427.6814	456.447	501.1784	622.3752	673.3156	716.2332	777.1631	837.4953	860.1898	918.5648	945.1886	970.8274	991.2072	1027.9373	1059.2222	1073.1868	1123.5388	1145.8311	1180.4522	1226.5899	1246.5259	1313.0523	1361.5331	1411.3234	1479.1005	1528.6938	1813.1063	1923.5703	2920.5591	3035.2363	3081.4165	3084.9965	3160.544	3161.9745
O=CC12CC(CO1)C2=O	O=C[C@@]12C[C@@H](CO1)C2=O	
InChI=1S/C6H6O3/c7-3-6-1-4(2-9-6)5(6)8/h3-4H,1-2H2	InChI=1S/C6H6O3/c7-3-6-1-4(2-9-6)5(6)8/h3-4H,1-2H2/t4-,6+/m0/s1
