21
gdb 41506	2.84059	1.49851	1.03409	0.1287	91.	-0.2252	0.0238	0.249	1191.9208	0.184874	-349.95619	-349.948268	-349.947324	-349.988677	31.592	
C	-0.0051798328	 1.5753755081	-0.1192001875	-0.247674
C	 1.5552410665	 1.5240103866	-0.0851475515	-0.321029
C	 1.4391247075	 0.1057286795	 0.4506049952	 0.365689
C	 2.2436369106	-0.6910281725	 1.1387482595	-0.232008
C	 1.9278035597	-2.0633298968	 1.6711904487	-0.299001
C	 0.5211969471	-2.6079003072	 1.6470334052	-0.03623
C	-0.6617864415	-2.0191219182	 1.4565290979	-0.070231
C	-0.9594331945	-0.569681992	 1.1544114175	-0.270485
C	-0.0340831179	 0.0282907584	 0.0967495193	-0.053268
H	-0.4180304403	 2.1132850826	 0.7389333587	 0.101773
H	-0.4693914966	 1.958574973	-1.0303780212	 0.095879
H	 1.9944291707	 1.5667233713	-1.0885791365	 0.108085
H	 2.0703099872	 2.2577396808	 0.5415762867	 0.106126
H	 3.2610500334	-0.3544831471	 1.3378846981	 0.075983
H	 2.5752943206	-2.7870436856	 1.1490046648	 0.116879
H	 2.281323503	-2.1211301798	 2.7147100845	 0.118175
H	 0.4946135931	-3.6746898138	 1.8684626592	 0.081054
H	-1.5365343863	-2.6619177722	 1.5364633315	 0.080317
H	-2.0029987779	-0.4739281186	 0.8306825073	 0.09441
H	-0.8723577555	 0.0276017373	 2.0730021252	 0.105675
H	-0.187978246	-0.4942638439	-0.8558252328	 0.079879
72.9007	138.1876	225.953	276.0512	315.3479	359.8107	423.0886	452.0734	569.525	666.369	696.254	719.5186	780.9828	820.7366	847.4138	856.3633	906.2186	934.8608	944.1754	969.3139	998.1465	1013.3806	1056.021	1079.15	1096.6568	1108.2957	1130.5494	1199.3971	1207.0049	1236.4557	1244.449	1259.5248	1266.8421	1277.8813	1325.4087	1357.5184	1373.0632	1393.272	1432.1135	1456.3056	1470.7906	1483.6127	1491.5723	1730.9842	1788.8903	2968.8455	2976.7748	3003.8101	3020.9828	3034.8929	3048.8919	3058.7452	3084.2217	3115.8952	3116.3475	3123.1713	3145.2832
C1CC2=CCC=CCC12	C1CC2=CCC=CC[C@@H]12	
InChI=1S/C9H12/c1-2-4-8-6-7-9(8)5-3-1/h1-2,5,8H,3-4,6-7H2	InChI=1S/C9H12/c1-2-4-8-6-7-9(8)5-3-1/h1-2,5,8H,3-4,6-7H2/t8-/m0/s1
