20
gdb 103812	2.55467	1.14042	0.98297	2.5995	75.76	-0.2451	0.0173	0.2624	1310.6906	0.168657	-440.314887	-440.304674	-440.303729	-440.350182	37.31	
C	-1.1030831032	 0.9610505709	 1.0580435339	-0.385072
C	-0.1668108951	 0.1179941032	 0.1809634173	-0.258271
C	 1.0482494798	-0.3978807627	 0.933075799	 0.407611
C	 2.0591960766	 0.6430228501	 1.3684789162	-0.459842
O	 0.778788787	-1.4070895718	 1.9318842407	-0.302763
C	 1.5274926238	-1.790870305	 0.7723106956	-0.103174
C	 0.9151065786	-2.8033722935	-0.1683988735	 0.350143
N	-0.3190359247	-3.2354471462	 0.2059578338	-0.516853
O	 1.5119577885	-3.1804823547	-1.1579538301	-0.36313
H	-0.6221146228	 1.8765636022	 1.415210891	 0.120231
H	-1.9925807168	 1.2558723299	 0.4939782688	 0.117936
H	-1.4297366075	 0.3897352808	 1.9324245338	 0.128052
H	-0.7238507543	-0.7259155347	-0.2326894385	 0.116355
H	 0.1852775843	 0.7115519974	-0.6715465564	 0.108471
H	 1.5931390766	 1.3981359829	 2.0084923402	 0.13133
H	 2.8734664508	 0.1794952934	 1.9298364998	 0.131103
H	 2.4810473796	 1.1534203176	 0.4964914899	 0.129821
H	 2.5874887131	-1.9797594427	 0.93881396	 0.112395
H	-0.685861705	-2.9585192794	 1.1015772888	 0.27216
H	-0.7531006794	-3.9782075074	-0.3161546404	 0.263498
59.5924	81.623	141.6859	158.8441	194.383	217.3474	271.6225	315.3285	328.1113	375.9727	419.6054	481.2209	525.9505	561.3904	640.5781	685.7096	743.2294	785.6536	825.2251	916.7395	934.6874	987.167	1004.2906	1056.3754	1073.9792	1093.9865	1120.2817	1134.2466	1244.2255	1305.196	1316.4161	1358.6451	1378.0407	1408.7992	1412.6696	1446.6623	1476.1904	1490.1148	1498.9576	1504.603	1510.9588	1594.6135	1803.6801	3039.1564	3042.416	3045.4638	3095.1931	3110.3315	3114.1593	3118.3717	3123.0529	3129.994	3594.1679	3734.8852
CCC1(C)OC1C(N)=O	CC[C@@]1(C)O[C@H]1C(=O)N	
InChI=1S/C6H11NO2/c1-3-6(2)4(9-6)5(7)8/h4H,3H2,1-2H3,(H2,7,8)	InChI=1S/C6H11NO2/c1-3-6(2)4(9-6)5(7)8/h4H,3H2,1-2H3,(H2,7,8)/t4-,6+/m0/s1
