14
gdb 66734	3.23645	1.77924	1.42323	2.008	66.23	-0.2221	-0.044	0.1781	883.849	0.09896	-436.560054	-436.552938	-436.551994	-436.591575	27.352	
O	-0.318635612	 1.2181000166	 0.2065933776	-0.451513
C	-0.0192868785	-0.0964825932	 0.1167459676	 0.386324
C	 0.8548335604	-0.9206669681	-0.8735074481	-0.121576
C	 0.939498811	-2.0100162611	 0.1330083727	-0.03815
C	 0.070761405	-1.2012699658	 1.1340029125	-0.250062
C	-1.022207614	-1.2678216378	 0.0424169442	 0.214934
C	-2.4401735848	-1.0101456755	 0.0934395213	 0.013505
O	-2.8844024602	-0.1023965218	 0.7845993997	-0.31767
N	-0.1451125328	-2.0562639139	-0.907199903	-0.211646
H	-1.2361723654	 1.2736210599	 0.5315472477	 0.314439
H	 1.4709084344	-0.6584918164	-1.7235982093	 0.118003
H	 1.6615211957	-2.8051845134	 0.2679941179	 0.113961
H	-0.0677637678	-1.2134461531	 2.2053793104	 0.126446
H	-3.0929953209	-1.6197441162	-0.5624598013	 0.103005
111.1706	141.8929	214.6573	343.5052	364.4986	444.3118	460.17	628.74	686.5808	695.0857	760.7102	764.8354	798.5829	814.5482	865.5069	915.8361	938.8629	965.2225	1002.7421	1020.6167	1039.6163	1101.0061	1150.1091	1185.0426	1230.5861	1285.8825	1316.0185	1384.8986	1426.8132	1463.1398	1721.1293	2935.1957	3192.2751	3208.9098	3230.5881	3629.1483
OC12C3C4C1C2(C=O)N34	O[C@@]12[C@H]3[C@H]4[C@@H]1[C@]2(C=O)N34	
InChI=1S/C6H5NO2/c8-1-5-3-2-4(7(2)5)6(3,5)9/h1-4,9H	InChI=1S/C6H5NO2/c8-1-5-3-2-4(7(2)5)6(3,5)9/h1-4,9H/t2-,3-,4-,5+,6-,7?/m1/s1
