19
gdb 89615	3.89938	1.11202	0.95096	3.3265	77.43	-0.2296	0.0149	0.2445	1263.5789	0.159688	-419.206662	-419.197688	-419.196744	-419.240216	33.947	
C	-0.0896911276	 1.5617367408	 0.1171325793	-0.404278
C	 0.1651544887	 0.0923685995	-0.1850316795	 0.036848
C	 1.513420731	-0.3056215161	-0.9006971918	-0.344474
C	 1.8377157669	-1.2142707659	 0.2915623878	 0.276168
N	 1.853943071	-0.3488066817	 1.4958588272	-0.36447
C	 0.5656593255	-0.8210888515	 0.9880054245	-0.099235
C	 2.4841484283	-2.5485818147	 0.3928805498	 0.292548
N	 2.9096574988	-3.0906211012	-0.7846609892	-0.538925
O	 2.5933124708	-3.1237015981	 1.4647187093	-0.384866
H	 0.7348901974	 1.9771156197	 0.7021710664	 0.140798
H	-0.1868178718	 2.1418793779	-0.8068709561	 0.110712
H	-1.0148939225	 1.6899211644	 0.689797347	 0.112871
H	-0.678966862	-0.3444682006	-0.726789541	 0.077413
H	 1.3373100931	-0.8425191416	-1.8364329349	 0.09748
H	 2.2277197299	 0.5047003786	-1.0683420618	 0.109282
H	 2.1171228591	-0.9754031417	 2.2597326866	 0.24971
H	-0.0758854449	-1.447707603	 1.596184139	 0.106505
H	 2.9639879222	-2.5420759419	-1.6249321677	 0.262386
H	 3.4294227863	-3.9519596728	-0.7395324949	 0.263526
81.7429	115.0607	158.7518	233.9304	242.8662	257.7196	306.9043	396.355	406.2662	484.2654	568.9557	580.3334	654.6873	697.2888	762.2843	804.5531	857.6958	885.2429	903.7842	953.1293	983.3906	1045.6082	1064.3816	1093.0286	1100.77	1120.1708	1152.6776	1192.2205	1229.9076	1248.3742	1297.6877	1314.3656	1351.387	1383.7201	1403.8216	1440.1433	1476.3784	1491.2779	1504.2065	1615.6154	1768.8042	3032.3719	3054.7422	3063.0672	3093.5852	3113.6284	3123.7757	3189.9033	3454.1183	3602.9982	3736.8958
CC1CC2(NC12)C(N)=O	C[C@H]1C[C@]2(N[C@@H]12)C(=O)N	
InChI=1S/C6H10N2O/c1-3-2-6(5(7)9)4(3)8-6/h3-4,8H,2H2,1H3,(H2,7,9)	InChI=1S/C6H10N2O/c1-3-2-6(5(7)9)4(3)8-6/h3-4,8H,2H2,1H3,(H2,7,9)/t3-,4-,6+/m0/s1
