19
gdb 81822	2.11377	1.65097	1.14532	1.6949	81.19	-0.2371	0.0459	0.2831	1131.9272	0.157265	-385.825658	-385.816621	-385.815677	-385.85886	35.157	
C	-0.163282405	 1.5812787251	-0.1198237281	-0.408333
C	 0.0253592627	 0.0717069781	-0.075669116	 0.017941
C	 0.68027575	-0.6379459507	-1.2671025757	-0.161377
C	 2.1392043016	-0.2389903758	-1.3992319194	-0.32027
C	 1.7629682385	-1.228629091	-0.3571204143	 0.42065
O	 2.3749512368	-2.463908263	-0.3328691162	-0.456474
C	 1.1465638868	-0.5371437067	 0.8793046212	-0.298994
C	 1.9848598478	 0.3562032795	 1.6543876449	 0.344578
C	 2.6812711207	 1.1143108227	 2.2774088245	-0.471688
H	 0.765787631	 2.102351705	-0.3657184349	 0.125853
H	-0.9107727416	 1.8480797404	-0.8746566749	 0.112666
H	-0.507379381	 1.962131026	 0.8470660922	 0.120538
H	-0.9279925431	-0.4053528758	 0.1715918437	 0.076065
H	 0.147473645	-1.0927928057	-2.0936618184	 0.08838
H	 2.6405843481	-0.6854921109	-2.2516693077	 0.120928
H	 2.4919487312	 0.7547886255	-1.1372581798	 0.118811
H	 1.7606419876	-3.1025442902	 0.046605855	 0.283458
H	 0.6895171403	-1.2811106819	 1.5418264167	 0.092838
H	 3.3015620924	 1.7733183294	 2.8326934374	 0.194431
106.4358	125.8258	183.286	207.2333	238.4339	330.6792	365.4061	377.5174	382.1248	486.8469	520.8079	566.549	619.2888	630.7004	653.6177	723.8624	787.6827	847.4957	877.8365	942.893	965.5911	996.2244	1001.3067	1046.0094	1076.845	1097.1884	1115.5443	1122.2926	1173.8121	1192.6483	1256.1878	1293.4201	1305.1225	1330.9657	1371.4567	1411.4651	1432.8316	1492.4663	1492.7573	1507.6233	2227.2685	3032.668	3037.0215	3055.5464	3101.1942	3115.9642	3120.5053	3181.8376	3210.0032	3503.7523	3789.3138
CC1C2CC2(O)C1C#C	C[C@H]1[C@H]2C[C@@]2(O)[C@H]1C#C	
InChI=1S/C8H10O/c1-3-6-5(2)7-4-8(6,7)9/h1,5-7,9H,4H2,2H3	InChI=1S/C8H10O/c1-3-6-5(2)7-4-8(6,7)9/h1,5-7,9H,4H2,2H3/t5-,6+,7-,8-/m1/s1
