13
gdb 132914	3.2017	1.37148	0.96043	5.4396	65.97	-0.2223	-0.0415	0.1809	1094.1306	0.088919	-497.903955	-497.89641	-497.895466	-497.935884	28.758	
N	 0.0314133362	 1.3900123728	-0.0931887307	-0.587778
C	-0.0326592937	 0.0325745235	-0.0361551247	 0.297301
C	-1.1899020308	-0.7027676792	-0.0144540064	-0.392314
C	-1.2005077538	-2.1369288878	 0.0016104693	 0.43737
O	-2.1475559894	-2.8762171455	 0.0180314125	-0.355702
O	 0.086509093	-2.7561298745	-0.000367995	-0.229384
C	 1.2133775835	-2.0351593275	-0.0125031311	-0.017125
C	 1.2088594406	-0.6939110298	-0.0312773738	 0.126437
F	 2.3512886204	 0.0132373926	-0.0363795125	-0.08766
H	 0.9160187295	 1.8324085441	 0.0880746204	 0.273101
H	-0.7968628644	 1.9296046387	 0.0902203746	 0.270894
H	-2.1611507921	-0.2242886347	-0.0143351308	 0.11225
H	 2.1199417712	-2.6280754726	-0.0043622117	 0.152611
115.6033	191.5914	286.1015	305.6473	363.7861	378.8169	401.0271	427.281	473.1321	540.534	598.3259	704.4231	723.3027	724.2506	763.3193	828.8681	835.38	894.3553	1074.9238	1142.8172	1246.7682	1259.5429	1308.8519	1334.403	1520.3995	1602.6367	1642.4385	1722.6859	1845.3181	3209.5844	3213.3089	3615.7243	3735.8504
NC1=CC(=O)OC=C1F	Nc1cc(=O)occ1F	
InChI=1S/C5H4FNO2/c6-3-2-9-5(8)1-4(3)7/h1-2H,7H2	InChI=1S/C5H4FNO2/c6-3-2-9-5(8)1-4(3)7/h1-2H,7H2
