23
gdb 39377	2.22177	1.65663	1.09808	0.2052	90.64	-0.2334	0.0309	0.2644	1192.8596	0.209099	-351.148959	-351.140666	-351.139722	-351.182095	33.46	
C	-0.0491467135	 1.515957061	 0.5808049997	-0.309458
C	 1.1543309735	 0.8680524739	-0.0649118451	 0.015574
C	 2.5217003582	 0.7878135202	 0.6162494006	-0.215872
C	 2.7842022741	-0.38332066	 1.5892080277	-0.260836
C	 2.7783835558	-1.7333003412	 0.914891478	-0.051291
C	 1.7506526487	-2.538545519	 0.6409817997	-0.022387
C	 0.2784713637	-2.388704392	 0.9279804889	-0.243709
C	-0.2588890919	-1.0000494466	 1.3063963984	-0.235622
C	-0.0955008256	 0.0516947898	 0.2261058784	 0.018055
H	 0.0307524069	 1.752344073	 1.6390592181	 0.10293
H	-0.635867836	 2.2319395612	 0.0147221485	 0.103522
H	 1.2457798202	 1.1008506695	-1.1226446085	 0.080157
H	 3.2820177706	 0.7304040729	-0.1719328993	 0.097364
H	 2.7151837337	 1.7285417978	 1.1473690155	 0.095273
H	 3.7756437693	-0.2228102864	 2.0287314799	 0.092438
H	 2.0850206334	-0.3455769917	 2.4268208147	 0.103486
H	 3.7589101551	-2.0702148483	 0.5803757499	 0.078994
H	 1.9905590972	-3.4724271721	 0.1325429359	 0.077239
H	-0.2664921688	-2.7374626735	 0.038239129	 0.10111
H	 0.0011606237	-3.1040219505	 1.7174082604	 0.103523
H	-1.3339497174	-1.103780705	 1.5059911028	 0.092362
H	 0.1753093262	-0.6602884967	 2.2494046285	 0.100553
H	-0.6646337873	-0.1916004162	-0.6697668314	 0.076598
36.9849	196.5422	216.5122	262.7065	298.4675	320.7674	378.3059	441.459	488.9655	600.6168	678.7151	707.0316	737.9746	754.952	802.2264	862.0308	869.6413	873.9568	932.3675	978.6613	988.6679	1012.1487	1018.4832	1035.4842	1051.5254	1068.4377	1110.6014	1138.4262	1145.4846	1149.5792	1206.8681	1238.0327	1257.1673	1263.5351	1277.2496	1306.9864	1346.1239	1357.4672	1381.7795	1397.2377	1404.3541	1429.9906	1435.9686	1470.2506	1481.6346	1487.5345	1498.4683	1521.0148	1735.7789	2989.7846	3010.7127	3016.3443	3021.1306	3040.2542	3050.4213	3082.772	3104.9464	3112.6333	3113.5829	3117.1769	3132.422	3139.3684	3197.2478
C1C2CCC=CCCC12	C1[C@H]2CCC=CCC[C@@H]12	
InChI=1S/C9H14/c1-2-4-6-9-7-8(9)5-3-1/h1-2,8-9H,3-7H2/b2-1-	InChI=1S/C9H14/c1-2-4-6-9-7-8(9)5-3-1/h1-2,8-9H,3-7H2/b2-1-/t8-,9+
