24
gdb 122283	4.61767	0.69055	0.67159	2.0817	90.19	-0.2232	0.0788	0.302	1812.2928	0.218049	-368.343593	-368.334151	-368.333207	-368.378811	35.602	
C	 0.0671315625	 1.5702936851	 0.0290221418	-0.38244
C	 0.0166478845	 0.0405764521	-0.0025863373	-0.161186
C	-1.4102496364	-0.5172390516	 0.0238719977	-0.160384
C	-1.4654947971	-2.0501997474	-0.0073667031	-0.356659
C	-2.8708416545	-2.6055972467	 0.0191697852	 0.33604
C	-4.0392201068	-2.3945700501	-0.9801876065	-0.200526
N	-4.6817592498	-3.3347706891	 0.0532970079	-0.1456
C	-3.3379052914	-4.0812846518	-0.0017673565	-0.216983
C	-3.9809253508	-2.4424270994	 1.0912979039	-0.2005
H	 1.098143021	 1.9370077563	 0.0091371099	 0.112001
H	-0.4561156936	 2.0020779326	-0.8315483381	 0.113802
H	-0.4085028242	 1.9639979064	 0.9343288718	 0.113801
H	 0.5305821601	-0.3253057813	-0.9014550356	 0.094748
H	 0.5778124813	-0.3630516605	 0.8507261886	 0.094746
H	-1.9254835075	-0.1527991873	 0.9231988505	 0.096004
H	-1.9726783068	-0.1153647928	-0.8300777566	 0.096024
H	-0.954600984	-2.4188924859	-0.9078564376	 0.096169
H	-0.9068469004	-2.4562897064	 0.8475250464	 0.096174
H	-4.5139942289	-1.4100515145	-1.024597257	 0.096911
H	-3.9515280695	-2.8374560388	-1.9770393395	 0.095238
H	-3.1951286753	-4.6549963935	-0.9226584449	 0.095238
H	-3.1443464457	-4.6967229933	 0.8821645202	 0.095244
H	-3.8378388856	-2.930742025	 2.0601288889	 0.095234
H	-4.4512014811	-1.4616448671	 1.2077703399	 0.096904
52.8871	75.6378	98.2054	126.3981	248.7364	251.3014	310.3904	311.3392	439.5141	584.7375	587.8354	671.9315	731.0078	764.0008	796.6033	803.9166	894.7069	902.187	909.4408	940.5232	971.856	982.2534	993.6769	1023.4431	1025.4035	1066.8866	1078.6961	1106.0084	1164.7307	1167.2619	1170.2472	1198.9336	1200.7811	1200.8255	1257.3007	1262.9089	1288.7948	1320.6464	1331.3599	1333.27	1375.1155	1399.5292	1415.3417	1476.0252	1484.1686	1497.5624	1501.2846	1510.3042	1510.7059	1511.3872	1564.621	3001.9877	3006.9412	3017.1583	3025.4638	3029.1352	3037.43	3038.3364	3038.9922	3049.4107	3059.9058	3094.9452	3101.47	3101.5599	3107.8685	3109.3909
CCCCC12CN(C1)C2	CCCC[C@@]12CN(C1)C2	
InChI=1S/C8H15N/c1-2-3-4-8-5-9(6-8)7-8/h2-7H2,1H3	InChI=1S/C8H15N/c1-2-3-4-8-5-9(6-8)7-8/h2-7H2,1H3
