20
gdb 121691	6.55719	0.55661	0.5196	5.5394	79.	-0.2488	-0.0274	0.2214	2105.0202	0.168701	-440.346095	-440.335488	-440.334544	-440.383575	36.096	
C	 0.1993082531	 1.5380291688	 0.007829117	-0.381148
C	 0.0549546296	 0.0139309533	 0.0014034989	-0.173735
C	-1.4071376233	-0.4433500838	 0.0123893801	-0.150952
C	-1.5528206693	-1.964504775	 0.0060122805	-0.344623
C	-3.0093467777	-2.4208176358	 0.0176541865	 0.432694
O	-3.951291761	-1.6729991825	 0.0326394155	-0.296587
N	-3.1372001829	-3.823709497	 0.0108348486	-0.351744
C	-4.3044800484	-4.5821585328	 0.0189678364	 0.166761
O	-5.4298876226	-4.1690861192	 0.0326302642	-0.251866
H	 1.2512737008	 1.8392482911	-0.0001559543	 0.112515
H	-0.2828552441	 1.9838304264	-0.8689360026	 0.118539
H	-0.2668837163	 1.97485383	 0.8976509747	 0.118553
H	 0.5604554621	-0.3987346337	-0.8822917101	 0.093305
H	 0.5763908391	-0.4076430263	 0.8715314067	 0.093316
H	-1.9208061636	-0.0396255968	 0.8920258763	 0.11665
H	-1.9366439827	-0.0307442521	-0.8536469054	 0.116542
H	-1.0612502465	-2.3975969857	-0.8768633779	 0.122472
H	-1.0446979977	-2.4064371113	 0.8750544438	 0.122621
H	-2.2779180764	-4.3542515159	-0.0014240462	 0.25416
H	-4.0517925121	-5.6632397916	 0.0090890576	 0.082528
37.2032	48.0737	91.9811	92.1157	131.3779	202.5001	218.1766	246.029	277.018	312.4156	455.4542	555.6075	565.3793	634.4217	734.9213	798.4492	809.4647	898.6735	939.0899	944.2377	1025.1804	1028.3343	1069.8337	1084.0187	1122.563	1139.5403	1162.0233	1236.8447	1287.1987	1315.7447	1328.4085	1369.6662	1401.3391	1416.7616	1446.9868	1461.4634	1484.2012	1495.4774	1500.2623	1501.4932	1511.8019	1813.6017	1875.1663	2913.0117	3006.4413	3010.3819	3032.3199	3035.5456	3038.3685	3046.8318	3086.0409	3100.7457	3104.8897	3605.8986
CCCCC(=O)NC=O	CCCCC(=O)NC=O	
InChI=1S/C6H11NO2/c1-2-3-4-6(9)7-5-8/h5H,2-4H2,1H3,(H,7,8,9)	InChI=1S/C6H11NO2/c1-2-3-4-6(9)7-5-8/h5H,2-4H2,1H3,(H,7,8,9)
