18
gdb 14687	14.83109	0.52114	0.5098	0.2338	97.08	-0.2248	0.0022	0.227	2197.445	0.151412	-310.640716	-310.630604	-310.62966	-310.678672	33.8	
C	-0.023501152	 1.5799195454	 0.0185052435	-0.381284
C	-0.0036555834	 0.0503588732	 0.0115602875	-0.155523
C	 0.706532199	-0.518784653	-1.2357903198	-0.37175
C	 0.7398008616	-1.9728057119	-1.267836588	 0.207037
C	 0.7569805605	-3.1838246941	-1.2757523934	-0.114238
C	 0.7770947568	-4.5439916318	-1.2861203314	-0.213971
C	 0.7948557424	-5.7542876463	-1.2951134834	 0.25012
C	 0.8163075276	-7.2059604863	-1.3061554375	-0.518034
H	 0.9921464479	 1.9910583896	 0.0104741268	 0.116751
H	-0.547539513	 1.9750383469	-0.8589392285	 0.11675
H	-0.5303714865	 1.9630321827	 0.9090758128	 0.116117
H	 0.5015489982	-0.3259324638	 0.9077923793	 0.11238
H	-1.0259573492	-0.3418329366	 0.0453418523	 0.112379
H	 0.20628795	-0.1442898811	-2.1398931592	 0.130631
H	 1.733030454	-0.128372913	-1.2778951599	 0.130634
H	 1.3269437218	-7.5888191978	-2.1972214213	 0.15416
H	 1.3389531268	-7.6026509785	-0.4282030238	 0.153921
H	-0.1990383026	-7.6187346735	-1.3026510759	 0.15392
5.7315	57.1199	63.4259	120.4075	153.3761	240.54	259.8976	298.5264	324.3739	386.3937	445.9025	551.4678	556.6814	636.2563	742.2902	870.8745	881.2083	969.8422	1043.5495	1048.6477	1048.9189	1106.0329	1119.4165	1257.0947	1276.1099	1315.7701	1320.8291	1379.7896	1412.9389	1413.3985	1468.5702	1472.9026	1473.0459	1491.6866	1498.8854	1508.4386	2278.0771	2386.6881	3003.3633	3021.6037	3029.9322	3030.6259	3043.5116	3074.9418	3082.6783	3082.7566	3101.273	3106.5854
CCCC#CC#CC	CCCC#CC#CC	
InChI=1S/C8H10/c1-3-5-7-8-6-4-2/h3,5H2,1-2H3	InChI=1S/C8H10/c1-3-5-7-8-6-4-2/h3,5H2,1-2H3
