13
gdb 21261	5.44691	1.69814	1.30517	2.1923	62.76	-0.2389	-0.0695	0.1694	875.9799	0.096941	-394.785083	-394.778456	-394.777512	-394.816076	23.688	
C	-0.020001952	 1.4043562697	 0.0168048748	-0.23846
O	 0.0160916192	-0.0276662802	-0.0274048961	-0.258876
C	 0.617364359	-0.589417854	-1.0796046051	 0.440989
C	 0.6615951588	-1.9990934225	-1.1386658921	-0.056049
N	 1.2424851936	-2.5957811754	-2.1546616919	-0.223993
C	 1.7630751032	-1.769268769	-3.0836664214	 0.09557
N	 1.742331121	-0.4471309014	-3.0645896105	-0.1891
N	 1.1502067664	 0.1615426004	-2.0289596283	-0.276895
H	 0.9915107756	 1.8186614138	 0.0278577257	 0.147162
H	-0.5531365718	 1.8067865509	-0.848496603	 0.14716
H	-0.5454926756	 1.649578744	 0.9397038441	 0.137361
H	 0.218528648	-2.6016433429	-0.3496631197	 0.138761
H	 2.2515632348	-2.2261463136	-3.9379813764	 0.136371
115.9519	168.0128	221.7989	240.2243	415.5831	461.3978	556.1703	627.2123	641.2489	792.0783	848.7949	933.7333	988.9101	1036.3979	1045.9064	1111.2457	1176.695	1185.608	1196.8391	1255.3022	1336.456	1414.0788	1438.8048	1479.5155	1493.997	1502.9369	1556.1952	1615.9412	3049.623	3124.3864	3159.5878	3164.8805	3196.491
COC1=CN=CN=N1	COc1cncnn1	
InChI=1S/C4H5N3O/c1-8-4-2-5-3-6-7-4/h2-3H,1H3	InChI=1S/C4H5N3O/c1-8-4-2-5-3-6-7-4/h2-3H,1H3
