20
gdb 72815	2.50373	1.69896	1.2635	3.898	78.86	-0.2366	0.0195	0.2561	1065.0656	0.17248	-403.185099	-403.176984	-403.17604	-403.217581	31.786	
C	-0.2920005021	 1.394414401	 0.1542568448	-0.442538
C	 0.0217756375	-0.071663954	-0.1231150777	 0.351998
C	 1.2810382365	-0.303522398	-1.0232162883	-0.302574
C	 2.0125009014	-0.8413927727	 0.2405430085	-0.179978
N	 0.7417781041	-0.7413049357	 0.993733234	-0.107988
C	 0.0559711913	-1.8376751592	 1.4800999534	 0.36188
O	 0.5371119137	-2.7620931875	 2.0939744772	-0.360765
C	-1.4019194104	-1.670540467	 1.0148086318	-0.327504
C	-1.2530426892	-0.9314709155	-0.3325395297	-0.291804
H	 0.6077708438	 1.9405867684	 0.4531806239	 0.120655
H	-0.7019536115	 1.8718758585	-0.7426437864	 0.118567
H	-1.0285818425	 1.4911174727	 0.9587418968	 0.12112
H	 1.1331407496	-1.0606105453	-1.7966033116	 0.111053
H	 1.7064232795	 0.5934440573	-1.4777859109	 0.108087
H	 2.3948360357	-1.864419804	 0.1988344242	 0.131696
H	 2.793313114	-0.1852752616	 0.6346429539	 0.11696
H	-1.8833514571	-2.6464744499	 0.9463305154	 0.129847
H	-1.9583655413	-1.073485513	 1.746123392	 0.127375
H	-2.1261246127	-0.3288596487	-0.5945132813	 0.105712
H	-1.0963415107	-1.6555750158	-1.1387748303	 0.108198
94.4472	141.6536	200.3131	252.1602	300.7604	335.4266	351.7937	469.6682	534.8654	577.6613	661.4164	687.6535	720.5902	777.1171	810.8318	892.7132	934.4387	939.3249	976.5731	981.9641	995.2803	1021.5339	1062.8274	1108.2301	1142.551	1168.3458	1201.657	1214.7606	1230.1028	1258.8803	1277.3806	1303.1758	1312.6037	1325.1498	1336.0249	1408.0746	1467.9631	1481.5069	1487.4071	1490.9172	1500.405	1517.5645	1820.4856	3029.4973	3049.3735	3052.4585	3057.4692	3069.7692	3100.2732	3101.0877	3105.4365	3108.6749	3128.93	3132.8624
CC12CCN1C(=O)CC2	C[C@@]12CCN1C(=O)CC2	
InChI=1S/C7H11NO/c1-7-3-2-6(9)8(7)5-4-7/h2-5H2,1H3	InChI=1S/C7H11NO/c1-7-3-2-6(9)8(7)5-4-7/h2-5H2,1H3/t7-/m1/s1
