12
gdb 129126	5.10628	1.16093	0.96168	2.8256	70.85	-0.27	-0.1014	0.1686	1110.6753	0.077698	-464.958803	-464.951633	-464.950688	-464.991186	25.622	
N	-0.057511192	 1.3035279283	 0.0651895067	-0.458131
C	-0.0691699058	 0.0365566579	 0.0568749599	 0.41257
N	-1.2635904146	-0.6878406501	 0.0627842131	-0.264661
C	-1.1697991829	-1.9055869044	-0.3062757612	 0.125124
N	 0.0227432865	-2.5072407344	-0.6492294741	-0.103858
C	 0.0934458031	-3.8308549609	-1.1332660557	 0.195796
O	 1.1054056135	-4.4128878948	-1.3806486983	-0.241476
N	 1.2379262511	-1.8828561019	-0.2932696216	-0.018781
N	 1.1785956135	-0.6988356019	 0.0727321425	-0.168604
H	 0.9115150733	 1.6284507407	 0.085186095	 0.245316
H	-2.0489662814	-2.5492878925	-0.33745398	 0.159635
H	-0.9232948942	-4.2448068662	-1.2665999563	 0.11707
52.2759	141.6836	219.9501	259.6467	413.6026	427.635	454.7899	501.5609	644.6874	671.9343	719.8677	799.3596	819.6974	920.0994	944.2666	960.3785	1020.3104	1033.9576	1197.4719	1259.3927	1318.2237	1429.929	1445.6983	1588.0602	1695.5522	1728.0379	1859.9223	2968.6142	3133.5445	3475.4903
N=C1N=CN(C=O)N=N1	[NH][C@@H]1N=CN(C=O)N=N1	
InChI=1S/C3H3N5O/c4-3-5-1-8(2-9)7-6-3/h1-2,4H	InChI=1S/C3H4N5O/c4-3-5-1-8(2-9)7-6-3/h1-4H/t3-/m1/s1
