19
gdb 107053	4.01104	1.09886	0.98223	2.0741	71.44	-0.2552	0.0699	0.3251	1245.6387	0.158438	-460.146346	-460.137543	-460.136599	-460.180023	32.835	
C	 0.4045062987	 1.5597269026	-0.0429055607	-0.402388
C	 0.0830024515	 0.0763027572	 0.054045546	 0.12262
O	 0.5745984773	-0.5723840867	-1.1217161929	-0.273889
C	 0.9904026651	-1.8967527639	-0.8176047376	-0.136888
C	 1.3058379122	-1.9011575198	 0.6668339102	 0.369977
C	 1.537471767	-3.1769846207	 1.4257418593	-0.163152
O	 2.6953985258	-3.8528915379	 0.9617155635	-0.414343
O	 2.1631468619	-0.7954847164	 1.0294752985	-0.299027
C	 0.7472640596	-0.659834665	 1.2045899405	-0.080379
H	 1.4876227097	 1.7041237733	-0.0457898091	 0.138593
H	-0.0074284374	 1.9731349817	-0.967063739	 0.129521
H	-0.0277159604	 2.1051873237	 0.8020130325	 0.112251
H	-1.0078244163	-0.0713423195	 0.1451604016	 0.070037
H	 0.1950414778	-2.6322003419	-1.0228947996	 0.094002
H	 1.8537855592	-2.136856028	-1.4447796915	 0.123667
H	 1.5995703741	-2.9524441059	 2.5003656409	 0.099143
H	 0.7008752164	-3.8669875626	 1.2712326413	 0.115874
H	 3.4402457466	-3.2549359776	 1.0917225445	 0.294798
H	 0.3929040413	-0.5429072626	 2.2257240717	 0.099584
63.991	117.7928	159.5625	208.6457	238.0775	297.3969	336.8803	401.2142	409.3104	426.5965	565.2529	662.3293	697.5123	775.5838	841.181	875.7653	904.1456	934.7846	975.3377	1019.9498	1042.8506	1068.3212	1084.5517	1096.4812	1131.3379	1152.583	1189.2001	1234.3781	1269.204	1280.2781	1337.242	1359.2221	1381.1466	1390.1544	1404.907	1423.1118	1477.1222	1485.7017	1488.4283	1498.517	1505.8143	2947.1458	2974.2052	3001.6505	3045.5885	3076.3002	3085.7392	3118.1477	3134.3218	3149.0822	3802.1067
CC1OCC2(CO)OC12	C[C@H]1OC[C@@]2(CO)O[C@@H]12	
InChI=1S/C6H10O3/c1-4-5-6(2-7,9-5)3-8-4/h4-5,7H,2-3H2,1H3	InChI=1S/C6H10O3/c1-4-5-6(2-7,9-5)3-8-4/h4-5,7H,2-3H2,1H3/t4-,5+,6-/m1/s1
