16
gdb 74231	2.40428	1.63544	1.05929	5.9161	70.17	-0.2294	-0.0276	0.2018	1090.7627	0.125682	-475.050884	-475.042839	-475.041895	-475.083529	30.298	
N	 0.0462565719	 1.3530923777	-0.1779285767	-0.56079
C	-0.0165354231	 0.0035335426	 0.0337562892	 0.347578
C	-1.1874731569	-0.6759926586	 0.1215447349	-0.327798
C	-1.3030727271	-2.1314814249	 0.1743656376	 0.394542
O	-2.2577559198	-2.7571714855	-0.2045657278	-0.340174
O	-0.2136420737	-2.8303111942	 0.6834691149	-0.238867
C	 0.5465335157	-2.2108285412	 1.6982369189	 0.018379
O	 1.6150204693	-1.437277597	 1.2119464525	-0.246295
C	 1.3293511338	-0.70565837	 0.0332780209	-0.156972
H	 0.8993853776	 1.8382205969	 0.0442395844	 0.263835
H	-0.7964115403	 1.8975612228	-0.079797322	 0.264334
H	-2.1325064233	-0.1518732242	 0.0236794133	 0.098303
H	-0.1131255051	-1.6007146432	 2.3286406082	 0.104098
H	 0.9983983274	-3.0117865602	 2.287500347	 0.129572
H	 1.3696506521	-1.3680670586	-0.8411510155	 0.138118
H	 2.1400990016	 0.0217690273	-0.06650363	 0.112138
99.6024	142.1253	162.0917	309.9423	336.5582	345.0016	378.596	405.62	481.2295	515.9622	557.8704	647.9374	721.9605	755.5824	840.1844	854.2681	904.0208	950.4185	1011.8366	1055.037	1098.7435	1145.72	1162.1843	1242.0127	1263.4407	1316.1057	1320.2418	1386.9217	1426.5423	1456.9875	1499.526	1513.6964	1643.4535	1680.0938	1824.1446	3016.4947	3022.357	3085.935	3109.3177	3182.0397	3590.3528	3706.0429
NC1=CC(=O)OCOC1	NC1=CC(=O)OCOC1	
InChI=1S/C5H7NO3/c6-4-1-5(7)9-3-8-2-4/h1H,2-3,6H2	InChI=1S/C5H7NO3/c6-4-1-5(7)9-3-8-2-4/h1H,2-3,6H2
