14
gdb 19225	3.71992	1.96858	1.42336	4.6994	65.15	-0.2555	-0.0212	0.2342	844.9655	0.107783	-378.710436	-378.703616	-378.702672	-378.741698	25.15	
N	-0.1174339469	 1.2881804596	 0.0222291088	-0.543409
C	-0.0764465764	 0.034341665	 0.0497952911	 0.408433
C	-1.111720074	-1.0603464953	 0.0229911204	-0.154371
C	-0.7821820276	-2.0465914169	-1.0933038535	-0.289514
C	 0.0360642644	-2.0576699675	 0.1589506651	-0.019566
N	 0.9774854504	-0.933760323	 0.151363108	-0.101241
C	 2.3134556617	-0.8467468819	-0.1234510365	 0.132412
O	 2.9063777422	 0.1986351766	-0.273283009	-0.30586
H	 0.826300573	 1.6776455624	 0.0541152346	 0.253054
H	-2.068270292	-1.0429239859	 0.5230588622	 0.129039
H	-1.4990278653	-2.8552591864	-1.1990023377	 0.134416
H	-0.3447712617	-1.6961415292	-2.022908531	 0.137784
H	 0.1518580157	-2.8829601568	 0.8478054987	 0.130513
H	 2.7998394766	-1.8416205907	-0.1611339312	 0.088309
91.729	165.9412	206.4909	254.8005	429.1748	453.8046	530.0501	659.3204	733.9906	781.9395	819.8009	864.2443	906.1816	929.4839	958.2183	1006.432	1030.0764	1045.2917	1066.8503	1084.4575	1147.184	1186.6778	1234.5894	1298.2606	1307.8004	1390.7325	1430.2195	1480.1707	1763.9644	1829.6593	2939.8844	3125.9408	3212.9657	3218.72	3240.4116	3485.9126
N=C1C2CC2N1C=O	[NH][C]1[C@H]2C[C@H]2N1C=O	
InChI=1S/C5H6N2O/c6-5-3-1-4(3)7(5)2-8/h2-4,6H,1H2	InChI=1S/C5H6N2O/c6-5-3-1-4(3)7(5)2-8/h2-4,6H,1H2/t3-,4+/m0/s1
