21
gdb 102800	1.99525	1.15808	0.82006	3.1737	76.41	-0.276	0.0012	0.2773	1449.8648	0.179609	-461.38886	-461.378125	-461.377181	-461.42559	37.899	
C	 1.1380281326	-0.5590392714	-0.8917107196	-0.409292
C	 0.1253065663	 0.049858366	 0.0897825813	 0.046424
C	 0.2416926172	 1.5798002969	 0.1143765642	-0.409012
C	-1.3075404072	-0.3918538437	-0.247254039	 0.074432
C	-1.5472528285	-1.9037728576	-0.2135159185	-0.073456
O	-1.2129116635	-2.4712314382	 1.0353532774	-0.414703
O	-2.1992581159	 0.170744966	 0.7488220353	-0.207081
C	-3.255199236	 0.9015331977	 0.3445462345	 0.167707
O	-4.0631288955	 1.3449721099	 1.1036200467	-0.274732
H	 2.1405551068	-0.175357324	-0.6810242556	 0.121341
H	 1.181907791	-1.6483868851	-0.8166634162	 0.131554
H	 0.8982839654	-0.2957697228	-1.9292928242	 0.112139
H	 0.3439401691	-0.337569262	 1.0911803845	 0.098465
H	 0.0239524379	 2.0083134126	-0.8720512929	 0.108661
H	-0.4428741937	 2.0266059234	 0.838985436	 0.134305
H	 1.2585540405	 1.8800180633	 0.3846133732	 0.118996
H	-1.5919593298	-0.0059627189	-1.2379330954	 0.082676
H	-2.6000265552	-2.0937486452	-0.4762505373	 0.094263
H	-0.9279286317	-2.4011686589	-0.9647580275	 0.120307
H	-1.7414986117	-2.0144294537	 1.7002927531	 0.29685
H	-3.2813990781	 1.0457904658	-0.7531564899	 0.080155
45.279	54.0729	102.2689	146.2064	179.0667	206.5829	239.5751	271.1003	313.0469	359.6879	371.111	419.3162	436.3233	455.8988	622.7149	706.9059	838.1526	902.8545	926.2322	939.3771	966.5758	991.0475	1045.2926	1048.2726	1095.842	1144.9988	1163.3708	1188.5832	1207.5529	1236.2833	1290.3859	1344.888	1354.9324	1376.5977	1400.5526	1406.029	1423.6691	1427.6081	1438.4743	1487.5668	1492.5885	1501.8706	1507.5719	1520.4626	1862.7947	2949.8289	2980.6378	3001.3177	3027.1105	3031.3305	3053.5021	3093.9272	3096.197	3101.9767	3120.2708	3124.8408	3798.5981
CC(C)C(CO)OC=O	CC(C)[C@@H](CO)OC=O	
InChI=1S/C6H12O3/c1-5(2)6(3-7)9-4-8/h4-7H,3H2,1-2H3	InChI=1S/C6H12O3/c1-5(2)6(3-7)9-4-8/h4-7H,3H2,1-2H3/t6-/m1/s1
