19
gdb 102201	2.966	0.91431	0.80063	3.9083	82.06	-0.2362	0.0086	0.2448	1459.8297	0.156538	-382.027634	-382.017295	-382.016351	-382.063935	36.536	
C	 0.8578019836	-0.6852038256	 1.1376276708	-0.398136
C	-0.019317639	-0.103471782	 0.0179768612	-0.162406
N	-1.3867507504	-0.6296573701	-0.0962259834	-0.072442
C	-1.4768338176	-2.0524776564	-0.4349359033	-0.311037
C	-0.7806056884	-2.3871985924	-1.6733687193	 0.292284
C	-0.2096630623	-2.6943976149	-2.6845729248	-0.412184
C	-2.2523923703	-0.3210606343	 1.0321191111	-0.279838
C	-2.3971106957	 1.1249195281	 1.2386774496	 0.276581
N	-2.5150918417	 2.2586284295	 1.4250934222	-0.307693
H	 1.8399598843	-0.2031812498	 1.1166757954	 0.126844
H	 0.4335356731	-0.5123509017	 2.1320203369	 0.12039
H	 1.0190121863	-1.7609343238	 1.0162237942	 0.124533
H	-0.1042604349	 0.9806429032	 0.1427868921	 0.131873
H	 0.4624216294	-0.2725297815	-0.9488197148	 0.127785
H	-1.1009685702	-2.7102912185	 0.3718912542	 0.11797
H	-2.5404592238	-2.2982461515	-0.5520235716	 0.137294
H	 0.2891799541	-2.959751614	-3.5839760529	 0.203211
H	-3.2499898098	-0.7290073294	 0.8290905849	 0.153007
H	-1.9267769168	-0.7649208649	 1.9918956874	 0.131965
44.9191	45.6769	117.4912	130.8727	191.7481	239.0358	241.6295	322.896	343.939	384.8721	390.7723	457.6685	482.29	618.272	628.3039	671.3352	789.354	791.8325	915.2352	953.8975	984.3026	995.8082	1021.5542	1075.5594	1088.516	1180.2036	1201.1672	1258.6425	1296.1014	1341.564	1384.6422	1384.9766	1409.362	1422.5404	1471.72	1481.7921	1491.7901	1502.3377	1504.4025	2243.6096	2366.7471	2917.3922	2926.7241	3028.6381	3039.206	3050.3323	3058.4234	3092.4855	3109.6642	3115.8874	3504.0498
CCN(CC#C)CC#N	CCN(CC#C)CC#N	
InChI=1S/C7H10N2/c1-3-6-9(4-2)7-5-8/h1H,4,6-7H2,2H3	InChI=1S/C7H10N2/c1-3-6-9(4-2)7-5-8/h1H,4,6-7H2,2H3
