16
gdb 33987	2.35395	1.7587	1.21706	2.6323	75.07	-0.2542	-0.0014	0.2527	1024.9373	0.125434	-396.863208	-396.855601	-396.854656	-396.895367	29.204	
N	-0.0413727196	-1.1478803008	-0.0745739839	-0.350128
C	 0.0052634687	 0.0083142033	-0.0215641777	 0.173062
C	 0.0166721273	 1.426495362	 0.0878861263	 0.165951
N	 0.2514493421	 2.3285071483	-1.0806827223	-0.358939
C	 1.1598117869	 2.4042329001	 0.07359193	-0.112449
C	 0.4703217037	 3.280008375	 1.132555458	-0.294269
C	-0.70167048	 2.2706267496	 1.1360930311	 0.307891
C	-2.1544838199	 2.4072464716	 1.3373621416	-0.295668
N	-1.2955288323	 1.7608876269	 2.3578408928	-0.367127
H	 0.7100550043	 1.7736291799	-1.8049751399	 0.249305
H	 2.2161461554	 2.1903500284	-0.0265074654	 0.125671
H	 0.986944883	 3.2798727841	 2.0941914907	 0.131301
H	 0.2514209471	 4.3009942924	 0.8144096931	 0.123845
H	-2.5731514451	 3.3633713665	 1.6380315804	 0.129348
H	-2.8133453398	 1.7875352404	 0.7347381173	 0.126338
H	-1.3935400816	 0.7478124023	 2.3181788779	 0.245868
104.8735	133.8511	176.2244	294.1906	325.1047	413.4141	462.9088	515.5958	568.6079	579.3063	619.8907	783.2654	834.2932	857.8697	883.261	904.2948	928.7793	971.0649	986.3079	1033.2339	1042.0206	1063.2572	1115.2473	1140.9455	1175.6334	1218.242	1231.1379	1260.5785	1285.0636	1327.0699	1390.5972	1424.5216	1471.7357	1514.9886	2339.312	3077.6959	3110.8472	3140.5579	3198.0914	3205.2319	3465.8728	3484.3082
N#CC12NC1CC21CN1	N#C[C@]12N[C@H]1C[C@]12CN1	
InChI=1S/C6H7N3/c7-2-6-4(9-6)1-5(6)3-8-5/h4,8-9H,1,3H2	InChI=1S/C6H7N3/c7-2-6-4(9-6)1-5(6)3-8-5/h4,8-9H,1,3H2/t4-,5+,6-/m0/s1
