21
gdb 36739	5.30591	0.69117	0.63834	4.5308	83.57	-0.2397	0.0255	0.2652	1740.975	0.184444	-383.288105	-383.278761	-383.277817	-383.323882	33.655	
N	-0.3100226217	-1.0469121154	-0.4090663979	-0.299843
C	-0.2134266512	 0.0823818144	-0.1869215519	 0.257858
C	-0.0846859558	 1.509271934	 0.1267951694	-0.270187
N	 1.2308031944	 2.0096235428	-0.2521227953	-0.309727
C	 1.4161669494	 3.4383265391	-0.022739495	 0.082212
C	 1.3750530621	 3.9613816728	 1.4320486038	-0.220715
C	 1.9878371743	 5.3636968392	 1.3077236898	-0.202434
C	 3.124143422	 5.2053093147	 0.2619712467	-0.206533
C	 2.7911734023	 3.9158300493	-0.5363965873	-0.223393
H	-0.844394125	 2.0559052834	-0.4463037765	 0.154475
H	-0.3443792228	 1.6411685197	 1.1918587981	 0.133883
H	 1.9506190341	 1.4828794123	 0.2342401814	 0.224879
H	 0.6256621549	 3.9514558682	-0.5895953397	 0.081334
H	 0.3721587368	 3.9694756763	 1.8695501618	 0.093766
H	 2.0067309997	 3.3195048505	 2.0624260858	 0.090861
H	 1.2280718245	 6.0604169656	 0.9349844215	 0.101404
H	 2.3420459447	 5.7625837468	 2.2617932423	 0.099136
H	 3.1935983262	 6.0825058608	-0.3865534286	 0.102688
H	 4.0945306098	 5.1080571389	 0.7571900323	 0.10379
H	 3.533766719	 3.134990751	-0.3336264835	 0.097044
H	 2.7859957823	 4.0653267657	-1.6182847771	 0.1095
37.0212	56.8081	96.6754	115.974	188.57	242.9196	365.1132	389.4003	432.0196	509.5767	594.5636	642.6293	752.8372	775.1562	818.7694	876.8758	894.9025	942.5791	949.6322	972.1037	989.5206	1005.2058	1043.4473	1092.9561	1103.1014	1152.5496	1197.0263	1202.3539	1216.1475	1256.381	1280.1581	1293.5453	1317.3663	1321.7492	1343.6063	1347.8101	1363.58	1407.0744	1484.7582	1489.1252	1492.5172	1493.5831	1501.1122	1517.6231	2367.6313	2950.4936	2997.8982	3014.0057	3036.7231	3039.1798	3046.6419	3059.0125	3082.2642	3084.7138	3097.481	3110.5748	3508.602
N#CCNC1CCCC1	N#CCNC1CCCC1	
InChI=1S/C7H12N2/c8-5-6-9-7-3-1-2-4-7/h7,9H,1-4,6H2	InChI=1S/C7H12N2/c8-5-6-9-7-3-1-2-4-7/h7,9H,1-4,6H2
