17
gdb 87332	1.88087	1.45854	0.95924	3.8517	77.03	-0.2587	-0.0011	0.2576	1256.9342	0.132123	-421.798785	-421.789205	-421.788261	-421.833505	34.369	
C	-0.0185518173	 1.5087226044	 0.0830241916	-0.407855
C	 0.088933157	 0.0012635271	 0.045189109	-0.054493
C	 1.4259510276	-0.6866816946	-0.047065053	-0.342458
C	 0.618911504	-0.7688108626	 1.2393662043	 0.19235
O	 1.0465352726	 0.0470374027	 2.3232124726	-0.221841
C	 2.1134871567	-0.3986433902	 3.0309136203	 0.159815
O	 2.5524966205	 0.2061047277	 3.9603266799	-0.266903
C	 0.0002418784	-2.004777865	 1.6298900094	 0.321644
C	-0.5121541117	-3.0412229004	 1.9603510611	-0.457958
H	 0.8030736401	 1.9540332858	 0.6473490785	 0.13919
H	 0.0031769494	 1.9124648646	-0.9343898177	 0.124031
H	-0.9558199871	 1.8228278185	 0.5524615046	 0.132549
H	-0.7289551857	-0.5039935993	-0.4592897936	 0.111594
H	 1.5260653495	-1.5892257839	-0.6380508083	 0.134203
H	 2.3105990084	-0.0593360359	-0.0061938934	 0.132691
H	 2.5111343838	-1.3565631103	 2.651824685	 0.097076
H	-0.9691795162	-3.9535039686	 2.2557586495	 0.206365
69.1634	126.1503	135.2004	147.9338	161.3676	193.3816	280.3349	346.6377	406.2938	471.7221	518.208	550.8893	583.549	601.0441	689.7589	773.5437	810.5571	899.1554	929.6073	960.0572	1023.3534	1043.532	1065.205	1087.5571	1133.8153	1155.535	1194.924	1245.3892	1270.2035	1402.1652	1423.1549	1423.6938	1475.4701	1492.4601	1500.5357	1869.7708	2235.3925	2987.5481	3043.5617	3105.5403	3131.6898	3136.9574	3162.0212	3231.6105	3499.6379
CC1CC1(OC=O)C#C	C[C@H]1C[C@]1(OC=O)C#C	
InChI=1S/C7H8O2/c1-3-7(9-5-8)4-6(7)2/h1,5-6H,4H2,2H3	InChI=1S/C7H8O2/c1-3-7(9-5-8)4-6(7)2/h1,5-6H,4H2,2H3/t6-,7+/m0/s1
