20
gdb 81944	2.23608	1.86009	1.15764	3.4362	79.53	-0.2276	0.0298	0.2574	1108.964	0.171755	-403.187125	-403.178397	-403.177453	-403.220326	33.043	
C	-0.1993192762	 1.5574113306	 0.038449071	-0.389265
C	 0.0427993336	 0.0490603768	-0.0495778254	-0.126828
C	 0.8704201623	-0.456609846	-1.2223292587	-0.060169
C	 2.3357333771	-0.0784574812	-1.3223499738	-0.310227
C	 1.9246212245	-1.3718770355	-0.6580092219	-0.010791
N	 1.7803668867	-1.3340651559	 0.7686639535	-0.063788
C	 2.7756085809	-1.8704225672	 1.6699965219	-0.347899
C	 0.7919573417	-0.4774093755	 1.1910856792	 0.390471
O	 0.5675655691	-0.1718825243	 2.3448380184	-0.396849
H	 0.7409206005	 2.1138578262	-0.0262836492	 0.116465
H	-0.8504654492	 1.8982417878	-0.7717233265	 0.111166
H	-0.6686919729	 1.7975944925	 0.9958374807	 0.141751
H	-0.9316079023	-0.4573601726	-0.0610983163	 0.103434
H	 0.3595823286	-0.7237304977	-2.1393241731	 0.095458
H	 2.785336582	-0.1314732131	-2.3082622448	 0.117015
H	 2.7275519659	 0.709074444	-0.6862355497	 0.121133
H	 2.1707312884	-2.3355571876	-1.0912765235	 0.098761
H	 3.7620263228	-1.4257270125	 1.4858824186	 0.123279
H	 2.4587612807	-1.6328803525	 2.6869964982	 0.163942
H	 2.8606032155	-2.9575772763	 1.5604748315	 0.122941
98.3693	133.6261	159.2173	218.5878	221.6429	245.7478	307.2739	427.438	469.2533	500.8949	590.1493	632.371	721.6947	766.5221	783.8451	825.7453	920.5497	944.7588	960.5362	1029.1003	1042.6633	1064.7459	1076.0206	1093.69	1117.9686	1134.2928	1152.9199	1160.2233	1202.9972	1265.2853	1291.6015	1336.8369	1348.0279	1375.4137	1406.1785	1418.0402	1452.0735	1477.1116	1493.7625	1495.1885	1499.4438	1517.9792	1800.3692	3015.4263	3021.5973	3041.8555	3068.3746	3110.112	3125.8013	3126.7805	3142.6006	3160.9723	3181.9584	3216.1002
CC1C2CC2N(C)C1=O	C[C@H]1[C@H]2C[C@H]2N(C)C1=O	
InChI=1S/C7H11NO/c1-4-5-3-6(5)8(2)7(4)9/h4-6H,3H2,1-2H3	InChI=1S/C7H11NO/c1-4-5-3-6(5)8(2)7(4)9/h4-6H,3H2,1-2H3/t4-,5+,6+/m0/s1
