18
gdb 23031	3.90694	1.03241	0.83214	2.1995	80.38	-0.2152	-0.0317	0.1835	1361.0342	0.148247	-435.248597	-435.239639	-435.238695	-435.282605	32.714	
C	-0.0465959972	 1.5008411665	 0.0170772292	-0.488976
C	-0.1443793473	 0.004741242	-0.0204181922	 0.299435
N	-0.242441734	-0.7566921915	 1.008546584	-0.194447
O	-0.2521756984	-0.0264765372	 2.1930788359	-0.383272
C	-0.1130135308	-0.7002911681	-1.3141091675	 0.340019
N	 0.0697845864	-0.0945174712	-2.4329969547	-0.314914
C	 0.0323236303	-1.1394105285	-3.4695164553	-0.161359
C	 0.1295201883	-2.4896566915	-2.7090755859	-0.185106
N	-0.3053231148	-2.0716758249	-1.3736649195	-0.348499
H	 0.064907326	 1.8894688576	-0.9937236633	 0.160466
H	-0.9427064395	 1.9241326883	 0.48243408	 0.143215
H	 0.8032269007	 1.8084997083	 0.6343105957	 0.142188
H	-0.3349924448	-0.7140641005	 2.8630034924	 0.310449
H	-0.9155653753	-1.0611703744	-4.0192956308	 0.112787
H	 0.8389427004	-0.9969333144	-4.1939056768	 0.110927
H	-0.5216060757	-3.2646909711	-3.1222519314	 0.109891
H	 1.159851215	-2.8748138591	-2.6993215951	 0.100134
H	-0.0513008994	-2.6098363403	-0.5592192547	 0.247061
75.5174	101.3375	143.7842	177.4136	199.2187	291.116	325.4258	418.8393	422.8887	461.044	548.0676	565.7058	706.9246	734.8279	749.7311	869.8771	909.6287	947.4498	998.6415	1012.8722	1048.9291	1055.7158	1063.3141	1109.4429	1149.8248	1199.8387	1240.2249	1299.99	1312.7212	1357.6307	1394.9222	1405.535	1465.325	1483.8734	1491.4075	1499.6746	1532.1768	1671.7815	1702.2506	2990.505	3014.2174	3048.1301	3077.6314	3086.4414	3101.863	3171.8529	3623.7355	3813.6277
CC(=NO)C1=NCCN1	CC(=NO)[C]1[N]CCN1	
InChI=1S/C5H9N3O/c1-4(8-9)5-6-2-3-7-5/h9H,2-3H2,1H3,(H,6,7)	InChI=1S/C5H9N3O/c1-4(8-9)5-6-2-3-7-5/h9H,2-3H2,1H3,(H,6,7)
