21
gdb 111852	2.26745	1.4187	1.12578	1.3399	78.25	-0.2425	0.072	0.3145	1201.0806	0.182506	-424.214878	-424.205842	-424.204898	-424.248416	34.529	
C	-0.0456573455	 1.5309544708	-0.2145418671	-0.372167
C	-0.0050508035	 0.083274904	 0.2907860487	-0.222131
C	-1.3470190472	-0.6108781565	 0.1506311395	-0.032188
C	-1.8567879366	-1.2770001369	-1.1242224947	-0.16853
C	-0.8472450362	-1.734344854	-2.1556086838	-0.095985
O	 0.1583572705	-2.4662767726	-1.4441988417	-0.252849
C	-0.3964843802	-2.9921319209	-0.2481822474	-0.142623
C	-1.5656144917	-2.0914500739	 0.1245840629	 0.335489
O	-2.5393526116	-2.6083165961	 0.9751054464	-0.467641
H	 0.9258497093	 2.0197306558	-0.0921374834	 0.110817
H	-0.3106983602	 1.5716252607	-1.2763663024	 0.116141
H	-0.7882627026	 2.1224984618	 0.3325963479	 0.112263
H	 0.7655389351	-0.4752995445	-0.2473780454	 0.123419
H	 0.2848292388	 0.0763668572	 1.3494916218	 0.098013
H	-2.153155878	-0.1098630106	 0.6840867033	 0.093458
H	-2.8765265741	-1.086189354	-1.4383580143	 0.089964
H	-1.3396012396	-2.3728448036	-2.9067210034	 0.092695
H	-0.3311288194	-0.926377422	-2.6859050205	 0.110218
H	-0.7759629084	-4.0201033272	-0.3924647532	 0.07763
H	 0.4023113005	-3.0302541009	 0.5002144746	 0.113754
H	-2.9323507893	-3.3803159666	 0.5508795823	 0.280251
83.4229	141.909	185.975	220.0024	234.5313	257.8211	292.6418	325.4051	385.621	477.5544	534.7963	577.9324	701.5026	715.2371	791.8801	846.3238	888.6036	925.4799	933.1016	960.4596	1017.612	1034.2844	1066.0896	1075.5418	1088.5807	1118.6442	1126.3777	1154.9526	1211.1933	1233.7323	1239.6233	1260.7756	1301.8497	1318.4434	1339.2307	1362.1033	1380.8987	1399.9857	1410.2966	1481.0413	1494.7025	1497.5485	1508.6382	1513.7966	1524.5669	2939.1216	2974.9108	3026.0223	3030.5839	3056.5893	3064.9039	3082.1642	3103.605	3104.1398	3128.4527	3179.8655	3779.9195
CCC1C2COCC12O	CC[C@H]1[C@H]2COC[C@@]12O	
InChI=1S/C7H12O2/c1-2-5-6-3-9-4-7(5,6)8/h5-6,8H,2-4H2,1H3	InChI=1S/C7H12O2/c1-2-5-6-3-9-4-7(5,6)8/h5-6,8H,2-4H2,1H3/t5-,6+,7+/m0/s1
