17
gdb 26526	2.33556	1.82158	1.03645	7.4338	78.51	-0.2269	-0.0148	0.2121	1118.5871	0.136676	-418.081112	-418.072362	-418.071418	-418.115075	31.606	
C	 0.1315122926	 1.5514970668	-0.141733515	-0.502977
C	-0.03606182	 0.0635589219	-0.0269035781	 0.271989
C	-1.1916785645	-0.6459591556	 0.004549227	 0.075446
C	-2.5731584155	-0.064969505	-0.0715518895	-0.481206
C	-1.1393824458	-2.1233726438	 0.1232019964	 0.332681
O	-2.1588315153	-2.7889867555	 0.1540758703	-0.358231
N	 0.1272766545	-2.7409146714	 0.1997840608	-0.31339
C	 1.1713922941	-1.9946286871	 0.1630325785	 0.090394
N	 1.1591345334	-0.6381960767	 0.0548196138	-0.346085
H	 0.7107588715	 1.8086152103	-1.0369605315	 0.141102
H	-0.8258963281	 2.0643249174	-0.2029224858	 0.154927
H	 0.6733131233	 1.9488819138	 0.7252207369	 0.141075
H	-2.5863205179	 1.02255838	-0.1571034284	 0.1058
H	-3.109363531	-0.4925565566	-0.9249247412	 0.148303
H	-3.1476454778	-0.3562005619	 0.8137365736	 0.148366
H	 2.1646057338	-2.4394572139	 0.2199589225	 0.129485
H	 2.0313894629	-0.1339263826	 0.0336405498	 0.262321
72.8758	80.6748	102.6818	177.0193	282.1833	325.6168	338.2054	458.523	497.6791	529.8383	538.789	546.5764	597.1174	693.7586	815.165	858.0426	913.0966	964.3709	984.3779	1047.5147	1067.6473	1071.7105	1147.8114	1192.9959	1225.2511	1333.5063	1408.1046	1423.0202	1425.3028	1464.8499	1479.0466	1484.0564	1484.4769	1525.8378	1650.4797	1705.9339	1754.9978	3028.1643	3046.5714	3076.3781	3096.3154	3135.1394	3135.2025	3172.5106	3634.6133
CC1=C(C)C(=O)N=CN1	Cc1c(C)c(=O)nc[nH]1	
InChI=1S/C6H8N2O/c1-4-5(2)7-3-8-6(4)9/h3H,1-2H3,(H,7,8,9)	InChI=1S/C6H8N2O/c1-4-5(2)7-3-8-6(4)9/h3H,1-2H3,(H,7,8,9)
