16
gdb 34480	3.82648	1.48996	1.24125	0.7945	87.01	-0.2079	-0.0688	0.1391	997.0757	0.123901	-363.457658	-363.450562	-363.449618	-363.488926	28.7	
C	-0.2262416836	-0.9816919047	 0.3580261983	-0.453209
C	-0.1606862081	 0.1812818624	 0.0367184786	 0.293531
C	-0.0322475827	 1.5155176694	-0.3822991998	 0.055699
C	-1.0575800394	 2.4020383158	-0.5331872695	-0.066552
C	-1.8094638106	 2.7032843289	 0.7713192424	-0.272215
C	-0.7173301145	 3.8484161738	 0.8855331751	-0.04156
C	-0.4773167754	 3.8350088064	-0.5723301998	-0.081159
N	 0.6778424614	 3.6822282807	 0.2829194309	-0.111594
C	 1.2213920097	 2.3420141752	-0.0439809984	-0.226889
H	-0.297848968	-2.002582277	 0.6413707487	 0.202239
H	-2.7870600173	 3.1889406404	 0.6828629241	 0.116768
H	-1.8468985746	 1.8975756703	 1.507558675	 0.120167
H	-0.8032460551	 4.7065885153	 1.5439685797	 0.111251
H	-0.5755528365	 4.598082454	-1.335112217	 0.096826
H	 1.7256879375	 1.8764742925	 0.808598658	 0.132382
H	 1.9585875971	 2.4755193767	-0.8449925662	 0.124315
115.3844	154.9378	279.2852	366.7494	430.177	505.5284	548.6846	582.9678	600.5171	610.7383	622.5292	753.1323	755.4854	775.4898	831.2707	859.0285	926.3917	941.6165	979.546	1008.6076	1011.5037	1054.3094	1079.882	1103.9757	1165.0516	1200.7153	1210.5673	1219.6145	1229.7125	1287.7816	1324.6766	1475.6449	1499.8344	1547.1494	2193.3432	3031.7749	3042.8752	3089.3096	3115.2732	3168.2421	3186.6529	3500.4558
C#CC1=C2CC3C2N3C1	C#C[C]1[C]2C[C@@H]3[C@H]2N3C1	
InChI=1S/C8H7N/c1-2-5-4-9-7-3-6(5)8(7)9/h1,7-8H,3-4H2	InChI=1S/C8H7N/c1-2-5-4-9-7-3-6(5)8(7)9/h1,7-8H,3-4H2/t7-,8+,9?/m1/s1
