14
gdb 129581	5.27092	1.07176	0.89117	13.3814	68.06	-0.2231	-0.0251	0.198	1199.7995	0.102338	-462.350448	-462.342531	-462.341587	-462.383091	29.055	
N	 0.0815699412	 1.3441351001	-0.0764412322	-0.52071
C	 0.0654830039	 0.0206429545	-0.0417022444	 0.550508
N	 1.2086990611	-0.7076884379	-0.1728700784	-0.56928
N	-1.1017849148	-0.6089821123	 0.0872243543	-0.397097
H	-1.1386318246	-1.6162130004	 0.1309159176	 0.284327
C	-2.3505548833	 0.0423734866	 0.1401745878	 0.475347
N	-2.4797385968	 1.3679522999	 0.0966642503	-0.345346
N	-3.8170503333	 1.5499131036	 0.1736085128	-0.151303
N	-4.4057369826	 0.3836162563	 0.25812542	-0.139494
N	-3.4907887843	-0.6146567064	 0.2399178731	-0.346165
H	 0.934127638	 1.8393945176	-0.2730086522	 0.271402
H	-0.8759953501	 1.8009139114	-0.0365437057	 0.322646
H	 2.0795131657	-0.249739516	 0.0425018122	 0.282609
H	 1.1811494698	-1.686046127	 0.0657169147	 0.282554
89.5568	118.6529	194.1769	222.9016	362.9739	400.6276	406.9904	415.1356	438.0889	561.189	574.4181	707.2853	738.1954	744.7506	840.8346	911.5537	1022.0826	1037.4205	1069.1203	1094.4719	1122.2087	1129.6056	1183.8886	1243.4645	1335.8359	1481.0274	1499.2318	1560.3354	1640.7287	1681.1048	1726.2678	2739.7638	3603.1124	3633.0305	3681.1404	3710.0801
NC(N)=[NH+]C1=N[N-]N=N1	NC(=[NH2])Nc1nnnn1	
InChI=1S/C2H4N7/c3-1(4)5-2-6-8-9-7-2/h(H4-,3,4,5,6,7,8,9)/q-1/p+1	InChI=1S/C2H6N7/c3-1(4)5-2-6-8-9-7-2/h3-4H2,(H2,5,6,7,8,9)
