17
gdb 48978	3.3466	1.50863	1.3326	3.1947	72.51	-0.2532	-0.0318	0.2215	984.7743	0.136906	-421.8285	-421.821362	-421.820418	-421.860134	28.251	
O	-0.8453710868	 1.0633819569	-0.3569513265	-0.253796
C	 0.2959370985	 0.8442258697	-0.0416709898	 0.068437
C	 1.3806945149	 1.8851045383	-0.0522498012	 0.317466
C	 1.6988038338	 2.5787132482	 1.2956542681	-0.261139
C	 2.8745860881	 3.3576579332	 0.6459449125	-0.111554
C	 3.6718058244	 2.1409811088	 0.0883184681	-0.073116
O	 2.6489814236	 1.2315372665	-0.3425696582	-0.32014
C	 2.1656380419	 3.9701945458	-0.5525710709	-0.095047
C	 1.2537435771	 3.0873839053	-0.9730381031	-0.105349
H	 0.6363397506	-0.1550985696	 0.3055296544	 0.090372
H	 0.8954184525	 3.2259210003	 1.6465446091	 0.123597
H	 2.0007098777	 1.8708845509	 2.0731542362	 0.10572
H	 3.4517495737	 4.0265613212	 1.2835754811	 0.077495
H	 4.3144691498	 2.4082689925	-0.7572402513	 0.105931
H	 4.2816233435	 1.6637170872	 0.865239476	 0.103772
H	 2.4470200077	 4.9035793856	-1.0234299292	 0.107081
H	 0.6165522388	 3.1237631592	-1.8454336654	 0.120272
83.0079	179.7856	257.8736	302.7252	408.7596	441.3948	505.934	516.0976	665.2819	731.7298	746.3304	800.0169	821.6691	867.8532	896.1169	920.0955	943.8765	955.7695	963.9131	992.0182	1034.6382	1074.1086	1091.1929	1119.6293	1164.3221	1179.9122	1210.1192	1264.3044	1269.8737	1298.8311	1350.1904	1364.2276	1406.6829	1487.5827	1523.5284	1632.922	1832.4511	2906.8577	3022.9172	3066.2896	3071.5005	3124.4528	3147.8239	3208.8429	3241.2082
O=CC12CC(CO1)C=C2	O=C[C@@]12C[C@@H](CO1)C=C2	
InChI=1S/C7H8O2/c8-5-7-2-1-6(3-7)4-9-7/h1-2,5-6H,3-4H2	InChI=1S/C7H8O2/c8-5-7-2-1-6(3-7)4-9-7/h1-2,5-6H,3-4H2/t6-,7+/m0/s1
