21
gdb 80572	2.34563	1.50874	1.27802	1.8922	78.11	-0.2322	0.0753	0.3075	1129.9398	0.181912	-424.224903	-424.215932	-424.214988	-424.258086	35.057	
C	 0.2487800586	 1.5053819765	-0.0206908839	-0.409935
C	 0.126997566	-0.0047926814	-0.1034917542	 0.143141
C	 0.8235204868	-0.6739354348	-1.3089963782	-0.262106
C	 1.2935872231	-2.0084914924	-0.7440742459	-0.170694
C	 2.5194665003	-1.9553312708	 0.1667749811	 0.066511
O	 3.3120126546	-0.8140267522	 0.2248154549	-0.432162
C	 1.1352229721	-1.9178400522	 0.7589589029	 0.362461
C	 0.5599036678	-2.9708453288	 1.6625390943	-0.471629
O	 0.7477638918	-0.5887471931	 1.0645856594	-0.326025
H	 1.3002456923	 1.8100900769	-0.0404754893	 0.121651
H	-0.2587035175	 1.9719080797	-0.8708042825	 0.120423
H	-0.2054178301	 1.8829163823	 0.899553486	 0.127093
H	-0.9365563215	-0.2902502242	-0.096084041	 0.074946
H	 0.1370657957	-0.8041466664	-2.149148711	 0.102121
H	 1.6716293771	-0.0691401483	-1.6487625954	 0.115438
H	 1.0810655349	-2.928720203	-1.2764680551	 0.087526
H	 3.0970190865	-2.87094464	 0.2664249863	 0.093354
H	 2.8244971874	-0.1896119376	 0.78186444	 0.290824
H	 0.9366938047	-3.9595688464	 1.3836950519	 0.11873
H	 0.8373067202	-2.7839984682	 2.7053332597	 0.128338
H	-0.5335848307	-2.9911778957	 1.5990032499	 0.119993
80.0875	194.9828	201.7974	230.4163	235.6939	258.1271	281.8167	360.44	449.2098	470.8606	555.768	568.349	588.3573	664.8746	757.7154	819.7643	830.359	874.1109	900.4163	928.4838	978.146	993.3756	1040.3213	1060.9111	1099.4281	1125.8355	1132.5103	1147.2166	1170.977	1208.3082	1233.4574	1253.5461	1304.7843	1322.4754	1364.1673	1371.4668	1392.3387	1412.4838	1415.6844	1457.2883	1479.0345	1485.3415	1489.8214	1497.06	1499.5233	2977.7462	3030.1297	3038.6918	3046.0613	3095.5265	3101.7135	3108.9913	3111.3154	3119.2142	3139.9829	3173.0976	3720.5632
CC1CC2C(O)C2(C)O1	C[C@H]1C[C@H]2[C@@H](O)[C@@]2(C)O1	
InChI=1S/C7H12O2/c1-4-3-5-6(8)7(5,2)9-4/h4-6,8H,3H2,1-2H3	InChI=1S/C7H12O2/c1-4-3-5-6(8)7(5,2)9-4/h4-6,8H,3H2,1-2H3/t4-,5-,6+,7-/m0/s1
