17
gdb 68179	4.42859	1.12714	1.03785	1.679	84.52	-0.2246	-0.0342	0.1904	1183.3858	0.134461	-384.622544	-384.614538	-384.613594	-384.65473	31.664	
C	 0.0711100221	 1.5413402836	 0.0541088309	-0.509037
C	 0.0085521513	 0.0430051769	-0.0236967126	 0.378168
C	 0.6272908762	-0.8250283643	-1.1727826751	-0.25668
C	 0.612193133	-1.8100349914	 0.0259022468	-0.05499
O	 0.9075403425	-0.6821085419	 0.8970259925	-0.309992
C	-0.9178596069	-1.9879868315	 0.25600372	 0.298251
C	-1.3172691692	-0.7058158728	 0.2218828734	-0.281129
C	-1.6048708878	-3.1983517843	 0.4277850262	 0.108279
C	-2.1477089127	-4.266212822	 0.5693091222	-0.374293
H	 1.0887031547	 1.8960431745	-0.127699975	 0.13194
H	-0.5928232027	 1.9886868263	-0.6925049303	 0.126175
H	-0.2437169505	 1.886644325	 1.0437835161	 0.136975
H	 0.0202146427	-1.0493595865	-2.0521367247	 0.102316
H	 1.637071367	-0.5009340725	-1.4368830265	 0.107102
H	 1.2703262693	-2.6694441748	 0.1372155279	 0.08995
H	-2.3036590543	-0.2785750896	 0.3266340124	 0.119413
H	-2.6402864648	-5.1977994148	 0.6984179959	 0.187554
115.3866	140.0785	187.3573	290.123	298.441	401.8282	472.4195	503.9955	531.1454	585.7519	600.5985	630.9451	645.6663	666.9767	784.0426	792.0535	841.7482	862.6179	877.177	927.9698	983.7399	1031.075	1069.4913	1102.7524	1118.4098	1173.5701	1204.9413	1220.4169	1241.0742	1272.6173	1341.0193	1416.9616	1478.472	1486.3009	1493.9468	1640.826	2218.406	3042.2185	3062.0003	3111.938	3123.8561	3135.3174	3148.9407	3244.3453	3502.8037
CC12CC(O1)C(=C2)C#C	C[C@@]12C[C@@H](O1)C(=C2)C#C	
InChI=1S/C8H8O/c1-3-6-4-8(2)5-7(6)9-8/h1,4,7H,5H2,2H3	InChI=1S/C8H8O/c1-3-6-4-8(2)5-7(6)9-8/h1,4,7H,5H2,2H3/t7-,8-/m1/s1
