16
gdb 23595	3.13301	1.49687	1.15146	2.7638	72.99	-0.2291	-0.0075	0.2217	1041.5807	0.126039	-433.960804	-433.95367	-433.952726	-433.992257	28.597	
O	-0.1273413232	 1.3250167739	-0.0572742775	-0.389813
N	 0.0068084314	-0.0713157797	-0.0364345083	-0.24308
C	-1.1265341931	-0.6530572757	-0.0170776252	 0.491541
C	-2.4898281957	-0.0461957365	 0.1165097676	-0.160442
N	-3.4699596186	-0.4574478396	-0.9232335818	-0.307959
C	-3.4435145752	-1.1684310789	 0.3639063576	-0.047308
C	-2.6548251324	-2.4722727995	 0.3499264493	-0.042127
N	-2.042854951	-2.7967847617	-0.9488700002	-0.309618
C	-1.2207812171	-2.1420130922	 0.1008319658	-0.15526
H	 0.790084661	 1.6178993414	-0.0426649812	 0.308227
H	-2.5756681005	 0.9345298493	 0.5670796137	 0.108182
H	-4.2327344733	 0.2174342652	-0.909153177	 0.234416
H	-4.2752885353	-1.0694243222	 1.052577804	 0.090179
H	-2.9518709938	-3.2689207139	 1.0227552796	 0.089684
H	-1.8013262508	-3.786035443	-0.9608714327	 0.233803
H	-0.3885668224	-2.6817994768	 0.5376970163	 0.099574
123.0251	207.2194	243.9021	315.75	367.6133	439.1318	474.3801	557.8784	642.9376	690.6358	703.6879	792.0501	825.3423	844.2287	864.2502	874.7571	898.2883	927.856	946.2268	986.4472	1038.3245	1070.8266	1107.081	1128.835	1157.9523	1176.1448	1223.5803	1239.4851	1249.4151	1343.5002	1364.3523	1397.8294	1407.0289	1431.3752	1750.8843	3166.9369	3176.897	3183.8296	3195.9122	3483.6613	3486.9626	3818.3323
ON=C1C2NC2C2NC12	ON=C1[C@H]2N[C@H]2[C@H]2N[C@@H]12	
InChI=1S/C5H7N3O/c9-8-5-3-1(6-3)2-4(5)7-2/h1-4,6-7,9H	InChI=1S/C5H7N3O/c9-8-5-3-1(6-3)2-4(5)7-2/h1-4,6-7,9H/t1-,2+,3-,4+
