21
gdb 114860	4.11275	0.98537	0.86738	1.5256	86.43	-0.2204	0.0255	0.2459	1382.8799	0.183664	-387.069347	-387.060859	-387.059914	-387.102565	32.986	
O	-0.0609521251	 1.4957321845	 0.0395455721	-0.422414
C	 0.0318256735	 0.0796282574	-0.0285791216	-0.086964
C	-1.3786697921	-0.4932007269	 0.059883343	 0.005758
C	-1.4052233978	-2.0538589525	-0.0821085508	-0.278772
C	-2.5873971112	-2.4799234602	 0.8093465174	-0.031633
C	-2.5200071066	-3.3847297999	 2.0932399036	-0.238987
C	-3.1759610221	-2.2076750971	 2.9114550133	-0.318397
C	-2.7398680211	-1.3267289541	 1.7628025493	 0.306541
C	-2.034181628	-0.2549765097	 1.4214989607	-0.246147
H	 0.8299488418	 1.8573286065	 0.0369462076	 0.285545
H	 0.5023805732	-0.2438344403	-0.9718007258	 0.082893
H	 0.6401981821	-0.3205192094	 0.799408227	 0.080105
H	-1.959992482	-0.0237466671	-0.7473547428	 0.08391
H	-1.4887180682	-2.3798743148	-1.1230689933	 0.093457
H	-0.4674885342	-2.4630575692	 0.3165652936	 0.093966
H	-3.4919007071	-2.7067042366	 0.2313962399	 0.072528
H	-3.0627845611	-4.3329521422	 2.0704765713	 0.096945
H	-1.4885965162	-3.5620725258	 2.409303174	 0.104649
H	-4.2622747344	-2.3322030749	 2.9784810969	 0.109879
H	-2.7857831268	-1.9839463513	 3.9071941306	 0.10826
H	-1.8431113666	 0.6388401834	 2.0025464642	 0.098878
76.0486	121.0988	184.6904	220.2006	264.7855	305.9187	344.4119	437.6318	459.1692	600.7804	623.6671	685.807	791.6427	815.0017	843.4538	862.2782	899.7583	907.226	933.6527	968.1969	1008.7139	1045.0461	1064.2035	1079.2985	1096.607	1103.3253	1135.386	1174.6371	1191.9674	1219.3439	1233.5964	1240.6937	1245.2792	1254.4039	1267.7597	1307.2203	1321.1953	1341.599	1361.2839	1453.7321	1472.6753	1481.9626	1487.769	1518.318	1736.0431	2955.2091	2980.6969	3001.3937	3021.7137	3024.3746	3044.2246	3057.2795	3085.7978	3100.5422	3120.3042	3210.0208	3830.1115
OCC1CC2CCC2=C1	OC[C@H]1C[C@H]2CC[C]2[CH]1	
InChI=1S/C8H12O/c9-5-6-3-7-1-2-8(7)4-6/h3,6,8-9H,1-2,4-5H2	InChI=1S/C8H12O/c9-5-6-3-7-1-2-8(7)4-6/h3,6,8-9H,1-2,4-5H2/t6-,8-/m1/s1
