18
gdb 72755	3.12143	1.50677	1.21844	3.8796	82.12	-0.2355	-0.0305	0.205	1061.191	0.148462	-401.94992	-401.942249	-401.941305	-401.981716	30.608	
C	-0.0923903125	 1.6603140607	-0.1917600246	-0.438313
C	-0.0391550031	 0.1612728244	 0.0622462939	 0.353964
C	 0.7326438673	-0.6394573178	-1.0610845178	-0.276041
C	 2.0054041288	-0.6289544427	-0.1251353878	-0.312555
C	 0.9984267405	-0.4069672792	 0.9775883735	 0.196087
C	 0.4100050902	-1.0605331167	 1.9807016087	-0.284577
C	-1.0511811254	-0.9070006112	 1.8120686764	 0.378098
N	-1.9572595323	-1.3488762633	 2.5768020973	-0.548723
O	-1.2896270961	-0.2691569833	 0.5983027731	-0.29346
H	 0.8712073203	 2.0348721509	-0.5491387267	 0.119875
H	-0.8469956744	 1.8790742814	-0.9535956731	 0.133272
H	-0.3591199036	 2.1945287808	 0.723901587	 0.134283
H	 0.3332171302	-1.6477389817	-1.1751841551	 0.130278
H	 0.8241947103	-0.1482598193	-2.0328365934	 0.109798
H	 2.6095359654	-1.5348325039	-0.0704807588	 0.126978
H	 2.6519049588	 0.2282007617	-0.3313081239	 0.125364
H	 0.82823609	-1.7401632	 2.7087115797	 0.124293
H	-2.8801935044	-1.1754382609	 2.1767111316	 0.221379
120.4658	209.1925	228.195	248.664	315.5428	360.7193	404.3292	510.337	591.1676	611.6524	685.1559	725.8879	789.5935	811.7661	848.9162	870.0159	876.5753	896.3793	911.4221	949.2218	969.9375	1024.8942	1063.2023	1102.7019	1135.6579	1167.5103	1173.6522	1216.0396	1238.1394	1246.5446	1316.5134	1330.1483	1407.0144	1466.7913	1482.9173	1487.591	1493.8724	1696.3515	1752.8315	3041.6562	3067.3411	3071.9565	3114.084	3123.6217	3132.6354	3149.2705	3246.3505	3483.0298
CC12CCC1=CC(=N)O2	C[C@@]12CC[C]1C=C([NH])O2	
InChI=1S/C7H9NO/c1-7-3-2-5(7)4-6(8)9-7/h4,8H,2-3H2,1H3	InChI=1S/C7H9NO/c1-7-3-2-5(7)4-6(8)9-7/h4,8H,2-3H2,1H3/t7-/m1/s1
