15
gdb 27833	2.07175	1.78623	0.95981	3.4142	76.49	-0.1871	-0.0106	0.1765	1146.3512	0.113458	-453.991392	-453.983455	-453.982511	-454.023523	31.214	
N	 0.0110877848	 1.3889583596	 0.1536412558	-0.582412
C	-0.0090396522	 0.0153157605	 0.0564319894	 0.387351
C	-1.1746211708	-0.7010559678	 0.035292415	-0.28613
C	-1.1854724405	-2.1294758351	-0.001808737	 0.379229
N	-2.2084655092	-2.882056746	-0.0183797772	-0.554083
O	 0.1088404838	-2.7442406393	-0.0303976628	-0.286486
C	 1.230194516	-2.0171073865	-0.0125558969	 0.496499
O	 2.3335770067	-2.7748581941	-0.0412668373	-0.404202
C	 1.2563160458	-0.6700153397	 0.0296361301	-0.390217
H	 0.8355882513	 1.8570117474	-0.1875742055	 0.255948
H	-0.8475673346	 1.8699546978	-0.0644453095	 0.258117
H	-2.1432117612	-0.2191169024	 0.0510602128	 0.097891
H	-1.943221294	-3.864582004	-0.0510178118	 0.211299
H	 2.0540416003	-3.6991824732	-0.0617562883	 0.310541
H	 2.2015975839	-0.1478494072	 0.0588133832	 0.106654
139.3088	186.2079	197.9182	323.3817	342.5374	375.4416	395.0272	476.2053	502.2956	526.2209	560.0667	628.8866	638.7034	668.5039	698.9343	760.7696	781.9493	818.5702	858.6041	991.6559	1015.8353	1084.118	1121.0561	1196.2364	1231.2527	1267.9093	1308.807	1420.9653	1498.0722	1610.5079	1660.0112	1711.0346	1766.4484	3216.5488	3233.4401	3512.007	3586.1139	3693.5522	3797.2761
NC1=CC(=N)OC(O)=C1	N[C@@H]1C=C([NH])OC(=C1)O	
InChI=1S/C5H6N2O2/c6-3-1-4(7)9-5(8)2-3/h1-2,7-8H,6H2	InChI=1S/C5H7N2O2/c6-3-1-4(7)9-5(8)2-3/h1-3,7-8H,6H2/t3-/m1/s1
