19
gdb 122484	3.66997	0.68814	0.61243	2.0423	77.79	-0.2571	0.0115	0.2686	1776.2006	0.15826	-419.179192	-419.169361	-419.168416	-419.215077	34.473	
O	-0.172314414	 1.4828013333	-0.3825044671	-0.419524
C	-0.028794066	 0.1524274423	 0.0884087753	-0.07513
C	-1.3761769869	-0.5402253438	-0.073301339	-0.171435
C	-1.3423473325	-1.9956757656	 0.3876785085	-0.156489
N	-2.6734330388	-2.5921944798	 0.251082566	-0.07403
C	-2.9908214636	-3.2311616814	-1.0098764819	-0.237689
C	-2.7839416526	-4.0558643534	 0.2277350157	-0.148514
C	-1.6114669927	-4.8929437135	 0.3204651562	 0.284639
N	-0.6776711522	-5.567749274	 0.4267797428	-0.336815
H	 0.6718778617	 1.9314391579	-0.2794805842	 0.287574
H	 0.7428737594	-0.3919145599	-0.4804506501	 0.088896
H	 0.2758600699	 0.1334593258	 1.1477687764	 0.089046
H	-2.1338342999	 0.0079225107	 0.4957761692	 0.121966
H	-1.6707334909	-0.4885073446	-1.1282002805	 0.10994
H	-0.5793290509	-2.5578093904	-0.175517497	 0.108397
H	-1.0662321742	-2.0542474651	 1.4467505846	 0.118523
H	-3.9999856214	-3.0907401223	-1.3858150115	 0.13562
H	-2.2128789506	-3.2917941268	-1.7693826682	 0.134219
H	-3.6458871639	-4.4532323795	 0.7562488049	 0.140803
58.5767	77.8315	90.0814	132.6732	167.0985	216.1589	266.5168	316.6834	324.6303	409.511	473.5892	558.0643	644.2773	759.914	773.7339	833.9134	880.6535	916.3583	1017.3502	1020.5468	1038.9421	1065.4188	1089.3187	1118.6359	1122.4413	1137.0662	1185.2224	1239.5692	1243.3155	1309.3986	1312.2395	1321.0918	1324.4399	1367.4666	1411.1257	1468.0669	1489.2531	1500.8081	1514.8308	1530.8067	2349.137	2959.3718	2973.4933	2985.5028	3041.7968	3059.951	3095.278	3099.944	3150.7821	3194.2532	3831.1877
OCCCN1CC1C#N	OCCCN1C[C@H]1C#N	
InChI=1S/C6H10N2O/c7-4-6-5-8(6)2-1-3-9/h6,9H,1-3,5H2	InChI=1S/C6H10N2O/c7-4-6-5-8(6)2-1-3-9/h6,9H,1-3,5H2/t6-,8?/m1/s1
