17
gdb 80040	2.97238	1.44526	1.22493	3.4939	72.86	-0.2408	-0.0352	0.2056	1039.0931	0.136025	-421.79419	-421.786682	-421.785738	-421.826275	29.516	
O	-0.5182567987	 1.3363199574	-0.7081846755	-0.437224
C	-0.3259820965	 0.0099041594	-0.3605020023	 0.177161
C	 0.0737135895	-0.3929245621	 1.113871799	-0.144296
C	-1.1262340975	 0.1682214377	 1.8840243245	-0.111916
C	-2.1781872377	-0.185706231	 1.1320483769	-0.115249
C	-1.5493176074	-0.9439683362	-0.041350635	-0.121131
C	-0.5091417177	-1.8185750922	 0.7330280262	-0.070139
C	 0.3931131998	-2.7377854716	-0.0461173378	 0.124388
O	 0.3210451114	-2.9604436653	-1.2294824073	-0.243025
H	-1.1172088277	 1.7157856044	-0.0503456069	 0.275236
H	 0.3378515292	-0.4193389999	-1.1113094366	 0.115279
H	 1.0770987412	-0.2583647877	 1.5166273319	 0.073361
H	-1.0895723245	 0.7202015159	 2.8125469411	 0.110606
H	-3.2315995361	 0.0007716979	 1.285791544	 0.110742
H	-2.1830798618	-1.3584014648	-0.8223058265	 0.081741
H	-0.8942954752	-2.3645468555	 1.6007487423	 0.096444
H	 1.1662227097	-3.2411326362	 0.5811523918	 0.078023
78.5648	168.5642	227.1781	285.7892	317.4167	391.6262	496.4301	562.2242	586.3815	672.3797	717.7498	774.0841	796.069	814.3846	839.2519	909.7515	921.0771	923.8833	940.9256	977.5531	1023.689	1048.2342	1085.4239	1125.4742	1154.507	1170.5873	1187.3696	1220.6322	1230.5321	1244.3938	1308.1292	1321.435	1346.0867	1422.8902	1464.1249	1608.4045	1817.0512	2856.1345	3060.0064	3123.9565	3131.2251	3148.7203	3220.4741	3246.2838	3741.014
OC1C2C=CC1C2C=O	O[C@H]1[C@H]2C=C[C@@H]1[C@H]2C=O	
InChI=1S/C7H8O2/c8-3-6-4-1-2-5(6)7(4)9/h1-7,9H	InChI=1S/C7H8O2/c8-3-6-4-1-2-5(6)7(4)9/h1-7,9H/t4-,5+,6-,7-
