18
gdb 119548	3.48556	1.03387	0.88669	3.0142	73.77	-0.2444	0.0108	0.2552	1333.3495	0.146992	-439.063197	-439.054372	-439.053428	-439.09747	31.888	
C	-0.6400905761	 1.4385609026	-0.6770480026	-0.224503
O	-0.8279518964	 0.042502997	-0.7175704669	-0.241375
C	-0.5881936046	-0.5799558576	 0.5267127035	-0.181874
C	-0.7972392421	-2.0560872153	 0.3752491984	 0.153096
C	-0.4979730628	-2.8379737066	-0.9076171385	-0.32358
C	-1.8815502618	-2.8453445309	-0.3322570096	-0.034319
N	-1.9801381066	-3.7427287184	 0.8259382716	-0.347248
C	-0.9294666068	-3.0841423409	 1.4951519312	 0.359454
O	-0.388038989	-3.2960970453	 2.5430298144	-0.342392
H	-0.8448680314	 1.8236957263	-1.6785740621	 0.130021
H	-1.324775675	 1.9207999711	 0.0376714943	 0.109762
H	 0.3913970133	 1.7023165506	-0.3965986723	 0.109898
H	 0.4408310706	-0.3789421592	 0.8702304296	 0.106462
H	-1.2677411051	-0.1790646873	 1.2978105388	 0.10282
H	-0.3405702092	-2.1986839466	-1.7704125628	 0.142225
H	 0.1079963358	-3.7390070859	-0.8739924277	 0.117604
H	-2.7693982584	-2.4715456318	-0.8234039662	 0.122358
H	-2.0329379844	-4.7531693216	 0.7519123169	 0.241591
63.5237	82.4004	119.0518	200.5137	228.6261	274.6234	308.3296	357.8098	449.0831	573.7574	595.6702	700.4704	737.7346	762.9901	855.2207	909.6069	918.8903	970.8927	990.5705	1028.9457	1074.0219	1077.4639	1103.6806	1130.1978	1157.606	1186.232	1215.0175	1243.0588	1256.2813	1286.7862	1324.3097	1383.4131	1435.1916	1482.3933	1484.4067	1486.0253	1503.7538	1525.9895	1892.5131	2954.0126	2977.4913	2979.5272	3023.0255	3118.8347	3119.3313	3213.5981	3221.1906	3537.8251
COCC12CC1NC2=O	COC[C@]12C[C@H]1NC2=O	
InChI=1S/C6H9NO2/c1-9-3-6-2-4(6)7-5(6)8/h4H,2-3H2,1H3,(H,7,8)	InChI=1S/C6H9NO2/c1-9-3-6-2-4(6)7-5(6)8/h4H,2-3H2,1H3,(H,7,8)/t4-,6-/m1/s1
