18
gdb 73337	2.3483	1.95677	1.58077	4.27	74.34	-0.2342	0.001	0.2352	941.5575	0.148729	-401.950182	-401.942624	-401.941679	-401.981917	29.718	
C	-0.0502084933	 1.5234307979	 0.0305803227	-0.490093
C	-0.0214780794	 0.0098118744	 0.0553443028	 0.148206
C	-1.3805356857	-0.7130942581	-0.0853026044	-0.245785
C	-1.055965985	-2.2000741332	 0.202781667	-0.254721
C	 0.2955482487	-2.152813329	 0.9088541087	-0.019052
C	 0.7183279052	-0.7793494078	 1.1725485837	-0.083645
N	 1.4855385611	-1.6223661201	 0.1349424166	-0.210755
C	 0.9752614332	-0.707248321	-0.8684663454	 0.397216
O	 1.3663307205	-0.5411122725	-1.9832048459	-0.324391
H	 0.9467878026	 1.946068281	 0.1869086546	 0.130447
H	-0.4119443785	 1.8785924928	-0.9389657447	 0.140156
H	-0.7160255923	 1.9176466078	 0.8060158617	 0.119161
H	-2.0804805228	-0.312299921	 0.6565627597	 0.106407
H	-1.8162907732	-0.5568314019	-1.0760568832	 0.119272
H	-1.8036006	-2.6670036067	 0.8503799755	 0.112816
H	-0.999313365	-2.7995617941	-0.7113641349	 0.127508
H	 0.5951214316	-2.969994174	 1.556089502	 0.112902
H	 1.2348671122	-0.3822406943	 2.0361414935	 0.114352
126.5879	181.9208	195.6415	249.8487	290.5381	365.1303	481.8318	540.3479	635.1159	663.4751	708.2266	730.8794	798.0232	835.5397	859.302	884.4458	904.1151	930.092	964.3536	997.5564	1031.6453	1052.125	1082.3963	1133.8272	1173.7826	1193.1732	1230.6589	1232.4987	1250.3862	1284.7257	1314.1423	1364.849	1388.0428	1412.7933	1482.7791	1491.7601	1493.5653	1501.076	1901.4118	3034.479	3040.8649	3055.5644	3089.4033	3102.1461	3104.8048	3113.1554	3175.1052	3210.2659
CC12CCC3C1N3C2=O	C[C@]12CC[C@@H]3[C@H]1N3C2=O	
InChI=1S/C7H9NO/c1-7-3-2-4-5(7)8(4)6(7)9/h4-5H,2-3H2,1H3	InChI=1S/C7H9NO/c1-7-3-2-4-5(7)8(4)6(7)9/h4-5H,2-3H2,1H3/t4-,5-,7+,8?/m1/s1
