17
gdb 87308	1.88538	1.60533	1.06562	4.7694	78.87	-0.257	0.0169	0.2739	1174.2051	0.133388	-380.81213	-380.802676	-380.801732	-380.846491	34.307	
C	-0.2762711235	 1.444312911	 0.2506643839	-0.325126
N	 0.0108631167	 0.0187850782	 0.1544215957	-0.088382
C	 1.3438424833	-0.4158620127	-0.2061815049	-0.279933
C	 0.8182475812	-0.6378081817	 1.1851768077	 0.140174
C	 1.4518989181	 0.1267804906	 2.3549981136	-0.443873
C	 0.4976971644	 0.4617712928	 3.4061044822	 0.319865
C	-0.2991175949	 0.7326574822	 4.2630026016	-0.434877
C	 0.3473523	-1.9637111566	 1.5450021996	 0.291168
N	 0.0077131811	-3.0284865782	 1.8393215845	-0.337548
H	 0.5881107957	 2.0669696302	 0.5254513344	 0.106168
H	-0.6369164199	 1.7803977093	-0.7256171107	 0.137928
H	-1.0676200169	 1.6017298134	 0.9871200516	 0.151259
H	 1.4109643154	-1.244522303	-0.9050154572	 0.141221
H	 2.129877079	 0.3342879151	-0.2993301644	 0.117342
H	 2.2582762838	-0.4912901584	 2.7679503372	 0.156958
H	 1.9285001384	 1.0363333629	 1.9768061505	 0.140002
H	-1.0002087018	 0.9646678249	 5.0264098846	 0.207654
62.9543	107.1362	144.6426	172.9629	195.0691	267.3409	312.7678	350.5322	387.9552	410.9434	483.9699	569.1751	576.9971	636.6357	659.7046	717.0844	809.9465	864.1532	910.4551	979.0887	980.1288	1055.7474	1128.8176	1130.7861	1144.2685	1197.9252	1209.8269	1265.84	1327.7287	1379.1694	1447.6607	1464.0356	1485.805	1501.3883	1508.4544	2244.1057	2358.9185	2990.5597	3040.4609	3079.0617	3083.9566	3086.922	3129.6896	3185.1714	3504.72
CN1CC1(CC#C)C#N	CN1C[C@]1(CC#C)C#N	
InChI=1S/C7H8N2/c1-3-4-7(5-8)6-9(7)2/h1H,4,6H2,2H3	InChI=1S/C7H8N2/c1-3-4-7(5-8)6-9(7)2/h1H,4,6H2,2H3/t7-,9?/m0/s1
