21
gdb 110984	2.3819	1.31089	1.12506	2.4919	80.04	-0.2289	0.0874	0.3162	1240.8368	0.179518	-424.152608	-424.142842	-424.141898	-424.187147	35.947	
C	-0.7687055512	 1.0737727866	-0.0929585676	-0.240078
O	-0.9530032231	-0.2291439826	-0.6012065199	-0.245874
C	 0.0479863771	-0.6286362518	-1.4777091602	 0.132309
C	 1.3484409469	-1.2839839415	-0.9220907519	-0.027879
O	 0.5325704269	-2.4194273246	-0.4517349524	-0.34289
C	 0.0365810379	-2.1379652346	-1.8296203883	 0.347481
C	-1.0876721579	-2.9701179257	-2.3595628812	-0.522879
C	 1.5331884172	-2.0340858454	-2.2712958922	 0.000896
C	 2.0026824843	-1.3855586864	-3.5656766811	-0.447463
H	 0.139437583	 1.1495215729	 0.5228414629	 0.109615
H	-0.7020575748	 1.8205723039	-0.9001962161	 0.102211
H	-1.6362270882	 1.3038725664	 0.5295999741	 0.130292
H	 0.1630859677	 0.0893297698	-2.3006570172	 0.059139
H	 2.1031682143	-0.8916932648	-0.2397246627	 0.087155
H	-1.9864560666	-2.814478616	-1.7560713809	 0.146325
H	-1.3119616227	-2.6924275504	-3.394586528	 0.123478
H	-0.8247912556	-4.0317405732	-2.3333493457	 0.132229
H	 2.034199197	-2.9891612501	-2.0940719317	 0.086475
H	 1.5271690429	-0.4244877666	-3.7743659978	 0.121539
H	 3.0850086174	-1.2195781427	-3.5352757477	 0.123975
H	 1.7998768875	-2.0465635832	-4.4154104243	 0.123945
71.6405	141.2334	154.8235	168.7607	180.559	188.5721	247.816	291.8894	342.9771	386.0563	474.1874	577.9237	620.065	658.1033	741.7671	789.4242	810.3721	874.6264	928.0558	971.7245	1006.2195	1022.2583	1076.0057	1097.966	1117.9719	1133.9793	1156.5939	1177.692	1188.6344	1216.4751	1227.2248	1240.3776	1261.5333	1318.3658	1381.9141	1400.1448	1416.6933	1440.7291	1476.1099	1484.3974	1488.1792	1490.3668	1495.0129	1500.9119	1509.416	2974.2115	3013.4607	3025.5837	3037.1342	3040.3417	3080.8488	3093.6197	3112.5881	3114.0076	3118.9089	3120.8081	3121.9443
COC1C2OC1(C)C2C	CO[C@H]1[C@H]2O[C@]1(C)[C@H]2C	
InChI=1S/C7H12O2/c1-4-5-6(8-3)7(4,2)9-5/h4-6H,1-3H3	InChI=1S/C7H12O2/c1-4-5-6(8-3)7(4,2)9-5/h4-6H,1-3H3/t4-,5-,6-,7+/m0/s1
