15
gdb 14858	3.1751	1.61951	1.18679	3.1235	61.26	-0.2685	0.01	0.2785	977.1426	0.119021	-399.782989	-399.775144	-399.7742	-399.815959	27.533	
O	-0.0600488698	 1.4047665483	-0.2656759301	-0.416778
C	 0.0657748213	 0.0065343515	-0.1181116997	-0.077493
C	-1.2840075828	-0.5858414543	 0.2530397916	 0.111238
O	-2.260040196	-0.2903990541	-0.7778978239	-0.293336
C	-2.4083527149	-1.6797486997	-1.1225087929	-0.077573
C	-1.5062538592	-2.1180521141	 0.0639647373	-0.232749
C	-0.3574058214	-2.9546878497	-0.2346417448	 0.284563
N	 0.5533448762	-3.6226015391	-0.4818700389	-0.323268
H	-0.7599622544	 1.545763103	-0.9152512864	 0.295428
H	 0.4459464442	-0.4708600421	-1.0345613139	 0.104492
H	 0.7942366417	-0.1754398388	 0.6790451096	 0.124521
H	-1.615179709	-0.1960102073	 1.2214543242	 0.103858
H	-3.4495791796	-2.0110176364	-1.0649246707	 0.126531
H	-2.0017376209	-1.9131832516	-2.1122197088	 0.13008
H	-2.0712273753	-2.5625578456	 0.8852423474	 0.140484
66.3485	110.4945	119.4641	208.793	255.4587	369.761	454.2033	479.7602	526.2646	588.712	736.3562	827.0472	890.1297	918.1447	1009.9269	1036.3769	1053.1506	1082.7263	1106.9983	1131.7388	1166.3262	1199.5247	1227.7648	1273.914	1334.3958	1342.7293	1366.4435	1400.989	1435.4872	1495.7595	1524.8723	2356.5049	2990.6928	3039.4252	3055.2969	3083.3018	3088.3835	3104.1827	3786.1962
OCC1OCC1C#N	OC[C@H]1OC[C@H]1C#N	
InChI=1S/C5H7NO2/c6-1-4-3-8-5(4)2-7/h4-5,7H,2-3H2	InChI=1S/C5H7NO2/c6-1-4-3-8-5(4)2-7/h4-5,7H,2-3H2/t4-,5-/m1/s1
