15
gdb 27575	3.38979	1.2714	0.92992	0.5948	86.2	-0.2501	-0.0602	0.1898	1206.5601	0.112627	-379.693626	-379.685563	-379.684619	-379.726779	29.552	
C	 0.0117695598	 1.5067178496	-0.0018145261	-0.481342
C	-0.0092662856	 0.0030827322	 0.0132409753	 0.310849
N	 0.0596969249	-0.6240946072	-1.1641770839	-0.354624
C	 0.0407317133	-1.9654228269	-1.1474456253	 0.141526
C	-0.0480319486	-2.6768578636	 0.0600666672	-0.059924
N	-0.1169044946	-2.0583745086	 1.2342041048	-0.234151
C	-0.0972762741	-0.7254163891	 1.2055636052	-0.048791
C	 0.1129531664	-2.6661565286	-2.3895092199	 0.233137
C	 0.171953551	-3.2926276537	-3.415149502	-0.368218
H	 0.929710599	 1.8696267665	-0.4744314742	 0.147919
H	-0.8263176676	 1.8930340729	-0.5900770026	 0.14792
H	-0.0492298258	 1.9192115585	 1.0080628457	 0.125807
H	-0.0624090376	-3.7626976173	 0.0588681708	 0.12352
H	-0.1533285459	-0.2131403318	 2.162812065	 0.114747
H	 0.2247211955	-3.8326348027	-4.3283287501	 0.201627
56.3697	135.1144	141.6932	193.4198	336.3481	360.4429	468.0698	497.684	547.3342	569.9852	614.6765	639.5498	659.7058	705.9891	783.5693	908.3449	951.0615	970.264	1017.2648	1042.2234	1061.333	1197.2608	1233.6351	1260.3593	1298.5777	1410.246	1437.77	1443.2272	1475.1866	1494.3367	1575.5135	1602.8745	2231.5352	3044.3502	3106.884	3128.5385	3159.7111	3175.948	3501.3133
CC1=NC(=CN=C1)C#C	Cc1nc(cnc1)C#C	
InChI=1S/C7H6N2/c1-3-7-5-8-4-6(2)9-7/h1,4-5H,2H3	InChI=1S/C7H6N2/c1-3-7-5-8-4-6(2)9-7/h1,4-5H,2H3
