19
gdb 42844	2.64035	1.8204	1.58159	2.9286	77.7	-0.2309	-0.0025	0.2283	942.1012	0.161989	-385.882057	-385.875176	-385.874232	-385.913212	28.392	
O	 0.1747643805	-0.0055114704	 0.200590283	-0.339265
C	 0.0780376517	 1.178632846	 0.0635902123	 0.434051
C	-1.0684760378	 2.2057762284	 0.0441328663	-0.150229
C	-0.0852723452	 3.0288275415	 0.9535243661	-0.252779
C	 1.0397904403	 2.3806791514	 0.0673918383	-0.150228
C	 0.7313759617	 3.0245900954	-1.3000890599	-0.008024
C	 0.8116523018	 2.1334637855	-2.5743017701	-0.247614
C	-0.7449112325	 2.0043586288	-2.5914838468	-0.247612
C	-0.8404840508	 2.8941951164	-1.3174275231	-0.008024
H	-2.0822784153	 1.9470119036	 0.344980617	 0.081717
H	-0.1748509045	 4.1165200199	 0.893639081	 0.107804
H	-0.0691332635	 2.6961113813	 1.9927507861	 0.11766
H	 2.0755340164	 2.2919418462	 0.3908495334	 0.081717
H	 1.1592235531	 4.0252067109	-1.3888543401	 0.072472
H	 1.221697118	 2.6477488989	-3.4461477295	 0.100946
H	 1.3579534758	 1.195598484	-2.4448970837	 0.116995
H	-1.2148506637	 2.4456958874	-3.4730285088	 0.100947
H	-1.1319690193	 0.9890795135	-2.4724226201	 0.116993
H	-1.4252980667	 3.8108058212	-1.4173481414	 0.072473
132.1263	138.6305	308.7562	339.0895	449.821	458.1649	581.8357	626.5108	739.3108	754.1418	794.99	809.4427	834.9615	845.4884	853.386	919.9386	951.9782	971.8301	996.3827	1006.4693	1014.9888	1044.3523	1048.2813	1091.4017	1117.8334	1129.5562	1148.2725	1200.8338	1216.9433	1232.5517	1245.3833	1250.293	1255.2393	1284.097	1296.4928	1327.4972	1328.1789	1479.3381	1493.3067	1497.601	1893.6516	3061.4979	3065.1213	3066.3843	3075.5257	3086.8491	3105.7908	3124.0698	3133.6051	3136.7606	3140.164
O=C1C2CC1C1CCC21	O=C1[C@H]2C[C@@H]1[C@H]1CC[C@@H]21	
InChI=1S/C8H10O/c9-8-6-3-7(8)5-2-1-4(5)6/h4-7H,1-3H2	InChI=1S/C8H10O/c9-8-6-3-7(8)5-2-1-4(5)6/h4-7H,1-3H2/t4-,5+,6+,7-
