17
gdb 18858	3.42215	2.46414	2.06826	1.7543	70.61	-0.2115	0.0021	0.2136	744.0809	0.14448	-326.685872	-326.679634	-326.67869	-326.715802	25.572	
C	-0.0596827597	 1.6230696178	-0.0147629707	-0.421736
C	 0.097109145	 0.1094924259	-0.0226894601	 0.034144
C	 0.7756001346	-0.6192229088	-1.1718699952	-0.071995
C	 2.2755007907	-0.7486247232	-1.0428381019	-0.067989
C	 3.0198297114	 0.1435400121	-0.1126301008	-0.076078
C	 2.3838072732	 0.1482606243	 1.0603706098	-0.080286
C	 1.1215804301	-0.6566973204	 0.9055964365	-0.086227
N	 1.3949182354	-1.6352269198	-0.2476626597	-0.134814
H	 0.8996142684	 2.1306922301	-0.1412985589	 0.120886
H	-0.7176937002	 1.9399196797	-0.8315939338	 0.115789
H	-0.5091956793	 1.9698864355	 0.9225390409	 0.11283
H	-0.8767851634	-0.3674291123	 0.1262191601	 0.091554
H	 0.2815583989	-0.9137471089	-2.0943653702	 0.089188
H	 2.7860601055	-1.2310696943	-1.871210281	 0.090709
H	 3.9127314333	 0.6908331771	-0.384973938	 0.104734
H	 2.6264525879	 0.738038579	 1.9350293693	 0.103408
H	 0.7193421481	-1.1262830338	 1.8024059136	 0.075883
191.7873	217.1016	255.5982	450.6189	461.0662	569.8277	685.8401	723.0216	743.1654	767.2052	778.2655	816.6122	850.5606	922.0069	928.4333	940.3588	973.9287	987.0526	1048.1716	1057.731	1092.1031	1115.2145	1129.2829	1147.6206	1160.7905	1191.5383	1251.413	1290.1205	1344.9177	1353.461	1369.5	1389.942	1411.8503	1494.7659	1503.6403	1654.3136	3031.6558	3056.7853	3090.8426	3115.9243	3122.0595	3139.0379	3156.816	3206.0772	3231.4373
CC1C2C3C=CC1N23	C[C@H]1[C@H]2[C@H]3C=C[C@@H]1N23	
InChI=1S/C7H9N/c1-4-5-2-3-6-7(4)8(5)6/h2-7H,1H3	InChI=1S/C7H9N/c1-4-5-2-3-6-7(4)8(5)6/h2-7H,1H3/t4-,5+,6-,7+,8?/m1/s1
