14
gdb 93490	2.49772	1.65732	1.21822	3.7355	60.35	-0.2924	-0.0249	0.2675	998.1895	0.101277	-511.001704	-510.993945	-510.993001	-511.034641	28.138	
O	-0.1288931116	 1.4254123594	-0.2218777509	-0.423994
C	-0.0038645877	 0.0302800595	-0.0030794348	 0.019353
C	-1.4002315505	-0.5543174855	-0.0020990641	-0.084963
O	-2.0107868198	-0.4213229518	-1.2938276604	-0.243301
C	-1.3016145134	-0.5858616377	-2.4150136925	 0.492183
O	-1.7898319218	-0.5541661007	-3.4976512651	-0.337089
O	 0.0517979445	-0.8336636981	-2.2831860614	-0.260998
C	 0.7703227843	-0.6112096815	-1.1269646414	 0.389019
N	 1.9967386063	-0.8834645455	-1.044175188	-0.499344
H	 0.7587405168	 1.7954329439	-0.2881508183	 0.304361
H	 0.5039387327	-0.2009431259	 0.9405595079	 0.11769
H	-1.3739959159	-1.6121040196	 0.2834505966	 0.13534
H	-2.0495358255	-0.0079902986	 0.6832102659	 0.150046
H	 2.3474485817	-1.2731317276	-1.9221338434	 0.2417
61.4338	105.8887	188.5198	246.6246	345.1098	373.0329	377.5196	489.1922	546.2609	588.7423	699.4923	754.1583	762.0007	857.9022	926.6329	935.731	937.354	993.5381	1097.3141	1109.7766	1137.0458	1170.4655	1235.4845	1271.3995	1345.4622	1365.0535	1412.3778	1428.0992	1496.9492	1773.147	1910.8836	3045.2267	3056.1766	3134.2834	3467.925	3809.0571
OC1COC(=O)OC1=N	O[C@H]1COC(=O)O[C]1[NH]	
InChI=1S/C4H5NO4/c5-3-2(6)1-8-4(7)9-3/h2,5-6H,1H2	InChI=1S/C4H5NO4/c5-3-2(6)1-8-4(7)9-3/h2,5-6H,1H2/t2-/m0/s1
