20
gdb 95929	2.11368	1.58312	1.29528	4.7949	77.85	-0.2432	0.0291	0.2723	1096.7936	0.173137	-399.34399	-399.334633	-399.333689	-399.378119	35.206	
N	-0.2263143807	 1.4498952063	 0.751637246	-0.526664
C	-0.1072866628	 0.1898129654	 0.0098577445	-0.014397
C	 0.7826606815	-0.8808674096	 0.6668991159	-0.238437
C	-0.1280216079	-1.6048284458	 1.7046212303	-0.21756
C	-1.5782453476	-1.1726939065	 1.3790460002	-0.223598
C	-1.5269161009	-0.4998779453	-0.0210847308	 0.143906
N	-2.6677785099	 0.3875811589	-0.239613664	-0.565065
C	-1.5177939125	-1.5311330295	-1.0696560955	 0.279301
N	-1.48374318	-2.3341354346	-1.9006768523	-0.35121
H	-0.1053566344	 1.2981861523	 1.7483951454	 0.234012
H	 0.5031371124	 2.0937527486	 0.468484525	 0.240479
H	 0.2147219482	 0.4342054728	-1.0056592552	 0.0866
H	 1.1223538453	-1.5908837453	-0.0927133093	 0.127995
H	 1.676591851	-0.4390140158	 1.1158723805	 0.093966
H	-0.00908251	-2.6877915508	 1.6265293407	 0.119975
H	 0.1360940153	-1.3378868362	 2.7316270408	 0.102611
H	-2.29776664	-1.9922712436	 1.4052362996	 0.124527
H	-1.9385301821	-0.4121724981	 2.079079011	 0.108439
H	-2.4198783548	 1.2714491493	 0.2059531683	 0.241807
H	-2.76564457	 0.5867393575	-1.2314420311	 0.233313
53.1549	123.9893	149.544	188.1598	211.8639	274.9567	311.8497	347.2449	387.7063	471.4699	505.2348	559.8721	645.283	695.8189	722.8285	785.6114	816.0336	854.4015	897.3254	901.7833	947.5824	970.7388	1029.4059	1042.6935	1077.465	1099.9834	1152.0106	1180.5314	1214.5752	1238.6295	1251.3156	1279.2753	1299.7942	1333.0062	1344.4219	1372.7376	1419.9773	1485.2568	1491.6171	1513.1138	1655.8988	1662.8506	2351.5786	3054.355	3057.4076	3067.4598	3080.599	3090.7524	3107.9685	3125.7021	3452.39	3506.7725	3546.7329	3589.5285
NC1CCCC1(N)C#N	N[C@H]1CCC[C@]1(N)C#N	
InChI=1S/C6H11N3/c7-4-6(9)3-1-2-5(6)8/h5H,1-3,8-9H2	InChI=1S/C6H11N3/c7-4-6(9)3-1-2-5(6)8/h5H,1-3,8-9H2/t5-,6-/m0/s1
