17
gdb 17532	5.26257	1.43076	1.30248	2.4596	69.09	-0.2343	0.0758	0.3101	978.1393	0.141643	-363.792201	-363.784931	-363.783987	-363.82347	27.954	
C	-0.0464059909	 1.4509311689	-0.0171489593	-0.417557
C	 0.0317098887	-0.054229524	-0.0828506542	 0.021738
C	 0.763734392	-0.7131497932	-1.1906382322	-0.152574
N	 1.3590176655	-0.6240837908	 0.2122250921	-0.140134
C	 1.1540416139	-2.1137392991	 0.3563546533	-0.26086
C	 0.6279862074	-2.2109194239	-1.078307007	 0.45597
C	-0.2272841729	-3.1667628439	-1.7832005965	-0.271561
O	 1.1898180681	-3.1012194765	-2.0203377157	-0.272573
H	 0.8590340866	 1.9015301023	-0.4324597745	 0.131364
H	-0.9094515335	 1.8203694387	-0.5806964026	 0.118849
H	-0.1448685614	 1.7867902993	 1.0199761875	 0.126656
H	-0.8330916841	-0.5782389522	 0.3273164742	 0.082434
H	 1.1845550369	-0.1777670837	-2.0358553859	 0.105972
H	 2.1154632237	-2.6191991067	 0.4716162948	 0.130547
H	 0.4848680747	-2.394257612	 1.1766447465	 0.107194
H	-0.5710842062	-4.0665773463	-1.2746219511	 0.117322
H	-0.8542868887	-2.8291793171	-2.6075103096	 0.117213
121.0995	196.0315	219.5683	263.1828	326.111	387.3198	443.6105	464.4782	583.5642	735.7611	809.5672	831.9329	864.6232	889.1457	953.9669	967.2964	995.2112	1017.7244	1029.839	1096.9188	1118.0818	1129.551	1150.3616	1158.4127	1180.8137	1198.2903	1233.0113	1274.2238	1300.7554	1408.3041	1427.9327	1452.7987	1485.9258	1488.7909	1497.0802	1538.6443	3038.3304	3045.9176	3080.8859	3088.7072	3104.7948	3116.5757	3122.6428	3167.6998	3168.5848
CC1C2N1CC21CO1	C[C@H]1[C@H]2N1C[C@]12CO1	
InChI=1S/C6H9NO/c1-4-5-6(3-8-6)2-7(4)5/h4-5H,2-3H2,1H3	InChI=1S/C6H9NO/c1-4-5-6(3-8-6)2-7(4)5/h4-5H,2-3H2,1H3/t4-,5+,6+,7?/m0/s1
