18
gdb 118612	2.05951	1.09067	0.7971	3.7275	76.69	-0.2521	0.0237	0.2758	1461.913	0.144713	-439.058884	-439.048517	-439.047573	-439.095649	35.548	
C	 0.2817885131	 1.336409407	 0.0113961837	-0.228017
O	 0.13569233	-0.0652482876	 0.0399115765	-0.240864
C	 0.5559782846	-0.6925353299	-1.1492838944	-0.069243
C	 0.3626708648	-2.2049871596	-0.9714218262	-0.18029
N	 1.097658173	-2.6642131406	 0.2002485685	-0.258691
C	 2.0870063197	-3.5926657255	 0.1269371621	 0.161596
O	 2.4535077059	-4.1453634938	-0.8888420371	-0.326031
C	-1.0568860972	-2.5629137711	-0.896317976	 0.35264
C	-2.22179141	-2.8509472868	-0.846080575	-0.466695
H	 1.3324490821	 1.6335549311	-0.1307787849	 0.109814
H	-0.3170802437	 1.7893847982	-0.7931037707	 0.112878
H	-0.068641006	 1.7198401452	 0.9722795268	 0.1323
H	-0.028744403	-0.3407687925	-2.0131076872	 0.104076
H	 1.6210576061	-0.4886882571	-1.3445708358	 0.100949
H	 0.8228116345	-2.7168653498	-1.823527019	 0.151329
H	 0.8822636278	-2.2199987169	 1.0787799113	 0.262125
H	 2.5338679057	-3.7928476561	 1.1201585374	 0.080645
H	-3.2501298774	-3.1124950042	-0.80124555	 0.20148
34.8223	65.6535	103.7704	120.5718	156.9505	205.0583	234.4776	257.1858	299.8543	366.8615	436.8908	545.819	550.7116	623.6455	657.9295	693.214	752.2696	883.0597	929.0948	1024.7923	1031.6827	1063.6174	1121.9355	1162.7087	1185.4851	1204.5659	1223.5249	1266.063	1314.642	1350.3234	1408.6705	1426.4756	1479.1642	1486.1038	1499.1303	1513.5861	1521.8767	1800.7703	2241.3152	2945.8567	2970.0133	2981.4471	3014.6338	3026.2464	3071.5241	3120.2837	3503.5319	3643.886
COCC(NC=O)C#C	COC[C@@H](NC=O)C#C	
InChI=1S/C6H9NO2/c1-3-6(4-9-2)7-5-8/h1,5-6H,4H2,2H3,(H,7,8)	InChI=1S/C6H9NO2/c1-3-6(4-9-2)7-5-8/h1,5-6H,4H2,2H3,(H,7,8)/t6-/m0/s1
