17
gdb 47678	2.24508	1.80387	1.10988	4.4656	70.18	-0.2638	-0.0025	0.2613	1077.7427	0.138281	-455.198015	-455.190031	-455.189087	-455.231164	29.856	
N	-0.0968248536	 1.3553912398	-0.1887150016	-0.463498
C	-0.066213083	 0.1025901693	-0.0766528098	 0.374369
C	-1.2913302898	-0.7535917593	 0.050446513	-0.249208
C	-1.4736782629	-1.7045447499	-1.1437735015	-0.196323
C	-0.2601029861	-2.6035401284	-1.3949122574	-0.166266
N	 0.9147809396	-1.8812577991	-1.8850326492	-0.335896
C	 1.7421109552	-1.1079515464	-1.1192352345	 0.409489
O	 2.8920990381	-0.8702293923	-1.3708431352	-0.353744
O	 1.1448824135	-0.6042529256	 0.0237684999	-0.254813
H	 0.8510509996	 1.7346268919	-0.2419156983	 0.241288
H	-1.1964881552	-1.3432910612	 0.9711489559	 0.124383
H	-2.1559345	-0.0956563572	 0.1516324252	 0.134866
H	-2.3446602794	-2.3416394788	-0.9552129047	 0.1092
H	-1.6817746316	-1.1253306989	-2.0499875881	 0.122671
H	-0.0136860425	-3.1623157879	-0.4815491174	 0.122518
H	-0.5097754521	-3.339273179	-2.1635204744	 0.119247
H	 1.4000195002	-2.281408467	-2.673181452	 0.261718
61.994	92.1973	164.5041	280.5187	285.4111	391.6064	435.6448	516.401	543.8735	561.1684	636.98	684.8676	742.6102	812.5806	852.1749	887.9087	897.7229	960.4214	985.7044	1033.4193	1070.8828	1097.8378	1130.831	1211.5852	1232.956	1244.5832	1316.1033	1343.339	1377.6485	1389.1111	1411.9866	1464.3068	1471.1759	1484.0053	1497.6154	1765.0763	1857.0497	3014.2378	3035.3769	3042.3931	3089.4649	3097.1685	3125.4093	3469.092	3631.561
N=C1CCCNC(=O)O1	[NH][C]1CCCNC(=O)O1	
InChI=1S/C5H8N2O2/c6-4-2-1-3-7-5(8)9-4/h6H,1-3H2,(H,7,8)	InChI=1S/C5H8N2O2/c6-4-2-1-3-7-5(8)9-4/h6H,1-3H2,(H,7,8)
