16
gdb 131773	3.24325	1.47055	1.1008	2.6333	69.9	-0.261	0.0071	0.2681	1063.1204	0.126964	-434.045191	-434.037728	-434.036784	-434.078018	27.433	
O	 0.1600397591	 1.3694884187	 0.1047361428	-0.415416
C	 0.0596859445	 0.0228176183	-0.3010496032	-0.065162
C	-1.3478324838	-0.5115140852	-0.0695622233	 0.004124
C	-1.5402525799	-2.0890521669	-0.0466434385	-0.399173
C	-1.7608700689	-1.9009371981	 1.4505487098	 0.362003
N	-1.7871517707	-2.314523528	 2.7051026704	-0.36539
C	-1.7029377841	-1.1063089118	 3.358635843	 0.028639
N	-1.5995611075	-0.0064798118	 2.6004744035	-0.301236
N	-1.6877583208	-0.5772525686	 1.3756536842	 0.081691
H	-0.0203721027	 1.4069964397	 1.0530983749	 0.304477
H	 0.2925678612	-0.0062972258	-1.3706402874	 0.123524
H	 0.7841298225	-0.6227653792	 0.2206637114	 0.101512
H	-2.0823920292	 0.0533941294	-0.6485138402	 0.119767
H	-2.3903476582	-2.4604076537	-0.6210586832	 0.143887
H	-0.6417812214	-2.6501477649	-0.3128012204	 0.144957
H	-1.7257058	-1.033832222	 4.4361485963	 0.131794
48.389	124.7737	149.9405	268.2931	376.9046	410.3651	452.9925	538.7035	666.5059	695.6856	711.3782	785.6114	858.4531	890.1643	948.5003	979.9108	1011.8724	1072.7446	1084.068	1121.9563	1150.3694	1160.7834	1208.0833	1217.4314	1245.5517	1252.2825	1302.035	1338.2948	1393.1065	1401.2114	1430.4486	1468.9905	1495.8121	1499.8013	1565.0985	2982.1421	3076.6533	3082.6489	3095.2331	3138.3789	3258.4796	3770.7226
OCC1CC2=NC=NN12	OC[C@H]1Cc2ncnn12	
InChI=1S/C5H7N3O/c9-2-4-1-5-6-3-7-8(4)5/h3-4,9H,1-2H2	InChI=1S/C5H7N3O/c9-2-4-1-5-6-3-7-8(4)5/h3-4,9H,1-2H2/t4-/m1/s1
