13
gdb 129019	4.15766	1.71437	1.21385	1.2195	76.17	-0.2335	-0.0846	0.1489	916.561	0.093824	-411.796001	-411.790246	-411.789302	-411.826057	22.978	
N	 0.0132119103	 1.2756815171	 0.009258053	-0.301949
N	 1.0883838218	 2.0800560253	 0.0030792704	-0.068896
N	 2.2630354616	 1.5317313496	-0.011372552	-0.218885
C	 2.4280858801	 0.1843879356	-0.0202550173	-0.075145
C	 1.3654966758	-0.691175795	-0.0145858156	 0.260024
C	 1.0728392733	-2.0713785613	-0.0191962143	-0.327103
C	-0.3175079331	-2.1364549763	-0.0058781737	-0.014217
N	-0.9599039457	-0.9163880249	 0.0069638354	-0.364653
C	 0.0484171525	-0.0663603652	 0.0016733725	 0.446732
H	-0.8703688543	 1.7727442852	 0.0205901227	 0.294519
H	 3.4651285978	-0.135321543	-0.0321428159	 0.137859
H	 1.7677499025	-2.8958855149	-0.030474514	 0.112219
H	-0.9148767025	-3.0401296022	-0.004901251	 0.119495
219.9731	240.8075	395.6589	421.9465	587.3451	600.5172	625.1468	648.3133	763.2629	786.7509	792.9416	811.4141	893.2087	944.5512	946.8536	965.6755	1057.7751	1077.2756	1128.8908	1180.1208	1220.831	1274.3291	1325.1828	1402.9138	1442.457	1464.1406	1494.5239	1607.9852	1624.2147	3186.6318	3216.2024	3263.0392	3573.0429
N1N=NC=C2C=CN=C12	[nH]1nncc2ccnc12	
InChI=1S/C5H4N4/c1-2-6-5-4(1)3-7-9-8-5/h1-3H,(H,6,7,8)	InChI=1S/C5H4N4/c1-2-6-5-4(1)3-7-9-8-5/h1-3H,(H,6,7,8)
