20
gdb 97770	3.70974	0.69388	0.64257	2.9885	87.13	-0.2394	0.0229	0.2623	1802.9771	0.168438	-403.094506	-403.083904	-403.08296	-403.131506	37.666	
C	-0.3325153042	 1.510998433	 0.1620814635	-0.436844
C	-0.0418610386	 0.0289919168	 0.0670606102	 0.334758
C	-1.1743852797	-0.8156176248	-0.4813119899	-0.456323
N	 1.3326121533	-0.3027170309	-0.3280059654	-0.348918
C	 0.8868833775	-0.6195157314	 1.058066436	-0.317777
C	 1.505508833	 0.0900344148	 2.1419950341	 0.103279
C	 2.0134055749	 0.6741271296	 3.0668407959	 0.107487
C	 2.5877510367	 1.3824020275	 4.2088343887	-0.195607
O	 1.7159491691	 2.3516160839	 4.7774381989	-0.402495
H	 0.526905385	 2.0500643945	 0.5630023913	 0.143762
H	-0.5623664452	 1.9154315937	-0.8298241168	 0.116625
H	-1.1948780162	 1.696802782	 0.8114585288	 0.113825
H	-1.4094094564	-0.5195225752	-1.5103818301	 0.125214
H	-0.9170260802	-1.8799991202	-0.4851649591	 0.112809
H	-2.0853365152	-0.6907277762	 0.1138887628	 0.127086
H	 1.3468518372	-1.1645286144	-0.8701955544	 0.228142
H	 0.6746064569	-1.6659435532	 1.2711453123	 0.100515
H	 2.9155150118	 0.6487233906	 4.963100645	 0.116535
H	 3.4819853345	 1.9340899033	 3.8978849043	 0.142292
H	 0.8722590959	 1.9169664366	 4.939426664	 0.285635
21.846	65.4451	94.7637	168.2022	186.7114	222.551	240.929	295.7441	332.2729	361.2006	376.6456	403.1421	468.3399	555.2268	594.7715	705.7535	772.9829	841.6383	902.8454	960.7294	971.658	985.7856	1012.8284	1039.3111	1063.8834	1085.8569	1150.4085	1165.6897	1212.6042	1228.0522	1303.1443	1350.6518	1356.5734	1412.879	1418.4669	1423.5567	1435.7036	1476.4562	1487.3925	1491.0144	1496.2851	1508.6974	2354.0536	2972.5047	3023.6906	3035.8518	3061.1431	3088.78	3095.6424	3098.8525	3113.5045	3142.4711	3483.927	3816.7819
CC1(C)NC1C#CCO	CC1(C)N[C@H]1C#CCO	
InChI=1S/C7H11NO/c1-7(2)6(8-7)4-3-5-9/h6,8-9H,5H2,1-2H3	InChI=1S/C7H11NO/c1-7(2)6(8-7)4-3-5-9/h6,8-9H,5H2,1-2H3/t6-/m0/s1
