22
gdb 58894	2.92878	1.18877	1.16402	1.2512	81.06	-0.2434	0.08	0.3234	1220.5803	0.195012	-404.337268	-404.328226	-404.327281	-404.370957	34.67	
C	 0.0343032821	 1.443011256	-0.2610209295	-0.400526
C	 0.0058617852	-0.0472336167	 0.1130591254	-0.040593
C	 0.7766377308	-0.3198931137	 1.4135934918	-0.399649
C	-1.41840852	-0.5688614889	 0.1597850149	 0.336493
C	-2.4218376423	-0.0590411556	 1.1904419287	-0.162612
O	-3.5196236008	-0.9689796574	 1.1461201348	-0.260512
C	-3.0089750208	-2.2559340252	 0.8051722235	-0.109237
C	-1.8210158635	-1.9785869368	-0.0949112483	-0.103039
N	-2.019193331	-0.9530229527	-1.1297922434	-0.382975
H	 1.0633300926	 1.7910081216	-0.3964187916	 0.111227
H	-0.5099318089	 1.618657114	-1.1936027259	 0.127787
H	-0.4204680528	 2.0616365847	 0.5216924566	 0.110947
H	 0.4957019247	-0.6009517448	-0.6967740704	 0.08583
H	 0.7484862236	-1.3813371225	 1.6806481458	 0.112752
H	 1.8260255009	-0.0285445554	 1.3037882179	 0.11488
H	 0.3679461091	 0.2492680727	 2.2557080877	 0.115201
H	-1.9658422613	-0.0364718133	 2.1922984354	 0.097764
H	-2.8193190023	 0.9377729642	 0.9715118614	 0.111737
H	-2.684503713	-2.8150576215	 1.6983019759	 0.09633
H	-3.821495371	-2.8125001306	 0.3255136376	 0.112728
H	-1.117764703	-2.7733675347	-0.3237798611	 0.092582
H	-3.0020796883	-0.6827360231	-1.154772867	 0.232885
57.908	139.0867	200.7246	226.8677	251.9179	257.4372	293.8658	308.1903	423.9251	453.3301	507.226	582.2532	703.8503	758.0367	867.2986	878.1055	901.2212	927.8066	938.0269	961.08	966.7959	1016.6304	1041.6756	1050.4023	1079.8015	1104.2392	1139.7208	1158.3906	1178.5097	1198.7629	1221.5716	1259.6152	1294.5223	1304.7471	1336.1007	1348.6214	1372.7804	1380.4221	1396.5945	1418.549	1453.8638	1488.0079	1492.3604	1503.2425	1505.6353	1513.0524	1518.8719	2971.3569	2987.3509	3027.3036	3031.4378	3036.117	3064.9407	3067.8229	3092.4862	3099.7177	3103.3979	3111.067	3160.6564	3464.953
CC(C)C12COCC1N2	CC(C)[C@]12COC[C@H]1N2	
InChI=1S/C7H13NO/c1-5(2)7-4-9-3-6(7)8-7/h5-6,8H,3-4H2,1-2H3	InChI=1S/C7H13NO/c1-5(2)7-4-9-3-6(7)8-7/h5-6,8H,3-4H2,1-2H3/t6-,7-/m1/s1
