20
gdb 105385	2.50049	1.14439	0.91056	3.6247	78.56	-0.2496	0.0342	0.2838	1353.7969	0.1685	-440.262046	-440.25183	-440.250886	-440.297427	36.722	
C	 2.114510812	 0.6999516361	-0.6133854649	-0.422428
C	 1.1522023349	-0.3816210992	-0.1728701285	-0.053116
C	 1.6298033048	-1.6666972016	 0.4699287139	-0.34499
C	 0.8076525541	-0.676209875	 1.2615836794	 0.413389
C	 1.4062516063	 0.0910753462	 2.4112568355	-0.145559
O	 1.5267861653	-0.7867031548	 3.5257927559	-0.421025
O	-0.5610172848	-0.975448084	 1.4558790996	-0.237127
C	-0.8562012251	-2.0266629203	 2.2593395506	 0.111528
N	-2.0625328356	-2.255268313	 2.5540946108	-0.451058
H	 3.0056075976	 0.7418127104	 0.0192907082	 0.119198
H	 2.453766182	 0.5070002134	-1.6366055273	 0.125295
H	 1.6437278642	 1.6889226863	-0.6005332694	 0.125176
H	 0.2901128722	-0.5044880175	-0.822530972	 0.109087
H	 1.1557742092	-2.5961674869	 0.1765831443	 0.124467
H	 2.6818194194	-1.7545308853	 0.722054686	 0.121282
H	 2.3869614699	 0.4935104962	 2.1237285787	 0.090384
H	 0.7458613852	 0.937972606	 2.6438382556	 0.108892
H	 1.5662725937	-0.2559831257	 4.3264035009	 0.292459
H	 0.0226422878	-2.5949953439	 2.5742956957	 0.109938
H	-2.1164284331	-3.0859871573	 3.1404884368	 0.224209
66.8933	91.4735	139.5742	150.8662	189.5621	210.553	230.2312	255.9705	322.8425	344.4094	408.7114	460.538	564.2784	571.7495	751.2804	822.349	851.1166	883.4584	935.7974	952.9616	972.1671	1023.4692	1041.8683	1057.833	1065.9394	1091.3083	1113.8685	1136.9528	1185.3465	1224.0226	1254.9336	1290.9414	1302.0698	1329.0757	1406.9596	1417.8711	1425.2845	1460.5303	1484.2501	1495.1617	1502.0025	1509.0143	1737.1772	3000.1422	3033.7595	3039.8559	3094.7098	3094.9264	3107.0377	3134.1433	3154.7236	3223.5116	3510.7296	3836.7884
CC1CC1(CO)OC=N	C[C@H]1C[C@]1(CO)O[CH][NH]	
InChI=1S/C6H11NO2/c1-5-2-6(5,3-8)9-4-7/h4-5,7-8H,2-3H2,1H3	InChI=1S/C6H11NO2/c1-5-2-6(5,3-8)9-4-7/h4-5,7-8H,2-3H2,1H3/t5-,6+/m0/s1
