20
gdb 38849	2.77462	1.85499	1.54737	1.3773	76.42	-0.2368	0.0717	0.3085	940.6882	0.175955	-403.14221	-403.135509	-403.134564	-403.172999	28.313	
C	-0.0201570277	 1.5297235911	-0.0702995351	-0.070564
O	 1.3407559144	 1.9818176105	 0.0015111766	-0.274886
C	 2.1680326154	 0.8344929827	 0.2276940793	 0.105463
C	 1.4370655259	-0.2964403703	-0.4996445415	-0.2438
C	 0.0115619073	-0.014201118	 0.0145160238	-0.044007
C	-0.1307368546	-0.5198551154	 1.4646919442	-0.220571
C	 1.0459752868	-0.0982538865	 2.3423677655	-0.015738
N	 2.318029471	-0.8304509563	 2.1563472158	-0.343894
C	 2.222659002	 0.5740051928	 1.7267744975	-0.039192
H	-0.6045259099	 1.9778159793	 0.7438730114	 0.091308
H	-0.4465494547	 1.8730464261	-1.0214546755	 0.096814
H	 3.1584256207	 1.0620569223	-0.1765445642	 0.071894
H	 1.5118554626	-0.1517077991	-1.581144536	 0.095699
H	 1.8062133548	-1.2871436789	-0.2344017583	 0.125954
H	-0.7667392139	-0.4576968115	-0.6117525293	 0.066839
H	-1.0568940295	-0.1242615709	 1.8980307508	 0.095058
H	-0.2165063376	-1.6127380163	 1.473886996	 0.106205
H	 0.7951549714	 0.1804833614	 3.3629865541	 0.083594
H	 2.816210934	-0.8925832325	 3.040327352	 0.230079
H	 2.7427752716	 1.3322692795	 2.3073538629	 0.083742
140.0757	250.1874	300.9396	385.2122	423.2595	451.0738	516.8675	601.6143	742.8966	766.7839	793.3763	840.8697	858.4494	884.1971	908.1112	922.2817	942.7556	961.85	982.7057	985.8862	1013.3516	1063.614	1089.5787	1102.0942	1125.1523	1138.5783	1169.3649	1182.7844	1215.2725	1219.2308	1264.8756	1278.9773	1312.9981	1325.5628	1335.4114	1352.1247	1374.682	1389.5216	1407.9549	1452.6011	1479.1064	1487.4147	1524.9952	3008.6185	3028.7138	3041.8453	3061.0705	3068.1448	3071.9863	3080.5436	3127.8519	3139.873	3140.6439	3501.4429
C1OC2CC1CC1NC21	C1O[C@@H]2C[C@H]1C[C@H]1N[C@@H]21	
InChI=1S/C7H11NO/c1-4-2-6(9-3-4)7-5(1)8-7/h4-8H,1-3H2	InChI=1S/C7H11NO/c1-4-2-6(9-3-4)7-5(1)8-7/h4-8H,1-3H2/t4-,5-,6-,7-/m1/s1
