19
gdb 99206	4.96916	0.61213	0.56846	2.7575	73.87	-0.2483	-0.0142	0.2341	1921.9531	0.154246	-460.194658	-460.183679	-460.182735	-460.233007	36.857	
C	-0.0096580402	 1.4877177223	-0.034626918	-0.473774
C	 0.0371801956	-0.0070915761	 0.2221985381	 0.381022
O	 1.0242714527	-0.5495372755	 0.6658413956	-0.296502
C	-1.2367264837	-0.7779959503	-0.0963002816	-0.305615
C	-1.0582704869	-2.2918621726	-0.0590148737	-0.315327
C	-2.35245649	-3.0385410042	 0.2364297906	 0.374342
O	-3.3196385935	-2.5085969702	 0.7248628417	-0.284494
C	-2.3273779199	-4.5222149703	-0.1155451607	-0.169319
O	-3.4992765038	-5.1433423286	 0.3389378036	-0.394543
H	 0.8887158288	 1.962808092	 0.3608221742	 0.143329
H	-0.0733832999	 1.6750859926	-1.1130915375	 0.141643
H	-0.902224906	 1.9334436158	 0.4171541994	 0.140232
H	-1.998168572	-0.4916274371	 0.6419607182	 0.156512
H	-1.6359039731	-0.4374883347	-1.0592623857	 0.118203
H	-0.6087410635	-2.672294652	-0.9837709612	 0.114671
H	-0.3379075044	-2.5417685457	 0.7316614138	 0.156858
H	-2.2063405853	-4.5891166173	-1.2120626556	 0.108937
H	-1.4114865188	-4.9570844778	 0.3214178166	 0.110244
H	-3.4539134061	-6.0745406405	 0.1037268521	 0.29358
33.5733	38.951	71.2016	99.8081	115.0402	136.8027	228.954	247.1592	261.2397	338.0623	444.1416	470.9598	485.4739	589.9939	667.4989	735.2554	798.9445	855.817	893.5576	953.1784	983.548	1025.1743	1086.6259	1104.4931	1150.0666	1172.6369	1187.3332	1236.2126	1252.5201	1272.2859	1341.1613	1380.3087	1387.5803	1443.3347	1453.9628	1459.54	1464.9366	1476.887	1493.4022	1808.4742	1827.0206	2944.6825	2969.5101	3028.6687	3033.9178	3038.3721	3057.1599	3073.8602	3097.5394	3152.8634	3836.3624
CC(=O)CCC(=O)CO	CC(=O)CCC(=O)CO	
InChI=1S/C6H10O3/c1-5(8)2-3-6(9)4-7/h7H,2-4H2,1H3	InChI=1S/C6H10O3/c1-5(8)2-3-6(9)4-7/h7H,2-4H2,1H3
