18
gdb 100484	3.38385	0.62098	0.55523	2.6377	81.21	-0.2687	0.0182	0.287	1948.1876	0.145231	-401.930636	-401.919985	-401.91904	-401.969155	36.187	
C	-0.2837330911	 1.5476289334	 0.7594491326	-0.385476
C	-0.0372787996	 0.1878424322	 0.0779727704	-0.142706
C	 0.8970818011	-0.7051579182	 0.9138154087	-0.06889
O	 2.1397564495	-0.0318559215	 1.0204061593	-0.419045
C	-1.2870690771	-0.5185247254	-0.1941720576	 0.087365
C	-2.3176633351	-1.106312854	-0.3924693363	 0.07124
C	-3.5692094722	-1.816198415	-0.6461729457	-0.474397
C	-3.7371987694	-3.0043744748	 0.2021945457	 0.27936
N	-3.8789328811	-3.9401203506	 0.8635122522	-0.302218
H	 0.6728650656	 2.0326856482	 0.9621245747	 0.139569
H	-0.8867295692	 2.198762739	 0.1216476338	 0.120358
H	-0.8153046073	 1.4112232351	 1.7064560513	 0.121728
H	 0.4766585909	 0.3676367874	-0.8761465948	 0.117681
H	 0.4418107962	-0.880227999	 1.9006080813	 0.100322
H	 1.0069475494	-1.6802436004	 0.4177686813	 0.101198
H	 2.7149438237	-0.5467477441	 1.5932194781	 0.292392
H	-4.4297689032	-1.1551586579	-0.4799724541	 0.18093
H	-3.6283388811	-2.1357126244	-1.6947852611	 0.180589
7.6582	54.518	93.7714	132.4958	172.7691	222.0216	233.1158	268.8159	307.6851	350.1649	375.2074	391.6401	477.9128	535.3382	600.5395	773.6936	872.2189	926.9044	932.1514	937.0979	1018.395	1082.3193	1102.1365	1136.4704	1188.0432	1233.8677	1238.5449	1264.1309	1326.3769	1336.4917	1349.07	1398.8254	1449.2446	1453.0996	1493.3716	1500.7907	1521.7568	2369.4507	2378.5577	2982.1595	3011.246	3023.4279	3027.8282	3047.249	3052.8512	3117.8752	3141.9116	3837.975
CC(CO)C#CCC#N	C[C@@H](CO)C#CCC#N	
InChI=1S/C7H9NO/c1-7(6-9)4-2-3-5-8/h7,9H,3,6H2,1H3	InChI=1S/C7H9NO/c1-7(6-9)4-2-3-5-8/h7,9H,3,6H2,1H3/t7-/m1/s1
