17
gdb 97346	7.51646	0.62224	0.57671	4.2358	81.85	-0.2446	-0.0156	0.229	1878.7793	0.135151	-451.361615	-451.351561	-451.350617	-451.398061	34.122	
C	 0.3816454396	 1.8464494728	-0.9270493334	-0.311705
N	 0.1399058427	 0.4472216791	-1.2153697125	-0.248089
C	 0.0934597194	-0.3492229529	-0.233452703	 0.128107
N	-0.1342681014	-1.7020400513	-0.4364286389	-0.400993
C	-0.1931231055	-2.6168771788	 0.6133976549	 0.547356
O	-0.0519897257	-2.3031955412	 1.7680853443	-0.343982
N	-0.4325749079	-3.914185941	 0.1506028181	-0.386418
C	-0.5555726107	-5.0849317581	 0.8967176666	 0.087588
N	-0.4657592835	-5.1527943571	 2.1570038325	-0.394046
H	 1.285375677	 2.1791030893	-1.4509143118	 0.127125
H	-0.4479423384	 2.4501850627	-1.3131919561	 0.127125
H	 0.5011880825	 2.0659709951	 0.1453448364	 0.105008
H	 0.2175260949	-0.0928926	 0.8222829372	 0.137305
H	-0.2537987438	-1.978364636	-1.3998252877	 0.251005
H	-0.5310976912	-4.0379000206	-0.8439196228	 0.249686
H	-0.7412735966	-5.9326308284	 0.224200934	 0.094456
H	-0.5924503013	-6.1184550436	 2.4557059024	 0.230469
27.5805	70.1881	107.2756	126.4382	176.3461	206.9901	226.5681	310.4519	318.4176	374.9049	438.2953	541.4491	575.6087	591.8784	758.0603	819.9113	844.8245	962.4243	1009.8229	1057.9447	1060.7462	1091.7374	1143.3585	1155.7533	1179.7982	1250.805	1280.5138	1355.2707	1434.2907	1447.6082	1480.1264	1489.1026	1513.8059	1547.0614	1741.6096	1763.8194	1841.8606	2980.3009	3028.2643	3060.3115	3074.3906	3102.4232	3500.1601	3613.6687	3642.0571
CN=CNC(=O)NC=N	CN=CNC(=O)NC=N	
InChI=1S/C4H8N4O/c1-6-3-8-4(9)7-2-5/h2-3H,1H3,(H3,5,6,7,8,9)	InChI=1S/C4H8N4O/c1-6-3-8-4(9)7-2-5/h2-3H,1H3,(H3,5,6,7,8,9)
