15
gdb 18048	3.54782	2.4117	1.74969	2.3932	60.74	-0.2462	0.0211	0.2674	751.6643	0.121169	-399.784576	-399.778221	-399.777276	-399.815675	23.548	
C	 0.1328000965	 1.5323198865	 0.2507588671	-0.091802
O	 1.4749519802	 1.5271749348	-0.2727941247	-0.288213
C	 1.3473135711	 0.1551030733	-0.7198323568	 0.087122
C	 2.4520923733	-0.7506498038	-0.2062819526	-0.182006
N	 2.3099823413	-1.1883815357	 1.1767027856	-0.259023
C	 1.1626072089	-1.175186116	 1.6981995756	 0.130787
O	-0.0283970575	-0.7640571867	 1.1806931679	-0.241036
C	-0.0166932382	 0.0211749475	-0.0061990959	 0.064355
H	 0.090966725	 1.8277122317	 1.3044185059	 0.118288
H	-0.5411774866	 2.1656222435	-0.3401784706	 0.105737
H	 1.2745952982	 0.1095770208	-1.8145389382	 0.079824
H	 2.5050293252	-1.6464264365	-0.8404379525	 0.117152
H	 3.4118255052	-0.2337336178	-0.3164363267	 0.12913
H	 1.0031993588	-1.5512448541	 2.7069464663	 0.126906
H	-0.8701958915	-0.3028144975	-0.6019226505	 0.102781
67.4383	114.0038	330.0229	379.706	486.4045	509.4851	615.8855	766.7869	797.2681	857.9437	869.5665	920.424	958.9318	971.2652	1018.7144	1039.7559	1055.6351	1097.0296	1113.3256	1160.6261	1186.7918	1250.0015	1252.8624	1296.6696	1342.8016	1355.6075	1369.6032	1396.7863	1418.9978	1464.3644	1511.2607	1744.9482	3006.8747	3017.9338	3025.2363	3065.7219	3078.3846	3110.8857	3161.3078
C1OC2CN=COC12	C1O[C@H]2CN=CO[C@@H]12	
InChI=1S/C5H7NO2/c1-4-5(2-7-4)8-3-6-1/h3-5H,1-2H2	InChI=1S/C5H7NO2/c1-4-5(2-7-4)8-3-6-1/h3-5H,1-2H2/t4-,5-/m0/s1
