20
gdb 58942	3.44941	1.23717	1.15647	1.912	77.8	-0.2247	0.0668	0.2915	1150.6127	0.170876	-403.066242	-403.057816	-403.056872	-403.09934	32.723	
C	 0.1455731154	 1.4453678385	 0.2577818755	-0.402638
C	-0.0545973312	-0.040401347	-0.0554244865	-0.016221
O	-1.4421058324	-0.372129697	-0.1194967978	-0.42485
C	 0.6738944833	-0.4604436519	-1.3033157251	 0.355601
C	 0.389699661	-0.1015976316	-2.757177052	-0.245459
N	 1.2490672319	-1.2748231141	-3.1889674938	-0.170717
C	 2.6220915338	-0.8151132511	-2.7345700347	-0.181228
C	 2.1509017075	-0.9245361362	-1.2956347527	-0.141136
C	 1.0535744349	-1.8380667189	-1.7603264481	-0.091988
H	 1.2040845517	 1.6770708554	 0.4108752093	 0.120997
H	-0.2145943424	 2.0683274572	-0.570340964	 0.109573
H	-0.410262661	 1.7191771858	 1.1582836349	 0.124255
H	 0.3247654017	-0.6354370095	 0.7848697263	 0.087162
H	-1.8455128535	 0.1840324354	-0.7947691342	 0.277812
H	-0.6484039505	-0.2996472346	-3.0399247251	 0.103772
H	 0.7048481787	 0.8676938788	-3.1620062499	 0.094665
H	 3.3607218891	-1.5781270091	-2.9941221099	 0.11138
H	 2.9359908135	 0.1545600254	-3.1384919985	 0.096393
H	 2.7196483525	-0.9718649372	-0.3746512798	 0.089179
H	 0.7269514459	-2.8363826183	-1.5073396839	 0.103448
61.3401	136.9719	181.2631	242.1688	254.7011	320.7435	349.0133	471.5498	481.2398	516.0482	644.3584	738.4154	777.1219	834.1589	838.3983	853.5056	907.2398	916.0284	933.5738	971.6406	1000.6481	1011.8662	1048.7034	1069.3752	1087.1445	1101.3963	1109.1149	1132.749	1158.5141	1187.6963	1206.8618	1246.7033	1275.4742	1295.8945	1317.9883	1345.7758	1400.4043	1408.0538	1430.2296	1491.9864	1494.7327	1501.6763	1519.7464	3021.6994	3026.3438	3033.2205	3035.2597	3086.8366	3097.4284	3097.7778	3122.6275	3184.4286	3223.4435	3804.6501
CC(O)C12CN3CC1C23	C[C@@H](O)[C@@]12CN3C[C@@H]1[C@@H]23	
InChI=1S/C7H11NO/c1-4(9)7-3-8-2-5(7)6(7)8/h4-6,9H,2-3H2,1H3	InChI=1S/C7H11NO/c1-4(9)7-3-8-2-5(7)6(7)8/h4-6,9H,2-3H2,1H3/t4-,5-,6+,7+/m1/s1
