20
gdb 104797	2.66762	1.37684	1.14538	2.0773	74.26	-0.236	0.0517	0.2877	1138.0629	0.171068	-440.223675	-440.214842	-440.213898	-440.256894	34.106	
O	 0.2084500335	 1.4148871935	-0.2165023287	-0.428044
C	 0.1079598991	 0.0587333136	 0.1724279267	-0.112669
C	-1.3154531023	-0.4828083271	 0.0037439453	 0.300857
C	-2.236219571	 0.0532309186	 1.0963332393	-0.128425
O	-2.2939009413	 1.477912384	 0.9884308385	-0.432365
C	-1.9567584885	-0.3967643297	-1.4101536064	-0.302171
C	-2.1103740958	-1.913782174	-1.329280054	-0.012332
C	-0.8082738132	-2.568622558	-1.1246152685	-0.24496
N	-1.4797630757	-1.9926910078	 0.0574828125	-0.180871
H	-0.5076285793	 1.8788287166	 0.2385119946	 0.291956
H	 0.8088965387	-0.4931792012	-0.4601875385	 0.100948
H	 0.4291317385	-0.0974446223	 1.2168408782	 0.083489
H	-3.2354686918	-0.3891060448	 0.9825048609	 0.099321
H	-1.8395985929	-0.2568213647	 2.0736406605	 0.10343
H	-2.764781104	 1.8261524629	 1.750620619	 0.297459
H	-2.8961262084	 0.1578570067	-1.416419112	 0.115006
H	-1.3215529636	-0.0184285219	-2.2147001342	 0.11608
H	-3.0098682463	-2.4725201147	-1.5666091347	 0.09328
H	-0.7865573793	-3.653495232	-1.0877056678	 0.122265
H	 0.0965230938	-2.1162071776	-1.5215055707	 0.117745
93.6051	135.3428	193.3884	216.0834	247.9413	262.2254	361.5571	384.8192	426.7111	462.4712	506.0127	567.6193	687.0822	756.1619	785.2695	842.3161	904.7595	948.0269	958.4734	980.7306	1006.6484	1013.7267	1056.1888	1062.5761	1092.333	1111.728	1132.0156	1144.2357	1168.4563	1207.407	1223.6668	1238.4741	1260.3638	1310.4724	1318.338	1362.4724	1378.7391	1451.0304	1470.8036	1492.0528	1501.0292	1510.0184	1526.8795	2955.6213	2995.6594	3036.2653	3071.4828	3082.3162	3115.3809	3126.587	3162.595	3200.6935	3744.473	3838.8561
OCC1(CO)CC2CN12	OCC1(CO)C[C@H]2CN12	
InChI=1S/C6H11NO2/c8-3-6(4-9)1-5-2-7(5)6/h5,8-9H,1-4H2	InChI=1S/C6H11NO2/c8-3-6(4-9)1-5-2-7(5)6/h5,8-9H,1-4H2/t5-,7?/m0/s1
