16
gdb 16954	3.55389	2.31013	2.11401	1.7563	63.11	-0.243	-0.0016	0.2413	731.3492	0.132038	-383.730742	-383.724525	-383.723581	-383.760724	25.224	
C	-0.1458221939	 1.5572408868	-0.0402927619	-0.412385
C	 0.052252773	 0.0528713215	 0.0145277444	 0.150248
O	 0.8838541786	-0.4039908568	-1.0685647487	-0.298897
C	 1.8744562572	-1.2375492247	-0.4191207784	 0.137352
O	 1.17331691	-1.8114861599	 0.6600822387	-0.23174
C	 0.815529977	-0.545693336	 1.2511327487	-0.040378
C	 2.1615408746	 0.1569182385	 1.3366848905	-0.09307
C	 2.8447533532	-0.2867916772	 0.2797206873	-0.076044
H	 0.8090781182	 2.0841819755	 0.0248870464	 0.124661
H	-0.6246150718	 1.8364234852	-0.9830986158	 0.130845
H	-0.7933424593	 1.8907914602	 0.7783239297	 0.111987
H	-0.9135969244	-0.4631126939	-0.0540826946	 0.087416
H	 2.2446649694	-1.9825714255	-1.1199714697	 0.094315
H	 0.2283265982	-0.679642718	 2.1571168959	 0.090372
H	 2.422939168	 0.9362588602	 2.0383385804	 0.112284
H	 3.8042840518	 0.031223314	-0.1025835026	 0.113035
178.3998	232.5873	282.5751	430.2108	477.4259	515.9092	620.4096	711.3827	727.0887	787.7808	837.087	854.1951	859.4698	882.7464	900.8322	936.2799	937.9468	999.2498	1050.1276	1080.652	1096.4387	1136.8926	1156.2665	1238.564	1256.2343	1278.0753	1323.9869	1333.9223	1349.931	1379.2376	1410.0614	1486.0402	1500.1584	1633.1834	3024.0818	3039.5974	3108.1919	3127.9472	3148.4079	3155.7518	3223.6716	3249.1863
CC1OC2OC1C=C2	C[C@H]1O[C@@H]2O[C@H]1C=C2	
InChI=1S/C6H8O2/c1-4-5-2-3-6(7-4)8-5/h2-6H,1H3	InChI=1S/C6H8O2/c1-4-5-2-3-6(7-4)8-5/h2-6H,1H3/t4-,5+,6-/m1/s1
