16
gdb 43120	3.84067	1.56254	1.499	2.8742	67.29	-0.2202	-0.0194	0.2008	897.6531	0.127582	-437.862317	-437.856119	-437.855175	-437.892767	25.486	
O	-0.0056279134	 0.0024294824	-0.0714374032	-0.318783
C	-0.0265159638	 1.1908352588	 0.0350747448	 0.481119
C	-1.0898376767	 2.304870134	 0.0324996476	-0.190565
N	-0.8227032094	 2.8763004645	 1.3744469183	-0.311249
C	 0.6366909707	 3.2106140939	 1.226135242	-0.022068
C	 0.7386705612	 4.6101656263	 0.6244797924	-0.094174
O	 0.0529068647	 4.4702874251	-0.6308112309	-0.276948
C	-0.051331163	 3.0846455707	-0.879793769	 0.12652
C	 1.0011207731	 2.3177907869	 0.0004788081	-0.223437
H	-2.1386623109	 2.1462771713	-0.2045968268	 0.091827
H	-1.3508577774	 3.7384333831	 1.4860684021	 0.227998
H	 1.2080661258	 3.0428527004	 2.1396282774	 0.093705
H	 0.228156974	 5.3670000385	 1.2316137424	 0.112125
H	 1.7780339241	 4.9325719913	 0.46003017	 0.101268
H	-0.0787851476	 2.8818939701	-1.9491213255	 0.10627
H	 2.0497666889	 2.1959433327	-0.2568371595	 0.096391
152.3907	246.0407	325.2487	414.1471	504.848	537.7736	648.9415	706.9056	727.3047	777.0993	793.315	819.1268	909.7016	915.1917	931.7881	966.2924	979.4595	1002.7571	1025.6399	1056.1457	1079.6528	1103.037	1106.5066	1182.0751	1191.8781	1201.9955	1205.5829	1224.802	1285.1104	1308.9474	1324.827	1382.0093	1419.3171	1518.0902	1915.978	2990.1669	3058.5322	3111.5428	3138.2565	3161.3866	3164.8688	3487.1799
O=C1C2NC3COC2C13	O=C1[C@H]2N[C@@H]3CO[C@H]2[C@H]13	
InChI=1S/C6H7NO2/c8-5-3-2-1-9-6(3)4(5)7-2/h2-4,6-7H,1H2	InChI=1S/C6H7NO2/c8-5-3-2-1-9-6(3)4(5)7-2/h2-4,6-7H,1H2/t2-,3+,4-,6+/m1/s1
