19
gdb 51664	3.59548	1.00684	0.96433	2.9979	75.86	-0.2447	-0.02	0.2247	1281.7898	0.158778	-422.996938	-422.988498	-422.987554	-423.031613	30.643	
O	-0.5685335503	 1.3715717087	 0.873606279	-0.241156
C	 0.1219095174	 1.2034972827	-0.0994269993	 0.156211
C	 1.4560223962	 1.8699829728	-0.3357999734	-0.282198
C	 1.3260309945	 2.9618266719	-1.4033358495	-0.008762
C	 0.4869910527	 4.2392772275	-1.0643962437	-0.258939
C	 1.7016971948	 5.1385135918	-1.4278187313	-0.077553
C	 2.6535874876	 5.410170146	-0.2538095618	-0.076059
O	 3.3191643708	 4.1349017033	-0.4399560107	-0.289172
C	 2.5672610525	 3.8631265147	-1.6387842592	 0.096989
H	-0.2189943489	 0.5419109554	-0.9313987432	 0.068594
H	 1.820253946	 2.3028567007	 0.5983051802	 0.132321
H	 2.1748481491	 1.1135500073	-0.678780487	 0.111073
H	 0.9993483848	 2.525887803	-2.3547360812	 0.077491
H	-0.3874018552	 4.3787715566	-1.703100189	 0.108249
H	 0.1631773013	 4.3132237322	-0.022322046	 0.118182
H	 1.5586092358	 5.9210487524	-2.170848748	 0.080403
H	 3.3518218671	 6.242188173	-0.4108716177	 0.103671
H	 2.1996318711	 5.5031991996	 0.7403599068	 0.106669
H	 3.2163342327	 3.6477198404	-2.492657765	 0.073985
37.1429	67.7297	88.7296	169.7768	270.7363	345.2969	382.4992	467.2733	541.2704	667.235	762.3553	794.4692	837.0132	860.7283	903.1931	921.6039	932.9331	982.9698	995.2544	1009.6412	1032.3765	1079.3774	1097.2241	1126.5795	1147.9974	1167.8013	1184.8513	1215.3699	1227.1851	1249.867	1273.0121	1295.7814	1302.135	1328.3445	1358.1004	1365.5363	1428.7388	1471.996	1486.3008	1523.3549	1829.3021	2846.0814	3010.8729	3025.1128	3035.5715	3058.0129	3061.8283	3065.6432	3113.4725	3120.5524	3129.1645
O=CCC1CC2COC12	O=CC[C@H]1C[C@H]2CO[C@@H]12	
InChI=1S/C7H10O2/c8-2-1-5-3-6-4-9-7(5)6/h2,5-7H,1,3-4H2	InChI=1S/C7H10O2/c8-2-1-5-3-6-4-9-7(5)6/h2,5-7H,1,3-4H2/t5-,6-,7-/m0/s1
