18
gdb 47043	3.57945	1.31841	1.04294	4.0475	71.42	-0.2392	0.0282	0.2674	1122.6041	0.150496	-439.109664	-439.102079	-439.101135	-439.14222	29.082	
O	-0.1165237113	 0.0787023896	-0.756021061	-0.367071
C	 0.010942932	 1.1424188634	-0.1829765629	 0.381711
C	-1.0807441554	 1.7882591701	 0.6698217679	-0.343408
C	-1.1910524693	 3.2959178734	 0.421729845	 0.133371
O	-1.4915948201	 4.0659161119	 1.612085678	-0.291733
C	-0.3451393553	 4.9171430437	 1.4036771285	-0.095232
C	 0.1530038815	 4.0388092466	 0.2391369936	-0.055888
C	 1.3442047192	 3.1161289893	 0.5133951847	-0.199736
N	 1.1641541336	 1.8809381503	-0.2336232292	-0.296033
H	-2.0143165769	 1.2570425605	 0.4827344334	 0.131119
H	-0.8183421044	 1.6451799221	 1.7253801796	 0.133321
H	-1.921934469	 3.5041483391	-0.3691612093	 0.089109
H	-0.6366503222	 5.9355151638	 1.1177799113	 0.104524
H	 0.2970242917	 4.9680210138	 2.2920358626	 0.103733
H	 0.2742409668	 4.5416182503	-0.7217729712	 0.087293
H	 2.2864250273	 3.5762867115	 0.2054206299	 0.118771
H	 1.4227682882	 2.9186129771	 1.5930874877	 0.115583
H	 1.9371309133	 1.4606565238	-0.7257186585	 0.250566
73.0793	94.3197	222.7923	328.6482	357.3537	420.7983	430.7955	474.9872	540.1008	625.5285	711.9923	794.9388	797.2688	854.3245	874.7976	934.8479	986.9126	1014.3713	1031.1395	1053.8077	1089.368	1102.3198	1146.9255	1172.0206	1181.9328	1224.4882	1259.0335	1286.9676	1303.6882	1310.4055	1361.7609	1373.1936	1380.5652	1390.6684	1458.2874	1472.588	1513.7331	1526.2711	1804.2346	2989.8263	3011.5944	3026.2477	3044.166	3052.8655	3086.1047	3101.386	3133.3819	3633.1294
O=C1CC2OCC2CN1	O=C1C[C@H]2OC[C@H]2CN1	
InChI=1S/C6H9NO2/c8-6-1-5-4(2-7-6)3-9-5/h4-5H,1-3H2,(H,7,8)	InChI=1S/C6H9NO2/c8-6-1-5-4(2-7-6)3-9-5/h4-5H,1-3H2,(H,7,8)/t4-,5-/m1/s1
