23
gdb 97550	3.04091	0.69497	0.66505	1.4652	91.86	-0.2415	0.0571	0.2986	1866.3218	0.202226	-388.27307	-388.261196	-388.260252	-388.311647	41.952	
C	-0.0484037079	 1.5603694849	-0.0158879823	-0.362246
C	-0.004078161	 0.0222956083	 0.0372456618	-0.314851
C	 0.7062077356	-0.4917136235	 1.2048382681	 0.055535
C	 1.3020145649	-0.8952620987	 2.1718888672	 0.056236
C	 2.02148121	-1.391013542	 3.3509646958	 0.066473
C	 2.0330690176	-2.9366357925	 3.3496325748	-0.399629
C	 3.4704429164	-0.8531527664	 3.3501517675	-0.399724
C	 1.2765286455	-0.8770277736	 4.6038249085	-0.076017
O	 1.9568383563	-1.3463826472	 5.7586596628	-0.427342
H	 0.9621165561	 1.976871123	-0.0462952685	 0.127029
H	-0.5878654244	 1.8974471155	-0.9062535734	 0.11222
H	-0.5523617189	 1.9650092075	 0.8661708535	 0.124955
H	-1.0282590387	-0.372919738	 0.0282329738	 0.125482
H	 0.4716900175	-0.3604385059	-0.8750876874	 0.127151
H	 2.5679382154	-3.3144042009	 2.4740617961	 0.114337
H	 2.5240113452	-3.305604471	 4.2531712936	 0.130107
H	 1.0135389927	-3.332568922	 3.320951495	 0.112775
H	 3.4784504124	 0.2405211921	 3.3194853347	 0.112225
H	 3.9883561258	-1.1791468506	 4.2550491144	 0.130071
H	 4.0145978685	-1.2208875827	 2.4760118157	 0.114148
H	 1.2482287218	 0.2225187916	 4.5757213605	 0.090717
H	 0.2385728974	-1.2407566772	 4.5755291122	 0.091095
H	 1.4902366918	-1.0239023008	 6.5344570256	 0.289253
12.9694	73.194	90.8073	137.2727	183.201	194.533	213.1147	227.9556	247.1739	277.9211	320.6897	351.2482	360.8994	409.5901	493.0884	534.1507	565.9404	681.7401	785.1174	811.9437	930.0102	935.3196	967.9952	973.1632	1050.128	1065.0101	1076.2092	1100.9315	1104.2974	1184.0568	1198.8481	1239.527	1286.4616	1291.1944	1295.5969	1351.1583	1390.5457	1405.7019	1407.8656	1451.1416	1475.8318	1483.473	1487.2155	1494.5775	1496.046	1505.7563	1508.7324	1521.0702	2359.5539	2980.3504	3016.5719	3017.0347	3041.9346	3042.8567	3043.3291	3045.9588	3112.9446	3115.7888	3116.0124	3122.2955	3129.3493	3133.6522	3838.8838
CCC#CC(C)(C)CO	CCC#CC(C)(C)CO	
InChI=1S/C8H14O/c1-4-5-6-8(2,3)7-9/h9H,4,7H2,1-3H3	InChI=1S/C8H14O/c1-4-5-6-8(2,3)7-9/h9H,4,7H2,1-3H3
