17
gdb 71491	2.25478	2.02003	1.71472	2.4621	71.91	-0.2235	-0.0076	0.2158	904.5254	0.134146	-421.751912	-421.744172	-421.743228	-421.783475	31.044	
C	 0.0185895576	 1.4682494694	-0.1335508286	-0.530485
C	-0.0104136411	-0.0173708383	 0.0132283228	 0.413714
O	 0.5691559661	-0.8500262478	-1.0555324945	-0.355515
C	 0.0767124543	-1.8175747988	-0.0765980233	-0.00358
C	 0.6035783959	-0.9627888463	 1.120122669	-0.147168
C	-0.4002191903	-1.0654010662	 2.2486565103	-0.101609
C	-1.5871754374	-1.0797735245	 1.635610878	-0.203859
C	-1.2468095972	-0.9854387315	 0.1561289098	 0.327063
O	-2.2397584797	-0.8858388741	-0.8024679174	-0.482684
H	 1.0469521177	 1.8231330518	-0.2491310623	 0.133776
H	-0.5571789965	 1.7687368426	-1.0138537551	 0.14668
H	-0.4206682225	 1.9389608615	 0.7513943632	 0.131845
H	 0.2172256608	-2.8805918731	-0.2892526646	 0.086869
H	 1.6757098493	-0.9234132925	 1.2986657742	 0.081276
H	-0.17503327	-1.1048013006	 3.3053613992	 0.111264
H	-2.5847141445	-1.1237760707	 2.051697607	 0.106724
H	-2.7927631124	-1.6730236809	-0.7616183079	 0.285689
187.3235	198.7365	207.9835	212.9332	327.1026	345.7666	435.801	507.6699	523.0877	627.4143	683.6193	705.9806	709.4006	750.0269	763.505	827.6109	883.247	916.8548	921.3413	958.2451	968.2582	1047.8749	1066.2796	1085.9312	1109.2769	1155.926	1172.9292	1219.9061	1262.4308	1272.0756	1315.5591	1342.9184	1381.4369	1412.6062	1473.5663	1485.7891	1634.0528	3041.3393	3087.2856	3117.7313	3119.3957	3153.3906	3212.7484	3239.1118	3811.6361
CC12OC3C1C=CC23O	C[C@@]12O[C@H]3[C@@H]1C=C[C@@]23O	
InChI=1S/C7H8O2/c1-6-4-2-3-7(6,8)5(4)9-6/h2-5,8H,1H3	InChI=1S/C7H8O2/c1-6-4-2-3-7(6,8)5(4)9-6/h2-5,8H,1H3/t4-,5-,6+,7-/m0/s1
