17
gdb 33828	4.5995	1.07055	0.99864	1.9449	81.68	-0.2412	0.0199	0.2611	1214.4283	0.134025	-384.598111	-384.590076	-384.589131	-384.630511	31.583	
C	 0.0364594367	-1.1954741988	 0.1338031975	-0.377555
C	 0.0613986488	 0.0026345192	 0.0320250001	 0.187394
C	 0.0529479065	 1.414399	-0.1328566864	 0.273384
C	-0.7274290382	 2.2474701861	-1.1776885267	-0.395491
C	 0.43383204	 3.2714455305	-1.1319904128	 0.368394
C	 1.0796592712	 3.9399637955	-2.3088321528	-0.328736
C	 0.4003099256	 4.7642909304	-1.2363270679	-0.317604
C	 1.140319629	 2.4261972966	-0.0928335377	-0.142702
O	 0.2489309878	 2.2646046673	 1.0140453034	-0.281382
H	 0.0224423833	-2.2525351571	 0.2345305346	 0.190991
H	-0.8159954138	 1.7417732104	-2.1420232882	 0.12026
H	-1.7083987759	 2.5871960988	-0.8375773067	 0.116406
H	 2.1640463542	 3.9568072359	-2.3563633359	 0.117219
H	 0.5941252391	 3.8508985065	-3.2752387303	 0.117148
H	-0.5488405149	 5.2307244675	-1.4791238957	 0.119545
H	 1.0205505697	 5.3427018171	-0.559741188	 0.120359
H	 2.201487791	 2.3053665741	 0.0961567034	 0.112372
87.0927	140.1261	210.2501	262.0982	293.4092	397.1831	443.4448	499.449	520.0173	573.7232	607.5076	654.8081	671.1611	771.1691	781.4198	854.5437	875.6677	911.2674	918.0334	958.6483	980.0814	1017.5114	1049.1026	1056.5238	1079.1371	1133.8385	1158.7806	1185.8056	1206.209	1234.5282	1255.6943	1396.5209	1405.377	1464.6989	1471.2215	1507.2881	2240.8851	3066.2815	3124.622	3126.7256	3130.8805	3182.6236	3203.5403	3218.8243	3502.392
C#CC12CC3(CC3)C1O2	C#C[C@]12CC3(CC3)[C@H]1O2	
InChI=1S/C8H8O/c1-2-8-5-7(3-4-7)6(8)9-8/h1,6H,3-5H2	InChI=1S/C8H8O/c1-2-8-5-7(3-4-7)6(8)9-8/h1,6H,3-5H2/t6-,8+/m1/s1
