19
gdb 65936	2.18734	1.55977	1.32535	3.0273	79.49	-0.2307	0.0263	0.257	1082.9697	0.159164	-382.049215	-382.040392	-382.039447	-382.082494	33.59	
C	-0.111870328	 1.5582650792	 0.0805129742	-0.446583
C	-0.038842811	 0.0273727327	 0.0286676479	 0.060586
C	 1.147055115	-0.5189703414	-0.8356248799	-0.205506
N	 1.9359139085	-0.7342686903	 0.4028247307	-0.361857
C	 0.7241722298	-0.6117369379	 1.2182492912	 0.351631
C	 0.6696567353	-0.2546476522	 2.6662429157	-0.319347
C	 0.2011124423	-1.6221480576	 2.1904185989	-0.345178
C	-1.3412199136	-0.5578903882	-0.2581776009	 0.254513
N	-2.3778110749	-1.0255672218	-0.4690786198	-0.354467
H	 0.8802208213	 1.9604214858	 0.2994613102	 0.142825
H	-0.4555314355	 1.9625909399	-0.8759448379	 0.133701
H	-0.8029381195	 1.8918611487	 0.8594482763	 0.13426
H	 0.881577394	-1.4322240113	-1.3788438995	 0.118389
H	 1.5891968104	 0.202183667	-1.5296763521	 0.114644
H	 2.3873577741	-1.6414403623	 0.4552276729	 0.224583
H	 1.6150239156	-0.1954108113	 3.1957613236	 0.122514
H	-0.0800751096	 0.4541659342	 3.0030160419	 0.121008
H	-0.8630673391	-1.8359908507	 2.1951182042	 0.139298
H	 0.8311920547	-2.4781723426	 2.4133975823	 0.114985
78.3855	130.5467	185.9147	208.3933	246.432	284.0303	321.741	355.9273	458.853	524.119	551.1525	602.179	631.3806	735.8025	768.2861	885.853	897.2262	934.7034	942.7701	950.7448	971.2198	994.7091	1029.7852	1053.2703	1075.3927	1135.5615	1149.3403	1184.8238	1195.5778	1231.0025	1259.4643	1318.879	1347.079	1396.484	1410.339	1455.9827	1488.6961	1494.8987	1498.3761	1520.7076	2349.7282	3034.5172	3045.8067	3086.8548	3119.2759	3120.8632	3127.0522	3131.8963	3203.0665	3218.1606	3521.7766
CC1(CNC11CC1)C#N	C[C@]1(CNC21CC2)C#N	
InChI=1S/C7H10N2/c1-6(4-8)5-9-7(6)2-3-7/h9H,2-3,5H2,1H3	InChI=1S/C7H10N2/c1-6(4-8)5-9-7(6)2-3-7/h9H,2-3,5H2,1H3/t6-/m1/s1
