12
gdb 130558	3.76925	1.36631	1.0028	3.3885	71.05	-0.29	-0.0838	0.2062	1073.4169	0.077799	-431.642377	-431.635072	-431.634128	-431.674804	26.041	
O	-0.0161057829	-0.0256751733	 0.003763628	-0.267796
C	-0.0377132846	 1.1738565502	 0.0069387662	 0.324872
C	 1.1329506787	 2.0152290413	 0.0010264557	 0.244847
C	 2.1748269245	 2.6138534587	-0.0046211211	-0.381971
N	-1.26977448	 1.8970360259	 0.0172030856	 0.042499
N	-1.317089176	 3.240430976	 0.0208850638	-0.197519
C	-2.6115013846	 3.5012899127	 0.030449361	-0.049887
C	-3.3226543632	 2.2763438564	 0.0322191506	-0.042953
N	-2.4584049857	 1.2770902419	 0.0237897733	-0.18304
H	 3.0884184397	 3.1575804201	-0.0095796618	 0.222524
H	-2.9762000591	 4.5164864056	 0.0355122937	 0.144101
H	-4.3855687168	 2.0914955346	 0.0390397249	 0.144323
69.6766	138.633	157.795	265.1676	275.0449	461.3098	516.0931	665.8582	670.7768	674.1119	689.0457	717.1362	761.0434	872.0003	917.7041	950.7562	973.2444	1061.7586	1090.8238	1198.162	1284.0578	1304.5915	1380.2968	1432.242	1541.5138	1814.5872	2232.3711	3261.4034	3277.0057	3495.6405
O=C(C#C)N1N=CC=N1	O=C(C#C)n1nccn1	
InChI=1S/C5H3N3O/c1-2-5(9)8-6-3-4-7-8/h1,3-4H	InChI=1S/C5H3N3O/c1-2-5(9)8-6-3-4-7-8/h1,3-4H
