18
gdb 38607	3.67042	1.78788	1.52084	0.2499	74.78	-0.211	0.0915	0.3025	901.0322	0.150272	-401.854124	-401.847969	-401.847025	-401.884238	26.742	
C	 0.0149833282	 1.5511282204	-0.084409814	-0.328866
C	 1.3076941421	 0.7741818289	 0.000585541	 0.098397
O	 2.0350678971	 0.7571473449	 1.2020991087	-0.272583
C	 1.459342197	-0.007767221	 2.2212127129	 0.153344
C	-0.0645630303	 0.1399012914	 2.5365075884	-0.077663
C	 0.0038989699	-1.2391918321	 3.2259433353	-0.22937
C	 0.7742555938	-1.373045495	 1.8990107216	-0.066117
N	-0.3921615611	-0.6112796757	 1.2486822324	-0.135434
C	-0.0026849496	 0.0432341775	 0.011733118	-0.037452
H	-0.2870320195	 2.1292937561	 0.7815755837	 0.122098
H	-0.2415002309	 1.9997890198	-1.0378885671	 0.113795
H	 1.969214816	 0.7474691414	-0.8586367857	 0.099064
H	 2.1595307049	 0.0228294664	 3.0596139506	 0.085223
H	-0.627879723	 1.0202954575	 2.8484429265	 0.085242
H	 0.5774581681	-1.3046897723	 4.1519669981	 0.09802
H	-0.9416833349	-1.779047768	 3.2604797207	 0.113924
H	 1.1960843624	-2.2666444763	 1.4367419552	 0.083392
H	-0.3063721803	-0.5209182538	-0.8652383463	 0.094987
206.8179	272.4313	408.7816	436.7686	457.2703	557.878	579.0041	721.8931	763.4091	772.5561	792.8757	807.1518	820.0228	895.8758	902.9078	930.4887	985.547	992.4784	1026.6653	1033.5726	1043.3882	1066.375	1107.3148	1110.5016	1124.3009	1134.7641	1141.0931	1169.1838	1183.7886	1209.946	1217.2693	1235.6137	1260.7792	1274.7129	1346.7978	1378.1424	1417.7364	1475.302	1488.7236	3078.8674	3084.1163	3103.8549	3112.2903	3136.8611	3143.7311	3162.6476	3163.6093	3225.6183
C1C2OC3C4CC3N4C12	C1[C@H]2O[C@H]3[C@@H]4C[C@H]3N4[C@@H]12	
InChI=1S/C7H9NO/c1-4-7-5(1)8(4)3-2-6(3)9-7/h3-7H,1-2H2	InChI=1S/C7H9NO/c1-4-7-5(1)8(4)3-2-6(3)9-7/h3-7H,1-2H2/t3-,4-,5+,6+,7-/m0/s1
