20
gdb 76718	3.3235	0.85516	0.79355	4.6423	77.36	-0.2312	0.0064	0.2376	1502.2933	0.168465	-440.268242	-440.258055	-440.257111	-440.304645	35.494	
C	 0.0651193748	 1.4372334926	 0.7713408742	-0.419558
C	 0.0576821847	 0.004486089	 0.2767095539	-0.007976
C	 0.1676369946	-0.3856397335	-1.1675688125	-0.021477
C	 0.2852302308	 0.6382992899	-2.2675545094	-0.111166
O	 0.9251133185	 0.0311506049	-3.4050877632	-0.178549
C	 1.9593957165	 0.6738413329	-3.9754198058	 0.176376
O	 2.5318921726	 0.2568165204	-4.9363134557	-0.273825
N	 1.2419265273	-0.6917378011	-0.2232578571	-0.090533
C	 2.5313515805	-0.0238413038	-0.3061665695	-0.324108
H	 0.6510668037	 2.1175371042	 0.1511026114	 0.119584
H	-0.9588628332	 1.8232158526	 0.8119035544	 0.128954
H	 0.4723402665	 1.4836112584	 1.7871058299	 0.131395
H	-0.5682413582	-0.6404340656	 0.8940597455	 0.09597
H	-0.374616288	-1.2703582798	-1.4999970309	 0.104945
H	-0.7138863559	 0.9544607696	-2.587867425	 0.127025
H	 0.8409663812	 1.5310786845	-1.9664066662	 0.106499
H	 2.2165083654	 1.6195223757	-3.4572672069	 0.074151
H	 2.509724888	 1.0418879248	-0.5786003327	 0.091985
H	 3.0279491706	-0.1035699337	 0.6658974261	 0.129971
H	 3.1484803696	-0.5485183119	-1.0418574704	 0.140336
42.9154	46.4274	121.5648	160.2178	172.8539	183.93	231.5612	282.0704	308.1552	370.5562	448.9945	516.6737	533.2787	678.9841	732.7481	772.0514	846.5441	984.2807	1010.4034	1030.3255	1044.65	1053.6559	1093.0174	1134.6673	1154.3997	1156.6059	1172.3085	1190.0688	1217.1746	1304.8769	1354.6937	1367.1571	1402.5249	1413.6508	1427.176	1451.2116	1460.6045	1486.6648	1488.0469	1504.409	1507.7383	1512.1797	1867.5117	2937.7358	2984.4488	3039.5674	3043.3258	3069.9103	3086.6346	3094.0699	3096.7999	3106.7952	3113.213	3135.5319
CC1C(COC=O)N1C	C[C@H]1[C@@H](COC=O)N1C	
InChI=1S/C6H11NO2/c1-5-6(7(5)2)3-9-4-8/h4-6H,3H2,1-2H3	InChI=1S/C6H11NO2/c1-5-6(7(5)2)3-9-4-8/h4-6H,3H2,1-2H3/t5-,6+,7?/m0/s1
