23
gdb 101352	2.57979	0.93587	0.80552	1.4879	83.09	-0.2372	0.076	0.3132	1539.2735	0.203239	-425.394831	-425.383951	-425.383007	-425.431114	39.229	
C	-0.180037409	 1.0219732585	 0.2608959286	-0.243403
O	 0.6050889381	-0.152398882	 0.2128219369	-0.232633
C	 0.8591525476	-0.5956041812	-1.0835409905	 0.121108
C	 1.4471322457	-1.9622945886	-1.2050184552	-0.345712
C	 0.0309604339	-1.7088698126	-1.6983926175	-0.044372
C	-1.1553479805	-2.3229629396	-0.9761917408	 0.011976
C	-2.482310894	-1.6905359951	-1.4202792121	-0.404723
C	-1.1843531924	-3.8390145151	-1.1897706878	-0.068372
O	-2.2434484898	-4.3814480994	-0.4118116841	-0.424122
H	 0.3097672029	 1.8535438075	-0.2685740993	 0.106303
H	-1.1763480921	 0.8731478723	-0.1765569148	 0.117362
H	-0.289777734	 1.2911007637	 1.3139895807	 0.127828
H	 1.2243092634	 0.1859417798	-1.7520511469	 0.079672
H	 2.244402959	-2.1351440014	-1.9192102843	 0.109519
H	 1.546826243	-2.5099769914	-0.2732959049	 0.124333
H	-0.0853449532	-1.6493875023	-2.7793192462	 0.076768
H	-1.0263155208	-2.1527218106	 0.0994853854	 0.093038
H	-2.6310515491	-1.8193356046	-2.4996958811	 0.103476
H	-3.321262564	-2.1650526029	-0.9069879134	 0.133238
H	-2.5060486709	-0.6175423232	-1.2094805289	 0.111642
H	-1.3288881122	-4.0562581667	-2.2621254179	 0.076356
H	-0.2164805986	-4.2706809539	-0.8946664594	 0.085494
H	-2.280351413	-5.3283835312	-0.5726099166	 0.285225
52.0746	99.8	116.2832	140.6407	170.3673	201.3202	229.6655	244.0017	263.531	295.3256	374.0462	415.0528	459.9803	504.1545	608.4092	774.0232	807.3324	839.4512	891.7154	931.2607	971.6263	991.3408	1037.5887	1064.3765	1075.8811	1088.6373	1119.2155	1131.9451	1161.6784	1166.6175	1183.7644	1194.9366	1225.5665	1248.2333	1258.9673	1265.4971	1302.1247	1361.3865	1392.5436	1402.4076	1417.9402	1455.7081	1473.8057	1486.2928	1488.7686	1495.3414	1504.0736	1509.9399	1520.0444	2954.4258	2986.358	3002.39	3029.3102	3043.3255	3046.1259	3082.2855	3097.6234	3119.05	3119.2829	3131.5349	3131.9405	3218.8241	3834.6431
COC1CC1C(C)CO	CO[C@H]1C[C@H]1[C@@H](C)CO	
InChI=1S/C7H14O2/c1-5(4-8)6-3-7(6)9-2/h5-8H,3-4H2,1-2H3	InChI=1S/C7H14O2/c1-5(4-8)6-3-7(6)9-2/h5-8H,3-4H2,1-2H3/t5-,6-,7-/m0/s1
