12
gdb 132826	2.9847	1.56484	1.02661	5.8897	71.19	-0.2792	-0.0759	0.2034	1036.4383	0.079092	-439.699047	-439.692306	-439.691361	-439.730498	25.028	
F	 0.0039286439	 0.0316906986	 0.0031141225	-0.045858
C	-0.0276830269	 1.3575261283	 0.0107291789	 0.249782
C	-1.2402202653	 2.0281322365	 0.0304173235	-0.201401
C	-1.2079386704	 3.4162063508	 0.0375228734	-0.105983
C	 0.029817503	 4.0627209097	 0.024648571	-0.010753
N	 1.1927669718	 3.4188515213	 0.0057623825	-0.302919
C	 1.1693788365	 2.0794791585	-0.0011955997	 0.088048
C	 2.4249140031	 1.3805648967	-0.0216062626	 0.258086
N	 3.4271099292	 0.8043224148	-0.037997559	-0.326399
H	-2.165047051	 1.4637259911	 0.0395949179	 0.140108
H	-2.126575209	 3.9913116399	 0.0528031192	 0.127787
H	 0.0848567651	 5.1473778637	 0.0298047524	 0.129501
125.0854	149.4363	252.9904	370.7298	407.2786	476.5642	512.7223	557.4519	604.6927	621.1788	733.7176	799.5337	837.2968	868.0348	960.5826	998.8719	1071.6638	1126.1405	1189.0472	1280.7033	1308.7309	1316.1772	1470.2668	1491.7221	1608.0821	1629.7553	2356.2921	3174.5314	3201.6566	3216.3605
FC1=CC=CN=C1C#N	Fc1cccnc1C#N	
InChI=1S/C6H3FN2/c7-5-2-1-3-9-6(5)4-8/h1-3H	InChI=1S/C6H3FN2/c7-5-2-1-3-9-6(5)4-8/h1-3H
