14
gdb 15929	3.70283	1.92252	1.54622	3.626	62.01	-0.2512	-0.0041	0.2471	817.0228	0.10839	-378.677121	-378.670423	-378.669479	-378.708132	24.863	
N	-0.1427811038	-1.176092989	-0.2531165727	-0.335995
C	-0.0643580431	-0.0338152053	-0.0935889489	 0.247676
C	 0.0378865669	 1.4040452058	 0.0758271265	 0.137646
C	-0.3691665357	 2.2928529561	-1.1299854252	-0.11368
O	 0.8522975735	 3.0562121523	-1.0410667251	-0.277773
C	 1.3468876547	 2.2645866985	 0.0453738624	 0.058718
C	 0.9299606363	 2.8173626218	 1.4230127298	-0.182026
N	-0.2524432152	 1.9096435607	 1.4260871706	-0.35997
H	-0.4406494813	 1.7589300213	-2.0843815715	 0.12897
H	-1.2688844008	 2.900960979	-0.9768612208	 0.112215
H	 2.3567285197	 1.8870804253	-0.1171592864	 0.110781
H	 1.6114472709	 2.6048876773	 2.253211868	 0.122082
H	 0.7187130395	 3.8907428256	 1.3874886022	 0.120093
H	-1.1641927615	 2.3377095107	 1.5462537012	 0.231262
115.5216	159.5767	194.2076	349.0045	389.5498	512.7773	556.4212	583.5703	617.4961	771.1051	843.3295	909.1818	940.2002	973.8526	991.6999	1018.8013	1055.6195	1089.1587	1137.1524	1139.7541	1167.9838	1202.2748	1255.9077	1304.9158	1321.4138	1359.6668	1372.4896	1503.0236	1511.9662	2354.6241	3020.762	3038.484	3075.6792	3090.0873	3118.0125	3532.4876
N#CC12COC1CN2	N#C[C@]12CO[C@H]1CN2	
InChI=1S/C5H6N2O/c6-2-5-3-8-4(5)1-7-5/h4,7H,1,3H2	InChI=1S/C5H6N2O/c6-2-5-3-8-4(5)1-7-5/h4,7H,1,3H2/t4-,5-/m0/s1
