18
gdb 84458	3.94973	1.16887	1.03692	4.5984	82.48	-0.2507	-0.0058	0.2449	1182.6365	0.148763	-364.831377	-364.823373	-364.822429	-364.863699	31.141	
C	-0.1638628508	 1.5839661843	 0.0277500744	-0.394387
C	 0.0357366004	 0.0609554352	 0.003122897	-0.048581
C	 0.839978683	-0.4462149737	-1.1802855985	-0.079126
C	 1.8250907345	-1.2716859921	-0.8277932153	-0.162623
C	 1.9101281558	-1.4136729267	 0.6625901618	 0.18044
C	 2.2427801792	-0.1176788171	 1.4033428303	-0.31145
C	 0.80559439	-0.4966780373	 1.206147629	-0.091661
C	 2.2408821063	-2.6756569454	 1.2573327971	 0.193784
N	 2.5153323188	-3.6951428795	 1.7314292887	-0.348886
H	 0.7943435956	 2.1105274011	 0.0697117575	 0.12126
H	-0.6935352915	 1.9201731922	-0.8692355439	 0.120208
H	-0.755062951	 1.8851723604	 0.8979151968	 0.122543
H	-0.9609923787	-0.4032316521	-0.0205441808	 0.095924
H	 0.6232829096	-0.1366464036	-2.1967437574	 0.105625
H	 2.5187304579	-1.7714166119	-1.4922889268	 0.117947
H	 2.6402664619	-0.2154106589	 2.4073806564	 0.137355
H	 2.6837744098	 0.6716125912	 0.8051013012	 0.128905
H	 0.2495718092	-0.801754666	 2.0841186426	 0.112724
112.863	141.7897	199.2203	234.8137	269.898	373.8729	422.234	476.0921	556.8229	563.6415	604.5689	694.3363	754.7869	778.3828	806.2306	857.9345	927.342	956.3466	963.2252	978.2506	1004.9262	1048.6651	1075.0636	1080.252	1116.6582	1121.3992	1154.8139	1239.1283	1257.9146	1318.0112	1329.451	1350.1699	1394.3645	1416.9482	1474.8184	1497.8068	1499.7923	1671.6531	2349.1905	2996.9767	3037.5597	3106.9971	3111.9322	3137.1328	3190.4026	3192.2069	3221.3715	3231.2659
CC1C=CC2(CC12)C#N	C[C@H]1C=C[C@]2(C[C@@H]12)C#N	
InChI=1S/C8H9N/c1-6-2-3-8(5-9)4-7(6)8/h2-3,6-7H,4H2,1H3	InChI=1S/C8H9N/c1-6-2-3-8(5-9)4-7(6)8/h2-3,6-7H,4H2,1H3/t6-,7-,8-/m0/s1
