18
gdb 124817	4.50742	0.94751	0.81357	6.3444	74.12	-0.243	0.0118	0.2548	1389.084	0.148658	-435.273541	-435.264911	-435.263967	-435.307249	31.865	
C	-0.1500575705	 1.5543968769	 0.0597080051	-0.405338
C	-0.1559043238	 0.0318305512	-0.0487006092	 0.121852
O	-1.4233797375	-0.4419272051	-0.5253135806	-0.436309
C	 0.8918048154	-0.4832629361	-1.0443633833	-0.313235
C	 1.0022718124	-1.9736255804	-1.0903590717	 0.339393
C	 2.0687153225	-2.8454723003	-1.0920239681	-0.167129
N	 1.6027388115	-4.123648099	-1.1640519762	-0.193238
N	 0.3001819256	-4.0973160489	-1.2055682057	-0.122529
N	-0.0664957091	-2.8041972354	-1.1688633768	-0.216373
H	 0.8100420819	 1.9166309078	 0.4406557744	 0.125077
H	-0.3346672667	 2.0098272712	-0.9181485833	 0.130915
H	-0.9299351146	 1.8970200179	 0.748752216	 0.11245
H	 0.0536910855	-0.407938083	 0.9384258547	 0.08502
H	-2.1007295403	-0.1788936489	 0.1057665288	 0.290828
H	 0.6316494331	-0.0875591322	-2.0353331293	 0.129476
H	 1.869048052	-0.0679512115	-0.782552616	 0.122901
H	 3.1241461726	-2.62855951	-1.0475310143	 0.114555
H	-1.0363180801	-2.525346014	-1.1413795846	 0.281684
70.5918	93.72	146.5369	236.9569	288.583	301.7665	323.6051	331.0766	464.97	467.3659	647.0821	690.8822	751.5005	755.9793	842.5933	846.1333	902.8907	946.3723	998.928	1054.2808	1071.8263	1083.8582	1115.1304	1117.8657	1137.0669	1200.4251	1235.8413	1290.8176	1315.5339	1341.5878	1373.2102	1389.1339	1409.3727	1421.5826	1439.5034	1471.6236	1492.3935	1497.2831	1606.7317	2987.1067	3024.4598	3032.7986	3094.5319	3100.9357	3117.0156	3264.3237	3636.2682	3823.1099
CC(O)CC1=CN=NN1	C[C@@H](O)Cc1cnn[nH]1	
InChI=1S/C5H9N3O/c1-4(9)2-5-3-6-8-7-5/h3-4,9H,2H2,1H3,(H,6,7,8)	InChI=1S/C5H9N3O/c1-4(9)2-5-3-6-8-7-5/h3-4,9H,2H2,1H3,(H,6,7,8)/t4-/m1/s1
