12
gdb 15460	3.80646	1.85676	1.25779	7.1461	63.69	-0.2697	-0.0728	0.197	877.3307	0.085396	-377.58247	-377.575682	-377.574738	-377.613715	24.311	
O	-0.0124793048	-0.0489247734	 0.0034316427	-0.353011
C	-0.0027578156	 1.1575438318	 0.0098658734	 0.360984
N	-1.0857587925	 2.0053587137	 0.0279530628	-0.338067
C	-0.7358893045	 3.4042477908	 0.0313842548	-0.200944
C	 0.7654926499	 3.3597689792	 0.0124976149	-0.18818
C	 1.1899598886	 2.0886204486	 0.0002190468	 0.09889
C	 2.5285890839	 1.6211963	-0.0189601296	 0.243551
N	 3.6201106188	 1.2374527312	-0.0346154681	-0.326314
H	-2.0273959959	 1.6523272055	 0.0378850547	 0.267344
H	-1.1270060124	 3.9410770225	-0.845408927	 0.144299
H	-1.105040711	 3.9312502585	 0.9235283014	 0.1443
H	 1.3790569857	 4.2500868917	 0.0097966432	 0.147148
114.6119	146.9532	176.2817	361.2938	408.2072	421.1725	527.965	543.5066	621.0102	752.1411	789.6185	794.7863	850.6722	958.0066	1015.129	1075.031	1151.2354	1187.7229	1224.425	1299.1943	1344.8078	1426.1147	1491.9763	1671.0795	1842.7045	2354.1396	2999.6753	3021.5388	3238.5913	3674.8737
O=C1NCC=C1C#N	O=C1NCC=C1C#N	
InChI=1S/C5H4N2O/c6-3-4-1-2-7-5(4)8/h1H,2H2,(H,7,8)	InChI=1S/C5H4N2O/c6-3-4-1-2-7-5(4)8/h1H,2H2,(H,7,8)
