23
gdb 96362	2.24159	1.66531	1.11428	1.361	85.2	-0.2429	0.0852	0.3281	1181.4768	0.207566	-388.291163	-388.282596	-388.281652	-388.323848	34.566	
C	-0.1622905684	 1.5550401108	-0.0756042849	-0.425319
C	 0.0352119832	 0.0396174526	 0.0152573939	-0.056256
C	 0.7781656363	-0.500588226	-1.2235086807	-0.196321
C	 0.9787845395	-2.0143051101	-1.1341234469	-0.080698
O	 1.6581334335	-2.386819125	 0.0519249837	-0.24267
C	 0.9504340854	-1.9752472309	 1.2082726557	-0.146679
C	 0.7606639879	-0.4687165672	 1.2649360557	 0.374127
C	 1.8588166659	 0.3279975356	 1.9259540187	-0.297876
C	 0.5374168342	 0.1240229465	 2.6311674108	-0.336579
H	 0.7932744725	 2.0853671014	-0.1444597085	 0.119307
H	-0.7364601511	 1.8030812058	-0.9743384612	 0.113806
H	-0.7116397384	 1.9537267822	 0.7824558575	 0.115404
H	-0.9645662167	-0.4237580033	 0.0249148757	 0.069381
H	 0.2222374035	-0.257856885	-2.1375181178	 0.088127
H	 1.7588409707	-0.0140220635	-1.2974530457	 0.102583
H	-0.0011609901	-2.5229801463	-1.1817826407	 0.0796
H	 1.5869753171	-2.3838223165	-1.9651540186	 0.102803
H	-0.0365147939	-2.4725773505	 1.2390105167	 0.079359
H	 1.5308112486	-2.3280709703	 2.0664662353	 0.097191
H	 2.7272341758	-0.2111046483	 2.2898088445	 0.112389
H	 2.0829227636	 1.3217983007	 1.5555021439	 0.110193
H	-0.1236659011	 0.9774266757	 2.7304012548	 0.110437
H	 0.506382732	-0.5536744883	 3.4791200781	 0.107691
94.0816	178.7482	224.4611	271.3616	285.5837	311.1448	336.7031	395.2143	423.7102	475.4392	513.3403	607.8415	686.1396	783.512	831.0422	860.3515	884.6305	931.0795	942.1828	959.2956	977.9892	994.9266	1012.4406	1041.052	1056.6649	1080.5819	1094.3952	1117.4912	1139.8574	1180.9079	1186.1834	1226.2982	1251.1338	1284.8616	1312.965	1334.7864	1358.4786	1369.7845	1389.1308	1391.6255	1412.3722	1425.4422	1465.1655	1475.9019	1487.9604	1497.7809	1501.8128	1505.6027	1512.2444	2936.3974	2944.8149	2972.66	3023.0481	3036.0775	3067.4189	3074.0806	3081.0808	3099.1758	3106.7187	3127.4616	3134.4633	3205.4195	3220.2999
CC1CCOCC11CC1	C[C@H]1CCOCC21CC2	
InChI=1S/C8H14O/c1-7-2-5-9-6-8(7)3-4-8/h7H,2-6H2,1H3	InChI=1S/C8H14O/c1-7-2-5-9-6-8(7)3-4-8/h7H,2-6H2,1H3/t7-/m0/s1
