18
gdb 16370	2.62981	2.05933	1.38447	2.665	67.48	-0.2467	0.0634	0.3101	941.9372	0.152592	-384.907342	-384.899223	-384.898279	-384.939566	30.747	
C	-0.7928105642	 1.2668533567	-0.0484545945	-0.415069
C	 0.0190046358	-0.0193090417	-0.0577970436	-0.051087
C	 1.3793532006	-0.0642143909	-0.8212657602	-0.292106
C	 1.9786075955	-0.9174651472	 0.3382681653	 0.068905
O	 3.2981009893	-0.7124963489	 0.7693926188	-0.426633
C	 0.7998751344	-0.4414191204	 1.1947753633	 0.40049
C	 0.8720302288	 0.2016403916	 2.5096013474	-0.274274
O	 0.2774319611	-1.0933587769	 2.3327039244	-0.275738
H	-0.177674844	 2.1226575994	 0.2505772544	 0.11013
H	-1.2023315048	 1.4811557821	-1.0411627369	 0.120226
H	-1.6349457895	 1.1963863292	 0.6486109874	 0.125854
H	-0.611493683	-0.8581423775	-0.3749552384	 0.089875
H	 1.3905493213	-0.4961278695	-1.8230559649	 0.10842
H	 1.8467034542	 0.9265651796	-0.8563750352	 0.093522
H	 1.8935816029	-1.9885700494	 0.1297110026	 0.105886
H	 3.4129454563	 0.2293976084	 0.935362781	 0.277576
H	 1.8162237508	 0.2035618079	 3.0531216313	 0.117905
H	 0.1800596546	 1.0022386775	 2.7665600577	 0.116118
88.7571	200.3016	209.949	222.499	257.0871	311.2506	321.6962	448.1783	488.4013	529.4425	558.205	689.2364	817.5797	851.8622	873.0295	921.944	932.6028	978.0898	1049.5255	1062.1903	1105.8605	1127.2369	1154.0887	1159.3831	1160.9739	1170.6071	1221.5803	1259.9117	1281.7427	1315.2664	1373.3784	1405.1309	1424.4601	1440.225	1484.9843	1495.5837	1498.5642	1530.205	3027.4678	3039.4144	3046.6421	3071.3374	3081.9979	3096.5829	3097.6805	3122.4125	3170.0014	3805.4519
CC1CC(O)C11CO1	C[C@H]1C[C@@H](O)[C@]21CO2	
InChI=1S/C6H10O2/c1-4-2-5(7)6(4)3-8-6/h4-5,7H,2-3H2,1H3	InChI=1S/C6H10O2/c1-4-2-5(7)6(4)3-8-6/h4-5,7H,2-3H2,1H3/t4-,5+,6+/m0/s1
