19
gdb 72031	2.4468	1.9329	1.49909	0.627	73.46	-0.2159	0.0723	0.2882	958.9997	0.160405	-423.023726	-423.016124	-423.01518	-423.055158	31.117	
C	 0.0165607194	 1.4807968111	 0.0768838057	-0.499822
C	 0.0407584427	-0.0180259104	-0.0270175115	 0.249213
C	 0.1794956033	-0.7816443119	-1.3423080587	-0.275392
C	 0.0528813016	-2.1904739802	-0.7202503264	 0.051772
C	 1.1600707865	-2.1824771633	 0.3553659071	-0.296868
C	 0.6604863351	-0.9157564387	 1.0461499051	 0.309398
O	 1.2722388163	-0.3471508431	 2.1530370569	-0.474806
C	-0.8373821465	-0.9363873977	 0.8121034082	-0.034629
O	-1.1582480873	-2.0899664135	 0.0562167794	-0.262708
H	 0.9352810831	 1.9219440346	-0.3260182123	 0.119632
H	-0.8291861917	 1.9033606295	-0.4770943062	 0.115845
H	-0.0644737274	 1.7967273586	 1.1206004339	 0.128633
H	-0.6311464752	-0.5659656288	-2.0447647156	 0.102882
H	 1.1420068815	-0.6239117472	-1.8384073561	 0.099093
H	-0.0089297152	-3.0473262848	-1.3877553228	 0.081651
H	 1.1162891564	-3.0655307565	 1.0010445007	 0.095713
H	 2.1646794679	-2.0822177171	-0.0642312464	 0.104866
H	 1.0753807728	-0.8940432379	 2.921786274	 0.285244
H	-1.5926481533	-0.6096888626	 1.5141139348	 0.100283
180.4292	206.1472	223.8749	281.1158	343.3662	380.3096	416.8036	458.9881	549.3685	601.5909	620.5742	676.5526	733.3425	813.1149	891.8507	906.8601	922.5678	941.8503	947.3633	959.2253	994.6737	1009.7892	1065.7678	1096.7375	1115.7646	1139.7468	1179.899	1208.7333	1219.4963	1236.836	1279.0142	1284.4417	1306.8446	1340.8889	1354.9842	1419.0247	1447.1548	1476.5346	1489.051	1495.6746	1506.9031	3027.9676	3049.0852	3053.8843	3084.6391	3100.808	3107.8449	3111.3757	3147.6891	3212.4891	3790.4169
CC12CC3CC1(O)C2O3	C[C@@]12C[C@H]3C[C@]1(O)[C@@H]2O3	
InChI=1S/C7H10O2/c1-6-2-4-3-7(6,8)5(6)9-4/h4-5,8H,2-3H2,1H3	InChI=1S/C7H10O2/c1-6-2-4-3-7(6,8)5(6)9-4/h4-5,8H,2-3H2,1H3/t4-,5+,6-,7-/m0/s1
