19
gdb 89228	2.9798	1.57115	1.24989	1.2192	73.76	-0.2439	0.0712	0.3152	1029.9929	0.160338	-422.996275	-422.988577	-422.987633	-423.027898	31.611	
O	-0.0653901574	 1.44415285	-0.0684636078	-0.438195
C	 0.017917949	 0.0313967605	 0.0099630912	 0.140379
C	 0.6810768929	-0.5169931934	 1.3072709236	-0.347342
C	-0.198082515	-1.7079162971	 1.6819304664	 0.422021
O	 0.3830700783	-2.8152476679	 2.3005644168	-0.483463
C	-1.6750761087	-1.4692675546	 1.9712339195	-0.127953
C	-2.150802184	-0.1597717443	 1.3434198174	-0.240913
C	-1.3936642992	-0.5655821326	 0.0351668526	-0.064044
C	-1.2115106396	-1.9927222229	 0.6125535523	-0.133063
H	 0.8288761545	 1.7977042158	-0.0904394529	 0.283603
H	 0.553350719	-0.3699364676	-0.864919831	 0.065716
H	 1.7078672332	-0.8555849074	 1.1394095362	 0.099607
H	 0.7003148828	 0.2630776887	 2.0773287134	 0.094777
H	 0.4933632129	-2.6111164274	 3.2355099749	 0.281814
H	-2.1548125774	-2.0271024878	 2.7681961571	 0.078675
H	-3.2330117462	-0.1621420165	 1.1912578657	 0.100665
H	-1.8576289155	 0.7860438164	 1.8085926526	 0.102802
H	-1.940158625	-0.4375239123	-0.8981189355	 0.073517
H	-1.3571478746	-2.9535883995	 0.1386059974	 0.091396
130.7511	258.659	269.7475	274.0012	322.8713	344.2547	421.3603	451.041	499.1689	573.2193	601.6635	687.8404	771.3182	825.0786	853.5656	883.4623	915.8034	930.8139	975.9561	979.6166	992.9048	1002.6659	1054.7057	1092.419	1111.3858	1117.5403	1140.9462	1191.2872	1201.5503	1226.24	1230.8214	1255.2185	1266.5402	1293.592	1319.0216	1324.6657	1364.3678	1419.7643	1431.4688	1490.653	1508.8244	2971.0143	3035.1709	3053.6982	3087.0298	3102.9459	3122.8576	3168.0795	3211.4607	3796.276	3825.1499
OC1CC2(O)C3CC1C23	O[C@H]1C[C@@]2(O)[C@H]3C[C@@H]1[C@@H]23	
InChI=1S/C7H10O2/c8-5-2-7(9)4-1-3(5)6(4)7/h3-6,8-9H,1-2H2	InChI=1S/C7H10O2/c8-5-2-7(9)4-1-3(5)6(4)7/h3-6,8-9H,1-2H2/t3-,4-,5-,6+,7+/m0/s1
