22
gdb 88778	3.63049	1.03298	0.87741	1.1582	87.63	-0.2203	0.027	0.2472	1381.9043	0.195	-367.19065	-367.181788	-367.180844	-367.224654	33.805	
C	 2.9540702572	-0.4882236955	 0.2305472333	-0.312851
N	 1.6415819569	-1.1060425144	 0.3410783837	-0.089112
C	 1.4607008371	-2.1358015663	 1.3574648103	-0.263708
C	 0.7799279297	-0.8139745672	 1.4890077699	 0.008739
C	 1.1332839012	 0.1538896287	 2.5970364739	 0.019554
C	 0.8745005606	 1.6494616914	 2.2505736353	-0.271023
C	 0.4123850064	 2.2371660035	 3.5625720982	-0.062076
C	 0.114633015	 1.294450284	 4.4546482846	-0.061913
C	 0.3219589077	-0.0952574965	 3.9021113862	-0.275783
H	 3.512482022	-0.412928469	 1.1769709048	 0.09969
H	 3.5589086693	-1.0800015318	-0.4643648302	 0.12178
H	 2.8492619157	 0.5183551319	-0.1875493207	 0.122282
H	 0.9150252913	-3.0253587317	 1.0521481268	 0.110279
H	 2.2912813881	-2.3273600976	 2.0379554234	 0.09972
H	-0.2738100307	-0.7659970223	 1.2078974587	 0.084305
H	 2.1924873164	 0.0497450836	 2.8511729316	 0.073999
H	 1.7669110243	 2.1402769106	 1.84585512	 0.102203
H	 0.0943284328	 1.7531578515	 1.481704494	 0.106658
H	 0.3058990759	 3.3050940659	 3.7193080351	 0.089975
H	-0.2732663519	 1.4741655421	 5.4514323433	 0.090257
H	-0.6454713179	-0.5746287408	 3.6887614309	 0.104478
H	 0.847309513	-0.7650544899	 4.592023977	 0.102545
65.2159	81.9515	133.5666	204.0092	228.8378	338.661	368.195	393.7	401.9864	512.8611	618.7856	722.1523	753.7135	780.5665	827.1411	890.1585	920.0098	935.3116	956.2634	974.9771	977.9058	1018.1891	1040.0857	1062.7063	1096.7217	1116.9923	1131.1254	1132.9	1152.5188	1156.8398	1168.0551	1202.9896	1229.1968	1285.7298	1291.0126	1322.604	1337.7116	1344.1556	1367.595	1433.1935	1449.284	1483.5549	1489.8271	1491.8592	1500.5147	1513.5661	1688.6314	2972.4858	2996.0615	2999.542	3043.655	3052.3686	3061.9811	3065.9562	3078.0579	3085.138	3097.7526	3164.7945	3179.087	3204.7872
CN1CC1C1CC=CC1	CN1C[C@H]1[C@H]1CC=CC1	
InChI=1S/C8H13N/c1-9-6-8(9)7-4-2-3-5-7/h2-3,7-8H,4-6H2,1H3	InChI=1S/C8H13N/c1-9-6-8(9)7-4-2-3-5-7/h2-3,7-8H,4-6H2,1H3/t8-,9?/m0/s1
