21
gdb 39479	2.3247	1.69625	1.20561	1.6707	83.58	-0.2308	0.0049	0.2357	1101.4122	0.185495	-387.06159	-387.05368	-387.052736	-387.093661	31.949	
C	-0.1506466694	 1.3380459312	-0.3781413858	-0.298151
C	 1.2660113346	 0.9255314094	-0.0963027836	-0.015636
C	 2.0604138713	 1.3622440237	 1.141733575	-0.259782
C	 2.2396688466	 0.3519538135	 2.2937151801	-0.058184
O	 1.318190634	 0.4945115811	 3.3628987613	-0.247941
C	-0.0549823924	 0.5092943331	 2.9871028849	-0.129434
C	-0.4924286355	-0.732068601	 2.2570221642	-0.104937
C	-0.3702928398	-0.9689100832	 0.9469374736	-0.038153
C	 0.1626520138	-0.1350823991	-0.1624599922	-0.049483
H	-0.6978649761	 1.8456429009	 0.4081765085	 0.124203
H	-0.4219466582	 1.6600608778	-1.378088382	 0.111479
H	 1.8902284942	 0.8900637487	-0.9849172098	 0.090705
H	 3.065131995	 1.6155426089	 0.7869116813	 0.103153
H	 1.6612895396	 2.2931649619	 1.5599059632	 0.115497
H	 2.2263106785	-0.6719715671	 1.8947639089	 0.097571
H	 3.2143492282	 0.510151313	 2.7656563742	 0.102314
H	-0.6008526342	 0.6057345427	 3.9299392642	 0.10738
H	-0.2729747755	 1.4112287062	 2.400195071	 0.087459
H	-0.8862038442	-1.5335662035	 2.8768559119	 0.08777
H	-0.7020680027	-1.9480974003	 0.604600018	 0.088227
H	 0.1998886422	-0.7013780379	-1.0881748569	 0.085943
113.4886	196.5301	231.8368	263.7921	294.5504	334.3983	368.8015	487.213	533.8902	602.6028	679.4975	707.6979	756.2673	780.8425	818.8223	861.8266	925.9469	935.2627	948.1202	1003.4526	1008.0883	1024.017	1056.087	1080.2964	1097.7659	1105.1951	1125.3295	1146.8104	1173.5306	1242.0037	1255.1701	1288.1535	1313.0106	1330.0825	1355.831	1384.0261	1400.4226	1414.9139	1423.4776	1444.3535	1480.1551	1486.5163	1498.8844	1514.9056	1717.7688	3007.677	3018.0729	3038.4118	3071.0034	3078.0291	3083.0844	3122.1753	3131.3541	3133.3778	3148.4295	3162.1411	3217.5433
C1C2CCOCC=CC12	C1[C@H]2CCOCC=C[C@@H]12	
InChI=1S/C8H12O/c1-2-7-6-8(7)3-5-9-4-1/h1-2,7-8H,3-6H2/b2-1-	InChI=1S/C8H12O/c1-2-7-6-8(7)3-5-9-4-1/h1-2,7-8H,3-6H2/b2-1-/t7-,8+/m0/s1
