18
gdb 65718	3.74614	1.07356	0.99065	3.5891	72.84	-0.2472	0.0052	0.2524	1224.2258	0.146372	-439.05932	-439.050835	-439.049891	-439.092396	32.01	
C	-0.0128188923	 1.6297385461	 0.125722889	-0.451227
C	 0.0251718537	 0.1168983095	 0.0155017081	 0.423321
C	 1.0726497586	-0.5598507533	-0.9533653752	-0.287588
C	 1.6499738051	-1.3007939154	 0.2568609374	-0.039398
N	 2.0904011215	-0.2488460778	 1.2044346541	-0.339643
C	 0.6694814623	-0.6643339594	 1.1727329623	-0.101971
O	-1.3033336538	-0.4299475605	-0.1427462962	-0.243823
C	-1.9427417025	-0.2326202202	-1.3086113663	 0.154855
O	-3.0601454561	-0.6129164431	-1.5007739625	-0.278148
H	 0.9777494612	 1.9931275843	 0.406738666	 0.152156
H	-0.2979955888	 2.0979959113	-0.8217721331	 0.119166
H	-0.7352043962	 1.9335660004	 0.8896180619	 0.13051
H	 0.5845803201	-1.2252149109	-1.6671818518	 0.120228
H	 1.7619566868	 0.1101686876	-1.4724241729	 0.112397
H	 2.0845029641	-2.2916178816	 0.2812048611	 0.102491
H	 2.5163003831	-0.7151530329	 2.0046935434	 0.236476
H	 0.1565877938	-1.0402512577	 2.0486942802	 0.106218
H	-1.3351211808	 0.3016972135	-2.0618542556	 0.083982
92.3397	151.1048	180.1312	199.8597	241.39	292.3042	369.2141	374.8641	449.7481	478.7606	601.0465	710.6845	789.9732	823.074	843.0011	872.8654	928.496	951.2303	969.3216	989.6808	1011.8288	1052.8971	1085.8206	1099.5005	1143.1247	1155.6052	1188.702	1204.6013	1217.2026	1257.8842	1306.9726	1335.1026	1382.91	1405.9639	1432.1708	1465.2018	1488.0938	1496.8581	1857.9028	2968.3685	3042.3998	3071.7805	3109.5158	3136.114	3139.5794	3195.5803	3208.9111	3480.2685
CC1(CC2NC12)OC=O	C[C@]1(C[C@H]2N[C@@H]12)OC=O	
InChI=1S/C6H9NO2/c1-6(9-3-8)2-4-5(6)7-4/h3-5,7H,2H2,1H3	InChI=1S/C6H9NO2/c1-6(9-3-8)2-4-5(6)7-4/h3-5,7H,2H2,1H3/t4-,5-,6-/m1/s1
