18
gdb 55811	4.24248	1.0468	0.97071	6.1995	72.98	-0.2533	0.0245	0.2778	1229.407	0.149432	-439.04087	-439.033393	-439.032448	-439.073476	28.953	
O	-0.0137239734	 0.0835756349	-0.9488095037	-0.372711
C	 0.0437844072	 1.1722023668	-0.1667402237	 0.408066
O	 1.0733117306	 1.533194376	 0.33669694	-0.32666
C	-1.270635749	 1.9558168943	 0.0121687724	-0.404565
C	-2.5103074543	 1.0778962338	 0.0006290763	 0.070105
C	-3.9231413286	 1.5006312487	-0.488734475	-0.088511
C	-3.3240738273	 1.4625604818	-1.9104592223	-0.17759
N	-2.7152118466	 0.2028747697	-1.2667900425	-0.169192
H	-0.9342485028	-0.0961629689	-1.25425285	 0.314825
C	-4.1297013989	-0.0188710372	-0.7063268338	-0.173577
H	-1.1936749792	 2.4841908224	 0.9651067533	 0.14155
H	-1.2896457725	 2.7241952798	-0.7675123555	 0.134491
H	-2.5130605322	 0.4465845506	 0.8959734713	 0.095784
H	-4.6104895259	 2.2292329176	-0.0504942023	 0.082407
H	-3.9959976061	 1.2316021801	-2.7401499106	 0.115837
H	-2.5949989516	 2.2159259156	-2.2071533645	 0.117302
H	-4.1535397275	-0.6709740525	 0.1700800468	 0.117102
H	-4.8474802419	-0.3361333433	-1.4658840564	 0.115337
70.2909	100.3002	182.1937	330.5119	341.9598	418.8916	537.5143	603.6448	633.8219	687.5473	755.5312	781.4415	799.9801	852.5845	871.0576	895.0905	911.7774	923.8951	989.1205	1028.6341	1058.5599	1084.2103	1117.398	1151.6803	1170.7742	1178.1187	1206.0932	1211.2897	1227.2199	1246.9699	1264.3154	1283.5774	1315.1643	1435.7909	1443.5479	1467.1889	1520.7408	1558.1478	1858.1063	3045.6357	3061.3173	3063.0605	3072.3575	3084.5949	3115.2897	3134.1081	3147.4214	3354.5369
[O-]C(=O)CC1C2C[NH+]1C2	OC(=O)C[C@H]1[C@H]2CN1C2	
InChI=1S/C6H9NO2/c8-6(9)1-5-4-2-7(5)3-4/h4-5H,1-3H2,(H,8,9)	InChI=1S/C6H9NO2/c8-6(9)1-5-4-2-7(5)3-4/h4-5H,1-3H2,(H,8,9)/t5-/m0/s1
