17
gdb 106253	2.52567	1.36602	1.10569	3.9992	69.15	-0.2654	-0.004	0.2614	1150.0767	0.134346	-458.962482	-458.953887	-458.952943	-458.995911	32.022	
C	-0.047907358	 1.5149873214	-0.1706582083	-0.383176
C	-0.047677568	 0.0177184241	 0.167842385	-0.294083
C	-1.391848022	-0.6092787096	-0.0145139823	 0.395331
O	-2.4668945922	-0.1553063986	 0.8757324256	-0.32033
C	-2.8498121525	-1.4873301477	 1.1029290783	 0.464357
O	-3.6477702812	-1.8680076447	 1.8929466824	-0.318523
C	-1.9075525552	-2.0490624379	 0.0907507597	-0.40478
C	-2.0512652762	-1.1942322254	-1.2022767488	 0.092065
O	-3.2486557931	-0.7488888811	-1.7232046299	-0.420338
H	 0.9444714803	 1.9449844099	-0.0104200956	 0.122249
H	-0.3276031372	 1.683943183	-1.2151427248	 0.127106
H	-0.7588751923	 2.0535483716	 0.4619668062	 0.142138
H	 0.6653082957	-0.5174194627	-0.4701363608	 0.114544
H	 0.2746584374	-0.1355583152	 1.2045506516	 0.121548
H	-1.4097140759	-3.0076185412	 0.1206203387	 0.127902
H	-1.3897260687	-1.5477006978	-1.9889649011	 0.129276
H	-3.648254481	-0.1602448881	-1.068743196	 0.304715
80.2699	120.9526	148.2936	198.2288	254.5702	308.9922	363.7251	423.2484	458.8283	488.4661	575.7935	686.147	718.5503	754.0736	785.4764	831.9676	896.6224	913.9603	966.0415	980.1649	990.2244	1021.1136	1086.4099	1131.0735	1157.664	1174.7792	1220.7321	1296.3465	1314.4674	1351.8762	1393.047	1411.7444	1471.9248	1492.2109	1498.9715	1511.0013	1947.6293	3034.629	3044.8303	3072.7058	3117.0565	3124.1806	3159.1874	3225.9979	3767.1068
CCC12OC(=O)C1C2O	CC[C@]12OC(=O)[C@H]1[C@H]2O	
InChI=1S/C6H8O3/c1-2-6-3(4(6)7)5(8)9-6/h3-4,7H,2H2,1H3	InChI=1S/C6H8O3/c1-2-6-3(4(6)7)5(8)9-6/h3-4,7H,2H2,1H3/t3-,4-,6+/m1/s1
