18
gdb 126825	2.43471	1.46312	0.98107	2.613	74.4	-0.2308	0.0292	0.2599	1227.8171	0.148823	-435.293838	-435.284805	-435.283861	-435.328787	31.478	
C	 0.1068886108	 1.5703290244	-0.0920820734	-0.376347
C	-0.0848085677	 0.0679228838	 0.1150161419	-0.153633
N	 0.62737092	-0.4280090492	 1.2793831199	-0.060271
N	 1.9923243996	-0.5428897647	 1.2911829533	-0.261744
C	 2.226361499	-0.9876004971	 2.5089346534	 0.028071
N	 1.1252378658	-1.1704197092	 3.296642127	-0.388966
C	 0.1532954361	-0.804215381	 2.4853500659	 0.508999
O	-1.1564783727	-0.7754421471	 2.7301952731	-0.272857
C	-1.5381018522	-1.2200967169	 4.0370871017	-0.238982
H	 1.168452404	 1.8051289864	-0.2009427458	 0.147976
H	-0.4171550556	 1.8942777452	-0.9961948759	 0.120444
H	-0.2882812616	 2.1352529048	 0.7572485163	 0.127688
H	-1.1388110235	-0.1793095294	 0.2623555643	 0.136367
H	 0.2763151715	-0.4894570671	-0.7542908912	 0.132886
H	 3.2289307374	-1.1953977314	 2.8524995447	 0.123322
H	-1.0754837055	-0.5953287573	 4.8056749874	 0.146516
H	-2.6239307166	-1.1301969539	 4.0727570005	 0.13485
H	-1.2337229888	-2.2583456801	 4.194413047	 0.145683
35.7345	91.2744	130.8892	153.1831	188.6073	242.3389	305.9429	324.118	406.0579	552.4517	638.8789	680.9876	745.7866	770.9036	795.0584	898.3134	974.6647	986.1158	1034.1296	1078.7096	1107.2121	1183.1657	1200.382	1210.6933	1239.0158	1275.3213	1312.2279	1339.8754	1395.2266	1409.5442	1452.3932	1471.8806	1479.9855	1484.1613	1489.8229	1500.7076	1506.8509	1562.8733	1605.0825	3046.1198	3048.3524	3064.0508	3110.9818	3120.9261	3123.3667	3137.7374	3157.5698	3255.9442
CCN1N=CN=C1OC	CCn1ncnc1OC	
InChI=1S/C5H9N3O/c1-3-8-5(9-2)6-4-7-8/h4H,3H2,1-2H3	InChI=1S/C5H9N3O/c1-3-8-5(9-2)6-4-7-8/h4H,3H2,1-2H3
