20
gdb 81828	2.19592	1.64897	1.17348	0.7943	85.49	-0.2066	0.0335	0.2401	1142.4368	0.168653	-365.933323	-365.923953	-365.923009	-365.966897	35.715	
C	-0.2790128808	 1.4845521891	-0.1058732621	-0.323107
N	 0.0705183997	 0.0747203307	-0.0970101193	-0.086988
C	 0.7522062726	-0.4912936388	-1.2558794388	-0.051463
C	 2.1829965142	-0.0284637673	-1.401009599	-0.355906
C	 1.8438801397	-1.1019786948	-0.3962691229	 0.327374
C	 2.44406869	-2.4756936619	-0.3709671751	-0.502401
C	 1.1519958724	-0.4385277754	 0.8183861412	-0.215819
C	 1.9223387934	 0.5265694097	 1.5863016086	 0.354564
C	 2.5504856787	 1.3333392344	 2.2205711115	-0.484054
H	 0.5603325571	 2.1651753989	-0.3198871752	 0.104081
H	-1.0504531016	 1.642414301	-0.86699165	 0.117904
H	-0.6998815925	 1.7627407865	 0.8648940461	 0.124185
H	 0.1811831535	-0.9209713554	-2.0728623339	 0.091656
H	 2.6949101975	-0.3891003022	-2.2885909041	 0.109252
H	 2.4913230046	 0.9609652128	-1.0758934706	 0.118916
H	 2.6502487994	-2.8319316769	-1.385267863	 0.121346
H	 3.392231608	-2.4834657263	 0.1797320727	 0.127652
H	 1.7729181181	-3.1977600718	 0.1077839829	 0.120766
H	 0.7244064134	-1.1849588498	 1.4999966093	 0.10367
H	 3.1089923227	 2.0382880275	 2.7853904716	 0.198371
109.8052	126.5467	174.9681	185.7485	199.5411	231.2786	325.3713	346.0323	360.7791	490.197	527.7104	554.1438	615.8309	622.4113	657.2219	710.4003	812.6242	839.1472	903.0174	931.7459	984.139	1001.1868	1019.2336	1040.1465	1067.1148	1095.8505	1122.9684	1150.9329	1191.182	1194.313	1236.3817	1265.092	1302.2125	1331.9164	1398.5192	1425.9067	1446.9675	1481.7722	1486.3097	1494.2072	1499.0679	1500.3414	2224.7027	2975.8827	3014.3688	3023.5114	3065.5682	3082.5366	3099.0335	3106.6616	3116.5028	3158.168	3201.5778	3501.5162
CN1C2CC2(C)C1C#C	CN1[C@H]2C[C@@]2(C)[C@H]1C#C	
InChI=1S/C8H11N/c1-4-6-8(2)5-7(8)9(6)3/h1,6-7H,5H2,2-3H3	InChI=1S/C8H11N/c1-4-6-8(2)5-7(8)9(6)3/h1,6-7H,5H2,2-3H3/t6-,7+,8+/m1/s1
