20
gdb 121693	3.59042	0.63315	0.6046	3.724	78.64	-0.247	-0.0259	0.2212	1918.0476	0.168411	-440.334331	-440.323576	-440.322632	-440.373054	36.488	
C	-0.0367979259	 1.2703433517	 0.6480969263	-0.378384
C	-0.3656695367	-0.2182196196	 0.5114826568	-0.169237
C	-1.2403184647	-0.5072844347	-0.7143724209	-0.150783
N	-1.5544064828	-1.9194271799	-0.8750654593	-0.317866
C	-2.7670310837	-2.4442080307	-0.5501097837	 0.399753
O	-3.7041727924	-1.7828654618	-0.1367405215	-0.377858
C	-2.8944000419	-3.9565936051	-0.7302426535	-0.390763
C	-3.3978819884	-4.6058648334	 0.5504035817	 0.16619
O	-2.9694294055	-5.6409327901	 0.9882388887	-0.239438
H	 0.5865434368	 1.4577640343	 1.5269851333	 0.119841
H	 0.5049154322	 1.6412625955	-0.2292447749	 0.11561
H	-0.9484289271	 1.8684389747	 0.7519222733	 0.125086
H	 0.5629009783	-0.799957393	 0.441098692	 0.091686
H	-0.8898352683	-0.5740686998	 1.4057478932	 0.11676
H	-2.1980245568	 0.0113430504	-0.6274306235	 0.149562
H	-0.7448558523	-0.1479547229	-1.6249538409	 0.105203
H	-0.818028674	-2.5459496284	-1.1561674506	 0.247865
H	-3.6688140674	-4.1137494865	-1.492813396	 0.158209
H	-1.9796176986	-4.4581311108	-1.0550506499	 0.116027
H	-4.2079647007	-4.0373587599	 1.0503419994	 0.112535
21.0603	31.4351	70.3156	94.1742	105.8107	206.1766	234.5971	284.9898	302.7597	344.2196	451.0656	466.8748	506.8058	632.4964	718.1806	751.6432	797.4245	869.5352	895.7247	950.3479	1009.9846	1042.649	1056.0328	1095.1772	1125.4179	1165.9393	1184.8425	1239.4433	1277.5836	1314.8612	1338.5947	1338.9783	1404.1478	1407.1746	1415.4942	1443.3608	1477.3606	1491.1777	1500.0442	1509.027	1545.5253	1768.8497	1835.5558	2938.8997	3020.9302	3028.4265	3033.3226	3034.5063	3064.9684	3098.7125	3109.8118	3109.9174	3117.7118	3643.7169
CCCNC(=O)CC=O	CCCNC(=O)CC=O	
InChI=1S/C6H11NO2/c1-2-4-7-6(9)3-5-8/h5H,2-4H2,1H3,(H,7,9)	InChI=1S/C6H11NO2/c1-2-4-7-6(9)3-5-8/h5H,2-4H2,1H3,(H,7,9)
