18
gdb 87668	3.58673	1.15204	0.99925	3.0121	81.31	-0.2384	-0.0483	0.1902	1212.8347	0.147496	-401.953065	-401.944945	-401.944001	-401.985822	31.205	
C	-0.1415333954	 1.4444899807	-0.1420312699	-0.317518
N	 0.0427220298	 0.0087061897	 0.0126986544	-0.126071
C	 1.3884337991	-0.5104509854	-0.1539382072	-0.294423
C	 0.7542697183	-0.481227761	 1.2051674491	 0.312029
C	 1.2680471607	 0.3908888873	 2.3478674393	-0.437738
C	 1.0864345543	-0.4853616671	 3.6047450588	 0.373933
O	 1.4384076393	-0.1909417018	 4.7224960429	-0.328124
C	 0.4055357942	-1.7270367404	 3.171771525	-0.207118
C	 0.2169684619	-1.7103890972	 1.8452661825	-0.089249
H	 0.7203940493	 2.0475913788	 0.184269874	 0.107322
H	-0.32500835	 1.6582440252	-1.1994917356	 0.129974
H	-1.0216803978	 1.7628175351	 0.4252966391	 0.129388
H	 1.4810883264	-1.4433476652	-0.7050894225	 0.117103
H	 2.1982293295	 0.2002427235	-0.3203855855	 0.112346
H	 2.3143300592	 0.6904283148	 2.2517171304	 0.135254
H	 0.679230703	 1.3052942348	 2.4754705891	 0.139172
H	 0.1223082683	-2.507850046	 3.865349512	 0.119276
H	-0.26752081	-2.478052376	 1.2524034842	 0.124443
70.8359	157.5908	200.4447	232.6512	287.4022	365.675	433.3496	447.6348	460.6669	521.2867	606.7945	688.3422	756.8338	819.0819	828.7427	838.0057	900.4738	936.009	981.2718	998.731	1051.0453	1083.459	1117.1723	1128.7938	1151.1068	1169.6357	1180.1191	1206.5401	1238.4884	1288.523	1337.3719	1399.5999	1449.4816	1450.4737	1492.1483	1497.5728	1509.8641	1635.5268	1816.6553	2979.7896	3060.0508	3072.5202	3080.4634	3106.4814	3107.8544	3169.0754	3200.2633	3231.5789
CN1CC11CC(=O)C=C1	CN1C[C@]21CC(=O)C=C2	
InChI=1S/C7H9NO/c1-8-5-7(8)3-2-6(9)4-7/h2-3H,4-5H2,1H3	InChI=1S/C7H9NO/c1-8-5-7(8)3-2-6(9)4-7/h2-3H,4-5H2,1H3/t7-,8?/m1/s1
