16
gdb 47672	2.25733	1.72371	1.07773	3.1204	66.92	-0.254	-0.0402	0.2138	1079.1554	0.124841	-475.038421	-475.030504	-475.02956	-475.071755	29.08	
N	-0.0433209221	 1.3059416305	 0.0597240852	-0.466922
C	 0.0479091857	 0.0501306335	-0.0489307302	 0.343845
C	-1.2060498834	-0.8031734219	-0.0719080879	-0.344522
C	-1.4136353424	-1.6351393023	-1.3353903935	 0.334693
O	-2.3117100378	-1.4347639828	-2.112892451	-0.280579
C	-0.4413074452	-2.7958719246	-1.551835413	-0.190264
O	 0.6715287228	-2.7837721055	-0.6767444006	-0.220898
C	 1.5330894834	-1.7027485307	-0.8512154258	 0.007056
O	 1.2629822141	-0.586122679	-0.0124356018	-0.241581
H	 0.8903472251	 1.7212779375	 0.0947452969	 0.225995
H	-1.150514912	-1.4966831037	 0.7768971997	 0.146721
H	-2.0596480428	-0.1371445962	 0.03936339	 0.15722
H	-0.9792452439	-3.7305778853	-1.3629568224	 0.15258
H	-0.1291951168	-2.8001251427	-2.6055670121	 0.136615
H	 2.5322688266	-2.0233813329	-0.5521847618	 0.135387
H	 1.5368880888	-1.3759292541	-1.9027100517	 0.104654
49.7537	103.3305	135.65	283.5345	365.2016	377.218	443.956	482.3646	497.5695	551.6865	592.2041	696.8851	799.4994	829.3669	911.9327	938.3479	977.8948	1009.63	1031.4948	1065.139	1131.7833	1162.981	1198.8011	1253.024	1265.7694	1291.8478	1325.9891	1333.6993	1363.3224	1446.3203	1450.4555	1466.9326	1511.3641	1742.5634	1829.8311	2984.4475	3019.1376	3040.9148	3089.6898	3121.7007	3162.4074	3463.3837
N=C1CC(=O)COCO1	[NH][C]1CC(=O)COCO1	
InChI=1S/C5H7NO3/c6-5-1-4(7)2-8-3-9-5/h6H,1-3H2	InChI=1S/C5H7NO3/c6-5-1-4(7)2-8-3-9-5/h6H,1-3H2
