17
gdb 111374	2.11028	1.79734	1.16913	3.796	72.65	-0.2557	0.004	0.2597	1074.506	0.135831	-417.955525	-417.947114	-417.94617	-417.988826	30.609	
C	-0.1853992902	 1.2909609872	 0.0152243129	-0.252908
O	 0.2869597757	-0.0409428579	 0.1414273257	-0.235344
C	 0.7265340338	-0.600704076	-1.0518525253	 0.126942
C	 1.3313755724	-1.9834303351	-0.909686444	-0.062344
C	 0.3159118597	-2.9723323711	-0.5061507566	-0.243353
N	 0.3792302499	-2.601359485	-1.9337052044	-0.129382
C	-0.3119199748	-1.2625941641	-2.0480597285	-0.194625
C	-1.7190687932	-1.2360877868	-1.6796024685	 0.32927
N	-2.8340421069	-1.2017083611	-1.3745701055	-0.338867
H	 0.5959097454	 1.9524926969	-0.3873594541	 0.111195
H	-1.070782671	 1.3489646806	-0.6307467343	 0.130252
H	-0.4574446278	 1.6267757888	 1.0173170597	 0.141118
H	 1.3740920832	 0.0937853864	-1.6040241238	 0.087991
H	 2.3933937365	-2.1990456272	-0.9237506928	 0.109201
H	 0.6602748432	-3.9865457163	-0.3343682492	 0.135704
H	-0.5394196013	-2.668778956	 0.0900191887	 0.152812
H	-0.1983333747	-0.8926258032	-3.0692620302	 0.132338
99.0143	112.8231	141.3514	186.2645	195.7775	298.7119	385.7367	400.0685	493.9128	583.637	617.8541	758.0966	774.5645	793.926	817.6422	968.5604	986.0911	1018.1011	1038.5089	1059.0356	1069.9378	1117.6946	1145.3623	1151.4866	1181.8034	1208.3469	1217.4934	1246.3464	1288.011	1343.0821	1371.7624	1394.9125	1482.9614	1492.2019	1503.1908	1505.12	2349.3946	2992.6666	3013.6977	3057.4024	3092.1517	3128.8915	3134.4716	3184.4548	3220.6002
COC1C2CN2C1C#N	CO[C@H]1[C@H]2CN2[C@H]1C#N	
InChI=1S/C6H8N2O/c1-9-6-4(2-7)8-3-5(6)8/h4-6H,3H2,1H3	InChI=1S/C6H8N2O/c1-9-6-4(2-7)8-3-5(6)8/h4-6H,3H2,1H3/t4-,5+,6+,8?/m0/s1
