20
gdb 90703	3.06399	1.40822	1.18076	1.06	79.75	-0.2133	0.0205	0.2338	1114.7438	0.171849	-403.125567	-403.117289	-403.116345	-403.15816	32.458	
C	 0.0042307327	 1.6001430395	-0.0494960525	-0.401802
C	 0.0608019869	 0.072027497	-0.0321026863	-0.000779
C	 0.7611715146	-0.5782788199	-1.2164496674	-0.087248
C	 1.5624966198	-1.5649225325	-0.8201636212	-0.074639
C	 1.4963260772	-1.7192110487	 0.6799830085	-0.064057
C	 2.7288060874	-1.2709748306	 1.4926017152	 0.114461
O	 3.9515149289	-1.4105427883	 0.8119432797	-0.426287
C	 2.0572855721	 0.1256719432	 1.5438096062	-0.222977
N	 0.7602334863	-0.4983218373	 1.1434318094	-0.110081
H	 0.9935033784	 2.0522793232	-0.1605715389	 0.119718
H	-0.6103613383	 1.9380843753	-0.8894819264	 0.11584
H	-0.4482740745	 1.9777188667	 0.8725082034	 0.123836
H	-0.9814190522	-0.2853415796	 0.0012229253	 0.082861
H	 0.5782870871	-0.2834079895	-2.2441870798	 0.092936
H	 2.1524993637	-2.2112504242	-1.4575533818	 0.104632
H	 1.0497178943	-2.6780615683	 0.9753174003	 0.07655
H	 2.7591093525	-1.7536040838	 2.4775885358	 0.074683
H	 4.6610510778	-1.1330200587	 1.3995294085	 0.285723
H	 2.0231533573	 0.650550389	 2.5037333662	 0.093313
H	 2.5052353981	 0.7778589076	 0.7849407458	 0.103319
91.1498	160.6451	226.2763	238.51	248.6716	295.0559	353.6712	439.7707	515.353	541.335	662.566	688.0005	759.4221	770.3633	808.7184	862.3477	877.5303	949.8652	959.0695	994.6005	995.608	1050.5377	1064.2637	1080.8911	1100.1912	1147.0964	1163.8601	1176.4869	1196.6332	1200.7665	1247.6137	1299.397	1302.2243	1316.514	1327.6742	1353.0501	1370.0235	1405.2148	1434.4774	1492.079	1499.6921	1502.5381	1669.1889	2959.1973	3004.8744	3022.9264	3026.356	3042.6847	3079.8618	3109.9777	3118.4026	3186.5861	3221.4885	3821.7376
CC1C=CC2C(O)CN12	C[C@H]1C=C[C@H]2[C@@H](O)CN12	
InChI=1S/C7H11NO/c1-5-2-3-6-7(9)4-8(5)6/h2-3,5-7,9H,4H2,1H3	InChI=1S/C7H11NO/c1-5-2-3-6-7(9)4-8(5)6/h2-3,5-7,9H,4H2,1H3/t5-,6-,7-/m0/s1
