21
gdb 121166	3.25251	0.87954	0.76201	2.2742	79.12	-0.2246	0.0745	0.2991	1534.8342	0.18116	-424.182556	-424.17298	-424.172036	-424.217849	35.047	
O	-0.0256418747	 1.4123207932	-0.1769435837	-0.419631
C	 0.0332113147	 0.0213456249	 0.0954591414	-0.07528
C	-1.3291192397	-0.5770741853	-0.2338738057	-0.193275
C	-1.3897373366	-2.0781722766	 0.0139333657	-0.141364
C	-1.4746559751	-2.5715539858	 1.4794920399	-0.087107
O	-2.7226975899	-3.2543928352	 1.2284936193	-0.306718
C	-2.7464377933	-2.7747305539	-0.1169473012	 0.459923
C	-4.0124629297	-2.3075883079	-0.7580421857	-0.335256
C	-3.3238287194	-3.5848751395	-1.226603579	-0.335383
H	 0.8272421009	 1.7992166201	 0.0409126279	 0.286231
H	 0.8113085135	-0.4726187045	-0.5102729041	 0.084643
H	 0.2794076876	-0.1671769609	 1.1537673625	 0.087631
H	-2.0943150707	-0.0665566124	 0.3624228397	 0.112414
H	-1.5537684628	-0.3603738342	-1.285603703	 0.107271
H	-0.60516947	-2.5905101637	-0.5533481223	 0.079252
H	-0.6922589974	-3.2635991384	 1.8101023959	 0.102534
H	-1.591785457	-1.7753802122	 2.2266750728	 0.0996
H	-4.9229393424	-2.4166901874	-0.1784269888	 0.123786
H	-3.9856082382	-1.4346959591	-1.4023627626	 0.11608
H	-2.8218174391	-3.5816813558	-2.1893179397	 0.111699
H	-3.7863238408	-4.5287044155	-0.9579280994	 0.122949
56.1195	86.0855	104.1067	115.4086	240.3062	249.2073	267.1398	334.963	376.5859	434.7605	530.4635	566.6021	757.8033	791.3349	823.1963	870.7629	877.3938	909.66	944.9948	967.7422	988.9699	1021.7858	1039.3818	1048.2342	1066.1142	1084.5484	1113.8897	1153.3474	1178.6366	1187.4647	1221.5422	1225.9587	1234.5411	1264.8446	1309.6396	1326.872	1354.8545	1361.3923	1406.111	1448.0406	1463.3173	1489.7553	1496.9923	1526.6153	1528.792	2955.1049	2979.041	3010.3334	3031.1865	3040.9967	3063.5193	3078.3157	3123.962	3129.1604	3208.1546	3222.7905	3830.9964
OCCC1COC11CC1	OCC[C@H]1COC21CC2	
InChI=1S/C7H12O2/c8-4-1-6-5-9-7(6)2-3-7/h6,8H,1-5H2	InChI=1S/C7H12O2/c8-4-1-6-5-9-7(6)2-3-7/h6,8H,1-5H2/t6-/m0/s1
