20
gdb 97384	3.81451	0.82306	0.7873	2.4284	79.94	-0.2512	0.0188	0.27	1547.764	0.168215	-440.256848	-440.246995	-440.246051	-440.292231	35.045	
C	 0.0534212453	 1.407089157	 0.0543861299	-0.315631
N	-0.2611140034	 0.0140293555	-0.1817057935	-0.207345
C	 0.5162083448	-0.6370829575	-0.9246092506	 0.116328
O	 0.3034030099	-1.9496967656	-1.1604811219	-0.246578
C	 1.1456307611	-2.5799658933	-2.1225732235	 0.333784
C	 0.7888510759	-2.1549853168	-3.5388305111	-0.442124
C	 2.6622239504	-2.6363029217	-1.7957691037	-0.117354
O	 2.6492029792	-4.074061519	-1.8661335526	-0.271945
C	 1.2062609217	-4.101659309	-1.8931537441	-0.115916
H	 0.958503001	 1.7590300497	-0.468289976	 0.094433
H	-0.7899252914	 2.03250291	-0.2597294008	 0.129005
H	 0.1908217481	 1.5764010893	 1.1284981717	 0.129868
H	 1.4105680454	-0.2189439761	-1.4124738946	 0.078307
H	 0.9673867091	-1.0857237415	-3.6915565166	 0.122652
H	 1.3946043668	-2.7081187333	-4.262427575	 0.135078
H	-0.2678291177	-2.3581328941	-3.7366530927	 0.137463
H	 3.3490574904	-2.191919438	-2.5247914999	 0.107289
H	 2.905147002	-2.27309738	-0.788501152	 0.10691
H	 0.7743323889	-4.399668734	-0.9305197586	 0.118158
H	 0.8187598925	-4.7412001717	-2.6932408845	 0.10762
58.173	89.6861	107.3188	131.044	204.9979	246.2457	289.3878	309.5709	339.753	369.6576	391.933	480.9567	537.8999	728.1507	837.4222	910.8292	931.2895	962.9418	979.5699	985.8958	1012.384	1033.0876	1064.4817	1141.3737	1147.2163	1154.2883	1168.9671	1197.5518	1225.3772	1246.5683	1272.0289	1307.1661	1381.0245	1407.8523	1412.4558	1449.8947	1480.2841	1485.9486	1491.0914	1502.9348	1505.0575	1527.188	1777.5822	2963.81	2990.9249	3010.8128	3029.2888	3038.5493	3058.2962	3068.4219	3078.3284	3083.2425	3110.0831	3121.4262
CN=COC1(C)COC1	CN=COC1(C)COC1	
InChI=1S/C6H11NO2/c1-6(3-8-4-6)9-5-7-2/h5H,3-4H2,1-2H3	InChI=1S/C6H11NO2/c1-6(3-8-4-6)9-5-7-2/h5H,3-4H2,1-2H3
