18
gdb 125619	2.48091	1.04413	0.74167	1.2136	82.77	-0.2206	-0.0857	0.1349	1529.0224	0.143688	-435.27054	-435.259311	-435.258367	-435.307491	38.581	
C	-0.2532892982	 1.4966208683	 0.1086087506	-0.485029
C	 0.0931804784	 0.0561884795	-0.0466844065	 0.244299
N	 0.8543588197	-0.4036802268	-0.9963641173	-0.218896
N	 0.9199409244	-1.7656873517	-0.9039804532	-0.333407
C	 0.2953231959	-2.2490281644	 0.2435534708	 0.315644
C	 0.2658661647	-3.5025713865	 0.7083644644	-0.413163
N	-1.6098827643	-3.5523833308	 3.5179982019	-0.729022
H	-1.2921646025	-3.4869028005	 4.4812160662	 0.230947
H	-1.5920826391	-2.6044636924	 3.1417424681	 0.271227
H	-2.5876434244	-3.8260920723	 3.5638779856	 0.23121
C	-0.3552591981	-1.0332641236	 0.8435170407	 0.219043
O	-1.0735100843	-0.9570403904	 1.8251584128	-0.336776
H	 0.0340336255	 1.8595171416	 1.1012204509	 0.141431
H	 0.2528957563	 2.0941025446	-0.6519075858	 0.140294
H	-1.3346082191	 1.6495705239	 0.0186400283	 0.141459
H	 1.7049112733	-2.2023940496	-1.3574446027	 0.267926
H	 0.7737390402	-4.3106033789	 0.190844695	 0.118461
H	-0.2718016485	-3.73353949	 1.6256736102	 0.194353
46.9605	104.8758	109.6347	119.424	120.3103	160.6883	215.5732	254.6377	295.7946	307.03	318.8573	375.016	377.3975	552.5977	566.7317	579.6861	737.6621	753.5367	773.616	823.4811	960.8302	979.8928	990.4818	1035.4212	1061.5551	1128.2231	1145.0658	1268.2799	1339.312	1400.7705	1427.2503	1473.1483	1476.5238	1482.212	1618.6717	1674.1728	1696.0224	1704.2718	1776.6536	3037.6536	3089.3147	3113.9685	3138.8256	3219.8386	3443.3077	3557.5464	3582.3401	3656.8424
CC1=NNC(C[NH3+])=C1[O-]	CC1=NNC(=C)C1=O.N	
InChI=1S/C5H9N3O/c1-3-5(9)4(2-6)8-7-3/h9H,2,6H2,1H3,(H,7,8)	InChI=1S/C5H6N2O.H3N/c1-3-5(8)4(2)7-6-3;/h6H,1H2,2H3;1H3
