15
gdb 29084	3.08287	1.45361	0.99393	5.7748	73.88	-0.2171	-0.0399	0.1771	1129.8881	0.113046	-453.994746	-453.986698	-453.985754	-454.027578	29.916	
C	 0.0421708266	 1.529897993	-0.0136596789	-0.471431
C	-0.0789045565	 0.0475202958	 0.0649075147	 0.346943
C	-1.1483430369	-0.6875120221	-0.2435185353	-0.141618
N	-1.1119017036	-2.0762326086	-0.1184799229	-0.36417
C	-0.0187548927	-2.7858508942	 0.3151736779	 0.375304
O	-0.012794761	-3.9904791515	 0.4143397649	-0.332497
C	 1.1839779616	-1.9231733771	 0.6598163479	 0.268683
N	 2.2485325848	-2.4601109457	 1.070759131	-0.463997
O	 1.0773152169	-0.5562104253	 0.5116231629	-0.273852
H	 0.8492551311	 1.8210030719	-0.6954103009	 0.143738
H	-0.8905167776	 1.9713926693	-0.3706528525	 0.134949
H	 0.276332074	 1.9559940446	 0.9684330022	 0.143729
H	-2.070180117	-0.2500460939	-0.5960670448	 0.13682
H	-1.9211556009	-2.6317748315	-0.3523313234	 0.266135
H	 2.9564618913	-1.7467703348	 1.2569462573	 0.231263
78.8354	113.4041	181.7763	284.9449	295.8906	358.0478	411.777	473.3192	495.8761	564.7606	572.1326	616.0521	687.8994	780.7431	791.0435	799.3482	909.9386	955.362	993.3738	1068.9921	1085.1956	1137.9798	1213.2858	1260.2353	1343.9407	1382.2116	1422.2761	1464.868	1465.8872	1493.3632	1735.4182	1769.722	1815.6316	3032.5433	3084.728	3133.0764	3246.4441	3473.5839	3627.7689
CC1=CNC(=O)C(=N)O1	CC1=CNC(=O)[C]([NH])O1	
InChI=1S/C5H6N2O2/c1-3-2-7-5(8)4(6)9-3/h2,6H,1H3,(H,7,8)	InChI=1S/C5H6N2O2/c1-3-2-7-5(8)4(6)9-3/h2,6H,1H3,(H,7,8)
