24
gdb 61395	2.29311	1.06196	0.88473	3.8756	89.29	-0.3048	0.0378	0.3425	1472.9298	0.214747	-368.447664	-368.436452	-368.435508	-368.484223	41.533	
C	-1.5999279425	-0.6574526735	 0.6356803687	-0.391633
C	-0.1949285074	-0.179279965	 0.2077824823	-0.149841
C	 0.8634652623	-0.5256651346	 1.2855830974	-0.19244
C	 2.2235722481	 0.2184507457	 1.2605482574	 0.251796
C	 2.0168786482	 1.7377855415	 1.410442232	-0.406905
C	 3.0337386085	-0.2910640178	 2.4692776135	-0.403354
C	 3.0204497464	-0.0686634333	-0.0251469632	-0.403983
C	 0.1249391384	-0.7572151144	-1.1025864892	 0.278902
N	 0.3411849009	-1.2314727312	-2.134695184	-0.337092
H	-1.8937545658	-0.1561793273	 1.5620105522	 0.124329
H	-2.3439798956	-0.433742102	-0.1326303785	 0.13677
H	-1.6042484398	-1.7371051649	 0.8108733757	 0.137517
H	-0.232913795	 0.9082721792	 0.0764916903	 0.125798
H	 0.3908266502	-0.3221836892	 2.2546993255	 0.097699
H	 1.0436250036	-1.6070788708	 1.2544154788	 0.108488
H	 1.4331094448	 1.9754580583	 2.3071021256	 0.107039
H	 2.9818772246	 2.2477331562	 1.4983906056	 0.116234
H	 1.5034041011	 2.1725776107	 0.5467200448	 0.113379
H	 3.2045797803	-1.3712006641	 2.4048442214	 0.112836
H	 4.0119972469	 0.1987716338	 2.5147762197	 0.112226
H	 2.5146135291	-0.0888582941	 3.4128986946	 0.107667
H	 2.5263255641	 0.3237381503	-0.917527488	 0.129752
H	 4.01072751	 0.3958174009	 0.0351328668	 0.106825
H	 3.164335779	-1.1437326945	-0.1748422795	 0.11799
21.6795	99.2927	152.7789	193.4045	215.9812	227.9983	261.1847	272.636	284.4629	306.9364	330.8757	338.4609	403.0002	412.6544	483.4958	558.4296	599.6464	743.2781	793.573	887.4096	901.6617	933.2388	939.8406	960.0817	967.8745	1018.8419	1036.6763	1078.5289	1091.4707	1137.6996	1192.8653	1229.0061	1271.9526	1289.5665	1312.5332	1369.5409	1370.7011	1399.2509	1404.734	1412.7491	1436.3619	1474.2685	1480.8051	1483.9508	1486.0335	1493.9556	1500.9941	1508.969	1509.7127	1517.3025	2352.0768	3019.4456	3022.6928	3027.3033	3036.9317	3044.9413	3047.492	3066.0431	3090.7027	3094.6112	3095.324	3096.1028	3102.1879	3117.7654	3123.0651	3128.2225
CC(CC(C)(C)C)C#N	C[C@@H](CC(C)(C)C)C#N	
InChI=1S/C8H15N/c1-7(6-9)5-8(2,3)4/h7H,5H2,1-4H3	InChI=1S/C8H15N/c1-7(6-9)5-8(2,3)4/h7H,5H2,1-4H3/t7-/m0/s1
