18
gdb 46531	4.00988	1.11231	1.03859	1.961	72.66	-0.2588	0.0209	0.2797	1179.2751	0.149011	-439.080638	-439.072778	-439.071833	-439.113933	29.328	
N	 0.0611246117	 1.3156622614	-0.062803206	-0.539332
C	 0.029577599	 0.0553875566	-0.0586256371	 0.416522
C	-1.2141298073	-0.8080060909	-0.0346208975	-0.389111
C	-0.7097910175	-2.1660258597	-0.5234264383	 0.255191
C	-1.5172852265	-3.4516000208	-0.2534369898	-0.138436
O	-1.603401913	-3.7540869419	-1.6583293921	-0.267855
C	-0.9298485267	-2.5313071959	-2.0141046099	-0.11491
C	 0.7418410491	-2.1332817132	-0.035863681	-0.14395
O	 1.1357634233	-0.7542909496	-0.0797162202	-0.237987
H	 1.0260749557	 1.6512617693	-0.064154174	 0.223774
H	-1.5778692353	-0.8790195355	 0.9983893188	 0.133028
H	-2.0133259821	-0.3737382881	-0.6362420338	 0.141818
H	-0.993236209	-4.2371264913	 0.3074468766	 0.103867
H	-2.5053193721	-3.2928248448	 0.1983767775	 0.105801
H	-1.5858899566	-1.8463814543	-2.5667613648	 0.10792
H	-0.0245374557	-2.7146659959	-2.6062944401	 0.1071
H	 0.8204701836	-2.4998702855	 0.9971372524	 0.110783
H	 1.4312246693	-2.70499939	-0.6623408107	 0.125777
53.5742	81.1321	154.6846	251.452	359.9149	370.8205	430.2394	480.6472	528.7341	678.8229	769.5666	850.3044	861.6473	893.9437	903.3527	930.7534	950.5487	991.6835	999.8351	1020.7565	1045.1098	1094.9977	1112.5464	1152.7612	1160.299	1166.1949	1205.0023	1259.3215	1269.8568	1291.0007	1312.3471	1320.013	1388.9812	1403.9715	1468.4503	1508.5741	1519.6039	1536.923	1784.0743	2997.3211	3008.578	3012.0445	3036.4722	3043.4209	3052.6049	3095.9236	3126.7156	3472.6014
N=C1CC2(COC2)CO1	[NH][C]1CC2(COC2)CO1	
InChI=1S/C6H9NO2/c7-5-1-6(4-9-5)2-8-3-6/h7H,1-4H2	InChI=1S/C6H9NO2/c7-5-1-6(4-9-5)2-8-3-6/h7H,1-4H2
