20
gdb 67467	2.62	1.65585	1.56451	0.886	77.41	-0.2305	0.0797	0.3102	995.0154	0.173291	-403.109439	-403.101802	-403.100858	-403.141148	30.604	
C	-0.0783108751	 1.5044485377	-0.0052662577	-0.512717
C	 0.0584886857	 0.0138923757	 0.031612578	 0.333922
C	 0.8222898878	-0.8163440456	-0.9164347046	-0.055982
C	 1.8302050272	-1.8492226474	-0.434528913	-0.25824
C	 1.6103955037	-2.3641554249	 1.0074931837	-0.083745
O	 0.9162439962	-1.4541223483	 1.8479470886	-0.263713
C	-0.2293945714	-0.8962043618	 1.2366706514	 0.03094
C	-1.0594730778	-1.770193518	 0.2550641022	-0.199941
N	-0.6620536774	-0.9354497971	-0.9248205258	-0.197523
H	 0.7192341032	 1.9814214808	 0.5764376824	 0.126812
H	-0.017644663	 1.8737455152	-1.0333811199	 0.128817
H	-1.0378062191	 1.8278508529	 0.4137271181	 0.121506
H	 1.1407850293	-0.306977379	-1.8234772392	 0.093359
H	 1.8690434342	-2.702432047	-1.1221371093	 0.11004
H	 2.8090910646	-1.3588898188	-0.4966172043	 0.114653
H	 1.082932774	-3.3276561705	 0.9891991166	 0.098523
H	 2.5737392342	-2.5380705739	 1.4942912294	 0.109975
H	-0.8090883986	-0.4350303648	 2.0383089745	 0.086871
H	-0.8293678571	-2.8350399863	 0.1693729383	 0.104706
H	-2.1338197507	-1.6598407489	 0.4197231208	 0.111735
141.9432	180.6205	200.457	271.2491	311.614	382.4539	422.5863	492.5011	552.6547	646.8689	674.3023	740.8172	798.5945	830.2689	839.1278	900.8481	906.1097	944.209	991.4847	1012.445	1065.1519	1074.8186	1093.3399	1112.5594	1140.6662	1153.6541	1187.4336	1220.0138	1262.3369	1272.757	1283.4417	1307.012	1324.148	1364.749	1374.6981	1410.7698	1420.9454	1467.6796	1480.3778	1485.2775	1492.8783	1498.8457	1525.4335	3001.7711	3025.8202	3028.4831	3061.8849	3064.7174	3086.81	3088.2116	3094.9922	3107.2295	3113.7281	3132.3102
CC12C3CCOC1CN23	C[C@@]12[C@H]3CCO[C@@H]1CN23	
InChI=1S/C7H11NO/c1-7-5-2-3-9-6(7)4-8(5)7/h5-6H,2-4H2,1H3	InChI=1S/C7H11NO/c1-7-5-2-3-9-6(7)4-8(5)7/h5-6H,2-4H2,1H3/t5-,6-,7-,8?/m1/s1
