14
gdb 33366	4.48025	0.77442	0.76455	4.498	74.8	-0.2835	-0.0527	0.2308	1466.0144	0.10145	-436.658716	-436.650513	-436.649569	-436.693655	27.92	
N	 0.3882707712	-3.6172926265	-0.0271523032	-0.328911
C	 0.2556993464	-2.4635120211	-0.0144295988	 0.207496
C	 0.1019672053	-1.1065229014	 0.0025579837	 0.030457
C	-0.0320254333	 0.0937927914	 0.021366267	 0.158594
C	-0.1999889879	 1.5667061982	 0.0370507072	-0.049132
O	-0.7532418893	 1.9945640833	 1.2591293281	-0.235377
C	 0.3352641554	 2.3708245652	 2.1128330449	-0.095519
C	 1.5800723579	 2.2930529631	 1.2023603406	-0.119738
O	 1.0287625355	 2.224422661	-0.1136556175	-0.216669
H	-0.8610522952	 1.8719682261	-0.7805011542	 0.139436
H	 0.1399510575	 3.3831287203	 2.4778156159	 0.12784
H	 0.4040072026	 1.6885207179	 2.966106185	 0.124117
H	 2.2179536748	 3.1767542661	 1.2506331966	 0.134506
H	 2.1809019291	 1.4003060765	 1.4155797148	 0.122899
24.9317	76.6305	96.5734	175.4626	244.989	301.2027	435.2618	524.4013	577.8445	599.5031	708.1218	745.0335	834.9868	869.2996	943.604	959.1213	978.9656	1055.1009	1111.5561	1139.8344	1161.8011	1226.4564	1242.4973	1306.2109	1361.9293	1375.6418	1382.3904	1514.2896	1529.944	2261.3906	2400.6014	3030.3477	3048.4207	3069.0806	3092.6803	3125.4301
N#CC#CC1OCCO1	N#CC#CC1OCCO1	
InChI=1S/C6H5NO2/c7-3-1-2-6-8-4-5-9-6/h6H,4-5H2	InChI=1S/C6H5NO2/c7-3-1-2-6-8-4-5-9-6/h6H,4-5H2
