18
gdb 30852	2.27844	1.40869	0.90501	0.8161	78.57	-0.1697	0.0363	0.206	1296.9677	0.14637	-439.104898	-439.095157	-439.094213	-439.139899	34.621	
C	-0.2041097705	 1.3726234723	 0.1841206126	-0.328987
N	 0.5385661015	 0.14578113	-0.1187527732	-0.392798
C	 0.8413008526	-0.688826924	 0.9463469039	 0.312259
C	 0.6273442712	-2.0162125929	 1.170080984	 0.174655
O	-0.1221440423	-2.8257220126	 0.3493786666	-0.456377
C	 1.2622181143	-2.3305194468	 2.4201672542	-0.391345
C	 1.8029577934	-1.1708466679	 2.8775884237	 0.368915
C	 2.5568219206	-0.8006478051	 4.1022337898	-0.489763
O	 1.552656844	-0.1597051295	 1.98160678	-0.213236
H	 0.3777973733	 1.9789630074	 0.8816047786	 0.144778
H	-0.3309468237	 1.9449802348	-0.7382081264	 0.121412
H	-1.19436043	 1.1892776455	 0.6288452792	 0.110457
H	 0.0884962008	-0.4008118619	-0.8425392227	 0.243385
H	 0.371843243	-3.6337458796	 0.177263292	 0.296201
H	 1.2893703118	-3.2893554132	 2.9153254787	 0.102494
H	 3.547966185	-0.3954612483	 3.8651636518	 0.133508
H	 2.0278826573	-0.0410711736	 4.6906053614	 0.133
H	 2.6921259678	-1.6831046547	 4.7319954157	 0.131445
50.0822	128.5247	141.0971	163.3765	179.8842	198.2791	268.3559	280.0607	314.4604	397.3826	525.5172	592.6116	626.8487	638.9668	695.8226	716.5467	776.9019	828.7765	975.2992	1013.4813	1040.8632	1062.9811	1112.9745	1151.2127	1161.1003	1165.7671	1259.6494	1291.1369	1326.6294	1415.4899	1431.9151	1468.7326	1470.4653	1476.5634	1492.8943	1498.0111	1516.3491	1634.2932	1714.2385	2984.9278	3021.5892	3067.5787	3090.9238	3124.2372	3132.3059	3246.2	3569.7881	3807.9113
CNC1=C(O)C=C(C)O1	CNc1c(O)cc(C)o1	
InChI=1S/C6H9NO2/c1-4-3-5(8)6(7-2)9-4/h3,7-8H,1-2H3	InChI=1S/C6H9NO2/c1-4-3-5(8)6(7-2)9-4/h3,7-8H,1-2H3
