22
gdb 85907	2.64322	1.36767	1.20174	1.9655	81.32	-0.2325	0.0742	0.3067	1170.7856	0.194266	-404.342693	-404.333582	-404.332638	-404.37567	36.254	
C	 0.0496590004	 1.5976498675	 0.0555588953	-0.403119
C	 0.0283670278	 0.0685419122	 0.027458378	 0.034554
C	 0.7597579835	-0.550214196	-1.1907077396	-0.29969
C	 1.2479570263	-1.9566121185	-0.7457948612	 0.410054
C	 0.1837772863	-3.0381424722	-0.9744108191	-0.434456
O	 2.4728249467	-2.3396016417	-1.3631686284	-0.479907
C	 1.4821555628	-1.7750695565	 0.7462152404	-0.060459
N	 2.2026412673	-0.5313849297	 1.0872967792	-0.340042
C	 0.7303320502	-0.5867958408	 1.2120425353	-0.043693
H	 1.0809546665	 1.9583610252	 0.1185061215	 0.132787
H	-0.4061043842	 2.0182776349	-0.8470249222	 0.108985
H	-0.501094856	 1.9882999948	 0.9184523537	 0.104789
H	-1.0158651349	-0.2730765733	 0.033974252	 0.068166
H	 0.1238870197	-0.592392113	-2.0808705668	 0.080024
H	 1.6449591757	 0.0438196821	-1.4293254379	 0.122796
H	-0.0174448896	-3.1550451585	-2.0459487609	 0.10388
H	 0.5270767978	-4.001928793	-0.5860654147	 0.119608
H	-0.7619938851	-2.7833207355	-0.4854380543	 0.11801
H	 2.3047682022	-2.454267765	-2.3044704299	 0.27193
H	 1.6256567537	-2.6551472234	 1.3658421567	 0.078963
H	 2.6239693822	-0.6406576755	 2.0061220443	 0.229528
H	 0.2832328907	-0.5403429841	 2.2008521684	 0.07729
119.1641	176.4019	227.5348	241.363	246.5177	261.1468	289.5388	340.976	380.9662	430.1942	503.8651	524.7046	597.0681	619.2874	778.9526	813.4204	859.6002	885.2529	906.5349	916.2033	940.7211	953.8565	964.4802	1018.8864	1052.5911	1072.7215	1117.5903	1125.7249	1133.4383	1145.2569	1197.4766	1209.0382	1248.0578	1264.1448	1297.2715	1323.5513	1344.3647	1368.2597	1400.7141	1404.1072	1413.5329	1433.0147	1479.2165	1492.3355	1495.152	1500.1944	1503.5201	3010.7403	3025.6053	3029.486	3053.0416	3092.2538	3092.8965	3108.5327	3110.0579	3113.3276	3146.8404	3159.5582	3505.9007	3806.8976
CC1CC(C)(O)C2NC12	C[C@H]1C[C@@](C)(O)[C@H]2N[C@@H]12	
InChI=1S/C7H13NO/c1-4-3-7(2,9)6-5(4)8-6/h4-6,8-9H,3H2,1-2H3	InChI=1S/C7H13NO/c1-4-3-7(2,9)6-5(4)8-6/h4-6,8-9H,3H2,1-2H3/t4-,5-,6-,7+/m0/s1
