20
gdb 110627	2.41752	1.38987	1.06382	1.8529	79.23	-0.2168	0.0655	0.2824	1200.8053	0.169954	-403.04347	-403.034628	-403.033684	-403.076869	33.957	
C	-0.9853728777	 1.7435655912	 0.7425637813	-0.496031
C	-0.6985077235	 0.4202000768	 0.0942486643	 0.301236
C	-0.9339126362	-0.9203119623	 0.7296842047	-0.044943
C	-1.9069084565	-2.038098209	 0.3731593335	-0.139084
O	-2.7147771431	-2.2363806974	 1.5290282809	-0.435639
C	 0.4612602109	-0.5509403201	 0.2637727306	-0.099576
N	 0.8148364682	-0.5259987871	-1.2073886236	-0.133566
C	-0.3075745246	-1.0262779788	-2.0184249287	-0.253586
C	-0.406371463	 0.3263421314	-1.4227161343	-0.092366
H	-0.3046551542	 2.5223907899	 0.3791800553	 0.120994
H	-2.0103163552	 2.0752458368	 0.5349439973	 0.121778
H	-0.8737245546	 1.6784766527	 1.829185474	 0.123147
H	-0.9455311646	-0.8085917017	 1.8145573305	 0.10957
H	-2.5299967675	-1.7599633647	-0.4884425971	 0.098316
H	-1.3642362658	-2.9620970256	 0.1160844183	 0.098436
H	-3.3520878877	-2.9294383186	 1.3318925781	 0.284643
H	 1.2999535374	-0.5357415391	 0.9500632301	 0.098321
H	-0.054038021	-1.0607332182	-3.0756653558	 0.12027
H	-0.8975837847	-1.8677433286	-1.6854180082	 0.121211
H	-0.3414598266	 1.2225488425	-2.0332765014	 0.096869
70.7424	174.5779	190.3058	210.8772	232.4148	262.3468	291.5259	380.6954	411.4139	492.6898	567.9054	657.4334	682.3962	755.034	798.1994	829.385	900.004	919.351	956.8179	977.9501	997.1877	1046.4332	1051.1767	1068.344	1094.0976	1108.8532	1116.272	1135.1398	1150.7881	1214.6929	1238.6136	1243.6946	1265.9811	1279.2311	1330.7151	1349.4386	1414.9798	1435.108	1483.2037	1485.282	1499.2152	1502.3514	1527.4098	2963.6364	3007.9165	3018.8578	3074.8703	3101.8511	3110.6986	3125.3553	3148.4563	3176.8115	3245.9836	3826.6111
CC12C(CO)C1N1CC21	C[C@]12[C@@H](CO)[C@H]1N1C[C@@H]21	
InChI=1S/C7H11NO/c1-7-4(3-9)6(7)8-2-5(7)8/h4-6,9H,2-3H2,1H3	InChI=1S/C7H11NO/c1-7-4(3-9)6(7)8-2-5(7)8/h4-6,9H,2-3H2,1H3/t4-,5-,6+,7+,8?/m0/s1
