19
gdb 89361	2.4312	1.56555	1.3462	4.1536	74.98	-0.2298	-0.0043	0.2255	1054.7828	0.159104	-423.033173	-423.024787	-423.023842	-423.065701	32.743	
C	-0.078248197	 1.5187411946	 0.0136725696	-0.416605
C	 0.0587076106	-0.0016452014	 0.0440302953	 0.031538
C	 0.9920757665	-0.5916381394	-1.0763579272	-0.309621
C	 2.0230471818	-1.3455542593	-0.2079097933	 0.307921
O	 3.094832644	-1.9735207162	-0.810511227	-0.474979
C	 1.0909124135	-2.0239787389	 0.8729636015	-0.315542
C	 0.7877084094	-0.5548565441	 1.2981937028	-0.15135
C	 2.260163429	-0.310464274	 0.9120606756	 0.403001
O	 3.2006559853	 0.2656157771	 1.3695695235	-0.326403
H	 0.8995128299	 2.008078248	 0.0833684498	 0.133555
H	-0.5545498388	 1.8510340933	-0.9146415461	 0.117264
H	-0.6890109787	 1.875379783	 0.8498309374	 0.118659
H	-0.9363012649	-0.4546606713	-0.0205889805	 0.078247
H	 0.4625400098	-1.2733039444	-1.7513935085	 0.095733
H	 1.4674932961	 0.1871282063	-1.6805289036	 0.115753
H	 2.7987901917	-2.3818424262	-1.6308184099	 0.28575
H	 0.2459518734	-2.6021488092	 0.4899922276	 0.099812
H	 1.6556653537	-2.5914384199	 1.6141246211	 0.122254
H	 0.3961437147	-0.2958212479	 2.2788419519	 0.085014
122.6849	152.4796	208.1563	235.0486	258.5914	294.7682	378.9591	410.8952	450.6006	507.3214	559.8104	679.2977	717.9443	787.1363	807.5777	819.8903	874.3528	927.6268	937.0516	980.5599	1001.4397	1026.4577	1039.1233	1097.5341	1112.5084	1135.0829	1175.2664	1177.5654	1212.077	1222.2798	1263.5749	1303.6742	1325.325	1364.779	1402.5422	1418.6	1486.2549	1496.0493	1498.7317	1506.8007	1904.2487	3029.2004	3031.8429	3043.0246	3064.2858	3087.484	3100.2361	3100.89	3139.0505	3153.586	3808.4634
CC1CC2(O)CC1C2=O	C[C@H]1C[C@]2(O)C[C@H]1C2=O	
InChI=1S/C7H10O2/c1-4-2-7(9)3-5(4)6(7)8/h4-5,9H,2-3H2,1H3	InChI=1S/C7H10O2/c1-4-2-7(9)3-5(4)6(7)8/h4-5,9H,2-3H2,1H3/t4-,5+,7-/m0/s1
