14
gdb 67761	2.64415	2.07214	1.59503	2.8913	64.83	-0.2454	-0.0327	0.2127	845.6537	0.100933	-436.653827	-436.647027	-436.646083	-436.684736	27.121	
O	 0.1538938054	 1.4102946513	-0.2509034038	-0.487623
C	 0.0678070499	 0.0344674329	-0.2031887114	 0.259538
C	 0.8235455818	-0.7392179844	-1.2591273908	-0.13469
C	 0.3323205268	-1.9772653743	-1.3343682428	-0.090545
C	-0.8334908429	-2.0982983652	-0.4059960279	-0.058344
C	-1.2841903475	-0.7563184347	-0.0321303494	-0.114071
N	-0.6634669202	-1.673589858	 1.0607076341	-0.220833
C	 0.3458298953	-0.6558269986	 1.1513029392	 0.366074
O	 0.9441101529	-0.2742879896	 2.1144850017	-0.331405
H	 0.3522032101	 1.7225030783	 0.6419091644	 0.302703
H	 1.7083564156	-0.3352544998	-1.7320720302	 0.129238
H	 0.7159121346	-2.8054257551	-1.9134608317	 0.122471
H	-1.5155822142	-2.9383702142	-0.4563848135	 0.121825
H	-2.2828917376	-0.3594512486	 0.0963817221	 0.135663
133.7529	212.2173	307.6754	361.8245	380.3386	432.9137	541.2672	619.6841	659.0629	684.2349	710.874	731.1169	806.7008	831.968	857.0808	900.8302	918.8485	943.0288	963.5416	1028.7599	1067.0044	1089.9514	1118.8976	1203.8543	1253.4997	1283.8453	1336.6851	1356.0872	1402.5293	1649.6974	1876.991	3191.2017	3210.3169	3224.4685	3247.8185	3765.7184
OC12C=CC3C1N3C2=O	O[C@]12C=C[C@@H]3[C@H]1N3C2=O	
InChI=1S/C6H5NO2/c8-5-6(9)2-1-3-4(6)7(3)5/h1-4,9H	InChI=1S/C6H5NO2/c8-5-6(9)2-1-3-4(6)7(3)5/h1-4,9H/t3-,4-,6-,7?/m1/s1
