16
gdb 10585	2.98434	1.72394	1.32707	2.1291	73.1	-0.2505	-0.0314	0.2191	963.0695	0.127484	-346.574479	-346.565961	-346.565017	-346.607032	31.313	
C	 0.0711511917	 1.5271602911	 0.0500610156	-0.426744
C	 0.1077107441	 0.017356469	 0.0407757447	-0.01866
C	 1.351447341	-0.7506536948	-0.2049775379	-0.309695
C	 0.7434060089	-0.8096634567	 1.2043218319	 0.036446
C	 1.4755266355	-0.0756951707	 2.2822857213	 0.089004
O	 2.2780138783	 0.806438441	 2.089533819	-0.268105
C	 0.0537563372	-1.9958645849	 1.6239829434	 0.225102
C	-0.5173710867	-2.9848646787	 2.0024671089	-0.415115
H	 0.9912444981	 1.9502873335	 0.4554239482	 0.158655
H	-0.0527978828	 1.8928814387	-0.9752575134	 0.124565
H	-0.7724708765	 1.8988652254	 0.6404755685	 0.123946
H	-0.8061744444	-0.4551443498	-0.3078463322	 0.11297
H	 1.3111868029	-1.6670670969	-0.7811929209	 0.133622
H	 2.2818360148	-0.1944730682	-0.255394936	 0.146052
H	 1.2202918756	-0.4112668559	 3.3087811675	 0.09217
H	-1.0211974977	-3.8608229621	 2.3285716814	 0.195786
135.3785	146.8381	153.0839	196.7842	217.4623	262.594	340.2694	426.1223	504.6318	528.5224	541.2085	578.5206	661.7365	717.2523	734.23	875.9797	912.3635	937.4775	1018.7147	1051.7356	1074.1052	1104.58	1121.525	1201.7434	1249.5455	1289.5353	1390.5153	1419.4181	1429.4415	1470.1198	1496.9071	1503.0615	1800.8047	2234.0468	2919.2227	3038.8781	3096.5852	3138.828	3139.9112	3158.8491	3237.9812	3502.4654
CC1CC1(C=O)C#C	C[C@H]1C[C@]1(C=O)C#C	
InChI=1S/C7H8O/c1-3-7(5-8)4-6(7)2/h1,5-6H,4H2,2H3	InChI=1S/C7H8O/c1-3-7(5-8)4-6(7)2/h1,5-6H,4H2,2H3/t6-,7-/m0/s1
