21
gdb 60621	2.48974	1.3376	1.01934	3.4902	79.66	-0.2278	0.0567	0.2845	1249.9553	0.181949	-420.43008	-420.419987	-420.419043	-420.465008	37.324	
C	-0.5893245686	 1.2388857858	 0.1279493323	-0.404656
C	-0.0197859415	-0.1605599214	 0.1270152417	 0.027934
C	 1.3974539183	-0.4080929684	-0.3306339034	-0.335314
C	 1.0265921022	-0.5979979915	 1.121061865	 0.038162
N	 1.5449454799	 0.3172144823	 2.1048434496	-0.104717
C	 2.9864681498	 0.4860307467	 2.2038590976	-0.352202
C	 0.712511754	 0.6169571995	 3.1722466671	 0.452457
N	 1.3050515441	 1.3185850983	 4.2171068543	-0.573424
O	-0.4751793239	 0.3445486581	 3.1835009828	-0.405627
H	 0.177857609	 1.9766054716	 0.3801822829	 0.111113
H	-0.9883278568	 1.4941145254	-0.8598623622	 0.104478
H	-1.3893751901	 1.325167835	 0.8668144738	 0.144446
H	-0.740582247	-0.9362528887	-0.1168292041	 0.086546
H	 1.6352197295	-1.2885277836	-0.9174730122	 0.111239
H	 1.9817393776	 0.4703054154	-0.58698967	 0.112196
H	 0.94462534	-1.62861184	 1.4650335878	 0.089476
H	 3.2332381188	 1.4996163036	 2.534071385	 0.13673
H	 3.4607336173	-0.2349735526	 2.8888185453	 0.113629
H	 3.4273882589	 0.3409875963	 1.2171828996	 0.140514
H	 2.2725512213	 1.1511438776	 4.4412234655	 0.24881
H	 0.6957782773	 1.3652476407	 5.0194952918	 0.25821
74.1708	83.1504	143.1385	169.109	188.364	214.0533	265.4831	314.5348	356.038	404.4238	427.1382	492.1306	551.7809	564.045	627.4511	723.3314	781.6348	796.4196	840.2554	893.1782	939.1546	988.4536	1045.232	1074.2295	1095.1597	1103.859	1131.4212	1147.9398	1155.5385	1194.8481	1218.1647	1226.6148	1311.8452	1381.7798	1405.0601	1409.1491	1419.9562	1471.3971	1485.5332	1496.581	1501.3503	1503.9572	1518.1418	1623.2281	1782.3831	2975.844	3038.0141	3075.2984	3096.2959	3101.0353	3125.4159	3127.2776	3138.8002	3146.943	3212.5231	3587.7018	3700.3715
CC1CC1N(C)C(N)=O	C[C@H]1C[C@H]1N(C)C(=O)N	
InChI=1S/C6H12N2O/c1-4-3-5(4)8(2)6(7)9/h4-5H,3H2,1-2H3,(H2,7,9)	InChI=1S/C6H12N2O/c1-4-3-5(4)8(2)6(7)9/h4-5H,3H2,1-2H3,(H2,7,9)/t4-,5+/m0/s1
