21
gdb 79835	2.60637	1.65131	1.40734	1.654	81.65	-0.2303	0.0898	0.3201	1053.4758	0.183466	-387.072267	-387.063994	-387.06305	-387.104633	32.542	
C	-0.2715331115	 1.5597113263	-0.0326059405	-0.418422
C	 0.0402307682	 0.0714373941	-0.1264028897	 0.014437
C	 0.7664666678	-0.5401735529	-1.3327235701	-0.149699
C	 2.2815588807	-0.4080361183	-1.2125162198	-0.123064
C	 2.874053939	 0.6080473012	-0.2499828736	-0.108352
O	 2.2330269	 0.3540929081	 1.0069270252	-0.264394
C	 1.1642063889	-0.5543417929	 0.7681731065	 0.012381
C	 1.5733978038	-1.4652711306	-0.4224762489	 0.34507
C	 1.8113384075	-2.9444918608	-0.4278119888	-0.523572
H	-0.9552031559	 1.8621004318	-0.8338169795	 0.109122
H	-0.7548151935	 1.7944581181	 0.9222605467	 0.114235
H	 0.6265854188	 2.1763100095	-0.104919522	 0.124351
H	-0.8799782634	-0.503738183	 0.0371940895	 0.068458
H	 0.315171934	-0.7780896529	-2.2907622975	 0.077049
H	 2.856766756	-0.7036652882	-2.0832207034	 0.086022
H	 3.9560225607	 0.4623785102	-0.1314134546	 0.100206
H	 2.7061133402	 1.6481285979	-0.558691834	 0.097829
H	 0.873766132	-0.9966827652	 1.721452342	 0.074453
H	 0.9384471821	-3.4968185855	-0.0610842965	 0.119211
H	 2.0271933722	-3.3039791238	-1.439604744	 0.119463
H	 2.6635043824	-3.2128971429	 0.2078404629	 0.125216
144.1907	165.7075	192.1828	216.2291	243.6554	247.5198	321.3983	488.8668	536.3518	613.9068	635.1476	703.7644	777.1891	807.6426	848.7254	866.2126	905.4347	932.5698	952.7332	990.2861	1006.5887	1031.9845	1058.5128	1076.1912	1081.0604	1114.0518	1122.0781	1154.0743	1184.6038	1212.2537	1222.117	1231.7576	1292.4734	1307.87	1335.1691	1375.1995	1384.292	1410.398	1415.2362	1468.4283	1486.9128	1490.4726	1493.5786	1498.7621	1527.1164	3006.2098	3020.3463	3021.3122	3034.7093	3035.2437	3078.9194	3091.4046	3091.6109	3114.1507	3130.934	3158.5371	3177.8942
CC1C2C3COC1C23C	C[C@H]1[C@H]2[C@H]3CO[C@@H]1[C@@]23C	
InChI=1S/C8H12O/c1-4-6-5-3-9-7(4)8(5,6)2/h4-7H,3H2,1-2H3	InChI=1S/C8H12O/c1-4-6-5-3-9-7(4)8(5,6)2/h4-7H,3H2,1-2H3/t4-,5+,6-,7-,8+/m0/s1
