19
gdb 17381	3.96523	1.47817	1.23839	1.7079	70.42	-0.2291	0.0637	0.2928	1023.4186	0.165312	-365.010549	-365.002407	-365.001463	-365.043072	30.808	
C	 0.0463339334	 1.5273093727	-0.0503358858	-0.405613
C	 0.056946524	 0.0046702236	 0.0908028559	 0.11676
O	 0.6995091412	-0.4062421419	 1.2964642731	-0.431264
C	-1.3437242264	-0.5963131716	 0.0002758061	 0.002884
C	-2.1397088787	-0.5942222016	-1.3364284971	-0.196896
N	-2.3896859538	-2.0795291234	-1.2632206568	-0.130123
C	-1.0528606984	-2.6957650673	-1.3148243435	-0.23563
C	-1.4922613347	-2.1167690049	-0.0312415256	-0.037553
H	 1.0617142142	 1.9235339798	 0.0341550832	 0.126156
H	-0.3682430926	 1.835881949	-1.0157585407	 0.120607
H	-0.5670064974	 1.9855493223	 0.7361584484	 0.10577
H	 0.6819701129	-0.4213295528	-0.7030747797	 0.085949
H	 0.2184602874	-0.0119025917	 2.0328874605	 0.2751
H	-1.9597229025	-0.1691938116	 0.8012122735	 0.068552
H	-3.0824467684	-0.0459297144	-1.2972630929	 0.111652
H	-1.5902838249	-0.2912511806	-2.2357443986	 0.100073
H	-1.0887378333	-3.7768138794	-1.4083425131	 0.121247
H	-0.2728901544	-2.2190582106	-1.9053026543	 0.109223
H	-1.7331787076	-2.7389542056	 0.8243218973	 0.093104
74.3221	143.9967	170.064	235.4012	275.3225	329.5874	380.93	423.7551	473.0904	544.7269	723.5979	753.641	784.3897	834.7984	902.5152	950.3114	970.1057	993.3694	1009.8389	1046.4909	1063.1472	1080.6885	1106.2787	1111.9099	1123.6443	1183.2588	1204.028	1219.9728	1261.7975	1270.6133	1296.2454	1329.7184	1375.5206	1400.8691	1402.8147	1419.0216	1490.1021	1492.0254	1494.0883	1510.3437	3022.2218	3025.5759	3033.7183	3047.4679	3091.8035	3102.5312	3111.8428	3118.1983	3164.1312	3195.5134	3794.0154
CC(O)C1CN2CC12	C[C@@H](O)[C@H]1CN2C[C@@H]12	
InChI=1S/C6H11NO/c1-4(8)5-2-7-3-6(5)7/h4-6,8H,2-3H2,1H3	InChI=1S/C6H11NO/c1-4(8)5-2-7-3-6(5)7/h4-6,8H,2-3H2,1H3/t4-,5-,6+,7?/m1/s1
