13
gdb 125395	3.38351	1.81302	1.1892	6.5281	64.61	-0.2629	-0.0321	0.2308	946.6408	0.091013	-448.904002	-448.897386	-448.896442	-448.935128	24.636	
C	-0.0179849823	 1.5175291755	 0.0845199913	-0.489372
C	-0.0103804492	 0.0357296977	-0.0093323656	 0.272681
C	-0.0371028799	-0.8138360623	-1.0617142829	-0.130786
O	-0.014842349	-2.1468002752	-0.6605223109	-0.209197
C	 0.0265212336	-2.0962696259	 0.6771820373	 0.547238
N	 0.0641991588	-2.9273691663	 1.6890375334	-0.346114
N	 0.0915820004	-2.0919622269	 2.7718979461	-0.095408
N	 0.0729154536	-0.8268223726	 2.4538637379	-0.16642
N	 0.0304245068	-0.8205536066	 1.0980872214	-0.034182
H	 0.8799126688	 1.8809801985	 0.5946674505	 0.164154
H	-0.0548452365	 1.9578331756	-0.9136594563	 0.148667
H	-0.8846981058	 1.8680200099	 0.6541632349	 0.164192
H	-0.0715670392	-0.6455963316	-2.1239454471	 0.174547
153.3375	180.7384	232.8855	252.3826	393.9097	526.8481	597.2267	621.4507	694.6202	711.0989	751.3252	778.4686	806.8822	990.6158	1013.6773	1069.3085	1082.1471	1104.3475	1146.6553	1184.7699	1249.5543	1299.1774	1387.949	1425.3189	1468.9587	1471.4314	1490.1975	1601.6445	1672.9842	3044.8632	3102.8032	3140.4369	3301.9431
CC1=COC2=NN=NN12	Cc1coc2nnnn12	
InChI=1S/C4H4N4O/c1-3-2-9-4-5-6-7-8(3)4/h2H,1H3	InChI=1S/C4H4N4O/c1-3-2-9-4-5-6-7-8(3)4/h2H,1H3
