18
gdb 59250	2.94234	1.32589	1.19059	2.7994	70.68	-0.2455	0.0117	0.2571	1103.3547	0.147716	-439.071762	-439.063426	-439.062482	-439.105317	31.316	
C	 0.0907554408	 1.3157389281	-0.3551364693	-0.401143
C	 0.0917582072	-0.1124333048	 0.1945920636	 0.115962
O	 0.6077030241	-0.1651611739	 1.5210901066	-0.42716
C	-1.2903878767	-0.7361870529	 0.1270606444	-0.088443
C	-1.9417027741	-1.2369091502	-1.1309904884	 0.036412
O	-1.0780707806	-1.5607434914	-2.2166472569	-0.210171
C	-0.3116149003	-2.591754472	-1.7649446388	 0.090833
N	-0.5152058772	-3.0429501141	-0.5943488565	-0.242161
C	-1.5649019569	-2.2249303156	-0.0318261976	-0.059229
H	 1.0879689634	 1.7543378821	-0.2629233535	 0.125132
H	-0.2043518376	 1.3274974224	-1.408683768	 0.127737
H	-0.6144487369	 1.9482169746	 0.199188813	 0.102226
H	 0.7929192138	-0.7166587642	-0.3875134221	 0.103587
H	 0.0631706045	 0.4079654209	 2.0721043861	 0.273698
H	-2.0092478216	-0.252263441	 0.787939573	 0.087829
H	-2.9290070028	-0.9377239939	-1.458752595	 0.113045
H	 0.4277373166	-2.9497075565	-2.4708202872	 0.146954
H	-2.2591437155	-2.7218385177	 0.6344489365	 0.104892
38.7184	133.7615	163.6995	241.9044	269.3748	310.954	360.1518	419.7382	491.9311	600.5385	666.8829	744.5797	763.0366	807.1022	864.6504	889.1123	931.9387	939.3454	972.9496	1012.5416	1039.1769	1074.2955	1080.7994	1097.4821	1112.8567	1124.7107	1140.2377	1204.001	1281.8499	1288.8826	1321.1448	1334.0112	1364.9767	1399.5019	1414.7008	1436.8742	1492.5324	1494.8295	1668.2337	3024.0637	3075.9288	3099.1987	3113.9035	3122.2532	3185.1022	3195.48	3232.1652	3797.5084
CC(O)C1C2OC=NC12	C[C@@H](O)[C@H]1[C@H]2OC=N[C@@H]12	
InChI=1S/C6H9NO2/c1-3(8)4-5-6(4)9-2-7-5/h2-6,8H,1H3	InChI=1S/C6H9NO2/c1-3(8)4-5-6(4)9-2-7-5/h2-6,8H,1H3/t3-,4-,5+,6-/m1/s1
