19
gdb 7177	3.03278	1.05855	0.82688	2.6308	70.71	-0.2577	0.0223	0.28	1378.4362	0.163267	-402.195342	-402.185511	-402.184567	-402.230854	33.932	
C	-0.0114373858	 1.5281862728	-0.0881309243	-0.393423
C	 0.0032723862	 0.003620915	-0.0128445083	 0.10855
C	-1.3957747699	-0.6047089164	 0.0214168919	-0.204231
C	-1.4014736431	-2.125514127	 0.1998655811	-0.074215
O	-2.7162659937	-2.6519157174	 0.2878311215	-0.417423
O	 0.6636389958	-0.5384491107	-1.1735561057	-0.192874
C	 2.0057698415	-0.6217588156	-1.1396869688	 0.12865
N	 2.6476523686	-0.9655756089	-2.1712443971	-0.444349
H	 1.0061067841	 1.9288239758	-0.1260273869	 0.121151
H	-0.5416542754	 1.858912949	-0.9861535494	 0.134986
H	-0.5117321117	 1.9503989642	 0.7887156792	 0.122705
H	 0.5592402575	-0.3154441459	 0.8821820495	 0.08295
H	-1.9618790211	-0.149461849	 0.8413275807	 0.10927
H	-1.9113070728	-0.3415173554	-0.9116975461	 0.103231
H	-0.8275987848	-2.5989111304	-0.6079252252	 0.114615
H	-0.9134860388	-2.3904456094	 1.1453941776	 0.106102
H	-3.1244836761	-2.5680796253	-0.5796181045	 0.283282
H	 2.4354966619	-0.3836209569	-0.1556854467	 0.083201
H	 3.6430309076	-1.0042895184	-1.9619964786	 0.227823
57.178	81.4823	102.3378	125.9218	172.0378	220.8663	248.306	287.0416	342.2955	360.1397	469.4355	538.9038	594.3137	784.8165	818.9348	877.7385	940.2211	973.0814	1007.8144	1045.6934	1075.1143	1100.9235	1109.5907	1124.1884	1150.9638	1211.8968	1290.3068	1300.9708	1320.3806	1370.2897	1378.2086	1407.5151	1410.9522	1421.4109	1429.9315	1474.5763	1488.4932	1495.6332	1515.2634	1744.0288	2986.2771	3011.6994	3015.3916	3027.7025	3040.6118	3059.1364	3086.8702	3113.0378	3120.4133	3516.9949	3818.5546
CC(CCO)OC=N	C[C@@H](CCO)O[CH][NH]	
InChI=1S/C5H11NO2/c1-5(2-3-7)8-4-6/h4-7H,2-3H2,1H3	InChI=1S/C5H11NO2/c1-5(2-3-7)8-4-6/h4-7H,2-3H2,1H3/t5-/m0/s1
