21
gdb 108639	2.60031	1.37627	0.98154	1.4222	85.91	-0.2076	0.0332	0.2407	1252.9283	0.182438	-387.089577	-387.080387	-387.079443	-387.123678	34.737	
C	 0.2281221353	 1.5452566791	-0.1281236595	-0.499912
C	 0.0543658464	 0.0602546192	-0.0219333423	 0.191162
C	-1.0649378886	-0.6777413234	 0.0671649507	 0.214916
C	-2.5113895332	-0.2891346998	 0.1212397301	-0.184191
O	-2.7000571494	 1.1019021954	 0.3184383801	-0.409753
C	-0.7582699784	-2.1453338349	 0.0513302013	-0.115692
C	-0.112240343	-2.6618318653	-1.2204532688	-0.2799
C	 0.7495883213	-2.2508077557	-0.0549497655	-0.042221
C	 1.292006684	-0.8277567929	-0.0265785464	-0.30106
H	 0.8608453616	 1.9172175123	 0.6893472785	 0.112861
H	 0.7498617476	 1.8058675819	-1.0589448644	 0.1115
H	-0.723288476	 2.0712363227	-0.1012303799	 0.153589
H	-3.000404549	-0.626354706	-0.8107518535	 0.098881
H	-2.9884563494	-0.864792539	 0.9350160669	 0.091956
H	-3.6438447162	 1.279582106	 0.2791091221	 0.288009
H	-1.3508384032	-2.8269921399	 0.6542639972	 0.075854
H	-0.1825995313	-3.7251320333	-1.4271253786	 0.103851
H	-0.1482381554	-2.024912126	-2.09929846	 0.106852
H	 1.2875885514	-3.0292000023	 0.4730224007	 0.081418
H	 1.9443424634	-0.6065305463	-0.8826892295	 0.101634
H	 1.9003417421	-0.6469414017	 0.8714830308	 0.100244
47.3246	152.2254	157.5353	186.1825	234.3455	242.4825	333.2311	337.0019	391.5482	409.8695	559.0863	629.1647	651.9467	739.141	805.1874	818.634	887.6805	932.2872	962.0658	977.602	997.0813	1042.288	1062.0001	1065.3465	1072.1156	1097.5801	1101.1529	1133.7718	1168.7124	1190.928	1205.4473	1228.7129	1247.1868	1272.0499	1328.283	1352.567	1381.0156	1409.2951	1468.0618	1473.3286	1483.4062	1489.9229	1494.0925	1508.2386	1730.1256	2933.3942	2943.7666	2999.5784	3010.8446	3027.0993	3046.6883	3116.9613	3148.086	3176.4659	3178.1845	3206.3001	3836.3402
CC1=C(CO)C2CC2C1	CC1=C(CO)[C@H]2C[C@H]2C1	
InChI=1S/C8H12O/c1-5-2-6-3-7(6)8(5)4-9/h6-7,9H,2-4H2,1H3	InChI=1S/C8H12O/c1-5-2-6-3-7(6)8(5)4-9/h6-7,9H,2-4H2,1H3/t6-,7+/m1/s1
