21
gdb 61653	3.59416	0.81439	0.76262	1.8718	85.24	-0.2459	0.0567	0.3026	1579.1664	0.180774	-387.041613	-387.031662	-387.030718	-387.077498	36.08	
C	-0.1322735923	 1.553746583	 0.1786964537	-0.394886
C	 0.0492857482	 0.0374129214	-0.0383494154	-0.151503
C	 0.835476616	-0.3030373686	-1.3293729306	-0.204506
C	 0.1092347979	 0.1008249468	-2.6013519391	 0.148152
C	 0.5728489849	-0.5414352206	-3.9291381698	-0.303558
C	-0.8700624624	-1.0788014386	-4.0068530798	-0.057003
O	-1.1939096978	-0.5285499046	-2.7126981313	-0.294048
C	 0.700405666	-0.5727910385	 1.1195887266	 0.315312
C	 1.2576893542	-1.0622979972	 2.0661185438	-0.464262
H	 0.8385046111	 2.0561171119	 0.2384976113	 0.120948
H	-0.706472865	 2.0005869797	-0.6373223382	 0.123485
H	-0.6677565284	 1.7440472592	 1.112143212	 0.127423
H	-0.9450996662	-0.4139235217	-0.1496623179	 0.128585
H	 1.8180257651	 0.1860298249	-1.3043993927	 0.103291
H	 1.0130593349	-1.383747778	-1.3529726008	 0.106429
H	 0.0084105707	 1.1929531401	-2.6623585037	 0.075568
H	 0.8731264401	 0.1490001626	-4.7182795988	 0.110815
H	 1.3412166817	-1.3080650371	-3.8091673654	 0.111485
H	-1.4876686218	-0.6403193259	-4.8010189678	 0.101644
H	-0.9874183108	-2.1683719992	-4.0303037381	 0.106208
H	 1.736063404	-1.5011854298	 2.9061480921	 0.190421
43.5884	70.4705	97.9641	124.2331	186.0514	221.0305	261.2698	320.1618	383.2997	461.7703	523.9326	545.8585	620.6667	632.8748	746.5138	796.5394	825.472	866.6875	892.6365	933.8529	959.2971	981.6376	1024.6477	1042.9062	1085.8069	1111.1093	1124.488	1161.1252	1177.9343	1216.0675	1234.8717	1259.6189	1292.5181	1301.4816	1338.2958	1356.1424	1370.7174	1406.5468	1410.0783	1472.1989	1491.2138	1494.1438	1501.445	1533.3758	2233.4527	3005.7033	3016.5398	3024.0792	3032.9967	3043.7744	3056.9862	3077.1908	3078.6675	3115.8358	3123.7226	3134.0028	3505.2219
CC(CC1CCO1)C#C	C[C@@H](C[C@H]1CCO1)C#C	
InChI=1S/C8H12O/c1-3-7(2)6-8-4-5-9-8/h1,7-8H,4-6H2,2H3	InChI=1S/C8H12O/c1-3-7(2)6-8-4-5-9-8/h1,7-8H,4-6H2,2H3/t7-,8-/m1/s1
