23
gdb 106699	2.37299	1.45488	1.16963	0.0794	89.79	-0.2434	0.0908	0.3342	1211.859	0.205514	-351.124857	-351.115682	-351.114737	-351.158449	35.943	
C	 0.0774645373	 1.4919015648	-0.2625758463	-0.371546
C	-0.008541093	 0.0152084057	 0.1490799587	-0.286735
C	-1.4205634975	-0.5103873491	 0.1594050387	 0.329793
C	-2.1229952883	-1.0070042609	-1.0857779125	-0.388151
C	-1.931969154	-1.9668766642	 0.0659642864	 0.280368
C	-1.1527227662	-3.2481961244	-0.0532473918	-0.491488
C	-2.9559546593	-1.6692526907	 1.1401353061	-0.107844
C	-2.2920289645	-1.1680033288	 2.3968619482	-0.297195
C	-2.4510768562	-0.2242897782	 1.2323604444	-0.112222
H	 1.1123773553	 1.8481190947	-0.2479962591	 0.107776
H	-0.3182949626	 1.6418941141	-1.2725085947	 0.116645
H	-0.5025825077	 2.1241668043	 0.4180148522	 0.117483
H	 0.6011765841	-0.5888606459	-0.5348636587	 0.092396
H	 0.4342732452	-0.109493386	 1.1461678666	 0.094314
H	-3.1153213877	-0.6445204255	-1.3433377496	 0.097873
H	-1.4794434909	-1.1793119194	-1.9453266611	 0.100986
H	-0.2943211156	-3.134365208	-0.7236287577	 0.114725
H	-0.775670358	-3.5780315169	 0.9213454769	 0.115536
H	-1.7762638931	-4.0554696478	-0.4566690755	 0.117906
H	-3.9887663775	-2.0019332241	 1.1348839146	 0.07966
H	-2.9556612557	-0.9900467115	 3.238353787	 0.105393
H	-1.3061714261	-1.5299568281	 2.6782078855	 0.104304
H	-3.0563476981	 0.6730856759	 1.3049558915	 0.080022
72.5003	134.3445	189.3175	203.5583	224.1766	250.3928	273.738	390.9898	415.515	518.8605	543.6824	577.3278	703.6654	747.8173	784.2077	802.4377	830.4038	853.2732	930.7789	944.8233	975.0499	986.8274	993.3866	1010.3201	1038.3588	1055.0023	1076.4598	1080.7495	1090.1634	1094.2793	1118.559	1176.3827	1184.487	1245.4537	1257.7607	1307.7112	1334.6541	1345.4605	1364.3194	1394.6758	1408.5289	1422.6657	1478.1951	1485.8757	1488.2336	1497.5742	1497.8014	1501.6333	1507.7083	3012.8737	3020.2857	3032.344	3046.4825	3077.2597	3093.5757	3100.7986	3101.9898	3103.6113	3108.8654	3157.4043	3166.7928	3182.8093	3195.0745
CCC12CC1(C)C1CC21	CC[C@@]12C[C@]1(C)[C@H]1C[C@@H]21	
InChI=1S/C9H14/c1-3-9-5-8(9,2)6-4-7(6)9/h6-7H,3-5H2,1-2H3	InChI=1S/C9H14/c1-3-9-5-8(9,2)6-4-7(6)9/h6-7H,3-5H2,1-2H3/t6-,7+,8+,9-/m0/s1
