21
gdb 111424	1.88515	1.51567	0.97075	2.1822	78.07	-0.2504	0.072	0.3224	1267.5928	0.182351	-424.177514	-424.16811	-424.167166	-424.211793	35.253	
O	 0.1726527308	 0.5168733977	-1.5022122138	-0.427063
C	-0.0501389649	 0.3515533898	-0.1057218848	-0.106385
C	-1.3758471073	-0.3717535988	 0.0488373495	 0.017693
C	-1.4685509576	-1.8480721513	-0.366796218	-0.041033
C	-0.6538099804	-2.7267050541	 0.537183139	-0.285923
C	-1.9883668867	-2.2282582506	 1.0231068577	-0.080208
C	-1.9124797267	-0.7637892923	 1.4782846194	-0.013049
C	-1.1079178266	-0.4436600244	 2.7265220289	-0.100187
O	-1.1104620621	 0.9705810641	 2.8960617812	-0.421159
H	 1.0121960287	 0.9706382982	-1.6187612985	 0.283403
H	 0.7677547113	-0.2260885441	 0.3532041307	 0.072768
H	-0.1024004245	 1.3170526488	 0.4174689801	 0.101258
H	-2.1316322989	 0.2198156905	-0.4750126069	 0.083345
H	-1.8123844728	-2.1959510165	-1.3325919411	 0.086397
H	-0.6356992186	-3.7757049124	 0.2587219393	 0.109634
H	 0.2776704181	-2.3799075022	 0.9759816	 0.101756
H	-2.7857644159	-2.9135723973	 1.2854243167	 0.081635
H	-2.9121908792	-0.3419098806	 1.6155725523	 0.082434
H	-1.5729969031	-0.9486048212	 3.5893076755	 0.086031
H	-0.0805160421	-0.8270891405	 2.6433555743	 0.0827
H	-0.5778486714	 1.182601957	 3.6681588885	 0.285953
88.7114	104.1716	135.1048	181.4496	233.2669	247.5687	271.6608	299.3655	356.0333	467.2235	512.4937	555.0972	678.4696	770.1837	796.437	843.1434	900.4161	933.278	989.1816	992.7135	1016.5969	1041.1093	1057.0125	1066.9748	1073.5532	1082.9594	1092.3231	1119.7092	1143.9372	1173.9154	1203.4158	1233.3657	1255.0678	1263.3295	1268.041	1278.3307	1313.5481	1352.3286	1371.8147	1379.1474	1455.8688	1462.7889	1493.1398	1522.8675	1526.7925	2965.4353	2975.071	3004.2115	3018.2023	3060.3446	3077.0478	3117.2431	3173.6194	3188.6515	3201.5131	3827.5947	3830.1883
OCC1C2CC2C1CO	OC[C@H]1[C@H]2C[C@H]2[C@H]1CO	
InChI=1S/C7H12O2/c8-2-6-4-1-5(4)7(6)3-9/h4-9H,1-3H2	InChI=1S/C7H12O2/c8-2-6-4-1-5(4)7(6)3-9/h4-9H,1-3H2/t4-,5+,6-,7+
