16
gdb 21151	3.23822	1.90729	1.22315	4.0673	69.13	-0.1992	0.0187	0.2179	975.5912	0.13046	-379.918418	-379.910101	-379.909157	-379.951803	28.978	
C	-0.0969198792	 1.463204513	-0.0598293744	-0.329625
N	-0.0295537579	 0.0314037826	 0.2004695691	-0.389105
C	-1.1485605625	-0.7475823282	 0.0970488617	 0.456587
C	-1.3113126803	-2.1108787328	 0.0084544143	 0.036727
C	-0.2572635323	-3.1719108311	-0.0442842057	-0.524864
C	-2.7220560504	-2.2362770286	-0.0018874226	-0.019374
N	-3.3634102231	-1.09503467	 0.0669583486	-0.178971
O	-2.3331511738	-0.1245993599	 0.1272350921	-0.22339
H	 0.874536754	 1.9044887497	 0.1718839348	 0.129036
H	-0.3590208256	 1.7028216402	-1.099693328	 0.128529
H	-0.8465750587	 1.9163680327	 0.5917266704	 0.160056
H	 0.8131196668	-0.4285692703	-0.1079651149	 0.251203
H	 0.2823265056	-3.2770634865	 0.9054447511	 0.130643
H	-0.7013677628	-4.1444190119	-0.2732777071	 0.133824
H	 0.4919199285	-2.973225825	-0.8218760868	 0.117734
H	-3.3012647084	-3.1492253138	-0.0599499127	 0.120991
53.9098	97.692	145.8656	181.3204	240.731	276.5015	312.6633	444.6981	551.3196	624.9537	631.1918	723.9809	750.8337	898.1453	916.34	941.0082	1000.3567	1064.6178	1068.9645	1133.675	1153.8852	1208.5414	1227.4337	1343.6945	1406.4439	1432.2866	1447.0236	1472.141	1487.2212	1487.947	1504.4875	1517.2252	1570.4085	1680.4464	3008.7887	3011.6023	3053.6226	3100.6022	3107.6294	3141.7873	3223.8941	3619.5647
CNC1=C(C)C=NO1	CNc1c(C)cno1	
InChI=1S/C5H8N2O/c1-4-3-7-8-5(4)6-2/h3,6H,1-2H3	InChI=1S/C5H8N2O/c1-4-3-7-8-5(4)6-2/h3,6H,1-2H3
