14
gdb 11172	5.62759	1.29566	1.10092	2.9458	62.44	-0.2607	0.0109	0.2717	1000.0904	0.109444	-378.78298	-378.775917	-378.774973	-378.814608	25.676	
O	 0.0234683275	-0.0265461643	 0.1097661007	-0.36271
C	-0.0223426566	 1.1802044344	 0.1234822249	 0.403767
C	-1.2807009832	 2.058113631	 0.1111370381	-0.341955
C	-0.7557490308	 3.4643672873	 0.4800786885	-0.153763
C	 0.7264227728	 3.4385215748	 0.0029704238	-0.174086
N	 1.0528441318	 2.0338503127	 0.138213404	-0.307433
C	-1.5200060141	 4.5690881258	-0.0860978871	 0.27184
N	-2.1237982765	 5.4428190525	-0.5415590465	-0.31421
H	-1.7046516625	 2.0390812985	-0.8980145565	 0.154575
H	-2.0350774497	 1.6769899715	 0.7993646735	 0.151367
H	-0.7622376725	 3.569273113	 1.5700236595	 0.143217
H	 0.8074859448	 3.7924139621	-1.0334762749	 0.132714
H	 1.361882153	 4.0692955718	 0.6300837351	 0.135437
H	 1.9835391859	 1.6720949889	 0.0005637469	 0.261239
89.7196	153.5277	168.5596	270.7552	441.9462	475.1587	491.1692	558.4413	564.5048	625.4473	691.3087	841.9107	877.4749	930.6205	1032.5977	1058.9806	1060.7987	1089.4904	1171.0914	1230.7984	1253.6552	1266.96	1311.8988	1334.3612	1366.3959	1446.6932	1471.6339	1535.8161	1845.2595	2362.619	3016.9655	3058.1506	3072.439	3090.3217	3141.6632	3641.4296
O=C1CC(CN1)C#N	O=C1C[C@@H](CN1)C#N	
InChI=1S/C5H6N2O/c6-2-4-1-5(8)7-3-4/h4H,1,3H2,(H,7,8)	InChI=1S/C5H6N2O/c6-2-4-1-5(8)7-3-4/h4H,1,3H2,(H,7,8)/t4-/m1/s1
