25
gdb 63373	2.66679	1.19841	1.12186	0.0764	94.54	-0.2366	0.0291	0.2656	1307.7006	0.227371	-352.386081	-352.375844	-352.374899	-352.420482	40.32	
C	 0.4102978443	 1.4305942386	-0.0881094309	-0.423332
C	-0.1134135227	-0.0161996035	 0.0261335642	 0.277859
C	-1.6481849644	 0.0116497147	 0.144714798	-0.425009
C	 0.3595248595	-0.9065170786	-1.1693521974	-0.309938
C	 1.4629799152	-1.8810094277	-0.6418354842	 0.277859
C	 1.1829573681	-3.3374775907	-1.0549320345	-0.425009
C	 2.8702931088	-1.4794806971	-1.1304889447	-0.423332
C	 1.3503636423	-1.6975346597	 0.8592903991	-0.106751
C	 0.5229089199	-0.7186888761	 1.2099096603	-0.10675
H	 1.4983966195	 1.4521242302	-0.2015459467	 0.115387
H	-0.0324396697	 1.9375825048	-0.9532668531	 0.108732
H	 0.1568286618	 2.0136050501	 0.8046577963	 0.107507
H	-2.101000629	 0.4632602801	-0.7454844336	 0.109428
H	-2.0531930486	-0.9992632011	 0.255287685	 0.111214
H	-1.9678044302	 0.5990281181	 1.0131817249	 0.106787
H	-0.4873402372	-1.4856303489	-1.55119164	 0.089442
H	 0.7244179723	-0.2992332549	-2.0036030012	 0.088844
H	 1.203084638	-3.4453394772	-2.145532565	 0.109428
H	 1.9354533916	-4.0183682887	-0.6407551263	 0.106787
H	 0.2009626349	-3.6658385001	-0.6998709961	 0.111214
H	 3.0970336784	-0.4389988144	-0.8789407049	 0.115387
H	 3.6416172989	-2.1087589786	-0.6719592092	 0.107507
H	 2.9517156285	-1.5925529305	-2.2177497332	 0.108732
H	 1.9248792268	-2.3100440574	 1.5485923553	 0.084002
H	 0.3164766831	-0.4073685013	 2.2301243578	 0.084002
46.9749	150.0876	233.3963	235.1994	250.7987	265.9616	285.215	296.8766	320.6444	344.3118	358.2995	414.2159	430.2665	550.6781	569.6974	667.2005	792.3162	801.7844	817.8469	878.4604	898.6189	919.5884	938.0147	949.0457	973.3112	978.6113	983.7286	1019.4225	1035.2642	1088.5662	1112.3082	1188.8626	1214.7533	1232.8435	1245.8805	1273.5059	1278.6041	1312.5611	1378.6464	1392.5836	1396.0195	1416.017	1423.2352	1481.5268	1483.5746	1485.9116	1486.8844	1494.631	1500.4729	1502.1342	1505.8007	1510.5755	1694.4743	3018.8483	3019.2915	3023.407	3023.8661	3042.7035	3078.5083	3083.8351	3086.515	3088.8762	3090.1238	3097.3949	3099.4763	3101.0944	3104.6354	3156.5607	3183.1854
CC1(C)CC(C)(C)C=C1	CC1(C)CC(C)(C)C=C1	
InChI=1S/C9H16/c1-8(2)5-6-9(3,4)7-8/h5-6H,7H2,1-4H3	InChI=1S/C9H16/c1-8(2)5-6-9(3,4)7-8/h5-6H,7H2,1-4H3
