20
gdb 55392	3.08755	1.26336	0.966	3.4072	82.17	-0.2321	0.017	0.2492	1247.8104	0.172247	-403.19645	-403.18774	-403.186796	-403.230183	32.783	
C	 0.0147816995	 1.5243109116	-0.1154067882	-0.504041
C	 0.0567032761	 0.0022486463	-0.0780066252	 0.40493
O	 1.1159957385	-0.5961284445	-0.1761395831	-0.375973
N	-1.14025164	-0.6541221656	 0.0792915124	-0.09724
C	-1.1617823534	-2.1145111554	 0.0659819516	-0.178963
C	-1.8534770832	-2.6567946094	 1.3200817939	-0.250448
C	-3.1471817233	-1.9278478993	 1.5656531407	-0.054484
C	-3.4130700604	-0.7498271729	 1.0070532931	-0.054538
C	-2.4407384324	-0.0029800755	 0.1313602901	-0.212745
H	 1.029842614	 1.8707738224	-0.3058325585	 0.146749
H	-0.6482173475	 1.9003593397	-0.9008064826	 0.134419
H	-0.3276051182	 1.9415284143	 0.8373974739	 0.140098
H	-1.7055787433	-2.4596023229	-0.8253355225	 0.101881
H	-0.1284074762	-2.4484755465	-0.0116402721	 0.149064
H	-2.0402162115	-3.7308294473	 1.1983018772	 0.106638
H	-1.1896143707	-2.5599556674	 2.1901426244	 0.12168
H	-3.8813980308	-2.398027268	 2.2144669521	 0.09172
H	-4.3670169627	-0.2558411228	 1.1697801866	 0.093134
H	-2.3258703996	 1.012014195	 0.521399039	 0.126489
H	-2.8705255351	 0.1078003882	-0.8807949427	 0.111628
57.1378	104.8343	159.8961	195.6914	258.5159	312.3121	378.3103	397.816	479.559	513.9705	592.5079	601.8893	672.4664	704.8106	789.521	882.2788	935.3295	967.0315	988.7388	998.9648	1005.8314	1031.183	1049.1635	1060.2971	1102.9409	1164.9429	1219.1188	1248.9609	1261.7722	1305.2613	1359.4408	1365.3803	1384.3298	1396.393	1415.8342	1450.5762	1473.611	1474.7453	1480.7303	1495.0642	1500.7931	1731.9063	1757.1439	2936.8721	2999.4674	3017.3339	3042.5713	3053.6998	3082.5716	3105.3768	3150.4949	3153.8268	3161.3133	3176.953
CC(=O)N1CCC=CC1	CC(=O)N1CCC=CC1	
InChI=1S/C7H11NO/c1-7(9)8-5-3-2-4-6-8/h2-3H,4-6H2,1H3	InChI=1S/C7H11NO/c1-7(9)8-5-3-2-4-6-8/h2-3H,4-6H2,1H3
