18
gdb 46269	3.00469	1.51705	1.24292	3.5602	76.18	-0.2332	0.0326	0.2657	1042.6687	0.148835	-401.937819	-401.930042	-401.929098	-401.970264	29.948	
O	-0.0058582292	-0.0065781575	-0.104448673	-0.373342
C	-0.0077194185	 1.1962477772	-0.0583244079	 0.396953
N	-1.0120650603	 2.1329919067	-0.0101783291	-0.339402
C	-0.1279940812	 3.3020528114	 0.0335393163	-0.242384
C	 1.0684568156	 2.3083930467	-0.022063134	 0.194303
C	 2.1893408387	 2.3392013799	 1.0638375249	-0.312307
C	 3.2437820404	 2.4139657246	-0.0487662588	-0.039786
C	 3.0897011803	 1.2479140972	-0.9830455638	-0.279979
C	 2.1419271096	 2.4116222621	-1.1092320237	-0.119263
H	-2.017219513	 2.043897752	-0.0084906464	 0.248883
H	-0.2198915228	 3.966817619	-0.8324376354	 0.112194
H	-0.2024270002	 3.8881632114	 0.9559222348	 0.110425
H	 2.1319424252	 3.2502737877	 1.6649596741	 0.10636
H	 2.2444347121	 1.4734718352	 1.7313742029	 0.113263
H	 4.1504343542	 3.0047739411	-0.011548348	 0.087061
H	 3.8357083246	 1.1815070157	-1.7684704523	 0.110683
H	 2.7216999594	 0.2912188219	-0.624377843	 0.14
H	 2.0491978349	 2.9913840779	-2.0199654673	 0.086338
90.8509	118.8238	166.4857	245.8068	314.4771	410.6003	438.2347	458.2066	618.4887	716.4479	742.7778	780.3884	790.3427	828.5884	880.7285	916.2841	942.5893	969.8125	981.0222	992.7715	1031.7368	1057.5789	1086.5023	1117.0637	1140.0794	1157.2017	1164.3955	1177.0579	1195.6561	1237.1135	1254.5981	1298.2719	1309.5615	1360.7366	1390.6719	1476.7586	1495.0817	1525.2436	1881.7145	3029.2495	3048.3249	3075.3013	3103.4405	3124.0467	3176.5991	3189.403	3212.9058	3610.7782
O=C1NCC11CC2CC12	O=C1NC[C@]21C[C@H]1C[C@@H]21	
InChI=1S/C7H9NO/c9-6-7(3-8-6)2-4-1-5(4)7/h4-5H,1-3H2,(H,8,9)	InChI=1S/C7H9NO/c9-6-7(3-8-6)2-4-1-5(4)7/h4-5H,1-3H2,(H,8,9)/t4-,5-,7-/m1/s1
