16
gdb 65762	2.74292	1.35019	1.17222	3.7041	66.08	-0.2645	-0.0444	0.22	1081.929	0.122423	-475.02267	-475.014049	-475.013105	-475.056449	31.113	
O	-0.0939582485	 1.4695531236	 0.1466156792	-0.472807
C	-0.0243033387	 0.0782890885	 0.0259441506	 0.272984
C	 0.8630607003	-0.561483381	 1.0998298769	-0.368142
C	 2.2693037112	 0.0041065501	 1.138131113	 0.177751
O	 2.5812185401	 1.0948508886	 0.7229148152	-0.246734
C	-1.4233854461	-0.5449950397	-0.1731265475	-0.120734
O	-1.0354348719	-1.0323220672	-1.49566844	-0.254406
C	 0.2188416346	-0.4715682553	-1.3893829605	 0.386331
N	 1.1872888186	-0.4532112285	-2.1823050161	-0.543239
H	 0.8245564575	 1.7849243381	 0.1549013922	 0.303284
H	 0.4260956586	-0.378659027	 2.0933569487	 0.146145
H	 0.920197806	-1.6491349075	 0.9784529579	 0.131716
H	 3.0278021773	-0.6500107393	 1.6170347289	 0.104362
H	-1.7017727776	-1.3719762034	 0.4845708959	 0.115703
H	-2.220533227	 0.1973703258	-0.2390165048	 0.136752
H	 0.9701916057	-0.9260717756	-3.0616614196	 0.231034
84.2257	96.6892	104.6833	191.5612	249.7439	285.363	319.8426	393.5366	522.235	591.1144	599.7153	685.4301	717.5224	766.22	854.3368	867.1285	892.4001	944.5532	966.8473	981.1159	1009.9393	1078.3852	1151.3794	1155.7109	1210.193	1235.4215	1270.6784	1338.4227	1363.0057	1419.5796	1434.5799	1455.7179	1504.7907	1810.3497	1828.8041	2915.0864	3011.465	3066.7099	3073.9355	3137.3648	3472.7584	3678.9631
OC1(CC=O)COC1=N	O[C@@]1(CC=O)CO[C]1[NH]	
InChI=1S/C5H7NO3/c6-4-5(8,1-2-7)3-9-4/h2,6,8H,1,3H2	InChI=1S/C5H7NO3/c6-4-5(8,1-2-7)3-9-4/h2,6,8H,1,3H2/t5-/m0/s1
