18
gdb 52586	2.55572	0.98451	0.78851	1.534	86.19	-0.2424	0.0307	0.2731	1503.3266	0.14518	-364.718678	-364.708557	-364.707613	-364.755664	35.381	
C	-0.03302862	 1.4518750007	-0.1350295949	-0.498755
C	-0.0045742665	-0.0018508168	-0.0677081101	 0.075096
C	 0.0112029109	-1.2033561508	-0.0115466623	 0.0952
C	 0.060795115	-2.6706480287	 0.0383612882	-0.379636
C	-1.2829137105	-3.2409093298	 0.1910882458	 0.317473
C	-2.3808878988	-3.7188559159	 0.2927041752	-0.44663
C	 0.8004665418	-3.2347520153	-1.1907826992	 0.0298
C	 0.6083710555	-4.6345621246	-1.6314458323	-0.258016
N	 0.1026016718	-3.5102261649	-2.4452537759	-0.311814
H	 0.6360908895	 1.8983302584	 0.6085795841	 0.149127
H	 0.2801982626	 1.8088686408	-1.1220893629	 0.152653
H	-1.0417250507	 1.8357391371	 0.0524765479	 0.152056
H	 0.651057572	-2.9626118455	 0.9207319956	 0.139094
H	-3.3546154921	-4.1289195816	 0.4025645373	 0.204007
H	 1.774068771	-2.7681765246	-1.3192494248	 0.104959
H	 1.4383212582	-5.1827282255	-2.0678540794	 0.116702
H	-0.1127104418	-5.2404683005	-1.0905505914	 0.122349
H	-0.9018121881	-3.4223001227	-2.297887881	 0.236335
18.7563	61.5313	83.3583	126.9465	151.6625	239.963	268.2847	346.1325	360.4614	378.456	462.522	539.3863	625.9287	633.7123	655.7133	764.8606	819.8048	853.5303	918.9644	961.5507	978.4416	1051.9912	1053.4617	1062.8233	1122.0258	1145.1232	1168.8711	1190.5958	1260.6318	1277.6074	1307.1939	1315.9474	1399.3984	1414.3019	1477.4311	1478.1084	1506.2751	2235.4911	2377.7543	2985.0441	3028.8494	3090.4822	3091.4846	3113.7377	3138.0743	3201.5976	3481.1306	3501.0787
CC#CC(C#C)C1CN1	CC#C[C@@H](C#C)[C@H]1CN1	
InChI=1S/C8H9N/c1-3-5-7(4-2)8-6-9-8/h2,7-9H,6H2,1H3	InChI=1S/C8H9N/c1-3-5-7(4-2)8-6-9-8/h2,7-9H,6H2,1H3/t7-,8-/m1/s1
