18
gdb 56781	2.86747	1.29507	1.05109	3.5434	75.67	-0.2717	0.0128	0.2845	1168.0182	0.147757	-401.926244	-401.917687	-401.916743	-401.959717	32.122	
O	 0.2650585285	 1.5270459199	-0.0941324461	-0.401185
C	 0.0742378746	 0.1253797397	 0.0110443707	-0.142767
C	 0.5537984435	-0.572144185	-1.2050307343	 0.267802
N	 0.9581560293	-1.1106380605	-2.144240299	-0.334415
C	 0.7035678331	-0.4559098205	 1.2510530496	 0.358783
C	 2.1616365869	-0.8319371249	 1.3454392193	-0.340446
C	 1.1206486419	-1.8885089718	 1.5957235168	-0.101116
C	 0.5391305804	-1.7366113948	 3.0070378461	-0.223011
C	 0.1225443026	-0.2684081507	 2.6610296606	-0.301419
H	 1.2127328204	 1.6953107759	-0.0268670656	 0.293474
H	-1.0135859551	-0.0064739178	 0.0557733559	 0.136186
H	 2.6869776426	-0.9265349252	 0.400129852	 0.136481
H	 2.7676054864	-0.4511779359	 2.1646624129	 0.11124
H	 1.0636290832	-2.7723279079	 0.9720009198	 0.109007
H	-0.3248418798	-2.378659855	 3.1888340831	 0.111711
H	 1.2503723272	-1.8672294461	 3.828314762	 0.10417
H	 0.5684582531	 0.5320278718	 3.2585668765	 0.104755
H	-0.961895569	-0.1338953312	 2.6564063698	 0.110748
58.7656	121.622	165.5235	213.1099	272.0064	302.8841	367.1209	399.8234	431.9248	510.7757	596.9857	707.3942	745.0426	785.6015	859.4954	875.3257	925.314	942.2781	969.3044	977.4814	1028.9016	1033.0101	1062.39	1090.8106	1103.8526	1152.8825	1196.9461	1224.529	1243.9265	1269.5729	1276.389	1285.9879	1348.3116	1390.9773	1417.9873	1482.4331	1484.3751	1510.0028	2353.2075	3047.2507	3052.2814	3059.4434	3100.8617	3107.4054	3119.9175	3189.2696	3203.5766	3793.7346
OC(C#N)C12CC1CC2	O[C@@H](C#N)[C@]12C[C@H]1CC2	
InChI=1S/C7H9NO/c8-4-6(9)7-2-1-5(7)3-7/h5-6,9H,1-3H2	InChI=1S/C7H9NO/c8-4-6(9)7-2-1-5(7)3-7/h5-6,9H,1-3H2/t5-,6+,7-/m1/s1
