22
gdb 7690	3.88688	1.43367	1.35793	0.0979	82.63	-0.2454	0.0941	0.3396	1067.4472	0.199765	-313.052906	-313.044279	-313.043335	-313.0851	33.913	
C	-0.0266113398	 1.5105695761	-0.0256076909	-0.407576
C	 0.0192764853	-0.0118280167	 0.0343729762	 0.017809
C	 1.0810733845	-0.6575958021	-0.919136174	-0.266209
C	 1.8416659173	-1.1919873587	 0.2997887611	-0.085302
C	 0.796755974	-0.5676949283	 1.2398536021	-0.085362
C	 0.9856262349	-2.0646808112	 1.1877382399	 0.335331
C	-0.0658432051	-3.0194296701	 0.6524457882	-0.462449
C	 1.7326672129	-2.6241344003	 2.3896616969	-0.452224
H	 0.9748572209	 1.9390632125	 0.0961716597	 0.1131
H	-0.4258863502	 1.8551982309	-0.9859168533	 0.110637
H	-0.6618080891	 1.919197379	 0.768543819	 0.110807
H	-0.9974190822	-0.407697683	-0.07325487	 0.063111
H	 0.7264918181	-1.398360972	-1.6434540269	 0.090753
H	 1.6445346221	 0.1070906755	-1.4608044901	 0.097483
H	 2.9220596425	-1.1995996661	 0.3968722818	 0.073928
H	 0.9552839277	-0.0178859323	 2.1626756114	 0.070742
H	-0.5965074868	-2.6302364481	-0.2187795114	 0.117614
H	 0.3930207985	-3.9713366515	 0.3596425829	 0.110543
H	-0.8146806638	-3.2401128993	 1.4225342322	 0.111123
H	 1.0440533468	-2.8408530671	 3.2147176543	 0.112165
H	 2.2463572995	-3.558122932	 2.1333490255	 0.112264
H	 2.4848416621	-1.9196326953	 2.7588114153	 0.111713
138.7424	190.1895	208.9785	228.605	252.1884	278.6071	302.1831	362.0895	396.6207	469.3555	487.7116	664.2756	713.8684	831.7678	839.067	864.7664	897.5432	943.7576	960.4865	972.1085	1000.4352	1009.8501	1040.1354	1046.9934	1074.8042	1111.2021	1124.1933	1164.0972	1178.5849	1217.8879	1252.9291	1263.487	1288.8635	1302.413	1362.0687	1405.1782	1411.3519	1416.3097	1429.8332	1481.007	1488.4506	1493.2778	1496.2223	1500.1663	1507.2648	1514.163	3020.5779	3021.5877	3024.7613	3027.4155	3043.1862	3077.3506	3081.6432	3087.2969	3092.2152	3095.4122	3097.8185	3119.6889	3149.4475	3164.1966
CC1CC2C1C2(C)C	C[C@H]1C[C@H]2[C@@H]1C2(C)C	
InChI=1S/C8H14/c1-5-4-6-7(5)8(6,2)3/h5-7H,4H2,1-3H3	InChI=1S/C8H14/c1-5-4-6-7(5)8(6,2)3/h5-7H,4H2,1-3H3/t5-,6-,7+/m0/s1
