19
gdb 36777	6.70761	0.56082	0.53579	2.5606	77.14	-0.2451	0.0298	0.2748	1969.2634	0.159464	-419.183571	-419.174126	-419.173182	-419.219646	32.662	
N	-0.0231030956	-1.1684269256	-0.3630867088	-0.301069
C	-0.0028544105	-0.0451106137	-0.0933288822	 0.256317
C	 0.0481592531	 1.3755063351	 0.2399904994	-0.344714
C	 1.3944209245	 2.0182759942	-0.1420046396	-0.134579
N	 1.3913224049	 3.4221462117	 0.2454511952	-0.299414
C	 2.6641408582	 4.089646129	 0.1080343327	 0.004987
C	 3.2103780831	 4.5395997347	-1.2804004134	-0.089174
O	 3.3492956955	 5.8967283177	-0.8168053016	-0.26818
C	 2.6789517922	 5.5985816652	 0.4230278228	-0.098509
H	-0.7734586524	 1.884162332	-0.2789622342	 0.149377
H	-0.1241250573	 1.5064618625	 1.3130644407	 0.164598
H	 2.1980966164	 1.5143107476	 0.4058571202	 0.130842
H	 1.5865325769	 1.8470190508	-1.2145105595	 0.110324
H	 0.6815166622	 3.9263372793	-0.2798239573	 0.217329
H	 3.4083938287	 3.5287765775	 0.6808579264	 0.097218
H	 4.1661748136	 4.1188990179	-1.6130955434	 0.107392
H	 2.4761100744	 4.4527478426	-2.0958817771	 0.088928
H	 1.6749789941	 6.0453527408	 0.47193808	 0.096005
H	 3.2536906682	 5.9237783407	 1.2969025396	 0.112323
44.1665	67.8998	81.2312	100.2479	154.0014	217.2109	299.7984	396.0059	401.5839	449.0756	557.6627	720.724	783.1665	808.3249	869.4398	890.6637	952.5736	996.495	1013.8125	1034.9787	1049.2729	1065.3182	1077.7618	1147.519	1152.9364	1164.5273	1187.7351	1252.9479	1265.1416	1296.0408	1299.4339	1319.1775	1348.637	1382.3283	1419.3956	1469.3776	1504.1987	1509.7154	1515.933	1532.8894	2364.8973	2963.3195	2983.4651	2999.0809	3041.5585	3052.7179	3060.9469	3067.0603	3077.6928	3094.1232	3492.3205
N#CCCNC1COC1	N#CCCNC1COC1	
InChI=1S/C6H10N2O/c7-2-1-3-8-6-4-9-5-6/h6,8H,1,3-5H2	InChI=1S/C6H10N2O/c7-2-1-3-8-6-4-9-5-6/h6,8H,1,3-5H2
