16
gdb 30888	2.4909	1.40133	0.94392	1.8491	69.74	-0.1996	0.0118	0.2114	1229.4557	0.122645	-475.047852	-475.038632	-475.037688	-475.082529	32.092	
C	 0.109296323	 1.2479144337	 0.3955233695	-0.251105
O	-0.2293657496	 0.2640335724	-0.5928435694	-0.261465
C	-1.2440563335	-0.5392878541	-0.2708830165	 0.274397
C	-1.3547227575	-1.8483369124	 0.0648117428	 0.206627
O	-0.3668712623	-2.7497110119	 0.2456344732	-0.433775
N	-2.6868655205	-2.1823818556	 0.2057287384	-0.37746
C	-3.3347237159	-1.0809538569	-0.0371506208	 0.390133
C	-4.8031428778	-0.8588097264	-0.0176183347	-0.485535
O	-2.5354858221	-0.0343128107	-0.3379543194	-0.208929
H	 0.9767215111	 1.7847997961	 0.0086956642	 0.137783
H	-0.7188870839	 1.9485273019	 0.5468989228	 0.131234
H	 0.3625588214	 0.7667974489	 1.346780868	 0.128553
H	-0.7982001958	-3.5885209499	 0.4470095725	 0.304343
H	-5.0796074474	-0.0996273557	 0.7219005577	 0.14391
H	-5.1645289884	-0.5148947362	-0.9924931602	 0.1468
H	-5.2987843008	-1.7966759931	 0.234696142	 0.154489
53.2607	102.4533	138.1615	141.5458	218.3544	273.1856	290.6419	302.5636	331.4695	465.3169	556.7354	620.2843	650.9524	689.1976	719.2926	822.5549	992.0604	1019.3254	1032.3156	1063.2107	1115.5082	1163.0376	1171.5206	1216.8628	1332.1336	1357.0826	1406.2921	1413.252	1474.4944	1480.3482	1484.11	1489.0069	1501.0045	1615.256	1767.1438	3024.4069	3040.9	3093.8826	3096.5277	3143.3795	3154.7524	3811.167
COC1=C(O)N=C(C)O1	COc1c(O)nc(C)o1	
InChI=1S/C5H7NO3/c1-3-6-4(7)5(8-2)9-3/h7H,1-2H3	InChI=1S/C5H7NO3/c1-3-6-4(7)5(8-2)9-3/h7H,1-2H3
