16
gdb 67492	2.49219	1.65625	1.23751	3.6013	74.17	-0.2342	0.0142	0.2483	1020.1793	0.124696	-396.835732	-396.827907	-396.826963	-396.867857	30.289	
N	 0.0486870639	 1.4122503241	 0.0612356837	-0.591793
C	 0.0690672864	-0.0059559255	 0.016766089	 0.27643
C	-0.1670750331	-0.8772883937	-1.2277586622	-0.231914
C	 0.6922797488	-1.8272560813	-1.8777968198	 0.280699
N	 1.3874110201	-2.5510374292	-2.4565369799	-0.360195
C	-1.0490376459	-1.0017686931	 0.0235071972	-0.067776
N	-0.5442103652	-1.7084084991	 1.2545236161	-0.132603
C	 0.8173828839	-2.2418599331	 1.0456827596	-0.273655
C	 0.6531805636	-0.7858799286	 1.2159791021	-0.058354
H	 0.9138553539	 1.8067153017	-0.2974556568	 0.244385
H	-0.7158609602	 1.7971860644	-0.4826636677	 0.240602
H	-0.7151522946	-0.2940761102	-1.9670902251	 0.13413
H	-2.1222152799	-0.8841993366	-0.0676835147	 0.11933
H	 1.1617238841	-2.7802864697	 1.9246363208	 0.133399
H	 1.10524396	-2.6959033541	 0.1082265363	 0.169714
H	 0.9542916044	-0.2450454861	 2.1060730413	 0.117601
118.489	166.9143	182.8325	231.3436	340.8314	381.9403	392.2534	461.7646	563.7119	605.7444	663.2751	694.104	743.4917	782.6992	812.2675	846.377	897.824	926.5077	975.9977	1005.6131	1044.5838	1053.8027	1081.7738	1114.6618	1136.4546	1158.1652	1219.5774	1253.855	1284.5879	1342.2946	1352.5671	1461.5702	1508.3798	1649.7442	2332.8234	3121.3375	3137.1814	3180.6388	3186.2573	3247.2454	3492.9406	3580.7039
NC12C(C#N)C1N1CC21	N[C@]12[C@@H](C#N)[C@H]1N1C[C@@H]21	
InChI=1S/C6H7N3/c7-1-3-5-6(3,8)4-2-9(4)5/h3-5H,2,8H2	InChI=1S/C6H7N3/c7-1-3-5-6(3,8)4-2-9(4)5/h3-5H,2,8H2/t3-,4-,5+,6-,9?/m0/s1
