23
gdb 93697	3.1097	1.17321	1.08771	1.533	81.66	-0.2511	0.0796	0.3307	1273.2608	0.204708	-425.447933	-425.438317	-425.437373	-425.481514	37.493	
C	-0.1897787197	 1.5164269692	 0.0111645651	-0.410044
C	-0.0131058596	-0.001662086	 0.0022499938	 0.010357
C	 0.7422053926	-0.4897441917	-1.2369696362	-0.090081
O	 0.9648444634	-1.8903070247	-1.184958323	-0.279539
C	 1.629733597	-2.3548376913	-0.0172713597	 0.428641
C	 1.4605022908	-3.8681758942	-0.0247340342	-0.411037
C	 3.1152352872	-1.9561531546	-0.0212820561	-0.428084
O	 0.9745696161	-1.9029621299	 1.1608329655	-0.279537
C	 0.7524782484	-0.5030447973	 1.2298015579	-0.090083
H	 0.7784177061	 2.0308815955	 0.0100599096	 0.115696
H	-0.7466265447	 1.8554302942	-0.8686197704	 0.118774
H	-0.7395383288	 1.8458742063	 0.8989982557	 0.118776
H	-0.9962456715	-0.4888473189	 0.0037225971	 0.085856
H	 0.1662704608	-0.3131378802	-2.1507777029	 0.106576
H	 1.6918464951	 0.062053275	-1.3361935502	 0.084752
H	 1.919538653	-4.293767544	-0.9199935914	 0.119646
H	 1.9270559122	-4.3034059157	 0.8619651489	 0.119643
H	 0.3955347178	-4.1082243201	-0.0215386314	 0.126641
H	 3.262616588	-0.8743773595	-0.0161701915	 0.114417
H	 3.607769009	-2.3664181722	 0.8639601933	 0.123651
H	 3.6004373634	-2.3570037353	-0.9148471894	 0.12365
H	 1.7029551631	 0.0476647126	 1.3270346114	 0.084753
H	 0.1842039305	-0.3363078974	 2.150235438	 0.106576
99.6758	164.3145	202.3712	218.2271	247.229	269.7036	274.3063	325.5319	328.1844	419.4248	425.8239	468.1331	505.0138	515.281	663.5466	737.0208	842.1997	859.3702	900.8009	921.631	939.5613	963.3144	976.5112	1007.981	1065.0948	1084.976	1136.9619	1178.4811	1179.3943	1182.2179	1218.9604	1265.6116	1276.3097	1317.8627	1318.773	1363.2824	1393.5827	1394.7769	1407.116	1413.1449	1429.0229	1473.7025	1477.7081	1490.2151	1491.2908	1497.4616	1499.6914	1513.7349	1514.9113	2965.9968	2970.6591	3026.8241	3033.4089	3054.3606	3059.7451	3073.0541	3075.7382	3093.9447	3099.8178	3127.691	3132.2796	3140.2077	3143.4372
CC1COC(C)(C)OC1	CC1COC(C)(C)OC1	
InChI=1S/C7H14O2/c1-6-4-8-7(2,3)9-5-6/h6H,4-5H2,1-3H3	InChI=1S/C7H14O2/c1-6-4-8-7(2,3)9-5-6/h6H,4-5H2,1-3H3
