23
gdb 90027	2.81047	1.23553	1.02589	1.3827	85.98	-0.234	0.0812	0.3152	1296.2933	0.204979	-388.281797	-388.272433	-388.271489	-388.316044	36.053	
C	 0.4992353485	 1.4970196157	-0.4741995046	-0.400085
C	 0.0065346015	 0.1033772223	-0.1427490614	 0.159662
C	 0.2669723164	-1.0317114796	-1.155870105	-0.37442
C	 1.0112600427	-1.7139246314	 0.012509753	 0.451758
C	 0.5316705872	-3.0918468697	 0.5268013706	-0.294813
C	 1.7951338761	-3.7192106379	-0.1207065946	-0.239995
C	 2.4379241639	-2.3030667349	-0.1398372277	-0.007172
C	 3.3392109212	-1.8854500824	-1.2896043406	-0.428406
O	 0.8337112883	-0.5572575713	 0.8476207997	-0.334731
H	 1.5312067267	 1.4669617923	-0.838021427	 0.117843
H	-0.1309856917	 1.9529574733	-1.2459831943	 0.113563
H	 0.4674204722	 2.1359842326	 0.4141132213	 0.125892
H	-1.0363419436	 0.1442776293	 0.2016977056	 0.071942
H	-0.6106786296	-1.5566765681	-1.5375973034	 0.103783
H	 0.9034979677	-0.7364174366	-1.9932163544	 0.105759
H	 0.5784988282	-3.118441208	 1.6192376549	 0.111329
H	-0.4510961535	-3.4449686015	 0.2032622816	 0.091728
H	 2.3143366383	-4.5029822838	 0.4344348864	 0.098241
H	 1.5968310954	-4.0830095011	-1.1339573175	 0.097994
H	 2.9464653185	-2.1280897878	 0.8162123586	 0.083995
H	 2.8685166552	-2.0760949787	-2.2606700468	 0.111761
H	 3.5832330333	-0.8182738523	-1.2367746902	 0.1188
H	 4.2832589374	-2.4407132305	-1.2690501343	 0.11557
48.6456	97.8276	202.2665	210.5207	241.6189	258.6618	280.0314	358.935	380.5517	443.8719	501.5637	519.3253	661.1124	769.1912	786.1317	864.3159	873.6396	889.4275	914.2833	916.7483	936.4756	957.1661	963.872	1039.6362	1062.6628	1104.917	1118.4032	1149.1459	1163.6403	1175.9124	1193.1159	1209.2336	1241.5134	1248.4479	1268.441	1277.1125	1295.084	1323.9539	1375.5634	1388.6512	1406.507	1410.6565	1476.4982	1481.7201	1487.1374	1492.6542	1497.891	1499.6852	1500.8209	2999.8765	3024.406	3030.9755	3034.489	3052.6268	3056.3703	3069.3071	3091.1434	3092.6438	3103.4238	3103.6351	3109.6525	3117.6224	3124.0976
CC1CC2(CCC2C)O1	C[C@H]1C[C@]2(CC[C@H]2C)O1	
InChI=1S/C8H14O/c1-6-3-4-8(6)5-7(2)9-8/h6-7H,3-5H2,1-2H3	InChI=1S/C8H14O/c1-6-3-4-8(6)5-7(2)9-8/h6-7H,3-5H2,1-2H3/t6-,7+,8+/m1/s1
