22
gdb 96005	2.46253	1.44999	1.03179	2.3375	81.99	-0.2371	0.0775	0.3146	1224.2725	0.194959	-404.319682	-404.310675	-404.30973	-404.354015	33.758	
C	-0.603162974	 1.2873045446	 0.1601390795	-0.418303
C	 0.0501289391	-0.0839080693	 0.0131262855	 0.005528
C	 1.169417387	-0.1557650221	-1.0305878525	-0.068306
O	 1.8574608684	-1.3702645565	-0.7656500511	-0.263725
C	 1.7242033394	-1.6890810294	 0.618166994	-0.07015
C	 0.7793235716	-0.648045015	 1.2554115563	-0.009135
N	 1.5580107503	 0.3919899546	 1.9266042377	-0.063475
C	 0.9411722336	 1.0463718497	 3.0744276733	-0.222378
C	 2.0495365116	 0.0716435554	 3.262314406	-0.223888
H	 0.1319592493	 2.04412763	 0.4453215706	 0.134504
H	-1.0598460425	 1.5971494309	-0.7857979321	 0.113632
H	-1.3936904028	 1.2775651464	 0.9175787852	 0.110979
H	-0.713370681	-0.821125008	-0.2674218668	 0.076986
H	 0.8016183394	-0.1911385932	-2.0610606326	 0.098722
H	 1.8421388804	 0.7098640229	-0.9273175858	 0.096113
H	 1.3157757019	-2.7042692682	 0.7036550301	 0.093766
H	 2.7059239691	-1.6716177957	 1.1076031073	 0.101187
H	 0.0756160153	-1.1309210864	 1.9549831925	 0.051834
H	 1.118770931	 2.1139205529	 3.1673128441	 0.118001
H	-0.0562513246	 0.7244307716	 3.3706760365	 0.110185
H	 1.7888424881	-0.8978863715	 3.6851523885	 0.109212
H	 3.0546832094	 0.4120617263	 3.493480874	 0.118711
42.3698	102.4928	159.775	180.1498	236.0429	266.6245	292.905	335.3093	423.5007	542.0746	595.771	729.3095	753.217	832.3096	867.3993	908.7363	916.941	938.2831	960.1586	972.5551	1016.8573	1027.0614	1072.3387	1092.9693	1112.2794	1120.8915	1121.7921	1148.3958	1164.9831	1174.3708	1194.6666	1232.6051	1241.5277	1279.828	1315.3748	1328.0549	1352.7885	1374.4321	1385.4058	1406.7685	1418.6565	1489.8562	1495.5587	1505.5083	1510.1292	1517.9149	1523.5302	2944.3766	2984.5579	3013.5593	3023.9859	3037.2929	3048.8337	3073.6623	3090.9763	3095.0136	3097.1105	3122.7381	3175.2122	3189.2834
CC1COCC1N1CC1	C[C@H]1COC[C@H]1N1CC1	
InChI=1S/C7H13NO/c1-6-4-9-5-7(6)8-2-3-8/h6-7H,2-5H2,1H3	InChI=1S/C7H13NO/c1-6-4-9-5-7(6)8-2-3-8/h6-7H,2-5H2,1H3/t6-,7+/m0/s1
