25
gdb 109585	2.41312	1.17085	0.96816	1.5026	87.67	-0.2485	0.0571	0.3056	1382.1771	0.227725	-389.48815	-389.477371	-389.476427	-389.523292	40.656	
C	-0.1478356608	 1.9216043786	-0.5861453771	-0.384758
C	-0.3451839601	 0.4146798871	-0.3813199799	-0.193539
C	 0.6388855248	-0.4320984196	-1.1846734771	 0.032317
C	 2.1459025569	-0.5361572816	-0.7568059555	-0.047358
C	 2.4894936325	-0.271699293	 0.7087004729	-0.427158
C	 2.0889194486	-2.0466393058	-1.1556301437	 0.140248
O	 2.7544271434	-3.006460718	-0.3693816105	-0.430531
C	 0.5280365011	-1.9948301365	-1.1688840223	-0.065265
C	-0.15837431	-2.6408166643	 0.0346002786	-0.42156
H	 0.8554544826	 2.2407444049	-0.2849640882	 0.119007
H	-0.2755830629	 2.1950854666	-1.6395081229	 0.113779
H	-0.8695917346	 2.5009868499	-0.00170636	 0.110472
H	-0.271681816	 0.1786577224	 0.6865557165	 0.092225
H	-1.3672521857	 0.1444055572	-0.6783454893	 0.093516
H	 0.5988501041	-0.0941507109	-2.2272265434	 0.065986
H	 2.8267588442	 0.0552422439	-1.3773133762	 0.065272
H	 1.8319797965	-0.7966744234	 1.4097211623	 0.109087
H	 3.5153996862	-0.5923570661	 0.9172421003	 0.125569
H	 2.4202472777	 0.7943765745	 0.9458910628	 0.120623
H	 2.4780981896	-2.1933103176	-2.1670026126	 0.084802
H	 2.4388526084	-2.929017903	 0.5363976361	 0.281393
H	 0.082727108	-2.4150101725	-2.076861446	 0.064515
H	 0.2004755458	-2.258270261	 0.9959984454	 0.108189
H	-1.2386251292	-2.46710611	 0.0077318036	 0.119032
H	 0.0049308289	-3.7234013919	 0.0273824262	 0.124138
85.8459	112.3451	156.1374	201.76	213.0902	220.2128	228.8437	253.5348	265.5534	278.6002	306.1451	434.8483	474.0741	507.5005	565.8907	727.5158	757.7229	769.8664	808.2996	832.3487	898.0715	952.5978	992.3349	1021.5293	1026.4107	1042.7082	1067.4344	1070.0672	1117.	1167.2451	1178.2448	1187.1915	1192.7323	1265.9543	1270.0497	1282.4423	1292.7125	1297.928	1342.931	1362.2501	1380.8858	1396.3613	1402.7376	1412.0198	1413.8172	1444.6055	1483.4693	1493.1091	1498.9595	1501.419	1503.1363	1508.9727	1511.8335	3018.8797	3019.5017	3030.8083	3032.4076	3037.0113	3039.8094	3044.4439	3058.3276	3073.0513	3093.8007	3097.9397	3100.9204	3103.3162	3104.3106	3104.9776	3821.0912
CCC1C(C)C(O)C1C	CC[C@H]1[C@@H](C)[C@@H](O)[C@H]1C	
InChI=1S/C8H16O/c1-4-7-5(2)8(9)6(7)3/h5-9H,4H2,1-3H3	InChI=1S/C8H16O/c1-4-7-5(2)8(9)6(7)3/h5-9H,4H2,1-3H3/t5-,6+,7+,8-
