20
gdb 32404	3.06697	1.14692	0.84794	0.5863	83.82	-0.1852	0.0564	0.2415	1372.7464	0.169861	-403.190478	-403.180157	-403.179213	-403.226656	36.474	
C	-0.0324335764	 1.5094505804	 0.1117057518	-0.504752
C	 0.0052205884	 0.0226564654	-0.0280702009	 0.237128
C	-0.0071681869	-0.7959709379	-1.1412885768	 0.096927
C	-0.0649037576	-0.3780819543	-2.5801833161	-0.514807
C	 0.0460718739	-2.14979056	-0.6725157835	 0.212169
C	 0.0537715462	-3.3803997531	-1.5214929333	-0.193492
O	 0.1131149443	-4.5224827908	-0.6778772296	-0.419309
C	 0.0887805385	-2.1131996653	 0.6980277207	-0.175933
N	 0.0636512615	-0.793978552	 1.0789953692	-0.315095
H	 0.8571188857	 1.9002882676	 0.622676571	 0.123068
H	-0.0770832021	 1.9853310077	-0.8701356133	 0.134542
H	-0.9084700863	 1.8503019506	 0.6787423207	 0.123073
H	 0.8081907469	-0.7309935604	-3.1442276211	 0.119304
H	-0.9509230441	-0.7806007416	-3.0880579039	 0.119303
H	-0.0990023837	 0.709711794	-2.6873363257	 0.115767
H	-0.8492526232	-3.4089269938	-2.1569437882	 0.088947
H	 0.9145312962	-3.3589589451	-2.2133725976	 0.088946
H	 0.1172642812	-5.3036728519	-1.2374828907	 0.285745
H	 0.1344086714	-2.9135973006	 1.416392132	 0.127389
H	 0.0847230162	-0.4682661589	 2.0291752152	 0.251081
35.1112	64.6059	113.5236	146.4449	166.7002	230.4242	273.6359	277.6988	289.0321	335.5291	438.0093	487.3672	599.6946	634.6347	667.5025	727.0554	737.0908	747.9795	945.8945	977.8657	1041.955	1055.8737	1056.9598	1068.1331	1110.793	1128.118	1198.033	1218.675	1242.9331	1269.426	1328.6798	1404.1308	1419.306	1428.0225	1466.9655	1480.0289	1480.6905	1484.7184	1497.4906	1505.5844	1517.7911	1574.372	1648.2154	2934.6275	2943.7181	3010.5989	3012.9159	3051.6623	3052.0111	3102.1465	3124.0033	3284.2777	3681.6208	3840.1844
CC1=C(C)C(CO)=CN1	Cc1c(C)c(CO)c[nH]1	
InChI=1S/C7H11NO/c1-5-6(2)8-3-7(5)4-9/h3,8-9H,4H2,1-2H3	InChI=1S/C7H11NO/c1-5-6(2)8-3-7(5)4-9/h3,8-9H,4H2,1-2H3
