20
gdb 81287	2.56067	1.56069	1.22979	2.8385	78.38	-0.2153	-0.0081	0.2072	1092.0455	0.17285	-403.153143	-403.145025	-403.14408	-403.185803	31.779	
C	-0.1686235947	 1.4756089802	-0.0039467436	-0.42202
C	 0.0249239183	-0.0365894396	-0.0194608928	 0.012926
C	 1.2355038554	-0.5770132997	-0.8531040555	 0.001745
C	 2.1059804777	-0.4295564587	 0.4180577356	-0.246208
C	 0.786089383	-0.614393592	 1.2290277614	-0.124238
C	 0.4809834609	-2.0930838645	 1.2914418612	 0.402935
O	 0.0447231058	-2.6637728384	 2.2614207711	-0.332043
C	 0.8109071626	-2.8479999005	-0.0117283438	-0.281462
N	 1.0999568843	-1.9956877156	-1.1823915266	-0.298176
H	 0.7580784771	 2.0116411484	 0.2237968044	 0.119739
H	-0.522855748	 1.8275298487	-0.979305357	 0.118184
H	-0.9115724769	 1.7674779881	 0.7457202871	 0.123838
H	-0.9307581095	-0.5231580516	-0.2486673537	 0.066626
H	 1.5224735311	-0.0260289945	-1.75312417	 0.068756
H	 2.9108195798	-1.1542105617	 0.562356246	 0.11042
H	 2.5091387446	 0.5771334348	 0.5301426711	 0.114307
H	 0.6599335525	-0.139696216	 2.203152136	 0.078082
H	 1.680254996	-3.4799754966	 0.2215867544	 0.136858
H	-0.0107010438	-3.5393083378	-0.2187143263	 0.130442
H	 0.3563936538	-2.1007910528	-1.8634666887	 0.219286
72.4852	154.9884	201.9763	244.4175	266.1176	402.9004	410.164	456.7281	470.6649	550.7121	610.245	746.7213	763.6092	793.3492	855.2659	868.5032	900.991	937.3197	968.7989	984.7086	1043.7074	1055.3495	1067.841	1091.9892	1116.4616	1141.8623	1169.8846	1226.8997	1231.0632	1251.9118	1264.9448	1271.6634	1293.2616	1313.011	1359.0444	1385.9151	1409.8822	1469.0067	1473.7574	1492.5334	1496.0488	1506.2229	1824.3237	3002.2264	3025.7115	3030.7063	3065.3411	3076.7044	3087.8632	3094.4347	3103.5463	3105.4041	3135.9649	3527.3127
CC1C2CC1C(=O)CN2	C[C@H]1[C@H]2C[C@@H]1C(=O)CN2	
InChI=1S/C7H11NO/c1-4-5-2-6(4)8-3-7(5)9/h4-6,8H,2-3H2,1H3	InChI=1S/C7H11NO/c1-4-5-2-6(4)8-3-7(5)9/h4-6,8H,2-3H2,1H3/t4-,5+,6-/m1/s1
