22
gdb 114533	3.58921	1.18396	1.06552	0.301	81.82	-0.2082	0.084	0.2922	1238.9248	0.196269	-404.313803	-404.305587	-404.304642	-404.346583	32.631	
C	 0.0963577854	 1.5039462655	 0.1728883649	-0.384788
C	-0.0016681638	-0.0225897884	 0.116008475	-0.192317
C	-1.4297583303	-0.5338823166	-0.04045249	 0.14706
C	-1.5046932111	-2.079350882	-0.2052397234	-0.208966
N	-2.7396597372	-2.6678464667	 0.3509014616	-0.124488
C	-3.8471285566	-1.6506335636	 0.1806090394	-0.207702
C	-3.2888867822	-0.9170330511	 1.4215062419	 0.122097
C	-2.7669352534	-2.3110455067	 1.8209117589	-0.183237
O	-2.192623052	-0.0792766639	 1.0891034194	-0.291116
H	 1.1329058683	 1.8273391608	 0.3078410015	 0.10893
H	-0.2776792759	 1.9582198513	-0.7515178557	 0.110505
H	-0.4973055806	 1.8955375842	 1.0025853843	 0.136522
H	 0.5912060063	-0.4080102313	-0.7239920207	 0.095037
H	 0.4209956393	-0.4611818267	 1.028669078	 0.099145
H	-1.8638739511	-0.0706546195	-0.9406156871	 0.06987
H	-1.4405398011	-2.3245347851	-1.2718576857	 0.103323
H	-0.6561782036	-2.5645876312	 0.2908564993	 0.104637
H	-3.8810887218	-1.1308426475	-0.7794947906	 0.108733
H	-4.8138871327	-2.1240427091	 0.3720568677	 0.108163
H	-3.9417200404	-0.3423701202	 2.0844115594	 0.073625
H	-3.5020851734	-2.933226047	 2.340753922	 0.102755
H	-1.8030368519	-2.3551330851	 2.3347156597	 0.102212
85.9854	116.0289	188.5544	242.1772	334.7278	361.1339	440.5333	458.0401	465.1839	487.9149	617.6248	755.8517	802.3513	823.1232	825.4896	893.7673	904.1664	936.2547	958.1536	974.0095	989.9722	1014.4278	1022.307	1062.3539	1088.8634	1133.4253	1135.8395	1163.673	1186.9112	1240.9565	1251.5827	1256.9817	1278.0808	1298.2151	1310.2864	1325.3234	1356.0524	1372.6533	1392.8553	1405.76	1409.7438	1473.092	1484.7295	1493.9833	1496.5129	1508.5358	1516.4109	2966.3141	3018.9039	3028.2452	3036.668	3044.3148	3057.6319	3059.0874	3072.1237	3073.7519	3101.036	3110.1646	3118.1587	3125.2893
CCC1CN2CC(C2)O1	CC[C@H]1CN2C[C@@H](C2)O1	
InChI=1S/C7H13NO/c1-2-6-3-8-4-7(5-8)9-6/h6-7H,2-5H2,1H3	InChI=1S/C7H13NO/c1-2-6-3-8-4-7(5-8)9-6/h6-7H,2-5H2,1H3/t6-/m0/s1
