17
gdb 71314	3.34375	1.46244	1.16952	1.2161	78.18	-0.2326	0.0421	0.2747	1052.2245	0.133796	-384.568118	-384.560258	-384.559314	-384.600179	31.05	
C	 0.1069133883	 1.4531680087	-0.2481924219	-0.529944
C	 0.0398866657	-0.0290188453	-0.0803545778	 0.470293
O	 0.5756572299	-0.8863184454	-1.144135232	-0.35742
C	 0.0897894991	-1.8186223942	-0.1420518158	 0.060468
C	 0.5531581381	-0.9634448706	 1.0723215927	-0.135584
C	-0.8492171358	-1.0475585839	 1.7383562423	-0.222291
C	-1.2863974512	 0.0347275114	 2.5980203905	 0.305691
C	-1.6525787004	 0.9263650524	 3.3183448134	-0.445243
C	-1.1714848965	-0.9821084916	 0.2187537258	-0.135587
H	 1.1469212031	 1.7765533136	-0.3547811831	 0.134318
H	-0.443801599	 1.7591825897	-1.1429688927	 0.134325
H	-0.3301479708	 1.9475108586	 0.62300794	 0.146054
H	 0.1901157751	-2.8881390292	-0.3213770816	 0.097939
H	 1.5362934496	-0.9529427355	 1.5422881422	 0.089707
H	-1.0665184621	-2.017460309	 2.1986207413	 0.102094
H	-1.9767868161	 1.7111852611	 3.9559666967	 0.195475
H	-2.1414125568	-0.9927493909	-0.2778956999	 0.089707
120.174	142.1721	195.9599	257.8961	294.9726	398.4425	470.1468	508.6425	571.6589	616.0916	635.4877	640.7819	748.9411	774.1151	785.4726	843.0036	865.6831	908.3495	918.1517	953.9992	1007.135	1043.2742	1069.7473	1088.2318	1112.5799	1124.4768	1163.7171	1178.7715	1214.4024	1229.7994	1279.4348	1362.228	1372.728	1417.3994	1477.028	1488.8064	2229.4567	3042.8226	3047.6229	3112.4683	3120.9735	3124.0221	3131.6585	3138.1165	3502.7029
CC12OC3C1C(C#C)C23	C[C@@]12O[C@H]3[C@@H]1[C@@H](C#C)[C@@H]23	
InChI=1S/C8H8O/c1-3-4-5-7-6(4)8(5,2)9-7/h1,4-7H,2H3	InChI=1S/C8H8O/c1-3-4-5-7-6(4)8(5,2)9-7/h1,4-7H,2H3/t4-,5+,6-,7+,8-
