21
gdb 72654	1.97636	1.86737	1.59021	2.301	77.13	-0.2392	0.0727	0.312	1019.7459	0.182236	-424.230849	-424.222123	-424.221178	-424.263658	34.531	
C	-0.2877418144	 1.493844396	 0.1646693463	-0.45311
C	-0.0033774886	 0.0143105595	 0.0414384701	 0.392802
C	 1.1356300117	-0.4026108008	-0.9463665646	-0.278262
C	 1.9505736233	-1.0010280764	 0.2349604074	-0.289199
C	 0.7686657358	-0.7039760493	 1.2053862112	 0.357772
O	 1.0603721122	 0.136013427	 2.3008408347	-0.484906
C	-0.1404574803	-1.8931000433	 1.5573902147	-0.300197
C	-1.0533634128	-2.0131475705	 0.327989993	-0.099696
O	-1.2285051097	-0.6839547471	-0.1453515831	-0.295132
H	 0.6332032799	 2.0440675595	 0.3735381644	 0.120839
H	-0.7200937316	 1.8722669048	-0.7671857629	 0.117385
H	-0.9921773892	 1.6811525562	 0.9788978598	 0.125934
H	 0.8045674283	-1.1288155395	-1.6917930964	 0.106717
H	 1.6130015016	 0.4311849462	-1.4654421197	 0.100976
H	 2.24074568	-2.0512558272	 0.1400836557	 0.091065
H	 2.8331007838	-0.412186512	 0.4947838729	 0.104094
H	 1.5890460756	-0.3643649962	 2.9314239235	 0.276948
H	 0.4042450744	-2.8170015114	 1.7748863546	 0.092957
H	-0.7283666177	-1.6133582598	 2.4368013801	 0.11246
H	-0.5916226816	-2.6491982803	-0.4443037351	 0.08966
H	-2.0413504007	-2.4228168956	 0.5529426535	 0.110892
80.746	195.2144	222.148	234.5034	241.5394	286.8401	333.0426	391.0941	416.0902	499.6017	551.2064	606.3622	652.3655	691.1711	750.4776	839.8575	867.8646	908.027	920.3143	937.6006	959.0071	983.6107	992.338	1052.6047	1075.7358	1150.2838	1172.7733	1196.0655	1204.719	1211.9285	1227.6138	1239.4166	1243.6902	1269.8416	1286.5529	1324.0956	1375.8714	1387.7486	1408.6726	1468.0526	1478.3031	1482.5502	1486.1591	1490.6806	1523.4802	2974.2301	3043.7951	3049.2372	3054.6332	3070.1737	3091.0882	3103.6326	3107.8036	3116.4371	3126.7655	3130.6812	3805.9149
CC12CCC1(O)CCO2	C[C@@]12CC[C@]1(O)CCO2	
InChI=1S/C7H12O2/c1-6-2-3-7(6,8)4-5-9-6/h8H,2-5H2,1H3	InChI=1S/C7H12O2/c1-6-2-3-7(6,8)4-5-9-6/h8H,2-5H2,1H3/t6-,7+/m1/s1
