19
gdb 26666	2.2067	1.61348	0.94578	0.6854	81.87	-0.1613	0.0538	0.215	1248.2104	0.15846	-419.242635	-419.232423	-419.231479	-419.277366	36.863	
C	 0.1275781798	 1.4674160974	 0.0201583729	-0.500107
C	-0.0589885806	-0.0037872891	-0.0173139233	 0.290356
C	-1.1395344029	-0.8301595724	-0.0322301039	 0.032592
N	-2.5053175121	-0.4967078414	 0.0431028817	-0.610801
C	-0.6508562053	-2.1921384914	-0.0287005431	 0.175512
C	-1.4812851107	-3.4362349197	-0.0130556425	-0.525371
C	 0.7069869079	-2.0738264455	-0.0169837305	 0.247547
N	 1.7414353111	-3.0028395828	-0.0918074763	-0.59785
O	 1.0947190935	-0.780684277	-0.0021415224	-0.220076
H	 0.8436121274	 1.8024033758	-0.7401238485	 0.130472
H	-0.8234630043	 1.9711245385	-0.1807720309	 0.115599
H	 0.4900807187	 1.8314516319	 0.9913972251	 0.126109
H	-2.6671286416	 0.496006656	-0.0737570748	 0.235412
H	-3.0585291575	-0.9953137143	-0.6448042519	 0.239976
H	-1.8634936672	-3.7118367726	-1.0057096918	 0.119713
H	-0.9131375171	-4.2978572904	 0.3559020956	 0.107639
H	-2.3492407263	-3.3151821273	 0.6450937185	 0.134169
H	 1.4382764594	-3.9323320104	 0.1677684785	 0.248542
H	 2.5407126678	-2.7286167654	 0.4677086476	 0.250566
108.2908	117.8523	130.6408	173.8983	187.9925	212.3562	237.7584	259.2226	300.4817	304.9229	370.9986	533.3592	578.8994	613.7061	631.0644	677.0335	729.0401	760.1714	789.7793	872.9241	947.55	1006.979	1059.2861	1062.5203	1089.4656	1178.3034	1202.1377	1235.5942	1301.6211	1379.2576	1415.2427	1425.7647	1465.7094	1471.3613	1482.915	1498.5669	1505.9875	1623.9378	1644.365	1679.2953	1721.0744	3002.7567	3003.9841	3050.8414	3054.1987	3084.4801	3095.2397	3514.4546	3527.5859	3605.4541	3629.3648
CC1=C(N)C(C)=C(N)O1	Cc1c(N)c(C)c(N)o1	
InChI=1S/C6H10N2O/c1-3-5(7)4(2)9-6(3)8/h7-8H2,1-2H3	InChI=1S/C6H10N2O/c1-3-5(7)4(2)9-6(3)8/h7-8H2,1-2H3
