16
gdb 118617	2.00179	1.18322	0.87593	3.9656	67.54	-0.2811	-0.025	0.2561	1333.3479	0.121088	-475.028641	-475.018644	-475.017699	-475.065671	32.697	
C	-0.6051456942	 0.6514638282	 0.0476311179	-0.243642
O	 0.758403359	 0.262547051	 0.1562371559	-0.223911
C	 1.0652110104	-0.5851696742	 1.220042303	-0.086769
C	 0.7684795563	-2.0754754905	 0.9580200668	-0.064748
O	-0.6499718145	-2.2807504414	 0.9900111605	-0.185449
C	-1.0999163202	-3.5039984892	 1.3763865486	 0.182348
O	-2.2598170807	-3.7618275227	 1.4268676757	-0.24948
C	 1.3193144527	-2.5267552255	-0.3296471433	 0.297972
N	 1.7630917596	-2.9080450673	-1.3249998666	-0.300291
H	-0.9726204951	 1.0670429892	 0.9968457227	 0.112588
H	-0.6416281085	 1.4274991554	-0.7193200649	 0.13805
H	-1.2515420722	-0.1817187739	-0.2456724357	 0.140543
H	 2.1425530543	-0.494908331	 1.3973310408	 0.133519
H	 0.5323440877	-0.3078388869	 2.1426531647	 0.11419
H	 1.2433501286	-2.6603988406	 1.758298547	 0.137127
H	-0.280619893	-4.1992133007	 1.6401558669	 0.097952
34.2661	44.9428	91.7287	124.4365	137.8224	190.0961	228.1775	277.112	327.0481	387.365	448.8022	522.1041	644.8179	725.0938	852.0725	921.0349	986.6672	1029.4992	1038.0124	1100.7144	1136.9825	1181.5584	1187.2798	1225.3484	1292.8666	1332.9816	1361.1903	1408.7779	1431.7366	1464.6331	1483.0408	1495.8196	1509.6041	1882.1799	2366.8222	2964.4218	2993.8661	3004.0157	3019.659	3077.6603	3084.9488	3134.1984
COCC(OC=O)C#N	COC[C@@H](OC=O)C#N	
InChI=1S/C5H7NO3/c1-8-3-5(2-6)9-4-7/h4-5H,3H2,1H3	InChI=1S/C5H7NO3/c1-8-3-5(2-6)9-4-7/h4-5H,3H2,1H3/t5-/m0/s1
