21
gdb 93737	2.47983	1.24837	1.08538	2.0885	78.8	-0.237	-0.0237	0.2133	1248.5856	0.180621	-424.254219	-424.244536	-424.243591	-424.289146	35.571	
C	-0.4431006821	 1.3564436433	-0.1205593721	-0.415795
C	 0.0707674393	-0.08024935	-0.0944459417	 0.008736
C	 1.0401915273	-0.4275536867	-1.2320716234	-0.076554
O	 1.8121004111	-1.5422154038	-0.7862333675	-0.309095
C	 1.7207105472	-1.6630175785	 0.646410651	 0.291974
C	 3.1290305199	-1.7810220084	 1.232781343	-0.443784
C	 0.9173398296	-0.4519951145	 1.1344371221	-0.278671
C	 0.977605924	-2.980473967	 0.8986240757	 0.137391
O	 0.1734873079	-3.1707714611	 1.7735321057	-0.257039
H	 0.3859753028	 2.0708455959	-0.0598474068	 0.116161
H	-0.9980969876	 1.5650441625	-1.0413784942	 0.118218
H	-1.11469458	 1.5506943273	 0.7213059578	 0.123575
H	-0.7819480419	-0.7691488481	-0.1458504017	 0.089911
H	 0.5369579544	-0.7048026531	-2.164268009	 0.107244
H	 1.7051414833	 0.4248231225	-1.4448813942	 0.089142
H	 3.7107437342	-0.8929677225	 0.9697124531	 0.126485
H	 3.0866586546	-1.8695479156	 2.322762855	 0.130934
H	 3.6460785105	-2.658190858	 0.831432054	 0.127546
H	 1.5926563301	 0.3704061606	 1.3974440753	 0.094233
H	 0.3197715003	-0.7082537951	 2.0113987694	 0.129489
H	 1.2558564949	-3.7736191997	 0.1689733686	 0.089897
47.6427	82.8022	123.6573	226.0034	231.3488	239.5623	294.4829	299.5175	343.7262	405.5274	428.6635	525.7528	565.082	658.8861	808.0616	858.6516	866.4704	898.8068	940.0422	948.8002	963.8141	988.5852	1061.8031	1074.7094	1091.2677	1137.359	1175.5761	1195.6351	1199.8272	1259.7503	1286.9484	1305.6249	1339.9052	1354.6555	1391.2233	1403.8829	1405.2994	1416.2021	1481.9424	1483.4624	1494.0578	1498.1893	1502.2703	1524.9411	1830.9686	2889.8855	2976.0981	3023.5955	3029.7943	3036.6024	3044.61	3068.0193	3096.3191	3104.6544	3112.6989	3118.4643	3121.194
CC1COC(C)(C1)C=O	C[C@H]1CO[C@@](C)(C1)C=O	
InChI=1S/C7H12O2/c1-6-3-7(2,5-8)9-4-6/h5-6H,3-4H2,1-2H3	InChI=1S/C7H12O2/c1-6-3-7(2,5-8)9-4-6/h5-6H,3-4H2,1-2H3/t6-,7+/m1/s1
