20
gdb 61654	3.5889	0.82016	0.7688	4.6913	79.9	-0.2593	0.0382	0.2975	1541.5921	0.170623	-403.150928	-403.141336	-403.140392	-403.186714	33.948	
C	-0.1197997372	 1.5594669324	-0.1693212031	-0.399332
C	 0.0172626105	 0.0456978282	 0.0876194044	-0.132083
C	 0.7351635527	-0.3016404992	 1.4151551822	-0.212068
C	 2.1971911541	 0.1173691877	 1.4119760834	 0.144461
C	 3.1341617149	-0.5489196635	 2.4450001229	-0.303391
C	 3.8942126054	-1.0677719824	 1.2074765738	-0.058436
O	 2.927234327	-0.4771941782	 0.3104394523	-0.294747
C	-1.3021385459	-0.5930547888	 0.0601952822	 0.26277
N	-2.3454044077	-1.0909892848	 0.0525259807	-0.326834
H	 0.8663622026	 2.021931535	-0.2530676327	 0.135248
H	-0.6605900049	 1.7453124497	-1.1002821534	 0.139753
H	-0.6663660903	 2.045338794	 0.6444369292	 0.132808
H	 0.609880708	-0.3979898194	-0.7214642121	 0.149714
H	 0.2187428524	 0.1775860725	 2.2561840269	 0.114182
H	 0.6777078072	-1.3841050003	 1.57152491	 0.117849
H	 2.2874978432	 1.2115601985	 1.3833470096	 0.079966
H	 3.6856967475	 0.1300214587	 3.0960904809	 0.116005
H	 2.6578882016	-1.322067473	 3.0511289689	 0.115865
H	 4.8943434394	-0.6422604564	 1.0609836601	 0.107141
H	 3.9510013895	-2.1555361608	 1.088594734	 0.111127
40.9049	69.2249	97.7908	126.3766	189.4198	225.5283	272.7904	320.4861	389.2138	464.5486	546.8506	577.65	750.366	794.3864	824.7156	868.8202	891.2423	931.5464	959.5371	982.8194	1022.582	1043.1358	1087.0944	1110.1986	1126.2081	1160.5517	1178.2891	1216.5396	1236.6491	1260.747	1293.094	1303.321	1336.6456	1356.7855	1371.5136	1409.9776	1414.5766	1474.0162	1490.9946	1495.7459	1502.4013	1532.6695	2355.2431	3008.7856	3023.6123	3033.4107	3047.8065	3052.4962	3065.0459	3080.7097	3084.8568	3124.6251	3132.6163	3137.7334
CC(CC1CCO1)C#N	C[C@@H](C[C@H]1CCO1)C#N	
InChI=1S/C7H11NO/c1-6(5-8)4-7-2-3-9-7/h6-7H,2-4H2,1H3	InChI=1S/C7H11NO/c1-6(5-8)4-7-2-3-9-7/h6-7H,2-4H2,1H3/t6-,7+/m0/s1
