16
gdb 47300	2.79303	1.4295	1.11516	1.3746	67.06	-0.2508	-0.0441	0.2067	1080.5255	0.124309	-475.025156	-475.017051	-475.016107	-475.058857	29.51	
N	-0.1746071084	 0.8028358708	 1.017066103	-0.488225
C	-0.0994562427	 0.0482122012	 0.0045188233	 0.337095
C	-1.3882290919	-0.2452561315	-0.7578128091	-0.153914
O	-1.4475311723	-1.4529149806	-1.4892024804	-0.24225
C	-0.9746529347	-2.5928032682	-0.8064162571	-0.203063
C	 0.5372120872	-2.7400789295	-1.0008451517	 0.367517
O	 1.1167806788	-3.7846203729	-0.8526723238	-0.281544
C	 1.2427061223	-1.4473691091	-1.4258548547	-0.167937
O	 1.102874642	-0.4283288838	-0.4262025503	-0.254906
H	 0.7553440274	 0.9807168864	 1.4016187297	 0.227359
H	-2.196107577	-0.1819503508	-0.0188758036	 0.140907
H	-1.5447078201	 0.5514518761	-1.4928542933	 0.144089
H	-1.2110245533	-2.5703229496	 0.2686629089	 0.140833
H	-1.4632514684	-3.473274074	-1.2331576678	 0.15014
H	 2.3134402373	-1.6384088468	-1.4951986191	 0.143639
H	 0.8614708737	-1.1097833376	-2.395425594	 0.140259
48.7274	64.2089	159.5304	267.2246	333.8674	349.6959	434.1833	481.9916	500.0971	545.2403	551.6581	689.1804	746.0436	792.3806	909.9495	951.3616	965.1826	1015.7717	1018.7736	1057.9191	1136.282	1174.9229	1203.492	1253.9974	1271.7803	1300.7701	1327.5343	1351.1471	1385.5791	1387.5945	1456.5165	1482.4755	1486.7293	1739.5672	1839.5091	2997.3483	3036.6943	3052.7061	3083.3543	3098.5362	3145.5219	3470.2684
N=C1COCC(=O)CO1	[NH][C]1COCC(=O)CO1	
InChI=1S/C5H7NO3/c6-5-3-8-1-4(7)2-9-5/h6H,1-3H2	InChI=1S/C5H7NO3/c6-5-3-8-1-4(7)2-9-5/h6H,1-3H2
