16
gdb 51143	3.13222	1.24881	0.98506	3.611	72.81	-0.2475	-0.0264	0.2211	1185.0353	0.122943	-437.863542	-437.855216	-437.854272	-437.897671	30.073	
N	-0.1092700671	 1.3087894248	-0.1125204388	-0.436792
C	-0.0493760453	 0.0531594539	-0.0579346118	 0.112379
O	-1.1982964046	-0.6556220382	 0.1296016579	-0.222337
C	-1.0671473483	-2.0307883782	 0.1213862849	 0.324958
C	-1.297374786	-2.8482491772	-1.1449907685	-0.339613
C	-2.181470995	-3.0920436267	 0.0348222617	-0.137677
C	-1.4422879974	-3.9971791237	 1.0356003839	-0.353913
C	-0.3879999301	-2.8643005085	 1.1727236034	 0.34885
O	 0.4926063491	-2.6381029875	 1.9515852356	-0.311552
H	 0.8234222601	 1.6962261659	-0.239512846	 0.235778
H	 0.8419444267	-0.5786204236	-0.1324563057	 0.111488
H	-1.7242662144	-2.2451383029	-1.939986083	 0.144055
H	-0.5847961636	-3.6010350957	-1.47144016	 0.125965
H	-3.2454325045	-2.901008484	 0.026922117	 0.127555
H	-1.9601414709	-4.1387663675	 1.9882455799	 0.143505
H	-1.0993633284	-4.9648518611	 0.6595180196	 0.127353
38.9376	89.5408	119.0329	171.4077	275.8943	366.2275	414.5434	448.8596	550.4398	572.6775	657.3241	748.2664	820.9133	838.9109	850.9477	909.2083	953.3211	984.0568	1009.7951	1022.088	1038.0459	1045.3121	1087.3023	1088.4817	1148.2802	1204.3623	1247.8152	1278.0186	1288.4265	1373.901	1420.8446	1456.7464	1491.152	1748.7273	1883.874	3062.2273	3070.7226	3115.5214	3118.6991	3210.3839	3223.324	3521.2214
N=COC12CC1CC2=O	[NH][CH]O[C@]12C[C@H]1CC2=O	
InChI=1S/C6H7NO2/c7-3-9-6-2-4(6)1-5(6)8/h3-4,7H,1-2H2	InChI=1S/C6H7NO2/c7-3-9-6-2-4(6)1-5(6)8/h3-4,7H,1-2H2/t4-,6-/m1/s1
