25
gdb 106317	2.61479	1.15643	0.99025	0.2448	93.45	-0.2377	0.084	0.3217	1388.8473	0.228361	-352.340527	-352.330366	-352.329421	-352.375119	38.978	
C	-0.6592945191	 1.9077261172	-0.7459575586	-0.371071
C	-0.5816307117	 0.3749391023	-0.6998678784	-0.293662
C	 0.2685898005	-0.2042644015	-1.7995483312	 0.367035
C	-0.1773958169	-0.2794563015	-3.2739447764	-0.328082
C	 0.3640579291	-1.747199346	-3.3532754426	 0.054794
C	 1.2649970325	-2.1951869164	-4.5004329556	-0.41451
C	 0.9121248221	-1.5993896411	-1.9253800674	-0.16992
C	 1.7615830185	-0.3698254257	-1.6915558774	-0.036362
C	 2.8096714023	 0.2357053965	-2.6053679611	-0.423352
H	 0.333775833	 2.354592952	-0.6309868197	 0.115709
H	-1.0690531617	 2.2534644906	-1.7011606511	 0.116873
H	-1.299835791	 2.2974227178	 0.0515732477	 0.108223
H	-0.1808182786	 0.0578135126	 0.2714203026	 0.092291
H	-1.5969351415	-0.0408886052	-0.7629741617	 0.090373
H	-1.2622314138	-0.2216681306	-3.3965594153	 0.0954
H	 0.2780214162	 0.4468781773	-3.9549696542	 0.091553
H	-0.497168553	-2.4235347039	-3.3138465467	 0.072759
H	 2.1432816011	-1.5562697642	-4.6190578107	 0.116746
H	 1.6220334571	-3.2179410826	-4.3334488153	 0.111565
H	 0.7171098428	-2.188958325	-5.4499101991	 0.109008
H	 0.9116810859	-2.4031634161	-1.1950184889	 0.071332
H	 2.0726634214	-0.338473785	-0.6467193675	 0.077251
H	 2.4525682073	 0.378908258	-3.6271298598	 0.120819
H	 3.1148410822	 1.2191952363	-2.2298045287	 0.110509
H	 3.7065187854	-0.3922018656	-2.6518062631	 0.114718
75.9544	120.5987	160.3685	193.1835	202.5565	237.6061	244.847	280.9079	325.8751	350.0213	390.3409	469.6853	575.4018	648.0087	682.2373	746.1619	788.1656	833.8036	871.4942	884.974	953.3554	961.3966	966.8192	995.8424	1027.3998	1045.1904	1066.433	1083.2897	1110.8956	1121.8777	1130.7018	1174.4577	1190.9678	1233.4087	1247.5089	1258.7727	1298.9023	1322.6658	1350.9025	1363.8331	1382.2217	1407.6969	1409.2869	1412.9438	1466.0445	1479.9105	1489.0671	1497.5927	1497.8584	1501.0214	1507.1212	1508.0479	1510.4572	3005.617	3027.9512	3030.0531	3031.4132	3034.5962	3042.0512	3045.8596	3083.1719	3085.7851	3094.5047	3097.75	3100.0095	3103.0751	3120.9614	3130.5542	3149.2936
CCC12CC(C)C1C2C	CC[C@]12C[C@@H](C)[C@H]1[C@H]2C	
InChI=1S/C9H16/c1-4-9-5-6(2)8(9)7(9)3/h6-8H,4-5H2,1-3H3	InChI=1S/C9H16/c1-4-9-5-6(2)8(9)7(9)3/h6-8H,4-5H2,1-3H3/t6-,7-,8+,9-/m1/s1
