12
gdb 129094	3.14783	1.5246	1.02713	2.2286	75.15	-0.2626	-0.0835	0.1791	1047.4445	0.076219	-431.552555	-431.545187	-431.544243	-431.584679	27.396	
N	-0.0564532399	 1.313646993	-0.2309972804	-0.498136
C	 0.0099411964	 0.0517668736	-0.0329334308	 0.17527
C	 1.2128398493	-0.7382842791	 0.1974172193	 0.009
N	 1.2419321614	-2.0055987687	 0.3929558755	-0.05104
O	 0.03953	-2.684180414	 0.3861547825	-0.221521
N	-1.173960405	-2.0665575328	 0.1810046956	-0.135041
C	-1.2020460233	-0.7838317432	-0.0167346277	 0.165754
C	-2.4818461388	-0.198905858	-0.2232081115	 0.317636
C	-3.5565319342	 0.3096510806	-0.3992197006	-0.350179
H	 0.8779612428	 1.7313502666	-0.2089894868	 0.227177
H	 2.1861528441	-0.2515637594	 0.2124143093	 0.14725
H	-4.5057355727	 0.7607780815	-0.5549103443	 0.213831
79.2265	143.0101	194.8146	366.2466	377.5994	426.032	449.7381	555.2538	556.5307	602.3029	661.0175	671.6894	712.076	791.3276	806.6131	886.6772	888.928	954.8884	963.8967	1122.6208	1241.8845	1324.6934	1434.5265	1573.3753	1638.8699	1698.7353	2240.7068	3158.1953	3433.1907	3501.5595
N=C1C=NON=C1C#C	[NH][C]1C=NON=C1C#C	
InChI=1S/C5H3N3O/c1-2-5-4(6)3-7-9-8-5/h1,3,6H	InChI=1S/C5H3N3O/c1-2-5-4(6)3-7-9-8-5/h1,3,6H
