21
gdb 82601	3.88513	1.31804	1.26119	1.5296	81.86	-0.2346	0.0876	0.3222	1112.8115	0.183737	-387.054635	-387.046864	-387.04592	-387.086413	31.605	
C	-0.0876342261	 1.6460865342	-0.1610733039	-0.426038
C	 0.0221796606	 0.1376343607	-0.0197222776	 0.027013
C	 1.1758692547	-0.6307453976	-0.7176142412	 0.044044
O	 2.3451108181	 0.0531976011	-0.2332367068	-0.270012
C	 2.2020139902	-0.3124072373	 1.1496656691	 0.067217
C	 2.4037742244	-1.8496299462	 1.0882674918	 0.009045
C	 2.3936944246	-2.6001391068	 2.4151212025	-0.420324
C	 1.042656115	-1.7769150544	 0.3701125903	-0.065339
C	 0.6274122329	-0.5258983683	 1.2307057607	-0.093731
H	 0.8875416767	 2.1185806379	-0.0214653006	 0.131338
H	-0.4595402409	 1.9239227972	-1.153754861	 0.111162
H	-0.7814508384	 2.0597468074	 0.5789980844	 0.109849
H	-0.9306421984	-0.3582124434	-0.2407143932	 0.070277
H	 1.2388148155	-0.7981998317	-1.7921384391	 0.072388
H	 2.773905601	 0.3530790036	 1.7954566499	 0.073971
H	 3.265527345	-2.1455007158	 0.4806422339	 0.070875
H	 1.5470378279	-2.3152451597	 3.0474095658	 0.115597
H	 2.3308625315	-3.6809782692	 2.2496786748	 0.117805
H	 3.3125146676	-2.4056164628	 2.9790618015	 0.11615
H	 0.391805491	-2.6266390251	 0.1689096946	 0.067833
H	 0.1397085469	-0.5679639337	 2.202095814	 0.07088
173.4972	187.1919	197.8121	217.0712	274.1627	310.002	476.8794	523.3368	580.9109	689.4748	705.0096	778.2209	804.8882	823.7395	831.4747	892.7407	915.0276	929.4986	945.3742	985.8872	1017.748	1045.3031	1048.9648	1070.5897	1083.8436	1097.862	1114.3898	1131.899	1159.9955	1174.328	1189.1326	1231.0527	1244.0538	1258.8287	1267.9268	1285.6176	1325.9344	1374.152	1386.8009	1405.9086	1412.7113	1490.9658	1496.5928	1501.3283	1504.0996	3031.1711	3031.4974	3041.9998	3050.1342	3089.9655	3092.5895	3104.7169	3123.104	3124.2038	3125.4835	3131.1651	3143.1764
CC1C2OC3C(C)C2C13	C[C@H]1[C@H]2O[C@@H]3[C@@H](C)[C@H]2[C@H]13	
InChI=1S/C8H12O/c1-3-5-6-4(2)8(5)9-7(3)6/h3-8H,1-2H3	InChI=1S/C8H12O/c1-3-5-6-4(2)8(5)9-7(3)6/h3-8H,1-2H3/t3-,4+,5-,6-,7+,8+/m0/s1
