12
gdb 20477	6.634	1.4582	1.29883	2.3266	55.58	-0.2803	-0.0382	0.242	881.2815	0.084764	-414.625876	-414.619635	-414.618691	-414.657424	21.836	
C	 0.207308641	 1.5500263018	 0.1064564061	-0.166935
O	 1.1580525891	 0.5434273589	-0.2172983055	-0.213433
C	-0.1731702888	 0.1250316755	 0.0690174415	-0.023495
C	-0.3895206591	-0.6534468254	 1.3089659463	 0.372811
N	 0.3581323627	-0.544891899	 2.3773496239	-0.176747
O	-0.2277219389	-1.445705314	 3.2724573211	-0.14432
C	-1.2603245369	-1.9910676497	 2.6311588421	 0.107212
N	-1.4262839068	-1.5591217062	 1.4223512998	-0.312512
H	 0.344927384	 2.0270516159	 1.0745689826	 0.137927
H	-0.0929067597	 2.1996353089	-0.7143183824	 0.12676
H	-0.7434903075	-0.2502731609	-0.7778802732	 0.121002
H	-1.8424512591	-2.7259084256	 3.1675213577	 0.171729
36.7698	181.2583	191.0697	414.4798	438.2675	632.2828	684.458	772.4307	873.9119	898.7945	902.9706	925.2373	985.1816	988.0314	1052.3625	1099.118	1148.4492	1160.2653	1171.5468	1268.5021	1278.2138	1325.0159	1447.5001	1514.2005	1528.9632	1596.0871	3090.0276	3144.5884	3187.8755	3269.1657
C1OC1C1=NOC=N1	C1O[C@H]1c1nocn1	
InChI=1S/C4H4N2O2/c1-3(7-1)4-5-2-8-6-4/h2-3H,1H2	InChI=1S/C4H4N2O2/c1-3(7-1)4-5-2-8-6-4/h2-3H,1H2/t3-/m1/s1
