13
gdb 7877	3.86696	1.83408	1.25358	1.9621	62.53	-0.266	-0.087	0.179	896.2212	0.095907	-398.688281	-398.681108	-398.680164	-398.719898	25.832	
C	-0.0335930846	 1.4943533422	 0.0500477359	-0.488568
C	-0.0082451679	 0.010165413	-0.0469457622	 0.214119
C	-0.0381965112	-0.8100115413	-1.1036568099	-0.335373
C	 0.010556311	-2.2312790083	-0.6395034966	 0.441179
O	 0.0016781591	-3.2427248549	-1.2949719441	-0.338372
N	 0.0708371956	-2.1593698919	 0.7569176419	-0.403159
C	 0.0634605751	-0.8427730538	 1.2011961423	 0.385402
O	 0.1056582692	-0.4654430376	 2.346242298	-0.33543
H	 0.8594974275	 1.858504264	 0.5694728923	 0.156483
H	-0.0871136053	 1.9612055761	-0.9353466349	 0.135344
H	-0.8903836342	 1.8234764751	 0.6480278069	 0.1565
H	-0.0892501286	-0.5594627786	-2.1540755558	 0.137097
H	 0.1122273742	-2.9633968941	 1.3623981261	 0.274779
104.6988	136.7056	186.3127	248.3819	386.5073	390.6247	518.9174	556.7305	590.3459	654.9047	715.6331	769.4389	791.9497	887.4483	928.019	1007.2996	1061.1342	1086.8343	1182.6452	1298.6735	1334.2826	1349.8423	1412.3858	1469.3796	1475.6375	1697.7098	1824.5651	1862.3112	3040.7446	3094.2276	3135.4697	3238.9404	3659.6315
CC1=CC(=O)NC1=O	CC1=CC(=O)NC1=O	
InChI=1S/C5H5NO2/c1-3-2-4(7)6-5(3)8/h2H,1H3,(H,6,7,8)	InChI=1S/C5H5NO2/c1-3-2-4(7)6-5(3)8/h2H,1H3,(H,6,7,8)
