23
gdb 102695	2.13335	0.7598	0.59017	3.7525	83.89	-0.2445	-0.0155	0.229	1898.2981	0.20254	-425.436651	-425.425146	-425.424202	-425.4751	39.675	
C	-0.0897220913	 1.8284201323	-0.9308289286	-0.389138
C	 0.0246480467	 0.3705488972	-0.4698079922	-0.188864
C	 0.823456714	-0.5493921836	-1.4133391454	 0.044342
C	 2.3153594634	-0.2051555766	-1.3963906719	-0.091292
O	 2.9621089359	-0.9687160164	-2.4066012254	-0.42334
C	 0.6295376405	-2.0415747309	-1.0791016016	-0.206407
C	-0.7571576826	-2.599072769	-1.4460808386	-0.284632
C	-0.8207214861	-4.0951557471	-1.2433854275	 0.158605
O	-1.6236505966	-4.6692108681	-0.5536196753	-0.239464
H	 0.8827789736	 2.3272546008	-0.9819919838	 0.118302
H	-0.546271463	 1.8914225504	-1.9247959846	 0.117756
H	-0.7148944182	 2.4049113569	-0.2419747929	 0.115447
H	 0.4759914795	 0.332146964	 0.5315326614	 0.095492
H	-0.9863380285	-0.0352252155	-0.3545260215	 0.103237
H	 0.4749125189	-0.3844689053	-2.4433656384	 0.078142
H	 2.4579461886	 0.8701325779	-1.5745721509	 0.088425
H	 2.7298277703	-0.4322030167	-0.3994960162	 0.084237
H	 3.9060785472	-0.7930726041	-2.360646192	 0.288281
H	 1.3955374109	-2.610584088	-1.6160822198	 0.121719
H	 0.8126416798	-2.1984645714	-0.0072007445	 0.100291
H	-1.5651697495	-2.1418827859	-0.8690840735	 0.120534
H	-0.9455816256	-2.4051939714	-2.5126908036	 0.118094
H	-0.032496928	-4.6619882896	-1.7943936331	 0.070232
44.6654	56.0958	65.4292	96.2365	117.2785	170.3434	211.0906	245.1876	255.4308	266.6427	306.1696	414.3916	467.7374	489.8392	535.5966	756.9166	771.3636	836.2813	859.1515	929.5961	967.2872	1007.6151	1030.8154	1040.1102	1067.463	1073.234	1130.2077	1143.3853	1159.386	1211.9144	1239.9297	1257.233	1281.4008	1292.7991	1320.6022	1344.6341	1351.4903	1385.6368	1398.061	1415.5165	1430.3906	1453.583	1465.5437	1487.4236	1498.4783	1501.4165	1507.0963	1519.6787	1835.1162	2848.3998	2959.7194	2999.0543	3005.4941	3011.9467	3016.3718	3026.382	3035.6443	3062.6414	3077.8771	3101.2278	3104.2963	3107.2583	3835.5181
CCC(CO)CCC=O	CC[C@@H](CO)CCC=O	
InChI=1S/C7H14O2/c1-2-7(6-9)4-3-5-8/h5,7,9H,2-4,6H2,1H3	InChI=1S/C7H14O2/c1-2-7(6-9)4-3-5-8/h5,7,9H,2-4,6H2,1H3/t7-/m1/s1
