14
gdb 130605	4.13159	1.45862	1.09308	6.2481	72.36	-0.2385	-0.0578	0.1807	1027.2016	0.103422	-432.875506	-432.868727	-432.867783	-432.907121	25.276	
O	-0.0209666284	-0.0141429391	 0.0239949581	-0.347447
C	 0.0261958394	 1.1966896723	 0.0386967774	 0.340704
C	-1.234994196	 2.0042702226	 0.0731620845	-0.071693
N	-1.3141772825	 3.3017658149	 0.0915752464	-0.200983
N	-0.0961846001	 3.8582909335	 0.075728315	 0.027265
C	 0.4779835688	 5.2099076235	 0.0818638592	-0.1696
C	 1.8778184896	 4.4868339465	 0.0458478458	-0.367927
C	 1.0791475377	 3.1878645068	 0.044434247	 0.449201
N	 1.2487151598	 1.9158731726	 0.024605723	-0.406771
H	-2.1702345739	 1.4542982255	 0.0837509759	 0.147076
H	 0.2248315904	 5.7983569679	-0.8028900027	 0.145306
H	 0.2591836039	 5.775655575	 0.9902650943	 0.145297
H	 2.4656990782	 4.6629983427	-0.8558103247	 0.154788
H	 2.499608773	 4.6400325752	 0.9287712107	 0.154785
98.8975	119.5695	222.4786	373.8286	441.7735	487.6986	540.2067	589.0347	648.0985	742.3302	784.1687	808.5569	871.626	892.4963	942.224	944.8277	1056.4617	1134.7262	1140.5786	1152.9921	1176.4729	1204.7658	1261.8534	1303.8885	1340.1788	1434.4119	1469.6566	1515.3683	1573.2682	1685.4801	1788.104	3071.1506	3097.3816	3127.4431	3156.1823	3198.716
O=C1C=NN2CCC2=N1	O=c1cnn2CCc2n1	
InChI=1S/C5H5N3O/c9-5-3-6-8-2-1-4(8)7-5/h3H,1-2H2	InChI=1S/C5H5N3O/c9-5-3-6-8-2-1-4(8)7-5/h3H,1-2H2
