18
gdb 88317	4.10556	0.83961	0.80468	1.6971	77.89	-0.2722	-0.0234	0.2488	1484.8939	0.146423	-439.113364	-439.104068	-439.103124	-439.148295	33.098	
C	-0.4798080589	 1.3707531192	 0.1892553171	-0.421519
C	-0.0358261853	-0.0735529606	 0.1575935111	 0.014346
C	 1.2991564619	-0.4816681169	-0.3647084178	-0.2862
C	 1.0193736303	-0.6400210142	 1.1218432243	-0.160968
C	 1.7238279695	 0.2545165748	 2.0603124228	 0.479232
O	 2.1871605669	 1.3408340562	 1.8197179577	-0.36204
O	 1.7868348204	-0.3375064136	 3.3047280119	-0.212022
C	 2.4160320961	 0.3473365542	 4.3123379056	 0.113919
N	 2.468198092	-0.1923682035	 5.4477236605	-0.420913
H	 0.3526822159	 2.0390037693	 0.4152361738	 0.154093
H	-0.8956778117	 1.6542482134	-0.7835746256	 0.120826
H	-1.2590194273	 1.5271683536	 0.9427518941	 0.121006
H	-0.8399248893	-0.7836031077	-0.0175025941	 0.101818
H	 1.3941731387	-1.39096166	-0.9469737293	 0.123138
H	 1.9956105799	 0.3094074904	-0.6214508322	 0.1406
H	 0.8354285503	-1.6330187494	 1.5103955979	 0.114778
H	 2.8078757628	 1.3123132453	 3.9905328293	 0.141593
H	 2.9605645378	 0.4209125696	 6.0959059329	 0.238314
44.2907	107.7571	129.2776	152.3592	186.3216	231.8577	275.6911	354.7443	395.0023	423.558	531.2676	703.5129	740.5855	794.2648	845.1539	853.703	881.6704	921.1535	961.3288	991.1853	1052.4209	1073.8675	1078.1514	1099.4049	1126.2983	1147.0379	1157.3594	1208.8745	1235.2244	1269.4339	1385.289	1394.0084	1418.8425	1425.7309	1479.5509	1501.4052	1503.8474	1745.4382	1815.6788	3038.0651	3094.8158	3133.1009	3138.1395	3139.3366	3150.341	3200.1573	3230.8453	3505.1125
CC1CC1C(=O)OC=N	C[C@H]1C[C@H]1C(=O)O[CH][NH]	
InChI=1S/C6H9NO2/c1-4-2-5(4)6(8)9-3-7/h3-5,7H,2H2,1H3	InChI=1S/C6H9NO2/c1-4-2-5(4)6(8)9-3-7/h3-5,7H,2H2,1H3/t4-,5+/m0/s1
