20
gdb 112087	3.23339	1.29664	1.03189	1.6715	81.4	-0.2234	0.0143	0.2377	1206.3912	0.171683	-403.112221	-403.103786	-403.102842	-403.145542	32.042	
C	 0.0599933268	 1.7662433747	-0.725311982	-0.236907
O	-0.3284701947	 0.443872254	-0.4331497357	-0.246172
C	 0.5839300543	-0.5512242386	-0.8978780629	 0.071627
C	 1.733614638	-0.749079656	 0.0532143948	-0.087143
C	 2.2451842742	-1.9475096849	 0.3234225121	-0.068642
C	 1.7047613735	-3.2144101347	-0.2823844849	-0.200401
N	 0.341986904	-3.1426969511	-0.8166773172	-0.113018
C	-0.6933822142	-2.597237488	 0.0578759844	-0.237259
C	-0.2188513834	-1.8214618187	-1.1188735259	-0.034094
H	 0.9996244424	 2.0544653422	-0.2300262633	 0.10461
H	 0.1839664993	 1.9237452475	-1.8085708718	 0.104514
H	-0.7350191083	 2.4224433826	-0.362382164	 0.128685
H	 0.9819100987	-0.223039349	-1.8749474166	 0.073912
H	 2.1453710054	 0.1459550323	 0.5107145236	 0.093655
H	 3.0887204096	-2.0454641979	 1.0031418034	 0.091423
H	 2.3622076778	-3.5420913483	-1.1009181425	 0.118797
H	 1.7264172929	-4.0238847716	 0.45830194	 0.114238
H	-1.6494255474	-3.1120674675	 0.0222604328	 0.112071
H	-0.4043223061	-2.2269607624	 1.0385126182	 0.119527
H	-0.8415832232	-1.7981443546	-2.0102630025	 0.090578
71.2831	95.1574	175.1275	211.6955	304.9714	313.7688	380.6238	388.6212	496.9945	519.3636	617.3994	707.6468	726.1003	835.9553	864.4359	919.9207	932.6799	965.9215	983.8675	1012.6947	1027.2768	1067.5398	1081.7239	1115.6388	1130.9852	1159.7016	1170.3315	1180.3471	1194.4449	1220.2548	1271.379	1320.1219	1344.4624	1355.9073	1372.3658	1398.172	1425.5668	1476.5259	1476.6145	1489.5352	1506.2536	1509.4455	1721.5279	2932.2206	2972.4614	3000.0021	3017.581	3041.5047	3105.6631	3112.0632	3127.2142	3145.2137	3174.2712	3191.6342
COC1C=CCN2CC12	CO[C@H]1C=CCN2C[C@@H]12	
InChI=1S/C7H11NO/c1-9-7-3-2-4-8-5-6(7)8/h2-3,6-7H,4-5H2,1H3	InChI=1S/C7H11NO/c1-9-7-3-2-4-8-5-6(7)8/h2-3,6-7H,4-5H2,1H3/t6-,7-,8?/m0/s1
