14
gdb 87349	1.91365	1.48577	0.97413	3.1203	64.58	-0.2854	-0.0325	0.2529	1176.6301	0.097832	-473.821403	-473.812431	-473.811486	-473.855754	31.188	
O	-0.0726932988	 1.3577875923	 0.0157527043	-0.417274
C	-0.0181623998	-0.01823743	 0.0969132332	 0.118473
C	-0.5973008864	-0.7678111372	 1.2634323096	-0.368997
C	-1.3058103033	-0.8132483972	-0.0890251949	 0.174182
O	-2.4251149695	 0.0314424993	-0.2597006963	-0.246155
C	-3.6079525287	-0.368856129	 0.3036503399	 0.167896
O	-4.581497153	 0.3087425335	 0.2433775231	-0.240512
C	-1.3211945655	-2.0197315566	-0.8722412098	 0.265485
N	-1.3208458413	-2.9973708018	-1.4906793678	-0.32553
H	-0.994578761	 1.6225696828	-0.1024393111	 0.310429
H	 0.8716761909	-0.4259911085	-0.3712004721	 0.142857
H	-0.1094947314	-1.6740724514	 1.6032602396	 0.153799
H	-1.0979227291	-0.1845195264	 2.0287417758	 0.148306
H	-3.533761903	-1.3562067196	 0.7898733265	 0.117039
65.8162	124.2547	138.7887	153.4779	168.4121	252.4076	306.2868	373.7746	438.2878	497.5544	514.8847	572.892	623.879	781.2029	836.1913	891.349	959.2156	1031.5093	1038.5614	1053.9902	1106.0577	1124.5806	1157.2762	1243.071	1265.9034	1353.0861	1416.5741	1423.8016	1461.9255	1885.6455	2349.4775	3006.218	3140.764	3176.3108	3239.9515	3769.8262
OC1CC1(OC=O)C#N	O[C@H]1C[C@]1(OC=O)C#N	
InChI=1S/C5H5NO3/c6-2-5(9-3-7)1-4(5)8/h3-4,8H,1H2	InChI=1S/C5H5NO3/c6-2-5(9-3-7)1-4(5)8/h3-4,8H,1H2/t4-,5-/m0/s1
