20
gdb 60297	5.53233	0.48819	0.46384	5.671	95.35	-0.2807	-0.0349	0.2458	2315.6305	0.169206	-366.017376	-366.006891	-366.005947	-366.053917	36.991	
C	 0.119945769	 1.5599396943	 0.0098820495	-0.38743
C	 0.0110457894	 0.0286104558	 0.0326866049	 0.04203
C	 0.7411810133	-0.5463444267	 1.2544188543	-0.397727
C	-1.447430169	-0.4624361556	 0.0148456384	-0.166486
C	-2.2157241523	-0.0943405218	-1.2750472187	-0.395814
C	-3.5616565891	-0.6399682567	-1.3000724427	 0.053421
C	-4.6775455802	-1.104647187	-1.2969853437	 0.090028
C	-5.9382093343	-1.6274745481	-1.2975413816	 0.203251
N	-7.0113939528	-2.0730123471	-1.2973675003	-0.3403
H	 1.1680607028	 1.8736430783	 0.0432484971	 0.118647
H	-0.3204053666	 1.9982891816	-0.8909145853	 0.114326
H	-0.3851072308	 1.999730889	 0.8782427553	 0.117693
H	 0.5055017537	-0.3617217532	-0.8691924559	 0.075952
H	 0.2850988396	-0.1907864585	 2.1859161086	 0.117452
H	 0.7072119836	-1.6405977198	 1.2630536886	 0.115236
H	 1.7925293282	-0.2419130192	 1.2633197872	 0.115771
H	-1.4642323162	-1.5522978353	 0.1255209639	 0.113662
H	-1.9863066854	-0.0541894462	 0.8787737418	 0.113496
H	-2.2775269882	 0.9946454499	-1.3876118756	 0.150341
H	-1.6660633848	-0.4635908335	-2.1514053261	 0.146452
42.5918	61.7194	102.2626	156.0829	181.2256	222.3067	241.8155	248.8716	344.6788	367.4388	406.8117	425.5959	500.4163	578.9728	582.957	723.8731	762.4839	835.8302	927.7869	934.5674	963.0052	976.8441	1021.1054	1131.7186	1140.4391	1174.8154	1193.4769	1230.3548	1282.5915	1314.8079	1347.8773	1370.7523	1385.4759	1402.7547	1424.0647	1462.2055	1484.6141	1490.2671	1498.0313	1505.9081	1510.9177	2264.6228	2400.6896	2995.0501	3019.9938	3026.4718	3030.2902	3037.0621	3056.1615	3081.6545	3092.7174	3098.7172	3103.2564	3105.6588
CC(C)CCC#CC#N	CC(C)CCC#CC#N	
InChI=1S/C8H11N/c1-8(2)6-4-3-5-7-9/h8H,4,6H2,1-2H3	InChI=1S/C8H11N/c1-8(2)6-4-3-5-7-9/h8H,4,6H2,1-2H3
