16
gdb 48590	3.36624	1.50846	1.32957	4.2909	68.5	-0.2416	-0.0389	0.2027	965.7786	0.124713	-437.811253	-437.804362	-437.803418	-437.842746	27.218	
O	 0.0714080737	-0.1437159367	-0.0001656915	-0.249226
C	 0.0930490266	 1.0476652554	-0.1820770104	 0.048695
C	 1.3344217472	 1.8717045234	-0.109622712	 0.19305
C	 1.7297404201	 2.6263451693	 1.2241619857	-0.268684
C	 3.1180742902	 2.4880465562	 0.5235158543	-0.073785
N	 2.6675560432	 1.1893235559	-0.0902335258	-0.321007
C	 2.9108514303	 3.4623490522	-0.6672691545	 0.055103
O	 2.7450806214	 2.8389289105	-1.9429021291	-0.216196
C	 1.5940081664	 3.0239244607	-1.128306956	-0.001246
H	-0.840202202	 1.6213511831	-0.3850063211	 0.077786
H	 1.3156788475	 3.6247181637	 1.4073177796	 0.102105
H	 1.6237085369	 1.9908493191	 2.1075961692	 0.115898
H	 4.063972967	 2.5064979829	 1.0625720736	 0.084533
H	 2.6187375915	 0.4876723295	 0.6486081815	 0.230824
H	 3.2746100117	 4.4834710728	-0.6550768701	 0.110847
H	 0.7951262783	 3.651234742	-1.5086419035	 0.111304
83.612	185.5418	241.2049	376.6389	412.1815	454.6068	516.253	649.6585	694.7298	730.2454	803.2092	823.9467	851.4441	876.6366	886.8074	901.5372	958.9367	986.3672	1003.1822	1024.6699	1045.4697	1075.5075	1086.5808	1130.3833	1201.3334	1222.0688	1229.7739	1251.6832	1269.7707	1304.5782	1346.2702	1400.6248	1427.5233	1492.469	1820.1232	2870.1812	3031.6014	3109.797	3133.6559	3173.1721	3187.6714	3470.8746
O=CC12CC(N1)C1OC21	O=C[C@@]12C[C@@H](N1)[C@H]1O[C@@H]21	
InChI=1S/C6H7NO2/c8-2-6-1-3(7-6)4-5(6)9-4/h2-5,7H,1H2	InChI=1S/C6H7NO2/c8-2-6-1-3(7-6)4-5(6)9-4/h2-5,7H,1H2/t3-,4-,5-,6-/m1/s1
