19
gdb 111583	3.19058	1.52479	1.3918	1.6345	74.46	-0.228	0.0673	0.2953	1011.7386	0.160161	-422.961545	-422.954029	-422.953085	-422.99378	29.239	
C	 0.2818913927	 1.2516658481	-0.1823316137	-0.240957
O	-0.2907201638	 0.0488965583	 0.2859697216	-0.239899
C	 0.5114731735	-0.633271392	 1.2006701048	 0.162126
C	 0.0523037614	-2.0682972647	 1.5340052737	-0.121595
C	-0.2072252966	-2.9022582704	 0.2521761759	-0.233061
C	 1.318739089	-3.0122421168	 0.0336377324	 0.106401
O	 1.8710458747	-1.7969493224	-0.5267371925	-0.297634
C	 1.9087570018	-1.1744652345	 0.7706246575	 0.042764
C	 1.5682358347	-2.5112178451	 1.4877452487	-0.10123
H	 1.2098074234	 1.0680425584	-0.7409102175	 0.123331
H	-0.4462304258	 1.7166914038	-0.8508849805	 0.127502
H	 0.4990887354	 1.9475400998	 0.6434875609	 0.099734
H	 0.6445328762	-0.0546065548	 2.1329238962	 0.059582
H	-0.6141278908	-2.2012536594	 2.3851124404	 0.070291
H	-0.6314576566	-3.8792297761	 0.5054456298	 0.097855
H	-0.7888461832	-2.4374017702	-0.5460551339	 0.119283
H	 1.7398385773	-3.9039056389	-0.4351459093	 0.076922
H	 2.7991362107	-0.5580068469	 0.910195458	 0.073665
H	 2.1391540959	-3.0022130962	 2.2701091574	 0.07492
71.4123	156.7106	187.0562	234.554	319.5434	404.4882	495.6498	583.7607	670.1605	717.4524	781.0198	827.8707	840.0039	851.0204	883.4793	939.0812	970.47	986.9512	1013.1095	1045.4488	1059.9275	1085.5577	1116.9756	1132.4549	1144.6986	1165.6705	1182.4225	1185.6137	1189.6218	1241.4604	1255.3203	1269.9779	1286.5437	1299.3436	1330.4445	1353.8436	1372.2005	1466.7979	1483.5967	1490.9773	1506.7707	2939.075	2978.7111	3039.6312	3053.2442	3084.6642	3088.9071	3115.3603	3117.7687	3125.4465	3160.4071
COC1C2CC3OC1C23	CO[C@H]1[C@H]2C[C@H]3O[C@@H]1[C@@H]23	
InChI=1S/C7H10O2/c1-8-6-3-2-4-5(3)7(6)9-4/h3-7H,2H2,1H3	InChI=1S/C7H10O2/c1-8-6-3-2-4-5(3)7(6)9-4/h3-7H,2H2,1H3/t3-,4+,5-,6-,7+/m0/s1
