16
gdb 57117	2.52137	1.45245	1.2255	3.6409	63.93	-0.2733	0.0165	0.2898	1057.8076	0.124554	-475.023886	-475.015443	-475.014499	-475.057698	30.021	
O	 1.3836772364	 1.1550112185	-0.404768817	-0.408711
C	 0.2702528378	 0.5232158184	 0.1784817479	-0.039487
C	-0.2042653262	-0.6197506614	-0.6330748263	 0.276439
N	-0.5414958752	-1.5200527431	-1.2737778475	-0.332301
C	 0.6213623785	 0.058443178	 1.6086499691	 0.190346
O	-0.4613027023	-0.6215384093	 2.1827556688	-0.261546
C	 0.0413040059	-1.8203752602	 2.7731579534	-0.088587
C	 1.2717506074	-2.1260187562	 1.9222647392	-0.11147
O	 1.7343672985	-0.815293963	 1.5699641483	-0.284912
H	 2.1278000729	 0.5454215951	-0.3043018243	 0.302165
H	-0.5323941475	 1.265586823	 0.2329528007	 0.146127
H	 0.9094025539	 0.946083175	 2.1916510301	 0.102327
H	 0.3079001742	-1.6483456788	 3.8246487525	 0.112244
H	-0.7373481465	-2.5830320824	 2.7138172092	 0.134836
H	 2.070857543	-2.6325712411	 2.4677704103	 0.123941
H	 1.0123135692	-2.6981643625	 1.0251385556	 0.13859
65.6965	83.6347	146.5344	178.1186	239.9792	270.4962	373.9535	420.7467	472.7184	602.7476	659.138	707.0222	752.5207	809.6267	900.2871	954.7621	970.4999	1005.7464	1037.2355	1076.9051	1097.6313	1150.8729	1184.369	1229.8566	1248.4754	1251.3793	1315.4892	1326.1112	1380.8627	1387.5121	1402.605	1427.5935	1514.1616	1522.7747	2356.5071	2999.7897	3018.2423	3051.6916	3077.753	3113.3217	3123.3286	3764.2756
OC(C#N)C1OCCO1	O[C@@H](C#N)C1OCCO1	
InChI=1S/C5H7NO3/c6-3-4(7)5-8-1-2-9-5/h4-5,7H,1-2H2	InChI=1S/C5H7NO3/c6-3-4(7)5-8-1-2-9-5/h4-5,7H,1-2H2/t4-/m0/s1
