17
gdb 106611	2.66723	1.60087	1.30205	2.5376	67.93	-0.2324	-0.0259	0.2065	1010.8539	0.136028	-458.942428	-458.934557	-458.933613	-458.974896	30.096	
O	 0.626810643	 0.3145358764	-0.8001521373	-0.419993
C	-0.1504102752	 0.3215238828	 0.3844903019	-0.192992
C	-1.4417756769	-0.4196874804	 0.1631381504	 0.311908
C	-1.5934491481	-1.9204295287	-0.235348974	-0.29045
C	-3.0505531431	-1.4750376265	-0.6252076801	-0.199581
C	-3.5495121123	-0.9956013648	 0.7481369574	-0.084719
O	-2.3823731662	-0.2756595892	 1.2374823179	-0.323185
C	-2.3280085287	-0.1908810048	-1.0844737635	 0.407586
O	-2.2973726042	 0.5105349773	-2.0533768458	-0.336422
H	 0.1217791949	 0.7818714923	-1.4767119141	 0.301133
H	 0.4487838924	-0.1601557377	 1.1635544633	 0.123644
H	-0.3837093562	 1.3397738449	 0.7295117186	 0.111264
H	-0.9747380866	-2.2126340616	-1.0839812466	 0.137314
H	-1.5136619928	-2.6269831417	 0.5935925849	 0.119776
H	-3.7185608724	-2.0532044681	-1.2580544055	 0.101099
H	-4.4079456501	-0.3177890432	 0.6864382876	 0.119675
H	-3.7877574975	-1.8172129372	 1.4325199147	 0.113944
90.0644	148.9646	162.1455	247.1876	300.9374	407.3477	448.2619	453.3103	490.8265	639.9576	659.3651	706.0404	781.1418	829.6994	860.0955	917.9014	944.5201	951.292	982.4113	1029.5714	1051.8452	1066.4288	1090.6005	1126.3346	1143.4604	1168.4972	1221.5249	1240.8561	1247.1554	1345.8836	1364.8974	1386.5505	1432.8332	1477.0439	1502.5354	1530.7625	1887.4628	3001.0018	3031.1427	3075.1928	3077.9165	3081.4885	3156.0247	3163.6249	3787.09
OCC12CC(CO1)C2=O	OC[C@@]12C[C@@H](CO1)C2=O	
InChI=1S/C6H8O3/c7-3-6-1-4(2-9-6)5(6)8/h4,7H,1-3H2	InChI=1S/C6H8O3/c7-3-6-1-4(2-9-6)5(6)8/h4,7H,1-3H2/t4-,6+/m0/s1
