16
gdb 125286	5.21492	1.24738	1.01938	5.5737	79.53	-0.2258	-0.0351	0.1907	1127.8089	0.126856	-396.944687	-396.937566	-396.936622	-396.976218	27.151	
C	-0.0214889634	 1.4746129571	 0.0753999302	-0.489223
C	-0.0016276598	-0.0142971002	-0.0276043896	 0.295948
C	-0.0385784632	-0.780217205	-1.1371774378	-0.349178
C	 0.0017311722	-2.182296883	-0.7516478095	 0.389722
C	 0.007597224	-3.5131954414	-1.1112456716	-0.212026
N	 0.0707967229	-4.2604629875	 0.0323030956	-0.190496
N	 0.1048781229	-3.4747685452	 1.0806022677	-0.172748
N	 0.0629618312	-2.222595051	 0.6042304504	 0.038214
C	 0.0682795057	-0.9026280717	 1.2098899919	-0.272026
H	 0.8760624399	 1.8540303513	 0.5797561726	 0.137396
H	-0.0736887164	 1.9352316884	-0.914036153	 0.13778
H	-0.8819756338	 1.8250979559	 0.659049534	 0.137384
H	-0.0899697022	-0.4207023734	-2.1551587063	 0.121652
H	-0.0281564021	-3.976608861	-2.0828144821	 0.122422
H	 0.9792711503	-0.7374376968	 1.7964686148	 0.152589
H	-0.7917424783	-0.7665931765	 1.8755667026	 0.152589
128.7588	162.0861	224.3288	267.1638	314.5385	461.9528	469.1977	525.682	697.8955	721.1213	772.2584	800.8632	823.2722	858.9889	885.3171	958.7216	1003.1372	1012.2786	1074.4419	1115.3665	1162.0268	1171.9567	1186.9709	1238.8428	1253.887	1295.8222	1334.4692	1358.3132	1415.8875	1449.0516	1476.8782	1479.4832	1490.398	1585.7608	1661.2186	3020.4377	3042.7694	3066.3893	3079.3564	3120.2498	3236.377	3279.4684
CC1=CC2=CN=NN2C1	CC1=Cc2cnnn2C1	
InChI=1S/C6H7N3/c1-5-2-6-3-7-8-9(6)4-5/h2-3H,4H2,1H3	InChI=1S/C6H7N3/c1-5-2-6-3-7-8-9(6)4-5/h2-3H,4H2,1H3
