15
gdb 78156	2.27508	1.8969	1.34632	1.4583	67.84	-0.2661	-0.0412	0.2249	963.3005	0.113186	-453.959039	-453.951548	-453.950604	-453.991082	28.175	
C	-0.189134934	 1.5162963429	 0.0947321052	-0.335363
N	 0.0469902998	 0.0817495815	-0.0565840538	-0.088979
C	 0.6291031733	-0.4946766061	-1.2564766559	-0.112272
C	 1.3713568231	-0.5150597736	 0.0490098947	-0.188165
C	 2.547760074	 0.3993454948	-0.1471967787	 0.432735
O	 3.4646587954	 0.6278174047	 0.5768418849	-0.309485
O	 2.4312080329	 1.0079607695	-1.3945745164	-0.225766
C	 1.4133545315	 0.4176941126	-2.1399201989	 0.413143
N	 1.2149191824	 0.6311063063	-3.3615339438	-0.519562
H	 0.5734364268	 2.1690532285	-0.3490673099	 0.134528
H	-1.153182885	 1.7457884221	-0.3664724106	 0.14474
H	-0.2576853536	 1.7356554627	 1.1633654289	 0.143722
H	 0.1251047905	-1.3430296362	-1.7034993078	 0.13455
H	 1.4913990555	-1.3700808272	 0.7040128275	 0.134257
H	 1.9013014774	 1.2859735575	-3.7405192355	 0.241916
123.4729	139.7172	181.9624	234.4803	363.1055	373.0297	445.9916	498.1733	627.4398	651.2515	697.6919	742.9298	780.1605	878.3465	891.0741	919.4839	927.7377	964.4407	1030.3798	1076.0821	1099.6448	1155.0176	1169.0585	1175.7222	1277.0978	1289.3517	1329.6191	1371.4555	1458.0258	1497.5145	1501.8998	1791.3145	1911.6871	3020.0656	3097.5738	3127.2763	3187.3079	3196.4163	3479.9713
CN1C2C1C(=O)OC2=N	CN1[C@@H]2[C@H]1C(=O)O[C]2[NH]	
InChI=1S/C5H6N2O2/c1-7-2-3(7)5(8)9-4(2)6/h2-3,6H,1H3	InChI=1S/C5H6N2O2/c1-7-2-3(7)5(8)9-4(2)6/h2-3,6H,1H3/t2-,3+,7?/m1/s1
