17
gdb 72975	2.72172	1.5033	1.21148	2.545	76.08	-0.2281	0.0237	0.2518	1065.6619	0.132639	-421.742851	-421.73392	-421.732976	-421.775802	34.082	
C	-0.137121125	 1.5262602453	 0.0574939382	-0.495672
C	 0.034424209	 0.0440745507	 0.1003046234	 0.42305
O	-1.1320224109	-0.7529805421	-0.0766731794	-0.314119
C	-0.6406447325	-1.7316323799	 0.8759576036	-0.107063
C	 0.6602790218	-0.963676317	 1.0579375527	-0.270508
C	 1.2625415746	-0.7366567885	-0.3348887892	 0.155905
O	 1.1103712646	-1.6880877449	-1.3479306799	-0.451571
C	 2.5148761679	-0.0244425463	-0.3390676442	 0.271997
C	 3.5812389824	 0.5335872062	-0.3517531307	-0.436493
H	 0.8224351375	 2.0294761811	 0.1921265969	 0.140457
H	-0.5488687658	 1.821757731	-0.9138118996	 0.140682
H	-0.8299292947	 1.8572864805	 0.8367442241	 0.128621
H	-1.2705124222	-1.7444516607	 1.771511799	 0.111456
H	-0.5748146322	-2.7333012847	 0.4402596957	 0.111265
H	 1.2314002131	-0.8404764857	 1.9685115115	 0.109126
H	 1.8159534836	-2.3374347943	-1.2466185749	 0.286906
H	 4.5164544588	 1.0363868495	-0.3745803272	 0.195962
128.9989	142.0775	184.7867	226.336	257.7945	277.0882	294.7908	329.9873	445.2041	477.4024	536.2579	564.4294	581.0136	673.5691	683.509	710.5882	775.4345	873.4804	934.6454	959.5373	968.9389	998.9229	1055.0339	1097.6235	1119.2825	1159.7453	1181.4086	1205.8418	1267.4234	1316.0915	1335.4103	1403.5005	1443.0981	1477.1474	1494.996	1504.0966	2225.3809	3039.3041	3041.02	3092.4056	3105.0529	3137.4265	3201.7181	3500.171	3793.6403
CC12OCC1C2(O)C#C	C[C@]12OC[C@H]1[C@]2(O)C#C	
InChI=1S/C7H8O2/c1-3-7(8)5-4-9-6(5,7)2/h1,5,8H,4H2,2H3	InChI=1S/C7H8O2/c1-3-7(8)5-4-9-6(5,7)2/h1,5,8H,4H2,2H3/t5-,6+,7-/m1/s1
