21
gdb 124602	2.44229	1.39274	1.10725	2.4442	85.44	-0.2262	0.0289	0.2551	1221.3273	0.182992	-383.310974	-383.301501	-383.300557	-383.345469	35.078	
C	-0.0026380054	 1.5493060815	 0.0659009398	-0.378566
C	 0.0447259404	 0.0182537575	 0.0155194362	 0.03425
C	 0.741241415	-0.4989149001	-1.2479434244	-0.378566
N	 0.6996803515	-0.5120548996	 1.2130952217	-0.010874
N	 1.9922577494	-0.1916068931	 1.4467490154	-0.273053
C	 2.2962253763	-0.8104807824	 2.5826499556	 0.002738
C	 1.2014075527	-1.534658263	 3.0891620741	-0.320149
C	 0.1807752636	-1.321786487	 2.17940813	 0.371083
C	-1.225114124	-1.8307284038	 2.1750655038	-0.50529
H	 1.0117192486	 1.9543835089	 0.0912071263	 0.147489
H	-0.5178841488	 1.9408176664	-0.8163599971	 0.11275
H	-0.5319422929	 1.8956487247	 0.9583059078	 0.118019
H	-0.9778695919	-0.3695004701	 0.0410676453	 0.092716
H	 1.7804815447	-0.1623230058	-1.2666543701	 0.147465
H	 0.7349000364	-1.5923042887	-1.2790262279	 0.118018
H	 0.2319459656	-0.1239511923	-2.1407857233	 0.112764
H	 3.2903097969	-0.7131952594	 2.9947708764	 0.105664
H	 1.1480575162	-2.1305171758	 3.9864618576	 0.09603
H	-1.9621021041	-1.0199090651	 2.2052455288	 0.135096
H	-1.4447611154	-2.4413154258	 1.2916505319	 0.135085
H	-1.3871994847	-2.4558136571	 3.0558054122	 0.137331
43.9932	121.7495	151.5042	199.5927	220.8122	248.883	254.2059	293.1348	379.0037	419.9104	519.6656	619.1422	658.5311	685.3387	712.4347	785.0296	883.727	890.3082	932.653	940.6503	951.1665	998.7829	1061.4038	1063.0608	1083.5669	1131.9675	1146.3166	1207.1347	1238.4017	1284.3267	1345.1206	1356.288	1388.9396	1395.3979	1415.5121	1418.9699	1442.9746	1480.0285	1483.3356	1485.3164	1491.2192	1494.9624	1509.7719	1516.943	1583.3218	3027.6337	3042.4322	3046.6416	3070.1474	3076.5786	3112.835	3116.8357	3125.2545	3132.1491	3137.9657	3237.8505	3263.2085
CC(C)N1N=CC=C1C	CC(C)n1nccc1C	
InChI=1S/C7H12N2/c1-6(2)9-7(3)4-5-8-9/h4-6H,1-3H3	InChI=1S/C7H12N2/c1-6(2)9-7(3)4-5-8-9/h4-6H,1-3H3
