19
gdb 102892	2.3273	0.87087	0.65906	4.4028	82.77	-0.242	0.0264	0.2684	1661.9815	0.156969	-382.033305	-382.022692	-382.021747	-382.069897	37.124	
C	 0.475156303	 1.2873838325	 0.3924083659	-0.32825
N	-0.2063166073	 0.1776154002	-0.257663837	-0.27287
C	 0.5141575448	-0.5142961796	-1.319637223	-0.139977
C	 1.1594803147	-1.8643582273	-0.9264545397	-0.188013
C	 2.2437631475	-1.7234595997	 0.1598256005	-0.375707
C	 2.8599954936	-3.0015000398	 0.4921611265	 0.284576
C	 3.3494475694	-4.0686162384	 0.7481207029	-0.413087
C	-0.3908253937	-0.7432152748	-2.4692571646	 0.295524
N	-1.0937332715	-0.9435757313	-3.3641166194	-0.323486
H	 1.429918904	 1.0337470602	 0.8822045807	 0.101794
H	 0.6747189651	 2.0745667046	-0.3424838861	 0.135743
H	-0.1892986284	 1.7121496161	 1.149864412	 0.133439
H	-0.6009580375	-0.4763507467	 0.4056710217	 0.228865
H	 1.3058030221	 0.15744205	-1.6762275903	 0.126816
H	 0.3748150552	-2.5450478358	-0.577468757	 0.128226
H	 1.5939706413	-2.3252917835	-1.8190271912	 0.136111
H	 3.0159209552	-1.0209032877	-0.1807507762	 0.134277
H	 1.8083370629	-1.2841399949	 1.0651705065	 0.135973
H	 3.7910667197	-5.005668914	 0.9815863877	 0.200046
54.1761	80.6785	92.5178	108.6196	156.0033	196.5008	215.0756	271.0142	348.1152	359.9986	406.7722	461.8718	558.6609	574.2174	626.8101	648.0029	655.491	764.7114	891.3487	937.1317	989.3134	1035.3906	1041.4916	1067.0038	1149.5923	1154.097	1169.4136	1229.5983	1266.5111	1313.3171	1328.4391	1365.7039	1385.1603	1461.7039	1469.7092	1482.6331	1493.4431	1500.7898	1521.5169	2242.4033	2356.8972	2966.1973	3019.9721	3031.6521	3050.722	3056.5185	3064.4504	3097.5412	3111.3362	3506.2744	3564.7138
CNC(CCC#C)C#N	CN[C@@H](CCC#C)C#N	
InChI=1S/C7H10N2/c1-3-4-5-7(6-8)9-2/h1,7,9H,4-5H2,2H3	InChI=1S/C7H10N2/c1-3-4-5-7(6-8)9-2/h1,7,9H,4-5H2,2H3/t7-/m0/s1
