18
gdb 68945	2.4749	1.68748	1.35928	2.7588	77.05	-0.2424	-0.0324	0.21	1012.2433	0.146545	-401.90008	-401.891888	-401.890944	-401.93261	31.306	
C	 0.1859642702	 1.4925795188	 0.149011932	-0.494128
C	 0.008278729	 0.0037838216	 0.065536901	 0.265298
C	 1.0833167703	-0.9302574937	-0.3992390404	-0.365357
C	 0.5606497436	-1.1187023993	 1.0022869148	 0.208779
C	 1.3837631408	-0.9504897178	 2.2058726355	 0.066825
O	 2.3919861831	-0.2797784998	 2.2499894726	-0.279011
N	-0.702663215	-1.8860777312	 0.9716038183	-0.166262
C	-1.7366398156	-0.9843885418	 1.5256400861	-0.24873
C	-1.295801071	-0.7558804539	 0.132193797	-0.091427
H	 1.1915261385	 1.7334175311	 0.5064799228	 0.150788
H	 0.0551634037	 1.9611453832	-0.8334683282	 0.12775
H	-0.536153136	 1.9435519646	 0.8369342384	 0.122186
H	 0.8663634252	-1.7152647812	-1.1180709265	 0.125291
H	 2.0807160919	-0.5056948637	-0.4489659086	 0.143113
H	 0.9951020203	-1.4780075537	 3.1051603736	 0.082596
H	-2.690644556	-1.4804544888	 1.6756698748	 0.127498
H	-1.4586072465	-0.2779523669	 2.3042593935	 0.119981
H	-1.9359538263	-0.9759877776	-0.7170095067	 0.104807
108.0018	150.3471	199.316	202.8492	234.34	305.0879	390.2029	480.4714	500.8404	558.8963	639.3305	717.0013	753.3726	768.1496	820.9215	846.4208	963.8849	979.4571	985.8679	1023.1804	1038.7916	1056.913	1085.1334	1106.7898	1117.1101	1128.8714	1159.2962	1215.843	1243.9204	1286.3403	1358.7477	1377.3455	1416.8136	1426.4606	1476.7739	1489.2079	1492.6507	1497.9032	1786.9441	2886.5675	3028.7376	3091.3722	3110.3848	3113.5246	3121.2755	3158.7681	3205.445	3219.7857
CC12CC1(C=O)N1CC21	C[C@@]12C[C@]1(C=O)N1C[C@@H]21	
InChI=1S/C7H9NO/c1-6-3-7(6,4-9)8-2-5(6)8/h4-5H,2-3H2,1H3	InChI=1S/C7H9NO/c1-6-3-7(6,4-9)8-2-5(6)8/h4-5H,2-3H2,1H3/t5-,6-,7+,8?/m0/s1
