17
gdb 130151	4.72118	0.80297	0.71952	2.0004	71.4	-0.2109	0.0202	0.2311	1530.4877	0.138018	-451.352759	-451.343793	-451.342848	-451.387497	32.359	
N	-0.0919416655	 1.3530581606	-0.0732725993	-0.583573
C	-0.0077620925	-0.0240081635	-0.0177591003	 0.386491
N	-1.0755797183	-0.8115846476	-0.0230606082	-0.298748
N	-0.4922254459	-2.0482070129	-0.032630759	-0.246169
C	 0.8489958444	-1.9489491113	-0.0182911679	 0.367349
C	 1.7829013461	-3.1119867232	-0.0483289485	-0.336816
C	 2.6054648141	-3.1613043339	-1.3505262689	-0.058143
O	 3.4889306394	-4.2665986954	-1.3807360727	-0.413305
N	 1.1955556048	-0.6693424433	-0.010181209	-0.361568
H	 0.7070643998	 1.8131197293	 0.337276313	 0.256528
H	-0.9715939297	 1.718707288	 0.2609159842	 0.255988
H	-1.0695654288	-2.8720079166	-0.0326835577	 0.27377
H	 2.4711283285	-3.0357046765	 0.8024128218	 0.122078
H	 1.2311887789	-4.0510796874	 0.0636036518	 0.111034
H	 1.9331076339	-3.2869002176	-2.2053183926	 0.118878
H	 3.1290652919	-2.2052399703	-1.4821745659	 0.12103
H	 4.1954132788	-4.0998435082	-0.7487746108	 0.285175
36.1788	92.1597	100.496	251.1125	294.2209	303.8224	319.0762	354.1372	389.408	460.6074	498.7052	621.7077	685.397	724.5523	778.0684	797.3567	823.442	1014.8651	1018.5134	1039.7933	1075.2854	1076.3704	1100.4298	1150.0505	1183.5391	1262.7384	1313.6401	1329.5066	1395.5142	1413.2794	1419.2422	1473.9338	1493.0093	1511.3092	1570.0936	1593.0657	1648.5677	3021.8617	3033.9842	3074.7007	3096.4548	3573.3179	3672.0877	3679.3337	3817.973
NC1=NNC(CCO)=N1	Nc1n[nH]c(CCO)n1	
InChI=1S/C4H8N4O/c5-4-6-3(1-2-9)7-8-4/h9H,1-2H2,(H3,5,6,7,8)	InChI=1S/C4H8N4O/c5-4-6-3(1-2-9)7-8-4/h9H,1-2H2,(H3,5,6,7,8)
