18
gdb 61614	2.51652	1.23683	0.95485	4.3447	72.88	-0.2432	0.0086	0.2518	1265.7627	0.144691	-439.061504	-439.051698	-439.050754	-439.097019	34.949	
C	 0.3446755374	 1.4756958571	-0.3057152896	-0.398535
C	-0.0930851972	 0.223675747	 0.4528413115	-0.014133
O	-1.5066509694	 0.2622401762	 0.5671010086	-0.259361
C	-2.0529646225	-0.6826521332	 1.459400402	 0.068567
C	-3.5550511182	-0.7149985383	 1.5205440545	-0.360881
C	-2.7975302708	-1.8409267871	 0.8442610154	 0.131078
O	-2.8349734507	-1.9622671662	-0.5400066088	-0.424928
C	 0.3750627211	-1.0016433269	-0.2326777584	 0.262418
N	 0.7501564653	-1.9477183874	-0.7798426247	-0.311104
H	 1.4324895585	 1.5026365609	-0.4014665105	 0.143347
H	-0.0977042321	 1.486682452	-1.3043587636	 0.147819
H	 0.0075081451	 2.3584137208	 0.2416484527	 0.140906
H	 0.356297432	 0.2239193026	 1.4575037199	 0.124312
H	-1.4735447994	-0.8154179986	 2.3713841664	 0.098539
H	-4.0274842304	-0.8785730964	 2.4828704938	 0.119886
H	-4.0749477034	-0.0299324887	 0.8592112582	 0.131391
H	-2.7531038557	-2.8084079294	 1.3347255507	 0.110202
H	-2.3536984997	-1.2116959045	-0.909055628	 0.290478
34.4538	74.8816	137.2606	185.8875	211.2086	221.1899	246.0891	293.9208	350.6307	385.2169	455.9882	564.428	601.2148	658.4171	767.5246	790.9634	807.0131	854.3923	937.0483	1010.3306	1038.7292	1073.4434	1079.7788	1108.9669	1120.5709	1130.0339	1144.9969	1184.9322	1233.017	1328.2117	1337.2875	1350.1779	1397.3839	1408.1654	1420.3971	1478.4496	1481.9136	1494.3838	2354.7591	2995.3173	3058.8312	3114.5089	3133.7145	3142.1019	3144.3464	3159.6338	3227.2523	3782.8475
CC(OC1CC1O)C#N	C[C@@H](O[C@H]1C[C@H]1O)C#N	
InChI=1S/C6H9NO2/c1-4(3-7)9-6-2-5(6)8/h4-6,8H,2H2,1H3	InChI=1S/C6H9NO2/c1-4(3-7)9-6-2-5(6)8/h4-6,8H,2H2,1H3/t4-,5-,6+/m1/s1
