16
gdb 66908	2.74676	2.02579	1.36956	2.937	77.86	-0.2352	-0.0814	0.1538	926.5417	0.123501	-400.654607	-400.647236	-400.646292	-400.686181	28.829	
C	-0.0120303156	 1.4857414328	 0.2042632631	-0.474335
C	-0.0626676417	 0.0358732915	-0.1821073783	 0.21315
C	 0.6987169351	-0.607893919	-1.2798480691	-0.126873
N	 1.3233362542	-0.6880092936	 0.0544487279	-0.178608
C	 1.2937605422	-2.2334612007	-0.0257434865	-0.174939
C	 0.1980137084	-2.0211063032	-1.050588615	 0.069899
C	-1.1026631559	-2.0689905557	-0.6647694345	-0.26137
C	-1.4027330171	-0.705694242	-0.120569208	 0.335089
O	-2.3911360569	-0.3062883297	 0.4434573909	-0.319273
H	 0.978910097	 1.9099547144	 0.03441053	 0.132402
H	-0.7487474064	 2.0503508063	-0.3755302361	 0.136677
H	-0.2685669033	 1.6007019114	 1.2613168472	 0.145099
H	 1.1611207805	-0.1477823479	-2.146146677	 0.114294
H	 2.287724233	-2.5072921663	-0.3875496822	 0.137144
H	 1.0363475548	-2.7784138082	 0.8854640716	 0.130486
H	-1.5477357381	-2.9207940101	-0.1590732641	 0.121158
119.9863	146.9545	248.1081	274.5555	392.5725	403.2259	431.0753	544.0451	604.2971	644.4779	716.356	727.5183	748.291	803.8327	854.8964	865.8164	932.604	999.7509	1019.5557	1044.6243	1062.6961	1070.6607	1076.6883	1105.3396	1181.8202	1238.1263	1244.0649	1276.7755	1347.4027	1415.4602	1479.7195	1486.0988	1498.6104	1550.8314	1800.3571	3049.5804	3064.0344	3113.8273	3132.9094	3140.4864	3174.2833	3178.3702
CC12C3N1CC3=CC2=O	C[C@@]12[C@H]3N1C[C]3[CH]C2=O	
InChI=1S/C7H7NO/c1-7-5(9)2-4-3-8(7)6(4)7/h2,6H,3H2,1H3	InChI=1S/C7H7NO/c1-7-5(9)2-4-3-8(7)6(4)7/h2,6H,3H2,1H3/t6-,7+,8?/m0/s1
