25
gdb 103069	1.97836	1.27255	1.09886	1.2346	89.86	-0.2502	0.0742	0.3244	1336.4782	0.225731	-389.483233	-389.4716	-389.470656	-389.519079	43.056	
C	-0.248845758	 0.970838395	-1.7320627251	-0.42178
C	-0.0236738504	-0.2120228434	-0.8142169536	-0.073307
C	 1.3370975837	-0.6801644985	-0.3265125334	 0.247
C	 1.6317772379	-2.1743542633	-0.3508949636	-0.453564
C	 2.5877273735	 0.1205410032	-0.6583398937	-0.447755
C	 0.3237409847	-0.0943559357	 0.6619385217	 0.298189
C	 0.56724452	 1.2655809732	 1.3013342368	-0.465963
C	-0.4162015501	-1.0142765312	 1.6136088831	-0.14735
O	-1.702899061	-0.4483057151	 1.8607641131	-0.422452
H	 0.4503202885	 1.7910689662	-1.5549223778	 0.112962
H	-0.139949101	 0.6730506366	-2.7812615788	 0.112714
H	-1.2612075317	 1.3701215206	-1.6054456516	 0.122615
H	-0.7117130832	-1.0288076583	-1.0275075995	 0.074825
H	 2.0908300317	-2.4471659171	-1.3089000745	 0.111208
H	 2.338172522	-2.4587291627	 0.4390157806	 0.10942
H	 0.7368742498	-2.7897067	-0.2385933188	 0.113713
H	 2.4262099081	 1.1982951916	-0.6840205606	 0.113565
H	 3.3771345175	-0.074765983	 0.077651103	 0.111581
H	 2.9784646173	-0.17667629	-1.6388518528	 0.111459
H	 0.9111165455	 2.0242665414	 0.5978264682	 0.10937
H	-0.3628452778	 1.6245778197	 1.7499208896	 0.13573
H	 1.3168106812	 1.1916710972	 2.0990695372	 0.105699
H	-0.5213012164	-2.0210236502	 1.1912110585	 0.07956
H	 0.1515424629	-1.108812345	 2.5545627543	 0.078677
H	-2.1281242046	-0.968538471	 2.5486525578	 0.283883
85.2782	136.9958	153.7105	157.1561	172.1949	182.5177	217.8962	240.1356	246.4112	285.9795	312.0862	342.1185	379.9458	392.0705	455.0243	510.6766	555.0949	681.95	713.4898	790.8476	941.8542	959.9898	969.5614	974.0303	997.4506	1021.1279	1052.6952	1058.0702	1096.4476	1125.6751	1129.9439	1164.4696	1202.9356	1209.746	1247.3919	1275.0944	1308.4986	1358.6681	1406.6243	1407.8078	1415.2742	1425.5152	1452.7036	1457.646	1478.4157	1487.8922	1492.5601	1496.5408	1501.8371	1504.2589	1510.1719	1519.9907	1530.0354	2960.0948	3018.8694	3025.7718	3030.2081	3033.5501	3034.7126	3071.0285	3076.1185	3085.4454	3101.8242	3104.6423	3117.9738	3123.4709	3132.7694	3146.9739	3828.6888
CC1C(C)(C)C1(C)CO	C[C@H]1C(C)(C)[C@]1(C)CO	
InChI=1S/C8H16O/c1-6-7(2,3)8(6,4)5-9/h6,9H,5H2,1-4H3	InChI=1S/C8H16O/c1-6-7(2,3)8(6,4)5-9/h6,9H,5H2,1-4H3/t6-,8+/m0/s1
