17
gdb 73185	2.47104	1.44673	1.3132	4.894	72.34	-0.2421	0.0135	0.2556	1049.0566	0.136209	-417.976024	-417.967796	-417.966851	-418.008962	31.224	
O	 0.4199981213	 1.2444193048	-0.0111020265	-0.472847
C	 0.0558123487	-0.0939891179	-0.0262005879	 0.394136
C	 0.3346620243	-0.959140684	-1.2851398458	-0.311603
C	-1.1485153946	-1.4521608704	-1.2843655553	-0.200575
C	-1.3991142018	-0.7014621249	 0.0427542098	-0.079992
N	-0.9795103789	-1.5189292407	 1.2158570085	-0.318017
C	 0.2999971757	-0.776044381	 1.3485154258	-0.162141
C	 1.4939866673	-1.6052470448	 1.5136885256	 0.302646
N	 2.4456540511	-2.2534746668	 1.6158622658	-0.336032
H	 0.4290268372	 1.5773471821	-0.914202935	 0.287929
H	 0.6012919074	-0.353264982	-2.1571281274	 0.099788
H	 1.1031103829	-1.7248678594	-1.157840784	 0.138689
H	-1.726671469	-1.0521582684	-2.1215762174	 0.101145
H	-1.2960423749	-2.5310581273	-1.2246123323	 0.119511
H	-2.3085725498	-0.1111108131	 0.1680529007	 0.078058
H	-1.5774178068	-1.432748594	 2.0284779405	 0.233269
H	 0.2961501098	-0.0002324423	 2.1238211749	 0.126037
67.7474	136.3596	176.9645	234.8179	285.9508	360.575	386.2676	410.8357	538.4496	548.8831	588.2985	666.6617	729.2644	746.5133	867.7966	881.4853	912.7201	947.6251	966.1707	1031.9751	1051.695	1069.0612	1084.6159	1109.9535	1144.9021	1180.371	1218.9122	1240.9989	1269.5216	1285.8925	1331.1581	1357.8605	1389.0267	1392.4392	1464.9649	1483.9004	2353.8702	3037.0251	3051.4377	3066.5979	3095.8856	3111.5668	3136.4528	3555.3002	3820.0167
OC12CCC1NC2C#N	O[C@]12CC[C@H]1N[C@H]2C#N	
InChI=1S/C6H8N2O/c7-3-5-6(9)2-1-4(6)8-5/h4-5,8-9H,1-2H2	InChI=1S/C6H8N2O/c7-3-5-6(9)2-1-4(6)8-5/h4-5,8-9H,1-2H2/t4-,5+,6-/m1/s1
