19
gdb 84856	2.50703	1.84795	1.23992	3.0052	76.02	-0.2273	0.0316	0.2589	1039.0955	0.161818	-419.196221	-419.188459	-419.187515	-419.228567	30.072	
C	-0.0410717865	 1.5679125398	-0.0039613887	-0.393514
C	 0.0746680496	 0.0427145363	-0.035732729	 0.048119
N	 0.7344644927	-0.3675214643	-1.2741813343	-0.275916
C	 1.4932973404	-1.3738815388	-1.2673342215	 0.132422
O	 1.8450491167	-2.20651119	-0.2520403721	-0.245273
C	 1.4547003513	-1.8739505999	 1.077976113	 0.11295
C	 2.6152194904	-1.2496432843	 1.8835791676	-0.184121
N	 2.0664758063	 0.0899280506	 1.5737757474	-0.310291
C	 0.7503587104	-0.5015696696	 1.221105617	-0.032219
H	 0.9547943445	 2.0137619356	 0.0671047779	 0.133189
H	-0.5143838601	 1.9246544505	-0.9217049658	 0.125833
H	-0.6377895636	 1.9005931048	 0.8527754087	 0.098202
H	-0.9409358644	-0.3807926692	-0.0665370628	 0.083818
H	 1.9757269551	-1.7129094438	-2.1825461642	 0.121483
H	 0.9610322632	-2.7515472445	 1.4967884286	 0.092569
H	 2.5731361987	-1.534695807	 2.9443247073	 0.093336
H	 3.6211953757	-1.4380600929	 1.4963249059	 0.114213
H	 2.0576441727	 0.7527381036	 2.3401615043	 0.220857
H	 0.038242447	-0.5189411967	 2.0595353006	 0.064344
87.356	129.027	229.2812	233.8612	302.4257	400.8323	411.2583	499.6674	525.3325	660.6833	695.3345	766.4595	805.4493	853.8726	877.1669	944.3607	959.6548	972.4853	994.1362	1012.0986	1048.5844	1069.1098	1103.5431	1125.2863	1148.6964	1171.0245	1197.3837	1230.1292	1260.0177	1315.6341	1334.2412	1348.4277	1370.7711	1380.6521	1385.2761	1397.6544	1421.178	1484.539	1503.5075	1509.2015	1739.1762	2977.2401	2993.0342	3001.7614	3036.9717	3078.0826	3102.5934	3110.3341	3130.5011	3155.29	3539.3711
CC1N=COC2CNC12	C[C@H]1N=CO[C@H]2CN[C@@H]12	
InChI=1S/C6H10N2O/c1-4-6-5(2-7-6)9-3-8-4/h3-7H,2H2,1H3	InChI=1S/C6H10N2O/c1-4-6-5(2-7-6)9-3-8-4/h3-7H,2H2,1H3/t4-,5+,6+/m1/s1
