22
gdb 120196	5.59264	0.80651	0.79109	0.9259	84.95	-0.213	0.0926	0.3056	1572.9984	0.193042	-404.261357	-404.252043	-404.251099	-404.295856	34.937	
C	 0.3184917627	 1.3587024183	-0.5147896201	-0.386063
C	 0.4968568583	-0.1402498113	-0.3472720909	-0.041409
O	 0.703306111	-0.4169206126	 1.0290799051	-0.2639
C	 0.7813810986	-1.7747078856	 1.3184389744	 0.197486
C	 2.1405948783	-2.5492755249	 1.1838287647	-0.071301
C	 2.6825988677	-1.6825662963	 2.3558163492	-0.251776
C	 1.2496885597	-2.1541381968	 2.7422903768	-0.074967
N	 1.5029722473	-3.5301194105	 2.1487473192	-0.11103
C	 2.3663869939	-4.4525944529	 2.8758718792	-0.324761
H	 1.2064452558	 1.8929471168	-0.1649698954	 0.126501
H	 0.155765726	 1.6077243699	-1.5676443942	 0.11522
H	-0.541374259	 1.7090038002	 0.0631351707	 0.127867
H	-0.3937768237	-0.6803997854	-0.7071957286	 0.091468
H	 1.3537618996	-0.4980969093	-0.9398280906	 0.091182
H	-0.0855726972	-2.3390913546	 0.9555134873	 0.076801
H	 2.6533004117	-2.8894279178	 0.2818685	 0.073444
H	 3.5147245879	-2.0846705026	 2.932281244	 0.097485
H	 2.8095508378	-0.6167925018	 2.1636285543	 0.11158
H	 0.7090464066	-2.0225311232	 3.6813809397	 0.078528
H	 1.78660579	-4.8970449067	 3.6918330862	 0.120453
H	 2.6540237281	-5.2629235831	 2.1975641792	 0.119852
H	 3.2873609992	-4.0327623496	 3.3079743898	 0.09734
64.7382	75.2012	122.2381	188.2222	235.9183	264.777	289.0783	339.3145	412.4319	440.4601	583.3117	602.3177	738.4479	770.5799	808.6958	820.15	893.4779	904.1547	908.025	947.0244	1004.6636	1048.2107	1060.166	1097.9611	1108.8261	1120.329	1132.3812	1155.0989	1176.5348	1186.7474	1197.4259	1201.4698	1215.1512	1232.722	1263.0156	1289.6462	1298.0961	1361.5168	1403.4076	1437.3407	1444.0527	1480.8676	1483.7469	1499.7058	1500.802	1518.5677	1528.5227	2968.8791	2981.9429	2997.1813	3045.0955	3046.1609	3061.0211	3088.3394	3094.271	3094.6105	3106.0399	3119.6632	3122.0039	3154.9139
CCOC1C2CC1N2C	CCO[C@H]1[C@H]2C[C@@H]1N2C	
InChI=1S/C7H13NO/c1-3-9-7-5-4-6(7)8(5)2/h5-7H,3-4H2,1-2H3	InChI=1S/C7H13NO/c1-3-9-7-5-4-6(7)8(5)2/h5-7H,3-4H2,1-2H3/t5-,6+,7+
