19
gdb 40281	3.05545	1.35142	1.04687	2.1095	78.48	-0.2437	0.005	0.2487	1159.7037	0.160286	-423.002615	-422.994736	-422.993792	-423.035198	30.739	
C	 0.7521120779	 1.420072355	 0.0744319815	-0.221281
O	 1.4596354885	 0.1925661891	-0.0374663641	-0.282255
C	 0.0190868652	 0.1316967897	 0.032081863	 0.372123
C	-0.4974881103	-0.4580790202	 1.3274349698	-0.278266
C	-2.0094129477	-0.3347563538	 1.5251145203	-0.091846
O	-2.7257288014	-1.2713717573	 0.7436148041	-0.234731
C	-3.0177786999	-0.8776704041	-0.5767034288	-0.141743
C	-1.8607121353	-0.6366599771	-1.5135070452	-0.080328
C	-0.6163515112	-0.2279509148	-1.2627151998	-0.10382
H	 0.8541631401	 1.9420296905	 1.0260780152	 0.111766
H	 0.7752728739	 2.0586913177	-0.8079574387	 0.112047
H	-0.2462453518	-1.524417513	 1.3578543206	 0.123331
H	 0.0246199689	 0.0218555887	 2.1621609653	 0.100417
H	-2.2547781418	-0.5659451868	 2.5667625992	 0.109332
H	-2.356321719	 0.6916954447	 1.3220105687	 0.088636
H	-3.6355361576	-1.6854670179	-0.9844862997	 0.119241
H	-3.6554642533	 0.02763181	-0.572407535	 0.100412
H	-2.1288787402	-0.779137544	-2.5593316465	 0.096203
H	 0.0549922346	-0.0830024565	-2.1062252	 0.100761
65.604	147.8124	238.2805	304.0527	327.9565	347.4807	417.3208	426.0462	494.4108	565.0535	658.8535	726.5886	787.6449	837.4547	858.3357	897.2132	919.2676	953.6359	982.7209	1009.9255	1032.2944	1038.7025	1103.7776	1137.0972	1157.41	1171.7538	1208.0367	1234.4231	1280.5393	1318.8075	1325.752	1350.9782	1387.6632	1400.0086	1419.3319	1437.116	1475.8444	1477.1324	1498.1091	1523.5641	1732.9788	2919.4145	2975.8888	3040.4988	3060.6045	3072.2848	3072.6799	3086.6128	3133.1785	3158.4941	3160.9501
C1OC11CCOCC=C1	C1O[C@]21CCOCC=C2	
InChI=1S/C7H10O2/c1-2-7(6-9-7)3-5-8-4-1/h1-2H,3-6H2	InChI=1S/C7H10O2/c1-2-7(6-9-7)3-5-8-4-1/h1-2H,3-6H2/t7-/m0/s1
