16
gdb 27302	3.23871	1.39429	0.98172	7.3631	75.73	-0.2223	-0.0091	0.2132	1156.0254	0.126144	-434.143413	-434.135109	-434.134165	-434.176092	31.4	
C	-0.0260139839	 1.5147373734	-0.0060451942	-0.47367
C	-0.0412302262	 0.0173311948	 0.0065434655	 0.150171
C	-1.1573506013	-0.7142161568	 0.1676414563	-0.086539
N	-1.100504578	-2.097799174	 0.1561681098	-0.357272
C	 0.1098108446	-2.7175695883	-0.0133041224	 0.460697
N	 0.0889665165	-4.0982651302	 0.0540251182	-0.571726
N	 1.2273744648	-2.090459633	-0.1813968999	-0.374313
C	 1.252669208	-0.6903573824	-0.1612681038	 0.315385
O	 2.2953238881	-0.0728433059	-0.2890455586	-0.367843
H	 0.6348849577	 1.8955342145	 0.7791598572	 0.14526
H	 0.3835588652	 1.8857542135	-0.9512816673	 0.143473
H	-1.0266739229	 1.9335035484	 0.1357926367	 0.103365
H	-2.1454619001	-0.29084916	 0.3069772141	 0.125135
H	-1.9115162231	-2.6355265575	 0.4141754207	 0.262754
H	-0.7005821877	-4.5606475353	-0.3743202275	 0.251793
H	 0.9772779783	-4.4915242112	-0.2242161246	 0.273331
94.5515	149.1249	187.4825	278.7605	313.6666	337.175	357.7052	403.7246	469.3209	483.7397	554.7395	582.6792	621.3245	743.0115	753.2956	796.0326	805.0819	885.1485	963.6096	1023.3663	1066.7933	1101.1931	1176.9495	1209.8384	1278.6811	1362.8606	1389.5675	1415.5466	1465.2748	1486.7059	1536.5364	1615.4848	1661.2377	1724.5653	1760.6681	3036.1149	3096.101	3113.6215	3195.6551	3559.889	3646.138	3667.7197
CC1=CNC(N)=NC1=O	Cc1c[nH]c(N)nc1=O	
InChI=1S/C5H7N3O/c1-3-2-7-5(6)8-4(3)9/h2H,1H3,(H3,6,7,8,9)	InChI=1S/C5H7N3O/c1-3-2-7-5(6)8-4(3)9/h2H,1H3,(H3,6,7,8,9)
