17
gdb 48483	2.06685	1.61793	1.20404	1.9107	75.2	-0.246	-0.0382	0.2078	1096.3945	0.134121	-421.800886	-421.792067	-421.791122	-421.835236	32.1	
O	-0.1164067614	 0.4927858879	 0.7830152382	-0.245712
C	 0.5196797075	 0.8791626269	-0.1591868209	 0.135527
C	 1.4802388805	 2.0949704491	-0.1409006917	 0.12377
C	 1.5277631277	 2.8006526828	 1.239690441	-0.301579
C	 3.0120986594	 2.714256311	 1.6369956873	-0.211511
C	 3.4662729756	 1.4602039271	 0.8927008845	-0.082074
O	 2.7814725753	 1.510298056	-0.3617448272	-0.290256
C	 1.1449212357	 2.9666190397	-1.2601875515	 0.27301
C	 0.8033026248	 3.6480437587	-2.189685334	-0.42758
H	 0.5247841029	 0.3489894629	-1.1329619097	 0.107865
H	 1.1582436482	 3.8240452275	 1.1795862302	 0.123626
H	 0.892101919	 2.2419495441	 1.9310270071	 0.141014
H	 3.5628533448	 3.5854676353	 1.2700965831	 0.116659
H	 3.1580042198	 2.644834097	 2.7175361901	 0.110349
H	 4.5361273357	 1.4269951357	 0.6730329277	 0.11787
H	 3.1932981725	 0.5496309425	 1.4468939608	 0.10469
H	 0.521017932	 4.2660054759	-3.006465995	 0.204333
46.1713	66.5877	159.2136	166.8198	232.5253	293.9243	348.0058	477.6534	490.2971	539.2777	599.4636	632.3792	663.977	668.1391	752.5696	870.2769	890.7385	934.445	938.2808	970.891	1019.5618	1037.0176	1071.8103	1153.5907	1166.0717	1212.7592	1246.4192	1272.6355	1324.8633	1338.6642	1384.2356	1404.9143	1487.1027	1500.5408	1519.4044	1833.2483	2233.1636	2934.8221	2994.3291	3060.3314	3081.1111	3100.5243	3113.7558	3140.9956	3498.9894
O=CC1(CCCO1)C#C	O=C[C@]1(CCCO1)C#C	
InChI=1S/C7H8O2/c1-2-7(6-8)4-3-5-9-7/h1,6H,3-5H2	InChI=1S/C7H8O2/c1-2-7(6-8)4-3-5-9-7/h1,6H,3-5H2/t7-/m1/s1
