21
gdb 122645	3.76425	0.72521	0.6497	2.2052	76.53	-0.2455	0.0606	0.3061	1765.1486	0.180326	-461.322863	-461.312489	-461.311544	-461.359597	35.87	
C	-0.0572264613	 1.3156557047	-0.2195602577	-0.22622
O	-0.023959122	-0.0845686511	-0.1000739192	-0.231811
C	-1.3105461925	-0.6537145578	 0.0186354896	-0.058715
C	-1.1623446484	-2.1671847283	 0.1037569874	-0.205921
C	-2.5115875542	-2.8531022737	 0.2324368112	 0.111631
O	-3.358625388	-2.6606236854	-0.9323770797	-0.293496
C	-3.3281888347	-4.0644545769	-1.2569505183	-0.098281
C	-2.5456407681	-4.3880007004	 0.0366824962	 0.042724
O	-1.2720706148	-4.9695660152	-0.0916341438	-0.418806
H	 0.9749982809	 1.6625892336	-0.3135753232	 0.123467
H	-0.6230168204	 1.6385323553	-1.10838981	 0.102369
H	-0.5122590662	 1.7928138983	 0.6638562552	 0.099551
H	-1.8198594961	-0.2640760181	 0.9187439185	 0.076519
H	-1.9359264117	-0.3859144343	-0.8479535199	 0.104512
H	-0.6393063299	-2.5329988469	-0.7840255155	 0.118376
H	-0.5439330175	-2.4272185273	 0.9704445502	 0.111002
H	-3.0315557012	-2.5057736439	 1.1360552524	 0.074164
H	-4.3355677243	-4.4880491029	-1.3498599761	 0.097465
H	-2.7557108897	-4.2709126215	-2.1706327087	 0.102641
H	-3.1470129983	-4.9054924835	 0.7940565043	 0.078345
H	-1.3741577716	-5.9237464047	-0.1553220928	 0.290482
60.1016	62.0502	95.2003	101.919	129.2949	207.4956	218.6791	235.3969	298.2948	402.5728	433.4106	469.1275	567.3035	745.7092	800.9	868.3549	892.8983	932.4686	995.4323	1025.7655	1051.352	1067.5661	1092.0851	1125.7891	1156.3743	1164.1985	1179.3815	1185.4475	1205.946	1225.9164	1241.598	1275.3743	1302.7045	1305.9334	1310.619	1351.867	1396.7135	1426.8316	1440.1571	1478.763	1481.004	1484.9997	1505.9186	1516.4297	1534.9476	2939.6966	2965.1661	2993.2924	3001.7433	3006.0625	3010.2516	3026.3507	3052.5622	3062.2019	3106.6368	3109.4597	3830.0523
COCCC1OCC1O	COCC[C@H]1OC[C@H]1O	
InChI=1S/C6H12O3/c1-8-3-2-6-5(7)4-9-6/h5-7H,2-4H2,1H3	InChI=1S/C6H12O3/c1-8-3-2-6-5(7)4-9-6/h5-7H,2-4H2,1H3/t5-,6-/m1/s1
