17
gdb 47312	3.23365	1.27161	0.98598	1.7818	68.92	-0.238	-0.0269	0.2111	1157.5019	0.138161	-455.203329	-455.19503	-455.194086	-455.236985	30.648	
O	 0.0442541695	 0.538465057	 1.3074280077	-0.299598
C	 0.0468186294	 1.2282271047	 0.3175541395	 0.40352
C	-1.2178991252	 1.6091098656	-0.4333869582	-0.303588
C	-1.3095375386	 3.1236006894	-0.6803120549	-0.176387
N	-0.4091095528	 3.6459089192	-1.7050080334	-0.324302
C	 0.6878093888	 3.0828118024	-2.3221469704	 0.40794
O	 1.0886769151	 3.4907253879	-3.3985673996	-0.405042
N	 1.3091748701	 2.0269077427	-1.6731792226	-0.335018
C	 1.3398672332	 1.8305662727	-0.2328892679	-0.280248
H	-1.2434400737	 1.0772442515	-1.3913133868	 0.144637
H	-2.0708003026	 1.2815383629	 0.1651570619	 0.130527
H	-2.3320898216	 3.3517720937	-0.9984811804	 0.125408
H	-1.1593007327	 3.6500359573	 0.2739511798	 0.118205
H	-0.7717340405	 4.4005744242	-2.2659430965	 0.254035
H	 2.1396521663	 1.7542520886	-2.1753830591	 0.256066
H	 1.5251270875	 2.7720178934	 0.3095498662	 0.13943
H	 2.1573438378	 1.153478997	 0.0199880047	 0.144415
45.3694	96.3535	154.9815	231.1967	309.2521	342.9037	425.7813	496.6985	504.7635	546.026	559.9681	599.4161	718.8124	747.7997	770.03	834.2427	919.6261	942.0698	960.5967	1076.5417	1113.5724	1168.9809	1180.1684	1240.857	1269.5438	1278.4814	1332.6759	1351.4613	1378.1042	1436.578	1446.4166	1452.6619	1469.5443	1491.668	1531.0288	1795.8345	1828.2475	2978.5683	2991.1555	3050.4799	3063.5234	3119.4629	3121.9376	3634.6749	3637.5201
O=C1CCNC(=O)NC1	O=C1CCNC(=O)NC1	
InChI=1S/C5H8N2O2/c8-4-1-2-6-5(9)7-3-4/h1-3H2,(H2,6,7,9)	InChI=1S/C5H8N2O2/c8-4-1-2-6-5(9)7-3-4/h1-3H2,(H2,6,7,9)
