16
gdb 67994	3.03702	1.76547	1.3226	4.5967	68.29	-0.2261	0.0072	0.2332	954.6866	0.125142	-437.872268	-437.865206	-437.864262	-437.903398	28.332	
C	-0.0306931579	 1.4870934518	-0.0033418793	-0.48955
C	-0.0321158184	-0.0153090281	-0.0254652857	 0.324846
N	 0.8909152677	-0.6744008052	-0.9130511567	-0.375568
C	 0.5389699644	-1.9920336174	-1.1475661141	 0.445552
O	 1.1426244392	-2.8059943442	-1.8037453562	-0.376008
C	-0.7028784669	-2.1980408772	-0.2635500221	-0.063066
O	-0.121072832	-2.1802333934	 1.0920978738	-0.297254
C	-0.4825986083	-0.8134501308	 1.2154819549	 0.045483
C	-1.317729602	-0.8033285315	-0.0407227774	-0.194644
H	 0.9292504883	 1.8798148642	 0.3496391912	 0.1289
H	-0.22134112	 1.8925652739	-1.0023318953	 0.136753
H	-0.8074749754	 1.8601280764	 0.6709260665	 0.130899
H	 1.8586853753	-0.3997634852	-0.991016334	 0.2523
H	-1.3016759218	-3.0856681538	-0.4509160651	 0.107375
H	-0.6125921907	-0.4063203227	 2.2119991457	 0.115115
H	-2.3043137816	-0.4374230068	-0.2922686362	 0.108866
166.4919	220.7514	250.9468	278.495	372.2769	457.0692	476.751	561.1179	574.4469	632.186	743.7454	759.2509	796.7144	852.0201	880.8825	898.2539	902.9153	944.2245	986.0637	1023.4288	1045.4797	1102.9765	1115.8584	1170.7665	1207.2679	1223.2423	1263.0861	1267.4944	1305.0088	1361.6266	1419.1984	1435.4448	1485.3464	1503.2801	1844.3953	3032.4954	3096.355	3111.4406	3159.0531	3178.1521	3201.2464	3623.8079
CC12NC(=O)C3OC1C23	C[C@@]12NC(=O)[C@H]3O[C@@H]1[C@@H]23	
InChI=1S/C6H7NO2/c1-6-2-3(5(8)7-6)9-4(2)6/h2-4H,1H3,(H,7,8)	InChI=1S/C6H7NO2/c1-6-2-3(5(8)7-6)9-4(2)6/h2-4H,1H3,(H,7,8)/t2-,3-,4+,6-/m0/s1
