23
gdb 120032	2.78296	0.95539	0.87128	2.5147	82.27	-0.2458	0.0597	0.3055	1488.2493	0.204848	-425.416562	-425.406439	-425.405495	-425.451963	38.016	
C	 0.3152809278	 1.501263199	-0.2782212599	-0.379274
C	 0.109827791	 0.0152627909	 0.0280784555	-0.166301
C	-1.3258521303	-0.4554450345	-0.2371555907	-0.185272
C	-1.5362368208	-1.937894743	 0.0326072571	-0.016499
C	-1.4280743442	-2.5020366693	 1.4774184571	 0.085492
O	-1.899641118	-1.5024848732	 2.3835649198	-0.436202
C	-2.5412861951	-3.5197049907	 1.1130581743	-0.282338
C	-2.973297222	-2.5562430005	-0.0323395284	 0.1221
O	-4.0084852464	-1.6688239877	 0.3295672241	-0.438552
H	 1.3450036887	 1.8136214037	-0.0769456214	 0.107363
H	 0.0992451445	 1.7231794447	-1.3293975218	 0.111898
H	-0.3473091712	 2.1246325798	 0.3323796664	 0.115426
H	 0.8091213782	-0.582446259	-0.5723357944	 0.086743
H	 0.3607793494	-0.1793217889	 1.0780247575	 0.1044
H	-2.0183789267	 0.1321769334	 0.3735193794	 0.101798
H	-1.5947098459	-0.2507341551	-1.2823505053	 0.092174
H	-0.8752586559	-2.5351217416	-0.6074525616	 0.072044
H	-0.4573954682	-2.8924841034	 1.8065286023	 0.064302
H	-2.0289207243	-1.9184971314	 3.2424716072	 0.287619
H	-2.1309254718	-4.4612543955	 0.7365615023	 0.10153
H	-3.2928530428	-3.7306696983	 1.8794211784	 0.092373
H	-3.2751761856	-3.0072271429	-0.9808035065	 0.076798
H	-3.7477831905	-1.2736940965	 1.1721637788	 0.282378
61.1536	77.129	108.7011	146.7537	234.8267	253.7982	268.96	329.0115	334.4833	382.1349	437.5747	500.5195	540.0868	602.1952	732.5751	758.4023	826.6661	861.0448	876.2935	885.6532	914.3416	917.5309	995.8747	1022.0211	1044.777	1056.5731	1097.867	1137.5823	1143.738	1167.2143	1184.0075	1219.7798	1238.5587	1255.6503	1266.6303	1301.0565	1319.7364	1326.4954	1335.689	1375.5527	1399.1192	1406.1441	1410.9965	1450.7892	1469.5694	1480.5345	1492.0624	1498.6379	1508.8089	3013.1557	3019.6424	3020.4423	3028.2751	3035.9871	3050.5868	3052.865	3080.9874	3083.2341	3096.7202	3099.2511	3111.0234	3760.4088	3809.8074
CCCC1C(O)CC1O	CCC[C@H]1[C@@H](O)C[C@H]1O	
InChI=1S/C7H14O2/c1-2-3-5-6(8)4-7(5)9/h5-9H,2-4H2,1H3	InChI=1S/C7H14O2/c1-2-3-5-6(8)4-7(5)9/h5-9H,2-4H2,1H3/t5-,6-,7+
