19
gdb 91514	2.60714	1.41858	1.12162	3.4152	76.65	-0.2297	0.0149	0.2447	1146.6342	0.159609	-419.206593	-419.197566	-419.196622	-419.240215	34.015	
C	 0.2943979581	 1.7666272482	 0.2262197903	-0.407375
C	 0.0778563696	 0.2640291242	 0.1115693112	-0.073484
C	 0.9218569986	-0.5418998244	-0.9482957575	-0.23921
C	 1.4714708599	-1.4099040263	 0.1871717436	-0.085482
N	 2.1596197818	-0.5117142132	 1.1151036565	-0.3689
C	 0.6848420221	-0.636161266	 1.2071739165	 0.267917
C	 0.1191325126	-1.2062407209	 2.4584447903	 0.297694
N	-1.1755446855	-0.8724626462	 2.7274766211	-0.542633
O	 0.7738260321	-1.9474811914	 3.1751715246	-0.385212
H	 1.3514022567	 1.9814761488	 0.4020602371	 0.145198
H	-0.0166972137	 2.2786949239	-0.6904924298	 0.114016
H	-0.281737609	 2.1923941063	 1.0561976091	 0.104576
H	-0.9840720939	 0.03207221	-0.0263486478	 0.068699
H	 0.2976264519	-1.0880016093	-1.6580557453	 0.104826
H	 1.6792288583	 0.0319642378	-1.488672362	 0.111506
H	 1.6759190837	-2.4734230464	 0.1836123011	 0.110981
H	 2.5106615774	-1.0871312616	 1.8840276254	 0.249764
H	-1.6579560199	-0.1613724948	 2.2069580562	 0.263294
H	-1.5686185908	-1.1827612186	 3.6008970595	 0.263826
75.4117	126.5696	187.9203	198.9895	211.1674	246.3237	304.0919	401.9324	433.7276	460.1706	553.9147	594.9187	650.1948	687.654	761.1621	817.968	855.515	887.7335	913.0414	942.4867	1004.2061	1020.6824	1078.4375	1091.4391	1109.7055	1111.2513	1163.3382	1181.7533	1229.5647	1246.4245	1297.8424	1310.6428	1352.0015	1379.4418	1404.9265	1437.7166	1479.7908	1490.6756	1507.0908	1613.6549	1767.8338	3028.5843	3039.4098	3066.0286	3089.8399	3123.9214	3126.9711	3196.2045	3452.1723	3606.1677	3741.4984
CC1CC2NC12C(N)=O	C[C@H]1C[C@H]2N[C@@]12C(=O)N	
InChI=1S/C6H10N2O/c1-3-2-4-6(3,8-4)5(7)9/h3-4,8H,2H2,1H3,(H2,7,9)	InChI=1S/C6H10N2O/c1-3-2-4-6(3,8-4)5(7)9/h3-4,8H,2H2,1H3,(H2,7,9)/t3-,4+,6-/m0/s1
