17
gdb 13441	3.51626	1.32766	1.17881	3.671	66.89	-0.232	0.0328	0.2648	1061.8754	0.141219	-401.002699	-400.993945	-400.993001	-401.036623	31.118	
C	-0.1401075508	 1.4739285332	 0.1597268092	-0.401611
C	 0.0548497261	-0.0225134567	 0.071241065	-0.057116
C	 1.3776672402	-0.6272545178	-0.3193929624	 0.034562
O	 2.4356650468	 0.2729152011	-0.5279209031	-0.421537
C	 0.8771414746	-0.7920031603	 1.0984233802	-0.005366
N	 1.6037432786	-0.0941351363	 2.112160093	-0.276703
C	 1.3668404432	-0.2578385166	 3.4397459113	 0.152292
O	 0.51073357	-0.9743972868	 3.914062833	-0.326556
H	 0.762838137	 1.9818981424	 0.5019512075	 0.122445
H	-0.4007532705	 1.8879826437	-0.8194437518	 0.122977
H	-0.9494475071	 1.7148441501	 0.8561984933	 0.126735
H	-0.8097892632	-0.5672247556	-0.2989723257	 0.096123
H	 1.381681708	-1.4924221512	-0.9797623942	 0.096304
H	 3.2587295944	-0.225630947	-0.4827178805	 0.295444
H	 0.5107410735	-1.7527929291	 1.4393627579	 0.124068
H	 2.3558886382	 0.5052545558	 1.8080407368	 0.247917
H	 2.0660375313	 0.3436567312	 4.0548308705	 0.070022
38.7743	125.8758	163.0761	180.8375	212.8393	255.829	279.8524	345.6694	504.4722	586.0687	595.0609	613.4712	741.7049	746.8262	838.6926	906.7506	985.4647	994.593	1026.7338	1080.737	1096.6625	1139.4178	1149.8637	1172.7755	1218.3049	1257.8118	1279.6044	1349.4266	1372.1842	1420.1996	1430.4173	1463.1288	1490.3053	1501.8409	1533.0749	1803.8614	2931.0047	3044.3209	3102.6322	3114.2279	3131.7913	3147.3591	3189.2737	3620.166	3805.2052
CC1C(O)C1NC=O	C[C@H]1[C@@H](O)[C@H]1NC=O	
InChI=1S/C5H9NO2/c1-3-4(5(3)8)6-2-7/h2-5,8H,1H3,(H,6,7)	InChI=1S/C5H9NO2/c1-3-4(5(3)8)6-2-7/h2-5,8H,1H3,(H,6,7)/t3-,4+,5-/m1/s1
