20
gdb 108145	3.87488	1.29074	1.16062	2.2309	77.38	-0.2356	0.0817	0.3172	1116.9177	0.173653	-403.12132	-403.113637	-403.112693	-403.153496	30.633	
O	 0.0212758857	 1.2814908299	 0.4735996833	-0.417242
C	 0.0186862943	 0.0185492476	-0.1723851253	-0.164771
C	-1.3732263567	-0.5400232056	-0.2716218365	 0.302388
C	-2.5580800957	 0.2157235334	-0.8649817357	-0.305787
C	-3.3997514838	-0.4051086944	 0.2787754254	 0.017308
C	-4.1119686439	-1.6858266177	-0.1428522947	-0.202963
C	-2.9385913904	-2.6026067317	-0.576345098	-0.251524
C	-1.7311188399	-1.9397332078	 0.0772889748	-0.072534
N	-2.13192489	-0.8542976778	 1.0111705348	-0.203283
H	-0.4452436493	 1.1483279024	 1.3081518688	 0.290755
H	 0.4410784995	 0.1816932851	-1.1707264986	 0.110485
H	 0.6681926674	-0.7005889534	 0.350992364	 0.089039
H	-2.4198386416	 1.2914045657	-0.7422970417	 0.120919
H	-2.8511660575	 0.0017098899	-1.8984174221	 0.091999
H	-4.0013153586	 0.2818070585	 0.8740105715	 0.077265
H	-4.6422019731	-2.1182667446	 0.7117977297	 0.108651
H	-4.8411078745	-1.5139517564	-0.9401886183	 0.102436
H	-3.0641961069	-3.6275777879	-0.2178841519	 0.108525
H	-2.8324871349	-2.6520462954	-1.6646614738	 0.109326
H	-0.92869736	-2.5665401098	 0.4546661242	 0.089007
81.2906	156.0302	208.0508	274.9248	324.0367	381.7893	455.2998	529.9394	590.5277	696.6	703.7361	772.4322	805.9507	828.6348	854.1625	866.7783	924.1965	945.4908	966.7192	994.1528	1026.1919	1035.8374	1066.533	1078.9863	1105.3506	1132.0804	1169.4077	1195.6853	1228.4351	1234.2878	1259.1882	1271.2841	1287.0642	1323.5631	1332.9105	1343.5046	1382.9158	1421.3375	1440.8158	1483.4263	1491.046	1494.629	1510.196	2981.2462	3042.8732	3047.5909	3054.6605	3062.6586	3087.362	3103.2605	3108.8937	3122.4157	3157.625	3780.8156
OCC12CC3CCC1N23	OC[C@@]12C[C@H]3CC[C@@H]1N23	
InChI=1S/C7H11NO/c9-4-7-3-5-1-2-6(7)8(5)7/h5-6,9H,1-4H2	InChI=1S/C7H11NO/c9-4-7-3-5-1-2-6(7)8(5)7/h5-6,9H,1-4H2/t5-,6+,7+,8?/m1/s1
