18
gdb 87642	2.77634	1.23128	1.0807	2.6871	73.7	-0.2418	0.0218	0.2636	1190.2128	0.14572	-439.083744	-439.074371	-439.073427	-439.118007	34.148	
C	-0.0754488871	 1.508401613	 0.0717714017	-0.41091
C	 0.0028719423	-0.0015345258	 0.0576912552	-0.046456
C	 1.3252569385	-0.7044134014	-0.2400006245	-0.373377
C	 0.7263284889	-0.7494438026	 1.1280104296	 0.405893
N	 1.2905233843	-0.2040723898	 2.3566947905	-0.402221
C	 0.7526599546	-1.1632496409	 3.1780958758	 0.419413
O	 0.7025713045	-1.3078448022	 4.3710789432	-0.373741
C	 0.2013802624	-1.9409528969	 1.9452062145	-0.14222
O	-1.1907594581	-2.1118351216	 1.8984407457	-0.429339
H	 0.8475479894	 1.9557947009	 0.4574095523	 0.103836
H	-0.2319927785	 1.9036886983	-0.9372266023	 0.126438
H	-0.9012165747	 1.8563450676	 0.7012845829	 0.129554
H	-0.8902172413	-0.5014201438	-0.3081422205	 0.109574
H	 1.3211963371	-1.6084506282	-0.8406002588	 0.121562
H	 2.1981062755	-0.0747186293	-0.3872630093	 0.112567
H	 1.7425827813	 0.6744961045	 2.5643402621	 0.253437
H	 0.7447560977	-2.8767230838	 1.752513726	 0.095031
H	-1.4618185568	-2.497728458	 2.7394031658	 0.30096
71.2948	121.9344	132.3897	177.943	202.6461	230.4342	267.4715	343.9442	391.0461	467.3079	520.1834	550.4827	566.6146	727.5859	786.8848	805.5415	876.2826	892.6113	906.9059	986.9293	1016.9118	1045.6479	1103.2069	1123.9069	1139.6234	1160.2775	1177.1924	1183.3167	1246.3393	1298.0944	1319.7544	1358.1365	1391.1567	1415.8851	1448.5101	1490.6778	1496.7321	1519.4708	1894.2694	3008.3204	3028.7098	3091.1608	3098.7461	3119.6579	3148.2302	3205.6398	3605.1973	3802.4647
CC1CC11NC(=O)C1O	C[C@H]1C[C@]21NC(=O)[C@H]2O	
InChI=1S/C6H9NO2/c1-3-2-6(3)4(8)5(9)7-6/h3-4,8H,2H2,1H3,(H,7,9)	InChI=1S/C6H9NO2/c1-3-2-6(3)4(8)5(9)7-6/h3-4,8H,2H2,1H3,(H,7,9)/t3-,4+,6+/m0/s1
