18
gdb 98549	3.59188	1.1745	0.98	1.535	74.3	-0.2284	0.0093	0.2377	1235.5768	0.147569	-439.070409	-439.061724	-439.06078	-439.104424	31.541	
C	 0.4396058469	 1.3436461368	-0.1121273021	-0.238793
O	 0.6345885525	-0.073433055	-0.0389481071	-0.228633
C	 0.2864739199	-0.6350892974	 1.1315412539	 0.38626
O	-0.1665228175	-0.0209477003	 2.0702658563	-0.394678
C	 0.5141289208	-2.0991203789	 1.1330106073	 0.226498
C	-0.3416408728	-2.9969979022	 2.0042850632	-0.312288
C	 1.1291995039	-2.9405675591	 2.2627097004	-0.111879
C	 1.8854609417	-3.6992688314	 1.1707544269	-0.173203
N	 1.2849108498	-2.8185662612	 0.1205522729	-0.365316
H	 1.0444541297	 1.8557221311	 0.6406233155	 0.139677
H	 0.7529054608	 1.6336462935	-1.1150488086	 0.132632
H	-0.6105911456	 1.5990956964	 0.0514446121	 0.138631
H	-0.9592556898	-2.466696574	 2.7200113861	 0.143618
H	-0.7887131297	-3.8812299394	 1.555006055	 0.105353
H	 1.5423916513	-2.5723012082	 3.1918269939	 0.11577
H	 2.9721691725	-3.5786620349	 1.2099149647	 0.117322
H	 1.6481156592	-4.7668773154	 1.0887904963	 0.102065
H	 0.7089466264	-3.3075599604	-0.560154227	 0.216964
53.42	111.385	133.008	160.0452	216.9779	313.1453	343.3298	388.9099	442.7235	513.3466	707.9167	744.5326	791.9026	836.6326	863.6693	886.2125	949.3135	960.446	991.483	1005.7379	1013.8637	1048.8325	1074.9612	1121.1637	1173.9139	1178.7578	1200.3807	1220.2542	1225.5113	1301.1782	1338.1786	1368.6084	1393.8603	1468.3472	1476.3293	1481.9141	1497.5057	1512.0885	1796.0029	3026.5329	3050.6328	3079.1209	3109.122	3124.0538	3158.1713	3211.6836	3224.6852	3485.65
COC(=O)C12CC1CN2	COC(=O)[C@]12C[C@H]1CN2	
InChI=1S/C6H9NO2/c1-9-5(8)6-2-4(6)3-7-6/h4,7H,2-3H2,1H3	InChI=1S/C6H9NO2/c1-9-5(8)6-2-4(6)3-7-6/h4,7H,2-3H2,1H3/t4-,6-/m0/s1
