18
gdb 52723	3.67599	0.60611	0.5389	4.7216	82.58	-0.2642	0.0239	0.2881	1996.2756	0.144912	-401.940585	-401.929794	-401.928849	-401.9789	36.316	
C	-0.0865290852	 1.488731929	-0.0030145131	-0.500954
C	-0.0145480684	 0.0351323872	 0.0029133352	 0.127963
C	 0.0510059285	-1.1674566942	 0.0253875182	 0.00432
C	 0.0958722217	-2.6290143883	 0.0020548145	-0.06545
O	-1.2048871079	-3.2084752022	 0.1172646777	-0.41963
C	 0.8245139858	-3.1406183178	-1.2571842722	-0.187655
C	 0.8844459489	-4.6793974887	-1.2726971212	-0.342786
C	 1.4991324525	-5.202231298	-2.4891192743	 0.250999
N	 1.9870620464	-5.5993908344	-3.4585697186	-0.306565
H	 0.7354881467	 1.9246808028	 0.5748601607	 0.156661
H	-0.0273904637	 1.8881180294	-1.0210919796	 0.15375
H	-1.0250805092	 1.8386695622	 0.440119567	 0.155522
H	 0.6371588996	-2.9907770163	 0.8866731616	 0.116707
H	-1.7974348761	-2.6979324458	-0.4457892145	 0.287861
H	 0.2976033833	-2.7799223445	-2.1469003392	 0.121721
H	 1.8337364106	-2.7189783239	-1.2885471141	 0.129699
H	 1.4516038105	-5.0471756312	-0.4091432273	 0.149689
H	-0.129112524	-5.0807792952	-1.1777213509	 0.168148
17.6758	61.229	67.8886	87.3177	155.9511	170.2251	254.3912	285.5799	302.4365	345.9664	395.3967	417.7355	479.9273	551.8308	588.4719	764.3573	790.472	914.0304	955.7331	1033.3726	1051.1452	1053.4897	1059.6478	1075.5917	1156.8809	1189.9818	1255.0888	1267.7664	1319.1689	1347.6117	1379.7207	1413.2323	1420.4523	1469.9434	1475.6025	1477.375	1486.7475	2362.4259	2367.7436	3019.0394	3030.8168	3042.6539	3055.6052	3088.8755	3093.8981	3094.0998	3108.0357	3806.3851
CC#CC(O)CCC#N	CC#C[C@@H](O)CCC#N	
InChI=1S/C7H9NO/c1-2-4-7(9)5-3-6-8/h7,9H,3,5H2,1H3	InChI=1S/C7H9NO/c1-2-4-7(9)5-3-6-8/h7,9H,3,5H2,1H3/t7-/m1/s1
