16
gdb 15529	2.98146	1.96687	1.28662	4.7109	71.09	-0.2355	0.0047	0.2402	941.6864	0.131354	-342.801253	-342.793435	-342.792491	-342.833604	28.348	
C	-0.1258796583	 1.5167489688	 0.0218433141	-0.499301
C	-0.0133716758	 0.0285508214	-0.0168896168	 0.348168
C	 0.0744461486	-0.784896922	-1.0656798158	-0.177626
C	 0.1568364798	-2.2280468453	-0.6619154437	-0.203527
N	 0.3004667631	-2.1604847962	 0.8014430694	-0.302212
C	-0.0164034706	-0.8066218221	 1.2601834973	-0.217715
C	 0.969890095	-0.3219388338	 2.2514936207	 0.298047
N	 1.7212731405	 0.0806632378	 3.0317678505	-0.335356
H	 0.691987125	 1.9590875594	 0.6022086441	 0.156005
H	-0.1039090839	 1.9400204609	-0.985045493	 0.131306
H	-1.0598523344	 1.8318873013	 0.5044169814	 0.131588
H	 0.0788861882	-0.4678181769	-2.1017130734	 0.105356
H	-0.7432959949	-2.7808949532	-0.9794498625	 0.102234
H	 1.0157864359	-2.7409810624	-1.1179143151	 0.118754
H	-0.2288423664	-2.8675574137	 1.2903821972	 0.231572
H	-1.003167292	-0.727730834	 1.7513892259	 0.112706
73.6914	137.7581	177.9987	239.7609	242.5861	318.841	432.6789	502.2959	543.0359	590.8279	654.6322	807.5534	816.7467	880.4536	945.2547	973.1732	994.6232	1039.921	1048.1308	1073.6629	1128.8473	1187.7106	1203.0622	1260.4323	1304.2459	1335.2798	1375.6303	1419.4101	1445.1071	1478.1439	1489.8881	1521.4178	1739.1576	2353.7239	2931.1087	2959.4673	3004.516	3024.7028	3076.6288	3122.9966	3207.3223	3595.3593
CC1=CCNC1C#N	CC1=CCN[C@H]1C#N	
InChI=1S/C6H8N2/c1-5-2-3-8-6(5)4-7/h2,6,8H,3H2,1H3	InChI=1S/C6H8N2/c1-5-2-3-8-6(5)4-7/h2,6,8H,3H2,1H3/t6-/m0/s1
