15
gdb 23331	2.17433	1.6194	1.08143	1.7233	75.89	-0.2474	0.0171	0.2645	1102.4055	0.111176	-416.634557	-416.626529	-416.625584	-416.66723	30.614	
O	-0.0906076033	 1.3736290346	-0.0913156002	-0.396651
N	 0.0582792466	-0.0294888889	-0.0873858191	-0.317031
C	-1.0541685198	-0.6078330137	-0.0432551686	 0.576601
C	-2.5650514016	-0.4312243015	 0.0103151806	-0.139406
N	-2.5981615319	-1.5351686793	-1.0471103481	-0.328562
C	-1.585235338	-2.0236386171	-0.0120634019	-0.129959
C	-2.5570242413	-1.5399536362	 1.1380730808	-0.193135
C	-2.0631365017	-1.2574161902	 2.4676120222	 0.286731
C	-1.651100791	-1.0228294171	 3.5723403309	-0.411187
H	 0.82530851	 1.668843014	-0.1317711593	 0.308723
H	-3.1717340594	 0.4686385845	-0.0510151093	 0.113465
H	-3.4661467372	-2.0695243387	-0.9231955736	 0.215116
H	-1.0581590209	-2.9713320137	-0.0984451003	 0.108186
H	-3.4907753645	-2.1127692817	 1.15505492	 0.106141
H	-1.281330676	-0.811419455	 4.5452919557	 0.20097
81.6879	154.2378	191.6422	206.6207	316.5826	388.4379	434.5548	488.9892	507.474	551.5386	637.7566	650.098	719.4853	743.82	759.9072	849.8439	859.4421	904.9169	958.7565	989.2084	1058.3731	1096.6993	1103.7336	1131.1792	1144.9193	1156.7028	1217.1743	1274.1046	1297.6344	1367.1421	1419.4454	1853.0167	2235.3251	3049.7759	3152.2466	3162.0711	3363.8547	3502.3962	3819.9416
ON=C1C2NC1C2C#C	ON=C1[C@H]2N[C@@H]1[C@H]2C#C	
InChI=1S/C6H6N2O/c1-2-3-4-6(8-9)5(3)7-4/h1,3-5,7,9H	InChI=1S/C6H6N2O/c1-2-3-4-6(8-9)5(3)7-4/h1,3-5,7,9H/t3-,4-,5+
