19
gdb 46112	3.46295	0.92832	0.76354	2.7513	81.1	-0.2382	-0.0153	0.2229	1459.6864	0.158127	-385.896514	-385.887588	-385.886644	-385.930719	33.565	
O	-0.029935967	 0.016350593	-0.3237893786	-0.310733
C	-0.0355668107	 1.1936130937	-0.0761904876	 0.401262
C	-1.2848685102	 2.0625145354	 0.1266036193	-0.326004
C	-0.7542593339	 3.39050513	 0.6846690318	-0.234753
C	 0.6598408065	 3.5245619091	 0.0721522038	 0.022112
C	 1.5401547696	 4.5584937304	 0.795050945	-0.377923
C	 2.8556463627	 4.7236512243	 0.1871850329	 0.299226
C	 3.9321323157	 4.8440993516	-0.3338546119	-0.438473
C	 1.1993714174	 2.0854710472	 0.0925800058	-0.319832
H	-1.7476361534	 2.2017601865	-0.8593598819	 0.132898
H	-2.019980438	 1.5523113452	 0.7533159696	 0.129461
H	-1.3929417127	 4.2466449873	 0.4515818317	 0.10609
H	-0.6737197827	 3.3332903757	 1.7780508367	 0.104026
H	 0.5553315819	 3.840937567	-0.9736339017	 0.091391
H	 1.0222379858	 5.5267254068	 0.8110367105	 0.130183
H	 1.6566695267	 4.2585817406	 1.8458210632	 0.12748
H	 4.8869116533	 4.9570737192	-0.7844532738	 0.197056
H	 1.637789354	 1.8519620713	 1.0739247444	 0.128317
H	 1.961399115	 1.8630857956	-0.656441639	 0.138217
69.7275	83.6796	108.2765	175.6321	274.4539	349.9573	387.9256	422.1557	480.0315	489.5891	567.9035	603.1455	623.3094	643.309	729.5239	812.0527	856.5347	879.5424	936.3369	946.2035	967.8875	996.6692	1061.8728	1101.2132	1144.1894	1163.2111	1168.5345	1223.2042	1254.7028	1268.9934	1290.5058	1304.0267	1340.7091	1360.8306	1382.4485	1448.0977	1451.2954	1470.2442	1498.9469	1849.1156	2238.8426	3007.7544	3015.0293	3021.4508	3030.8296	3035.9604	3046.0808	3092.4592	3108.9089	3119.9957	3506.6459
O=C1CCC(CC#C)C1	O=C1CC[C@@H](CC#C)C1	
InChI=1S/C8H10O/c1-2-3-7-4-5-8(9)6-7/h1,7H,3-6H2	InChI=1S/C8H10O/c1-2-3-7-4-5-8(9)6-7/h1,7H,3-6H2/t7-/m1/s1
