15
gdb 16191	3.26084	2.37588	1.53981	2.9631	68.06	-0.2457	-0.0529	0.1927	809.1605	0.120692	-362.674723	-362.668145	-362.667201	-362.70545	25.248	
O	 0.1313950849	 0.0050765286	-0.1000772261	-0.359826
C	 0.0312496495	 1.2108264851	-0.0057820512	 0.33366
C	-1.1914251984	 2.03823915	 0.0582460763	-0.175702
C	-0.8626889362	 3.3382066214	 0.046769286	-0.060495
C	 0.6265000188	 3.58025031	-0.0220629054	-0.361963
C	 1.196755814	 2.1725884217	 0.0235754346	 0.239205
C	 2.4273324683	 1.7424599194	 0.746885635	-0.270587
N	 2.4129481872	 1.8003924154	-0.7133791601	-0.350824
H	-2.1872462885	 1.6161029719	 0.0880235598	 0.121859
H	-1.5712254409	 4.1591189295	 0.0780840441	 0.120301
H	 0.9049844865	 4.0950226544	-0.9495088784	 0.140273
H	 0.9673139935	 4.2158102478	 0.8041389146	 0.124228
H	 3.039109313	 2.4970479475	 1.2340722723	 0.12154
H	 2.3988329443	 0.7689326798	 1.2292131767	 0.132888
H	 2.2695813638	 0.8553223676	-1.0733304583	 0.245442
98.553	244.1577	266.0941	303.545	390.067	460.8462	579.3105	678.9036	697.146	768.189	831.3819	838.3161	898.3491	946.2728	967.4422	984.0031	1005.1237	1027.9781	1069.417	1111.1049	1127.5066	1169.0895	1180.8103	1265.2679	1299.9753	1323.1849	1360.6417	1403.6741	1468.1232	1496.5445	1637.9386	1798.8188	3034.0513	3064.7525	3106.2797	3192.1864	3200.3247	3231.1986	3451.1086
O=C1C=CCC11CN1	O=C1C=CC[C@]21CN2	
InChI=1S/C6H7NO/c8-5-2-1-3-6(5)4-7-6/h1-2,7H,3-4H2	InChI=1S/C6H7NO/c8-5-2-1-3-6(5)4-7-6/h1-2,7H,3-4H2/t6-/m1/s1
