23
gdb 92344	2.75031	1.50321	1.33728	1.2687	84.15	-0.2365	0.0776	0.3141	1105.231	0.209465	-388.323348	-388.315562	-388.314618	-388.355071	32.537	
C	 0.1375432988	 1.6080959542	 0.0634821924	-0.399776
C	 0.007928393	 0.0940354808	-0.0206421726	 0.155223
C	 0.6337117795	-0.4944594966	-1.2986270402	-0.219239
C	 0.8380268586	-2.0162153883	-1.1723535469	-0.010458
C	-0.4701740679	-2.7405715826	-0.754955406	-0.215843
C	-0.5092819885	-2.6222517102	 0.7990229783	-0.234377
C	 0.7798300121	-1.8519578204	 1.1697246401	 0.132683
C	 1.7456119252	-2.2583424446	 0.0479242745	-0.219566
O	 0.6058563651	-0.4348669797	 1.1635758793	-0.287983
H	 1.1921578113	 1.900890841	 0.068356242	 0.119336
H	-0.3532900489	 2.0844874195	-0.7910154401	 0.109557
H	-0.3247466312	 1.9797709864	 0.9820828682	 0.120733
H	-1.0649701726	-0.1609054767	-0.0185710737	 0.064392
H	-0.0142457378	-0.2549021577	-2.1505444901	 0.090029
H	 1.6032983173	-0.0151717417	-1.4845887552	 0.09216
H	 1.2476609636	-2.4166435679	-2.1039388947	 0.058067
H	-1.3522773961	-2.301407223	-1.2310409775	 0.09507
H	-0.4318893331	-3.7899856466	-1.0624092329	 0.095042
H	-1.39737772	-2.1070815529	 1.1738646401	 0.107397
H	-0.4894600145	-3.6099190764	 1.26910177	 0.096764
H	 1.1380145887	-2.0859979768	 2.1750460475	 0.069401
H	 2.0220019267	-3.3153679996	 0.1394835053	 0.086791
H	 2.6577490806	-1.6556132102	 0.0481012625	 0.094595
142.7571	195.4102	236.9653	291.8106	343.5424	368.2453	425.8827	452.772	495.5924	530.8394	747.3873	764.7454	790.1697	809.5876	816.2673	885.7493	896.3719	913.7392	923.1812	963.2143	983.49	997.6059	1010.481	1049.3318	1068.2312	1102.4804	1129.4338	1158.1329	1178.814	1183.4626	1220.2868	1231.5061	1261.7668	1280.363	1306.8751	1315.0892	1346.3794	1347.8843	1360.6634	1382.724	1393.962	1402.6197	1411.1817	1475.7676	1481.4341	1484.7295	1488.7162	1500.8726	1508.7059	2956.5614	3018.6735	3036.5788	3039.4347	3044.3976	3057.9076	3061.7409	3066.3576	3082.0615	3085.5482	3099.5884	3107.4778	3112.9327	3117.9476
CC1CC2CCC(C2)O1	C[C@H]1C[C@@H]2CC[C@@H](C2)O1	
InChI=1S/C8H14O/c1-6-4-7-2-3-8(5-7)9-6/h6-8H,2-5H2,1H3	InChI=1S/C8H14O/c1-6-4-7-2-3-8(5-7)9-6/h6-8H,2-5H2,1H3/t6-,7-,8-/m0/s1
