25
gdb 123050	6.22722	0.51975	0.50045	0.9127	91.43	-0.2477	0.0881	0.3358	2307.9047	0.22813	-389.479819	-389.469184	-389.46824	-389.516867	38.094	
C	-0.0619209802	 1.5221984171	-0.0132346807	-0.383987
C	-0.021685299	 0.006024844	 0.0804246403	-0.026985
O	-1.3372534353	-0.4893485028	-0.0452445786	-0.242209
C	-1.4161364045	-1.8959115647	 0.0347823047	-0.047478
C	-2.8740639984	-2.3158307108	-0.1055658824	-0.229383
C	-3.0696670954	-3.8227039936	-0.0147589321	 0.059926
C	-2.8691389025	-4.5437219277	 1.3522277418	-0.217245
C	-4.0877078196	-5.443572097	 1.0134916685	-0.21048
C	-4.5155379507	-4.3940757311	-0.0475552266	-0.23576
H	 0.9456375946	 1.9383260595	 0.0810195883	 0.112276
H	-0.4793274551	 1.8360717784	-0.9742639665	 0.12544
H	-0.6861234601	 1.9387808314	 0.7824748333	 0.125362
H	 0.6216098833	-0.4131727337	-0.7127621158	 0.081896
H	 0.4148412672	-0.3099744209	 1.0438797302	 0.082033
H	-0.8061750465	-2.3604500026	-0.7605631737	 0.079422
H	-1.0050285971	-2.2480700846	 0.9971792229	 0.084908
H	-3.4592663182	-1.8169197328	 0.6773640123	 0.098168
H	-3.2538222193	-1.9441816395	-1.0657073752	 0.101623
H	-2.4638401168	-4.3225086952	-0.7813929949	 0.066383
H	-1.9093115966	-5.0306717563	 1.5426387224	 0.092377
H	-3.0873198378	-3.8695308497	 2.1877958421	 0.097471
H	-3.7791339611	-6.385271124	 0.5501004949	 0.100197
H	-4.7916908638	-5.6696978776	 1.8177040237	 0.094834
H	-5.231892807	-3.6751328356	 0.3640442316	 0.098034
H	-4.90007311	-4.7557860605	-1.0046488904	 0.093176
45.8415	62.2971	86.0249	115.0448	139.8747	162.9611	218.6999	246.5987	299.6133	372.4109	450.8519	492.051	641.0061	765.014	786.0543	802.2747	822.1102	893.9196	901.4917	932.9144	942.3711	974.7698	987.866	1020.1131	1051.151	1094.6607	1119.0137	1149.1114	1167.3664	1177.8338	1193.35	1203.6555	1228.6466	1256.2246	1259.7403	1264.6611	1274.3871	1290.7066	1295.6392	1312.9456	1322.3823	1383.1315	1394.2388	1409.3883	1453.8763	1477.959	1483.1612	1485.7662	1491.3395	1500.1504	1511.2055	1517.4499	1539.2185	2937.0295	2951.8573	2965.0448	2969.9845	3018.7137	3024.3715	3041.9869	3044.0045	3047.2561	3056.7219	3065.4927	3093.4821	3097.6807	3115.0937	3118.1225	3120.248
CCOCCC1CCC1	CCOCCC1CCC1	
InChI=1S/C8H16O/c1-2-9-7-6-8-4-3-5-8/h8H,2-7H2,1H3	InChI=1S/C8H16O/c1-2-9-7-6-8-4-3-5-8/h8H,2-7H2,1H3
