18
gdb 57310	3.21755	0.96008	0.88565	6.5574	73.07	-0.2679	-0.036	0.2319	1365.6514	0.143127	-439.121062	-439.110568	-439.109624	-439.157455	37.16	
C	-0.2170875507	 1.4887508147	-0.1602453497	-0.410097
C	 0.0027208095	-0.0225981418	 0.00706727	 0.240596
C	 0.7526300154	-0.3425279905	 1.3093067287	-0.410091
O	-1.2372593252	-0.726397702	-0.0516945197	-0.465352
C	 0.8523841215	-0.5228846113	-1.1768854174	 0.375607
O	 1.9587659783	-0.0909007803	-1.3695742488	-0.293957
C	 0.2088134891	-1.5873056631	-2.0771931253	-0.457253
C	 1.0712582423	-2.0097869728	-3.172064561	 0.282333
N	 1.7374551383	-2.3600023638	-4.047490253	-0.298857
H	 0.7412448356	 2.007670291	-0.2308505211	 0.150302
H	-0.797866939	 1.6954783129	-1.0636597401	 0.128595
H	-0.7669376412	 1.8841601548	 0.7009295837	 0.112014
H	 0.2001094932	 0.0572676811	 2.1667405962	 0.112026
H	 0.8541463318	-1.4237312705	 1.4392945718	 0.128593
H	 1.7483239202	 0.1058897954	 1.2956893797	 0.150293
H	-1.7856352235	-0.428800376	 0.6810436773	 0.287485
H	-0.0762922445	-2.4447998879	-1.4578982313	 0.18387
H	-0.7387599513	-1.1947847401	-2.4620934599	 0.183891
21.9763	65.7337	131.1923	213.6554	224.304	239.7855	244.0115	274.5286	291.1899	359.5506	379.3192	424.4973	426.8073	492.2234	581.4709	590.197	792.5137	842.5839	914.0389	938.163	950.1062	985.6285	1019.6562	1060.3753	1138.8001	1168.6669	1212.8958	1222.1569	1316.702	1373.569	1388.6575	1409.2173	1417.7936	1477.2814	1482.2698	1495.9436	1510.8467	1827.9837	2375.0281	3034.5875	3038.8859	3062.1817	3091.966	3106.3721	3109.8228	3136.0554	3140.6738	3823.6396
CC(C)(O)C(=O)CC#N	CC(C)(O)C(=O)CC#N	
InChI=1S/C6H9NO2/c1-6(2,9)5(8)3-4-7/h9H,3H2,1-2H3	InChI=1S/C6H9NO2/c1-6(2,9)5(8)3-4-7/h9H,3H2,1-2H3
