13
gdb 130512	4.00716	1.74472	1.2155	4.2888	76.4	-0.2355	-0.0991	0.1364	920.9387	0.092237	-415.605846	-415.599967	-415.599022	-415.635993	23.492	
O	-0.0817684528	 1.2633422076	 0.0099077585	-0.226678
N	 1.0226813717	 2.0914822202	 0.0037765253	-0.087319
C	 2.1936833971	 1.512703482	-0.0109305117	 0.045505
C	 2.4634688104	 0.1158294286	-0.0214357894	-0.28031
C	 1.3821121829	-0.7121552969	-0.0155352809	 0.282895
C	 1.0630049076	-2.0945811638	-0.0202159612	-0.311595
C	-0.316427846	-2.1327001013	-0.0069438396	-0.008603
N	-0.9448405308	-0.888128797	 0.0062273448	-0.339778
C	 0.0581093845	-0.0598781998	 0.0010764372	 0.407847
H	 3.0052170756	 2.2334932753	-0.0148103226	 0.145966
H	 3.4901425928	-0.2329735119	-0.0334349372	 0.133359
H	 1.7467359499	-2.9282078863	-0.0316016464	 0.11332
H	-0.9358478129	-3.0212250166	-0.0058980468	 0.125391
202.9055	247.1844	367.2514	446.0615	549.0913	569.6219	605.9626	615.0225	743.7679	745.6965	793.9143	857.3112	888.3056	931.6173	947.712	962.2362	972.2222	1056.364	1085.5038	1147.5475	1208.7491	1284.2028	1335.2163	1387.2185	1407.7356	1433.1747	1562.7502	1582.8716	1679.1074	3187.7182	3200.7719	3218.5958	3263.8298
O1N=CC=C2C=CN=C12	O1N=C[CH]c2ccnc12	
InChI=1S/C6H4N2O/c1-3-7-6-5(1)2-4-8-9-6/h1-4H	InChI=1S/C6H5N2O/c1-3-7-6-5(1)2-4-8-9-6/h1-4,7H
