18
gdb 105949	4.26016	1.30826	1.24041	2.1434	74.53	-0.2224	0.0703	0.2927	1049.7927	0.149073	-401.843341	-401.836217	-401.835273	-401.875028	28.504	
O	 0.1973196168	 1.341872705	 0.2207200456	-0.412306
C	 0.0537471563	-0.0307685148	-0.1154279164	-0.209751
C	-1.3693228139	-0.4761370067	-0.1145354433	 0.324283
C	-2.0381243458	-1.843256391	-0.0571316369	-0.159315
C	-2.3311361513	-0.7774597025	 1.0053150306	-0.097376
N	-3.475285152	-0.0058923515	 0.431913963	-0.153347
C	-4.3596652105	-1.0624143768	-0.1911069032	-0.179324
C	-3.1550842317	-1.4650497528	-1.0616502531	-0.075801
C	-2.6363931938	 0.0005915269	-0.865620492	-0.073822
H	-0.2933663785	 1.4890689062	 1.0366385743	 0.28567
H	 0.4925009484	-0.1355044005	-1.1143817866	 0.113815
H	 0.6348738929	-0.6806056503	 0.5607843675	 0.088646
H	-1.6025876992	-2.8081297766	 0.1648218284	 0.092103
H	-2.1737436047	-0.9085503635	 2.0688273988	 0.090461
H	-4.785153261	-1.7884728468	 0.5083073619	 0.101525
H	-5.1566235659	-0.5730169078	-0.7591377377	 0.107934
H	-3.2193487244	-1.9908726165	-2.0135142238	 0.071308
H	-2.7477385716	 0.8334497301	-1.5567145672	 0.085297
96.3275	123.61	239.5404	330.9512	378.9787	451.399	568.5049	635.9002	745.1889	776.4722	806.6137	825.6654	841.5463	855.7668	886.5788	889.6501	932.0282	942.1918	976.7089	1021.1569	1033.2371	1041.645	1050.997	1066.2575	1130.3135	1135.0641	1154.9135	1181.3314	1204.8054	1210.9012	1219.9853	1251.4734	1265.948	1293.7658	1361.9908	1416.7025	1456.4048	1496.0132	1499.7454	2961.8048	3047.1545	3057.6516	3106.989	3121.8442	3141.1318	3187.3085	3209.7461	3805.3592
OCC12C3C1N1CC3C21	OC[C@@]12[C@H]3[C@@H]1N1C[C@H]3[C@H]21	
InChI=1S/C7H9NO/c9-2-7-4-3-1-8(5(3)7)6(4)7/h3-6,9H,1-2H2	InChI=1S/C7H9NO/c9-2-7-4-3-1-8(5(3)7)6(4)7/h3-6,9H,1-2H2/t3-,4-,5-,6+,7+/m1/s1
