18
gdb 79907	2.59677	1.56615	1.32468	4.0463	78.58	-0.2424	-0.044	0.1984	1053.18	0.147391	-401.972446	-401.963994	-401.96305	-402.005431	31.607	
C	-0.1501239167	 1.5111869104	 0.0847478133	-0.420942
C	-0.0146911263	 0.019147454	-0.0810664551	 0.0069
C	 0.7015667956	-0.6696068898	-1.2169494786	-0.098119
C	 1.6687929814	 0.0617837572	-2.0722083049	-0.208681
C	 2.7159567029	 0.4798271654	-1.3427397373	 0.223662
C	 3.9210674059	 1.2679940456	-1.7331278222	-0.490696
C	 2.4434535	 0.1357952742	 0.0864443732	 0.30562
O	 3.0586985533	 0.5037232629	 1.0562025493	-0.331928
N	 1.2660370909	-0.6930738393	 0.1366774713	-0.140423
H	 0.6150240604	 2.063848977	-0.4632862642	 0.133082
H	-1.1325312685	 1.8323420003	-0.2752098436	 0.125517
H	-0.0732087007	 1.7801621204	 1.1431400055	 0.147165
H	-0.8527042866	-0.5435354521	 0.3285103979	 0.108725
H	 0.2862777067	-1.604046184	-1.5879105331	 0.108025
H	 1.5340115929	 0.1960624759	-3.1390532874	 0.115594
H	 4.0143792692	 2.1565904695	-1.0998454164	 0.148248
H	 4.8331078281	 0.6818138985	-1.5738484532	 0.145654
H	 3.8857511616	 1.5779294941	-2.7802100345	 0.122595
108.0093	123.1949	138.7646	202.2579	255.133	278.9344	350.3734	428.4977	517.9454	550.9445	586.9814	719.1272	749.677	776.6542	821.4542	831.2378	896.3955	948.1512	976.0432	1005.2382	1042.3417	1066.8759	1068.0506	1083.458	1136.0987	1167.469	1229.2758	1283.512	1321.4733	1361.9478	1398.5457	1413.4679	1419.9454	1472.4651	1484.5214	1488.867	1493.0096	1686.0191	1819.6841	3037.1592	3044.9743	3091.1593	3107.3147	3112.6246	3124.7886	3134.4919	3138.8937	3203.6168
CC1C2C=C(C)C(=O)N12	C[C@H]1[C@H]2C=C(C)C(=O)N12	
InChI=1S/C7H9NO/c1-4-3-6-5(2)8(6)7(4)9/h3,5-6H,1-2H3	InChI=1S/C7H9NO/c1-4-3-6-5(2)8(6)7(4)9/h3,5-6H,1-2H3/t5-,6+,8?/m0/s1
