17
gdb 40622	4.36104	1.11338	1.09455	2.1303	72.37	-0.243	-0.0069	0.2362	1143.6873	0.136407	-421.743433	-421.736348	-421.735404	-421.775351	27.901	
C	 0.1188940472	 1.5334839285	 0.0254308002	-0.188551
O	 1.2163191792	 0.6253546911	-0.0429202802	-0.240357
C	-0.1102690371	 0.0817323539	 0.0134881193	 0.064973
C	-0.4513037465	-0.6641556255	 1.2709318759	-0.002347
C	-1.9139403402	-1.2273575203	 1.3563739986	-0.003096
O	-1.4949078762	-2.2859368835	 0.4312002938	-0.28911
C	-0.2538174786	-2.2213997009	 1.211903329	 0.003041
C	-0.7388538983	-2.6433939804	 2.6085767062	-0.081715
C	-1.8799632931	-1.9583957936	 2.7092937375	-0.083262
H	 0.0256948741	 2.0850068842	 0.96077192	 0.110292
H	-0.0668629221	 2.1162417032	-0.875844958	 0.11686
H	-0.446603635	-0.3823253185	-0.9117538324	 0.110206
H	-0.0601046666	-0.1509930047	 2.1525216961	 0.080697
H	-2.7990633925	-0.6743122291	 1.0445611063	 0.083063
H	 0.6039212888	-2.7050201636	 0.7475054576	 0.08973
H	-0.2451593172	-3.3113583097	 3.2982438484	 0.115366
H	-2.6065474858	-1.8952935512	 3.5053242717	 0.11421
76.8652	165.0432	177.7689	331.8035	432.9851	474.6787	547.2931	615.8609	712.2424	754.079	844.1264	850.8281	859.9539	873.8067	876.8996	904.5783	911.3014	932.3091	957.3928	984.6975	1031.0731	1101.049	1126.943	1149.1515	1153.4394	1166.7012	1182.4457	1185.5292	1232.0282	1238.8121	1279.326	1294.0546	1300.0827	1313.9839	1449.7058	1528.1071	1614.8957	3079.0083	3087.9758	3133.4646	3136.2363	3142.6234	3165.9894	3235.7813	3262.7603
C1OC1C1C2OC1C=C2	C1O[C@H]1[C@H]1[C@H]2O[C@@H]1C=C2	
InChI=1S/C7H8O2/c1-2-5-7(4(1)9-5)6-3-8-6/h1-2,4-7H,3H2	InChI=1S/C7H8O2/c1-2-5-7(4(1)9-5)6-3-8-6/h1-2,4-7H,3H2/t4-,5+,6-,7-/m1/s1
