19
gdb 64352	2.5607	1.42384	1.14475	2.9593	71.42	-0.2409	-0.0278	0.2131	1128.1732	0.158216	-460.187097	-460.178345	-460.177401	-460.220286	33.72	
C	-0.0082051606	 1.5787748787	 0.0359357791	-0.417856
C	-0.0101479837	 0.055565476	-0.0240842474	 0.333779
O	-1.3690342842	-0.3539783868	-0.1450556865	-0.470124
C	 0.7640545096	-0.4704757256	-1.2410786147	-0.118604
O	 0.6273065921	-1.8846187811	-1.3100948052	-0.257976
C	 1.2911512331	-2.5480819203	-0.2435427976	-0.179448
C	 0.8391244169	-2.0622692226	 1.1369231302	 0.354878
O	 0.725628633	-2.8257561554	 2.0647554349	-0.294006
C	 0.6091980981	-0.5626364146	 1.252710103	-0.328172
H	 1.0098872125	 1.9722112037	 0.1145593003	 0.112448
H	-0.4796008023	 1.9915233697	-0.8602323929	 0.126351
H	-0.5784233887	 1.9190036527	 0.9050030894	 0.132831
H	-1.3585645459	-1.2411118492	-0.5277581243	 0.28677
H	 0.3283919074	-0.0769539396	-2.1632419805	 0.120486
H	 1.8265110173	-0.1826191508	-1.1963542921	 0.091667
H	 1.0820681295	-3.6152461349	-0.3356384539	 0.140088
H	 2.3833613195	-2.3986497843	-0.3192495219	 0.113992
H	 1.5953018104	-0.1104257267	 1.4343844709	 0.120218
H	-0.016082224	-0.3631747188	 2.1260277092	 0.132678
77.8674	123.2311	214.2965	258.9917	284.5954	316.0004	385.959	393.6948	451.3203	458.6566	462.8903	503.9939	564.6016	625.343	798.6532	814.7593	845.5086	920.2175	929.0483	959.4149	1000.7802	1038.1256	1097.2879	1119.5137	1142.5253	1186.9992	1245.7582	1254.65	1280.887	1287.5852	1322.5911	1346.0753	1375.6922	1408.2081	1422.4261	1442.0395	1465.2335	1483.7198	1487.8261	1498.4415	1825.9648	2952.82	2983.8631	3013.7059	3042.9039	3098.9811	3109.9597	3118.133	3121.3884	3123.303	3762.3349
CC1(O)COCC(=O)C1	C[C@@]1(O)COCC(=O)C1	
InChI=1S/C6H10O3/c1-6(8)2-5(7)3-9-4-6/h8H,2-4H2,1H3	InChI=1S/C6H10O3/c1-6(8)2-5(7)3-9-4-6/h8H,2-4H2,1H3/t6-/m0/s1
