18
gdb 19070	3.57453	2.36873	2.01591	1.5628	69.23	-0.2369	0.0809	0.3178	753.9012	0.157517	-347.778005	-347.772105	-347.771161	-347.807565	25.206	
C	 0.00242982	 1.5392302741	-0.1574380159	-0.305139
C	 1.2899412733	 0.7716609515	 0.0244652125	-0.00694
C	 2.0771969944	 0.7488496837	 1.3380606806	-0.240112
C	 1.3411574381	-0.0752427694	 2.4079768616	 0.104163
C	-0.1203416718	 0.3727318475	 2.592367155	-0.256843
C	-0.3340622348	-0.5799270029	 1.3973623331	 0.07743
O	 0.8662486425	-1.316113434	 1.8110786153	-0.298448
C	-0.0382699969	 0.0423593579	 0.0428706005	-0.024083
H	-0.3469575591	 2.1944150552	 0.6319669384	 0.112113
H	-0.2143979285	 1.9096793011	-1.1541060611	 0.108725
H	 1.8961192771	 0.6626036831	-0.8684804452	 0.087191
H	 3.0476965635	 0.2751196026	 1.1558521853	 0.108151
H	 2.2815802477	 1.7584709048	 1.7177814535	 0.096347
H	 1.9583251913	-0.2530536856	 3.2928601554	 0.071409
H	-0.5548398784	-0.0435796403	 3.5024848203	 0.109282
H	-0.3749840518	 1.4295435206	 2.5087556891	 0.097424
H	-1.2199015497	-1.2191275706	 1.3924019461	 0.073735
H	-0.2990668069	-0.5729967493	-0.8120823045	 0.085596
251.9661	259.8775	411.5652	430.8291	468.8561	544.4558	648.4322	738.8151	798.7476	827.9805	845.1296	869.6203	887.9897	895.7532	940.5713	954.9816	989.3883	1004.7278	1041.7199	1066.423	1088.4232	1098.1748	1126.725	1133.626	1138.1819	1197.325	1219.593	1253.9339	1255.1373	1306.2561	1330.7545	1344.4701	1364.2431	1385.4263	1408.4541	1473.781	1485.054	1512.7037	3022.8844	3067.1407	3073.8816	3078.5377	3089.4589	3134.7069	3140.8185	3152.9853	3162.6888	3218.7237
C1C2CC3CC(O3)C12	C1[C@H]2C[C@H]3C[C@H](O3)[C@@H]12	
InChI=1S/C7H10O/c1-4-2-6(4)7-3-5(1)8-7/h4-7H,1-3H2	InChI=1S/C7H10O/c1-4-2-6(4)7-3-5(1)8-7/h4-7H,1-3H2/t4-,5+,6+,7+/m1/s1
