16
gdb 24254	4.08452	1.58144	1.24564	3.75	74.46	-0.2048	0.0245	0.2293	967.3282	0.128842	-396.930464	-396.924124	-396.92318	-396.961015	25.839	
C	 0.0763798511	 1.4888288867	-0.0343111407	-0.232668
C	 1.3388083545	 0.6911946147	 0.0245178576	-0.18679
N	-0.0041431926	 0.0275321868	-0.0326327173	-0.097111
C	-0.1785188923	-0.6130147712	-1.3763558267	-0.288714
C	 1.0991865206	-0.2923743009	-2.103246435	 0.251853
C	 1.941013699	 0.4040244232	-1.2887266804	 0.331167
N	 3.0642866722	 0.6493321225	-2.0357176042	-0.391424
C	 2.8292597114	 0.0811553988	-3.2683535902	-0.015989
N	 1.6441557932	-0.4909714808	-3.3443115222	-0.340411
H	-0.3150574898	 1.9609688283	 0.8640134623	 0.115582
H	-0.1206319924	 2.024969276	-0.9609728059	 0.114674
H	 1.8968262801	 0.5891107315	 0.9513326429	 0.100199
H	-0.3337069986	-1.6883839184	-1.2308261647	 0.121424
H	-1.0782692437	-0.21510724	-1.8585158281	 0.121512
H	 3.8949885448	 1.1450117646	-1.7597748773	 0.267709
H	 3.5684752326	 0.1112956383	-4.0551092701	 0.128988
146.7502	237.3287	348.8041	425.5032	444.2023	505.7994	597.1992	666.3581	695.1353	712.1119	741.2125	786.6208	796.757	836.4241	957.4469	966.4233	1016.4471	1027.5768	1064.9201	1089.1708	1116.0358	1142.1542	1145.9679	1200.4667	1243.9741	1254.083	1294.2178	1309.7044	1378.6395	1394.716	1468.1607	1487.5984	1501.9597	1521.8482	1608.1493	3031.3816	3067.208	3089.5454	3140.0866	3178.1448	3250.0411	3668.7787
C1C2N1CC1=C2NC=N1	C1[C@H]2N1Cc1c2[nH]cn1	
InChI=1S/C6H7N3/c1-4-6(8-3-7-4)5-2-9(1)5/h3,5H,1-2H2,(H,7,8)	InChI=1S/C6H7N3/c1-4-6(8-3-7-4)5-2-9(1)5/h3,5H,1-2H2,(H,7,8)/t5-,9?/m1/s1
