13
gdb 131950	2.70846	1.68901	1.04696	4.3402	65.47	-0.2935	-0.1066	0.187	1042.0128	0.088208	-489.78982	-489.782122	-489.781177	-489.823054	26.764	
C	 0.0193812816	 1.5572257372	 0.0884361567	-0.498725
C	 0.0631117405	 0.0678064522	 0.004680163	 0.075883
C	-0.0420201351	-0.7643977291	-1.0722459233	 0.453368
O	 0.0476742223	-2.0545107926	-0.7330652376	-0.177457
N	 0.222241989	-2.1205460732	 0.6355959728	-0.113476
C	 0.2298979879	-0.8770302908	 1.0567887845	-0.01052
N	-0.2284140906	-0.4695484947	-2.4685626717	 0.36786
O	-0.3075470747	 0.7233811131	-2.7521770214	-0.37251
O	-0.2923509076	-1.405687349	-3.2478179769	-0.336526
H	 0.136762829	 1.8852174892	 1.1235900411	 0.133108
H	 0.8114069313	 2.0070524569	-0.5161815156	 0.162953
H	-0.9269638769	 1.9438019797	-0.299086055	 0.162975
H	 0.3555466234	-0.6806086089	 2.1126743334	 0.153065
56.423	87.8367	196.219	198.2331	279.0226	320.596	442.2011	538.1818	620.9663	660.2288	673.9132	790.8342	841.6811	912.3314	948.5058	960.4646	1008.1307	1062.7049	1164.8231	1210.284	1270.3084	1366.8654	1406.9968	1421.2958	1473.0208	1476.1488	1490.4569	1628.2321	1663.5849	3053.7173	3116.8107	3134.2661	3243.4318
CC1=C(ON=C1)N(=O)=O	Cc1c(onc1)N(=O)=O	
InChI=1S/C4H4N2O3/c1-3-2-5-9-4(3)6(7)8/h2H,1H3	InChI=1S/C4H4N2O3/c1-3-2-5-9-4(3)6(7)8/h2H,1H3
