16
gdb 131198	3.28497	1.53056	1.06483	3.0843	71.18	-0.1896	0.0493	0.2389	1068.98	0.127807	-434.077057	-434.069411	-434.068467	-434.10897	29.157	
O	-0.0932031705	 1.3273786173	 0.2542835439	-0.426963
C	-0.0011714742	 0.0063804025	-0.0220308119	 0.27171
C	 0.0788680107	-0.7394754433	-1.1730249329	 0.061602
C	 0.1883350649	-0.7490431604	-2.6695309237	-0.375191
C	-0.0928418277	-2.2616102114	-2.9642518941	-0.156357
N	 0.2962735217	-2.9850284421	-1.7294560307	-0.390634
C	 0.1368741099	-2.0646723664	-0.6930892566	 0.406869
N	 0.083357187	-2.191750583	 0.6167183122	-0.376884
N	 0.0123205111	-0.8680524396	 1.0184159	-0.263535
H	-0.0566485339	 1.8159894864	-0.5733873356	 0.311402
H	-0.5251277334	-0.1112888834	-3.2009371244	 0.104636
H	 1.1932229406	-0.4722101161	-3.0152125321	 0.114655
H	-1.1629635196	-2.3933916311	-3.1821616083	 0.100423
H	 0.4765000828	-2.6296532448	-3.8219596924	 0.108312
H	-0.1513591369	-3.8821480231	-1.598675084	 0.238972
H	-0.1311784227	-0.6475005916	 1.9877402906	 0.270984
155.2128	178.7316	225.1012	238.6283	269.7323	283.1108	439.3798	548.3165	561.4035	599.8002	651.8891	692.8856	722.6194	778.5166	834.3094	874.3629	936.7151	1035.6079	1063.4318	1079.4075	1123.6745	1155.2579	1196.1774	1235.8471	1237.687	1309.5501	1323.5328	1354.8213	1403.1771	1467.7094	1494.8264	1514.3315	1539.0684	1609.0842	1688.7452	2989.8208	3011.6617	3065.7197	3085.4666	3581.8377	3695.7221	3847.9289
OC1=C2CCNC2=NN1	Oc1c2CCNc2n[nH]1	
InChI=1S/C5H7N3O/c9-5-3-1-2-6-4(3)7-8-5/h1-2H2,(H3,6,7,8,9)	InChI=1S/C5H7N3O/c9-5-3-1-2-6-4(3)7-8-5/h1-2H2,(H3,6,7,8,9)
