18
gdb 57017	2.46386	1.3408	0.90916	2.7045	78.64	-0.2589	0.0234	0.2823	1263.1989	0.146046	-401.912187	-401.902971	-401.902026	-401.94656	33.767	
C	-0.1187400298	 1.5843917412	-0.0008764602	-0.394395
C	-0.0591045769	 0.0425109157	 0.0006082379	-0.187906
C	-1.4054825383	-0.524475331	 0.0091715815	 0.343606
C	-2.5285345922	-0.9509144172	 0.0023687124	-0.453397
C	 0.7519619388	-0.4751750969	-1.2026271823	-0.117736
C	 2.2682244035	-0.1753893426	-1.2209363028	-0.111105
O	 2.5601093854	-1.605009355	-1.2256024518	-0.252991
C	 1.2152022679	-1.9237025632	-1.1805522621	 0.427226
N	 0.6464132284	-3.0378323567	-1.1330765321	-0.531474
H	 0.8872347442	 2.0142335732	 0.0342309317	 0.115586
H	-0.6208763628	 1.9485693638	-0.9020654245	 0.130378
H	-0.6766496052	 1.9452232472	 0.8663331044	 0.13448
H	 0.4580803408	-0.2821249265	 0.9143612246	 0.112488
H	-3.5093681424	-1.3577106338	 0.0006697502	 0.198397
H	 0.2406930674	-0.213922516	-2.1327802838	 0.117179
H	 2.6634069972	 0.3110053652	-2.1155374955	 0.122024
H	 2.6710513038	 0.2993428098	-0.3215334552	 0.119043
H	 1.3254638503	-3.8012030173	-1.1249942322	 0.228599
58.9941	104.0097	128.8614	191.7578	210.1011	241.2967	296.3019	344.631	473.0807	490.6216	535.5384	636.8863	642.9017	651.7604	748.076	809.0055	867.2032	887.1076	934.3455	972.1705	980.2157	1007.1312	1066.4496	1084.797	1107.4334	1154.1893	1174.0013	1224.0269	1242.6637	1270.7446	1325.7336	1355.5526	1379.1448	1408.2897	1492.0341	1498.772	1515.9587	1826.5636	2241.1125	3008.6362	3041.3807	3055.7649	3084.0079	3112.748	3117.6703	3127.4337	3473.8468	3505.8248
CC(C#C)C1COC1=N	C[C@@H](C#C)[C@H]1CO[C]1[NH]	
InChI=1S/C7H9NO/c1-3-5(2)6-4-9-7(6)8/h1,5-6,8H,4H2,2H3	InChI=1S/C7H9NO/c1-3-5(2)6-4-9-7(6)8/h1,5-6,8H,4H2,2H3/t5-,6+/m0/s1
