23
gdb 109038	2.83556	1.27116	1.01167	0.2768	91.57	-0.2155	0.0276	0.243	1292.3256	0.206398	-351.165595	-351.156446	-351.155502	-351.199279	35.685	
C	 0.1074263326	 1.3931891514	 0.3420971144	-0.373882
C	-0.0591304725	-0.0472637508	-0.1748609653	-0.29231
C	-1.4766794558	-0.5398056725	-0.1308951094	 0.329072
C	-2.220239001	-0.9112847248	-1.179968118	-0.20449
C	-3.562709028	-1.4202007674	-0.780403449	-0.072562
C	-3.5376590186	-2.6783593434	 0.0669146268	-0.281995
C	-3.5751280897	-1.3249384782	 0.7335862208	-0.045068
C	-2.2617136947	-0.671836637	 1.1768252061	-0.087668
C	-1.5263577006	-1.4247603008	 2.2961145186	-0.395642
H	 1.1531514364	 1.710194197	 0.2809837687	 0.111155
H	-0.4948489371	 2.0908753773	-0.2482974494	 0.119527
H	-0.2064614721	 1.4850215327	 1.3869237276	 0.119062
H	 0.309845334	-0.1095978412	-1.2048549445	 0.099038
H	 0.5845406455	-0.7095546077	 0.4209471805	 0.102897
H	-1.8826508244	-0.8917473513	-2.2114306019	 0.082713
H	-4.4354848919	-1.2084652735	-1.3885888179	 0.08087
H	-4.4467834568	-3.2690246653	 0.1214129926	 0.104673
H	-2.6208399223	-3.2587028419	 0.0764877145	 0.107821
H	-4.4822106629	-1.0602420924	 1.2649223341	 0.078614
H	-2.4859605863	 0.3365599371	 1.5568105552	 0.077039
H	-1.2731009836	-2.4442760074	 1.9887516098	 0.116125
H	-0.5973599552	-0.918223016	 2.5778711647	 0.112316
H	-2.1519960452	-1.4905773138	 3.1919789009	 0.112694
74.5815	118.094	185.9329	198.2459	226.8913	262.3495	274.7633	385.3861	436.1677	503.699	540.8878	636.9961	684.0089	762.3917	793.8113	798.0122	811.3674	868.0932	895.0456	928.1247	966.1077	984.4955	1028.5067	1039.3107	1049.5552	1068.1624	1077.8357	1089.0791	1104.3827	1110.1116	1131.1915	1188.0635	1218.0395	1267.1379	1295.8102	1320.6023	1334.8464	1352.926	1361.592	1380.6811	1406.6635	1409.9855	1475.2899	1476.7617	1495.5429	1498.755	1499.31	1506.9497	1698.0081	2980.9592	3008.6909	3033.2123	3035.5723	3057.5066	3098.3603	3104.9038	3106.1853	3108.2447	3121.625	3161.1783	3171.0159	3180.6643	3209.6972
CCC1=CC2CC2C1C	CCC1=C[C@H]2C[C@H]2[C@H]1C	
InChI=1S/C9H14/c1-3-7-4-8-5-9(8)6(7)2/h4,6,8-9H,3,5H2,1-2H3	InChI=1S/C9H14/c1-3-7-4-8-5-9(8)6(7)2/h4,6,8-9H,3,5H2,1-2H3/t6-,8-,9-/m0/s1
