19
gdb 58492	2.28538	1.28123	1.07421	2.7025	78.33	-0.2432	0.0403	0.2835	1221.8682	0.155597	-422.975946	-422.965964	-422.96502	-423.010344	37.87	
C	 0.0795576591	 1.4668053428	-0.332617098	-0.409041
C	 0.0427225562	 0.0326937269	 0.2096090826	 0.091105
O	 0.500859018	-0.0184226157	 1.5510366115	-0.438495
C	-1.3504036545	-0.5708758494	 0.1279123911	 0.373124
O	-2.243829706	 0.0027546707	 1.0561684909	-0.476641
C	-1.9203960358	-1.0865561252	-1.1572766204	-0.357895
C	-1.5546752449	-2.0627477995	-0.0337553474	-0.257453
C	-0.4548616352	-2.9675475844	-0.1859505751	 0.340532
C	 0.4575791252	-3.7390430535	-0.3244920691	-0.450812
H	 1.084392486	 1.878840426	-0.2133236431	 0.130354
H	-0.1909185212	 1.5024792806	-1.3932251687	 0.112781
H	-0.6097337518	 2.1142021869	 0.2227586553	 0.09824
H	 0.7275357337	-0.5928427726	-0.3722944906	 0.098104
H	-0.2579175213	 0.2194062859	 2.0991726433	 0.283012
H	-2.5528212343	 0.841152002	 0.6940037855	 0.29045
H	-2.9777462462	-0.9308211208	-1.3404820815	 0.12041
H	-1.28899973	-1.0902488046	-2.0387572568	 0.129658
H	-2.4003688391	-2.4436043269	 0.530607635	 0.126144
H	 1.2692288622	-4.4151439491	-0.4303599345	 0.196422
72.1422	109.6469	149.3347	213.7265	239.7219	269.0808	292.2913	306.9394	361.3469	409.247	441.9128	460.076	519.8528	547.1467	591.0163	624.21	658.2902	725.9025	804.9883	882.4918	917.7724	925.1004	954.6946	1027.5186	1049.2696	1080.1465	1098.6487	1114.2094	1121.6207	1220.8674	1276.8489	1308.874	1322.0001	1361.7909	1392.1088	1396.6716	1439.711	1475.9401	1492.1684	1499.2763	2238.406	3027.6005	3063.1155	3096.5391	3124.0666	3136.0623	3158.7739	3230.8422	3504.6953	3772.2894	3792.3404
CC(O)C1(O)CC1C#C	C[C@@H](O)[C@@]1(O)C[C@H]1C#C	
InChI=1S/C7H10O2/c1-3-6-4-7(6,9)5(2)8/h1,5-6,8-9H,4H2,2H3	InChI=1S/C7H10O2/c1-3-6-4-7(6,9)5(2)8/h1,5-6,8-9H,4H2,2H3/t5-,6-,7+/m1/s1
