15
gdb 15311	4.46061	1.24803	1.03847	3.2355	70.01	-0.2463	0.021	0.2673	1088.415	0.117552	-362.63832	-362.630156	-362.629212	-362.671921	29.341	
O	-0.0468962318	 0.0803861244	-0.6676055903	-0.321762
C	 0.0174823461	 1.1962063339	-0.197789513	 0.150719
N	 1.170588359	 1.8283120041	 0.1496196642	-0.291186
C	 2.4437946865	 1.1885377547	 0.0562867891	 0.075135
C	 3.4605582602	 1.6440834058	-0.9503630346	-0.297771
C	 3.6630523779	 1.9653175636	 0.5287089388	-0.232935
C	 3.492237825	 3.3069871224	 1.0005982122	 0.303222
C	 3.3016316705	 4.4247531422	 1.4057652454	-0.447191
H	-0.8715065038	 1.8259083326	 0.0042899297	 0.076056
H	 1.1283293703	 2.7341912259	 0.5950333849	 0.255404
H	 2.4030797166	 0.1308852793	 0.2899556838	 0.133809
H	 4.1166946666	 0.9045784831	-1.3947646236	 0.130589
H	 3.1857495989	 2.4712933876	-1.5935748168	 0.134695
H	 4.416394967	 1.3857959204	 1.0529405482	 0.126318
H	 3.1721021211	 5.41851837	 1.7573229318	 0.204899
27.3517	106.9703	184.3589	204.2292	242.5143	344.6888	414.4178	519.2048	550.1816	590.6538	610.7713	660.8208	730.5402	777.1605	836.0067	908.906	960.781	1003.5185	1030.852	1059.4833	1116.8502	1120.4117	1143.5361	1208.3798	1268.6905	1358.1775	1390.4079	1429.5472	1473.8066	1529.3757	1805.6832	2230.3315	2939.3733	3144.6454	3156.8774	3183.6578	3241.9591	3501.3423	3592.8919
O=CNC1CC1C#C	O=CN[C@H]1C[C@H]1C#C	
InChI=1S/C6H7NO/c1-2-5-3-6(5)7-4-8/h1,4-6H,3H2,(H,7,8)	InChI=1S/C6H7NO/c1-2-5-3-6(5)7-4-8/h1,4-6H,3H2,(H,7,8)/t5-,6+/m1/s1
