18
gdb 66772	2.5036	2.17513	1.78189	1.2162	72.95	-0.245	0.0785	0.3236	869.0931	0.14972	-401.898303	-401.891545	-401.890601	-401.929099	27.636	
C	-0.0693470428	 1.5171096762	 0.0144271348	-0.525653
C	-0.009277585	 0.0213131439	 0.0053143333	 0.341881
C	 0.6696624724	-0.8340389901	-1.1018513678	-0.122514
C	 2.0422976169	-1.2323706122	-0.5518637965	-0.097324
O	 1.8978834685	-1.1873178062	 0.8813684296	-0.278993
C	 0.5518298766	-0.8477600895	 1.1545273926	 0.06229
C	-0.5147247861	-1.8511093025	 0.719804912	-0.075905
C	-0.4449514011	-1.8263584364	-0.7720569829	-0.048895
N	-1.3074150488	-0.8324460009	-0.0572589909	-0.210161
H	 0.9387551521	 1.9387997141	 0.0971316539	 0.128866
H	-0.5269257929	 1.8987973225	-0.9040286301	 0.12851
H	-0.6610867979	 1.8777736679	 0.8619896597	 0.130913
H	 0.6555862036	-0.4297589414	-2.1139715326	 0.081186
H	 2.3366811928	-2.2425521939	-0.8634898123	 0.103989
H	 2.8368045681	-0.5358557026	-0.8496267131	 0.101695
H	 0.4714826923	-0.4677571437	 2.173011072	 0.087679
H	-0.997463202	-2.6402822179	 1.2833063691	 0.095538
H	-0.8697748668	-2.6049390073	-1.3946034108	 0.096897
184.7319	209.2397	223.5532	275.3256	411.7584	505.4871	612.9761	670.4577	695.3655	770.8984	808.7293	819.7951	833.5889	871.0982	892.8983	915.9727	954.7251	980.7248	1008.3875	1023.8052	1038.7421	1065.2244	1086.3695	1113.6974	1135.1698	1151.8556	1184.4702	1202.0901	1226.5342	1281.4837	1299.6573	1338.1791	1349.564	1366.7516	1396.6649	1414.4435	1478.237	1491.3578	1521.1975	3011.333	3030.1058	3046.8381	3100.582	3103.212	3118.8054	3123.5741	3180.3494	3193.6049
CC12C3COC1C1C3N21	C[C@@]12[C@H]3CO[C@@H]1[C@@H]1[C@H]3N21	
InChI=1S/C7H9NO/c1-7-3-2-9-6(7)5-4(3)8(5)7/h3-6H,2H2,1H3	InChI=1S/C7H9NO/c1-7-3-2-9-6(7)5-4(3)8(5)7/h3-6H,2H2,1H3/t3-,4-,5-,6+,7+,8?/m0/s1
