25
gdb 120946	4.14571	0.84277	0.81923	0.0633	92.76	-0.2867	0.0891	0.3758	1577.5595	0.231509	-352.357248	-352.348427	-352.347483	-352.390922	35.06	
C	 0.0850671999	 1.5594878533	-0.0710922079	-0.379805
C	 0.0101159481	 0.032541004	 0.0122554094	-0.164055
C	-1.426790799	-0.5040636334	-0.0138703038	-0.198469
C	-1.5095784424	-2.0309373217	 0.0611187555	 0.053973
C	-1.0975065507	-2.6676315051	 1.4372132859	-0.224657
C	-2.370085007	-3.4861836694	 1.7319033804	-0.008355
C	-2.6804698834	-4.1146506091	 0.3418166058	-0.227206
C	-2.9333148916	-2.6282469063	-0.0453187493	-0.030438
C	-3.494800329	-2.4653248212	 1.3985746949	-0.221449
H	 1.1214933854	 1.911531169	-0.0572077491	 0.109174
H	-0.3796692709	 1.9291020808	-0.9921264143	 0.112216
H	-0.4366822876	 2.0283438945	 0.7707926532	 0.112253
H	 0.5728183054	-0.4083040638	-0.8216527258	 0.092106
H	 0.5113657398	-0.3082170107	 0.9272972974	 0.097757
H	-1.9942676385	-0.0548274492	 0.8124165226	 0.090086
H	-1.9163165443	-0.1640990616	-0.9375867477	 0.086372
H	-0.8869418596	-2.4409899999	-0.7445864622	 0.060365
H	-0.2035038643	-3.2939709611	 1.3655548903	 0.091006
H	-0.9118526948	-1.9088975928	 2.2052455058	 0.091171
H	-2.3828966453	-4.0774666404	 2.6485969638	 0.053601
H	-1.8782808423	-4.6519684093	-0.1745425725	 0.082658
H	-3.5948945044	-4.7128473673	 0.3446108351	 0.091336
H	-3.5171742659	-2.3532846469	-0.9255170337	 0.051662
H	-4.494136039	-2.8943058725	 1.5043335564	 0.092159
H	-3.4613167586	-1.4800423197	 1.8721674498	 0.086538
88.2909	98.7383	123.731	220.0494	249.846	308.8922	336.397	420.9067	511.089	518.2931	644.3119	745.1478	819.7475	831.691	835.5347	851.4488	864.9623	879.0266	906.7817	943.9963	950.6895	975.0006	1001.7485	1030.18	1039.9644	1048.2823	1070.6117	1082.8314	1088.0554	1114.962	1137.774	1162.5696	1197.2873	1223.5154	1242.0283	1248.4833	1259.7033	1277.3284	1293.8245	1298.4074	1316.7671	1331.7188	1345.6601	1382.9577	1400.4148	1414.9757	1480.8069	1488.0262	1492.891	1495.9645	1500.764	1510.9174	1525.2933	3003.428	3010.1638	3016.3235	3028.3347	3034.0947	3040.5364	3044.4193	3053.7284	3057.8126	3085.2952	3094.8227	3097.2363	3099.327	3102.6564	3108.4821	3114.7163
CCCC1CC2CC1C2	CCC[C@H]1C[C@@H]2C[C@H]1C2	
InChI=1S/C9H16/c1-2-3-8-4-7-5-9(8)6-7/h7-9H,2-6H2,1H3	InChI=1S/C9H16/c1-2-3-8-4-7-5-9(8)6-7/h7-9H,2-6H2,1H3/t7-,8-,9+/m0/s1
