17
gdb 48005	4.28891	0.77403	0.72631	4.0001	84.84	-0.2611	-0.0586	0.2025	1556.5562	0.135242	-384.636303	-384.627702	-384.626758	-384.671975	30.507	
O	-0.947931201	 1.2017595408	-0.3686964202	-0.232684
C	 0.0593346214	 1.0499981033	 0.2855594119	 0.021354
C	 1.2244033042	 1.8892116333	 0.2020632414	-0.010812
C	 2.2221864533	 2.5720268021	 0.1628796219	 0.146183
C	 3.4014588895	 3.4083136574	 0.0674165193	-0.192527
C	 4.2048361446	 3.3977338978	-1.2957630853	-0.245523
C	 3.9977196258	 4.9107793775	-1.4072214407	-0.036131
C	 2.5303277624	 5.2321190439	-1.4153668817	-0.276576
C	 3.1971020113	 4.9306111678	-0.1055219606	-0.045627
H	 0.1494709065	 0.2215482782	 1.0181167933	 0.095302
H	 4.0796497284	 3.1944493177	 0.8979740342	 0.111596
H	 5.2423453752	 3.0998009889	-1.1360976204	 0.115237
H	 3.7767069503	 2.7909631345	-2.0980094047	 0.11482
H	 4.7435128098	 5.6151709986	-1.7531590125	 0.093342
H	 2.2837761087	 6.2774583124	-1.5692155077	 0.118311
H	 1.8113407807	 4.5357316952	-1.839681396	 0.12728
H	 3.218620339	 5.6373823207	 0.7143019979	 0.096456
15.3273	63.5237	99.7236	162.3568	256.4833	298.8432	391.5532	429.3751	546.4935	647.2811	674.6542	780.1683	791.7707	803.6347	914.5741	926.8445	961.7268	970.159	1006.4122	1022.483	1031.8403	1060.8965	1077.1032	1088.9995	1136.0159	1176.1619	1202.5504	1217.2571	1259.9461	1291.7862	1337.4731	1366.0368	1423.6683	1481.4605	1497.5492	1763.4853	2318.1893	2912.1999	3063.8239	3066.5901	3115.9763	3124.6348	3185.3584	3193.0352	3209.0338
O=CC#CC1CC2CC12	O=CC#C[C@H]1C[C@H]2C[C@@H]12	
InChI=1S/C8H8O/c9-3-1-2-6-4-7-5-8(6)7/h3,6-8H,4-5H2	InChI=1S/C8H8O/c9-3-1-2-6-4-7-5-8(6)7/h3,6-8H,4-5H2/t6-,7-,8-/m0/s1
