20
gdb 80000	2.59578	1.97629	1.57815	1.0906	83.5	-0.195	0.0108	0.2057	948.4743	0.171599	-365.897329	-365.889976	-365.889032	-365.928421	31.118	
C	 0.0412241153	 1.4353630675	-0.0572349369	-0.33619
N	-0.0060872179	-0.0163814071	 0.0159347255	-0.116773
C	-1.2104429768	-0.6647325392	 0.6614076829	-0.10837
C	-0.8753363702	-2.1331628022	 0.2665823555	-0.069444
C	 0.4368941233	-2.2391816404	 0.5258282794	-0.161927
C	 0.7152598814	-0.851119842	 1.097314132	 0.299443
C	 1.6526003297	-0.0851778721	 2.0304425718	-0.346564
C	 0.3665176295	 0.4885308371	 2.744488614	-0.274628
C	-0.4902790676	-0.6362818816	 2.0501939304	 0.00814
H	 1.0836065859	 1.7702488075	-0.0637261235	 0.120283
H	-0.3953002622	 1.7386686457	-1.0170417538	 0.117736
H	-0.4933055504	 1.9909306424	 0.7285615175	 0.097886
H	-2.2059605144	-0.2798202654	 0.427548443	 0.05956
H	-1.557519007	-2.8453210925	-0.1742872851	 0.101708
H	 1.1189258616	-3.0627243221	 0.373336872	 0.107332
H	 2.2185180268	-0.7518317824	 2.6877934764	 0.110709
H	 2.3467687924	 0.6264209959	 1.5757241809	 0.105315
H	 0.3743912435	 0.3819330475	 3.8311100296	 0.102033
H	 0.1436781497	 1.5270119327	 2.5105050681	 0.112118
H	-0.7672758527	-1.4310064892	 2.7472757402	 0.071633
147.6579	232.1462	253.7274	348.163	360.1775	420.351	476.4371	546.6746	589.2985	628.2182	696.3324	710.1156	720.3722	785.6111	828.4702	848.2	868.0063	881.1279	901.9923	947.3192	1006.9982	1011.4723	1062.8238	1074.9323	1100.3955	1119.6667	1160.5266	1170.2379	1188.0737	1204.3636	1216.9806	1229.7539	1245.2644	1261.6302	1283.5187	1332.2993	1339.7875	1439.7714	1466.9019	1478.9809	1491.6653	1529.7439	1581.4694	2972.6838	3038.7055	3054.9509	3066.409	3083.9099	3088.2895	3090.7094	3105.3294	3157.6694	3225.549	3251.5456
CN1C2C=CC11CCC21	CN1[C@H]2C=C[C@]31CC[C@@H]23	
InChI=1S/C8H11N/c1-9-7-3-5-8(9)4-2-6(7)8/h3,5-7H,2,4H2,1H3	InChI=1S/C8H11N/c1-9-7-3-5-8(9)4-2-6(7)8/h3,5-7H,2,4H2,1H3/t6-,7-,8+/m0/s1
