21
gdb 123085	6.55211	0.47377	0.44813	4.7542	77.78	-0.2443	-0.0097	0.2346	2401.714	0.177893	-461.361577	-461.350014	-461.34907	-461.400819	38.264	
C	-0.0653285764	 1.4587244594	 0.0533917308	-0.482959
C	 0.0820267756	-0.0521271903	-0.0274524282	 0.359582
O	 1.1523356158	-0.6018867239	-0.0781222792	-0.268574
C	-1.2362687816	-0.8234490031	-0.0332320516	-0.154876
O	-1.0020652943	-2.1960092729	 0.0069055678	-0.223546
C	-2.1869943067	-2.9660105229	-0.0213844214	-0.053501
C	-1.8022031677	-4.4373487675	 0.0266442682	-0.18291
C	-3.0136600254	-5.3600129467	-0.0021067344	-0.072292
O	-2.5384543397	-6.6955950352	 0.0497390072	-0.418043
H	 0.8951465051	 1.9303641719	-0.1567994306	 0.147784
H	-0.8245695005	 1.8271147733	-0.6446167228	 0.132759
H	-0.3888850337	 1.7445829689	 1.0613019695	 0.144891
H	-1.847826515	-0.4815155753	 0.8231286024	 0.100857
H	-1.7972899962	-0.5269176787	-0.9403476798	 0.104031
H	-2.8329585317	-2.7039835784	 0.8352425541	 0.084464
H	-2.7639139622	-2.7433632588	-0.9364337631	 0.084856
H	-1.1517345041	-4.668919533	-0.8229578288	 0.122154
H	-1.2233743718	-4.630505036	 0.9356558209	 0.121209
H	-3.6744861726	-5.1389414526	 0.8528101009	 0.083979
H	-3.600153008	-5.1811775916	-0.9188367852	 0.084277
H	-3.2971467188	-7.2858929967	 0.0300459234	 0.285858
34.9958	44.9824	72.0522	76.4755	104.4361	124.5967	150.6309	193.6627	264.7037	267.876	348.1695	442.2368	479.4648	506.5654	610.0153	778.9965	836.1973	864.1582	891.9004	939.7616	1017.6345	1059.0183	1063.6193	1095.2586	1108.9284	1173.7581	1177.9399	1205.4542	1230.5228	1245.6405	1261.6582	1304.6524	1305.8888	1318.851	1379.1828	1391.1182	1441.1138	1463.5653	1467.9258	1476.6302	1487.8937	1499.0848	1524.8378	1535.2808	1836.9986	2923.9258	2941.3979	2944.1664	2955.3235	2964.3895	2978.5227	3036.0375	3055.0895	3097.1658	3101.7174	3152.8797	3831.1186
CC(=O)COCCCO	CC(=O)COCCCO	
InChI=1S/C6H12O3/c1-6(8)5-9-4-2-3-7/h7H,2-5H2,1H3	InChI=1S/C6H12O3/c1-6(8)5-9-4-2-3-7/h7H,2-5H2,1H3
