17
gdb 83968	2.31313	2.00882	1.87698	2.4152	66.69	-0.2432	-0.0186	0.2246	860.8939	0.138675	-458.953637	-458.946739	-458.945794	-458.984546	28.136	
O	 0.1314710751	 1.351883519	-0.1440733022	-0.44052
C	 0.0123399728	-0.0292810467	 0.0052087083	 0.146663
C	 0.4667508721	-0.5944158809	 1.3766830829	 0.027918
O	-0.1971846544	 0.20864398	 2.3817705108	-0.285305
C	-1.6041680651	 0.073948949	 2.3390220669	 0.010836
O	-2.1357510739	 0.2305725779	 1.0380824882	-0.285292
C	-1.4398664403	-0.5728193618	 0.0551239107	 0.027923
C	-1.1928290466	-1.9910671596	 0.5375546774	-0.097794
C	-0.0933301879	-2.0035184306	 1.2996774568	-0.097797
H	-0.3661352705	 1.749847764	 0.5806508038	 0.287808
H	 0.5711199521	-0.4978399462	-0.80861068	 0.093211
H	 1.5321759858	-0.5109176589	 1.5910304867	 0.085423
H	-1.9028507386	-0.8978293289	 2.7540882898	 0.098546
H	-2.0169590092	 0.8813697806	 2.9477424436	 0.12095
H	-2.0130559168	-0.470753678	-0.8663331976	 0.085423
H	-1.84321894	-2.8303374023	 0.3238793744	 0.111003
H	 0.3220650755	-2.8548564667	 1.8247573292	 0.111003
153.9338	238.8978	298.0721	352.9472	354.7349	424.9819	489.0745	592.5159	595.2466	611.0663	773.9565	787.9457	800.288	873.8756	882.1528	946.5467	971.5085	977.9836	987.1777	1005.3857	1043.3968	1100.3814	1119.895	1155.1671	1182.7231	1220.7359	1268.4335	1273.954	1286.7896	1321.2046	1347.3075	1361.7753	1368.5101	1437.4259	1441.0531	1517.3183	1643.9293	3012.4739	3090.7419	3108.7443	3117.6316	3120.7097	3196.9995	3220.6779	3794.9419
OC1C2OCOC1C=C2	O[C@H]1[C@H]2OCO[C@@H]1C=C2	
InChI=1S/C6H8O3/c7-6-4-1-2-5(6)9-3-8-4/h1-2,4-7H,3H2	InChI=1S/C6H8O3/c7-6-4-1-2-5(6)9-3-8-4/h1-2,4-7H,3H2/t4-,5+,6-
