16
gdb 16357	2.55996	2.38436	1.44622	3.9913	66.94	-0.2553	0.0162	0.2715	885.3776	0.130634	-379.89188	-379.884372	-379.883428	-379.923586	28.075	
C	-0.3017177985	 1.4888842131	 0.0362897596	-0.406147
C	 0.124518706	 0.0386626763	 0.0029479075	 0.07404
O	 1.385578693	-0.1550373134	-0.7299802778	-0.288546
C	 2.0021179408	-0.7487304002	 0.3608918495	 0.410433
N	 3.1547965427	-1.2168836516	 0.5008055084	-0.548808
C	 0.7995708229	-0.5769686004	 1.23518304	 0.17936
C	 0.6973641138	-0.2050389994	 2.6640231139	-0.295931
N	 0.2930655606	-1.5425281678	 2.1999840897	-0.348653
H	 0.4796778686	 2.1135540412	 0.4773906964	 0.133703
H	-0.5093784562	 1.8503500073	-0.9752279287	 0.137253
H	-1.2164819231	 1.6020218281	 0.628338745	 0.1222
H	-0.6480170184	-0.6016135236	-0.4385918935	 0.09795
H	 3.6985965479	-1.1402020726	-0.3599403864	 0.229458
H	 1.5979356983	-0.1881560358	 3.2702008081	 0.146664
H	-0.0683373702	 0.5136789497	 2.9459960631	 0.119459
H	-0.7207206982	-1.6026616908	 2.1275913952	 0.237563
103.3531	194.7795	216.7161	217.902	251.4694	316.9585	478.9721	511.0543	602.4253	685.0799	731.3741	839.9341	856.7886	864.9998	895.4848	950.2795	980.7058	997.731	1020.2258	1062.9957	1074.5167	1126.963	1152.5436	1214.7477	1259.419	1280.737	1311.4983	1379.8747	1409.6809	1432.5323	1484.3278	1491.5178	1511.2403	1834.2268	3037.974	3043.1582	3107.9889	3109.7677	3125.4169	3202.7868	3482.9429	3488.404
CC1OC(=N)C11CN1	C[C@H]1O[C]([NH])[C@]21CN2	
InChI=1S/C5H8N2O/c1-3-5(2-7-5)4(6)8-3/h3,6-7H,2H2,1H3	InChI=1S/C5H8N2O/c1-3-5(2-7-5)4(6)8-3/h3,6-7H,2H2,1H3/t3-,5-/m1/s1
