19
gdb 40467	3.61758	1.30992	1.1793	1.8342	79.21	-0.2289	0.0745	0.3033	1105.9179	0.159531	-385.780065	-385.772712	-385.771768	-385.812151	29.508	
C	-0.1418655327	 1.4328861273	-0.1530095882	-0.269667
C	 1.2717154389	 0.9695995795	 0.0873198076	-0.269676
C	 0.1376938883	-0.0285046182	 0.1095660288	-0.138994
C	-0.2880597771	-0.6686284335	 1.3791216435	 0.342181
C	-0.3487530989	-0.1109859192	 2.8230190406	-0.336472
C	-0.8549532223	-1.5589085491	 2.9958795516	-0.10109
C	-1.5670197043	-1.5524545427	 1.6111254901	 0.046012
O	-0.9451800839	-2.7860033887	 1.1410476602	-0.333142
C	 0.1013147408	-2.1019848024	 1.8934978371	 0.045965
H	-0.6248196905	 2.0055732353	 0.6316211981	 0.112285
H	-0.4277464419	 1.7247264578	-1.1573616598	 0.113945
H	 1.9579119078	 0.9428943136	-0.7517546719	 0.113939
H	 1.7343214439	 1.2323505368	 1.0327350418	 0.112307
H	 0.0651844619	-0.6937734122	-0.7466543926	 0.095003
H	 0.6077596596	 0.1296140181	 3.2963463623	 0.099722
H	-1.0760269923	 0.6842656908	 3.0114200926	 0.099717
H	-1.179981626	-2.0849301899	 3.8925356206	 0.083666
H	-2.6090344764	-1.3585271826	 1.3559802978	 0.09215
H	 1.0802967454	-2.5737253805	 1.9804509999	 0.09215
72.9362	154.216	173.9322	301.9342	367.3718	461.0851	565.653	625.333	732.67	773.324	790.8461	815.845	841.7642	850.2319	877.8934	882.2982	914.9445	930.0596	941.2421	989.0584	1006.0971	1060.4541	1061.8089	1067.6685	1080.2326	1115.1514	1127.2074	1142.3452	1144.8597	1168.5244	1170.3099	1200.3829	1214.9985	1233.2006	1242.604	1315.9598	1325.5839	1434.3068	1466.7367	1503.6648	1518.647	3045.607	3100.5613	3115.4657	3116.6841	3132.0968	3135.2233	3136.0744	3144.9414	3210.5833	3225.5466
C1CC1C12CC3C1OC23	C1CC1[C@@]12C[C@H]3[C@@H]1O[C@@H]23	
InChI=1S/C8H10O/c1-2-4(1)8-3-5-6(8)9-7(5)8/h4-7H,1-3H2	InChI=1S/C8H10O/c1-2-4(1)8-3-5-6(8)9-7(5)8/h4-7H,1-3H2/t5-,6-,7+,8-
