20
gdb 122605	3.78912	0.75855	0.66167	1.7437	77.52	-0.2515	0.025	0.2765	1698.8495	0.170146	-440.271507	-440.261825	-440.26088	-440.307306	33.874	
C	 0.0586710945	 1.4208503495	-0.0083203667	-0.228979
O	-0.0431279661	 0.018697134	 0.0475787515	-0.233215
C	 0.7045383905	-0.5421309914	 1.1047477256	-0.057192
C	 0.5508113795	-2.0578611601	 1.0363112732	-0.228817
C	 1.3018668068	-2.7705070314	 2.1577833332	-0.135851
C	 1.4105428604	-4.3116415096	 2.1017579347	-0.109814
O	 2.8683177215	-4.2149383363	 2.0356792832	-0.251867
C	 2.8164328863	-2.8372108202	 2.051549933	 0.443589
N	 3.7336402808	-1.9845829015	 1.9798884316	-0.543378
H	 1.0994568583	 1.7502592037	-0.1542468226	 0.107691
H	-0.5418305163	 1.7597689492	-0.8562263084	 0.124776
H	-0.3234932401	 1.8962028182	 0.9095398498	 0.101585
H	 1.7670956018	-0.2645613204	 1.0295931169	 0.125236
H	 0.3386412478	-0.1653329381	 2.0770431224	 0.079852
H	-0.5149439585	-2.3094778754	 1.0913524908	 0.110601
H	 0.9123526759	-2.4062653479	 0.0620153267	 0.114216
H	 0.9782493824	-2.4016620034	 3.1362115074	 0.108291
H	 1.0947529102	-4.8621884509	 2.9907398463	 0.121605
H	 1.0117731582	-4.7816663634	 1.1987402379	 0.122881
H	 4.6508749363	-2.4264090749	 1.8968928035	 0.22879
57.6322	80.6159	90.6316	121.862	168.0936	217.5358	237.1358	306.0088	357.2755	437.65	495.507	664.4728	748.6052	791.3511	844.9035	866.7149	920.3601	962.8162	984.1677	1008.5054	1035.5357	1083.9727	1100.7046	1144.6746	1161.7285	1169.6463	1182.9902	1217.8261	1228.3711	1236.5196	1257.073	1299.5752	1316.5496	1355.7573	1384.3883	1431.1737	1482.0825	1485.1987	1492.6188	1506.4659	1515.7005	1535.259	1818.9138	2942.3191	2969.3577	3008.2948	3012.9677	3034.9647	3059.6932	3062.7145	3082.7901	3111.7821	3121.0199	3475.2048
COCCC1COC1=N	COCC[C@H]1CO[C]1[NH]	
InChI=1S/C6H11NO2/c1-8-3-2-5-4-9-6(5)7/h5,7H,2-4H2,1H3	InChI=1S/C6H11NO2/c1-8-3-2-5-4-9-6(5)7/h5,7H,2-4H2,1H3/t5-/m0/s1
