25
gdb 108500	2.49538	1.38357	1.14667	0.0969	91.32	-0.2703	0.0799	0.3502	1243.9354	0.23116	-352.374073	-352.365166	-352.364222	-352.407344	35.729	
C	-0.2498274744	 1.5658962675	-0.0662903454	-0.385922
C	-0.0640650114	 0.0438163814	-0.0647645511	-0.270222
C	 0.8065373243	-0.4800688063	-1.2052126152	 0.406036
C	 0.1435607781	-0.4279055254	-2.6213764164	-0.274965
C	 0.2443845141	-1.9733674082	-2.7399997088	-0.222526
C	 0.9217173891	-2.0490744161	-1.341898943	-0.04826
C	 2.4204016669	-2.3798873779	-1.3398827453	-0.217039
C	 3.0984380131	-1.0853054964	-1.829143604	-0.218754
C	 2.2621696908	 0.030017594	-1.1733478192	-0.262715
H	 0.7052108637	 2.0862626651	 0.0587747781	 0.117023
H	-0.6933430196	 1.9100158107	-1.0070393371	 0.116077
H	-0.909939733	 1.8834952583	 0.7469211729	 0.109486
H	 0.3773183412	-0.2696713835	 0.8916127025	 0.087813
H	-1.0491852672	-0.4389398297	-0.1174781652	 0.08725
H	-0.879704534	-0.0413636362	-2.6178761193	 0.092518
H	 0.7097648818	 0.1314253173	-3.3721112347	 0.091003
H	-0.7193126107	-2.4849779315	-2.8008188609	 0.094894
H	 0.8670151124	-2.3342145285	-3.5644635221	 0.092511
H	 0.3625512787	-2.631571945	-0.6049731119	 0.053638
H	 2.750160487	-2.6041643978	-0.3177078074	 0.091655
H	 2.6633192745	-3.2522278386	-1.9562865945	 0.090255
H	 4.1599318447	-1.031545855	-1.570495511	 0.091524
H	 3.0334448459	-1.0141562589	-2.9218111104	 0.098765
H	 2.382659009	 0.9989287266	-1.6688087763	 0.091372
H	 2.5800320549	 0.1590089441	-0.1299219441	 0.088584
89.2694	123.8391	174.2872	217.6569	235.8028	304.3295	353.1764	380.1868	420.1188	561.5954	578.7391	623.7824	743.7769	788.5489	805.7817	830.4097	849.9084	885.1225	906.2629	939.0242	950.8847	964.542	974.8687	996.1503	1028.9002	1042.9665	1061.419	1084.7628	1112.2064	1158.9852	1175.2009	1213.971	1221.2035	1231.2766	1252.2112	1267.2494	1280.291	1285.7634	1313.8798	1321.5913	1337.2621	1349.5308	1362.5991	1366.8416	1411.5008	1476.1365	1480.8064	1486.8776	1491.3067	1493.2342	1500.239	1507.4635	1511.8425	3004.1724	3015.262	3024.4856	3033.4768	3034.3746	3036.6404	3043.75	3051.2032	3066.0894	3070.9591	3074.3164	3086.3715	3088.538	3100.5917	3103.9774	3107.5069
CCC12CCC1CCC2	CC[C@]12CC[C@H]1CCC2	
InChI=1S/C9H16/c1-2-9-6-3-4-8(9)5-7-9/h8H,2-7H2,1H3	InChI=1S/C9H16/c1-2-9-6-3-4-8(9)5-7-9/h8H,2-7H2,1H3/t8-,9+/m1/s1
