14
gdb 124084	5.11805	1.02068	0.9485	1.632	62.73	-0.266	-0.0785	0.1874	1183.3856	0.101121	-469.919337	-469.912027	-469.911083	-469.953724	25.286	
C	 0.117058684	 1.6135040055	 0.0982644999	-0.08674
O	 1.5430729665	 1.4154730568	 0.1471333174	-0.263625
C	 1.3936249375	-0.0087287849	 0.2572786884	-0.075532
C	-0.1393844498	 0.0901071551	 0.0014844752	-0.147656
C	-1.0555824556	-0.5441958642	 0.9785371112	 0.405255
N	-1.3723881501	-0.072581037	 2.1518538346	-0.147563
O	-2.2041472576	-0.9955068235	 2.6842438951	-0.135237
N	-2.3663509409	-2.0347639395	 1.7711293945	 0.048502
N	-1.6812430994	-1.7633354026	 0.7547340455	-0.205709
H	-0.2685239283	 2.0759787678	 1.0138054157	 0.132432
H	-0.1895700591	 2.2048208639	-0.770573177	 0.117087
H	 1.9703998765	-0.5504261597	-0.499379424	 0.12057
H	 1.6572734811	-0.3792254397	 1.2559520034	 0.11628
H	-0.4137033147	-0.244400198	-0.9993524497	 0.121936
12.7765	73.1983	151.2407	215.4251	376.7029	418.3745	618.819	676.8065	691.3656	776.3552	835.3856	890.9462	934.6843	966.6438	1013.4936	1039.4408	1047.8094	1063.1423	1095.6198	1133.8749	1163.6477	1173.3287	1231.712	1250.4111	1312.1385	1371.0924	1397.8161	1493.2722	1510.4346	1533.9467	1590.6971	3018.4972	3035.128	3075.6792	3082.6321	3114.6645
C1OCC1C1=NON=N1	C1OCC1c1nonn1	
InChI=1S/C4H5N3O2/c1-3(2-8-1)4-5-7-9-6-4/h3H,1-2H2	InChI=1S/C4H5N3O2/c1-3(2-8-1)4-5-7-9-6-4/h3H,1-2H2
