23
gdb 64470	2.50483	1.37621	1.1402	1.089	88.55	-0.2369	0.0274	0.2644	1225.2126	0.205804	-388.301647	-388.292323	-388.291379	-388.335268	36.6	
C	-0.5475860768	 1.6035013866	-0.1021136247	-0.40544
C	-0.0471199786	 0.1436343569	-0.0198449607	 0.293509
C	-1.2534038399	-0.8109262665	 0.0063899084	-0.398013
O	 0.6277131946	-0.2154985456	-1.2242088574	-0.285043
C	 1.8984287124	 0.33974578	-1.5068142387	-0.080486
C	 3.0243700977	-0.4715570399	-0.8696687071	-0.194148
C	 3.2469033726	-0.1707400794	 0.6138356558	-0.251904
C	 2.044146699	-0.1725022031	 1.5189877092	-0.09606
C	 0.7425679136	-0.034736031	 1.2625645388	-0.038585
H	 0.2834912164	 2.3124219268	-0.1477758191	 0.116389
H	-1.167091647	 1.7303580326	-0.995116856	 0.117172
H	-1.1469773339	 1.8577975898	 0.7772283462	 0.112702
H	-1.8409891086	-0.6869249271	-0.9073091355	 0.118137
H	-0.9100035627	-1.8471547246	 0.0595123089	 0.12183
H	-1.8963049256	-0.6081022089	 0.8674192671	 0.107576
H	 1.9897633212	 0.3076982308	-2.5983714523	 0.100523
H	 1.9607684406	 1.3969380781	-1.2088624767	 0.087007
H	 2.7793466739	-1.5305173341	-1.0104076939	 0.108268
H	 3.9595339835	-0.2827561928	-1.4118792695	 0.088244
H	 3.9847320164	-0.8762076163	 1.0175296109	 0.102988
H	 3.7262076596	 0.8172908398	 0.708992763	 0.109451
H	 2.3079378974	-0.2488794172	 2.5737613851	 0.08438
H	 0.0870965441	-0.0111156348	 2.1332164784	 0.081504
62.4824	149.6378	202.9649	252.5414	259.1251	291.4727	302.3555	322.1609	390.7837	420.418	449.7148	507.4778	560.4306	670.2758	720.6639	771.4655	822.785	855.6993	890.2916	919.3005	939.7747	963.1572	981.0218	1017.1562	1024.7185	1081.6135	1103.1461	1126.1693	1179.2322	1197.1047	1212.9418	1242.6702	1273.3452	1309.1248	1319.6868	1383.8283	1388.8689	1393.8956	1406.0702	1412.5309	1440.7393	1469.6675	1475.3067	1479.3804	1480.0419	1492.7075	1501.3687	1507.6922	1737.5567	2979.4931	2997.5211	3022.4519	3035.2286	3038.6172	3045.5756	3060.521	3074.3164	3108.2329	3111.7279	3116.6186	3123.3971	3126.0991	3135.2549
CC1(C)OCCCC=C1	CC1(C)OCCCC=C1	
InChI=1S/C8H14O/c1-8(2)6-4-3-5-7-9-8/h4,6H,3,5,7H2,1-2H3	InChI=1S/C8H14O/c1-8(2)6-4-3-5-7-9-8/h4,6H,3,5,7H2,1-2H3
