21
gdb 108855	2.10542	1.25367	0.85429	2.114	81.07	-0.242	0.0162	0.2582	1397.7093	0.181846	-424.236042	-424.226285	-424.22534	-424.270811	36.379	
C	 0.0311277544	 1.5859964494	-0.0227556409	-0.394495
C	 0.0430043446	 0.0538367976	 0.0264696281	-0.012542
C	 0.7801038538	-0.6178385445	-1.1605116678	-0.255359
C	 1.5032095385	-1.8553218692	-0.5760645778	 0.047681
O	 2.7703740723	-2.130196704	-1.1657164983	-0.431042
C	 1.5529126385	-1.5554984099	 0.9125516509	 0.208541
C	 2.3763990803	-2.3904737237	 1.8474674648	-0.159875
O	 2.4404465183	-1.8843449131	 3.1699604148	-0.410064
C	 0.7617701276	-0.5279419022	 1.2242449575	-0.17591
H	 1.0519601272	 1.9845070171	-0.0267637343	 0.109289
H	-0.4757677937	 1.9485494699	-0.9232918101	 0.115298
H	-0.4893107693	 2.0062782947	 0.8444939835	 0.114296
H	-1.0035343778	-0.2866882271	 0.0445135074	 0.083175
H	 0.1232915761	-0.8645033457	-1.9983347427	 0.103457
H	 1.5459584463	 0.0686016267	-1.5456150452	 0.089382
H	 0.9299635313	-2.7745370531	-0.7572816444	 0.094514
H	 3.3098402102	-1.3369688296	-1.0697649928	 0.272332
H	 1.9387174284	-3.3943602804	 1.9320571006	 0.124342
H	 3.3789075787	-2.5370006394	 1.4151655543	 0.10148
H	 2.8229528434	-1.0020876068	 3.1195652169	 0.280356
H	 0.594858481	-0.1662311167	 2.2337505257	 0.095141
72.8263	89.5953	130.6291	180.3712	234.5535	271.4888	290.629	330.5763	345.0996	378.2284	431.7188	505.3145	559.6997	600.1857	670.339	826.3559	862.0777	875.2616	929.1093	944.9578	981.25	997.7078	1040.3905	1066.7458	1089.4406	1096.2643	1130.3564	1174.5553	1202.6387	1211.5626	1250.6423	1266.136	1313.8556	1315.7423	1320.6503	1359.8226	1383.4054	1407.39	1418.3093	1425.4536	1485.7618	1494.8813	1496.969	1498.6193	1717.9111	2982.6952	2983.0718	3015.9699	3023.4187	3026.9696	3034.1798	3094.1142	3098.0873	3099.5598	3185.2891	3790.8079	3811.3226
CC1CC(O)C(CO)=C1	C[C@H]1C[C@@H](O)C(=C1)CO	
InChI=1S/C7H12O2/c1-5-2-6(4-8)7(9)3-5/h2,5,7-9H,3-4H2,1H3	InChI=1S/C7H12O2/c1-5-2-6(4-8)7(9)3-5/h2,5,7-9H,3-4H2,1H3/t5-,7-/m1/s1
