16
gdb 25951	4.68775	1.00132	0.95986	1.4998	72.46	-0.2277	0.0091	0.2369	1261.9887	0.123782	-437.917613	-437.909321	-437.908377	-437.952076	29.93	
C	 0.0328209704	 1.2947576882	 0.1177028395	-0.447822
C	-0.1169367118	-0.1434284489	-0.2651838759	 0.392695
N	 0.5257564073	-0.702505645	-1.1901033484	-0.496241
O	-1.083842617	-0.7340203176	 0.5628089227	-0.270516
C	-1.3220336216	-2.0541751714	 0.444795428	 0.398792
C	-2.1147424358	-2.7855186037	-0.3813936414	-0.304825
C	-1.9820019274	-4.1441782129	 0.0642310228	-0.164195
C	-1.124101506	-4.1196195088	 1.1149230402	-0.009856
O	-0.7056276946	-2.8435216429	 1.3595728896	-0.156559
H	 0.7617768166	 1.7715597104	-0.5354939257	 0.15268
H	-0.9305774149	 1.8078012408	 0.0389888864	 0.145288
H	 0.358149348	 1.3745435319	 1.1595171939	 0.148078
H	 0.2714116759	-1.6864715442	-1.2980709129	 0.229347
H	-2.7178090152	-2.4034807229	-1.1885990822	 0.123745
H	-2.467465434	-5.01472153	-0.3477229911	 0.118202
H	-0.7239822599	-4.8731377531	 1.7718448546	 0.141187
27.8567	71.4343	120.8584	153.4789	334.6901	348.5939	434.866	545.0548	559.0666	617.3019	647.174	731.6671	766.7416	809.2422	850.8746	872.7959	898.6352	909.908	968.1685	1018.1406	1034.3273	1076.7293	1082.4847	1104.0826	1187.6451	1239.048	1262.9241	1297.8842	1406.8869	1419.13	1473.8623	1476.0923	1545.3639	1642.4675	1776.2897	3053.4967	3111.996	3173.2371	3257.3663	3272.4387	3292.8619	3460.8097
CC(=N)OC1=CC=CO1	C[C]([NH])Oc1ccco1	
InChI=1S/C6H7NO2/c1-5(7)9-6-3-2-4-8-6/h2-4,7H,1H3	InChI=1S/C6H7NO2/c1-5(7)9-6-3-2-4-8-6/h2-4,7H,1H3
