16
gdb 50960	1.82104	1.30622	0.79132	2.8168	73.71	-0.2621	-0.0484	0.2137	1377.1231	0.120073	-437.849199	-437.839365	-437.838421	-437.885192	33.728	
N	-0.4248173464	 1.3731796741	 0.1398413441	-0.438607
C	-0.3701729067	 0.1189718054	 0.2267653393	 0.135878
O	-1.2243482879	-0.6380377034	-0.5061765408	-0.196578
C	-1.1752999981	-2.0452358418	-0.3414950645	-0.002324
C	-2.212456473	-2.5566985862	 0.6736988978	-0.356388
C	-1.8750377331	-2.2160859704	 2.0478622023	 0.278058
C	-1.570123414	-1.9243391781	 3.1732572316	-0.422831
C	-1.3973945444	-2.650999695	-1.7271099627	 0.150651
O	-1.8361650945	-3.7546642407	-1.9085650536	-0.240034
H	 0.2842399175	 1.7965542991	 0.7344654447	 0.234627
H	 0.3156368126	-0.4762337046	 0.84218737	 0.101627
H	-0.1682853465	-2.3546726154	-0.0182936062	 0.12271
H	-3.1892088601	-2.138058936	 0.4050018341	 0.154242
H	-2.286211701	-3.6421027923	 0.5441906734	 0.161273
H	-1.3218391656	-1.6742194475	 4.1751281592	 0.203741
H	-1.1025919087	-1.9750273473	-2.5569906788	 0.113955
57.441	69.7262	84.4115	134.6127	141.7221	215.7071	246.6419	342.1993	367.1405	421.4038	499.0824	567.3483	627.7143	652.4282	677.7957	813.9834	845.1012	880.6416	980.5446	1019.7073	1033.9619	1072.815	1089.1566	1142.931	1235.9466	1264.586	1284.2135	1350.3169	1354.8113	1398.5834	1427.6395	1459.5853	1749.8579	1839.3298	2240.4824	2924.9279	2986.3021	3044.3197	3046.3385	3086.451	3503.9315	3524.0653
N=COC(CC#C)C=O	[NH][CH]O[C@@H](CC#C)C=O	
InChI=1S/C6H7NO2/c1-2-3-6(4-8)9-5-7/h1,4-7H,3H2	InChI=1S/C6H7NO2/c1-2-3-6(4-8)9-5-7/h1,4-7H,3H2/t6-/m0/s1
