17
gdb 63502	2.10653	1.57612	1.08053	5.0696	75.16	-0.2697	-0.05	0.2197	1146.9788	0.133126	-418.009353	-417.999771	-417.998827	-418.043636	34.344	
C	-0.1011678531	 1.5423762761	 0.0517311069	-0.441467
C	-0.0419756693	 0.0260971539	 0.0216756242	 0.27339
C	-1.3395472125	-0.6338073414	-0.4021265698	-0.466822
N	 1.2237713578	-0.5488548183	-0.4032661347	-0.378255
C	 0.8503576591	-0.715322593	 1.0264446088	 0.01103
C	 1.716950984	 0.0451014678	 1.9962845428	 0.124034
O	 1.7614782679	-0.1835830918	 3.174170794	-0.232006
C	 0.4063949815	-2.0063922916	 1.4947143812	 0.251315
N	 0.0634633221	-3.0545943635	 1.8423317348	-0.339936
H	 0.8778043714	 1.9883498307	 0.2285624634	 0.136985
H	-0.464063191	 1.9083341547	-0.9145499886	 0.134326
H	-0.7949466863	 1.8882295904	 0.8239491304	 0.138487
H	-1.5810493442	-0.3287433346	-1.4262483072	 0.134344
H	-1.2818866258	-1.7236050829	-0.3672719938	 0.149509
H	-2.1646753349	-0.3174240188	 0.2430456668	 0.144489
H	 1.0913236029	-1.4293120475	-0.8971864168	 0.255143
H	 2.3221539204	 0.8376339599	 1.5129358275	 0.105435
80.9342	131.7664	150.9188	166.8086	176.8586	217.9642	286.6856	343.1847	369.7686	396.5259	432.1694	494.9583	574.7123	597.0239	694.4835	754.4424	804.3332	952.8412	963.029	992.4679	1029.9509	1057.244	1087.8579	1132.7871	1150.0537	1272.9399	1339.4961	1365.8685	1399.997	1418.1765	1427.8776	1476.523	1484.1797	1497.8848	1507.9711	1830.1794	2352.9384	2938.5994	3039.8597	3046.5279	3104.8927	3109.9524	3134.9829	3147.8646	3499.0332
CC1(C)NC1(C=O)C#N	CC1(C)N[C@]1(C=O)C#N	
InChI=1S/C6H8N2O/c1-5(2)6(3-7,4-9)8-5/h4,8H,1-2H3	InChI=1S/C6H8N2O/c1-5(2)6(3-7,4-9)8-5/h4,8H,1-2H3/t6-/m0/s1
