20
gdb 7592	2.66348	1.68284	1.43155	2.0303	71.04	-0.2437	0.0706	0.3143	1004.8214	0.174097	-386.124656	-386.1151	-386.114156	-386.158126	35.946	
C	-0.322144363	 1.4143580969	 0.0734871364	-0.414866
C	 0.0897414267	-0.0551800248	-0.0991122178	 0.004132
C	 0.9607040412	-0.2567905276	-1.3478040194	-0.396583
C	 0.8089085309	-0.5688453983	 1.1417271283	 0.40094
O	 2.0306383853	 0.0638534406	 1.4341700607	-0.477399
C	 0.0052451836	-1.0803372045	 2.3259420111	-0.403438
C	 0.8145372489	-2.0282289389	 1.4580088116	 0.05478
O	 0.1656632023	-2.8854292272	 0.5648776999	-0.421285
H	 0.5563782379	 2.0644888167	 0.164496425	 0.106958
H	-0.8904506532	 1.7639563771	-0.7939474584	 0.114583
H	-0.9449783893	 1.5563975255	 0.9634711196	 0.109141
H	-0.8166914401	-0.6589004877	-0.2127312932	 0.082127
H	 1.9223471196	 0.2521255336	-1.2310216626	 0.120645
H	 1.1555441268	-1.3198442643	-1.5130447254	 0.130592
H	 0.4661261985	 0.1442707961	-2.2385112397	 0.099623
H	 1.8312605619	 0.9400064224	 1.7814793422	 0.282386
H	 0.3754313034	-0.8718829236	 3.3239895585	 0.109739
H	-1.0748320347	-1.1120653852	 2.2231009667	 0.110894
H	 1.7404668842	-2.4100646087	 1.8862901199	 0.097751
H	-0.2689206408	-3.5751164881	 1.0770151965	 0.28928
73.3287	157.2799	209.3312	221.8272	245.5379	257.7045	281.5918	288.1833	322.3293	365.5059	425.4394	469.358	510.9147	590.1165	686.2163	825.9098	873.4456	919.874	926.9375	937.1182	971.89	990.6759	1019.6983	1061.4617	1099.2282	1129.7533	1171.2522	1189.6844	1241.2618	1263.6503	1314.9022	1323.4493	1342.3108	1380.9891	1393.1657	1413.3102	1422.1846	1489.1042	1491.8455	1496.4209	1506.0529	1516.1734	3023.3028	3037.9718	3054.5473	3088.2337	3101.5533	3107.2601	3112.7664	3121.0959	3126.2505	3220.6287	3801.4091	3808.2183
CC(C)C1(O)CC1O	CC(C)[C@@]1(O)C[C@H]1O	
InChI=1S/C6H12O2/c1-4(2)6(8)3-5(6)7/h4-5,7-8H,3H2,1-2H3	InChI=1S/C6H12O2/c1-4(2)6(8)3-5(6)7/h4-5,7-8H,3H2,1-2H3/t5-,6+/m1/s1
