18
gdb 18970	4.33752	2.24187	1.80534	0.2318	76.4	-0.229	0.0198	0.2488	779.2906	0.157502	-310.634851	-310.62912	-310.628176	-310.664237	24.692	
C	-0.0700504058	 1.6175919751	 0.0105996399	-0.239917
C	 1.4380775254	 1.2648570277	-0.028170863	-0.05441
C	 1.1474583464	 0.1803561921	 1.0636459615	 0.027288
C	 2.1171986921	-0.988096377	 1.2253477062	-0.307509
C	 2.5364877752	-1.5424765688	-0.1086918497	-0.066117
C	 2.0453492058	-0.9865345844	-1.2142373311	-0.090789
C	 1.0959107729	 0.1671895197	-1.0948435091	-0.010418
C	-0.0092389819	 0.0694746796	 0.013685869	-0.05441
H	-0.4380040975	 2.0950510516	 0.9232505851	 0.086321
H	-0.4853984393	 2.0891255867	-0.8847540293	 0.086025
H	 2.2856680172	 1.9525099929	-0.0615485314	 0.06491
H	 0.8402398484	 0.5862813876	 2.0334703949	 0.05736
H	 2.9985826124	-0.6632052438	 1.7978168918	 0.106327
H	 1.6519939547	-1.7753999218	 1.8367793344	 0.106326
H	 3.2273958947	-2.3800022678	-0.1371341773	 0.08524
H	 2.3129390055	-1.3451684179	-2.2036985372	 0.083078
H	 0.7506269759	 0.5515136273	-2.0581531282	 0.055784
H	-0.8449668421	-0.633174099	 0.0289868236	 0.06491
234.901	294.4161	430.5642	467.7417	529.8948	582.8376	693.1639	771.6231	777.4198	800.7961	841.8146	887.7201	903.1732	936.3279	971.9967	989.1724	998.5526	1006.7199	1020.8506	1057.392	1076.5302	1090.2684	1113.5871	1137.1945	1154.0213	1173.8837	1197.8933	1216.1016	1243.0673	1258.0288	1263.6336	1327.4612	1360.6759	1403.6338	1422.1905	1470.4322	1514.1925	1713.9249	2995.8082	3015.5855	3042.8417	3047.1855	3070.5327	3086.6051	3094.4848	3107.9274	3158.3362	3182.2829
C1C2C3CC=CC2C13	C1[C@H]2[C@@H]3CC=C[C@H]2[C@H]13	
InChI=1S/C8H10/c1-2-5-7-4-8(5)6(7)3-1/h1-2,5-8H,3-4H2	InChI=1S/C8H10/c1-2-5-7-4-8(5)6(7)3-1/h1-2,5-8H,3-4H2/t5-,6+,7-,8+
