18
gdb 37314	3.17447	1.70341	1.37641	2.007	76.52	-0.2267	0.0241	0.2508	967.2289	0.150067	-401.894063	-401.887129	-401.886185	-401.925395	27.978	
C	 0.0836633025	 1.4887596007	 0.1439569845	-0.117971
O	 1.3829205011	 2.0187440671	-0.0651990118	-0.260095
C	 2.0256981928	 1.5864134439	-1.2340437864	 0.123365
C	 3.5217859539	 1.3035318601	-1.0660078705	-0.082701
N	 3.6451882216	 0.2154201282	-0.067638555	-0.315444
C	 3.3410740149	-0.1204584573	-1.4720729063	-0.072049
C	 1.8253398406	 0.0833343367	-1.6603670686	-0.092121
C	 0.8335772758	-0.6665978205	-0.8353823113	-0.054376
C	 0.001981552	-0.0056599656	-0.0340463142	-0.079133
H	-0.1773863947	 1.7605819713	 1.1722091561	 0.116645
H	-0.6524171364	 1.9905575897	-0.5112509396	 0.093824
H	 1.8272810669	 2.2720054136	-2.0707465532	 0.064677
H	 4.3423978779	 1.9853055467	-1.2501882672	 0.093045
H	 4.64372287	 0.0601849929	 0.0691545729	 0.228769
H	 3.9923325785	-0.7581489558	-2.0571971196	 0.090453
H	 1.5688373863	 0.0264454217	-2.7245171076	 0.084103
H	 0.7880249452	-1.7488853901	-0.9284267662	 0.087623
H	-0.766689719	-0.5235437831	 0.5329170441	 0.091387
118.3109	135.5094	255.2944	363.4212	446.4551	477.9835	541.7342	601.8759	673.1189	728.8189	791.6875	812.492	842.0089	885.832	911.1835	924.1442	967.6242	983.1082	993.6426	1020.2598	1037.0486	1057.7568	1090.2612	1105.3221	1119.3452	1135.0718	1182.8526	1219.1245	1258.6297	1271.0344	1277.1134	1325.3396	1332.6305	1368.5391	1382.7723	1406.9008	1414.2674	1493.0514	1718.361	2931.3056	2989.6572	3039.509	3065.063	3148.1199	3173.9057	3183.1225	3197.388	3473.8279
C1OC2C3NC3C2C=C1	C1O[C@H]2[C@H]3N[C@H]3[C@H]2C=C1	
InChI=1S/C7H9NO/c1-2-4-5-6(8-5)7(4)9-3-1/h1-2,4-8H,3H2	InChI=1S/C7H9NO/c1-2-4-5-6(8-5)7(4)9-3-1/h1-2,4-8H,3H2/t4-,5+,6+,7-/m1/s1
