14
gdb 129443	4.38509	1.11633	0.89055	2.5662	66.56	-0.2233	-0.036	0.1873	1209.2861	0.103875	-466.25548	-466.247393	-466.246449	-466.288193	29.876	
N	-0.0396509023	 1.3073725466	 0.0095534768	-0.533289
C	 0.017259682	-0.0452482674	 0.0215960874	 0.339018
O	 1.038663066	-0.7120269929	 0.0449946826	-0.382034
C	-1.317819247	-0.6936816746	 0.0046304279	 0.302456
N	-2.5151268714	-0.1200788155	-0.0146066905	-0.391888
C	-3.3561177702	-1.1918250579	-0.0258883116	 0.396972
N	-4.7244439936	-1.0534922849	-0.1084941479	-0.586758
N	-2.7525710831	-2.3817051889	-0.0090098714	-0.281065
N	-1.4451435276	-2.0257436737	 0.0054406815	-0.228844
H	 0.8158325397	 1.8361264067	 0.0078392434	 0.268749
H	-0.9322709101	 1.7720591408	-0.0247331883	 0.281446
H	-5.0652022666	-0.1875316262	 0.2813339298	 0.259932
H	-5.2366611193	-1.8623629474	 0.2111445694	 0.261387
H	-0.7038376564	-2.7078857748	 0.0190498409	 0.293917
90.846	155.3787	158.0365	262.0347	304.4725	354.5091	378.0786	395.82	541.65	571.9536	603.243	619.0938	662.969	680.0401	765.3356	790.8226	812.0927	1024.9003	1063.5548	1088.2863	1094.8095	1186.4699	1250.3785	1362.9511	1425.13	1496.9864	1563.255	1579.0736	1610.2123	1648.9823	1788.4624	3577.5737	3598.0766	3665.8646	3684.0245	3740.6261
NC(=O)C1=NC(N)=NN1	NC(=O)c1nc(N)n[nH]1	
InChI=1S/C3H5N5O/c4-1(9)2-6-3(5)8-7-2/h(H2,4,9)(H3,5,6,7,8)	InChI=1S/C3H5N5O/c4-1(9)2-6-3(5)8-7-2/h(H2,4,9)(H3,5,6,7,8)
