18
gdb 14528	3.81224	1.61545	1.34759	3.0463	66.86	-0.2437	0.0713	0.315	957.1726	0.152998	-384.896584	-384.888609	-384.887665	-384.929185	29.213	
C	 0.0420594996	 1.5658676286	-0.4183226807	-0.462053
C	-0.0274129841	 0.0959919196	-0.0636678499	 0.393617
C	 1.1450791347	-0.7626984999	-0.2862277683	-0.232099
O	 0.8168072198	-0.301553298	 1.0282605293	-0.265382
C	-1.416552684	-0.5001478561	-0.0517296966	-0.098655
C	-1.6293670543	-1.9150758873	 0.5291321355	-0.097755
O	-2.6335321455	-1.434597238	 1.4460266051	-0.272313
C	-2.3709885209	-0.0646746513	 1.0889282034	-0.082591
H	 1.0709662926	 1.9280996131	-0.3580728254	 0.130454
H	-0.3324881569	 1.739389354	-1.4328796889	 0.122603
H	-0.5680147218	 2.1600836622	 0.2706017293	 0.130585
H	 1.0172501603	-1.8321526397	-0.4500676497	 0.113211
H	 2.050331161	-0.3370886469	-0.7173669916	 0.114472
H	-1.8691846178	-0.3761984053	-1.0398217934	 0.084153
H	-2.0269952966	-2.6729686863	-0.155218148	 0.098918
H	-0.7573672259	-2.315118121	 1.0599895084	 0.114238
H	-1.8764162314	 0.4820769201	 1.902954673	 0.107492
H	-3.2833792688	 0.4678794921	 0.7972401484	 0.101107
85.8639	94.535	187.7942	201.3541	252.9991	337.4133	371.926	460.7268	522.8118	637.0319	783.9597	856.1434	882.6573	892.1702	919.5474	972.5685	993.1687	1038.0815	1045.3012	1054.8608	1098.3096	1132.2601	1135.5605	1169.889	1171.4902	1187.9283	1241.4988	1261.9232	1317.0715	1360.2273	1394.713	1402.8445	1415.0094	1484.2228	1495.243	1503.649	1526.3717	1535.9005	3007.7087	3024.4823	3035.537	3052.7807	3064.7724	3077.5849	3081.1973	3098.7629	3125.556	3165.0945
CC1(CO1)C1COC1	C[C@]1(CO1)C1COC1	
InChI=1S/C6H10O2/c1-6(4-8-6)5-2-7-3-5/h5H,2-4H2,1H3	InChI=1S/C6H10O2/c1-6(4-8-6)5-2-7-3-5/h5H,2-4H2,1H3/t6-/m0/s1
