21
gdb 99149	4.09711	0.74608	0.68884	1.5511	80.08	-0.264	0.0192	0.2832	1714.7945	0.180603	-424.252092	-424.241741	-424.240797	-424.289021	36.309	
C	-0.3719881096	 1.3075842601	 0.1470247965	-0.239463
O	-0.0911191309	-0.0974899072	 0.1606825888	-0.233914
C	 0.7677573234	-0.5041245394	 1.119782962	 0.456138
O	 1.2603912506	 0.2403846344	 1.9292967716	-0.357787
C	 1.03889476	-1.9934400495	 1.0045122723	-0.36314
C	 1.4866351317	-2.5948327538	 2.3184348013	 0.026297
C	 0.4918032088	-3.2423676219	 3.2529304855	-0.290384
C	 1.5309714577	-4.0870691864	 2.553207124	-0.013218
C	 1.1367184688	-5.1003794345	 1.4997017293	-0.403412
H	 0.5421780752	 1.8834897358	-0.0189275917	 0.138904
H	-1.0743595612	 1.4624196582	-0.6722027441	 0.131292
H	-0.8147415538	 1.6215775402	 1.0956124361	 0.140833
H	 0.1475039153	-2.4793445098	 0.6008828399	 0.123995
H	 1.8194192095	-2.1076501387	 0.2382162429	 0.132135
H	 2.2708746278	-2.0159450861	 2.7950635054	 0.103308
H	 0.5815538321	-3.063137571	 4.3185579217	 0.112522
H	-0.5335038696	-3.3325807997	 2.9047269604	 0.105127
H	 2.3574601493	-4.4151503917	 3.1790439648	 0.08398
H	 0.2714659785	-4.7712898897	 0.9166775003	 0.113667
H	 1.9569237618	-5.2905394696	 0.7979785269	 0.115679
H	 0.8702187545	-6.0563435299	 1.9636831461	 0.117441
31.0986	48.6436	106.8028	123.742	169.8561	193.3713	213.9478	282.4922	323.5778	384.6779	438.6409	478.5056	597.1117	712.3775	764.4538	835.8545	861.204	881.679	914.99	936.761	987.0606	1032.0187	1055.3843	1073.7812	1112.762	1149.1936	1152.7379	1179.0399	1199.2613	1200.4785	1216.4177	1242.5086	1258.6502	1339.7163	1394.5837	1419.8655	1434.1462	1461.3686	1472.972	1481.6838	1493.2772	1494.9406	1497.7383	1507.4289	1821.4369	3014.6601	3029.0443	3050.9281	3086.3784	3095.8386	3106.6375	3122.8189	3125.0101	3133.8296	3157.1959	3165.7082	3209.1841
COC(=O)CC1CC1C	COC(=O)C[C@H]1C[C@H]1C	
InChI=1S/C7H12O2/c1-5-3-6(5)4-7(8)9-2/h5-6H,3-4H2,1-2H3	InChI=1S/C7H12O2/c1-5-3-6(5)4-7(8)9-2/h5-6H,3-4H2,1-2H3/t5-,6-/m1/s1
