19
gdb 14975	4.34916	1.39021	1.11781	2.3548	71.66	-0.2433	0.0291	0.2724	1085.5556	0.167265	-365.082669	-365.074725	-365.073781	-365.115181	29.374	
C	-0.0223084013	 1.5669061305	-0.1001867052	-0.393419
C	-0.0048494689	 0.0387226023	 0.0205334386	-0.185478
C	 0.7082375708	-0.4994652634	 1.268838846	-0.018015
C	-0.032533145	-0.1625700191	 2.5614457236	-0.071793
O	 0.6247681278	-0.7182442634	 3.7104478663	-0.227086
C	 1.1891763149	-1.9377442568	 3.5345115766	 0.127767
N	 1.3306600278	-2.6148820367	 2.4771837877	-0.274246
C	 0.8808094507	-2.0246420203	 1.2195831092	-0.165231
H	 0.9943966543	 1.9748622364	-0.0915157678	 0.119654
H	-0.4969439358	 1.8782706486	-1.0356063019	 0.118094
H	-0.5757552245	 2.0390226732	 0.7179413702	 0.119623
H	-1.0339622796	-0.3457401389	 0.0023024998	 0.098004
H	 0.4886206341	-0.3848391695	-0.863355167	 0.102674
H	 1.7068635501	-0.0449205757	 1.3312097294	 0.085818
H	-0.0845763716	 0.9118985706	 2.7484541844	 0.117601
H	-1.0589286691	-0.5548019208	 2.5240059908	 0.10814
H	 1.5505195208	-2.3141499492	 4.490104159	 0.121328
H	-0.0660969953	-2.5021873583	 0.9278394542	 0.106881
H	 1.6051851897	-2.2961692795	 0.4426775362	 0.109683
82.9846	130.5434	167.2499	209.1737	249.2467	364.4238	413.8605	476.2615	499.8075	534.0912	766.8573	795.8185	892.4655	917.0256	942.9682	953.8185	962.8954	985.3682	1027.0775	1051.7675	1124.4966	1156.3536	1171.1677	1176.735	1238.0575	1271.6972	1310.3233	1315.8885	1357.2973	1369.1961	1386.4883	1406.9443	1416.7195	1423.103	1481.2878	1489.8767	1501.5974	1507.0308	1512.2559	1738.6	3000.7506	3003.771	3010.6337	3022.8361	3035.2976	3045.4848	3053.1083	3100.5946	3103.9851	3109.2983	3156.3203
CCC1COC=NC1	CC[C@H]1COC=NC1	
InChI=1S/C6H11NO/c1-2-6-3-7-5-8-4-6/h5-6H,2-4H2,1H3	InChI=1S/C6H11NO/c1-2-6-3-7-5-8-4-6/h5-6H,2-4H2,1H3/t6-/m1/s1
