23
gdb 120485	2.80554	0.88772	0.80904	0.3434	82.41	-0.2476	0.0547	0.3023	1583.5103	0.203782	-425.41918	-425.408543	-425.407599	-425.456023	38.347	
C	-0.0828521596	 1.4465263792	 0.3827263115	-0.382854
C	-0.1191792934	-0.0683210282	 0.16816643	-0.165769
C	-1.5333586298	-0.6061290829	-0.0838394782	-0.187933
C	-1.5551846108	-2.1158918453	-0.2499625398	 0.099001
O	-1.1417037798	-2.8197861286	 0.9483400785	-0.316637
C	-2.3601966095	-3.6019027202	 0.9949281421	 0.118589
C	-3.0920937271	-3.473778643	 2.3162187548	-0.401516
C	-2.9229858971	-2.8552641081	-0.2486527942	 0.042158
O	-4.1031190071	-2.1057850386	-0.1171192131	-0.421477
H	 0.9383833709	 1.7985638174	 0.5586370082	 0.11332
H	-0.474342453	 1.9820947107	-0.4895512923	 0.112649
H	-0.688171767	 1.7392069397	 1.2480574322	 0.112986
H	 0.522898889	-0.3361457615	-0.6812381894	 0.094886
H	 0.297874049	-0.5813332275	 1.0419720772	 0.119234
H	-2.1797849736	-0.31505062	 0.755745977	 0.074776
H	-1.9618304251	-0.1481004355	-0.9851205763	 0.104309
H	-0.9171896628	-2.4015332637	-1.0994168033	 0.069926
H	-2.1437554629	-4.6599764937	 0.7912678114	 0.074008
H	-3.3307395611	-2.4312155104	 2.5497863553	 0.102289
H	-4.0240262901	-4.047561504	 2.2980188938	 0.126638
H	-2.4645214767	-3.8572998362	 3.126292999	 0.130557
H	-3.0847761303	-3.4964456842	-1.1171120864	 0.095187
H	-4.0078616622	-1.5010008554	 0.6253577021	 0.285672
26.3733	78.8919	93.7497	124.2928	189.9192	247.0007	250.4659	253.0657	286.164	324.6714	390.7985	453.6505	535.6075	557.9178	740.843	787.2716	816.7817	835.2434	883.5819	904.2337	915.1736	975.9276	1023.4653	1049.5682	1070.7435	1095.9614	1124.0888	1137.5275	1153.4044	1181.0641	1241.4411	1252.6677	1267.9162	1280.4486	1302.0732	1326.6407	1341.7239	1365.4531	1389.1455	1403.3368	1412.8258	1419.96	1447.0182	1467.3595	1480.6552	1492.6955	1497.3676	1500.3086	1509.1572	2989.1175	3002.2522	3005.2747	3024.1203	3028.7905	3036.5702	3047.3103	3070.5486	3096.1185	3097.0844	3101.9873	3106.6765	3116.0414	3822.3946
CCCC1OC(C)C1O	CCC[C@H]1O[C@@H](C)[C@H]1O	
InChI=1S/C7H14O2/c1-3-4-6-7(8)5(2)9-6/h5-8H,3-4H2,1-2H3	InChI=1S/C7H14O2/c1-3-4-6-7(8)5(2)9-6/h5-8H,3-4H2,1-2H3/t5-,6+,7+/m0/s1
