19
gdb 86419	2.17031	1.91753	1.45343	2.7007	69.3	-0.2496	0.0551	0.3048	978.0899	0.161408	-460.148364	-460.140779	-460.139835	-460.180072	30.994	
O	 0.1396068682	 1.3311645443	-0.3692212035	-0.438795
C	 0.0858705414	-0.0510866909	-0.0550373157	 0.144015
C	 0.7746865707	-0.4043369737	 1.2917875542	-0.291356
C	-0.2010102179	-0.4170499403	 2.5005252209	 0.144015
O	-0.2598774769	 0.8215498349	 3.1894515835	-0.438793
C	-1.6037446557	-0.778133924	 2.0033560626	 0.060674
C	-1.5958648417	-1.7747520408	 0.8294292947	-0.275698
C	-1.3794503605	-0.4920118822	 0.0053202995	 0.060673
O	-1.991095849	 0.2977942898	 1.0818536988	-0.328146
H	-0.5280484729	 1.7578752782	 0.1824645186	 0.281505
H	 0.602952462	-0.5600359755	-0.8762493197	 0.084673
H	 1.2373748443	-1.3934357107	 1.2020862448	 0.099362
H	 1.5788185812	 0.3095760537	 1.4842915163	 0.123314
H	 0.1408295941	-1.1495507295	 3.2403767845	 0.084673
H	-0.8046039602	 1.4050547487	 2.6463148489	 0.281504
H	-2.324346045	-0.8930710856	 2.8160984708	 0.089544
H	-0.8293065237	-2.5508576383	 0.8043413207	 0.110162
H	-2.5806205543	-2.2108866484	 0.6564279018	 0.11913
H	-1.9022692641	-0.3546484697	-0.9437944718	 0.089544
122.6026	158.34	301.9951	359.6596	386.8463	395.24	415.8362	433.8543	491.0877	535.0285	635.785	735.4016	744.9251	824.1147	864.0438	888.9505	923.6228	952.8728	957.7241	966.115	1005.0175	1039.5696	1076.158	1097.5486	1125.4703	1127.0491	1187.2166	1220.0271	1246.437	1269.1123	1270.6834	1308.4537	1319.0679	1330.5445	1332.389	1364.682	1384.5937	1429.0696	1437.5684	1470.689	1499.6518	3035.8658	3048.3282	3057.3162	3080.1908	3091.3637	3096.6357	3110.9685	3141.2175	3772.7773	3780.0099
OC1CC(O)C2CC1O2	O[C@H]1C[C@@H](O)[C@@H]2C[C@H]1O2	
InChI=1S/C6H10O3/c7-3-1-4(8)6-2-5(3)9-6/h3-8H,1-2H2	InChI=1S/C6H10O3/c7-3-1-4(8)6-2-5(3)9-6/h3-8H,1-2H2/t3-,4+,5+,6-
