20
gdb 109503	1.98351	1.36395	1.03468	3.9911	80.28	-0.2714	0.0239	0.2953	1261.5726	0.169178	-403.156529	-403.146363	-403.145419	-403.19157	37.037	
C	-0.0522487061	 1.5535539588	 0.1241931743	-0.462228
C	-0.0216667177	 0.0451417064	-0.043183995	 0.283724
C	-1.1934142044	-0.663716424	 0.613135313	-0.449991
C	 0.5555287505	-0.5918386781	-1.2797188134	-0.071237
C	 1.1391829895	 0.1732825101	-2.4512450452	-0.099967
O	 2.1545208842	-0.5641670222	-3.1100402166	-0.418929
C	 1.3223617418	-0.6897782931	 0.0440455471	-0.235709
C	 2.5542709109	 0.030857555	 0.1807903832	 0.285707
N	 3.5544876307	 0.6102780119	 0.2576861082	-0.356786
H	 0.8577509709	 2.0404262679	-0.2298745439	 0.144363
H	-0.9032240129	 1.9811930458	-0.4169475272	 0.124313
H	-0.1692231274	 1.8102472012	 1.1824454017	 0.128038
H	-2.138538536	-0.3290251551	 0.171178049	 0.127142
H	-1.13235696	-1.748932874	 0.4879483452	 0.120236
H	-1.2312084862	-0.4466135612	 1.6861463412	 0.127188
H	 0.102546425	-1.5334905069	-1.5791513307	 0.104274
H	 0.353972923	 0.3386644827	-3.1967796686	 0.116498
H	 1.5040870811	 1.1597004514	-2.1398041649	 0.107615
H	 2.9330906606	-0.5565193423	-2.5422438753	 0.296076
H	 1.3240798727	-1.6527801443	 0.5441223279	 0.129672
55.7701	129.9647	136.8123	167.4461	196.7046	219.986	246.3893	314.6301	350.3005	360.2561	383.2398	420.1232	497.282	558.1258	632.4209	706.4423	813.8578	837.1044	932.3814	972.0865	984.1014	1000.5205	1012.9697	1065.4087	1079.5239	1116.9492	1150.3341	1152.5138	1204.967	1262.8276	1322.0112	1343.4873	1392.688	1414.6407	1416.3713	1430.8787	1439.6133	1481.4159	1490.0554	1497.9286	1502.1797	1512.8297	2338.7585	3026.4506	3028.9029	3039.1165	3075.1657	3093.6772	3097.1616	3105.9565	3135.3894	3143.3516	3164.9722	3805.9913
CC1(C)C(CO)C1C#N	CC1(C)[C@@H](CO)[C@H]1C#N	
InChI=1S/C7H11NO/c1-7(2)5(3-8)6(7)4-9/h5-6,9H,4H2,1-2H3	InChI=1S/C7H11NO/c1-7(2)5(3-8)6(7)4-9/h5-6,9H,4H2,1-2H3/t5-,6+/m1/s1
