16
gdb 46572	3.23746	1.72961	1.3723	4.0785	69.03	-0.2376	0.0235	0.2611	929.905	0.126029	-437.833404	-437.826761	-437.825817	-437.864245	27.016	
O	-0.120258488	-0.0883476924	-0.0811053757	-0.372007
C	-0.0073144588	 1.1101953921	 0.0095329965	 0.391621
N	-1.0671291656	 2.0097813242	 0.0456135822	-0.31243
C	-0.7534731402	 3.4123895988	 0.354359127	-0.28512
C	 0.711343443	 3.2517650093	 0.6775462983	 0.399034
C	 2.1382039163	 3.8350603316	 0.7714527444	-0.309417
C	 2.1456432906	 2.322809174	 1.1979532461	 0.030216
O	 0.9385741031	 2.5835294743	 1.9949023542	-0.335231
C	 1.2440032327	 1.9921153064	-0.0200833347	-0.152827
H	-2.0047838365	 1.646296786	 0.1191923909	 0.252881
H	-0.928852895	 4.0737121689	-0.5035115914	 0.120786
H	-1.3251797804	 3.7805869995	 1.2123719218	 0.133926
H	 2.635825292	 4.1182746769	-0.1590579314	 0.107743
H	 2.3152027724	 4.5354842695	 1.5879220274	 0.119459
H	 2.9478509502	 1.7473922186	 1.6580453078	 0.111167
H	 1.6790858242	 2.0821413525	-1.0189600134	 0.100199
142.0325	222.7922	301.324	353.2673	467.5312	489.8037	553.7523	602.3878	636.1561	671.8856	739.3304	769.9875	811.0678	889.7294	911.6742	941.4012	984.6855	997.5788	1028.0571	1040.1261	1061.9711	1121.8831	1127.9268	1184.8589	1187.9959	1202.9012	1208.8599	1249.1492	1311.7054	1331.4842	1340.8929	1431.6697	1488.7033	1504.6897	1838.4303	3023.5833	3067.4382	3078.2172	3082.1529	3131.047	3155.0654	3635.3141
O=C1NCC23CC(O2)C13	O=C1NC[C@@]23C[C@@H](O2)[C@@H]13	
InChI=1S/C6H7NO2/c8-5-4-3-1-6(4,9-3)2-7-5/h3-4H,1-2H2,(H,7,8)	InChI=1S/C6H7NO2/c8-5-4-3-1-6(4,9-3)2-7-5/h3-4H,1-2H2,(H,7,8)/t3-,4+,6-/m1/s1
