17
gdb 127794	3.09564	1.36918	1.01555	3.2307	75.03	-0.2472	-0.0069	0.2404	1151.2651	0.138082	-414.157883	-414.149742	-414.148798	-414.191567	29.176	
C	-0.5985115187	 1.4405029401	-0.1817119507	-0.338589
N	-0.1828033583	 0.0603360546	-0.028615096	-0.011259
N	-0.1125266039	-0.746935656	-1.1067787625	-0.14693
N	 0.2762998849	-1.9207544617	-0.6965823985	-0.189242
C	 0.4552689945	-1.8781886063	 0.6492894402	-0.1622
C	 0.1673113718	-0.6082657497	 1.1051772059	 0.324756
C	 0.1979320514	 0.0290918928	 2.4333689713	-0.130657
C	 0.9969281429	-0.5658788032	 3.5321496616	-0.232709
N	 1.4375712881	 0.6950519574	 2.917302157	-0.313128
H	 0.1376368389	 2.1130813883	 0.265365962	 0.157581
H	-0.6777233223	 1.6354776098	-1.2507910568	 0.17139
H	-1.5706667133	 1.610121081	 0.2908424209	 0.148427
H	 0.763651537	-2.7469760319	 1.208174698	 0.123865
H	-0.6977066293	 0.5848881959	 2.7027691874	 0.107178
H	 0.6420191044	-0.4793210899	 4.5545284103	 0.128222
H	 1.5588136924	-1.4710140694	 3.3214673867	 0.125577
H	 2.1915927493	 0.4970645283	 2.2622169532	 0.237718
49.5328	101.7351	156.6949	164.2617	220.8767	311.5255	408.7029	490.7567	611.132	711.677	720.0694	742.0806	827.7234	850.9541	875.2903	962.6922	983.8376	1008.3623	1034.3437	1107.86	1137.8438	1146.0309	1152.5064	1173.4977	1199.8994	1269.2401	1273.4852	1300.634	1307.3227	1344.0333	1406.6205	1442.6514	1479.1593	1486.2053	1504.327	1510.3101	1593.5391	3050.1887	3117.2026	3119.3893	3125.8112	3167.2871	3205.6868	3267.9009	3489.9795
CN1N=NC=C1C1CN1	Cn1nncc1[C@H]1CN1	
InChI=1S/C5H8N4/c1-9-5(3-7-8-9)4-2-6-4/h3-4,6H,2H2,1H3	InChI=1S/C5H8N4/c1-9-5(3-7-8-9)4-2-6-4/h3-4,6H,2H2,1H3/t4-/m1/s1
