15
gdb 131369	3.3692	1.52869	1.06635	1.7015	66.87	-0.2026	0.0515	0.2541	1051.6285	0.115562	-453.954316	-453.94689	-453.945946	-453.986559	27.757	
O	 0.1113117054	 1.3616125625	-0.0221295824	-0.427964
C	 0.0772184309	 0.0149286813	 0.049059513	 0.271922
N	 0.1299959056	-0.7299285397	-1.0511984861	-0.353186
N	 0.0806565189	-2.0348797457	-0.5887154879	-0.359177
C	-0.0080383786	-2.040258885	 0.7474469011	 0.507762
C	-0.0170818187	-0.75923831	 1.2230133346	 0.056029
C	-0.0614707677	-0.8230139419	 2.7224637798	-0.391163
C	-0.2462845642	-2.3700778835	 2.9283912975	-0.092627
O	-0.0631949894	-3.0458990101	 1.6347468887	-0.287304
H	 0.1766344928	 1.5881604138	-0.9589272676	 0.300865
H	 0.0877940382	-2.796289898	-1.2422798888	 0.276264
H	 0.8592924192	-0.466084492	 3.1985579296	 0.121172
H	-0.893112845	-0.2746990404	 3.1761126757	 0.122601
H	 0.4801062476	-2.8040972204	 3.6176992734	 0.127988
H	-1.254965635	-2.613990951	 3.2731178593	 0.12682
65.422	199.2734	202.819	268.5213	285.8544	417.3155	455.771	540.8524	610.4442	651.5441	665.6807	727.133	775.2293	819.9883	842.6734	930.923	968.7684	1056.454	1076.7077	1124.1265	1195.4796	1204.1636	1241.2179	1260.944	1317.3844	1338.4587	1377.7839	1461.7162	1500.8332	1518.0781	1579.0813	1613.4872	1661.0879	3029.2877	3059.0377	3069.9904	3122.7072	3703.5764	3785.8321
OC1=NNC2=C1CCO2	Oc1n[nH]c2c1CCO2	
InChI=1S/C5H6N2O2/c8-4-3-1-2-9-5(3)7-6-4/h1-2H2,(H2,6,7,8)	InChI=1S/C5H6N2O2/c8-4-3-1-2-9-5(3)7-6-4/h1-2H2,(H2,6,7,8)
