13
gdb 132877	3.06146	1.39337	0.959	5.9114	66.33	-0.2142	-0.0571	0.1571	1107.5852	0.088973	-497.890137	-497.882649	-497.881705	-497.922112	28.297	
N	 0.0336703225	 1.4459594274	 0.1524382974	-0.589262
C	 0.005021312	 0.0456888666	 0.0319101937	 0.192046
C	-1.1325624742	-0.685018658	-0.0067206314	 0.005159
O	-1.136942255	-2.0437952882	-0.016978292	-0.216666
C	 0.0093302721	-2.8137989076	-0.0327170528	 0.355206
O	-0.0712242068	-4.0120987867	-0.0590110446	-0.343916
C	 1.2382180988	-2.024258147	-0.0101625197	 0.111495
F	 2.3609681957	-2.7277733898	-0.0206459957	-0.046542
C	 1.2477923791	-0.6775139735	 0.0311659284	-0.22877
H	 0.7168461532	 1.8815044628	-0.4551390626	 0.252561
H	-0.8700271906	 1.8767668002	 0.0047838906	 0.249925
H	-2.1354832493	-0.2784603727	-0.0132733738	 0.128932
H	 2.1921769825	-0.1447292635	 0.0725526925	 0.129831
111.4076	210.0707	238.8164	300.9411	335.7549	357.2333	417.3167	467.1213	503.2382	590.6177	603.5337	674.5572	736.4879	767.2591	814.4851	832.3846	921.6844	991.7917	1060.7085	1124.5708	1204.3666	1223.1982	1335.53	1373.6233	1460.1552	1617.9419	1658.0507	1718.4329	1837.5868	3191.1187	3218.8927	3531.8642	3624.0771
NC1=COC(=O)C(F)=C1	Nc1coc(=O)c(F)c1	
InChI=1S/C5H4FNO2/c6-4-1-3(7)2-9-5(4)8/h1-2H,7H2	InChI=1S/C5H4FNO2/c6-4-1-3(7)2-9-5(4)8/h1-2H,7H2
