20
gdb 12069	3.37023	1.65242	1.46778	1.7589	73.91	-0.2488	0.0838	0.3327	970.7398	0.175852	-348.973161	-348.964892	-348.963947	-349.005374	31.91	
C	 0.011613478	 1.5042250914	 0.1941576047	-0.391016
C	-0.0882868831	-0.002095587	-0.0715836822	-0.229777
C	 0.6952831266	-0.491879134	-1.2932213277	 0.322826
C	 0.1862925556	 0.0864870418	-2.6135531047	-0.4585
C	 2.2760436706	-0.4271497437	-1.1899203421	-0.310276
C	 2.3050711645	-1.9530015075	-1.3224634654	 0.036354
O	 1.5445803706	-2.4889694946	-0.2302234812	-0.252082
C	 0.839338532	-2.0319194832	-1.3872820791	-0.013853
H	 1.0541316084	 1.8205083898	 0.3102094266	 0.116133
H	-0.4255784622	 2.0950767237	-0.616917764	 0.114347
H	-0.517261092	 1.7703012144	 1.1146299016	 0.11399
H	 0.2769784773	-0.5527576037	 0.8014522906	 0.113841
H	-1.144077504	-0.2802730554	-0.1966227796	 0.087494
H	 0.3329311741	 1.1697966178	-2.6604028964	 0.121965
H	 0.7125150556	-0.3553961735	-3.4670467803	 0.112214
H	-0.8840292837	-0.1135471504	-2.7424358874	 0.11338
H	 2.7296465123	 0.0971989732	-2.0347465223	 0.102189
H	 2.6934077959	-0.0435909067	-0.2555277381	 0.106878
H	 3.0683144632	-2.5930923873	-1.7496431265	 0.101176
H	 0.1819760404	-2.7403333752	-1.8814578967	 0.092716
100.7486	164.0062	195.1664	242.687	261.4759	291.6432	354.9214	402.9943	435.3191	551.8019	627.0582	786.6839	790.7052	833.422	862.4949	870.9198	900.9858	939.1032	964.1121	989.9651	1015.1034	1026.6181	1048.8048	1077.8026	1127.5853	1166.9822	1199.3661	1223.3861	1250.733	1271.0499	1274.759	1325.8567	1366.5693	1388.903	1410.545	1414.6562	1469.2045	1485.0953	1495.4665	1500.8532	1504.9846	1510.5343	3012.3402	3024.7283	3033.6924	3060.3769	3072.0187	3086.8136	3099.0253	3101.4794	3107.9122	3117.5073	3164.8778	3188.1121
CCC1(C)CC2OC12	CC[C@@]1(C)C[C@H]2O[C@@H]12	
InChI=1S/C7H12O/c1-3-7(2)4-5-6(7)8-5/h5-6H,3-4H2,1-2H3	InChI=1S/C7H12O/c1-3-7(2)4-5-6(7)8-5/h5-6H,3-4H2,1-2H3/t5-,6-,7+/m1/s1
