16
gdb 32165	3.79478	1.14595	0.88537	1.892	75.32	-0.2213	-0.0227	0.1986	1248.8531	0.126194	-434.129794	-434.12149	-434.120546	-434.163052	30.733	
N	-0.0654508972	 1.3224094056	-0.1146094791	-0.555666
C	-0.0130858843	-0.0417710389	-0.0489742588	 0.420971
N	-1.1851782109	-0.6923710505	-0.0313915078	-0.365074
C	-1.121869103	-2.0250022104	-0.0206169643	 0.300966
C	-2.4557910984	-2.7298821477	-0.0058458614	-0.155796
O	-2.2616653549	-4.1294863576	 0.0426809501	-0.417255
C	 0.0876366598	-2.7135190063	-0.0222795526	-0.18995
C	 1.2341865752	-1.9262330491	-0.025437628	 0.007882
N	 1.2126301131	-0.59649784	-0.0373613897	-0.315543
H	 0.7800939862	 1.8153711651	 0.1182867837	 0.260588
H	-0.9424125043	 1.7531791589	 0.1249002804	 0.258715
H	-3.0259478612	-2.360766733	 0.8609477413	 0.112925
H	-3.012400037	-2.4213379803	-0.90467037	 0.114494
H	-3.1237315363	-4.5529622085	 0.0224248976	 0.294172
H	 0.1210477123	-3.7926693768	-0.0111806755	 0.118767
H	 2.2207827208	-2.3862503308	-0.0150888458	 0.109803
52.9919	173.3456	185.0204	207.1069	228.164	359.2839	397.2158	454.3053	461.4062	512.6129	584.1824	625.024	635.0863	776.6846	826.4318	840.4623	960.5365	1006.9702	1010.2584	1036.6853	1056.7407	1119.0156	1147.0759	1200.1865	1244.1133	1264.7521	1308.1053	1371.3219	1438.0459	1482.3465	1490.0023	1503.1291	1606.0821	1619.0995	1642.3321	2977.2823	3002.8797	3144.5282	3247.668	3608.6142	3737.6241	3848.2241
NC1=NC(CO)=CC=N1	Nc1nc(CO)ccn1	
InChI=1S/C5H7N3O/c6-5-7-2-1-4(3-9)8-5/h1-2,9H,3H2,(H2,6,7,8)	InChI=1S/C5H7N3O/c6-5-7-2-1-4(3-9)8-5/h1-2,9H,3H2,(H2,6,7,8)
