16
gdb 49026	2.75693	1.73064	1.33816	2.6575	68.66	-0.2366	-0.0417	0.1948	960.139	0.12406	-437.804932	-437.79768	-437.796736	-437.836743	27.945	
O	-0.398976928	 0.4538627221	 0.7302154799	-0.257045
C	 0.056840332	 1.1205733776	-0.166374967	 0.078644
C	 1.3216154274	 1.9136355996	-0.0549537807	 0.370575
O	 1.4717770274	 2.9327155628	-1.0506231083	-0.331226
C	 2.7823805298	 2.4398562315	-1.44276156	-0.092975
C	 2.7165873043	 1.2966613432	-0.4041286278	-0.149204
C	 3.1699408807	 1.6012309138	 1.0410691431	-0.050858
N	 3.0395819581	 3.058116961	 1.2454024767	-0.332514
C	 1.8457244033	 2.2003722655	 1.3790883384	-0.111745
H	-0.4228114349	 1.1824368925	-1.167669269	 0.090962
H	 2.7759382643	 2.1053407666	-2.48597677	 0.103893
H	 3.5617039138	 3.1878126734	-1.2819511819	 0.127974
H	 2.8183563473	 0.2663339078	-0.738710321	 0.101273
H	 3.8406201531	 1.0047017135	 1.6457961287	 0.102852
H	 3.3643110512	 3.2641078766	 2.1891922723	 0.239112
H	 1.2614373703	 2.1624300124	 2.2890702765	 0.110281
99.2132	161.804	218.313	257.1636	315.8864	459.7961	467.3392	611.6683	633.0767	727.2537	801.2108	813.6354	843.9454	882.4139	900.7721	931.0078	966.3976	996.5211	1007.9077	1057.7003	1081.178	1088.8888	1095.0093	1125.5883	1139.9111	1168.3864	1227.3214	1237.6234	1310.4063	1328.0492	1339.4686	1368.9908	1399.7946	1498.5375	1811.7939	2901.1046	3038.6289	3111.8383	3139.6704	3195.8398	3209.4496	3485.3253
O=CC12OCC1C1NC21	O=C[C@]12OC[C@H]1[C@H]1N[C@@H]21	
InChI=1S/C6H7NO2/c8-2-6-3(1-9-6)4-5(6)7-4/h2-5,7H,1H2	InChI=1S/C6H7NO2/c8-2-6-3(1-9-6)4-5(6)7-4/h2-5,7H,1H2/t3-,4+,5+,6-/m0/s1
