21
gdb 103227	3.64373	1.16983	1.07463	1.4163	82.	-0.204	0.0672	0.2712	1207.1193	0.181999	-386.999429	-386.990648	-386.989703	-387.032505	34.647	
C	-0.2125544005	 1.6693209611	 0.0402906715	-0.495508
C	 0.0144610329	 0.1546575183	 0.0556653603	 0.342508
C	-1.2452839862	-0.5908916489	-0.3710835799	-0.145442
O	-1.5666253907	-0.2123820272	-1.7040856399	-0.424046
C	 1.2477198406	-0.6019468905	-0.3842221906	-0.087325
C	 2.6299586282	-0.083429985	 0.1038266571	-0.074118
C	 2.6222661257	 1.1307002987	 0.9987069983	-0.310466
C	 2.1644861675	-0.1897325956	 1.5482531872	-0.066516
C	 0.7763087944	-0.6884418694	 1.0629597514	-0.126686
H	 0.5400136149	 2.1946958608	-0.5502578465	 0.133027
H	-1.1755450446	 1.8789339883	-0.4325096612	 0.120767
H	-0.2265780491	 2.096939823	 1.0472232147	 0.118842
H	-1.081853972	-1.6770929201	-0.3015137218	 0.083614
H	-2.0648352175	-0.3315364324	 0.3184321628	 0.085482
H	-2.441001327	-0.5559870977	-1.9090368849	 0.285861
H	 1.1823075924	-1.3615069937	-1.1542463758	 0.08731
H	 3.5505811347	-0.4568294417	-0.3261435202	 0.087386
H	 3.6188413436	 1.4069079863	 1.3347835921	 0.107916
H	 1.9691168096	 1.978672181	 0.8653294737	 0.113775
H	 2.6692316241	-0.6705606339	 2.3766072426	 0.085874
H	 0.294109379	-1.5269207114	 1.5534428092	 0.077745
95.4311	111.8298	217.2512	229.0948	245.9662	295.2568	337.5955	385.1544	416.0027	498.0892	618.5391	680.1959	690.8106	727.4626	775.7079	842.7058	873.3265	884.0863	921.4701	963.6529	990.0243	1004.1358	1013.1082	1029.8359	1052.3948	1058.6357	1071.0006	1084.2493	1084.554	1116.225	1162.6699	1199.0611	1242.8877	1250.0216	1266.123	1287.7719	1315.0645	1341.0993	1411.228	1422.1443	1457.2443	1489.4286	1497.2923	1518.4231	1525.8543	2965.5922	3001.5297	3044.9244	3112.2419	3123.8232	3135.1023	3160.3607	3176.4251	3184.0837	3195.2718	3258.9342	3829.8379
CC1(CO)C2C3CC3C12	C[C@@]1(CO)[C@H]2[C@H]3C[C@H]3[C@@H]12	
InChI=1S/C8H12O/c1-8(3-9)6-4-2-5(4)7(6)8/h4-7,9H,2-3H2,1H3	InChI=1S/C8H12O/c1-8(3-9)6-4-2-5(4)7(6)8/h4-7,9H,2-3H2,1H3/t4-,5+,6-,7+,8+
