16
gdb 80110	2.84599	1.51147	1.26517	3.06	77.04	-0.2148	0.0069	0.2217	1021.8188	0.124963	-396.877857	-396.869639	-396.868695	-396.910206	31.729	
N	 0.1470779615	 1.3980857221	-0.0267675507	-0.523438
C	 0.0252726387	-0.0218192683	 0.062925311	-0.056906
C	-0.4881684088	-0.688875929	 1.3173099267	-0.090732
N	-1.2638617588	 0.0886461718	 2.2354078517	-0.240816
C	-2.3289428671	 0.4627827188	 1.6178639859	 0.027683
N	-2.4547213523	 0.0709168449	 0.3036573262	-0.342285
C	-1.3177881939	-0.7648150501	-0.0159054075	 0.15012
C	-1.5219955969	-1.9062641888	-0.8399402883	 0.209573
C	-1.6886261286	-2.8662864627	-1.5474588766	-0.411208
H	-0.4030917717	 1.773376433	-0.7921893595	 0.233983
H	-0.1795058595	 1.8375464919	 0.8276703492	 0.244595
H	 0.8226883028	-0.5824104764	-0.4195288272	 0.107313
H	 0.0605465436	-1.5281363975	 1.7292352111	 0.110003
H	-3.0980675757	 1.0822107452	 2.0676345802	 0.132645
H	-3.3539335235	-0.1343194955	-0.1040248446	 0.256595
H	-1.83267718	-3.7172987292	-2.1658630877	 0.192874
131.0697	152.3233	164.1483	238.321	263.23	393.7555	413.5068	482.0734	493.7762	542.4581	549.1512	598.1621	680.3466	685.1303	733.6692	779.3796	823.5116	919.5076	927.9112	928.2611	1017.9747	1048.9125	1103.22	1125.669	1157.418	1217.362	1253.7486	1280.0562	1325.2017	1349.7684	1386.1999	1448.3312	1631.9469	1659.8825	2227.8588	3132.2059	3176.8338	3198.4077	3501.7027	3504.4452	3578.8135	3626.5871
NC1C2N=CNC12C#C	N[C@H]1[C@H]2N=CN[C@@]12C#C	
InChI=1S/C6H7N3/c1-2-6-4(7)5(6)8-3-9-6/h1,3-5H,7H2,(H,8,9)	InChI=1S/C6H7N3/c1-2-6-4(7)5(6)8-3-9-6/h1,3-5H,7H2,(H,8,9)/t4-,5+,6-/m0/s1
