15
gdb 17601	4.38959	1.43242	1.16802	3.2895	65.46	-0.249	-0.0621	0.187	1002.9513	0.119629	-395.978073	-395.970091	-395.969147	-396.01078	28.903	
N	-0.1511927678	 1.3498384585	-0.1787730969	-0.536468
C	 0.1158693903	 0.0143923918	-0.1585493808	 0.266673
N	 1.2005086555	-0.6100046348	-0.4336078259	-0.505501
C	-1.0992431559	-0.8060252235	 0.2421725285	 0.380277
O	-2.1332794341	-0.2430649157	 0.5586506662	-0.360902
C	-0.972226349	-2.2848615029	 0.2412202445	-0.098889
C	-1.4850580032	-2.9839708109	 1.4688208716	-0.216307
N	-2.2277234296	-3.0571589553	 0.2220227342	-0.307649
H	 0.5952585307	 2.0201613494	-0.237310488	 0.255595
H	-1.0378237549	 1.6398594645	 0.2042644033	 0.273138
H	 1.9578100467	 0.0323979205	-0.6762279806	 0.209433
H	-0.1319843563	-2.7002703831	-0.2970820514	 0.13446
H	-0.9901841957	-3.8996926347	 1.7784063376	 0.131212
H	-1.868103589	-2.3583146963	 2.2702852436	 0.128877
H	-2.9928485677	-2.3826570874	 0.2625098641	 0.246052
72.7612	85.6882	204.7871	243.0068	279.0502	328.5011	382.9116	472.8727	521.2827	548.8642	619.1859	784.7505	815.859	847.495	878.8952	890.9835	977.712	1009.3062	1070.0023	1104.9002	1126.5291	1139.4768	1150.0451	1182.4534	1284.586	1316.8447	1385.7921	1445.0761	1496.032	1599.1775	1715.018	1760.3657	3112.9447	3205.6017	3225.6815	3447.9582	3463.8982	3589.2777	3725.4411
NC(=N)C(=O)C1CN1	NC(=N)C(=O)[C@H]1CN1	
InChI=1S/C4H7N3O/c5-4(6)3(8)2-1-7-2/h2,7H,1H2,(H3,5,6)	InChI=1S/C4H7N3O/c5-4(6)3(8)2-1-7-2/h2,7H,1H2,(H3,5,6)/t2-/m1/s1
