14
gdb 26920	3.1582	1.43896	0.98896	4.8239	71.46	-0.1884	-0.0413	0.1472	1098.2167	0.101429	-470.033593	-470.025334	-470.024389	-470.066399	30.466	
O	-0.2238826329	 1.2199315418	-0.1916469854	-0.43032
C	-0.1359548423	-0.1247862061	-0.0846593525	 0.369173
C	-1.2654422088	-0.8861702655	 0.0031267951	 0.203242
O	-2.5386787538	-0.3797651607	 0.0226050509	-0.455383
C	-1.058409211	-2.2872122991	 0.0935683304	-0.021327
N	 0.0983369498	-2.8896339478	 0.1025032457	-0.322633
C	 1.2561020461	-2.1319231083	 0.0086758192	 0.414856
N	 2.4612346898	-2.5590002119	-0.0156227522	-0.582585
N	 1.0799259752	-0.7290113181	-0.0755883949	-0.407724
H	 0.6016247141	 1.6446015557	 0.0681429696	 0.313365
H	-2.4831685727	 0.5820559622	 0.0030565779	 0.304666
H	-1.947988468	-2.9130352834	 0.1699949824	 0.129228
H	 2.4441586749	-3.574667065	 0.0474801699	 0.222567
H	 1.9300221496	-0.2025195539	-0.2200344761	 0.262877
90.6922	140.485	197.9719	241.1364	282.7081	316.7288	352.8645	436.7629	468.0991	503.9137	554.521	603.6172	675.1634	752.3183	775.8549	807.5041	823.1415	938.1013	990.3656	1062.0486	1165.0046	1188.801	1269.9329	1298.8539	1324.1629	1372.5287	1467.3243	1493.9923	1592.8112	1703.5654	1744.1225	3131.7758	3523.1855	3605.649	3809.43	3817.0974
OC1=C(O)C=NC(=N)N1	O[C@H]1C(=CN=C([NH])N1)O	
InChI=1S/C4H5N3O2/c5-4-6-1-2(8)3(9)7-4/h1,8H,(H3,5,6,7,9)	InChI=1S/C4H6N3O2/c5-4-6-1-2(8)3(9)7-4/h1,3,5,8-9H,(H,6,7)/t3-/m0/s1
