14
gdb 14828	3.6481	1.50711	1.1498	3.8603	65.4	-0.2731	-0.0007	0.2724	1012.052	0.106986	-378.721714	-378.713839	-378.712894	-378.754658	26.818	
C	-0.0877808312	 1.436848094	-0.069783952	-0.343965
N	-0.1514635715	-0.0155402836	-0.1615713627	-0.307153
C	 0.5913487722	-0.6210544239	-0.9528804119	 0.477241
O	 1.5483654715	-0.1777166235	-1.8525159704	-0.256922
C	 1.891918255	-1.5346606249	-2.2449134189	-0.08594
C	 0.7877079985	-2.0972485589	-1.3076231131	-0.31622
C	 1.2029908357	-2.9920911504	-0.2421456436	 0.292238
N	 1.5533726506	-3.7080536394	 0.5941223629	-0.313054
H	 0.6689071199	 1.8932636104	-0.7175898545	 0.13147
H	-1.0690721585	 1.8504493498	-0.3243757002	 0.137246
H	 0.1184005418	 1.7139894845	 0.9688684496	 0.140882
H	 1.730993571	-1.6953585057	-3.3124522653	 0.137288
H	 2.9152760216	-1.7857696984	-1.9608347097	 0.14777
H	-0.0695844565	-2.5185264301	-1.8383290202	 0.159119
92.0062	103.2118	113.2177	185.0198	228.5641	280.2654	420.6956	508.0086	564.2298	672.0072	727.8255	813.8777	923.6428	979.8315	1040.7836	1063.479	1091.7011	1103.1279	1133.7191	1161.6425	1175.9007	1196.1125	1321.1101	1354.3523	1439.9437	1493.0808	1497.3822	1516.1911	1862.8605	2366.6651	3024.6482	3077.1905	3091.8084	3095.5974	3098.7159	3142.8012
CN=C1OCC1C#N	CN=C1OC[C@H]1C#N	
InChI=1S/C5H6N2O/c1-7-5-4(2-6)3-8-5/h4H,3H2,1H3	InChI=1S/C5H6N2O/c1-7-5-4(2-6)3-8-5/h4H,3H2,1H3/t4-/m1/s1
