23
gdb 77513	2.34534	1.71791	1.25559	0.2553	90.26	-0.2189	0.0201	0.239	1132.4474	0.20479	-351.138143	-351.128994	-351.128049	-351.170841	37.025	
C	-0.1946636971	 1.5393633619	-0.0124162212	-0.439269
C	 0.0043217056	 0.0289522699	 0.0122862658	-0.014017
C	 1.1768280144	-0.5975536366	-0.8539426812	 0.295874
C	 1.4523056149	-0.1924730304	-2.2843071313	-0.513839
C	 2.123027351	-0.2174013645	 0.3389995936	-0.295703
C	 0.861106916	-0.6057682958	 1.1873137152	 0.295874
C	 0.6910680734	-0.2122803647	 2.6372013095	-0.513838
C	 0.7448702703	-2.0880433898	 0.7937174068	-0.133676
C	 0.9488674094	-2.0827282654	-0.5255256559	-0.133671
H	 0.7284385537	 2.1073105173	 0.1324170448	 0.115505
H	-0.6267202524	 1.8519107638	-0.9699776193	 0.116332
H	-0.8958486535	 1.8449578388	 0.7725908669	 0.116332
H	-0.9606533162	-0.4663474801	-0.1389564054	 0.057671
H	 1.5696329288	 0.8920348025	-2.3786779833	 0.114059
H	 2.3724315488	-0.658126871	-2.6556584998	 0.116295
H	 0.6354139725	-0.4980996953	-2.9484962942	 0.114432
H	 3.019360674	-0.828436188	 0.4751728834	 0.085781
H	 2.3798820294	 0.8451919978	 0.3830108279	 0.085459
H	 0.7734133511	 0.8712767699	 2.7711837662	 0.114058
H	-0.2880786414	-0.5218307753	 3.0210219596	 0.114434
H	 1.4563571434	-0.6822278168	 3.2655717826	 0.116293
H	 0.5278983152	-2.9074169934	 1.4662458736	 0.092807
H	 0.9461654886	-2.8965202048	-1.2386030343	 0.092807
191.3903	193.002	203.8931	204.2637	214.7232	235.384	331.7788	336.1021	393.6968	478.273	540.0607	548.9327	583.566	646.2007	678.4972	705.3928	795.2743	814.1188	855.4381	889.299	896.2948	906.2249	997.8122	1024.882	1039.3456	1061.9219	1081.1133	1097.3744	1114.1107	1151.3095	1182.3942	1182.8959	1206.2562	1221.4908	1249.3693	1324.5909	1346.3606	1371.405	1406.2187	1411.649	1415.2603	1486.228	1490.6675	1491.8298	1493.8005	1498.3193	1499.9949	1510.3528	1627.9402	3023.4602	3023.5939	3029.2322	3043.084	3050.6723	3084.8343	3085.1212	3086.2078	3094.738	3094.9177	3103.1442	3114.1056	3202.1294	3230.4767
CC1C2(C)CC1(C)C=C2	C[C@H]1[C@@]2(C)C[C@]1(C)C=C2	
InChI=1S/C9H14/c1-7-8(2)4-5-9(7,3)6-8/h4-5,7H,6H2,1-3H3	InChI=1S/C9H14/c1-7-8(2)4-5-9(7,3)6-8/h4-5,7H,6H2,1-3H3/t7-,8+,9-
