23
gdb 114828	3.07531	1.24732	1.17849	1.5064	84.14	-0.2353	0.0803	0.3156	1205.751	0.208808	-388.311846	-388.303702	-388.302758	-388.344462	32.744	
C	 0.00226053	 1.6201342557	 0.1177643115	-0.3862
C	 0.0132171337	 0.0884786576	 0.0976146153	-0.188701
C	-1.380701368	-0.5308908501	-0.031468437	 0.048497
C	-2.1064730916	-0.278520769	-1.4011843686	-0.234175
C	-2.4535312853	-1.708408786	-1.8845415518	-0.039227
C	-1.1338629975	-2.4133204119	-2.2337557518	-0.069449
O	-0.4869390833	-2.5930960936	-0.9583782892	-0.28079
C	-1.3962109548	-2.0756986698	 0.0275982995	 0.091164
C	-2.7733976142	-2.4216687429	-0.5523537845	-0.236752
H	 1.0158828748	 2.0215807887	 0.21482792	 0.111058
H	-0.4294919628	 2.0332359185	-0.8002624655	 0.114806
H	-0.5880794689	 2.0019537441	 0.9587247986	 0.109793
H	 0.6423694695	-0.2757603196	-0.7219834198	 0.107382
H	 0.4797421579	-0.2801772392	 1.0209095792	 0.089866
H	-2.0041501554	-0.1524888773	 0.7896558247	 0.062616
H	-3.0096219981	 0.3256205441	-1.2760027837	 0.094084
H	-1.4636274367	 0.2426639652	-2.1182335258	 0.095961
H	-3.2059016445	-1.7608245739	-2.6727838687	 0.063256
H	-1.2920114067	-3.393801139	-2.7034062923	 0.092612
H	-0.492555686	-1.8142314102	-2.8924494526	 0.093504
H	-1.124467045	-2.5068274052	 0.9927964401	 0.066097
H	-3.6049440021	-1.9708162023	-0.0046097577	 0.095076
H	-2.935144935	-3.4980852037	-0.6523345599	 0.099523
101.8014	121.4803	183.9609	236.6073	307.8526	363.6966	416.8462	460.8442	481.8489	598.2705	752.8916	784.0025	807.9753	818.0408	848.8788	894.2723	930.1831	940.2714	941.9028	958.1584	971.4333	974.7151	1009.9806	1034.6922	1062.8557	1081.7064	1107.8975	1136.2484	1156.0123	1185.0474	1203.5812	1241.583	1252.7473	1269.185	1280.2288	1305.0678	1317.5737	1322.4928	1333.0795	1364.6703	1380.704	1393.0258	1414.3274	1484.5561	1489.1878	1499.4189	1501.8124	1508.5788	1533.0892	3003.2386	3009.3804	3019.9664	3028.3239	3042.5434	3046.5925	3061.7858	3065.9728	3087.393	3096.1673	3100.6475	3102.7073	3108.5521	3117.3822
CCC1CC2COC1C2	CC[C@H]1C[C@H]2CO[C@@H]1C2	
InChI=1S/C8H14O/c1-2-7-3-6-4-8(7)9-5-6/h6-8H,2-5H2,1H3	InChI=1S/C8H14O/c1-2-7-3-6-4-8(7)9-5-6/h6-8H,2-5H2,1H3/t6-,7+,8-/m1/s1
