15
gdb 17983	4.12525	1.78642	1.53415	2.6311	66.75	-0.2281	0.0225	0.2506	846.5764	0.118729	-362.566016	-362.559028	-362.558083	-362.597315	26.612	
C	 0.0614790845	-1.1813917462	 0.1994743625	-0.445214
C	 0.067310137	 0.0177590704	 0.1220949298	 0.353277
C	 0.04913645	 1.4597426372	-0.009572415	-0.051011
O	-0.3133028788	 2.1790644507	 1.210062109	-0.306948
C	 0.8306082312	 3.0479933195	 1.1057583089	 0.111768
C	 2.0576074212	 2.5726195056	 1.9124850332	-0.182307
N	 2.4361076819	 1.6630509803	 0.7906719469	-0.305712
C	 1.3949244568	 2.2365844036	-0.0829297662	-0.078064
H	 0.0692102229	-2.2403425388	 0.2789985282	 0.198568
H	-0.6336459512	 1.7542987841	-0.8192038075	 0.101189
H	 0.5592213993	 4.1054438504	 1.1157408667	 0.084391
H	 2.7759236388	 3.3803841971	 2.1028143697	 0.095989
H	 1.8337378166	 2.0558008853	 2.8506671612	 0.119126
H	 3.3785543895	 1.7935809207	 0.4470541972	 0.22475
H	 1.7033193002	 2.6242559599	-1.0544319245	 0.080199
83.2962	145.3338	222.9159	332.2006	375.5371	518.0587	535.7683	613.9077	657.3156	674.545	723.2038	793.5488	807.5765	897.7144	954.4336	972.3044	982.	1015.6753	1037.1919	1081.9529	1086.5745	1147.6897	1192.3808	1207.3472	1247.7137	1282.0569	1325.4657	1349.5898	1357.9699	1396.6978	1495.4826	2238.1201	3000.3212	3016.8331	3083.404	3088.1935	3105.7895	3504.0602	3565.7503
C#CC1OC2CNC12	C#C[C@H]1O[C@H]2CN[C@@H]12	
InChI=1S/C6H7NO/c1-2-4-6-5(8-4)3-7-6/h1,4-7H,3H2	InChI=1S/C6H7NO/c1-2-4-6-5(8-4)3-7-6/h1,4-7H,3H2/t4-,5+,6+/m1/s1
