14
gdb 126875	3.81679	1.22765	0.98028	2.7607	71.87	-0.2631	-0.1055	0.1576	1155.4315	0.097054	-466.048099	-466.039737	-466.038792	-466.082131	29.682	
C	 0.2967535307	 0.9494696112	-0.7134380699	-0.385307
C	-0.3784041438	 0.2303532604	 0.4559022491	-0.139796
N	-1.171845193	-0.9670110965	 0.2582836842	-0.240996
C	-1.4916960276	-1.4898155984	-0.8389551872	 0.438136
N	-1.1065085667	-1.1326730519	-2.1503264406	-0.156943
N	-1.92375901	-1.2944449642	-3.0730148237	 0.066072
O	-3.1683900221	-1.826109336	-2.7448441657	-0.245518
N	-3.1359969947	-2.8481061605	-1.6561988186	 0.065728
N	-2.309908871	-2.6652518144	-0.7834979484	-0.074226
H	 0.8464823051	 1.8094097165	-0.3167871288	 0.118065
H	 1.0030206902	 0.3032535103	-1.2380293008	 0.1411
H	-0.4277330523	 1.3192341392	-1.4431666599	 0.132988
H	 0.3746814276	-0.0565290024	 1.2023825049	 0.140371
H	-1.0398888224	 0.9244017966	 0.9928532153	 0.140326
28.381	103.6609	170.3356	228.8737	281.1462	317.776	347.6037	412.1936	467.436	525.6176	626.3857	694.9493	747.3471	763.6095	785.2128	792.5067	908.4052	1031.5222	1083.3061	1115.7933	1136.0392	1146.5745	1318.9467	1381.4842	1416.4453	1454.2784	1492.5662	1493.2001	1524.2351	1675.6201	1770.1657	3018.9814	3037.9984	3047.3164	3116.3661	3139.5461
CCN=C1N=NON=N1	CCN=c1nnonn1	
InChI=1S/C3H5N5O/c1-2-4-3-5-7-9-8-6-3/h2H2,1H3	InChI=1S/C3H5N5O/c1-2-4-3-5-7-9-8-6-3/h2H2,1H3
