15
gdb 13588	3.82628	1.40715	1.25222	1.1789	65.48	-0.2384	-0.1005	0.1379	993.0005	0.116669	-399.779495	-399.77136	-399.770416	-399.812522	28.474	
C	-0.7981737988	 0.8642054012	 0.1654797992	-0.330557
N	 0.2657821767	-0.1250237523	 0.0113036974	-0.076717
C	 1.5627644202	 0.3208281154	-0.4146347457	-0.232593
C	 1.3755311787	-0.1885722114	 0.99219249	-0.117734
C	 1.4927872048	 0.7823361181	 2.1057715891	 0.28536
O	 1.2608184244	 1.9746583667	 2.0471733951	-0.309782
C	 1.9501181818	 0.2194623448	 3.459693616	 0.095084
O	 2.2332328914	-0.933123081	 3.6534299997	-0.217414
H	-0.459538196	 1.8397622847	 0.5324429693	 0.146322
H	-1.2678144216	 0.9930509101	-0.8143345412	 0.130321
H	-1.5506934817	 0.4680235257	 0.8537345787	 0.127851
H	 2.0870855784	-0.3162037445	-1.1223269383	 0.130022
H	 1.737973413	 1.3910490132	-0.5147057853	 0.134927
H	 1.6829108906	-1.1975070415	 1.2436112625	 0.125501
H	 2.0046511281	 1.0054931208	 4.2422055534	 0.109409
57.0056	131.1234	180.1989	192.3434	237.0971	258.8493	374.8048	399.5843	524.8895	616.3626	638.8762	727.2008	791.1936	878.296	1003.0326	1012.1688	1035.275	1088.2846	1122.6857	1136.7969	1163.1969	1173.1005	1217.6633	1324.7377	1364.3133	1410.5969	1444.9395	1486.4282	1495.3975	1509.1081	1767.3654	1823.4158	2925.8898	3026.1772	3093.7443	3098.8522	3111.2609	3179.7014	3189.7973
CN1CC1C(=O)C=O	CN1C[C@H]1C(=O)C=O	
InChI=1S/C5H7NO2/c1-6-2-4(6)5(8)3-7/h3-4H,2H2,1H3	InChI=1S/C5H7NO2/c1-6-2-4(6)5(8)3-7/h3-4H,2H2,1H3/t4-,6?/m0/s1
