15
gdb 34894	2.02842	1.92493	1.22724	2.2832	74.33	-0.2604	0.0017	0.2621	1016.2398	0.112374	-379.59469	-379.586797	-379.585853	-379.627294	29.565	
C	-0.0064425132	-1.263716173	-0.2450926301	-0.441336
C	 0.0091612855	-0.0670862217	-0.1348117391	 0.380546
C	 0.0258545208	 1.3699548431	 0.0202941225	-0.19267
C	-0.2803501896	 1.9932732845	 1.4438088832	-0.20149
C	-0.6015623181	 1.1190842097	 2.5605425135	 0.295663
N	-0.8444764497	 0.4162106005	 3.4455077417	-0.326031
C	 1.1344434552	 2.5750308046	 1.3738607983	-0.030269
C	 2.1422916768	 1.5306597652	 1.1250856681	-0.244732
N	 1.3808481766	 2.0499558256	-0.0272006038	-0.122935
H	-0.0252044343	-2.3213812068	-0.3449241332	 0.213145
H	-0.6104676739	 1.841299723	-0.7316964482	 0.128488
H	-1.0505543556	 2.7616535884	 1.3550141583	 0.13928
H	 1.3812340322	 3.5914373633	 1.6581194837	 0.117194
H	 3.1809140983	 1.8432579623	 1.1065905095	 0.136761
H	 1.9742491392	 0.5096588513	 1.4563179557	 0.148385
97.074	106.64	170.1255	209.1123	315.1669	403.8456	435.3699	513.8234	586.6766	613.0968	646.5799	675.2558	761.2187	765.4056	791.3915	805.9575	946.4404	970.3663	1021.6736	1038.187	1073.918	1092.9442	1118.9364	1138.7158	1186.1896	1225.4008	1256.7956	1332.8281	1350.4391	1369.6536	1504.6674	2237.5226	2356.248	3083.3272	3101.4269	3125.2691	3181.5706	3217.5926	3499.7731
C#CC1C(C#N)C2CN12	C#C[C@H]1[C@@H](C#N)[C@H]2CN12	
InChI=1S/C7H6N2/c1-2-6-5(3-8)7-4-9(6)7/h1,5-7H,4H2	InChI=1S/C7H6N2/c1-2-6-5(3-8)7-4-9(6)7/h1,5-7H,4H2/t5-,6+,7-,9?/m1/s1
