24
gdb 118265	4.1838	0.54474	0.50077	4.3544	91.33	-0.3077	0.0393	0.347	2222.9017	0.215798	-368.447348	-368.435991	-368.435047	-368.485141	40.005	
C	 0.1182181714	 1.6194627855	 0.023151701	-0.379346
C	 0.0028476858	 0.0921487945	 0.0109367454	-0.179829
C	 0.6206247554	-0.5350904211	-1.2450931035	-0.166737
C	 0.6243380031	-2.0762173464	-1.2793121636	 0.020041
C	-0.7982618581	-2.6550405669	-1.3105691321	-0.396181
C	 1.4690820309	-2.559312914	-2.4731813785	-0.182395
C	 1.720777678	-4.0818374569	-2.4865272648	-0.355827
C	 2.5980047261	-4.489273743	-3.5818332092	 0.259442
N	 3.2926792727	-4.7936708986	-4.4538556836	-0.306592
H	 1.1656783085	 1.9383044663	-0.0171409802	 0.115337
H	-0.3938559632	 2.0618972722	-0.8385334755	 0.11564
H	-0.3252886168	 2.0457662398	 0.9282086782	 0.11305
H	 0.4979191067	-0.319437785	 0.9008362176	 0.094879
H	-1.0536274464	-0.1882934129	 0.0923866283	 0.100524
H	 0.0964231634	-0.1582366303	-2.1354244309	 0.093716
H	 1.6568104087	-0.1820204681	-1.3349917883	 0.092419
H	 1.1168851301	-2.4276930147	-0.3595207707	 0.071857
H	-0.799124937	-3.7491108972	-1.2905797452	 0.113218
H	-1.3847348918	-2.3228245181	-0.4501842805	 0.123224
H	-1.3266362494	-2.3371652073	-2.2175878873	 0.117137
H	 0.9831474512	-2.2704557177	-3.4131624854	 0.116546
H	 2.4397000055	-2.0517504976	-2.4581389309	 0.11661
H	 2.1787707681	-4.397326215	-1.5411895568	 0.149526
H	 0.7811228872	-4.6357953375	-2.5804478634	 0.153745
48.384	67.3631	73.8042	94.6747	118.1208	187.0239	227.765	248.0607	267.1595	316.1092	354.2116	395.4051	430.2553	494.5149	565.6821	741.9432	763.4621	838.7009	871.3959	899.6111	942.3319	945.9019	964.6941	1024.6049	1029.261	1047.4309	1082.9965	1141.8163	1145.1943	1183.6358	1223.4849	1261.3713	1282.7021	1311.5299	1318.1367	1332.1257	1355.408	1380.8691	1388.8433	1397.5146	1411.6114	1416.4653	1468.0304	1479.2531	1491.4036	1495.4061	1497.6622	1499.2894	1507.1785	1512.6431	2361.4087	2985.165	3001.4562	3019.0008	3029.9788	3030.7843	3034.5331	3035.0535	3044.6445	3061.7273	3070.8439	3092.8404	3097.4747	3098.886	3103.1873	3114.9107
CCCC(C)CCC#N	CCC[C@@H](C)CCC#N	
InChI=1S/C8H15N/c1-3-5-8(2)6-4-7-9/h8H,3-6H2,1-2H3	InChI=1S/C8H15N/c1-3-5-8(2)6-4-7-9/h8H,3-6H2,1-2H3/t8-/m1/s1
