20
gdb 82071	2.5489	1.39445	1.22075	3.3838	78.98	-0.232	0.0271	0.2591	1132.6924	0.171155	-403.156384	-403.147258	-403.146313	-403.190519	34.478	
C	-0.1067415756	 1.6882769901	-0.4545280537	-0.409657
C	 0.0223956707	 0.1929889116	-0.1943705264	 0.010815
C	 0.7406323537	-0.6897018723	-1.2270008319	-0.059503
C	 2.2146285063	-0.4003808381	-1.2774671418	-0.280651
C	 1.6764933949	-1.2372805458	-0.1508842717	-0.059557
C	 0.9999616612	-0.3642085411	 0.9250411134	-0.139085
C	 1.8883359272	 0.6051495569	 1.6867695676	 0.419341
N	 1.9142192522	 0.4234332332	 3.0424703929	-0.531985
O	 2.5327938418	 1.4924794051	 1.1524867515	-0.372136
H	 0.8646701552	 2.1587028231	-0.6121801383	 0.148062
H	-0.7298489106	 1.8583966007	-1.3399762997	 0.105026
H	-0.5850515692	 2.1947552092	 0.3912987532	 0.108045
H	-0.9700076032	-0.221034834	 0.0110581123	 0.073504
H	 0.240736221	-1.230022039	-2.0222336371	 0.079702
H	 2.7582545508	-0.9629630201	-2.030236751	 0.104316
H	 2.6072765203	 0.588985906	-1.0765175827	 0.147034
H	 2.0009773416	-2.2569883996	 0.0183492081	 0.082717
H	 0.4352136456	-0.983943912	 1.6271820463	 0.06056
H	 1.4734038308	-0.3615810852	 3.4875216639	 0.256284
H	 2.5512833956	 0.9879585012	 3.581286165	 0.257166
38.9564	143.0416	169.2193	188.852	212.4916	244.5155	318.078	364.0104	408.3269	507.5848	590.6567	622.5004	684.8517	743.8454	775.8095	790.4991	813.2094	915.7571	921.145	947.9797	992.9491	1016.4583	1043.2829	1064.7995	1071.1893	1096.9047	1099.7948	1112.4232	1138.9172	1176.357	1224.9242	1270.0179	1277.3456	1297.4811	1361.8599	1368.8292	1411.1836	1414.9475	1483.8239	1490.7014	1503.267	1614.4387	1774.999	3030.5445	3042.0515	3062.3632	3088.5559	3135.3887	3142.4176	3172.0683	3183.5248	3226.3694	3598.7349	3738.1481
CC1C2CC2C1C(N)=O	C[C@H]1[C@H]2C[C@H]2[C@H]1C(=O)N	
InChI=1S/C7H11NO/c1-3-4-2-5(4)6(3)7(8)9/h3-6H,2H2,1H3,(H2,8,9)	InChI=1S/C7H11NO/c1-3-4-2-5(4)6(3)7(8)9/h3-6H,2H2,1H3,(H2,8,9)/t3-,4+,5+,6-/m0/s1
