22
gdb 122373	5.06454	0.66967	0.65962	2.6443	83.78	-0.2249	0.0803	0.3052	1771.2138	0.194979	-404.257586	-404.248461	-404.247517	-404.292612	33.938	
O	 0.064633011	 1.2346050611	 1.3458988886	-0.420881
C	 0.1409520281	-0.0540689901	 0.7554385766	-0.076252
C	-1.2557746069	-0.6594354828	 0.765640183	-0.153684
C	-1.3057158474	-2.0519983651	 0.1234125976	-0.269427
C	-2.715059894	-2.6200214408	 0.1221588912	 0.101063
C	-3.0545436373	-4.1264218593	-0.0295363304	-0.08905
C	-2.5776557721	-4.2642914104	 1.4313274604	-0.174805
N	-3.3867582301	-2.9531585713	 1.4845743534	-0.15337
C	-4.3974033409	-3.7276195703	 0.6178426461	-0.163972
H	 0.9477176214	 1.6147612375	 1.3539597587	 0.284291
H	 0.514425921	 0.0042650288	-0.2810423989	 0.079496
H	 0.834062359	-0.7070117149	 1.3118447732	 0.082026
H	-1.6148572656	-0.7167811924	 1.7985484108	 0.128832
H	-1.9327681019	 0.023685686	 0.2380446858	 0.103975
H	-0.972801271	-1.9913457307	-0.922288867	 0.098255
H	-0.5963204085	-2.7169217485	 0.6275580173	 0.097902
H	-3.362673745	-1.9513933612	-0.4588759826	 0.068991
H	-2.870958275	-4.7908014916	-0.8823405872	 0.059808
H	-3.0181195058	-5.0620990868	 2.0358124921	 0.098932
H	-1.5184883737	-4.1519883434	 1.6636899655	 0.10094
H	-5.0748320249	-3.0810970212	 0.0526974238	 0.098692
H	-4.9456499105	-4.4916720228	 1.1752220218	 0.098238
51.4078	76.151	102.7817	127.2894	253.746	260.8606	313.3434	370.3737	475.6084	602.9291	613.2407	729.4058	766.2282	786.2522	797.9035	872.7857	903.709	906.323	926.1061	1008.3022	1029.1162	1044.1997	1056.219	1062.5743	1081.8885	1101.6472	1145.2183	1162.2269	1166.6722	1181.0175	1199.597	1216.2934	1231.3706	1234.0172	1252.3828	1283.0257	1302.0567	1309.1611	1316.5109	1378.3095	1444.9418	1464.8159	1484.5203	1501.4737	1519.7776	1529.2763	1557.2229	2952.2709	2976.8104	3014.3254	3022.0847	3028.4491	3037.3927	3051.1509	3062.1185	3069.0555	3091.6303	3116.6954	3133.1655	3830.2613
OCCCC1C2CN1C2	OCCC[C@H]1[C@H]2CN1C2	
InChI=1S/C7H13NO/c9-3-1-2-7-6-4-8(7)5-6/h6-7,9H,1-5H2	InChI=1S/C7H13NO/c9-3-1-2-7-6-4-8(7)5-6/h6-7,9H,1-5H2/t7-/m0/s1
