21
gdb 63078	2.34595	1.6609	1.32145	1.401	83.79	-0.2234	0.0146	0.238	1084.662	0.181615	-387.09178	-387.082817	-387.081873	-387.124365	35.784	
C	-0.0890465515	 1.5287674433	 0.0467444161	-0.460695
C	 0.0470407637	 0.0191603894	 0.0025426414	 0.288467
C	-1.1751442966	-0.7013340709	 0.5505799791	-0.444659
C	 0.7316543179	-0.6906711136	-1.1642569705	-0.178994
C	 1.6609344709	 0.0749879971	-2.1039150754	-0.296377
C	 2.7995041815	 0.5207311331	-1.2077521534	-0.066672
C	 2.6324218412	 0.1150547201	 0.0533137612	-0.172213
C	 1.3766148704	-0.6753384622	 0.2257721446	 0.343528
O	 1.396773188	-1.7606316913	 1.1054136547	-0.471061
H	 0.8071132604	 2.0452652628	-0.3015758844	 0.120306
H	-0.9318049509	 1.8532974779	-0.575138867	 0.110417
H	-0.289507791	 1.8647946257	 1.0706876994	 0.114061
H	-2.0627625264	-0.4457231936	-0.0399227475	 0.106398
H	-1.0475830132	-1.7847797005	 0.5376331929	 0.124319
H	-1.3675342179	-0.4051290831	 1.5878558997	 0.115229
H	 0.2472720221	-1.590994549	-1.5265024968	 0.080436
H	 2.0165705322	-0.5546268848	-2.9302551485	 0.105414
H	 1.1647658509	 0.9362382392	-2.5721897778	 0.112864
H	 3.6137593993	 1.1409366877	-1.5663301819	 0.095062
H	 3.2969956986	 0.3184386042	 0.8856435671	 0.09532
H	 2.0601659804	-2.3828263315	 0.786368937	 0.278849
173.202	193.8717	201.6846	225.6431	239.4328	286.4655	323.2421	366.5887	370.9611	406.4225	482.9481	538.9827	621.0932	671.2498	715.7232	753.9107	822.3723	884.3908	915.7654	944.3094	959.4479	969.5368	977.1217	1007.2092	1022.5754	1056.3736	1103.8604	1150.8769	1157.8952	1166.8679	1206.2232	1251.3229	1290.3653	1306.7228	1319.2703	1372.8189	1405.4609	1417.1623	1435.1406	1469.881	1483.2798	1491.1641	1503.8429	1513.0431	1664.5836	3011.8862	3025.4927	3030.7368	3035.7989	3079.8435	3085.8686	3127.8431	3134.2876	3168.1042	3182.8859	3207.7539	3788.857
CC1(C)C2CC=CC12O	CC1(C)[C@H]2CC=C[C@@]12O	
InChI=1S/C8H12O/c1-7(2)6-4-3-5-8(6,7)9/h3,5-6,9H,4H2,1-2H3	InChI=1S/C8H12O/c1-7(2)6-4-3-5-8(6,7)9/h3,5-6,9H,4H2,1-2H3/t6-,8+/m1/s1
