21
gdb 68040	2.09796	1.67647	1.38519	1.149	78.86	-0.2527	0.0699	0.3226	1082.6332	0.179954	-424.186399	-424.176688	-424.175744	-424.219829	37.785	
C	 0.4090318622	 1.1784169913	 0.2583524079	-0.516461
C	 0.1854244161	-0.2992900999	 0.0934189994	 0.294436
C	 0.6255587246	-1.1898532539	-1.1191022329	-0.33828
C	-0.1124676829	-2.1412210915	-0.1279009621	 0.333374
O	-0.4356032166	-3.4785497527	-0.2820781539	-0.481654
C	 0.7007549909	-1.452693252	 1.0123280528	-0.352664
C	-1.1955042826	-1.0353894181	 0.0369865949	 0.383618
C	-2.1438993249	-1.0508202768	 1.2303670197	-0.48711
O	-1.9356072257	-0.6901327779	-1.1239369398	-0.493463
H	 1.4760396785	 1.4228142234	 0.223631137	 0.117455
H	-0.0918198947	 1.7349103448	-0.5404423523	 0.132313
H	 0.0154999372	 1.5355616086	 1.2164722449	 0.117489
H	 0.1425562118	-0.99544619	-2.0734439185	 0.113188
H	 1.7040939132	-1.3447080842	-1.2161375777	 0.075302
H	 0.372465552	-3.9743836121	-0.4515921333	 0.282998
H	 1.7818430148	-1.6144089186	 0.9837761494	 0.085553
H	 0.3250841316	-1.5110107676	 2.0338409252	 0.092011
H	-1.6602286455	-1.2676739308	 2.1831936321	 0.12131
H	-2.6500498061	-0.0839399758	 1.3085827739	 0.124946
H	-2.9141669988	-1.8165780604	 1.0773738807	 0.115133
H	-2.6154547853	-1.3608789857	-1.2476309374	 0.280506
150.7853	171.3227	194.9749	202.8653	209.1437	218.5009	253.8838	281.0962	364.3313	424.4195	446.2351	524.6343	561.5319	582.368	596.388	686.009	710.7365	746.4869	796.8626	944.5864	961.4896	967.8068	997.4598	1040.8675	1047.0745	1075.9869	1106.9722	1121.1965	1134.352	1169.5328	1174.1631	1206.4295	1211.8694	1267.6447	1325.9786	1346.1701	1399.2926	1408.1287	1416.9774	1480.588	1489.5023	1491.7301	1493.4043	1504.2347	1548.085	3028.6469	3033.6031	3057.2667	3066.3744	3092.6607	3095.3225	3101.6165	3127.3327	3145.3223	3169.0164	3809.4097	3809.8136
CC12CC(O)(C1)C2(C)O	C[C@@]12C[C@@](O)(C1)[C@]2(C)O	
InChI=1S/C7H12O2/c1-5-3-7(9,4-5)6(5,2)8/h8-9H,3-4H2,1-2H3	InChI=1S/C7H12O2/c1-5-3-7(9,4-5)6(5,2)8/h8-9H,3-4H2,1-2H3/t5-,6-,7-/m1/s1
