20
gdb 33248	5.32009	0.63984	0.61274	1.8443	82.3	-0.1997	0.0509	0.2506	1822.6656	0.171915	-403.18019	-403.170804	-403.16986	-403.215658	34.193	
O	-0.0089040361	 1.4473624049	-0.2251515289	-0.422878
C	 0.0489670438	 0.0422835213	-0.0236774773	-0.072279
C	-1.3722037861	-0.5016924968	-0.0645432145	-0.150456
C	-1.432517997	-2.0262193842	 0.135620853	-0.333007
C	-2.8271395755	-2.5807271473	 0.0753998638	 0.292376
C	-3.5554714411	-3.0841100886	 1.1307418213	-0.186341
N	-4.7870629586	-3.468278716	 0.6602485976	-0.231788
C	-4.8637601986	-3.2207867104	-0.6860129644	-0.073871
C	-3.6664834436	-2.6711940425	-1.0774338066	-0.238651
H	 0.8888056281	 1.79082399	-0.2005998351	 0.282842
H	 0.6566530554	-0.4465728668	-0.8036889131	 0.080332
H	 0.5137234204	-0.2014589215	 0.9465787789	 0.079602
H	-1.9670197119	-0.0022724427	 0.7085649657	 0.105288
H	-1.8232831985	-0.2321074038	-1.0263353799	 0.10731
H	-0.8067658593	-2.509570498	-0.6274825218	 0.098499
H	-0.9826237857	-2.2823329938	 1.1032174898	 0.092457
H	-3.2953476143	-3.1999867308	 2.1712394683	 0.110008
H	-5.5171128398	-3.8757280569	 1.216614397	 0.259055
H	-5.754121712	-3.4586178195	-1.2456766796	 0.114401
H	-3.4106404298	-2.3667114768	-2.0815060544	 0.0871
38.0538	84.3836	91.6876	123.4139	246.7172	263.6031	316.3864	325.9746	452.9403	468.1406	638.7838	655.0784	682.6254	718.7152	756.674	771.3409	828.6167	865.8705	905.3616	970.2068	1022.3608	1033.5086	1078.4492	1082.8567	1086.6295	1094.2722	1162.8771	1205.6646	1230.2236	1272.5959	1287.545	1308.4555	1313.9025	1315.7503	1380.5238	1416.3844	1463.8612	1466.319	1484.692	1500.7182	1522.6523	1528.5693	1611.6797	2952.9221	2976.9233	3006.2002	3040.6701	3044.0159	3086.5103	3237.8264	3255.0062	3267.2623	3690.1882	3829.3261
OCCCC1=CNC=C1	OCCCc1c[nH]cc1	
InChI=1S/C7H11NO/c9-5-1-2-7-3-4-8-6-7/h3-4,6,8-9H,1-2,5H2	InChI=1S/C7H11NO/c9-5-1-2-7-3-4-8-6-7/h3-4,6,8-9H,1-2,5H2
