18
gdb 44775	2.36301	2.17022	1.59834	2.0358	76.71	-0.207	-0.0116	0.1954	907.4002	0.148791	-401.872345	-401.865479	-401.864535	-401.903251	28.602	
O	 0.091961414	 0.0910652134	 0.1996177306	-0.336867
C	 0.0163016954	 1.2850995583	 0.1054606234	 0.399747
C	-1.2269509825	 2.1978625587	 0.1409857361	-0.33574
C	-0.46241002	 3.5159785325	-0.022155231	-0.026858
C	 0.7474916107	 3.3527427282	 1.0066277762	-0.312439
C	 1.1643776576	 2.3215791308	-0.1132901017	 0.176587
C	 2.142247067	 1.8181608194	-1.2046235963	-0.315384
C	 1.0026733744	 2.3431695253	-2.1821588003	-0.204929
N	 0.6189421039	 3.2719049635	-1.0607232096	-0.090291
H	-1.9122414098	 1.979646321	-0.6837816601	 0.127394
H	-1.7761595834	 2.1008533335	 1.0814342663	 0.129708
H	-1.0235198551	 4.4461018221	-0.096898143	 0.086041
H	 1.3957658549	 4.2274725949	 1.0144612105	 0.126194
H	 0.5115114596	 3.002067866	 2.0149970865	 0.105881
H	 3.0549634074	 2.4063353992	-1.3002344207	 0.118389
H	 2.3538396382	 0.74840515	-1.2088929047	 0.124786
H	 1.3039829846	 2.8663904466	-3.0917207045	 0.11174
H	 0.2863582829	 1.5477267765	-2.4306846078	 0.116041
131.0275	231.6884	280.1365	385.0295	407.6589	492.8489	528.0816	619.6135	626.7701	663.0888	699.4905	755.4161	808.7035	852.2737	886.9464	893.0997	916.1438	968.9962	980.951	1019.7008	1056.4117	1074.4254	1080.3006	1114.9848	1127.9052	1154.5842	1173.4298	1193.5308	1211.2433	1228.044	1240.1844	1247.0256	1278.0712	1304.6279	1455.4132	1471.5329	1478.4938	1507.5993	1864.8909	3010.5526	3060.6052	3069.7189	3090.8396	3107.9529	3108.5111	3130.2804	3160.1241	3162.9566
O=C1CC2CC11CCN21	O=C1C[C@H]2C[C@]31CCN23	
InChI=1S/C7H9NO/c9-6-3-5-4-7(6)1-2-8(5)7/h5H,1-4H2	InChI=1S/C7H9NO/c9-6-3-5-4-7(6)1-2-8(5)7/h5H,1-4H2/t5-,7-/m0/s1
