17
gdb 127313	5.47521	0.958	0.81955	1.5975	81.5	-0.1988	0.0175	0.2163	1371.8907	0.138207	-414.214546	-414.205927	-414.204982	-414.248778	30.932	
C	-0.0139916888	 1.4281545128	 0.2094779237	-0.314078
N	-0.0165145735	 0.0017182461	-0.0137910519	 0.060374
C	-0.1076285325	-0.6639896139	-1.1884234013	-0.017967
C	-0.0687905596	-2.0146503241	-0.9080145911	-0.322288
C	 0.0497939871	-2.0557918954	 0.4985061474	 0.457468
N	 0.1341653356	-3.1475024751	 1.3561059209	-0.372946
C	 0.1217170726	-4.4760403589	 1.0275647955	 0.082205
N	 0.0263817396	-4.9145814845	-0.1676086663	-0.460081
N	 0.0816299531	-0.8376983613	 1.0417885598	-0.376062
H	 0.9152082523	 1.7375057175	 0.6970329881	 0.145462
H	-0.1003440212	 1.9352645638	-0.7529692871	 0.136971
H	-0.8558783231	 1.7174524464	 0.845372331	 0.145455
H	-0.192299304	-0.1358319355	-2.1254701728	 0.127545
H	-0.1155849124	-2.8521353807	-1.5783144644	 0.143612
H	 0.213267027	-2.9056011795	 2.3304611618	 0.257627
H	 0.2041211888	-5.1018495101	 1.9244459304	 0.087206
H	 0.0382777888	-5.9313856574	-0.1636978237	 0.219495
46.0677	66.2501	167.6043	176.014	213.6581	288.0286	372.6626	435.8121	504.6123	582.4713	616.7827	719.1368	721.8183	777.3779	795.3651	821.0634	843.5949	1009.735	1017.0238	1037.9489	1052.8192	1091.7883	1144.5216	1152.5644	1224.9941	1270.065	1333.5857	1378.4275	1416.2617	1454.9963	1465.4519	1471.6433	1504.5494	1524.9131	1544.3068	1618.4249	1724.738	3042.6878	3043.4619	3104.7602	3143.007	3255.482	3321.4415	3517.9558	3649.7682
CN1C=CC(NC=N)=N1	Cn1ccc(NC=N)n1	
InChI=1S/C5H8N4/c1-9-3-2-5(8-9)7-4-6/h2-4H,1H3,(H2,6,7,8)	InChI=1S/C5H8N4/c1-9-3-2-5(8-9)7-4-6/h2-4H,1H3,(H2,6,7,8)
