17
gdb 43885	5.03236	1.0679	1.0262	2.5911	72.98	-0.2407	0.0302	0.2709	1167.0213	0.136631	-417.977862	-417.970342	-417.969398	-418.010111	29.336	
O	 0.0599694264	-0.042862691	-0.0051038066	-0.356699
C	-0.0354850694	 1.1528891091	 0.0150690583	 0.442657
C	-1.1838557597	 2.1906775139	 0.0609066391	-0.48635
C	-0.0618279787	 3.2680508854	 0.0359421389	 0.393241
C	 0.0870417199	 4.4066796936	-1.0071319767	-0.242067
N	 0.3497356957	 5.4345700227	 0.0643648268	-0.123278
C	-0.8642890792	 5.4413166715	 0.8965241261	-0.237944
C	 0.1072815085	 4.3474800584	 1.1005123506	-0.10562
N	 0.8969080082	 2.1666637441	-0.0017199604	-0.38121
H	-1.8387018638	 2.174280213	-0.8123704289	 0.132922
H	-1.7824555798	 2.1646283947	 0.9734054501	 0.13462
H	 0.9690444012	 4.283842078	-1.639711583	 0.120147
H	-0.780525703	 4.6338112829	-1.6358733574	 0.110864
H	-0.8765803914	 6.2438479467	 1.6275629064	 0.128869
H	-1.8272018642	 5.2348854861	 0.4323107317	 0.115263
H	 0.7164665954	 4.2521448596	 1.9942269214	 0.103131
H	 1.9064016939	 2.1533347214	-0.0402109963	 0.251454
69.2344	121.2172	246.1126	364.7703	383.8061	409.051	428.1875	483.8117	544.345	564.7205	743.6343	770.3436	787.3246	843.0098	867.4102	915.5278	960.3622	974.478	1001.7036	1050.0629	1064.3927	1090.0768	1110.5288	1119.0722	1154.6279	1184.3663	1193.3008	1206.7554	1234.8085	1258.4963	1281.5449	1359.5817	1399.3666	1456.029	1486.0275	1506.1682	1902.7101	3044.8299	3083.3104	3099.1082	3112.2948	3142.2172	3160.5149	3196.1318	3598.5213
O=C1CC2(CN3CC23)N1	O=C1C[C@]2(CN3C[C@@H]23)N1	
InChI=1S/C6H8N2O/c9-5-1-6(7-5)3-8-2-4(6)8/h4H,1-3H2,(H,7,9)	InChI=1S/C6H8N2O/c9-5-1-6(7-5)3-8-2-4(6)8/h4H,1-3H2,(H,7,9)/t4-,6+,8?/m0/s1
