16
gdb 18626	3.11469	2.03203	1.71311	2.2803	64.64	-0.2429	-0.0231	0.2198	825.7191	0.13034	-383.743935	-383.736655	-383.735711	-383.775607	27.058	
C	-0.135038824	 1.5039348692	 0.0159158986	-0.418257
C	 0.0146628211	-0.0001599621	 0.0448460481	-0.044604
C	 1.2643748821	-0.7135951304	-0.351066654	 0.081959
O	 2.4326291874	 0.0673731759	-0.4810481306	-0.260237
C	 2.9062735657	 0.4666479771	 0.7971019608	-0.190213
C	 1.9058886542	-0.0426223229	 1.843785992	 0.376965
O	 2.0311642046	 0.0688384014	 3.0367499503	-0.317266
C	 0.8373521699	-0.7720409627	 1.0982529185	-0.220674
H	 0.8254332633	 2.0158139999	 0.1002125284	 0.134407
H	-0.584366634	 1.8145295772	-0.9330190546	 0.127767
H	-0.7829995537	 1.8535564924	 0.8254696316	 0.130706
H	-0.8970288528	-0.5408538404	-0.1993145144	 0.103031
H	 1.2536378939	-1.5712781311	-1.0150364925	 0.109414
H	 3.8921037206	 0.0240378308	 0.9936695716	 0.13634
H	 3.0084440711	 1.5573557655	 0.8528860791	 0.134153
H	 0.3883459706	-1.6312706097	 1.579633457	 0.116508
105.5372	129.4068	158.4658	232.2106	358.6337	440.5862	542.9847	585.8434	616.2713	682.738	745.5339	796.8025	869.6335	899.6738	944.814	979.5922	1031.6536	1038.7503	1061.3458	1087.9135	1124.3663	1146.5638	1200.2983	1204.6206	1220.2906	1306.7896	1322.9439	1362.2346	1417.4134	1423.7545	1482.4399	1489.7662	1503.1602	1839.6327	3017.2003	3044.4202	3057.4188	3102.885	3126.879	3142.2635	3169.2609	3199.4694
CC1C2OCC(=O)C12	C[C@H]1[C@H]2OCC(=O)[C@@H]12	
InChI=1S/C6H8O2/c1-3-5-4(7)2-8-6(3)5/h3,5-6H,2H2,1H3	InChI=1S/C6H8O2/c1-3-5-4(7)2-8-6(3)5/h3,5-6H,2H2,1H3/t3-,5-,6-/m1/s1
