22
gdb 64369	2.09288	1.78118	1.35759	1.5967	80.82	-0.2386	0.0722	0.3108	1086.5159	0.194138	-404.335291	-404.326107	-404.325163	-404.369303	35.555	
C	 0.2138790691	 1.5325231051	-0.1625047744	-0.416963
C	-0.0174126504	 0.02707041	 0.0594059456	 0.287283
C	-1.5068113836	-0.2972135324	 0.081817756	-0.450439
O	 0.5513612765	-0.7221126072	-1.0223768126	-0.289176
C	 1.9461427674	-0.8995562038	-0.789253194	-0.081684
C	 2.1636504074	-0.8179272873	 0.7402002141	-0.319115
C	 0.7771458355	-0.4739394336	 1.2791310117	 0.335767
C	 0.52199743	-0.0117143383	 2.6601670887	-0.300214
N	 0.2114202319	-1.4013656239	 2.2707402291	-0.36194
H	 1.2793403747	 1.7805042396	-0.1424504269	 0.114889
H	-0.1861409963	 1.8285265708	-1.1366991664	 0.120442
H	-0.2804822785	 2.1267626485	 0.6119658057	 0.112362
H	-1.9848381808	 0.0823030711	-0.8254575339	 0.127345
H	-1.6645288747	-1.3783588186	 0.1152757966	 0.129514
H	-2.0031243679	 0.1686561912	 0.9399071289	 0.112546
H	 2.2252666841	-1.8702493417	-1.2090249293	 0.108881
H	 2.5262216863	-0.1281082011	-1.3158068365	 0.09081
H	 2.4998444814	-1.7631537703	 1.169694787	 0.124844
H	 2.8994784094	-0.0501488593	 0.9966742704	 0.105081
H	 1.3454029625	 0.0982189895	 3.3615586653	 0.114816
H	-0.3033088689	 0.6768634002	 2.8305495835	 0.107084
H	-0.791854345	-1.5037715885	 2.1413523714	 0.227868
33.3197	134.623	216.9719	230.2337	238.2488	285.722	339.5077	347.3122	364.0444	435.0099	517.0131	534.0971	638.1257	705.9948	796.9268	844.8629	870.0652	901.8816	913.8334	927.868	958.4501	975.1642	985.6955	1007.151	1066.0061	1077.1616	1108.6123	1132.2607	1177.6671	1206.132	1217.9759	1243.1987	1251.7069	1268.1113	1283.659	1323.4328	1380.9967	1394.4181	1402.1587	1415.452	1476.1962	1484.8754	1491.6325	1497.2099	1504.8301	1518.946	1530.9868	2994.4043	3035.983	3040.9683	3061.1326	3075.2987	3094.5872	3107.3455	3111.0516	3115.8128	3119.7499	3122.4359	3176.2526	3505.8743
CC1(C)OCCC11CN1	CC1(C)OCC[C@]21CN2	
InChI=1S/C7H13NO/c1-6(2)7(5-8-7)3-4-9-6/h8H,3-5H2,1-2H3	InChI=1S/C7H13NO/c1-6(2)7(5-8-7)3-4-9-6/h8H,3-5H2,1-2H3/t7-/m1/s1
