15
gdb 10809	4.95365	1.55807	1.22015	1.911	62.96	-0.2353	-0.0321	0.2033	952.1371	0.118127	-399.832735	-399.825007	-399.824062	-399.865927	27.2	
C	-0.2022149895	 1.5222804184	 0.0472863838	-0.451985
C	-0.0347902697	 0.0378233251	-0.0808403009	 0.397528
N	-0.096151001	-0.5556324065	-1.1978542757	-0.301667
C	 0.1875096548	-1.9769781523	-1.275130688	-0.271611
C	 0.2326858477	-2.7452333747	 0.0338327515	 0.338234
O	 0.4186550705	-3.9352121018	 0.1020083845	-0.29586
C	-0.0344199664	-1.9209603164	 1.2839526409	-0.183745
O	 0.2087320407	-0.5232724318	 1.1422055965	-0.255103
H	 0.6766309319	 1.9556357633	 0.5354061676	 0.143644
H	-0.3309515665	 1.9641688822	-0.9395631996	 0.148292
H	-1.067386012	 1.7560710275	 0.6758892884	 0.139331
H	-0.5481859486	-2.4659460757	-1.9267476539	 0.147909
H	 1.1538232783	-2.1247606281	-1.7775890831	 0.151707
H	-1.0864837301	-2.0802055341	 1.5654409889	 0.141613
H	 0.5906979998	-2.2820095649	 2.1033081991	 0.151713
28.8518	102.2977	146.9177	233.1182	321.3626	415.4337	452.5815	481.1547	534.897	611.7845	722.7305	759.7992	802.6751	898.4789	962.3965	1036.7521	1067.8271	1104.7618	1139.8928	1202.918	1230.4407	1251.3792	1267.3395	1337.1618	1371.1233	1408.3086	1437.4265	1468.671	1474.8032	1476.7002	1764.1775	1830.7867	3001.5524	3018.7524	3046.9414	3048.9585	3106.0162	3114.8578	3169.6744
CC1=NCC(=O)CO1	CC1=NCC(=O)CO1	
InChI=1S/C5H7NO2/c1-4-6-2-5(7)3-8-4/h2-3H2,1H3	InChI=1S/C5H7NO2/c1-4-6-2-5(7)3-8-4/h2-3H2,1H3
