16
gdb 110193	2.39449	1.24983	0.87822	1.3402	68.62	-0.2667	-0.0502	0.2165	1282.9732	0.121539	-475.004405	-474.99527	-474.994326	-475.03944	31.334	
C	 0.0744506009	 1.4334528358	-0.4564822597	-0.25398
O	 0.4974127673	 0.1027234153	-0.1821991427	-0.235811
C	 0.6618605528	-0.6660934039	-1.3252718068	-0.01777
C	 1.0570042557	-2.1395227477	-1.0294584567	 0.009716
O	-0.1261988403	-2.6015365597	-1.7505029068	-0.26563
C	-0.5770175242	-1.3083803724	-1.9507811611	 0.421865
N	-1.6393083443	-0.8723923984	-2.4456050693	-0.539867
C	 2.3336876155	-2.6392945903	-1.6646943413	 0.131508
O	 3.3752407856	-2.7330182291	-1.0721894237	-0.229007
H	 0.8084944268	 1.9578364339	-1.0858073328	 0.114465
H	-0.9002438237	 1.4460824458	-0.9570440848	 0.150879
H	 0.000926116	 1.9406158389	 0.506983956	 0.137744
H	 1.3017200077	-0.1678136708	-2.0706230081	 0.104832
H	 1.0106923353	-2.3805741233	 0.0342772918	 0.135574
H	-2.2682741808	-1.6246842605	-2.7327002338	 0.237808
H	 2.2307689498	-2.8924493836	-2.7435887501	 0.097673
61.3735	72.9657	104.1961	165.2002	191.1019	223.7035	275.7691	373.1722	400.5247	450.9891	504.6491	675.0461	755.489	868.17	897.235	915.4678	992.3984	1009.9636	1031.0955	1064.1786	1103.8543	1174.3688	1183.7119	1185.5128	1226.6269	1242.8296	1271.584	1314.8141	1381.9875	1408.8119	1481.6113	1487.9217	1511.2608	1831.5793	1837.0242	2892.3862	2984.0676	2998.2855	3075.3895	3110.9379	3137.7999	3474.2553
COC1C(OC1=N)C=O	CO[C@H]1[C@@H](O[C]1[NH])C=O	
InChI=1S/C5H7NO3/c1-8-4-3(2-7)9-5(4)6/h2-4,6H,1H3	InChI=1S/C5H7NO3/c1-8-4-3(2-7)9-5(4)6/h2-4,6H,1H3/t3-,4-/m0/s1
