19
gdb 39764	2.7895	1.8679	1.63684	0.0446	82.34	-0.2151	-0.0024	0.2127	925.1338	0.161162	-348.722729	-348.715953	-348.715008	-348.753264	29.446	
C	-0.0209296482	 1.4674299294	 0.0104547881	-0.357146
C	 1.2938234378	 0.6974405508	-0.0069254544	-0.357144
C	-0.0110161195	-0.0231082752	 0.0020320035	 0.477745
C	-0.5369501571	-0.9464736029	 1.1248600634	-0.202382
C	-2.0148090152	-1.0006270661	 0.6829895618	-0.073555
C	-2.0280584059	-0.9931791844	-0.64984131	-0.073559
C	-0.5592706985	-0.9339186452	-1.1203741255	-0.202378
C	 0.1166060422	-2.249179685	-0.6781877735	-0.073558
C	 0.1298443449	-2.2566385205	 0.6546436297	-0.073555
H	-0.2987507507	 1.9801802092	 0.92623243	 0.109152
H	-0.3168699197	 1.9903561871	-0.8938196294	 0.109153
H	 1.8767493292	 0.7056472405	-0.9228270195	 0.109153
H	 1.894865499	 0.6954904371	 0.8972258351	 0.109153
H	-0.3499397574	-0.6504560655	 2.157528059	 0.05682
H	-2.8532639826	-1.0766300712	 1.3622960049	 0.09632
H	-2.8798622658	-1.0616757866	-1.3131501714	 0.09632
H	-0.3927967277	-0.6263475174	-2.1531804975	 0.05682
H	 0.4603910086	-3.0178532951	-1.3572997835	 0.09632
H	 0.4869660783	-3.0328249042	 1.3181489892	 0.09632
190.7561	249.6563	269.0664	391.4683	451.8853	529.5104	543.4224	587.8803	675.4259	732.1698	756.7532	758.0854	799.4821	838.2968	888.7432	894.5128	912.9493	918.4071	931.3448	936.7715	944.8698	945.9464	968.4242	1012.3325	1051.499	1076.1428	1079.4112	1132.7298	1180.0356	1194.3312	1196.1753	1218.803	1235.1358	1246.743	1284.705	1333.4165	1390.0489	1461.2193	1511.1392	1615.0082	1655.24	3109.7308	3111.7213	3119.422	3123.2966	3195.1255	3206.752	3208.199	3209.5434	3232.7838	3235.2256
C1CC11C2C=CC1C=C2	C1CC21[C@H]1C=C[C@@H]2C=C1	
InChI=1S/C9H10/c1-2-8-4-3-7(1)9(8)5-6-9/h1-4,7-8H,5-6H2	InChI=1S/C9H10/c1-2-8-4-3-7(1)9(8)5-6-9/h1-4,7-8H,5-6H2/t7-,8+
