21
gdb 90161	3.22991	1.41794	1.25396	1.4986	81.48	-0.2226	0.0767	0.2993	1089.4921	0.184602	-387.065618	-387.057774	-387.056829	-387.097443	32.262	
O	-0.1034080852	 1.4549225653	-0.1064125032	-0.434952
C	 0.0019576618	 0.0549994621	 0.046597248	 0.044286
C	 0.2684956299	-0.5365866537	 1.4817886824	-0.344229
C	-1.0607743899	-1.3030042463	 1.3669594742	 0.280372
C	-2.1913344219	-0.3338693873	 1.1768451423	-0.37715
C	-1.3350969171	-0.6817310378	-0.010362946	 0.295583
C	-1.7879635095	-1.7700858869	-0.959736452	-0.304126
C	-2.1870890967	-2.9456799788	-0.0122140694	-0.216374
C	-1.3184513186	-2.7923340903	 1.2745690266	-0.296542
H	 0.7708289061	 1.8368234897	 0.0232968744	 0.280846
H	 0.7081902299	-0.3679744613	-0.6823345847	 0.063991
H	 1.1506984695	-1.1813986299	 1.5160785781	 0.094796
H	 0.3306933972	 0.1960291843	 2.2934975583	 0.092946
H	-3.1971193748	-0.7389290311	 1.1765492674	 0.110709
H	-2.1154138346	 0.6617066573	 1.6022370191	 0.119138
H	-2.6126390058	-1.4926087361	-1.6253064751	 0.098565
H	-0.9466117898	-2.0659916864	-1.5985610665	 0.095202
H	-3.2486737419	-2.8704323484	 0.2451642614	 0.106721
H	-2.054907276	-3.9227319821	-0.4857230923	 0.097798
H	-0.3613628412	-3.3142402732	 1.151363591	 0.09548
H	-1.8110717415	-3.2328478091	 2.1487195061	 0.096938
120.0802	207.765	243.3079	285.0723	299.0953	328.9578	435.6642	459.985	554.7791	601.5666	638.3756	697.3709	759.5052	818.8226	840.6239	856.5737	881.1845	911.7271	934.3796	964.1282	968.0774	990.9736	1048.9425	1056.9421	1072.834	1086.4481	1145.6189	1173.7333	1191.7257	1227.6343	1229.2636	1244.7905	1261.4425	1276.7609	1310.3749	1332.198	1333.3567	1357.7242	1380.8415	1426.285	1471.0989	1490.8124	1492.7977	1494.9873	1514.3906	2989.4515	3025.6958	3028.1037	3039.2047	3046.0247	3063.4956	3067.2013	3094.8282	3099.3483	3131.1404	3216.072	3811.3779
OC1CC23CC12CCC3	O[C@H]1C[C@@]23C[C@@]12CCC3	
InChI=1S/C8H12O/c9-6-4-7-2-1-3-8(6,7)5-7/h6,9H,1-5H2	InChI=1S/C8H12O/c9-6-4-7-2-1-3-8(6,7)5-7/h6,9H,1-5H2/t6-,7-,8-/m0/s1
