15
gdb 129871	3.16669	1.33459	1.04675	2.755	72.03	-0.2206	0.0051	0.2257	1107.5717	0.114743	-413.011662	-413.003535	-413.002591	-413.045006	29.476	
N	 0.208206243	 1.3555671258	-0.1642740483	-0.618445
C	 0.0074597138	-0.0221586193	-0.0895373318	 0.39006
C	-1.1262165393	-0.8062286823	 0.0138427373	-0.304815
C	-0.6343108457	-2.123768805	 0.1393409369	 0.013114
N	 0.6893996013	-2.1788056096	 0.1111765248	-0.276965
N	 1.0692882125	-0.8747890686	-0.0142631972	-0.00405
C	 2.470799655	-0.53674098	-0.0111175391	-0.268722
C	 2.9064728443	 0.0850462439	-1.2717540099	 0.266447
N	 3.2109764165	 0.6171739756	-2.2509949511	-0.30896
H	 0.7872350409	 1.6418373777	-0.9473941407	 0.269919
H	-0.6665290508	 1.8618661091	-0.189800847	 0.260139
H	-2.1504218698	-0.471942752	-0.0154720449	 0.100717
H	-1.2005753169	-3.0383569222	 0.2408957231	 0.116261
H	 2.6994646681	 0.1561590361	 0.8077362773	 0.176116
H	 3.0174272472	-1.4669628891	 0.1562733606	 0.189186
50.8375	93.1024	208.4225	249.1664	274.6887	299.8926	369.4365	444.0485	501.4824	642.7033	671.9261	700.2878	749.4231	787.4221	799.1958	891.1672	926.7095	938.1286	955.2651	1065.106	1095.2948	1166.2124	1247.5161	1264.3378	1334.6304	1371.7633	1377.6263	1440.9283	1455.5387	1546.5666	1601.0271	1662.8706	2361.4938	3044.0804	3127.1359	3241.3311	3268.6075	3515.7718	3625.0786
NC1=CC=NN1CC#N	Nc1ccnn1CC#N	
InChI=1S/C5H6N4/c6-2-4-9-5(7)1-3-8-9/h1,3H,4,7H2	InChI=1S/C5H6N4/c6-2-4-9-5(7)1-3-8-9/h1,3H,4,7H2
