15
gdb 112406	2.28388	1.49766	0.9507	1.2073	64.59	-0.2691	-0.0165	0.2525	1165.7617	0.113537	-491.136034	-491.127918	-491.126974	-491.169345	29.668	
O	 0.0631261335	 1.4111776792	-0.0634422248	-0.41492
C	 0.0564351009	 0.0067911071	 0.0450476663	-0.065156
C	-1.3662921021	-0.5484798614	 0.0503181731	-0.071933
O	-2.0142792794	-0.2404024304	-1.2022170017	-0.263806
C	-2.4184615432	-1.3889346157	-1.8220088323	 0.479101
N	-3.0116625686	-1.4983722911	-2.9265175011	-0.568091
N	-2.0579607255	-2.4583323604	-1.0097693116	-0.37333
C	-1.4194163224	-2.0720653767	 0.1455252787	 0.429654
O	-0.9835998064	-2.7721205749	 1.0232926179	-0.358042
H	-0.3567017978	 1.6366396109	-0.9011236876	 0.295575
H	 0.6278196487	-0.4742796643	-0.7639682256	 0.103883
H	 0.5318627093	-0.2529992552	 0.9949511317	 0.143767
H	-1.9416089631	-0.0868864166	 0.8597227526	 0.138524
H	-3.1752676656	-0.5842462865	-3.3426887799	 0.235577
H	-2.2514785183	-3.4130688139	-1.2679198257	 0.289197
77.862	123.1397	140.4683	172.1476	310.5629	383.5298	416.9583	430.0648	570.9322	593.6675	638.6742	662.036	710.9842	723.0696	816.9042	859.3392	959.9631	971.6484	1047.5733	1074.5051	1089.7916	1101.8818	1216.3877	1225.2792	1282.6099	1333.6163	1358.9872	1395.165	1401.9918	1422.2962	1493.4252	1805.2189	1867.4766	2990.143	3068.3107	3103.4871	3531.0347	3658.1175	3807.7015
OCC1OC(=N)NC1=O	OC[C@H]1O[C]([NH])NC1=O	
InChI=1S/C4H6N2O3/c5-4-6-3(8)2(1-7)9-4/h2,7H,1H2,(H2,5,6,8)	InChI=1S/C4H6N2O3/c5-4-6-3(8)2(1-7)9-4/h2,7H,1H2,(H2,5,6,8)/t2-/m1/s1
