21
gdb 73028	2.97811	1.18319	1.02164	1.4673	83.54	-0.2253	0.081	0.3063	1275.3319	0.182052	-387.036828	-387.028082	-387.027137	-387.070594	33.6	
C	-0.1652257524	 1.5052876312	-0.0314041944	-0.487435
C	-0.0383826978	 0.0230515282	 0.1019776053	 0.435682
O	-0.8276286813	-0.7846667241	-0.7922466916	-0.321295
C	-1.1201990022	-1.7184931896	 0.2822162501	-0.099863
C	-0.204181731	-0.9714405439	 1.2393188628	-0.204485
C	 1.1547123817	-0.7557722109	 0.5784635884	-0.084816
C	 1.871062223	-1.7703959945	-0.2549028021	 0.010303
C	 3.3415687353	-1.6015993788	-0.5520604769	-0.275506
C	 2.8804654052	-2.7032628725	 0.3696844307	-0.269569
H	 0.4133766887	 2.0104279911	 0.7473539637	 0.121861
H	 0.2167784137	 1.8359341737	-1.004088377	 0.132793
H	-1.2105838286	 1.8205049498	 0.0468909129	 0.126079
H	-2.1799073928	-1.6642424979	 0.5560991847	 0.106452
H	-0.8601663803	-2.7510860422	 0.0211249929	 0.104322
H	-0.3789790579	-0.816123022	 2.2960678427	 0.091409
H	 1.8054340983	-0.1606717662	 1.2183456957	 0.081045
H	 1.2717574924	-2.1748142624	-1.0635735275	 0.099214
H	 3.70153523	-1.8690040251	-1.5394578142	 0.111057
H	 3.8543539916	-0.7528720444	-0.1103869202	 0.106661
H	 3.0810706246	-2.5920629643	 1.4305252249	 0.107441
H	 2.9271092496	-3.7275407454	 0.0158300392	 0.108648
48.3732	137.0478	162.0094	202.6902	232.3548	300.9088	330.609	344.6682	505.6425	548.1961	658.6373	759.243	774.1663	809.094	834.4168	865.2297	901.564	928.1368	939.0412	960.9439	970.7674	992.834	1025.2741	1052.1681	1058.336	1074.5307	1093.5413	1126.0961	1143.8276	1158.9043	1194.6387	1198.8672	1201.6767	1227.9096	1260.7505	1303.9581	1339.3836	1379.9795	1414.3539	1470.5832	1473.7186	1487.0295	1500.3679	1510.5843	1520.1964	3023.8552	3031.6527	3069.5857	3094.8583	3113.292	3118.5408	3125.5392	3130.5015	3165.2517	3193.0229	3203.1203	3219.0947
CC12OCC1C2C1CC1	C[C@]12OC[C@H]1[C@H]2C1CC1	
InChI=1S/C8H12O/c1-8-6(4-9-8)7(8)5-2-3-5/h5-7H,2-4H2,1H3	InChI=1S/C8H12O/c1-8-6(4-9-8)7(8)5-2-3-5/h5-7H,2-4H2,1H3/t6-,7+,8-/m0/s1
