21
gdb 80698	1.96046	1.54552	1.42426	2.4298	82.87	-0.2365	-0.0197	0.2167	1115.0707	0.180675	-387.077582	-387.068125	-387.06718	-387.111671	35.203	
C	-0.1023158217	 1.5565760201	 0.0054455839	-0.414399
C	 0.0478683873	 0.0545984859	 0.1332770602	-0.041736
C	 1.2681076315	-0.7466549569	-0.2397996976	-0.122809
C	 2.5594911688	-0.0192371873	 0.1582413553	-0.27133
C	 2.0623186032	-0.0347017446	 1.6481259405	-0.145826
C	 2.0242453558	 1.2360239003	 2.4542966133	 0.14052
O	 1.0568427329	 1.6567608567	 3.0382188891	-0.250972
C	 0.7580911559	-0.7192347276	 1.2169957546	 0.341361
C	 0.0813373388	-1.7799146372	 2.0384675167	-0.502573
H	 0.8336242238	 2.0955490254	 0.1685451733	 0.113519
H	-0.4559214443	 1.8163803787	-0.9986669739	 0.108954
H	-0.8240073117	 1.9404129558	 0.7325692226	 0.132994
H	-0.8616984626	-0.4726944943	-0.1535335959	 0.083602
H	 1.2268154113	-1.5594859546	-0.9560916966	 0.083731
H	 3.4591962889	-0.6199030486	 0.0152326388	 0.108127
H	 2.7256296251	 0.9624796114	-0.2968509372	 0.103711
H	 2.6970110479	-0.7291262496	 2.2169809771	 0.100405
H	 2.9989591309	 1.7798698632	 2.499693881	 0.070263
H	-0.400067517	-1.3408294742	 2.9198531209	 0.13604
H	-0.690806368	-2.2973188697	 1.4598529918	 0.116564
H	 0.7963885732	-2.5334854428	 2.390613182	 0.109855
74.9204	120.7851	150.1215	186.895	209.3573	225.0681	269.7153	298.6875	353.3837	443.225	526.3197	587.7123	668.1287	725.3208	745.1288	806.4219	872.2513	909.2038	933.6303	984.3027	990.2254	1017.2598	1046.029	1065.251	1097.8078	1113.5718	1119.9981	1146.5307	1167.2309	1197.0115	1248.5046	1256.2501	1290.4858	1337.6499	1351.4354	1412.226	1418.87	1421.3525	1464.2286	1484.9954	1490.4441	1499.4705	1505.0544	1505.2645	1820.8686	2837.6596	3009.6711	3019.6787	3037.4022	3050.4382	3079.2629	3096.515	3099.4592	3108.0218	3112.6509	3125.9235	3172.0901
CC1C2CC(C=O)C12C	C[C@H]1[C@H]2C[C@@H](C=O)[C@@]12C	
InChI=1S/C8H12O/c1-5-7-3-6(4-9)8(5,7)2/h4-7H,3H2,1-2H3	InChI=1S/C8H12O/c1-5-7-3-6(4-9)8(5,7)2/h4-7H,3H2,1-2H3/t5-,6-,7+,8+/m0/s1
