18
gdb 8688	2.64748	1.65776	1.33495	3.444	67.94	-0.2442	0.0223	0.2665	1009.214	0.152159	-381.11767	-381.108099	-381.107155	-381.151556	34.228	
C	-0.0067937339	 1.4632178381	-0.1166597431	-0.336283
N	 0.0333566863	 0.0093991925	 0.028987639	-0.308731
C	 0.6672924605	-0.510967231	 1.243279283	 0.075832
C	 0.0278597131	-0.0672913802	 2.5777237734	-0.414073
C	 0.6445492676	-2.0647565545	 1.1319529651	-0.086255
O	 1.3027143564	-2.7093913983	 2.1959967628	-0.414457
C	 2.091565964	-0.1137376049	 1.2392050953	 0.295448
N	 3.2182202965	 0.1432140323	 1.2712584681	-0.351209
H	 1.0153498713	 1.8523767818	-0.1487691315	 0.15024
H	-0.4830810913	 1.7032494271	-1.0710211271	 0.128946
H	-0.5497205482	 1.9942737125	 0.680489638	 0.106258
H	-0.9082171741	-0.3672808356	-0.0174036347	 0.224033
H	-1.0387739091	-0.3158317347	 2.5611195739	 0.115128
H	 0.4928382817	-0.5987425674	 3.4105048604	 0.149854
H	 0.1339376074	 1.0069994836	 2.7412225463	 0.133173
H	-0.4019014167	-2.3879715928	 1.1748747315	 0.111139
H	 1.0492917992	-2.3417176707	 0.1504986484	 0.120465
H	 2.2493800693	-2.552706728	 2.1006386511	 0.300492
86.4639	111.8558	163.691	171.2024	215.4856	234.3902	255.1414	303.8159	372.6517	409.2826	412.9794	445.3019	580.2962	628.2859	691.8722	746.44	895.0109	918.8631	967.3757	1063.6652	1099.7117	1121.3559	1134.315	1162.8704	1200.1369	1219.2457	1287.7759	1373.1122	1398.9294	1417.8856	1457.8404	1475.077	1484.1992	1496.3391	1499.1252	1508.9217	1523.3275	2350.7088	2983.6267	3022.642	3043.9219	3076.8128	3078.0528	3117.6205	3121.6546	3143.8501	3518.537	3798.2561
CNC(C)(CO)C#N	CN[C@@](C)(CO)C#N	
InChI=1S/C5H10N2O/c1-5(3-6,4-8)7-2/h7-8H,4H2,1-2H3	InChI=1S/C5H10N2O/c1-5(3-6,4-8)7-2/h7-8H,4H2,1-2H3/t5-/m1/s1
