16
gdb 27816	1.98178	1.90411	0.9829	4.9287	74.58	-0.2559	-0.0529	0.2029	1167.3405	0.124756	-434.160072	-434.151567	-434.150623	-434.193766	30.379	
C	 0.0183701427	 1.5018044305	-0.0013081619	-0.491493
C	 0.0186440971	 0.0036152137	-0.0612455282	 0.401154
N	 0.0040139622	-0.6167302169	-1.2070679135	-0.336543
C	 0.0057082924	-1.9955404656	-1.1343159875	 0.340294
C	-0.0106969739	-2.6880224912	-2.4644699229	-0.454093
N	 0.020410892	-2.7270470792	-0.0535464921	-0.335339
C	 0.0361047048	-2.0965692239	 1.1760964168	 0.426801
O	 0.0508228637	-2.639027754	 2.254848913	-0.371487
N	 0.0343269611	-0.6759183311	 1.1064998313	-0.356225
H	 0.9084099694	 1.8681344609	 0.5215069987	 0.1524
H	 0.0058429692	 1.899576052	-1.0149786165	 0.16687
H	-0.8593751026	 1.8668776213	 0.5427589357	 0.152464
H	 0.8608567936	-2.3799000314	-3.0514468013	 0.144965
H	-0.0103367563	-3.7692415138	-2.3331640999	 0.146317
H	-0.8947610238	-2.3776320648	-3.0311094401	 0.144901
H	 0.0456721082	-0.1954826564	 1.9962713684	 0.269013
80.963	104.6148	128.4342	181.148	200.7761	283.3357	340.2872	533.5761	548.3647	576.6241	581.5594	633.2538	638.8934	733.8107	818.4294	912.888	961.5675	998.4401	1039.932	1058.4928	1069.0882	1069.8919	1161.0029	1267.9051	1356.2789	1403.5451	1412.4442	1444.6129	1464.2332	1473.5797	1483.1925	1493.3095	1585.6236	1657.7415	1832.7341	3044.1291	3047.024	3102.5204	3103.5601	3167.4538	3169.8031	3596.6428
CC1=NC(C)=NC(=O)N1	Cc1nc(C)nc(=O)[nH]1	
InChI=1S/C5H7N3O/c1-3-6-4(2)8-5(9)7-3/h1-2H3,(H,6,7,8,9)	InChI=1S/C5H7N3O/c1-3-6-4(2)8-5(9)7-3/h1-2H3,(H,6,7,8,9)
