16
gdb 80814	1.97186	1.72278	1.21938	4.6008	71.29	-0.2499	-0.006	0.2438	1065.533	0.124806	-433.989459	-433.981111	-433.980167	-434.022194	31.832	
N	 0.1907303346	 1.4651744548	 0.0536713936	-0.525775
C	 0.0953166874	 0.0462499679	-0.0160971801	 0.013511
C	-0.123491593	-0.7048197714	 1.3210091415	-0.020905
O	-1.5251092437	-0.208944388	 1.3386538118	-0.333643
C	-1.3195934105	-0.6888219741	-0.0441801094	 0.27991
C	-2.3871337883	-0.5591355083	-0.9976373973	 0.160159
N	-3.2059783442	-0.4495821596	-1.8072010415	-0.343647
C	-0.6541092395	-1.9670170817	 0.5542673784	 0.019744
N	 0.1170458678	-2.8551805971	-0.2590991475	-0.536465
H	 0.1372728535	 1.8909693373	-0.8647815752	 0.243323
H	-0.56326925	 1.8321707477	 0.6264132979	 0.248532
H	 0.8451759174	-0.3545782692	-0.7024426688	 0.084071
H	 0.4390650173	-0.6212457757	 2.2504530345	 0.107211
H	-1.3712058072	-2.5222318245	 1.1595863713	 0.116319
H	 0.9614397373	-2.4394287703	-0.6324670104	 0.241732
H	 0.3776276112	-3.6875456078	 0.2550421212	 0.245922
115.9352	133.9256	179.2911	229.1066	283.0509	346.2457	373.9772	381.8685	515.3094	540.0533	559.4517	618.4909	678.3621	741.0564	774.9184	823.8605	844.2128	874.8511	903.776	930.3346	978.1266	1093.3989	1122.6304	1167.5742	1196.007	1216.8211	1224.5501	1244.5989	1263.6466	1283.7603	1428.8352	1457.2763	1649.7117	1664.8324	2346.1924	3086.5213	3122.6591	3133.6406	3508.2278	3534.3344	3595.3041	3616.803
NC1C2OC1(C#N)C2N	N[C@H]1[C@H]2O[C@]1(C#N)[C@H]2N	
InChI=1S/C5H7N3O/c6-1-5-3(7)2(9-5)4(5)8/h2-4H,7-8H2	InChI=1S/C5H7N3O/c6-1-5-3(7)2(9-5)4(5)8/h2-4H,7-8H2/t2-,3-,4-,5+/m0/s1
