16
gdb 29997	3.22497	1.66251	1.16399	2.1194	75.74	-0.2094	-0.0155	0.1939	1023.038	0.126627	-400.778911	-400.771917	-400.770972	-400.810329	27.25	
C	-0.0897172399	 1.590000618	 0.0235690178	-0.393663
C	 0.0060651437	 0.0543308558	 0.0416296287	-0.202289
C	 0.8249901105	-0.5283885964	-1.1201348159	-0.085624
C	 1.85580769	-1.2880314747	-0.6940615802	-0.205201
C	 1.8236565708	-1.2882839869	 0.7689812251	 0.231998
C	 0.7794606858	-0.5303116377	 1.1755063928	 0.308862
O	 0.7434185505	-0.5207204283	 2.531372386	-0.201266
C	 1.8170408756	-1.3087128268	 2.8683946364	 0.027534
N	 2.4941715214	-1.7928233391	 1.8728529728	-0.342338
H	 0.9071668211	 2.0385977805	 0.0411381156	 0.13273
H	-0.6053994585	 1.9312952182	-0.878820377	 0.121918
H	-0.6471286775	 1.95282677	 0.8919957213	 0.128477
H	-1.0108070169	-0.363039895	 0.0029949117	 0.114731
H	 0.5676664641	-0.3184652773	-2.1502470844	 0.103444
H	 2.5747066667	-1.8046058453	-1.3151733719	 0.113103
H	 1.9872802226	-1.4454919148	 3.9243827111	 0.147584
117.5963	167.9823	250.2488	294.3483	359.93	471.8013	549.7912	632.6137	645.331	688.7384	708.2992	785.427	797.1318	811.1057	903.63	938.7135	940.7498	1015.0612	1062.2799	1066.7504	1074.6281	1091.8261	1155.1397	1219.9646	1269.3822	1278.1993	1317.2825	1388.7013	1406.7355	1444.4368	1497.0999	1499.188	1513.8672	1566.7221	1629.6079	3011.3434	3042.1653	3113.981	3123.0208	3213.4431	3237.6527	3280.9294
CC1C=CC2=C1OC=N2	C[C@H]1C=Cc2c1ocn2	
InChI=1S/C7H7NO/c1-5-2-3-6-7(5)9-4-8-6/h2-5H,1H3	InChI=1S/C7H7NO/c1-5-2-3-6-7(5)9-4-8-6/h2-5H,1H3/t5-/m0/s1
