16
gdb 67412	2.77358	1.56772	1.30096	5.5871	75.09	-0.2379	0.0123	0.2502	1003.5994	0.126387	-396.869283	-396.861852	-396.860907	-396.900975	29.302	
N	-0.1433162567	 1.4277772884	 0.1933411772	-0.620369
C	-0.0098683265	 0.0513216759	-0.007652509	 0.281038
C	-1.0536877048	-1.0331198273	-0.0819102331	-0.152821
C	-0.4029624191	-1.6722229449	-1.3016171008	-0.243501
C	 0.911797403	-0.9772877838	-0.842791829	-0.102414
N	 1.2975596873	-1.6159796452	 0.4457903072	-0.344621
C	 0.073803076	-1.0571247646	 1.0161132896	 0.217743
C	-0.2235092239	-1.0306127563	 2.4084131345	 0.193163
N	-0.4665619082	-1.0168036275	 3.5399558507	-0.353389
H	 0.7214890071	 1.8681837865	 0.4869645915	 0.251057
H	-0.5045784983	 1.9115988045	-0.620848153	 0.243792
H	-2.0956871539	-0.9725302248	 0.2030803454	 0.114038
H	-0.382853546	-2.7647674713	-1.3832410985	 0.098848
H	-0.7923799311	-1.2375764649	-2.2261150397	 0.11197
H	 1.7189470647	-0.7524245266	-1.5370510226	 0.086853
H	 1.2981366003	-2.636953098	 0.3992121998	 0.218612
118.5497	164.4218	223.1767	312.7078	348.3169	435.8342	479.6816	526.3741	554.3061	584.4572	666.4637	712.9493	767.7833	784.7577	826.7413	913.9449	942.3298	950.1748	972.7866	1004.7267	1023.0182	1069.604	1108.0596	1117.8922	1168.8938	1221.7856	1243.4804	1263.9603	1269.6314	1329.2537	1353.8847	1481.6791	1499.5662	1656.1977	2348.0835	3039.7156	3104.7529	3139.7118	3215.3594	3425.3589	3512.5248	3594.4568
NC12C3CC1NC23C#N	N[C@@]12[C@H]3C[C@@H]1N[C@@]23C#N	
InChI=1S/C6H7N3/c7-2-5-3-1-4(9-5)6(3,5)8/h3-4,9H,1,8H2	InChI=1S/C6H7N3/c7-2-5-3-1-4(9-5)6(3,5)8/h3-4,9H,1,8H2/t3-,4-,5+,6-/m0/s1
