18
gdb 70387	2.45297	1.5369	1.34953	4.2502	75.81	-0.2454	0.0175	0.2629	1043.528	0.147352	-398.090617	-398.081764	-398.08082	-398.123612	33.605	
C	 0.0151043612	 1.534836529	 0.0625107607	-0.502382
C	-0.024459614	 0.038734478	-0.0156955725	 0.3484
C	-0.8721772523	-0.8092362406	 0.8507548047	-0.296804
N	 0.5888513556	-0.8892089559	 1.0278813977	-0.155191
C	 1.0535780946	-1.7890848905	-0.0746526331	-0.210813
C	 0.5234464096	-0.8016521337	-1.1900694707	 0.053913
N	-0.4454293552	-1.1719399511	-2.2073963264	-0.563811
C	 1.6523876102	-0.1429871808	-1.8554431046	 0.290979
N	 2.5556950934	 0.3571309384	-2.3744532443	-0.342933
H	 1.0010527936	 1.9218460703	-0.2104804356	 0.149523
H	-0.7227153034	 1.9698265466	-0.6205953644	 0.138102
H	-0.2175857738	 1.8681358071	 1.0774262805	 0.131953
H	-1.3778313221	-0.3054622003	 1.6688870966	 0.131155
H	-1.4046744111	-1.6789271907	 0.4695801687	 0.1051
H	 2.1383324451	-1.8984119737	-0.0575961801	 0.136758
H	 0.5812897414	-2.77768657	-0.0754595284	 0.10664
H	-0.019018091	-1.7496675446	-2.925233026	 0.24359
H	-1.204628032	-1.7017293374	-1.7941615928	 0.23582
126.9993	138.1572	169.0672	212.8805	226.4853	266.2651	328.7853	364.3702	458.3902	477.1906	535.109	558.1357	650.146	669.0902	745.1445	819.814	846.8689	877.7467	907.0287	972.8465	991.9604	1034.4918	1066.1361	1097.2629	1110.5469	1133.0008	1177.3713	1211.7981	1263.0863	1294.6714	1346.3398	1368.3481	1420.0074	1480.6821	1487.3807	1493.9243	1512.5635	1649.9369	2358.2513	3039.3551	3042.5244	3096.6924	3107.7223	3122.8843	3130.7312	3191.6992	3506.1876	3593.9163
CC12CN1CC2(N)C#N	C[C@]12CN1C[C@]2(N)C#N	
InChI=1S/C6H9N3/c1-5-3-9(5)4-6(5,8)2-7/h3-4,8H2,1H3	InChI=1S/C6H9N3/c1-5-3-9(5)4-6(5,8)2-7/h3-4,8H2,1H3/t5-,6-,9?/m1/s1
