19
gdb 46487	3.92457	1.16107	0.9942	4.0199	85.09	-0.2328	-0.0455	0.1873	1210.84	0.160805	-385.921412	-385.913618	-385.912674	-385.953707	30.965	
O	 0.0301521282	-0.0621244027	 0.1501089095	-0.335737
C	-0.0084548074	 1.142031234	-0.0104305973	 0.373133
C	-1.3262425293	 1.9111593396	-0.077243711	-0.320128
C	-1.2337231268	 3.1365290102	-0.9955099997	-0.311086
C	-0.0627456404	 4.0269616702	-0.6103039919	 0.344853
C	 0.0551892393	 5.3933681869	-1.2565591644	-0.319557
C	-0.3163925884	 5.3026758317	 0.1924571132	-0.300743
C	 1.1791186518	 3.2860076	-0.3158146914	-0.088396
C	 1.2164887508	 1.9633345184	-0.087227159	-0.188631
H	-2.1137031761	 1.2203107725	-0.3878417359	 0.119898
H	-1.5618823816	 2.2307308278	 0.9479564457	 0.123611
H	-1.0905857415	 2.7970914575	-2.0300320355	 0.111831
H	-2.1698049351	 3.7045653833	-0.9771021268	 0.098987
H	 1.0460262656	 5.7523021381	-1.5141449391	 0.119319
H	-0.7165845071	 5.6656359096	-1.9689331365	 0.121022
H	-1.3429381362	 5.5054767226	 0.4782654941	 0.123327
H	 0.4195644888	 5.5925980449	 0.9339737156	 0.121351
H	 2.1020263425	 3.8637888018	-0.2943241595	 0.102704
H	 2.1514080929	 1.4415841336	 0.0898931097	 0.104242
74.7547	165.9832	228.7064	287.1103	354.7236	387.4947	398.9623	466.6784	527.4142	632.7666	674.376	729.8864	758.1469	783.7305	807.1722	882.6837	915.8574	945.3663	949.9234	990.0033	1019.4836	1021.6339	1056.8889	1060.5762	1084.9546	1136.0487	1181.9112	1193.9428	1210.3411	1254.0771	1303.164	1341.2232	1347.8241	1381.1721	1426.4975	1460.4947	1468.1566	1491.7806	1499.5379	1665.4515	1775.8745	3014.8058	3023.5995	3070.1922	3104.5591	3129.5015	3134.5872	3138.6808	3190.1744	3210.1651	3226.0519
O=C1CCC2(CC2)C=C1	O=C1CCC2(CC2)C=C1	
InChI=1S/C8H10O/c9-7-1-3-8(4-2-7)5-6-8/h1,3H,2,4-6H2	InChI=1S/C8H10O/c9-7-1-3-8(4-2-7)5-6-8/h1,3H,2,4-6H2
