21
gdb 83552	2.86203	1.33595	1.1417	0.7964	88.8	-0.2474	0.0552	0.3026	1174.3076	0.183742	-349.917798	-349.909528	-349.908584	-349.950106	33.538	
C	-0.0977869397	 1.7116550177	 0.0024613311	-0.442782
C	 0.0232433424	 0.1956701602	 0.0145963556	 0.04626
C	 1.1205224922	-0.5551375501	-0.8057813876	-0.032251
C	 2.4358850008	 0.0327594074	-0.2616165885	-0.230465
C	 2.1018006683	 0.018349946	 1.268307587	-0.230461
C	 0.6816622755	-0.5740928477	 1.2040091464	-0.032246
C	 0.900854279	-1.7542795316	 0.1878387624	-0.174239
C	-0.2408538856	-2.6074329239	-0.0695334753	 0.294131
C	-1.1708139741	-3.341764632	-0.279299086	-0.436604
H	 0.84639449	 2.2214822287	 0.2135082987	 0.115925
H	-0.4493345488	 2.0619300394	-0.9745285334	 0.116833
H	-0.8260333307	 2.0456617627	 0.7500462399	 0.116831
H	-0.95101293	-0.2495865363	-0.2023433239	 0.088856
H	 1.034158498	-0.7015322133	-1.8826653158	 0.065532
H	 3.2980237048	-0.5928333126	-0.5095921894	 0.09742
H	 2.6356508205	 1.0364252491	-0.6454243953	 0.099499
H	 2.7845693968	-0.6149723884	 1.8417802641	 0.097419
H	 2.1194561226	 1.0141617874	 1.7184272932	 0.099502
H	 0.1548762933	-0.7395119445	 2.1440634304	 0.065531
H	 1.7885090856	-2.3686248799	 0.37587548	 0.087905
H	-1.9938240006	-3.9863150883	-0.4643539136	 0.187404
138.2465	148.0642	188.9031	268.7936	280.8256	350.8319	373.3367	463.9438	499.7325	588.0815	604.7287	633.7215	676.5228	726.7157	803.4751	834.4585	882.605	886.464	908.766	939.7344	957.867	1003.5452	1020.9526	1026.6917	1058.3009	1072.3716	1122.8785	1145.2301	1156.4535	1191.1526	1203.6975	1216.2726	1255.875	1270.2846	1280.928	1315.0922	1317.6471	1369.0205	1407.1278	1420.188	1486.7922	1496.1196	1509.7632	1520.1886	2229.3788	3031.9202	3039.6165	3054.684	3063.1917	3077.0708	3089.4178	3090.4395	3106.1179	3113.1379	3113.2081	3117.5759	3505.3092
CC1C2CCC1C2C#C	C[C@H]1[C@H]2CC[C@@H]1[C@H]2C#C	
InChI=1S/C9H12/c1-3-7-8-4-5-9(7)6(8)2/h1,6-9H,4-5H2,2H3	InChI=1S/C9H12/c1-3-7-8-4-5-9(7)6(8)2/h1,6-9H,4-5H2,2H3/t6-,7-,8+,9-
