20
gdb 88075	3.23437	1.30958	1.22389	2.5925	79.93	-0.2219	0.0727	0.2946	1129.4635	0.171693	-403.110854	-403.102705	-403.101761	-403.143405	32.016	
C	-0.0750723615	 1.5371675758	 0.1187101835	-0.401949
C	-0.0336378021	 0.0252436996	 0.0917179476	-0.070372
C	 1.258742883	-0.7109267466	-0.2396174287	-0.37582
C	 0.684046453	-0.740979805	 1.1570988421	 0.498317
O	 1.3168783616	 0.0083794006	 2.1732217805	-0.302005
C	 1.7766497564	-0.875078219	 3.1961381413	-0.087956
C	 0.9104807201	-2.1137164283	 3.0873319153	-0.053322
N	-0.5306924006	-1.7908117554	 3.0461878798	-0.336775
C	 0.2144901435	-2.0157598241	 1.7843978499	-0.156161
H	 0.8413239684	 1.9450607342	 0.5512301696	 0.131168
H	-0.1924147222	 1.9436501385	-0.8917394555	 0.109312
H	-0.9129344016	 1.8939626373	 0.7266909501	 0.122324
H	-0.9432660856	-0.4456153899	-0.2740510251	 0.083567
H	 1.21776603	-1.6044693755	-0.8553139027	 0.101865
H	 2.1479326146	-0.1039269349	-0.3758017959	 0.116111
H	 2.8331317756	-1.1471221124	 3.0441384318	 0.091818
H	 1.6788622807	-0.3492080424	 4.1509894545	 0.113456
H	 1.2507911913	-3.0551341538	 3.5048434685	 0.093207
H	-1.0595935548	-2.6323489711	 3.26567868	 0.230043
H	-0.0056582798	-2.8783848577	 1.1654195235	 0.093173
101.0003	150.2452	184.5868	191.1674	299.5299	359.5256	384.9255	448.7821	500.4814	585.9319	711.279	786.7647	800.4911	821.1232	870.2351	873.3067	895.4687	907.171	956.8174	969.4342	990.8091	1025.6923	1033.1538	1071.5892	1093.8255	1100.386	1129.1606	1139.3201	1158.362	1188.2837	1226.3297	1242.7404	1258.215	1287.4725	1357.7719	1385.8189	1403.1152	1419.0806	1442.5661	1487.8153	1493.7281	1504.5154	1510.868	2981.6437	3034.9729	3076.6867	3094.4114	3117.3961	3120.8018	3136.6802	3169.0632	3179.7859	3211.0577	3492.9265
CC1CC11OCC2NC12	C[C@H]1C[C@]21OC[C@H]1N[C@@H]21	
InChI=1S/C7H11NO/c1-4-2-7(4)6-5(8-6)3-9-7/h4-6,8H,2-3H2,1H3	InChI=1S/C7H11NO/c1-4-2-7(4)6-5(8-6)3-9-7/h4-6,8H,2-3H2,1H3/t4-,5+,6+,7+/m0/s1
