19
gdb 89388	2.65047	1.44488	1.20151	2.2193	75.92	-0.2322	-0.0205	0.2116	1107.0785	0.159286	-423.048623	-423.040131	-423.039187	-423.081421	32.981	
C	-0.2348568163	 1.4880224056	 0.1480913605	-0.482257
C	 0.1103314601	 0.0303267757	-0.034801793	 0.331742
C	-0.7260979094	-1.0329675362	 0.5937283518	-0.325936
C	 0.7063674227	-0.8050648461	 1.0964469346	-0.197571
C	 1.7220969317	-1.715096795	 0.5087378607	 0.400616
O	 2.5400527526	-2.3862755213	 1.0927530519	-0.34588
C	 1.583147587	-1.6770363239	-1.0355362112	-0.005434
O	 0.8274080632	-2.8077588904	-1.4712738246	-0.428188
C	 0.8125551988	-0.3851430747	-1.3353508843	-0.28305
H	 0.654268115	 2.1221843684	 0.0574888293	 0.120572
H	-0.9555332751	 1.8153654887	-0.6104189113	 0.124476
H	-0.681794426	 1.6712583502	 1.1300626722	 0.119361
H	-1.5021454459	-0.7216350616	 1.2851681686	 0.118101
H	-0.9363532118	-1.9420445191	 0.0429941424	 0.142688
H	 0.8507171183	-0.4384302685	 2.1052692628	 0.102571
H	 2.581667177	-1.6853448239	-1.4910208492	 0.089755
H	 1.2795173203	-3.5939478588	-1.1424376281	 0.294441
H	 0.1124233012	-0.531791034	-2.1635457247	 0.11847
H	 1.5176639764	 0.3997373447	-1.6301124185	 0.105523
91.4387	143.2299	217.4525	229.8766	289.2377	337.2395	377.3948	393.559	404.5717	476.5323	536.2731	632.5762	680.2561	739.6031	806.9955	861.6116	888.1849	920.8888	954.3287	975.0202	1012.3677	1030.5007	1053.5411	1077.1537	1088.2807	1127.7032	1188.0803	1199.457	1239.7987	1246.1226	1305.6982	1317.3979	1336.3322	1396.3506	1411.2869	1424.2374	1475.6993	1487.4006	1493.687	1504.2051	1824.347	3019.2975	3024.7138	3047.1517	3085.3989	3091.4962	3102.7128	3135.8978	3193.0421	3229.9486	3792.9998
CC12CC1C(=O)C(O)C2	C[C@]12C[C@H]1C(=O)[C@@H](O)C2	
InChI=1S/C7H10O2/c1-7-2-4(7)6(9)5(8)3-7/h4-5,8H,2-3H2,1H3	InChI=1S/C7H10O2/c1-7-2-4(7)6(9)5(8)3-7/h4-5,8H,2-3H2,1H3/t4-,5-,7+/m0/s1
