16
gdb 10701	2.6067	2.05165	1.37684	1.609	61.22	-0.2612	-0.0436	0.2176	913.7533	0.127694	-420.862608	-420.854197	-420.853252	-420.8954	30.528	
C	-0.0614275699	 1.4997745597	 0.1357418232	-0.421474
C	-0.0907699587	-0.0070328165	-0.1309795126	 0.049384
O	 0.8078162318	-0.7024727674	 0.7178525623	-0.430779
C	-1.4997406301	-0.579573676	 0.0136097064	 0.278953
C	-1.702174615	-1.9546112946	 0.5210276356	-0.221588
O	-1.9182672109	-0.8301071221	 1.3686488167	-0.277787
C	-2.5978424812	-0.0502582815	-0.8559150056	 0.120862
O	-2.4218115758	 0.5942987472	-1.8584873464	-0.259141
H	 0.9702599658	 1.8556903671	 0.085081685	 0.128224
H	-0.6593719846	 2.0400364826	-0.6015299842	 0.145099
H	-0.4556589065	 1.7210049955	 1.1344106296	 0.118502
H	 0.2491982475	-0.2045211037	-1.1528133538	 0.113669
H	 0.4878741139	-0.5738951345	 1.619833702	 0.288205
H	-2.5991977904	-2.5092387135	 0.2500869012	 0.125917
H	-0.8103852148	-2.5374648691	 0.7322068781	 0.147414
H	-3.6136164211	-0.3206444331	-0.4908995976	 0.094542
74.421	138.0502	188.8131	219.5039	269.8025	284.2154	352.2428	403.8445	415.7721	463.3307	520.1229	635.8613	703.6689	849.3811	889.8878	907.3368	963.6009	1021.6908	1059.372	1091.2662	1131.0336	1140.4481	1168.9162	1251.0918	1315.1317	1334.962	1352.6268	1400.2645	1418.4266	1426.6618	1494.3992	1502.2616	1504.6726	1822.2694	2892.8443	3038.523	3068.2848	3097.8466	3115.8378	3139.9979	3203.7066	3778.8771
CC(O)C1(CO1)C=O	C[C@@H](O)[C@]1(CO1)C=O	
InChI=1S/C5H8O3/c1-4(7)5(2-6)3-8-5/h2,4,7H,3H2,1H3	InChI=1S/C5H8O3/c1-4(7)5(2-6)3-8-5/h2,4,7H,3H2,1H3/t4-,5-/m1/s1
