19
gdb 106396	3.40149	1.44623	1.27773	2.1157	73.81	-0.2592	0.0779	0.337	1037.5672	0.160718	-422.977123	-422.969782	-422.968838	-423.008668	30.262	
O	 0.0660913687	 1.3776746664	-0.1353865202	-0.4185
C	 0.0262534451	-0.025380508	 0.0367824334	-0.172166
C	-1.3865172306	-0.5387786805	 0.1151681741	 0.375977
C	-2.4965458613	 0.0775019887	 1.0176239135	-0.254653
C	-3.3211933581	-0.4629123053	-0.1772448357	 0.048191
O	-2.1948696345	-0.127403605	-1.0447399439	-0.332801
C	-3.1855265402	-1.994494348	-0.0178250573	-0.05217
C	-2.2943436894	-2.693447359	-1.0122466838	-0.295422
C	-1.6845088902	-2.0537981593	 0.2101299621	-0.109691
H	-0.5595547399	 1.5746078057	-0.8431852189	 0.291476
H	 0.5479357639	-0.5509436934	-0.7799989836	 0.09859
H	 0.5564158655	-0.2541417098	 0.9679975765	 0.112241
H	-2.6620824366	-0.3555908593	 2.0074311144	 0.093196
H	-2.4456043439	 1.1664567869	 1.0485989244	 0.1122
H	-4.2707304357	-0.0379108311	-0.5017949809	 0.082974
H	-3.9009728567	-2.5412315715	 0.5839125568	 0.091841
H	-2.3373095797	-3.7776347776	-1.007626115	 0.108638
H	-2.1298626576	-2.2415330567	-1.9821067545	 0.129732
H	-1.2229604384	-2.645878333	 0.9908033285	 0.090347
113.1674	171.2288	260.1436	354.8327	391.6555	408.7795	457.898	516.9215	624.9602	670.5847	707.7066	785.5106	806.6873	816.3182	821.4405	873.3559	924.8735	932.7137	971.9537	989.6424	1010.5597	1058.4267	1068.6678	1075.352	1091.0076	1099.2464	1111.0515	1144.2483	1182.6175	1201.1795	1225.4316	1243.1122	1269.5229	1301.1849	1312.7487	1360.1203	1379.2449	1442.9126	1463.0694	1490.6838	1492.7838	2974.1464	3067.51	3069.5639	3124.197	3140.9095	3147.8836	3184.4441	3193.3284	3232.8722	3788.6006
OCC12CC(O1)C1CC21	OC[C@@]12C[C@@H](O1)[C@H]1C[C@@H]21	
InChI=1S/C7H10O2/c8-3-7-2-6(9-7)4-1-5(4)7/h4-6,8H,1-3H2	InChI=1S/C7H10O2/c8-3-7-2-6(9-7)4-1-5(4)7/h4-6,8H,1-3H2/t4-,5+,6+,7+/m0/s1
