21
gdb 55134	3.37747	1.25368	1.12074	2.5261	82.13	-0.2375	-0.0077	0.2298	1180.207	0.183676	-387.105298	-387.096992	-387.096048	-387.138734	32.142	
C	 0.2503514874	 1.4683174186	-0.0893811313	-0.477662
C	-0.0963291831	-0.0018897827	 0.0823999142	 0.3591
O	-0.3785020857	-0.4644471775	 1.1655734768	-0.303016
C	-0.074599971	-0.8413824911	-1.1847792892	-0.069653
C	 1.3826125564	-1.2190687359	-1.666043876	-0.23768
C	 1.2199679496	-2.7501828111	-1.7290909448	-0.009742
C	-0.1798803514	-2.9079976176	-2.3901803827	-0.235496
C	-0.6583791498	-2.2623407986	-1.0558859757	-0.015787
C	 0.5009798675	-3.0538791828	-0.3838426116	-0.215999
H	 1.1693570782	 1.5919207374	-0.6720981931	 0.136644
H	-0.5486607808	 1.969635419	-0.6488215986	 0.140066
H	 0.3572301824	 1.9437600873	 0.886327445	 0.139898
H	-0.5841362718	-0.2705604393	-1.9706516242	 0.076923
H	 1.627711095	-0.7733682408	-2.6339679774	 0.099052
H	 2.1535191159	-0.9179433006	-0.9494654201	 0.103811
H	 2.0867022695	-3.3204534577	-2.0650172515	 0.059425
H	-0.3762674685	-2.3754413703	-3.3268387857	 0.082755
H	-0.4853073211	-3.9528503434	-2.4807307887	 0.097399
H	-1.6869517642	-2.3388511896	-0.7061240889	 0.067023
H	 0.2614718485	-4.1137763665	-0.2720499982	 0.094205
H	 0.923783717	-2.659936867	 0.5413153717	 0.108735
48.3571	114.8913	152.5088	175.5683	320.5777	339.3588	411.4524	507.5407	567.7636	597.2287	668.6497	783.7292	829.9598	835.7114	853.4257	865.2253	923.8565	933.2589	948.4364	970.3129	982.0661	1005.1897	1036.6813	1053.2576	1074.2485	1093.7116	1103.8426	1117.4004	1166.1852	1193.0232	1220.7258	1240.836	1243.4962	1268.8443	1287.9463	1301.101	1330.6215	1366.8718	1384.5931	1463.7059	1475.6404	1489.3849	1495.6715	1527.7422	1802.7456	3026.964	3036.0377	3042.4794	3047.9197	3073.088	3093.3389	3096.4541	3107.2039	3112.7335	3127.122	3136.7294	3151.0398
CC(=O)C1CC2CC1C2	CC(=O)[C@H]1C[C@@H]2C[C@H]1C2	
InChI=1S/C8H12O/c1-5(9)8-4-6-2-7(8)3-6/h6-8H,2-4H2,1H3	InChI=1S/C8H12O/c1-5(9)8-4-6-2-7(8)3-6/h6-8H,2-4H2,1H3/t6-,7+,8-/m1/s1
