17
gdb 125232	3.18942	1.35153	0.96052	5.2798	80.55	-0.2198	-0.0292	0.1905	1206.8393	0.136382	-418.057155	-418.048505	-418.047561	-418.090528	31.841	
C	 0.0255910942	 1.5255069824	 0.0264016813	-0.493956
C	-0.0489395267	 0.0254033948	 0.0036915536	 0.430749
C	-1.1888044835	-0.6983702472	-0.1720606975	-0.345458
C	-1.1482422415	-2.1444737982	-0.1766270674	 0.333452
O	-2.1199346649	-2.8798505918	-0.32834028	-0.390014
C	 0.2158478214	-2.7017628654	 0.0215738575	 0.21618
C	 0.363665468	-4.1909797143	 0.033409031	-0.455294
N	 1.2823710632	-1.9765216506	 0.1862911333	-0.247612
N	 1.1284073781	-0.63694823	 0.1751745711	-0.292995
H	 0.6811752495	 1.9009890991	-0.7674820749	 0.145415
H	-0.9662664792	 1.9548791457	-0.1184003862	 0.154216
H	 0.4199202156	 1.8873448117	 0.9826241574	 0.145519
H	-2.1416529743	-0.2022702272	-0.3107325578	 0.111537
H	-0.0067693674	-4.6120750503	-0.9068838172	 0.145463
H	 1.4062977166	-4.4739728128	 0.1842540667	 0.1259
H	-0.2597397579	-4.6238484839	 0.8226031589	 0.145391
H	 1.9894617489	-0.1304291919	 0.3046799802	 0.271507
93.2868	112.2106	138.8324	183.5039	279.8598	311.5124	340.3061	445.5166	466.6546	512.4667	536.2239	569.6796	616.2928	713.7935	761.7128	781.3927	884.0274	951.9059	1021.7465	1051.866	1054.2996	1064.3162	1159.5703	1164.6397	1241.1643	1339.5862	1393.4131	1409.1003	1418.3775	1464.2395	1465.8337	1476.7507	1481.2707	1529.6782	1636.4107	1650.8767	1725.2844	3035.4596	3045.1329	3090.2406	3099.0256	3147.1684	3148.5751	3209.4078	3642.1094
CC1=CC(=O)C(C)=NN1	Cc1cc(=O)c(C)n[nH]1	
InChI=1S/C6H8N2O/c1-4-3-6(9)5(2)8-7-4/h3H,1-2H3,(H,7,9)	InChI=1S/C6H8N2O/c1-4-3-6(9)5(2)8-7-4/h3H,1-2H3,(H,7,9)
