21
gdb 75155	2.547	1.19486	1.10489	2.6121	84.84	-0.2333	-0.0173	0.216	1259.6151	0.180872	-387.127862	-387.118356	-387.117412	-387.162373	35.461	
C	-0.4930781087	 1.4365088019	 0.1180784166	-0.493119
C	-0.0736936172	 0.0066640976	-0.0153734352	 0.34101
C	-0.1699026515	-0.7739059904	-1.09287866	-0.158461
C	 0.3844296451	-2.1574922141	-0.8753186065	-0.307746
C	 0.6346977791	-2.2181526339	 0.6539986066	 0.216851
C	 1.9480111291	-2.9142324201	 1.0501108118	-0.458663
C	 0.580202435	-0.7321546798	 1.1330609461	-0.361635
C	-0.4947449095	-2.9652635346	 1.3587360776	 0.141782
O	-1.3984697777	-3.5572382263	 0.8306504668	-0.251151
H	 0.3579430536	 2.0777799694	 0.3825167483	 0.122938
H	-0.9272171826	 1.8164447462	-0.8106216309	 0.125196
H	-1.2350393191	 1.561378584	 0.9172568183	 0.125161
H	-0.5838056617	-0.4579441702	-2.0450356345	 0.086032
H	-0.3089190906	-2.9469132071	-1.1831463846	 0.128701
H	 1.3159717218	-2.3093185742	-1.4374713061	 0.096254
H	 2.8023612117	-2.3633834349	 0.6447163996	 0.125161
H	 2.0659918593	-2.9594550484	 2.1389299825	 0.118292
H	 1.9891098623	-3.9380922272	 0.6640711524	 0.128217
H	 1.5891090305	-0.3429551348	 1.3320579163	 0.103192
H	 0.0281066358	-0.6177522441	 2.0773466842	 0.098445
H	-0.4130155747	-2.927995699	 2.4720525308	 0.073542
51.3868	82.8365	170.3565	213.8212	236.6791	262.5954	302.4138	324.1458	363.8941	401.2251	438.1373	520.5421	631.4875	646.6326	803.2621	818.2218	880.2107	887.584	923.2096	950.8125	974.008	994.1826	1016.4064	1038.1333	1054.5005	1126.7395	1157.5257	1165.807	1192.381	1222.6735	1289.1519	1293.3869	1332.7616	1348.9365	1404.0114	1415.6435	1424.8683	1479.0664	1479.9847	1488.8657	1490.8213	1495.5009	1499.9262	1730.2393	1833.1859	2840.089	2994.9328	3012.1411	3015.1588	3018.2218	3027.243	3059.2386	3073.7975	3094.5055	3105.1906	3110.827	3184.1767
CC1=CCC(C)(C1)C=O	CC1=CC[C@@](C)(C1)C=O	
InChI=1S/C8H12O/c1-7-3-4-8(2,5-7)6-9/h3,6H,4-5H2,1-2H3	InChI=1S/C8H12O/c1-7-3-4-8(2,5-7)6-9/h3,6H,4-5H2,1-2H3/t8-/m0/s1
