18
gdb 91050	2.12135	1.94147	1.606	2.6059	70.24	-0.224	0.0589	0.2829	941.532	0.148129	-439.007713	-439.000122	-438.999178	-439.039185	31.158	
O	 0.1054679347	 1.4282400459	-0.1463297007	-0.439798
C	 0.020643004	 0.0401976668	-0.0008670054	 0.058445
C	 0.2926240068	-0.5954665593	 1.410684295	-0.276669
C	-1.1103170905	-1.2599754048	 1.3835884539	-0.07716
C	-2.2961216109	-0.4385617171	 1.9460945055	-0.054849
N	-2.0195602741	 1.0038374236	 1.7019731002	-0.359581
C	-2.5780144147	 0.1630675815	 0.6135794077	-0.135156
C	-1.3972767085	-0.6356124081	-0.0135819104	 0.390084
O	-1.7409243374	-1.477241708	-1.0725760945	-0.488098
H	-0.4466378951	 1.7848482417	 0.5665564243	 0.292236
H	 0.6478195269	-0.4066702089	-0.7789684857	 0.085567
H	 1.1189740392	-1.3096251741	 1.4209572216	 0.100336
H	 0.4433975468	 0.1419938942	 2.200553388	 0.108028
H	-1.1941840099	-2.3368070025	 1.5200936658	 0.082089
H	-2.9719772029	-0.7203505789	 2.7442943061	 0.097536
H	-2.7877175771	 1.5357999563	 2.1077706286	 0.237587
H	-3.5150345281	 0.4183096327	 0.1323193228	 0.096887
H	-1.7922990493	-0.940926371	-1.8728054827	 0.282517
160.233	223.5457	244.888	280.2302	331.4769	341.4626	440.2096	502.8034	551.2166	611.9405	656.1506	680.6372	767.2565	794.3915	817.6001	830.5325	890.4769	925.6362	975.5073	987.2843	1000.4848	1035.6624	1071.5702	1086.2022	1104.0954	1118.9873	1132.6457	1158.9032	1190.9243	1232.7031	1246.6959	1273.6713	1312.1343	1317.1049	1331.2678	1342.5343	1394.6459	1464.5954	1465.6155	3059.3701	3072.266	3128.2038	3136.38	3176.995	3191.1128	3483.7312	3695.8107	3783.1461
OC1CC2C3NC3C12O	O[C@H]1C[C@H]2[C@H]3N[C@H]3[C@@]12O	
InChI=1S/C6H9NO2/c8-3-1-2-4-5(7-4)6(2,3)9/h2-5,7-9H,1H2	InChI=1S/C6H9NO2/c8-3-1-2-4-5(7-4)6(2,3)9/h2-5,7-9H,1H2/t2-,3-,4+,5+,6-/m0/s1
