22
gdb 58045	2.05923	1.31147	0.99644	1.2059	88.62	-0.2372	0.045	0.2822	1330.5973	0.191306	-367.150122	-367.139762	-367.138817	-367.18528	38.572	
C	-0.1622552781	 1.4965372349	 0.0015664665	-0.38803
C	 0.0779016551	-0.0158168435	 0.0555415509	 0.029334
C	 0.7014874758	-0.5421469563	-1.241884945	-0.40162
C	 0.9256507096	-0.4305053591	 1.2879452713	-0.172583
C	 2.2507722784	 0.1936857656	 1.2968402817	 0.38467
C	 3.3446146155	 0.6919436828	 1.3002155504	-0.468498
N	 0.2090066613	-0.0858742928	 2.5246326816	-0.059111
C	-0.6996911026	-1.1086008854	 3.0371157516	-0.226033
C	 0.5932342846	-0.8270996174	 3.7192777745	-0.216091
H	 0.7777220598	 2.0336853158	-0.1617153498	 0.122721
H	-0.841957048	 1.7468722598	-0.8192146385	 0.103272
H	-0.5971708957	 1.8541974733	 0.9375464591	 0.131322
H	-0.890843615	-0.5137350345	 0.1972392741	 0.075567
H	 1.6861672661	-0.0947416535	-1.412186129	 0.128309
H	 0.8268412339	-1.630417736	-1.217899987	 0.106608
H	 0.0677171139	-0.2972882342	-2.0998723393	 0.112288
H	 1.0784668657	-1.5258431525	 1.226641479	 0.077696
H	 4.3101129146	 1.1341201613	 1.3077112871	 0.19579
H	-1.6370228987	-0.7449271375	 3.4476951447	 0.118711
H	-0.7768974271	-2.0463879387	 2.4881116261	 0.110447
H	 1.3790202528	-1.5743796883	 3.6236291275	 0.115909
H	 0.6223948681	-0.2531599439	 4.6406839723	 0.119323
78.5337	82.835	139.9367	168.1453	174.5486	217.1384	242.3826	304.3385	343.0178	371.0698	393.1482	459.5802	528.1805	613.5175	623.8092	654.0102	772.5299	823.1545	874.0245	904.7836	927.7935	936.9604	970.3047	984.7764	1027.7596	1049.0578	1113.2924	1113.5489	1119.1069	1152.4598	1175.0511	1192.0223	1207.9149	1302.7159	1311.5761	1323.7799	1362.991	1383.8284	1399.973	1421.0091	1486.9859	1490.7267	1492.7998	1501.669	1514.579	1517.6949	2234.6071	2899.4737	3014.5398	3030.5015	3040.5605	3092.3253	3096.7204	3100.1705	3103.5063	3108.9923	3128.9125	3178.373	3192.997	3502.9534
CC(C)C(C#C)N1CC1	CC(C)[C@@H](C#C)N1CC1	
InChI=1S/C8H13N/c1-4-8(7(2)3)9-5-6-9/h1,7-8H,5-6H2,2-3H3	InChI=1S/C8H13N/c1-4-8(7(2)3)9-5-6-9/h1,7-8H,5-6H2,2-3H3/t8-/m1/s1
