20
gdb 133861	3.56693	1.44238	1.26292	1.569	79.94	-0.2228	0.0828	0.3056	1060.6837	0.172342	-403.0387	-403.031118	-403.030174	-403.070528	30.511	
C	 0.9583635118	 0.2044895753	 0.618024648	-0.33759
N	 2.2446875241	-0.3548929313	 0.2105416664	-0.166132
C	 2.4022130041	-0.8855120087	-1.2344132507	-0.058957
C	 2.4011795272	 0.5505237259	-1.7924125649	-0.289402
C	 3.2606045455	 0.5332796572	-0.488256167	 0.318803
C	 4.3998242391	 1.460581981	-0.1640484385	-0.195023
O	 5.3791204646	 1.0877375591	-1.156049534	-0.287598
C	 5.0861830946	-0.2002128486	-1.7763617151	-0.120926
C	 3.9359309262	-0.7660478495	-0.9622118333	-0.012827
H	 0.2721252655	-0.6253753434	 0.8157701545	 0.123311
H	 0.4668438745	 0.8888960721	-0.0892326705	 0.099544
H	 1.1033865027	 0.7429949143	 1.5601293442	 0.124835
H	 1.8343384993	-1.7582200295	-1.5629379271	 0.081465
H	 1.4617086232	 1.1003203531	-1.7600575383	 0.101026
H	 2.9096693668	 0.7305015614	-2.7404459087	 0.109072
H	 4.7824385104	 1.2879390101	 0.8519298184	 0.104523
H	 4.1876287531	 2.5266055059	-0.2925233113	 0.106111
H	 5.9858165819	-0.8191228649	-1.7041731942	 0.105019
H	 4.871260301	-0.0358379961	-2.8378277294	 0.103815
H	 4.2603776842	-1.3976758333	-0.1339328783	 0.090929
107.3139	176.1029	210.8979	267.3636	319.6397	418.0456	477.0875	506.8513	588.898	634.7734	705.2393	747.8957	818.8959	844.4762	865.3539	897.1033	902.3282	941.4818	1000.3578	1017.9035	1041.6445	1075.392	1086.0097	1112.2854	1142.8978	1156.632	1162.9994	1173.2755	1190.8004	1197.9424	1214.0481	1216.7696	1259.6168	1291.0633	1345.6807	1366.6763	1389.5256	1440.4935	1483.1034	1498.6175	1512.1171	1518.9994	1546.0431	2988.3915	3002.9794	3035.8223	3066.9585	3072.2245	3073.8283	3086.4259	3098.3627	3100.4069	3106.9285	3146.2988
CN1C2CC11COCC21	CN1[C@H]2C[C@]31COC[C@H]23	
InChI=1S/C7H11NO/c1-8-6-2-7(8)4-9-3-5(6)7/h5-6H,2-4H2,1H3	InChI=1S/C7H11NO/c1-8-6-2-7(8)4-9-3-5(6)7/h5-6H,2-4H2,1H3/t5-,6+,7+/m1/s1
