19
gdb 108892	3.09184	0.97667	0.78113	2.3326	84.82	-0.2328	0.0255	0.2583	1457.8598	0.158111	-385.863798	-385.854435	-385.853491	-385.89828	34.553	
O	 0.0893621414	 1.3825605694	 0.2504013779	-0.412363
C	 0.0684192294	 0.0162893565	-0.1178886791	-0.176015
C	-1.3272011531	-0.5109447133	-0.0502278076	 0.303532
C	-2.4182860933	 0.156493405	 0.3197574785	-0.156775
C	-3.6743653871	-0.6946916409	 0.2030806707	-0.193662
C	-3.0894013046	-2.1335909534	 0.0509334756	-0.220142
C	-1.6498197375	-1.928603348	-0.4734525595	-0.316102
C	-4.6088406053	-0.554121948	 1.3149637115	 0.317287
C	-5.3752608478	-0.442602559	 2.2347713912	-0.469778
H	 1.002955583	 1.6809485346	 0.2424485622	 0.289984
H	 0.4600339549	-0.1323369422	-1.1408602289	 0.093829
H	 0.7128083753	-0.5898501995	 0.544313699	 0.096187
H	-2.4434157902	 1.1923395366	 0.6294290114	 0.117181
H	-4.2093900389	-0.4140324888	-0.7181588295	 0.106272
H	-3.0598995783	-2.60033182	 1.0389045731	 0.118419
H	-3.7026117362	-2.7650126531	-0.5959041684	 0.103861
H	-1.5954933096	-2.0246880039	-1.5677200882	 0.105502
H	-0.9490849663	-2.6676656115	-0.066525277	 0.101738
H	-6.051845426	-0.3399693605	 3.0463749471	 0.191047
81.7977	85.9543	134.6702	164.186	213.3659	225.7374	276.0748	418.4259	429.742	501.4246	514.6322	591.305	615.8987	629.5444	666.4357	835.9508	852.8066	872.812	921.4652	971.521	1005.2382	1021.801	1038.825	1077.7415	1086.8092	1153.2898	1176.6687	1213.4105	1231.4726	1255.2876	1271.9484	1285.7077	1298.524	1338.6787	1360.2245	1466.1516	1485.1392	1499.7116	1507.5906	1727.5087	2234.2278	2935.0092	2947.0101	2971.4344	3001.9349	3044.0003	3069.5683	3116.0135	3233.2226	3505.9194	3839.0494
OCC1=CC(CC1)C#C	OCC1=C[C@@H](CC1)C#C	
InChI=1S/C8H10O/c1-2-7-3-4-8(5-7)6-9/h1,5,7,9H,3-4,6H2	InChI=1S/C8H10O/c1-2-7-3-4-8(5-7)6-9/h1,5,7,9H,3-4,6H2/t7-/m1/s1
