17
gdb 62100	3.02156	0.96241	0.78444	2.3032	67.61	-0.2658	0.0027	0.2684	1412.7552	0.134962	-492.310088	-492.300536	-492.299592	-492.34577	33.958	
N	-1.2166754756	 1.0072215645	-0.1250973038	-0.517722
C	-0.469783985	-0.1161558255	-0.1023587321	 0.37631
O	 0.6751172635	-0.1918191781	-0.5237748247	-0.38207
C	-1.1360717496	-1.3877404083	 0.4656420669	 0.031338
O	-0.1914650034	-2.4173237634	 0.4754475534	-0.433642
C	-1.6702140301	-1.2020863741	 1.895434322	-0.125293
O	-2.7677112894	-0.2861927594	 1.9225038777	-0.194268
C	-4.0190839274	-0.7993583095	 1.8877218012	 0.130133
N	-4.994726086	-0.0383945094	 1.6506753039	-0.44295
H	-0.7829814684	 1.8598292387	-0.4412622212	 0.267095
H	-2.0914467415	 1.0511160869	 0.3760765603	 0.289544
H	-1.990416126	-1.6393233178	-0.186160742	 0.097464
H	 0.5949049728	-2.0220026375	 0.0543384329	 0.298798
H	-1.9690299423	-2.1807196042	 2.2876640801	 0.129581
H	-0.8944500504	-0.7911784805	 2.546128328	 0.134706
H	-4.0515185741	-1.8764339835	 2.0994030097	 0.103569
H	-5.8679470971	-0.5589924088	 1.6961423877	 0.237406
41.4722	66.0013	89.8395	129.8319	225.7624	319.8087	329.9435	360.7441	391.4559	431.9615	483.3294	554.9875	599.8392	643.1042	671.2082	734.0245	786.2398	825.5207	962.6489	1034.6218	1042.258	1087.2259	1120.3264	1129.6386	1158.1696	1219.6729	1284.1974	1321.4747	1335.1694	1357.339	1400.4742	1420.7717	1470.7266	1500.7889	1625.0898	1745.5553	1783.7428	2960.1689	3033.4428	3047.2032	3113.6058	3524.6999	3569.7494	3601.177	3706.3139
NC(=O)C(O)COC=N	NC(=O)[C@@H](O)CO[CH][NH]	
InChI=1S/C4H8N2O3/c5-2-9-1-3(7)4(6)8/h2-3,5,7H,1H2,(H2,6,8)	InChI=1S/C4H8N2O3/c5-2-9-1-3(7)4(6)8/h2-3,5,7H,1H2,(H2,6,8)/t3-/m0/s1
