19
gdb 81505	3.52927	1.2708	1.05163	2.1116	82.84	-0.2436	0.0436	0.2872	1186.997	0.156286	-385.785298	-385.776332	-385.775388	-385.818283	34.816	
C	-0.2170324023	 1.5537062972	 0.7907867043	-0.436339
C	-0.1313627486	 0.0676429772	 0.4940202254	 0.016163
C	 1.056413682	-0.4526500972	-0.3645140252	 0.005361
O	 1.9664951612	-0.1358691344	 0.7565247752	-0.298423
C	 0.8043995993	-0.8134845176	 1.3695148158	 0.005417
C	 0.8897199456	-1.8981445645	 0.2333593835	 0.130267
C	-0.3004808103	-2.7929996216	-0.1257252894	-0.493832
C	 2.1142349413	-2.6863188665	 0.2474413741	 0.28988
C	 3.0678028423	-3.4185803761	 0.2337886644	-0.43876
H	 0.7696757694	 1.9600137075	 1.0187076262	 0.141202
H	-0.6302909303	 2.0954112916	-0.0669337889	 0.115917
H	-0.8788532485	 1.7394765746	 1.6436606507	 0.115918
H	-1.1123538174	-0.3515115955	 0.264279439	 0.07071
H	 1.3776510807	-0.1699372552	-1.3682288281	 0.097313
H	 0.8227552709	-0.9645073689	 2.4499878722	 0.097313
H	-1.2512349563	-2.2592150508	-0.1551261013	 0.122741
H	-0.1354342283	-3.2515492306	-1.1051215911	 0.135395
H	-0.3860742834	-3.6039635375	 0.6035021983	 0.135365
H	 3.9305735525	-4.0374472814	 0.2305087148	 0.188392
127.8172	148.6172	166.8914	213.8755	250.9923	256.5905	311.5126	358.875	474.8694	493.2993	530.8043	629.4168	631.3003	634.6385	713.3917	747.3274	775.8033	806.8778	871.3835	889.9876	931.5593	1025.3196	1054.2658	1081.4708	1106.9632	1109.4173	1126.1376	1147.4437	1185.557	1207.3298	1218.0232	1272.6503	1281.4196	1392.1056	1403.7474	1420.44	1487.7048	1492.5373	1499.1881	1506.3747	2232.6309	3036.8026	3049.2422	3090.2579	3092.5839	3106.4704	3112.7429	3113.342	3137.0741	3142.6055	3503.8886
CC1C2OC1C2(C)C#C	C[C@H]1[C@H]2O[C@@H]1[C@]2(C)C#C	
InChI=1S/C8H10O/c1-4-8(3)6-5(2)7(8)9-6/h1,5-7H,2-3H3	InChI=1S/C8H10O/c1-4-8(3)6-5(2)7(8)9-6/h1,5-7H,2-3H3/t5-,6+,7-,8+
