17
gdb 109335	1.95518	1.8851	0.97734	2.8689	73.08	-0.2346	-0.0057	0.2288	1176.793	0.136523	-455.179525	-455.170585	-455.169641	-455.214886	30.503	
C	-0.0141830644	 1.4144469478	 0.0079486777	-0.233824
O	-0.0340380099	-0.0180262717	 0.0031514834	-0.229758
C	-1.2375863516	-0.5645989922	 0.0108199993	 0.528166
N	-2.3535450411	 0.0508366843	 0.0220889183	-0.373239
C	-3.4134646403	-0.959053775	 0.0265694414	-0.174742
C	-2.7112104102	-2.3510867485	 0.0171927919	-0.200774
N	-1.2904797098	-1.9719804608	 0.0060823377	-0.162147
C	-0.2616237714	-2.8884745251	-0.0071565883	 0.14534
O	 0.9200462856	-2.6512543392	-0.0176957112	-0.294218
H	 1.0404401788	 1.6886536849	 0.0003768598	 0.14058
H	-0.5237846963	 1.8076830827	-0.8755228206	 0.142445
H	-0.5094205796	 1.8015326423	 0.9022397972	 0.14244
H	-4.0470884291	-0.8350022916	 0.9113412874	 0.11852
H	-4.059687094	-0.8294620972	-0.8482709883	 0.118505
H	-2.9476048841	-2.9463550983	 0.9044084819	 0.127635
H	-2.9626670862	-2.9421943855	-0.8686357998	 0.127653
H	-0.6706245464	-3.9196711569	-0.0084136279	 0.077419
18.7629	110.2612	141.2423	166.9584	178.6197	230.4075	272.8171	290.3442	450.1659	518.5632	708.8596	729.4594	774.6075	838.6023	839.4979	955.8495	1024.5076	1029.3044	1067.3155	1114.617	1181.9147	1183.5812	1222.3926	1223.8815	1252.1713	1302.516	1321.6283	1364.5141	1407.1219	1457.3428	1479.577	1484.2787	1499.3044	1510.8453	1531.5476	1725.167	1824.3665	2921.8031	3036.0249	3046.6291	3050.8467	3060.2838	3089.3371	3125.6196	3163.2375
COC1=NCCN1C=O	COC1=NCCN1C=O	
InChI=1S/C5H8N2O2/c1-9-5-6-2-3-7(5)4-8/h4H,2-3H2,1H3	InChI=1S/C5H8N2O2/c1-9-5-6-2-3-7(5)4-8/h4H,2-3H2,1H3
