14
gdb 133578	2.64978	1.33662	1.11255	2.1746	60.69	-0.2579	0.0365	0.2945	1071.629	0.096032	-531.012624	-531.004302	-531.003358	-531.046172	30.646	
F	 0.2038522569	 0.1324992514	-0.0680654874	-0.075884
C	-0.0545177128	 1.4457290281	-0.0288252804	 0.286852
F	 1.0896899463	 2.0948126802	-0.2886834942	-0.074654
F	-0.9005359416	 1.7193281828	-1.0389878893	-0.080295
C	-0.6500659583	 1.8822929824	 1.2787594935	-0.178262
C	-1.4335023282	 0.916623685	 2.1172835929	-0.302392
C	-0.0859044017	 1.4137103749	 2.6122219286	-0.193729
C	 1.0425366978	 0.533895687	 2.7096675464	 0.343088
C	 1.9964071619	-0.1860303374	 2.836224982	-0.459672
H	-0.9821273029	 2.9137470961	 1.2386057212	 0.125022
H	-2.3247263838	 1.2774038712	 2.6163278362	 0.13071
H	-1.4736249964	-0.1106618176	 1.7776482852	 0.15051
H	-0.1245786403	 2.1724069183	 3.3888495558	 0.12701
H	 2.837796843	-0.8268659224	 2.9293869896	 0.201697
52.7426	108.3653	174.9988	224.5226	256.164	353.8601	404.9662	513.3289	524.549	527.5511	606.5185	609.8139	659.217	697.6921	770.3132	790.5604	853.3829	940.5402	1021.6544	1037.6708	1084.2213	1129.6541	1143.459	1173.4533	1194.8651	1213.3507	1295.5837	1386.1634	1435.5143	1488.9536	2245.1954	3146.1516	3153.7228	3180.3068	3249.3713	3504.8357
FC(F)(F)C1CC1C#C	FC(F)(F)[C@H]1C[C@H]1C#C	
InChI=1S/C6H5F3/c1-2-4-3-5(4)6(7,8)9/h1,4-5H,3H2	InChI=1S/C6H5F3/c1-2-4-3-5(4)6(7,8)9/h1,4-5H,3H2/t4-,5+/m1/s1
