18
gdb 54970	3.30498	1.04398	0.9606	4.33	75.02	-0.2532	-0.035	0.2182	1285.4601	0.143717	-439.103661	-439.093692	-439.092748	-439.13907	34.785	
C	-0.1046901503	 1.395364594	-0.1424999833	-0.478586
C	 0.0032474724	-0.114872863	-0.061651327	 0.380717
O	 0.9668141192	-0.7448914155	-0.4312046195	-0.330577
N	-1.0849705415	-0.7324172225	 0.5613579508	-0.109593
C	-2.4794635756	-0.6445812694	 0.2313490572	-0.292844
C	-1.7240145146	-1.9644318249	 0.1324530922	 0.192358
C	-1.4338572021	-2.5767767036	-1.2175767096	-0.463358
C	-1.9582317703	-2.9207475955	 1.2671045615	 0.140199
O	-2.1154280091	-4.1054864331	 1.130078219	-0.249499
H	 0.8769447601	 1.8098257655	-0.3709560882	 0.153058
H	-0.8019767513	 1.6801510685	-0.9385401151	 0.141215
H	-0.4852477109	 1.8138641871	 0.7930099173	 0.144952
H	-3.1637196022	-0.4569074643	 1.0561654288	 0.13151
H	-2.7680129364	-0.1988797575	-0.7184586781	 0.136289
H	-1.4582008534	-1.8237839197	-2.0086204902	 0.117972
H	-0.4441950012	-3.0382503722	-1.2203818272	 0.161207
H	-2.1764863873	-3.3486049445	-1.4322681897	 0.141599
H	-1.9816278055	-2.4277969895	 2.2644974711	 0.08338
75.4677	81.5563	95.603	140.8482	156.197	194.7849	247.2944	318.374	362.0635	378.2425	431.8727	526.7461	597.5142	642.4455	684.248	782.3388	897.6708	904.1847	973.5294	1005.1112	1022.6493	1051.792	1094.0281	1110.6093	1124.9619	1133.8143	1243.3649	1312.0436	1380.5291	1396.7589	1409.8377	1433.5963	1467.8745	1477.3604	1478.48	1491.2193	1506.8284	1797.3824	1833.1679	2890.9878	3045.8256	3059.2751	3093.0117	3112.3002	3135.4478	3140.8132	3163.2964	3181.3363
CC(=O)N1CC1(C)C=O	CC(=O)N1C[C@]1(C)C=O	
InChI=1S/C6H9NO2/c1-5(9)7-3-6(7,2)4-8/h4H,3H2,1-2H3	InChI=1S/C6H9NO2/c1-5(9)7-3-6(7,2)4-8/h4H,3H2,1-2H3/t6-,7?/m1/s1
