15
gdb 44915	2.88687	1.82871	1.58149	3.5528	64.7	-0.2594	-0.0186	0.2408	875.434	0.115166	-457.810296	-457.803951	-457.803006	-457.840952	25.454	
O	-0.0192124371	 0.0088910946	 0.0166095617	-0.332656
C	 0.0144683158	 1.1997671187	-0.0100657198	 0.452045
O	-1.0936328199	 2.0019391588	-0.0091196635	-0.238458
C	-0.6372207366	 3.3692779175	-0.0501029753	 0.181282
C	-0.5249428929	 3.9308255727	 1.3716258251	-0.278244
C	 0.6756286506	 3.3438092635	 2.0746660955	-0.064409
C	 1.5035787551	 2.5097957142	 1.4445150939	-0.060654
C	 1.2062694167	 2.1758586246	-0.0020614865	-0.131948
O	 0.6337671858	 3.3111186537	-0.6552548456	-0.244059
H	-1.3170796766	 3.9330187235	-0.6905292058	 0.111825
H	-0.4464930376	 5.0243604186	 1.3219548436	 0.127864
H	-1.4479145444	 3.7061394506	 1.9199752008	 0.134117
H	 0.8407821428	 3.622622016	 3.1110442699	 0.108994
H	 2.3498065575	 2.039131876	 1.9312534674	 0.113322
H	 2.0590613909	 1.814609957	-0.5732248013	 0.120979
145.8213	209.9116	351.6844	411.6575	445.907	500.0671	568.271	667.7329	681.9996	739.5306	766.5652	854.5661	882.0532	902.8797	920.4077	950.225	976.7602	994.7523	1019.5587	1064.9168	1094.0304	1171.9513	1185.5483	1204.2881	1235.0144	1309.0068	1348.5222	1368.4855	1376.183	1406.1625	1457.502	1699.8652	1906.4405	3029.9902	3065.8725	3114.0542	3146.4615	3172.708	3204.5853
O=C1OC2CC=CC1O2	O=C1O[C@H]2CC=C[C@@H]1O2	
InChI=1S/C6H6O3/c7-6-4-2-1-3-5(8-4)9-6/h1-2,4-5H,3H2	InChI=1S/C6H6O3/c7-6-4-2-1-3-5(8-4)9-6/h1-2,4-5H,3H2/t4-,5-/m0/s1
