15
gdb 43901	2.93268	1.39436	1.11678	3.1924	72.46	-0.2423	-0.0433	0.199	1074.2384	0.110557	-420.564503	-420.556588	-420.555644	-420.597197	29.801	
O	 0.0006973211	 0.2005329719	-0.7337658489	-0.282104
C	 0.0092733372	 1.2680508173	-0.2007996652	 0.42572
C	-1.0924220734	 2.2018838866	 0.3428705725	-0.42071
C	 0.0043984361	 3.2586342358	 0.7021728118	 0.115291
C	 0.6564866296	 3.0005861828	 2.0812590272	-0.113432
O	 1.5519230492	 2.0049979856	 1.5355911594	-0.280365
C	 1.1249326947	 2.2656071054	 0.1848152226	-0.057209
C	-0.1783819777	 4.6083957958	 0.2487529685	 0.166439
C	-0.3339013518	 5.740670566	-0.1261091834	-0.384452
H	-1.763390845	 2.5345736947	-0.4541391836	 0.152735
H	-1.6924759918	 1.8203050853	 1.173218819	 0.138497
H	 1.2122624698	 3.8584645863	 2.4740815569	 0.122472
H	-0.0006833473	 2.5946499034	 2.8582575034	 0.114777
H	 1.9414977041	 2.5002339204	-0.5017624839	 0.105239
H	-0.4680532546	 6.7407369127	-0.4577352262	 0.197102
69.7423	145.7868	171.9302	215.2854	340.4756	415.5014	460.2565	494.2837	546.0294	564.1373	619.6691	628.4831	644.8775	773.1472	860.5877	876.6491	913.542	990.0028	1011.1795	1037.0844	1077.9804	1093.8468	1129.9213	1168.1079	1173.5715	1208.3462	1262.2688	1289.4903	1355.4181	1431.9669	1520.3231	1902.9659	2236.525	3031.3683	3064.323	3086.1325	3095.9808	3121.649	3500.1867
O=C1CC2(COC12)C#C	O=C1C[C@]2(CO[C@@H]12)C#C	
InChI=1S/C7H6O2/c1-2-7-3-5(8)6(7)9-4-7/h1,6H,3-4H2	InChI=1S/C7H6O2/c1-2-7-3-5(8)6(7)9-4-7/h1,6H,3-4H2/t6-,7-/m0/s1
