17
gdb 55239	3.5125	1.11193	0.89061	6.3547	69.26	-0.2405	0.0139	0.2544	1258.2957	0.13704	-455.22879	-455.219921	-455.218977	-455.263272	32.071	
N	-0.0433393299	 1.3004265513	-0.2545207769	-0.522974
C	 0.0434738798	 0.0066190862	 0.1582365049	 0.40035
O	 1.0627359316	-0.4827258151	 0.6036867894	-0.360009
C	-1.2654504493	-0.7871901932	 0.0658772308	-0.076678
C	-1.9336666723	-0.8219616658	-1.3375912173	-0.244949
C	-2.5606156741	-2.2238455013	-1.4004049572	-0.33216
C	-1.6776660543	-3.0668990686	-0.4677392131	 0.407895
O	-1.5764416986	-4.2718619611	-0.4452790024	-0.372003
N	-1.0334155672	-2.1810923879	 0.3553720698	-0.295599
H	 0.7821347454	 1.8751903188	-0.2109083591	 0.268984
H	-0.8794466835	 1.6829709221	-0.659929327	 0.264355
H	-1.9596958253	-0.3394785976	 0.7967368579	 0.103844
H	-2.6560967002	-0.0132259957	-1.4736070867	 0.103396
H	-1.1638555133	-0.7202733917	-2.1091019576	 0.125595
H	-3.5853709147	-2.2325021925	-1.0117958539	 0.130092
H	-2.5813651904	-2.6616656851	-2.3991619466	 0.134199
H	-0.2684648636	-2.4559552928	 0.9528316151	 0.265662
45.9414	81.0056	142.6849	156.3145	194.9142	323.3548	382.665	446.7827	496.218	540.0731	561.868	608.6763	638.5541	672.0751	740.042	827.3837	867.3012	917.5181	962.7794	1005.0056	1062.6519	1084.388	1141.4878	1168.7798	1221.7023	1263.4248	1292.1223	1304.1384	1330.9351	1348.8568	1396.7598	1424.8064	1471.0665	1500.6628	1619.7919	1800.039	1838.105	2955.8876	3052.9245	3053.8167	3101.7269	3129.5828	3603.7369	3636.6425	3738.4671
NC(=O)C1CCC(=O)N1	NC(=O)[C@H]1CCC(=O)N1	
InChI=1S/C5H8N2O2/c6-5(9)3-1-2-4(8)7-3/h3H,1-2H2,(H2,6,9)(H,7,8)	InChI=1S/C5H8N2O2/c6-5(9)3-1-2-4(8)7-3/h3H,1-2H2,(H2,6,9)(H,7,8)/t3-/m1/s1
