16
gdb 12424	3.29833	2.0707	1.4223	2.5311	73.41	-0.2281	-0.0307	0.1974	871.8401	0.131657	-346.636928	-346.629924	-346.62898	-346.668606	26.644	
O	 0.3058458173	 0.0467690853	-0.5574191764	-0.306806
C	 0.1021281203	 1.1698045305	-0.1687896201	 0.386735
C	-1.3067223013	 1.6318670991	 0.2194399316	-0.349174
C	-1.4936474224	 2.8358709397	 1.0999153547	-0.081443
C	-0.662717124	 3.3217182706	 2.0365069197	-0.079061
C	 0.6936886641	 2.8752121487	 2.3249290577	-0.065228
C	 1.548555469	 2.3782940684	 1.418427949	-0.084252
C	 1.2088009919	 2.2148252339	-0.0397389249	-0.346936
H	-1.8291627043	 1.8047901973	-0.7332253699	 0.139544
H	-1.8110040869	 0.7599056574	 0.6551089096	 0.151418
H	-2.4654090375	 3.3143351079	 0.9987416722	 0.096802
H	-1.0350481471	 4.1328408845	 2.6597244984	 0.093599
H	 1.0391046228	 3.0076266453	 3.3476587444	 0.095232
H	 2.5336097992	 2.0495871294	 1.7345354203	 0.105212
H	 2.0713779126	 1.8869017355	-0.6210569916	 0.121134
H	 0.8307773563	 3.1654510564	-0.4407125547	 0.123224
46.3438	157.859	318.5815	327.663	363.9715	468.117	487.9925	556.4209	629.2062	701.6395	761.9429	845.3546	851.0418	895.485	909.5193	960.8138	993.1062	997.5388	1012.2529	1050.4318	1131.949	1211.7168	1222.6617	1243.5595	1256.1754	1290.5925	1343.0245	1401.8413	1424.5178	1451.6695	1464.7184	1663.8474	1700.2017	1817.9055	3012.0336	3016.0138	3051.3396	3126.4453	3132.7228	3150.1249	3159.0641	3183.5049
O=C1CC=CC=CC1	O=C1CC=CC=CC1	
InChI=1S/C7H8O/c8-7-5-3-1-2-4-6-7/h1-4H,5-6H2	InChI=1S/C7H8O/c8-7-5-3-1-2-4-6-7/h1-4H,5-6H2
