18
gdb 15347	6.15152	0.91835	0.88702	2.0208	74.73	-0.2585	0.0515	0.31	1344.3132	0.151094	-347.753903	-347.744817	-347.743873	-347.78837	32.443	
C	 0.5789352557	 1.3998615207	 0.212957392	-0.377884
C	-0.2619889695	 0.1631991416	-0.128832825	-0.212081
C	 0.2238127255	-0.510058434	-1.3909129233	 0.073651
O	 1.453390669	-1.2479116122	-1.3171419078	-0.255595
C	 0.2588539477	-1.9611898104	-1.633663264	 0.06139
C	-0.2198313457	-3.0055017858	-0.635866224	-0.384202
C	 0.4326090042	-4.2963785035	-0.8300414561	 0.297862
C	 0.9719173253	-5.3543748477	-1.0121992631	-0.435877
H	 1.6252264001	 1.1205333878	 0.3672588177	 0.137059
H	 0.544436906	 2.1378479793	-0.5958029807	 0.116781
H	 0.2152923343	 1.8838550104	 1.1239279848	 0.114831
H	-0.2374079473	-0.5404733508	 0.708302321	 0.103868
H	-1.3114530438	 0.4518037187	-0.2729743269	 0.102424
H	 0.1586921365	 0.1239094554	-2.2796176347	 0.086666
H	 0.2065035064	-2.2983663125	-2.6703598767	 0.098874
H	-0.0392154124	-2.6506079376	 0.3832199374	 0.140573
H	-1.3065309399	-3.1247475727	-0.7446686344	 0.134251
H	 1.4527710278	-6.2890463466	-1.1617903061	 0.197407
41.8589	75.338	110.9904	177.6175	219.4985	271.3197	334.0016	355.181	452.9544	496.3868	566.654	619.7715	644.1361	747.6155	814.767	820.0071	906.713	952.986	973.279	1014.7619	1033.5314	1099.1233	1110.8278	1164.6998	1183.6676	1238.359	1291.7966	1300.6565	1318.5693	1346.1736	1405.7369	1411.7042	1451.4257	1474.3274	1492.8701	1498.4223	1509.2426	2242.3172	3020.8473	3028.5034	3037.5025	3064.4793	3078.969	3086.7624	3100.4234	3109.7126	3118.7043	3507.3768
CCC1OC1CC#C	CC[C@H]1O[C@H]1CC#C	
InChI=1S/C7H10O/c1-3-5-7-6(4-2)8-7/h1,6-7H,4-5H2,2H3	InChI=1S/C7H10O/c1-3-5-7-6(4-2)8-7/h1,6-7H,4-5H2,2H3/t6-,7+/m1/s1
