16
gdb 36634	6.14092	0.76405	0.70079	4.2257	72.16	-0.2356	0.016	0.2517	1539.3508	0.125858	-434.093462	-434.084806	-434.083862	-434.128607	29.731	
N	-0.0232008993	-1.0407906628	-0.5197867808	-0.295208
C	 0.0076750019	 0.0549284834	-0.156658521	 0.257873
C	 0.0448981692	 1.4350515771	 0.3355724025	-0.269499
N	 1.3786859555	 1.9927718117	 0.2301360184	-0.391494
C	 1.5144617948	 3.3494303319	 0.1565589541	 0.5327
N	 0.579027818	 4.1956166678	-0.0284767649	-0.369056
C	 1.2388718915	 5.5011652392	-0.1395381669	-0.180502
C	 2.7328297452	 5.2159059469	 0.1790941715	-0.110468
O	 2.8004570663	 3.7730307515	 0.2637173289	-0.268883
H	-0.6198192973	 2.0626823397	-0.265182127	 0.198191
H	-0.348867903	 1.4518988372	 1.3625034446	 0.155461
H	 2.136435778	 1.4954280972	 0.6711475018	 0.266575
H	 1.1064955932	 5.9123412	-1.147589349	 0.114531
H	 0.7996671595	 6.2179439037	 0.5620215092	 0.114258
H	 3.4243621598	 5.5428445808	-0.600659531	 0.12536
H	 3.0568052167	 5.6290788748	 1.1391621898	 0.12016
27.1432	79.737	93.6584	151.2671	226.4081	265.0598	375.4663	421.5346	454.4704	576.3046	718.53	742.7294	770.6971	843.2537	922.2246	945.0559	972.6722	996.7572	1018.4711	1097.7981	1125.6712	1141.2362	1220.3628	1240.9065	1246.9361	1278.5541	1336.6929	1369.6652	1398.3999	1483.9413	1511.2238	1524.8686	1551.2187	1748.6568	2370.7652	3003.951	3028.3639	3052.9975	3065.0828	3098.1964	3110.3745	3637.9406
N#CCNC1=NCCO1	N#CCNC1=NCCO1	
InChI=1S/C5H7N3O/c6-1-2-7-5-8-3-4-9-5/h2-4H2,(H,7,8)	InChI=1S/C5H7N3O/c6-1-2-7-5-8-3-4-9-5/h2-4H2,(H,7,8)
