15
gdb 81100	2.13906	1.63832	1.22851	4.3173	63.19	-0.2533	-0.0406	0.2127	1034.4338	0.109981	-494.821433	-494.813184	-494.81224	-494.854454	30.49	
O	 0.0840895188	 1.4087264118	-0.1177753982	-0.436002
C	 0.0981649106	 0.031641798	-0.0752649579	 0.15003
C	-0.0217630904	-0.6704583339	 1.3044182254	-0.065751
O	-1.4273942823	-0.1906403524	 1.3870726835	-0.350781
C	-1.3025966555	-0.7133507831	 0.0097349585	 0.240364
C	-2.457624164	-0.6339479047	-0.9228626464	 0.028119
O	-3.4719781831	-0.0269624868	-0.6931795638	-0.241988
C	-0.5743460169	-1.9446469458	 0.6014137731	 0.076491
O	 0.2102410096	-2.6886769353	-0.280378652	-0.42652
H	-0.5872770409	 1.6886120915	 0.5223489668	 0.298178
H	 0.827320574	-0.3545698158	-0.7851364686	 0.120623
H	 0.5869634942	-0.5610702395	 2.2022852714	 0.103504
H	-2.2906587701	-1.1743944464	-1.8806830503	 0.094755
H	-1.2217756153	-2.543315611	 1.2494828529	 0.108553
H	 0.6125298813	-3.4174838566	 0.2021004257	 0.300426
76.1565	152.1305	200.5729	226.8934	234.5919	280.6	343.8415	440.2078	506.3824	588.1584	601.6586	683.3336	697.8353	784.3961	811.9621	899.6274	905.3883	954.8597	990.2805	1054.2476	1136.2348	1145.6775	1164.2779	1182.4261	1194.3801	1223.4041	1267.9249	1301.0986	1316.212	1410.4572	1427.0085	1457.2197	1818.5721	2891.1655	3073.8017	3121.7425	3149.6606	3734.1439	3827.5805
OC1C2OC1(C=O)C2O	O[C@H]1[C@H]2O[C@]1(C=O)[C@H]2O	
InChI=1S/C5H6O4/c6-1-5-3(7)2(9-5)4(5)8/h1-4,7-8H	InChI=1S/C5H6O4/c6-1-5-3(7)2(9-5)4(5)8/h1-4,7-8H/t2-,3-,4-,5+/m0/s1
