19
gdb 59935	2.34889	1.07981	0.80345	4.0062	83.02	-0.2237	0.0146	0.2383	1451.2284	0.156473	-382.026621	-382.0161	-382.015156	-382.06316	36.974	
C	 0.3374258572	 0.8406993403	-0.5462873767	-0.338238
N	 0.1177155697	-0.2488996137	 0.3965282888	-0.046619
C	 0.5965064481	 0.0719552577	 1.7322515775	-0.323363
C	-1.2284313069	-0.7910112015	 0.3677821789	-0.168186
C	-1.2876216566	-2.1698414459	-0.3722655126	-0.314951
C	-2.6120355977	-2.7792992712	-0.2571288786	 0.322472
C	-3.7096669726	-3.2459102432	-0.1215537207	-0.426193
C	-0.8913754347	-2.0374187091	-1.7828113762	 0.311834
N	-0.5809180709	-1.9198036728	-2.8893379479	-0.334434
H	 1.4040229473	 1.0827137489	-0.5818574707	 0.123398
H	 0.0313917563	 0.5382677906	-1.5497027693	 0.150175
H	-0.2121894764	 1.7612813692	-0.2742850972	 0.094093
H	 0.0613140872	 0.9190460087	 2.2008391569	 0.097848
H	 0.4972130949	-0.7981113916	 2.3882799833	 0.119138
H	 1.6581334998	 0.3339166077	 1.6853127302	 0.125747
H	-1.5903128322	-0.9783048983	 1.382783792	 0.119697
H	-1.9474420917	-0.1097169177	-0.1062969799	 0.120249
H	-0.5422174496	-2.8150556333	 0.1096551657	 0.158266
H	-4.6768341612	-3.6719452947	-0.0138924434	 0.209068
28.8081	71.3376	116.4138	131.2402	189.8387	222.1832	234.8847	267.6505	349.4037	366.1884	413.8682	423.0128	499.3604	569.1588	584.7696	652.8203	670.867	817.0268	852.2163	977.0163	1018.2405	1053.0845	1070.5673	1072.6013	1123.8982	1177.3879	1186.8347	1257.9007	1312.8857	1318.7981	1355.4645	1385.2206	1448.3192	1468.8262	1485.413	1497.5822	1501.1087	1503.001	1514.9025	2246.4916	2361.9263	2930.4352	2937.0793	3014.6844	3037.9108	3062.4695	3074.6851	3088.2538	3106.5576	3130.3358	3502.8689
CN(C)CC(C#C)C#N	CN(C)C[C@@H](C#C)C#N	
InChI=1S/C7H10N2/c1-4-7(5-8)6-9(2)3/h1,7H,6H2,2-3H3	InChI=1S/C7H10N2/c1-4-7(5-8)6-9(2)3/h1,7H,6H2,2-3H3/t7-/m0/s1
