18
gdb 54924	5.19433	0.83428	0.81178	3.7949	79.71	-0.2477	0.0219	0.2696	1428.1036	0.146608	-401.941637	-401.932085	-401.931141	-401.977697	34.492	
N	 0.0236534746	 1.2441832687	 0.5269560295	-0.540043
C	 0.0021418425	 0.1609825968	-0.3012271676	 0.432295
O	 0.9471827902	-0.1274412934	-1.0156795411	-0.372598
C	-1.2750326895	-0.6602211361	-0.2740805856	-0.130766
C	-1.8208969358	-0.9521435987	-1.707236947	-0.233378
C	-1.142871821	-2.358933817	-1.6620326335	-0.144068
C	-0.9929848264	-2.1874931493	-0.1164213982	-0.233356
C	-1.8811328096	-3.4985213188	-2.1627450307	 0.29531
C	-2.5146964493	-4.4395423783	-2.5637306465	-0.440029
H	 0.8507717889	 1.8185507047	 0.5415642698	 0.260761
H	-0.749742572	 1.4896719907	 1.1181872022	 0.2597
H	-2.0026316341	-0.2447567276	 0.4271985724	 0.063678
H	-2.9098067265	-1.0279888326	-1.7140609362	 0.110208
H	-1.4923434163	-0.284164375	-2.5044829795	 0.120924
H	-0.1568486788	-2.2986114393	-2.1283271971	 0.12977
H	-0.0284478992	-2.4684815297	 0.3083715531	 0.120954
H	-1.7960799785	-2.6898512798	 0.4259824695	 0.110194
H	-3.0635858791	-5.2731359554	-2.9254086836	 0.190444
14.9897	65.8503	130.9641	137.0406	198.7215	255.2825	283.0592	367.4078	511.1695	521.1656	566.3274	591.6568	614.9883	630.2063	672.5753	763.2985	770.7742	834.0183	877.7276	940.1633	991.7167	994.3039	1054.2365	1088.791	1092.917	1107.0326	1192.1468	1212.1353	1258.865	1264.5373	1271.3759	1284.7731	1347.8412	1418.8297	1466.1733	1485.2958	1615.7894	1781.1021	2231.8481	3065.7379	3075.7896	3081.8755	3088.1938	3139.4948	3141.9367	3505.6013	3603.7193	3743.8966
NC(=O)C1CC(C1)C#C	NC(=O)[C@H]1C[C@@H](C1)C#C	
InChI=1S/C7H9NO/c1-2-5-3-6(4-5)7(8)9/h1,5-6H,3-4H2,(H2,8,9)	InChI=1S/C7H9NO/c1-2-5-3-6(4-5)7(8)9/h1,5-6H,3-4H2,(H2,8,9)/t5-,6-
