20
gdb 62091	3.696	0.6943	0.64045	4.2528	77.51	-0.2332	-0.0243	0.2089	1764.3456	0.166608	-440.301537	-440.290588	-440.289644	-440.339009	37.431	
C	 0.1109781087	 1.4120644363	-0.1808194427	-0.403937
C	 0.0179370561	-0.1300853992	-0.060481429	-0.050115
N	 0.7396312154	-0.7169790628	 1.0559582335	-0.307724
C	 2.1348044913	-0.3624919063	 1.2116012547	-0.230983
C	 2.8437235253	-1.3750997185	 2.1003338757	 0.155556
O	 3.77577855	-1.1166240821	 2.8149845849	-0.238229
C	-1.46430138	-0.4956171186	 0.096193829	 0.402068
C	-2.2731294558	-0.6654847891	-1.171402253	-0.482432
O	-1.950073292	-0.6198489403	 1.1974072711	-0.312528
H	 1.1493022969	 1.725177932	-0.3193575054	 0.128631
H	-0.4619191415	 1.7849472214	-1.035975072	 0.119949
H	-0.2766836606	 1.8865370456	 0.7263147264	 0.13347
H	 0.3946013275	-0.5696016382	-0.9948284651	 0.084438
H	 0.2010750435	-0.5704561735	 1.9034310793	 0.235463
H	 2.624311352	-0.4340125078	 0.227339328	 0.127343
H	 2.3476808798	 0.6464636957	 1.5975910156	 0.114913
H	 2.4203450147	-2.4015728508	 2.0209127541	 0.086229
H	-1.9911294082	-1.6135294156	-1.6458208436	 0.152264
H	-3.3382340484	-0.6866460844	-0.9378723078	 0.147116
H	-2.058635815	 0.1269031761	-1.8951810736	 0.138508
47.3594	64.8298	80.1469	104.1897	124.6189	147.2963	225.2234	245.8295	307.5981	321.3526	324.7443	499.5774	518.4657	600.6793	619.0886	708.633	756.3166	825.0305	887.8702	953.4821	981.2624	1027.804	1069.5015	1078.8397	1092.6853	1147.2815	1180.9436	1204.7492	1261.7554	1317.0484	1331.0842	1365.7198	1385.369	1395.0672	1403.1352	1460.8383	1471.4612	1473.6715	1486.658	1496.5462	1509.1459	1811.2614	1839.4327	2889.1605	2978.7899	3007.5214	3017.1478	3036.0299	3037.8968	3099.6665	3108.575	3118.618	3153.5197	3532.0986
CC(NCC=O)C(C)=O	C[C@@H](NCC=O)C(=O)C	
InChI=1S/C6H11NO2/c1-5(6(2)9)7-3-4-8/h4-5,7H,3H2,1-2H3	InChI=1S/C6H11NO2/c1-5(6(2)9)7-3-4-8/h4-5,7H,3H2,1-2H3/t5-/m1/s1
