17
gdb 50979	2.96873	0.79927	0.6682	2.2095	71.04	-0.2623	-0.0525	0.2098	1598.9032	0.130581	-458.98083	-458.970469	-458.969525	-459.019124	33.634	
O	-0.0681270234	-0.1288660002	 0.133994509	-0.227623
C	-0.0397768299	 1.070386165	 0.0553219421	 0.159823
C	 1.2321736855	 1.8926745501	-0.0475376973	-0.301098
C	 1.2013049763	 2.9066066083	-1.2127689843	-0.103416
C	 2.4238060213	 3.8520796947	-1.141898812	-0.303222
C	 2.3299561487	 5.0237032201	-2.101279206	 0.156014
O	 2.5500686345	 6.1640029535	-1.7882099524	-0.231317
C	 1.2019288428	 2.1580279977	-2.5397315947	 0.167327
O	 0.3539045809	 2.2536890237	-3.3859064434	-0.237666
H	-0.9773255944	 1.6725232361	 0.06462662	 0.087387
H	 1.3367900486	 2.4514177299	 0.8927448984	 0.136981
H	 2.0850486816	 1.2107480674	-0.1274757798	 0.131794
H	 0.2751666483	 3.4910427406	-1.1697298018	 0.114392
H	 2.5557854128	 4.24731286	-0.1308858639	 0.133946
H	 3.3332132089	 3.2852068643	-1.3941767767	 0.132598
H	 2.041566835	 4.7595336634	-3.1434868733	 0.097002
H	 2.0842015827	 1.4876463853	-2.6752758939	 0.087077
37.947	47.7115	51.7697	65.2883	92.4085	152.9262	259.3335	305.4469	333.8927	369.2068	453.9105	527.1039	569.9509	774.7186	781.1963	896.9535	955.8376	983.517	1008.6336	1025.5935	1104.9855	1113.7062	1129.9821	1196.8579	1214.7923	1253.6706	1317.5808	1332.8767	1360.6511	1418.8673	1428.5098	1436.4928	1452.475	1466.2635	1834.9222	1837.3791	1841.8934	2851.721	2872.2204	2885.9748	3006.1803	3021.885	3055.0011	3092.031	3098.029
O=CCC(CC=O)C=O	O=CCC(CC=O)C=O	
InChI=1S/C6H8O3/c7-3-1-6(5-9)2-4-8/h3-6H,1-2H2	InChI=1S/C6H8O3/c7-3-1-6(5-9)2-4-8/h3-6H,1-2H2
