23
gdb 106678	2.57839	1.18616	1.01531	1.6643	86.36	-0.2403	0.0723	0.3126	1324.6245	0.204309	-388.273414	-388.263416	-388.262471	-388.30797	38.068	
C	 0.052060305	 1.5119000101	-0.2539990764	-0.370841
C	 0.0081867855	 0.0341047857	 0.1607489917	-0.299366
C	-1.3862432159	-0.5323230555	 0.1770192423	 0.33732
C	-2.0893415981	-1.0198075115	-1.0644869468	-0.376428
C	-1.8933621887	-1.9842576963	 0.0785893516	 0.237009
C	-1.1713229159	-3.2943549853	-0.0586151688	-0.494028
C	-2.9712910665	-1.6901616632	 1.1408845995	 0.108572
O	-2.8662280619	-2.4349268809	 2.3352455583	-0.436201
C	-2.4604413463	-0.2147006427	 1.2306716508	-0.333516
H	 1.0773526676	 1.8947013089	-0.2471179161	 0.109997
H	-0.3542653524	 1.6471275237	-1.2615377793	 0.11919
H	-0.5399751145	 2.1314735977	 0.4279801507	 0.118744
H	 0.6299293941	-0.5551497975	-0.5255655279	 0.095744
H	 0.4617601528	-0.0765713607	 1.1554723005	 0.08803
H	-3.0830373658	-0.6553577709	-1.321835084	 0.098731
H	-1.4503652448	-1.1961752844	-1.9258594514	 0.105524
H	-0.2588562658	-3.1845670489	-0.653776639	 0.115448
H	-0.8915401892	-3.7015775866	 0.9186140126	 0.110643
H	-1.8011830743	-4.0433531147	-0.5535266436	 0.123604
H	-4.0066572915	-1.8261200837	 0.810072287	 0.080811
H	-1.9800234655	-2.3043480017	 2.6907877225	 0.2758
H	-2.0471228357	-0.0219471745	 2.2265641148	 0.091516
H	-3.1699227122	 0.5847337828	 0.9898791113	 0.093697
77.9771	108.7523	140.6176	180.2782	218.3598	235.2385	261.3249	324.1894	344.7567	419.7363	433.3754	477.8975	497.1309	591.5764	707.567	755.5323	788.5196	824.8464	869.7167	914.558	951.0616	974.1351	980.6139	1026.277	1034.2235	1057.3419	1075.961	1090.8617	1105.9453	1135.2772	1200.324	1232.3555	1244.1387	1254.037	1290.1471	1316.2765	1330.6409	1359.0397	1400.1714	1410.9921	1424.5472	1430.6218	1478.8437	1480.5155	1483.2142	1498.3731	1500.4038	1507.3149	1511.4552	3007.0453	3024.1713	3030.4717	3033.94	3043.064	3050.0603	3082.2235	3083.1798	3088.1857	3098.6786	3102.2688	3106.2436	3178.2546	3796.3529
CCC12CC1(C)C(O)C2	CC[C@@]12C[C@]1(C)[C@@H](O)C2	
InChI=1S/C8H14O/c1-3-8-4-6(9)7(8,2)5-8/h6,9H,3-5H2,1-2H3	InChI=1S/C8H14O/c1-3-8-4-6(9)7(8,2)5-8/h6,9H,3-5H2,1-2H3/t6-,7+,8+/m0/s1
