20
gdb 10864	3.49699	1.67924	1.44979	1.5127	70.96	-0.2539	0.0841	0.338	971.5919	0.177641	-386.157495	-386.149411	-386.148467	-386.189515	30.971	
C	-0.1306630083	 1.5640948437	 0.0113858963	-0.385368
C	 0.0247143182	 0.0390702619	 0.0023955754	 0.001235
C	 0.7882993516	-0.4531880914	-1.2373545331	-0.08738
O	 2.1574667297	-0.0743856557	-1.173356758	-0.252559
C	 2.7820045931	-0.572797845	-0.0122590212	 0.230836
C	 4.2265209877	-0.123326944	-0.0157440827	-0.409229
O	 2.1670395858	-0.0870777111	 1.1592815109	-0.252561
C	 0.7984304293	-0.4666390892	 1.2304009897	-0.087383
H	 0.8484100352	 2.0487464889	 0.0102843515	 0.139874
H	-0.6823770251	 1.9080579051	-0.8696513285	 0.108841
H	-0.675558721	 1.8982930536	 0.9003886627	 0.108841
H	-0.9676157555	-0.4311814106	 0.0038954756	 0.071059
H	 0.7090387645	-1.5510109279	-1.3163329164	 0.084107
H	 0.3896891987	-0.0171627321	-2.1579444287	 0.105994
H	 2.7020201468	-1.679366909	-0.0179506718	 0.049794
H	 4.2679950672	 0.9686015409	-0.0100527472	 0.133957
H	 4.7377326118	-0.5037994272	 0.8713143435	 0.12492
H	 4.7304567391	-0.494226713	-0.9109826036	 0.124919
H	 0.4074174156	-0.0406948977	 2.1589337841	 0.105995
H	 0.7197925356	-1.5652608902	 1.2980612416	 0.084109
118.6156	185.7973	196.6663	230.9743	247.334	316.2955	380.8723	384.9976	502.1043	517.7256	583.3963	758.4599	793.9861	841.788	870.4345	926.7186	963.9356	981.1226	1004.6265	1026.3011	1085.1608	1123.4599	1138.6617	1150.5745	1175.4089	1200.1651	1268.8312	1291.8284	1326.7566	1369.154	1376.1748	1390.9097	1395.3099	1412.156	1424.5685	1437.275	1481.3942	1486.5765	1490.0626	1496.4595	1504.2299	1508.2092	2892.108	2956.8379	2965.368	3023.9981	3037.7819	3058.3786	3081.5307	3084.1058	3099.0676	3129.348	3139.4816	3141.733
CC1COC(C)OC1	C[C@H]1CO[C@@H](C)OC1	
InChI=1S/C6H12O2/c1-5-3-7-6(2)8-4-5/h5-6H,3-4H2,1-2H3	InChI=1S/C6H12O2/c1-5-3-7-6(2)8-4-5/h5-6H,3-4H2,1-2H3/t5-,6+
