17
gdb 36590	2.94767	0.91371	0.76356	4.6016	77.66	-0.3019	0.0132	0.3151	1457.1299	0.135861	-380.892959	-380.883918	-380.882973	-380.927585	32.328	
N	 0.0444428674	-1.1908037408	-0.010719812	-0.298723
C	 0.0204205747	-0.0403916361	 0.0938119532	 0.259229
C	 0.0208018843	 1.4141660337	 0.2223154823	-0.345023
C	 1.3562638329	 2.0363790113	-0.2381150905	-0.278608
C	 1.3782748724	 3.5496021586	-0.0653791457	 0.180919
C	 1.7695783513	 4.1384668196	 1.2852195003	-0.287097
C	 2.7145414396	 4.250661286	 0.1277780545	-0.304779
C	 0.371632741	 4.2581935818	-0.8174066669	 0.243971
N	-0.4503341186	 4.801521591	-1.4243010798	-0.344095
H	-0.8075353467	 1.8227598516	-0.3671964528	 0.17875
H	-0.1769594239	 1.6745558089	 1.2682997701	 0.156817
H	 2.1784990844	 1.6060540251	 0.3415048788	 0.128283
H	 1.5344270951	 1.777758782	-1.2866482436	 0.143244
H	 1.2512060574	 5.0303477349	 1.6151727473	 0.147862
H	 1.9967841156	 3.4271676934	 2.071869907	 0.134031
H	 3.5950416864	 3.6182245873	 0.1118434746	 0.136763
H	 2.8423807868	 5.2195061916	-0.3392014769	 0.148458
60.7501	88.0471	116.4325	161.2012	219.835	258.1814	322.8174	387.7922	405.6311	518.1547	569.863	590.4693	704.225	771.3295	790.8839	878.5391	927.0618	953.2454	963.6716	978.2997	1039.1908	1056.2136	1074.5412	1098.5301	1189.3128	1195.3428	1278.1893	1291.1755	1309.3992	1353.2741	1386.5875	1466.495	1471.1993	1488.7468	1500.9023	2348.0404	2365.1888	3045.0128	3057.3442	3081.8678	3105.8325	3143.7053	3148.4549	3230.7095	3244.3324
N#CCCC1(CC1)C#N	N#CCCC1(CC1)C#N	
InChI=1S/C7H8N2/c8-5-1-2-7(6-9)3-4-7/h1-4H2	InChI=1S/C7H8N2/c8-5-1-2-7(6-9)3-4-7/h1-4H2
