23
gdb 98436	2.91332	1.04617	0.97761	2.5179	85.9	-0.2353	-0.0059	0.2294	1388.4465	0.203924	-388.311048	-388.300751	-388.299807	-388.346879	37.849	
C	 0.2366137459	 1.5178566049	 0.1501328331	-0.377072
C	 0.0108013566	 0.0188856233	-0.0379472451	-0.286824
C	-1.4647085196	-0.3746434111	-0.0417734117	 0.317079
O	-2.3345042954	 0.4640628016	-0.1327871446	-0.313901
C	-1.7909069484	-1.8561430319	 0.1218635225	 0.258714
C	-1.0274776146	-2.7394781242	-0.8704428441	-0.468783
C	-1.6374856443	-2.3537132412	 1.6081272576	-0.257881
C	-3.0369299708	-3.0152659365	 1.5005292194	-0.211678
C	-3.3063524894	-2.1982164551	 0.2095642449	-0.263706
H	 1.3021549869	 1.7586973363	 0.0972517728	 0.107137
H	-0.290183686	 2.0869018256	-0.6189236015	 0.136137
H	-0.1438421849	 1.8535644446	 1.1190026095	 0.124463
H	 0.4402290765	-0.3160111676	-0.9923019442	 0.128131
H	 0.5319976337	-0.5665473307	 0.7304190929	 0.117571
H	 0.056436278	-2.6538175946	-0.7472544006	 0.118738
H	-1.2924974864	-3.7914306368	-0.7218063965	 0.120634
H	-1.2762258683	-2.4792952022	-1.905406388	 0.123115
H	-0.7830977987	-3.0053160547	 1.8112760267	 0.097712
H	-1.6225042717	-1.5267077022	 2.3238886911	 0.107576
H	-2.9737732101	-4.0907611037	 1.3157962528	 0.102347
H	-3.7183545047	-2.8534720672	 2.3383796748	 0.102065
H	-3.8963558852	-1.2974389874	 0.3847581101	 0.125212
H	-3.7284947492	-2.7362025692	-0.6430253118	 0.093214
40.1643	72.0493	107.9577	169.8554	190.0231	220.8837	262.8774	294.6332	323.5428	335.9373	411.9289	520.2225	571.5487	683.7504	717.6579	787.9052	817.5149	838.9367	873.1073	914.172	933.0948	948.9535	984.8827	993.1962	1021.0653	1047.0823	1088.5933	1115.31	1161.4118	1194.2733	1213.5081	1234.1096	1257.4882	1272.8474	1277.6193	1284.5047	1305.5222	1371.7206	1408.0411	1412.2636	1454.263	1475.5392	1485.1878	1492.3074	1498.151	1498.919	1499.4362	1507.0514	1792.8398	3020.9847	3029.4579	3048.5287	3049.4242	3052.3484	3062.2806	3069.874	3094.7464	3096.6013	3105.4851	3114.0293	3116.9405	3132.4999	3135.1206
CCC(=O)C1(C)CCC1	CCC(=O)C1(C)CCC1	
InChI=1S/C8H14O/c1-3-7(9)8(2)5-4-6-8/h3-6H2,1-2H3	InChI=1S/C8H14O/c1-3-7(9)8(2)5-4-6-8/h3-6H2,1-2H3
