17
gdb 81169	2.43548	1.66233	1.21142	3.2505	68.28	-0.2434	-0.0331	0.2103	1030.2496	0.135691	-458.935116	-458.927212	-458.926267	-458.967638	30.138	
O	 0.2429798557	 1.3388312488	-0.1896556806	-0.438771
C	 0.0874712494	-0.0526648505	-0.06637833	 0.084616
C	 0.1495013127	-0.6580825767	 1.3692709272	 0.054474
C	-1.233262439	-0.0129198496	 1.6178209006	-0.289552
C	-1.4258506837	-0.441583589	 0.113352683	 0.171966
C	-1.2867176885	-1.9593851147	 0.2417090716	-0.120859
O	-0.1379838808	-2.0383133873	 1.1277195846	-0.281845
C	-2.5010302354	 0.1295331688	-0.7477625984	 0.041353
O	-3.3322076173	-0.5372328339	-1.3169948481	-0.252204
H	 1.1792921699	 1.5468930617	-0.108502067	 0.29454
H	 0.6370381941	-0.6066353796	-0.8383121797	 0.083918
H	 1.0038318343	-0.5627793482	 2.0390089079	 0.082523
H	-1.883065525	-0.4824958405	 2.3584317895	 0.112036
H	-1.1904133577	 1.0678272181	 1.7367039041	 0.127866
H	-2.158925639	-2.4343398258	 0.7011994523	 0.118646
H	-1.0668019219	-2.4591172347	-0.7065414348	 0.11702
H	-2.4910625778	 1.2369114932	-0.8316074822	 0.094273
77.2654	157.0602	227.4374	267.5646	297.8779	327.727	373.7575	461.4155	488.1556	548.9041	626.1106	757.8498	801.796	860.4494	892.5871	930.4507	971.0893	990.46	1003.6149	1034.4354	1082.266	1090.8213	1135.7439	1159.2561	1180.4639	1200.8852	1208.637	1235.6743	1268.5999	1275.4543	1325.0046	1375.5197	1409.8263	1422.7355	1477.1611	1528.3396	1807.8443	2911.3253	3025.5293	3047.6577	3087.5365	3092.3758	3128.3019	3171.3675	3817.3333
OC1C2CC1(CO2)C=O	O[C@H]1[C@H]2C[C@@]1(CO2)C=O	
InChI=1S/C6H8O3/c7-2-6-1-4(5(6)8)9-3-6/h2,4-5,8H,1,3H2	InChI=1S/C6H8O3/c7-2-6-1-4(5(6)8)9-3-6/h2,4-5,8H,1,3H2/t4-,5+,6+/m1/s1
