18
gdb 62130	4.87156	0.73607	0.6751	4.0384	70.2	-0.264	0.0105	0.2744	1613.6328	0.146047	-476.201508	-476.19193	-476.190985	-476.237059	33.487	
O	-0.1205080835	 1.2786737888	-0.5034202039	-0.424543
C	 0.0360574264	-0.0860580314	-0.1345186952	 0.091282
C	 0.8339340264	-0.842365175	-1.2020359572	-0.108179
O	 0.146749278	-0.831891174	-2.4502524322	-0.176514
C	 0.4025314298	 0.1867384632	-3.2989551898	 0.189448
O	-0.1931062906	 0.3339574618	-4.3217343168	-0.27444
C	 0.660800963	-0.2475727624	 1.2339099324	-0.015177
C	-0.1786396792	-0.1472879545	 2.4507149403	-0.242625
N	 0.3936939781	-1.4439563767	 2.0486260922	-0.315263
H	 0.6952040542	 1.7465827001	-0.2918166322	 0.286133
H	-0.9811588944	-0.496747023	-0.1185085671	 0.10173
H	 1.8344718187	-0.3984567385	-1.3078043881	 0.105636
H	 0.9566812874	-1.8927805502	-0.9249500792	 0.134349
H	 1.228275688	 0.8354951835	-2.952857857	 0.067303
H	 1.6986795207	 0.0850937337	 1.2948703442	 0.091191
H	 0.234931373	 0.2706301171	 3.3635040451	 0.127352
H	-1.2431974678	 0.022298564	 2.3130352978	 0.125972
H	-0.324431238	-2.0143025366	 1.6061142467	 0.236347
57.9735	64.8366	87.2858	168.5653	183.7262	264.2866	265.4632	287.738	389.3717	398.336	480.1328	523.9146	673.4517	825.2324	876.062	890.0197	950.4003	958.633	1021.681	1033.2887	1055.1937	1077.8167	1104.2797	1134.0119	1157.9239	1166.3584	1184.4352	1249.7275	1273.6845	1281.9776	1306.6584	1345.3223	1399.9247	1409.2227	1431.0219	1440.8677	1490.7141	1513.4196	1871.5558	2964.761	3008.8593	3043.8395	3090.015	3102.54	3115.0969	3202.0697	3484.2008	3801.5147
OC(COC=O)C1CN1	O[C@@H](COC=O)[C@H]1CN1	
InChI=1S/C5H9NO3/c7-3-9-2-5(8)4-1-6-4/h3-6,8H,1-2H2	InChI=1S/C5H9NO3/c7-3-9-2-5(8)4-1-6-4/h3-6,8H,1-2H2/t4-,5+/m1/s1
