15
gdb 67549	2.50714	1.84851	1.53745	5.9944	64.79	-0.2306	0.016	0.2466	900.519	0.11291	-453.887705	-453.880426	-453.879482	-453.919095	28.724	
O	-0.0504233077	 1.4425685991	 0.0323155152	-0.463994
C	 0.0366861861	 0.0670757143	-0.0346514762	 0.273321
C	 1.2210923333	-0.6362448744	 0.6978893998	-0.1394
N	 0.977236444	-2.0947982588	 0.6665274809	-0.323175
C	 1.5670803877	-1.4291441389	-0.5132392788	-0.076009
C	 0.3887681295	-0.7840754338	-1.31242948	-0.078601
N	-0.9359046982	-1.3848154526	-1.2025280703	-0.309682
C	-1.3035172636	-0.7302031264	-0.0300982381	 0.391273
O	-2.2767829592	-0.7949845926	 0.6629298091	-0.347627
H	 0.8384607748	 1.8152405015	 0.0460566693	 0.288573
H	 1.8438059489	-0.1850022009	 1.4621980535	 0.102395
H	 1.7344217149	-2.5422835234	 1.1818399526	 0.239245
H	 2.532519599	-1.7255232113	-0.9041220253	 0.10044
H	 0.6376986471	-0.3276455223	-2.2701062911	 0.093234
H	-1.2311026167	-2.3113995196	-1.4780070206	 0.250006
138.9836	221.4898	256.7698	265.6345	322.6199	370.9523	474.1889	519.3363	598.041	691.4278	707.3098	730.1493	783.0142	829.6441	834.5249	889.4311	942.2878	967.9694	975.3279	1024.6688	1044.945	1067.3973	1096.2661	1126.9532	1184.394	1235.4834	1267.4487	1305.2525	1328.203	1339.3773	1355.0653	1403.0889	1905.6439	3119.3187	3175.9908	3193.4953	3480.4515	3596.0943	3793.2482
OC12C3NC3C1NC2=O	O[C@]12[C@H]3N[C@H]3[C@H]1NC2=O	
InChI=1S/C5H6N2O2/c8-4-5(9)2-1(6-2)3(5)7-4/h1-3,6,9H,(H,7,8)	InChI=1S/C5H6N2O2/c8-4-5(9)2-1(6-2)3(5)7-4/h1-3,6,9H,(H,7,8)/t1-,2+,3-,5-/m1/s1
