18
gdb 43976	3.08669	1.58937	1.4198	2.9804	76.04	-0.2487	0.0249	0.2736	982.5798	0.149994	-401.924023	-401.91697	-401.916026	-401.955232	28.864	
N	 0.0488573998	 1.2306277853	 0.2441014595	-0.560374
C	-0.0091220921	-0.0204983461	 0.2095872608	 0.374975
O	 1.0047410486	-0.9728913851	 0.3974389496	-0.306366
C	 0.0877296497	-2.0073803977	-0.0704551849	 0.372277
C	-1.0372236028	-2.1554565378	 0.8828417984	-0.371179
C	-1.0634790787	-1.0212881253	-0.1465457875	 0.108558
C	-1.7735279322	-1.2006791125	-1.4733518633	-0.295339
C	-1.2107831521	-2.5582413571	-2.0089897875	-0.22313
C	 0.2152218401	-2.7134495473	-1.3937787699	-0.295193
H	 0.9943468588	 1.5503315794	 0.4618787611	 0.229514
H	-1.7460602488	-2.9581597156	 0.7079095317	 0.131143
H	-0.8682328753	-1.915591426	 1.9263118477	 0.136714
H	-2.8652662407	-1.2095652222	-1.4090493203	 0.111405
H	-1.4946541351	-0.3760146926	-2.1365564326	 0.126391
H	-1.8469065704	-3.3849319538	-1.6751909968	 0.112165
H	-1.1941463547	-2.6020622456	-3.1011492445	 0.111704
H	 0.9556048125	-2.1723271576	-1.9924604196	 0.125082
H	 0.5323489132	-3.7587547225	-1.3347202618	 0.111655
124.374	215.8411	236.4925	345.3647	387.6307	439.0263	566.2846	602.3713	631.5955	655.3473	715.0006	781.4851	843.2482	851.2251	859.8095	872.8485	909.7398	936.4003	953.8093	962.4855	978.8597	1023.8167	1039.1784	1077.3992	1182.4292	1191.385	1198.1157	1222.1351	1255.0554	1289.7913	1323.1721	1333.7315	1363.0165	1379.8283	1478.8102	1488.9739	1494.2171	1511.4081	1821.675	3050.8036	3051.9948	3057.1611	3090.2762	3095.1887	3108.4414	3137.4666	3228.2061	3476.622
N=C1OC23CC12CCC3	[NH][C]1O[C@@]23C[C@@]12CCC3	
InChI=1S/C7H9NO/c8-5-6-2-1-3-7(6,4-6)9-5/h8H,1-4H2	InChI=1S/C7H9NO/c8-5-6-2-1-3-7(6,4-6)9-5/h8H,1-4H2/t6-,7-/m0/s1
