16
gdb 19952	3.93693	1.51001	1.1553	2.7888	66.13	-0.2416	-0.032	0.2096	1009.033	0.130902	-379.876213	-379.868724	-379.86778	-379.908719	27.298	
O	-0.1525936767	-0.0661290705	 0.3048177427	-0.276642
C	-0.1272177297	 1.1236815806	 0.2370340806	 0.381937
C	-1.1645579794	 2.2541885704	 0.3207435063	-0.284031
N	-0.0329394207	 3.2099762167	 0.4248083532	-0.325675
C	 0.9888966937	 2.1866092495	 0.0667168884	-0.113129
C	 2.1996194229	 2.1103532729	 0.9540239499	 0.040298
C	 3.3894812073	 1.3478082917	 0.5020678306	-0.238622
N	 3.446593366	 2.8145859225	 0.6035016459	-0.323061
H	-1.7705126419	 2.3183252583	-0.5946520942	 0.123479
H	-1.8365299204	 2.2402977717	 1.1856380012	 0.137454
H	-0.0841530499	 3.9984884765	-0.2083051237	 0.226984
H	 1.3057907802	 2.2122975996	-0.9906122671	 0.082615
H	 1.9690707884	 2.1436788827	 2.0156767684	 0.102311
H	 3.9940679638	 0.8113731151	 1.2268395698	 0.126421
H	 3.3551496633	 0.8892010024	-0.4831964121	 0.114537
H	 3.364351803	 3.22830941	-0.3229679598	 0.225124
65.3923	107.9109	135.1122	262.9209	316.6323	412.8564	469.4942	563.9531	636.035	749.3133	788.623	838.6216	884.4244	932.9334	952.0514	995.9941	1012.5369	1019.0432	1056.7474	1082.0877	1105.4635	1129.7135	1154.6612	1206.5707	1217.5887	1249.5687	1272.4841	1300.4824	1318.8302	1366.3549	1423.6716	1477.5313	1513.0261	1918.5201	2953.4795	3005.2883	3069.8162	3110.9009	3145.6428	3197.0629	3484.0861	3556.067
O=C1CNC1C1CN1	O=C1CN[C@H]1[C@H]1CN1	
InChI=1S/C5H8N2O/c8-4-2-7-5(4)3-1-6-3/h3,5-7H,1-2H2	InChI=1S/C5H8N2O/c8-4-2-7-5(4)3-1-6-3/h3,5-7H,1-2H2/t3-,5+/m1/s1
