17
gdb 72420	2.76745	1.7586	1.41619	3.8267	66.8	-0.2594	0.0082	0.2677	958.6726	0.137163	-459.023175	-459.01591	-459.014966	-459.054628	28.8	
C	-0.0659140052	 1.4564829127	 0.0751218409	-0.478184
C	 0.0380239016	-0.0384482811	-0.0199876703	 0.47294
C	 0.7287352661	-0.6842025329	-1.2452795551	-0.261163
C	 1.0426312415	-2.1019409882	-0.686104492	-0.239805
C	 0.4340701137	-1.9772686582	 0.7365754934	-0.099408
O	 0.7177821203	-0.6144064338	 1.079053386	-0.267742
C	-1.0843775936	-1.9040158201	 0.5442954626	 0.451814
O	-1.941238501	-2.7196615697	 0.70602598	-0.343635
O	-1.2922252672	-0.6431219744	 0.0617928705	-0.270185
H	 0.9353358866	 1.8937399772	 0.0924867708	 0.13718
H	-0.6107307889	 1.851891485	-0.7852770962	 0.140534
H	-0.594313788	 1.7354719087	 0.9889966075	 0.14785
H	 0.0659090862	-0.6931252476	-2.1118597322	 0.125306
H	 1.6361845891	-0.13410172	-1.502434301	 0.116781
H	 0.5947497626	-2.9130230738	-1.2635750851	 0.130996
H	 2.1169505705	-2.2795333326	-0.6122939139	 0.121882
H	 0.7766133159	-2.669320401	 1.5003138442	 0.11484
146.6716	192.7906	229.8621	293.9158	295.3813	427.3185	475.6262	557.1641	616.9305	641.725	703.8402	772.8536	840.6246	846.2122	873.7656	886.4567	905.0108	923.027	977.1763	1016.7777	1038.7851	1058.652	1152.8462	1180.9699	1197.9348	1211.1567	1261.8244	1272.1144	1309.3297	1323.9771	1353.4053	1425.3355	1476.9065	1481.9698	1488.0384	1499.3966	1906.1549	3059.9321	3076.8056	3084.7006	3123.7434	3137.7906	3141.4841	3144.819	3176.3751
CC12CCC(O1)C(=O)O2	C[C@@]12CC[C@@H](O1)C(=O)O2	
InChI=1S/C6H8O3/c1-6-3-2-4(8-6)5(7)9-6/h4H,2-3H2,1H3	InChI=1S/C6H8O3/c1-6-3-2-4(8-6)5(7)9-6/h4H,2-3H2,1H3/t4-,6-/m1/s1
