14
gdb 15218	2.60276	2.10361	1.68926	4.3356	64.1	-0.2574	-0.0613	0.1961	826.1925	0.105525	-378.701082	-378.693055	-378.692111	-378.733567	27.832	
C	-0.3228996918	 1.4378427319	 0.1436976316	-0.337754
N	 0.0269860061	 0.0207573282	 0.007744826	-0.095383
C	 0.5074846275	-0.5259019158	-1.2628131752	-0.100584
C	 0.7512823457	 0.297998604	-2.4879919559	 0.146023
O	 1.0979359489	 1.4531719961	-2.49717381	-0.246442
C	 1.4146722083	-0.3849750854	-0.0494305165	-0.167445
C	 2.4966861042	 0.5722671569	-0.0391344325	 0.321106
N	 3.3855527449	 1.3065012774	 0.0462030084	-0.331158
H	 0.3290864819	 2.1207297002	-0.4064094184	 0.171111
H	-1.3501311291	 1.5622127603	-0.2082777843	 0.13564
H	-0.2935385976	 1.6787082708	 1.2095622163	 0.140855
H	 0.1398762431	-1.5284306866	-1.4739682717	 0.117288
H	 0.5704489702	-0.2575222901	-3.4336577981	 0.098272
H	 1.6494617376	-1.2979425879	 0.4937571604	 0.14847
114.7907	120.771	150.1344	174.3173	234.97	285.8817	348.3065	401.5438	534.7055	611.9435	695.083	772.208	826.0329	872.9024	959.7933	1002.0016	1062.8238	1091.2366	1135.5379	1170.3323	1177.077	1330.7404	1357.9634	1382.5821	1427.0636	1454.2196	1486.4967	1503.348	1811.6927	2356.3701	2899.0978	3047.4888	3126.0481	3127.6136	3131.0808	3135.9269
CN1C(C=O)C1C#N	CN1[C@@H](C=O)[C@H]1C#N	
InChI=1S/C5H6N2O/c1-7-4(2-6)5(7)3-8/h3-5H,1H3	InChI=1S/C5H6N2O/c1-7-4(2-6)5(7)3-8/h3-5H,1H3/t4-,5+,7?/m1/s1
