16
gdb 24487	3.91814	1.58851	1.13816	2.9269	84.75	-0.2259	-0.0303	0.1957	1017.5869	0.128588	-363.692892	-363.686645	-363.6857	-363.723309	25.616	
C	-0.0463162481	 1.5198853346	 0.0106661811	-0.398175
C	 1.4156507735	 1.9052817432	-0.0012778085	-0.090783
C	 2.1986024081	 0.8130649546	-0.0146876308	-0.178237
C	 1.3615525613	-0.3879198647	-0.0131011857	 0.240552
C	 1.6602939745	-1.7465227169	-0.0232671626	-0.111442
N	 0.711241061	-2.6895734963	-0.019240926	-0.275507
C	-0.5642222526	-2.2928532724	-0.0048769889	 0.009508
C	-0.9756032183	-0.95558783	 0.006264711	-0.25377
C	 0.0119829583	 0.0116677818	 0.0019924687	 0.266024
H	-0.5696063673	 1.9085771338	 0.8946793721	 0.136988
H	-0.5864408082	 1.9180250807	-0.8588979943	 0.136989
H	 1.7532543729	 2.9336488168	 0.0010215877	 0.106651
H	 3.2814121009	 0.8009887778	-0.0251468438	 0.106566
H	 2.690347151	-2.0969873165	-0.0350423286	 0.103905
H	-1.3086456079	-3.0857597387	-0.0019977441	 0.105485
H	-2.0318933391	-0.7067502675	 0.0177366228	 0.095245
198.8595	211.8866	385.5264	388.6362	430.3876	550.125	590.916	609.0686	731.3377	762.3021	762.6132	849.2962	858.13	875.9589	942.4452	954.5573	960.4749	969.1573	982.1352	1058.0966	1102.3516	1143.3586	1176.285	1206.5514	1230.1807	1256.0831	1308.9994	1339.2605	1373.2127	1430.8837	1453.2438	1493.1858	1595.3893	1629.7735	1641.5121	3024.6184	3050.6724	3146.0274	3152.1791	3183.2413	3205.5701	3229.2548
C1C=CC2=CN=CC=C12	C1C=Cc2cnccc12	
InChI=1S/C8H7N/c1-2-7-4-5-9-6-8(7)3-1/h1,3-6H,2H2	InChI=1S/C8H7N/c1-2-7-4-5-9-6-8(7)3-1/h1,3-6H,2H2
