17
gdb 28503	3.10459	1.34772	0.9461	4.1639	81.18	-0.2009	-0.0049	0.196	1200.547	0.137086	-418.073949	-418.065594	-418.06465	-418.106304	32.641	
C	-0.0544697299	 1.5126817298	-0.004830181	-0.502384
C	-0.0087637476	 0.0067769122	 0.0031144532	 0.268196
N	-0.0729967984	-0.620515024	-1.1716119588	-0.307563
C	-0.025311131	-1.9495476948	-1.2231581995	-0.087952
C	 0.0895341344	-2.7347793912	-0.0756921453	 0.352135
O	 0.1300555759	-4.0881612565	-0.224670695	-0.440527
C	 0.1520735266	-2.1007177171	 1.1602520094	-0.309984
C	 0.1055601048	-0.7063047797	 1.2163731147	 0.264398
N	 0.2290694064	-0.0322888173	 2.4309046258	-0.593919
H	 0.8328162644	 1.9493746958	 0.4706159587	 0.128057
H	-0.1066638912	 1.8616718431	-1.0367526501	 0.143127
H	-0.932268458	 1.9039301775	 0.529503233	 0.113636
H	-0.0784868321	-2.424233752	-2.198394741	 0.105561
H	 0.2210336896	-4.5012232539	 0.6401677773	 0.296051
H	 0.240570531	-2.6818226543	 2.0760758851	 0.074934
H	-0.0144388915	-0.5756506405	 3.246428716	 0.245089
H	-0.1953612832	 0.8829390229	 2.4560571576	 0.251146
135.8402	176.3839	227.8621	295.3839	318.3857	326.5385	338.4559	365.009	480.8164	483.2369	496.4292	564.6454	599.0013	660.5129	742.7823	757.1527	766.9727	863.2548	899.6696	979.3588	1021.6628	1056.3342	1103.0579	1194.8047	1202.632	1256.9452	1285.6087	1330.5252	1367.9023	1402.8435	1475.9417	1486.8627	1498.9601	1521.7201	1621.7064	1643.0984	1660.1939	3002.6935	3054.0363	3142.9962	3143.1649	3171.7848	3565.0458	3664.3833	3821.1486
CC1=NC=C(O)C=C1N	Cc1ncc(O)cc1N	
InChI=1S/C6H8N2O/c1-4-6(7)2-5(9)3-8-4/h2-3,9H,7H2,1H3	InChI=1S/C6H8N2O/c1-4-6(7)2-5(9)3-8-4/h2-3,9H,7H2,1H3
