20
gdb 83752	2.60619	1.80663	1.30675	2.2467	78.16	-0.2312	0.0737	0.3048	1029.7683	0.171978	-403.116479	-403.108458	-403.107514	-403.148445	32.037	
C	-0.0280624437	 1.5317886342	 0.0367664159	-0.504961
C	-0.05808407	 0.0342028191	 0.0271585888	 0.348937
C	 0.0909665902	-0.9942860472	 1.1076634933	-0.110527
C	-0.754032091	-2.0032528363	 0.2803356344	-0.088766
C	 0.2829898266	-2.8963982881	-0.4042451915	-0.230255
C	 1.4219628375	-1.8830932316	-0.6936127687	-0.16357
N	 1.1960172824	-0.7205213401	 0.196605382	-0.147318
C	-1.1436728818	-0.8136140477	-0.65705932	 0.063564
O	-2.397400868	-0.2315282607	-0.356586759	-0.443433
H	 0.6962413711	 1.8935332125	 0.7710227778	 0.126284
H	 0.2633043876	 1.9229965175	-0.9454186605	 0.115109
H	-1.0169118602	 1.9294506213	 0.2800701303	 0.136843
H	 0.2145109788	-0.9112156231	 2.1812750771	 0.086904
H	-1.5959732391	-2.5084020047	 0.7545592145	 0.06528
H	 0.6214672223	-3.6933863302	 0.2666199946	 0.101028
H	-0.1019824744	-3.366475085	-1.3153465177	 0.095874
H	 2.4092167776	-2.2979495681	-0.4714730383	 0.10734
H	 1.4326918012	-1.5526292208	-1.7370258599	 0.105843
H	-1.0469676734	-0.9928889135	-1.7403375887	 0.053086
H	-3.0852353837	-0.8304026874	-0.6637528045	 0.282739
160.0786	186.5514	236.1513	249.3332	254.6267	274.6664	364.3281	415.935	514.7779	595.6537	693.2667	730.6238	774.2217	831.9314	859.6737	868.8211	913.5836	930.2032	940.9785	963.47	999.1687	1025.4812	1059.3053	1086.6875	1103.3213	1135.729	1161.3667	1185.2725	1203.7906	1212.7165	1235.2201	1247.7739	1266.2771	1314.4866	1330.0716	1337.5121	1388.5774	1416.7176	1449.4794	1483.8256	1488.8433	1493.2665	1512.3411	2961.1781	3032.7203	3038.2744	3052.466	3076.7708	3097.6095	3099.6247	3111.7401	3129.0455	3177.4272	3816.8068
CC12C3C(CCN13)C2O	C[C@]12[C@H]3[C@H](CCN13)[C@H]2O	
InChI=1S/C7H11NO/c1-7-5-4(6(7)9)2-3-8(5)7/h4-6,9H,2-3H2,1H3	InChI=1S/C7H11NO/c1-7-5-4(6(7)9)2-3-8(5)7/h4-6,9H,2-3H2,1H3/t4-,5+,6+,7+,8?/m0/s1
