18
gdb 82024	2.37701	1.49802	1.35518	1.6635	71.59	-0.2443	-0.0285	0.2158	1046.4037	0.145421	-439.04149	-439.032463	-439.031519	-439.075325	33.291	
C	-0.0928916067	 1.7044296172	 0.2460652154	-0.459355
C	 0.0091745675	 0.1882301436	 0.118582693	 0.181862
C	-1.3971948242	-0.3854627327	 0.065902278	 0.127437
O	-1.9589441204	-0.7207968558	-0.9454123083	-0.258656
C	 0.9537534214	-0.419549931	-0.9711091097	 0.042707
O	 1.7680020741	 0.4489856042	-1.7241122865	-0.430192
C	 1.6826183623	-1.1085358293	 0.1698597628	-0.032425
C	 2.1458653001	-0.1346313947	 1.1757615089	-0.244469
N	 0.7322214573	-0.5488375713	 1.2250660264	-0.174393
H	 0.8889223224	 2.1768995298	 0.1851922517	 0.141012
H	-0.7054358088	 2.1099517924	-0.5659198292	 0.131908
H	-0.5590333796	 1.9795663075	 1.1980180452	 0.132319
H	-1.8842347073	-0.4615789875	 1.0626872394	 0.09316
H	 0.4044399807	-1.1150563688	-1.6124100521	 0.100529
H	 1.2801585946	 0.7132773702	-2.5106193417	 0.291021
H	 1.9879644956	-2.1490745432	 0.1791346274	 0.099836
H	 2.7174126448	-0.5244307206	 2.0123319073	 0.126608
H	 2.4140190864	 0.8722871998	 0.8748866018	 0.13109
56.1701	138.3815	158.9639	187.5394	228.7597	275.7037	300.3971	327.6443	405.2009	459.9812	568.5955	582.9939	683.0969	761.4949	785.3014	820.8583	915.9853	925.5072	964.3316	991.5733	1008.2776	1063.6533	1103.417	1111.4762	1142.1851	1151.7434	1190.5075	1203.5566	1238.9451	1250.9348	1308.0938	1368.5868	1394.4388	1408.2327	1451.0086	1481.1633	1490.4375	1510.1182	1826.253	2898.3493	3040.1006	3068.6347	3105.8899	3129.0537	3136.7659	3174.2666	3217.5506	3820.4824
CC1(C=O)C(O)C2CN12	C[C@@]1(C=O)[C@@H](O)[C@H]2CN12	
InChI=1S/C6H9NO2/c1-6(3-8)5(9)4-2-7(4)6/h3-5,9H,2H2,1H3	InChI=1S/C6H9NO2/c1-6(3-8)5(9)4-2-7(4)6/h3-5,9H,2H2,1H3/t4-,5+,6-,7?/m1/s1
