19
gdb 34403	2.27225	1.70182	1.2881	5.0397	78.61	-0.2474	0.0293	0.2767	1057.7967	0.162218	-382.076709	-382.068826	-382.067882	-382.109347	30.583	
N	-0.0470692625	-1.1005847607	 0.0832418485	-0.351259
C	-0.0727113105	 0.0554759138	 0.0839314246	 0.279458
C	-0.0572331806	 1.5184973313	 0.0539788566	 0.140561
C	-0.3396827114	 2.1902352715	-1.3197801928	-0.288907
C	 0.9087752624	 3.0935645479	-1.1232512905	-0.242274
C	 1.360805575	 2.2177661556	 0.0858270876	-0.022084
C	 1.4749145813	 2.8690075456	 1.4766223356	-0.242508
C	 0.1977108586	 2.3834395208	 2.2149226473	-0.174475
N	-0.8064450619	 2.0756226834	 1.184211358	-0.328551
H	-0.2264798658	 1.4874168075	-2.1466976175	 0.131344
H	-1.3184764025	 2.6693699912	-1.4062674621	 0.114074
H	 1.5987637734	 3.1307274843	-1.9677632494	 0.115469
H	 0.6670492104	 4.120434601	-0.8364301998	 0.103682
H	 2.1937134604	 1.556761254	-0.1557743822	 0.092049
H	 2.3875929641	 2.5779430105	 2.003629585	 0.110102
H	 1.4823395941	 3.9608130617	 1.3914548765	 0.102285
H	 0.4141641569	 1.4648260581	 2.7723868725	 0.127201
H	-0.2036803918	 3.1092974916	 2.9260685983	 0.10918
H	-1.2680688294	 2.9279919209	 0.8853109239	 0.224653
74.324	133.4648	155.4567	228.0591	348.6007	364.7019	511.0501	540.8368	579.1571	611.1206	651.645	736.7738	757.1954	810.6457	854.918	890.1911	904.5729	930.1924	949.0187	1011.2037	1024.2998	1053.8648	1066.1753	1102.2334	1148.3812	1167.9114	1215.2569	1220.1667	1239.2682	1258.9829	1268.2547	1305.9663	1318.1931	1322.3772	1359.8739	1455.093	1482.2005	1491.6811	1498.5977	1505.7717	2349.3342	3042.0593	3046.9432	3064.2131	3070.0606	3090.2262	3105.0165	3109.5463	3118.6754	3134.018	3527.807
N#CC12CCC1CCN2	N#C[C@]12CC[C@H]1CCN2	
InChI=1S/C7H10N2/c8-5-7-3-1-6(7)2-4-9-7/h6,9H,1-4H2	InChI=1S/C7H10N2/c8-5-7-3-1-6(7)2-4-9-7/h6,9H,1-4H2/t6-,7+/m0/s1
