23
gdb 101440	2.6089	1.07374	0.8683	2.4119	82.33	-0.2442	0.0597	0.3039	1445.7739	0.203892	-425.410554	-425.399978	-425.399034	-425.446679	38.287	
C	 0.036870949	 1.4744962972	 0.2591259209	-0.391682
C	-0.0795565707	-0.0417634975	 0.0745660657	-0.178291
C	-1.5238000369	-0.5471025982	-0.1031303244	 0.035122
C	-2.1698062133	-0.0738972997	-1.4138025568	-0.409963
C	-1.540743017	-2.0718752745	-0.0403638629	 0.120973
O	-0.9530840708	-2.6058815023	 1.1758599753	-0.294632
C	-2.1584916963	-3.3116505731	 1.5212012806	-0.095543
C	-2.8807188721	-2.7939760202	 0.2585894854	 0.035115
O	-3.957747043	-1.9072767416	 0.463942933	-0.419408
H	 1.0774571262	 1.7670136971	 0.4321011389	 0.10985
H	-0.3160493578	 2.0255091779	-0.6182208164	 0.113956
H	-0.5497070051	 1.8121494241	 1.1210766102	 0.113067
H	 0.5192350488	-0.3542356871	-0.7928198879	 0.084067
H	 0.3518060054	-0.5462124288	 0.9453176781	 0.117589
H	-2.1255539388	-0.1766467402	 0.7357589437	 0.081887
H	-3.1972520616	-0.4371432241	-1.4932999414	 0.128958
H	-2.1973023459	 1.0176260345	-1.4709796679	 0.114769
H	-1.6058083812	-0.4362774125	-2.282463015	 0.10494
H	-1.0210390031	-2.4824498756	-0.9191306863	 0.068259
H	-2.0000466026	-4.3962695519	 1.5786556461	 0.095069
H	-2.5979807408	-2.9539258252	 2.4610793452	 0.100466
H	-3.1418353339	-3.5727036742	-0.4680571912	 0.075994
H	-4.7439373986	-2.4246536242	 0.6632456872	 0.289438
52.4648	74.1905	94.4061	148.2434	210.9478	216.4698	232.6758	255.8391	283.1153	360.7211	387.923	427.083	483.313	554.1736	774.7748	782.2514	835.823	859.7805	892.154	946.8948	977.5416	987.799	1025.163	1035.0622	1055.1115	1067.4828	1125.3598	1147.9181	1159.9487	1179.163	1194.1343	1215.6736	1279.0375	1289.921	1304.8	1310.9459	1345.9579	1353.219	1376.1961	1403.9462	1407.6214	1412.3576	1434.0183	1488.5275	1497.1708	1498.9441	1508.7504	1513.375	1517.243	2985.8251	3006.0311	3008.7476	3026.3184	3027.8818	3032.268	3042.8759	3057.0844	3072.8986	3097.1842	3099.2105	3106.3115	3124.8639	3824.9904
CCC(C)C1OCC1O	CC[C@@H](C)[C@H]1OC[C@H]1O	
InChI=1S/C7H14O2/c1-3-5(2)7-6(8)4-9-7/h5-8H,3-4H2,1-2H3	InChI=1S/C7H14O2/c1-3-5(2)7-6(8)4-9-7/h5-8H,3-4H2,1-2H3/t5-,6-,7-/m1/s1
