19
gdb 87583	2.56746	1.52507	1.31301	3.5331	75.93	-0.2215	0.0671	0.2887	1063.1581	0.159064	-419.118912	-419.110448	-419.109503	-419.151843	32.609	
C	-0.1517668393	 1.4549493881	 0.061356936	-0.309156
N	 0.0152419134	 0.0082983754	 0.0937118305	-0.11722
C	 1.3540634907	-0.5157983239	-0.1823102766	-0.340915
C	 0.777812854	-0.5548602731	 1.1823473236	 0.359282
C	 1.2856329652	 0.133417323	 2.4320434404	-0.171233
N	 0.0941916214	 0.2187617169	 3.3282422728	-0.359447
C	 0.8838495868	-1.0347082327	 3.2677696272	-0.075723
C	 0.3360863606	-1.7873727582	 2.0398168559	 0.060897
O	-1.008893862	-2.1506840853	 2.0481949368	-0.429942
H	 0.7447986105	 2.0120000279	 0.3799793123	 0.093065
H	-0.3996804574	 1.7637613222	-0.9587802819	 0.12219
H	-0.9785031406	 1.7344897305	 0.7205051913	 0.132948
H	 1.3996463798	-1.4162193739	-0.7904746291	 0.118013
H	 2.1551550149	 0.2014097887	-0.3660551824	 0.102508
H	 2.124611293	 0.8058986027	 2.5568261686	 0.099431
H	 0.3776983307	 0.7170702437	 4.1708849311	 0.233683
H	 1.3525692887	-1.4424345607	 4.1543849318	 0.096491
H	 0.9170759012	-2.681455988	 1.7980148579	 0.093077
H	-1.4968678315	-1.3511378633	 2.2846426138	 0.292053
87.6943	142.8065	183.83	191.4982	241.1959	309.8092	406.4093	431.2188	483.1084	519.2702	593.7885	671.6268	747.9154	806.4583	833.356	844.2649	886.8672	907.0693	957.6703	961.9853	1025.6936	1047.0273	1085.2831	1091.3037	1116.1606	1125.5324	1147.1765	1161.9764	1189.6354	1203.7881	1216.9198	1266.8806	1310.1166	1322.1356	1349.7141	1433.0776	1444.6406	1449.5135	1490.4968	1495.3916	1515.1359	2967.0514	3071.8463	3076.6003	3082.5775	3112.9781	3165.6728	3190.2842	3203.0397	3480.8225	3774.8938
CN1CC11C2NC2C1O	CN1C[C@]21[C@H]1N[C@H]1[C@H]2O	
InChI=1S/C6H10N2O/c1-8-2-6(8)4-3(7-4)5(6)9/h3-5,7,9H,2H2,1H3	InChI=1S/C6H10N2O/c1-8-2-6(8)4-3(7-4)5(6)9/h3-5,7,9H,2H2,1H3/t3-,4+,5-,6+,8?/m1/s1
