15
gdb 32192	2.70733	1.32909	0.89645	4.3673	69.88	-0.2395	-0.0536	0.1859	1205.9778	0.113085	-453.984853	-453.976521	-453.975577	-454.018544	29.121	
O	-0.0079998695	 1.4087853948	 0.0068841073	-0.405982
C	 0.0163283495	-0.0038068109	 0.0015867671	-0.190826
C	-1.4056762024	-0.4662075028	 0.0124122921	 0.29887
C	-2.5715795195	 0.2330708171	 0.0239998465	-0.148382
N	-3.6701456875	-0.6221606657	 0.0309855236	-0.267466
C	-3.179705264	-1.8233008481	 0.0236795624	 0.030711
N	-1.7882670151	-1.8140394567	 0.0120309215	-0.134891
C	-0.9716988358	-2.9434977162	 0.0020338324	 0.172963
O	-1.3882501895	-4.070691433	 0.0028069386	-0.277839
H	 0.8996552361	 1.7254179878	-0.0001205871	 0.297772
H	 0.5379608396	-0.3939987377	-0.8898936919	 0.10795
H	 0.5535690205	-0.4004085941	 0.8808767954	 0.107918
H	-2.6875075904	 1.3041643919	 0.027860103	 0.138883
H	-3.7220901959	-2.7551858092	 0.0257600662	 0.165261
H	 0.1024580136	-2.6884944872	-0.006076817	 0.105057
60.7501	143.7174	163.2727	183.3999	214.439	245.9209	280.3116	395.984	575.3245	622.1681	665.5981	695.239	826.1921	850.4767	873.2085	936.8159	1032.554	1053.789	1087.5665	1110.325	1154.4864	1219.434	1252.2367	1254.6276	1274.5612	1330.1462	1404.5792	1449.3695	1482.3619	1520.7854	1537.4901	1626.7513	1828.4611	2940.6008	2955.962	2986.8067	3278.3413	3282.101	3842.3644
OCC1=CN=CN1C=O	OCc1cncn1C=O	
InChI=1S/C5H6N2O2/c8-2-5-1-6-3-7(5)4-9/h1,3-4,8H,2H2	InChI=1S/C5H6N2O2/c8-2-5-1-6-3-7(5)4-9/h1,3-4,8H,2H2
