15
gdb 28028	6.12538	0.89306	0.7837	1.8799	72.92	-0.2078	0.0299	0.2377	1376.9026	0.11246	-416.810587	-416.802197	-416.801253	-416.843936	31.194	
N	 0.6967767987	 1.1953422609	-0.7594272929	-0.588264
C	 0.140317371	 0.0395408843	-0.2751407071	 0.451986
N	-0.915923565	-0.5789644164	-0.706442715	-0.39015
C	-1.0716541124	-1.6336787211	 0.1967397546	 0.260973
C	-2.2079246772	-2.600939334	 0.0435810751	-0.471663
C	-2.2204467496	-3.6563709549	 1.050446188	 0.313967
C	-2.228439738	-4.5243225172	 1.8811186669	-0.454093
C	-0.0877384712	-1.5889190939	 1.117620321	-0.123677
O	 0.7140071521	-0.4963210053	 0.8218800535	-0.186505
H	 1.6886705356	 1.2890804231	-0.598189634	 0.265386
H	 0.4176583858	 1.4009883241	-1.7069175079	 0.271555
H	-3.1550426526	-2.045487734	 0.0748964925	 0.151518
H	-2.1650082649	-3.0441368662	-0.9604799778	 0.150003
H	-2.2430394653	-5.2946296364	 2.6116681301	 0.197142
H	 0.1923372231	-2.1788491829	 1.970350993	 0.151823
48.5938	110.4988	197.4086	267.2149	306.4174	328.4236	344.2821	413.5655	476.8693	587.4454	615.0812	634.0419	647.8609	705.0253	713.022	756.734	778.8227	957.3661	957.7526	974.2838	1016.716	1104.7788	1131.9575	1216.1681	1225.2382	1248.0922	1363.277	1446.9399	1462.0911	1603.6123	1649.5946	1685.4708	2244.5465	3016.1004	3038.6906	3317.0649	3505.8914	3579.0738	3688.3237
NC1=NC(CC#C)=CO1	Nc1nc(CC#C)co1	
InChI=1S/C6H6N2O/c1-2-3-5-4-9-6(7)8-5/h1,4H,3H2,(H2,7,8)	InChI=1S/C6H6N2O/c1-2-3-5-4-9-6(7)8-5/h1,4H,3H2,(H2,7,8)
