18
gdb 54290	2.22348	1.52199	1.13631	2.2692	72.89	-0.2457	-0.0217	0.224	1128.2606	0.145643	-439.130243	-439.120552	-439.119607	-439.165827	35.024	
C	-0.3260531262	 1.5364793307	-0.524378789	-0.490961
C	-0.08621299	 0.0668635105	-0.2350674213	 0.299493
O	 1.007886095	-0.437119026	-0.3729324352	-0.310095
C	-1.2861551646	-0.7751586546	 0.1319262624	 0.136244
C	-1.6279120709	-1.8421574391	-0.9034132469	-0.280061
C	-1.0301575951	-2.2539141026	 0.397690187	-0.296996
C	-2.4650807707	-0.181924268	 0.8724888362	 0.292018
N	-2.1247812786	 0.5686419137	 1.9713961322	-0.52368
O	-3.6222969305	-0.3625388398	 0.5488900069	-0.348068
H	 0.593922179	 1.9848541092	-0.9001689205	 0.140923
H	-1.1268350943	 1.6444656171	-1.2646959601	 0.150207
H	-0.6602208697	 2.0625979433	 0.3741081015	 0.148687
H	-2.6889581725	-1.9930368833	-1.061503982	 0.150848
H	-0.9989288083	-1.8767154158	-1.7850419987	 0.13162
H	 0.0146456466	-2.5410044828	 0.4137160372	 0.145292
H	-1.6721272394	-2.7366105763	 1.1258312375	 0.128247
H	-1.217328124	 0.4606380452	 2.3948561274	 0.263389
H	-2.8838316257	 0.8384868386	 2.5784111754	 0.262892
28.5682	59.084	111.8303	195.224	211.2172	264.26	269.3647	392.4921	406.4577	415.3219	466.0335	558.9026	601.1195	617.4804	664.933	758.8597	801.2633	860.7656	887.1175	941.3676	972.2263	1004.7846	1056.3824	1067.2864	1101.6286	1106.5375	1153.6644	1208.6705	1238.4212	1308.4909	1370.5123	1385.6805	1451.4087	1465.3657	1472.9987	1481.5557	1617.9031	1778.8903	1798.5176	3045.3526	3112.3644	3141.8702	3147.8695	3158.4226	3235.0081	3249.2713	3579.4925	3707.641
CC(=O)C1(CC1)C(N)=O	CC(=O)C1(CC1)C(=O)N	
InChI=1S/C6H9NO2/c1-4(8)6(2-3-6)5(7)9/h2-3H2,1H3,(H2,7,9)	InChI=1S/C6H9NO2/c1-4(8)6(2-3-6)5(7)9/h2-3H2,1H3,(H2,7,9)
