16
gdb 126021	3.03013	1.63719	1.11309	5.3663	70.58	-0.2354	-0.0285	0.2068	1048.3877	0.126371	-434.026139	-434.018844	-434.0179	-434.057906	28.043	
C	-0.2002380321	 1.5635881421	 0.0168752057	-0.400232
C	 0.0561965993	 0.0563224527	 0.0331898093	-0.120101
C	 0.9200811495	-0.4556979999	-1.1760699881	-0.183944
N	 1.7111573914	-1.59940306	-0.6544681303	-0.399259
C	 1.8249217372	-1.4121966515	 0.7038581245	 0.379462
N	 2.5411848933	-1.8778833345	 1.6815001241	-0.241869
O	 2.0125984486	-1.2086924166	 2.8053406384	-0.176284
N	 0.9897676529	-0.3483564641	 2.4581719125	-0.209516
C	 0.8749292268	-0.4699662548	 1.1763989843	 0.339256
H	 0.7405391861	 2.121184571	 0.0518568795	 0.129768
H	-0.7398205941	 1.8552729449	-0.8895442921	 0.122757
H	-0.8009169918	 1.8612444561	 0.8801782201	 0.143224
H	-0.9055526344	-0.4725295849	 0.0227545309	 0.11942
H	 0.3004588856	-0.7735099509	-2.0179295623	 0.124317
H	 1.5775999613	 0.3558076538	-1.5196918153	 0.114359
H	 2.5254819905	-1.8834047933	-1.1786120812	 0.258643
111.3057	179.3794	214.2738	269.5811	338.1665	445.8208	502.4917	513.4971	582.6636	619.2475	681.7635	773.1799	789.7243	821.6504	877.138	905.5394	951.0464	1007.6027	1043.3535	1067.0812	1117.6813	1133.6262	1201.2013	1232.0394	1299.4872	1308.4805	1361.3564	1405.6653	1419.329	1462.8486	1494.7206	1498.1035	1517.8788	1610.6015	1697.206	3000.428	3025.4944	3042.4214	3096.553	3112.9204	3123.6682	3614.3736
CC1CNC2=NON=C12	C[C@H]1CNc2nonc12	
InChI=1S/C5H7N3O/c1-3-2-6-5-4(3)7-9-8-5/h3H,2H2,1H3,(H,6,8)	InChI=1S/C5H7N3O/c1-3-2-6-5-4(3)7-9-8-5/h3H,2H2,1H3,(H,6,8)/t3-/m0/s1
