17
gdb 37150	3.89457	1.88295	1.63467	2.1829	73.93	-0.228	0.0673	0.2953	843.3981	0.137784	-384.549269	-384.543556	-384.542611	-384.578869	25.593	
C	-0.0392515652	 1.5096865881	-0.1332514573	-0.297424
C	 1.3023964704	 0.8205468707	 0.0055536638	-0.034921
C	 0.001533454	 0.0029333816	-0.0652121082	-0.18756
C	 0.3444672587	-0.6970861904	-1.3563043073	 0.494566
O	-0.1011072207	-1.6558319326	-2.3525400783	-0.399839
C	 1.2631336799	-1.2001552568	-2.793844088	-0.014401
C	 1.8378184576	-1.1520108646	-1.3619186717	-0.091589
C	 2.0945790906	 0.3824435398	-1.267585969	-0.122476
C	 1.0227217502	 0.2655498403	-2.372493368	-0.107476
H	-0.4089516683	 2.029697179	 0.7452044802	 0.113585
H	-0.3099393437	 1.9882075736	-1.0676022133	 0.11846
H	 1.8355340163	 0.9122749373	 0.945094729	 0.092839
H	-0.3765620721	-0.540922741	 0.7911974053	 0.102101
H	 1.6292704277	-1.6385014306	-3.7200280125	 0.095266
H	 2.2514991515	-1.9718311928	-0.7755370248	 0.082551
H	 3.0729619159	 0.8340801864	-1.429114653	 0.069803
H	 0.5173848772	 1.0351587519	-2.9528702268	 0.086515
291.198	333.0477	422.8991	513.6748	545.9426	646.4215	683.2616	729.5319	769.7844	793.7594	802.2953	818.7156	861.0525	879.6886	895.9284	909.7685	936.9271	955.3372	1006.4602	1025.3908	1053.0149	1072.9255	1076.5601	1089.5047	1094.8786	1114.6446	1133.669	1171.9725	1181.5028	1209.8727	1220.472	1238.1152	1275.6874	1315.1932	1343.0374	1359.6106	1481.5178	3112.8068	3125.0716	3127.3782	3133.6395	3146.2902	3175.2722	3192.2466	3214.3649
C1C2C1C13OC4C1C2C34	C1[C@H]2[C@@H]1[C@]13O[C@@H]4[C@H]1[C@H]2[C@H]34	
InChI=1S/C8H8O/c1-2-3(1)8-5-4(2)6(8)7(5)9-8/h2-7H,1H2	InChI=1S/C8H8O/c1-2-3(1)8-5-4(2)6(8)7(5)9-8/h2-7H,1H2/t2-,3+,4-,5+,6-,7+,8-/m0/s1
