17
gdb 65489	3.00922	1.21623	1.01932	1.3445	73.03	-0.2734	0.0192	0.2926	1179.1334	0.13558	-417.979375	-417.970874	-417.96993	-418.012694	32.106	
N	 0.297348161	 1.5328059016	-0.3924741043	-0.541858
C	-0.056056367	 0.1900916337	 0.0479392929	 0.130063
C	 0.0779078224	-0.0434516407	 1.5942132293	-0.347397
C	-1.3373821016	-0.6210837867	 1.5775448638	 0.484612
C	-1.8340748316	-1.8547634253	 2.185716738	-0.261559
O	-2.2456358858	-0.5573589809	 2.6512070808	-0.265899
C	-1.5990162901	-0.0669374388	 0.1770271701	-0.347394
C	 0.6120855615	-0.8692209172	-0.7251153045	 0.233591
N	 1.157311705	-1.6706296818	-1.3569425501	-0.342181
H	 1.3032979341	 1.6676964368	-0.3241339874	 0.243879
H	 0.0603344537	 1.6502551774	-1.3747320963	 0.243879
H	 0.8938529958	-0.6809881042	 1.9374591563	 0.126405
H	 0.1142602838	 0.9244854419	 2.1001064642	 0.135069
H	-2.6055332153	-2.4345730887	 1.6813675547	 0.123659
H	-1.1988549246	-2.4148717435	 2.8701653548	 0.123659
H	-2.1196384331	 0.8932007563	 0.2122033143	 0.135069
H	-2.0629243183	-0.7224019397	-0.5613447565	 0.126403
51.5179	166.7784	185.3024	226.3355	297.3173	321.0318	345.7882	418.7966	422.2538	452.5348	592.2055	604.3707	684.3625	799.8043	850.1564	874.768	898.1275	905.0036	912.2031	943.4311	969.2624	1073.4242	1125.6903	1138.1647	1150.7662	1191.4144	1201.5284	1224.665	1257.6635	1282.0588	1304.5205	1440.7556	1457.1001	1482.5173	1539.8208	1657.6022	2338.037	3072.1478	3076.1128	3085.878	3139.811	3139.8537	3175.5059	3479.1821	3557.2553
NC1(CC2(CO2)C1)C#N	N[C@]1(C[C@]2(CO2)C1)C#N	
InChI=1S/C6H8N2O/c7-3-5(8)1-6(2-5)4-9-6/h1-2,4,8H2	InChI=1S/C6H8N2O/c7-3-5(8)1-6(2-5)4-9-6/h1-2,4,8H2/t5-,6+
