19
gdb 107285	3.32992	1.36315	1.18669	2.6549	74.64	-0.2391	0.054	0.2931	1113.7347	0.158731	-422.957943	-422.949916	-422.948972	-422.990708	30.861	
C	-0.0577240404	 1.5272002802	 0.2538692621	-0.377678
C	 0.0126852496	 0.0320755056	-0.0889078644	-0.31647
C	-1.3449402453	-0.5860645026	-0.2070366612	 0.432031
O	-2.0957067686	-0.8112889931	 0.993011617	-0.274385
C	-1.8990822137	-1.9223892726	 0.1148437697	-0.08365
C	-2.9585067488	-1.8269271714	-1.0104213582	-0.12702
C	-4.2483444698	-1.0396564152	-0.6787728026	-0.082254
O	-3.6223780612	 0.221585481	-1.0369332927	-0.2864
C	-2.3912666296	-0.4352899247	-1.3662200688	 0.037367
H	 0.9452398909	 1.9568285864	 0.329908207	 0.113419
H	-0.6065627363	 2.0840401689	-0.5124311449	 0.126694
H	-0.570694774	 1.6787096612	 1.2076359302	 0.138482
H	 0.5497946959	-0.1121048034	-1.0349685304	 0.102623
H	 0.5751418936	-0.5059390664	 0.682603855	 0.111226
H	-1.4312912764	-2.806996532	 0.5336992924	 0.104197
H	-3.0000044614	-2.6474101301	-1.7238027463	 0.086504
H	-5.0937204182	-1.2575629031	-1.3412606048	 0.099334
H	-4.5698974448	-1.0551414532	 0.3661067555	 0.117414
H	-1.9857960315	-0.1602904257	-2.3441343445	 0.078564
76.9518	115.8274	192.475	233.4351	285.7709	335.1688	359.5934	496.4073	589.4295	670.3622	727.6983	772.5373	814.1186	837.1494	861.6221	894.855	916.909	959.8297	977.5756	994.2647	999.9058	1034.8962	1059.6859	1075.9955	1105.1527	1159.121	1169.1074	1185.6401	1218.5195	1243.546	1275.5461	1289.3607	1312.8112	1348.9895	1355.8037	1409.9518	1453.1545	1472.5263	1497.8044	1503.5505	1508.6785	3027.275	3032.0833	3041.6735	3068.2056	3072.0587	3096.1107	3111.0615	3121.5931	3137.9943	3174.9312
CCC12OC1C1COC21	CC[C@]12O[C@H]1[C@H]1CO[C@@H]21	
InChI=1S/C7H10O2/c1-2-7-5-4(3-8-5)6(7)9-7/h4-6H,2-3H2,1H3	InChI=1S/C7H10O2/c1-2-7-5-4(3-8-5)6(7)9-7/h4-6H,2-3H2,1H3/t4-,5+,6-,7+/m0/s1
