21
gdb 93917	2.91324	1.11858	0.9575	3.8113	78.67	-0.238	-0.005	0.233	1313.6151	0.181891	-424.262422	-424.252853	-424.251909	-424.298271	35.164	
C	 0.4145473875	 1.3332422389	 0.0574132217	-0.47739
C	-0.1557410486	-0.0764431726	 0.0521927792	 0.369032
O	-0.5854533813	-0.5838188699	 1.062447956	-0.291475
C	-0.1512152893	-0.798755623	-1.2937291235	-0.077119
C	 1.2827403523	-1.0066267895	-1.864527065	-0.216898
C	 1.1229457111	-2.2419502983	-2.7607557997	-0.233647
C	 0.2244487602	-3.1659899865	-1.9215241026	 0.124543
O	 0.9624506716	-3.7811499346	-0.8664649345	-0.434813
C	-0.7893596631	-2.2110689804	-1.2635822162	-0.231916
H	 1.4750615673	 1.3170795534	-0.2167309394	 0.142579
H	-0.0952405933	 1.9578300881	-0.6846518952	 0.132622
H	 0.3032375338	 1.7717347499	 1.0496712544	 0.140327
H	-0.6969061155	-0.1520813699	-1.9938483276	 0.082958
H	 1.6634622055	-0.1299452663	-2.39419749	 0.095836
H	 1.9770186179	-1.2406175303	-1.0506637465	 0.118423
H	 0.6072048276	-1.9737366274	-3.6917518794	 0.095616
H	 2.0742632893	-2.7115410301	-3.0341847109	 0.08616
H	-0.2704156873	-3.9327515591	-2.5337570937	 0.057823
H	 1.6377918977	-4.3396883541	-1.2651285871	 0.278176
H	-0.982953778	-2.5241002566	-0.236296946	 0.1447
H	-1.7391871854	-2.2225889114	-1.8040533741	 0.094463
28.3646	43.552	108.1839	185.5884	208.1178	290.8277	327.2309	352.3914	401.915	424.7099	528.3164	582.3609	604.6339	708.2074	772.2279	848.0726	863.519	910.113	922.955	948.0908	977.2638	996.7745	1011.3452	1042.7183	1061.1353	1102.8134	1168.1102	1181.6497	1201.3679	1214.0137	1247.9194	1290.1948	1306.8968	1335.315	1339.9278	1347.0952	1372.4145	1383.604	1421.4091	1464.0198	1476.8291	1478.358	1483.7974	1495.7234	1809.2272	2997.1321	3012.4477	3028.4518	3038.1433	3049.843	3072.8756	3074.7462	3098.6008	3104.6554	3131.5727	3151.8357	3811.5146
CC(=O)C1CCC(O)C1	CC(=O)[C@H]1CC[C@@H](O)C1	
InChI=1S/C7H12O2/c1-5(8)6-2-3-7(9)4-6/h6-7,9H,2-4H2,1H3	InChI=1S/C7H12O2/c1-5(8)6-2-3-7(9)4-6/h6-7,9H,2-4H2,1H3/t6-,7+/m0/s1
