23
gdb 99842	1.69152	1.44735	1.18632	1.298	87.1	-0.2603	0.0511	0.3114	1264.6685	0.20186	-388.259362	-388.247928	-388.246983	-388.295182	42.497	
C	-0.0793365137	 1.5694573467	 0.0704982775	-0.409451
C	-0.0156636833	 0.0362933128	 0.0060547055	 0.040922
C	-1.4254029168	-0.5564684076	 0.1455647324	-0.412354
C	 0.736406747	-0.4814211852	-1.2729145664	 0.056572
C	 2.2062652466	 0.0048965168	-1.278690197	-0.42346
C	 0.7381279043	-2.0299112781	-1.3173962578	-0.103607
O	 1.2985916649	-2.5124824068	-0.1054868927	-0.427535
C	 0.0661705558	-0.0226063621	-2.4938981651	 0.345345
C	-0.4763957731	 0.33501391	-3.5063547269	-0.494482
H	 0.9121112906	 2.0291577326	 0.0881949904	 0.112048
H	-0.6256417941	 1.9772934953	-0.7863509949	 0.124696
H	-0.6003483778	 1.8835487224	 0.9805944863	 0.108036
H	 0.5813450985	-0.3207152859	 0.8520189294	 0.092893
H	-2.0361846954	-0.3413835312	-0.7379662841	 0.121738
H	-1.3976710099	-1.6387577117	 0.2934692283	 0.11716
H	-1.9304299757	-0.1212863931	 1.0137642846	 0.107063
H	 2.715857356	-0.3506958539	-0.3798311349	 0.130443
H	 2.7310089825	-0.3913701136	-2.1529506146	 0.114994
H	 2.2697282853	 1.0931525014	-1.3196677856	 0.123058
H	-0.2859404433	-2.3980920594	-1.4599056363	 0.099045
H	 1.3297677439	-2.3512156917	-2.1871393779	 0.094109
H	 1.3378737799	-3.4716809991	-0.1532203819	 0.290947
H	-0.9538569821	 0.6584498114	-4.3980629781	 0.191821
59.1806	125.2985	141.2915	157.573	204.2843	207.2956	222.1504	237.0692	258.6212	310.9937	357.4913	389.6821	398.6165	442.9532	494.4372	549.9097	597.8354	624.8701	636.812	665.703	856.0819	912.3954	931.3894	943.342	966.0401	976.4387	1067.427	1077.2235	1097.4917	1166.3219	1183.2509	1197.9742	1207.387	1269.9132	1284.9005	1347.3845	1360.588	1394.9589	1401.6762	1419.8604	1450.3038	1486.1359	1489.2371	1492.9456	1501.9501	1509.6465	1514.4244	1534.7955	2225.7017	2993.4998	3034.378	3037.7239	3041.1138	3050.8573	3053.1768	3099.4804	3106.0253	3115.4106	3120.2343	3122.023	3144.3483	3500.7721	3838.0412
CC(C)C(C)(CO)C#C	CC(C)[C@@](C)(CO)C#C	
InChI=1S/C8H14O/c1-5-8(4,6-9)7(2)3/h1,7,9H,6H2,2-4H3	InChI=1S/C8H14O/c1-5-8(4,6-9)7(2)3/h1,7,9H,6H2,2-4H3/t8-/m1/s1
