16
gdb 51918	11.39287	0.51006	0.49237	3.4861	76.7	-0.2619	-0.0306	0.2313	2075.4063	0.120864	-437.866423	-437.856606	-437.855662	-437.902386	33.255	
O	 0.1224952072	 0.2373793212	-0.5200779204	-0.249297
C	 0.6516017963	 1.2968556938	-0.4047356207	 0.178986
O	 0.5342151019	 2.0156034472	 0.7628181211	-0.20598
C	 1.0255764064	 3.2954520817	 0.816010595	 0.152974
N	 1.2743385568	 3.9788837759	-0.2053163578	-0.239178
C	 1.7936959646	 5.3298846274	-0.1160500562	-0.125183
C	 2.0231478048	 5.9289365521	 1.2903583538	-0.392626
C	 2.5419875958	 7.2863974282	 1.2032130801	 0.274758
C	 2.9693884665	 8.40370036	 1.0897852689	-0.401122
H	 1.2773972467	 1.8042763618	-1.1494066635	 0.131325
H	 1.1267140443	 3.5857230339	 1.8632362726	 0.123093
H	 2.7382409452	 5.3558944255	-0.6713693538	 0.136939
H	 1.1080713415	 5.9795325843	-0.6717479618	 0.138637
H	 1.081293266	 5.9307585038	 1.8542446292	 0.139628
H	 2.7261106514	 5.3020557947	 1.8543256839	 0.137615
H	 3.3471931245	 9.3926499186	 1.0071066394	 0.19943
43.6486	79.9414	86.4616	114.0872	187.5524	195.7268	211.5785	323.1437	366.786	461.3504	466.8686	561.3302	628.7037	649.6977	762.5179	774.4989	971.055	980.6718	989.19	1028.675	1044.7704	1078.7596	1095.4437	1195.6625	1228.473	1296.3467	1319.7215	1386.4244	1394.1494	1411.7677	1475.7115	1486.4913	1758.3778	1874.8387	2241.9629	3015.3319	3043.6417	3046.5705	3076.6282	3077.3765	3114.7139	3506.5669
O=COC=NCCC#C	O=COC=NCCC#C	
InChI=1S/C6H7NO2/c1-2-3-4-7-5-9-6-8/h1,5-6H,3-4H2	InChI=1S/C6H7NO2/c1-2-3-4-7-5-9-6-8/h1,5-6H,3-4H2
