23
gdb 109395	2.82854	1.0816	0.85093	1.4643	88.26	-0.2206	0.0328	0.2534	1430.1526	0.207248	-388.304223	-388.294859	-388.293915	-388.338419	35.772	
O	 0.0607062823	 1.4444199562	 0.2208435829	-0.413398
C	 0.0274284905	 0.0376673396	 0.0899793288	-0.153772
C	-1.3873163384	-0.4726538412	-0.0161203115	 0.287581
C	-2.4339878615	 0.3529188949	 0.0126070278	-0.139936
C	-3.8850237972	-0.0563523175	-0.0813085154	-0.251233
C	-4.2621895298	-0.8555032328	-1.3437013139	-0.173587
C	-3.7535513665	-2.3029333578	-1.3656501636	-0.176557
C	-2.2292981535	-2.4787242587	-1.4029717453	-0.174325
C	-1.488807313	-1.9793897473	-0.1477728471	-0.297149
H	 0.9798182531	 1.7158385309	 0.2901128361	 0.288184
H	 0.5896463737	-0.2927330637	-0.8031560329	 0.089998
H	 0.5143869101	-0.4546981521	 0.9520331025	 0.090716
H	-2.22956456	 1.4134835809	 0.1164029887	 0.101849
H	-4.1684985035	-0.6492154099	 0.8023564088	 0.098569
H	-4.5047024498	 0.8455812036	-0.0418201915	 0.094281
H	-5.3562161473	-0.8771516748	-1.4250396715	 0.086425
H	-3.8951194638	-0.321058309	-2.2292398057	 0.093434
H	-4.1477684716	-2.8302971972	-0.4845270307	 0.087669
H	-4.1831702006	-2.8119021502	-2.2375459343	 0.08815
H	-2.0115246377	-3.5467398049	-1.5286047972	 0.087226
H	-1.8195772315	-1.9724379753	-2.2865422768	 0.093137
H	-0.4772225571	-2.4044102174	-0.1480514563	 0.087552
H	-1.9823643468	-2.3961348065	 0.742789938	 0.105185
62.1795	122.7762	165.7817	206.6757	226.358	248.2199	323.4909	335.7596	351.9707	455.7854	490.4765	520.3049	640.3322	734.64	798.652	820.6411	857.914	872.6209	895.7801	957.0285	980.3471	1020.1353	1043.4645	1062.0312	1086.3369	1102.9931	1113.5772	1138.8521	1180.431	1226.5029	1242.5979	1248.5255	1261.8192	1290.0589	1305.4874	1350.121	1363.4055	1372.8336	1390.6873	1395.3032	1400.2934	1455.9464	1479.137	1481.7289	1482.6268	1487.355	1497.1764	1506.2827	1745.4206	2926.1137	2937.9108	2987.3892	2997.6017	3000.5098	3013.434	3015.1642	3041.6999	3047.6121	3053.4797	3060.1954	3063.5251	3185.0102	3842.8007
OCC1=CCCCCC1	OCC1=CCCCCC1	
InChI=1S/C8H14O/c9-7-8-5-3-1-2-4-6-8/h5,9H,1-4,6-7H2	InChI=1S/C8H14O/c9-7-8-5-3-1-2-4-6-8/h5,9H,1-4,6-7H2
