14
gdb 29178	2.29363	1.88056	1.03728	6.435	67.8	-0.2085	-0.0209	0.1875	1058.5985	0.101371	-470.030844	-470.022874	-470.02193	-470.063456	29.443	
N	 0.1342601236	 1.3864095964	 0.0721863402	-0.602473
C	-0.0019770453	 0.0006887943	-0.003310001	 0.281426
C	-1.065483503	-0.8060515122	 0.0452407168	-0.110429
O	-0.6650650329	-2.1350849674	 0.049485166	-0.228633
C	 0.7081528694	-2.1757569545	-0.048828168	 0.48635
N	 1.4275920118	-3.2054917905	-0.116291755	-0.544153
N	 1.1451619342	-0.8314568584	-0.0530687379	-0.18409
C	 2.4636556744	-0.376051631	 0.0206354335	 0.159218
O	 3.4446404608	-1.0662625595	-0.0127078771	-0.266125
H	 0.5246657878	 1.7990059279	-0.7698231099	 0.26052
H	-0.747983396	 1.8348000948	 0.2832231172	 0.261414
H	-2.1229224213	-0.6154043893	 0.0876805909	 0.148505
H	 0.8449972798	-4.0401604617	-0.0810524345	 0.234074
H	 2.4828665167	 0.7219994112	 0.1242050588	 0.104396
83.1209	173.1552	217.5855	236.6587	256.5453	318.0014	344.7515	464.8432	551.4703	597.7417	641.6276	690.2116	729.8073	757.7582	791.7361	798.7157	805.0997	993.3555	1021.6172	1095.693	1097.7065	1172.0325	1207.7162	1282.2479	1359.5377	1422.1025	1450.681	1639.8202	1736.8401	1781.3385	1846.0972	2995.1304	3300.773	3501.8753	3520.2481	3612.9966
NC1=COC(=N)N1C=O	NC1=CO[C@H]([NH])N1C=O	
InChI=1S/C4H5N3O2/c5-3-1-9-4(6)7(3)2-8/h1-2,6H,5H2	InChI=1S/C4H6N3O2/c5-3-1-9-4(6)7(3)2-8/h1-2,4,6H,5H2/t4-/m1/s1
