20
gdb 104628	2.39384	1.27493	1.00155	4.2582	79.79	-0.2727	0.0139	0.2867	1283.5266	0.169182	-403.159921	-403.150178	-403.149234	-403.194773	35.509	
C	-0.3189443686	 1.4436746607	-0.1891421593	-0.396657
C	 0.0250572271	-0.0452072016	-0.1023347305	-0.233924
C	 0.8766257825	-0.534298887	-1.2745401924	 0.276883
C	 1.007634023	-2.067942096	-1.4860077147	-0.359079
C	 0.4378490963	-1.7849984138	-2.8929176706	 0.165133
C	-0.8223948687	-2.4960981759	-3.3328736438	-0.402468
O	 0.1957302452	-0.3913275129	-2.5421069327	-0.320067
C	 2.1801042295	 0.1596907663	-1.3055458602	 0.269272
N	 3.2066849674	 0.6908388562	-1.3206686111	-0.346188
H	 0.5821897492	 2.0623244891	-0.1424435791	 0.141888
H	-0.8344321336	 1.6623244605	-1.1282406878	 0.141143
H	-0.9727288922	 1.7346923019	 0.6374720159	 0.11849
H	 0.559870332	-0.2685787283	 0.8290613143	 0.11557
H	-0.8908842088	-0.6459720568	-0.1038236522	 0.105865
H	 2.01333741	-2.482990718	-1.4330231481	 0.132058
H	 0.3365189087	-2.6360870532	-0.8385074704	 0.117645
H	 1.2037549701	-1.8407425807	-3.6771019841	 0.093295
H	-1.5859894984	-2.4603938631	-2.5500115887	 0.121202
H	-1.2298487137	-2.0264827833	-4.2334724056	 0.135999
H	-0.6051915971	-3.544603234	-3.5639622589	 0.123941
55.7983	94.8054	154.7304	166.1476	197.1941	227.5092	250.3003	334.8068	364.4349	401.1864	437.0842	538.4096	590.834	638.5975	749.5255	791.8929	867.3736	897.518	914.4497	942.7122	966.1276	1018.0874	1051.2678	1076.8271	1107.2506	1143.7213	1182.2886	1193.6838	1235.2122	1257.5316	1306.797	1319.9673	1362.7642	1393.7159	1410.5482	1413.9156	1470.3829	1482.1942	1487.1783	1495.0363	1497.4614	1507.975	2348.5959	3022.3647	3033.4064	3035.9033	3047.0504	3076.2569	3082.4385	3109.1494	3116.3627	3119.1254	3126.0136	3150.5547
CCC1(CC(C)O1)C#N	CC[C@]1(C[C@@H](C)O1)C#N	
InChI=1S/C7H11NO/c1-3-7(5-8)4-6(2)9-7/h6H,3-4H2,1-2H3	InChI=1S/C7H11NO/c1-3-7(5-8)4-6(2)9-7/h6H,3-4H2,1-2H3/t6-,7+/m1/s1
