17
gdb 79106	2.57286	2.0552	1.55351	3.6429	71.61	-0.2081	0.0175	0.2256	896.0626	0.137822	-417.988503	-417.981338	-417.980393	-418.019848	28.559	
C	-0.0098587105	 1.5500777211	-0.0519555202	-0.327685
N	 0.1315188915	 0.0992290615	-0.0407404455	-0.071965
C	 0.6675156867	-0.5917747586	-1.1962782418	-0.047472
C	 2.21751306	-0.6406727211	-1.174737782	-0.024345
N	 2.9257262373	 0.2570552527	-0.3084113866	-0.309959
C	 2.3522614813	 0.3114694206	 0.9482874352	 0.404454
O	 2.6687675191	 1.0493905117	 1.8547410494	-0.385497
C	 1.1233266567	-0.6048960688	 0.8519425998	-0.139093
C	 1.4140553944	-1.57215452	-0.3204878911	-0.122515
H	 0.9001638062	 2.1041343839	-0.3281663461	 0.10529
H	-0.7966366806	 1.8083459976	-0.7684318632	 0.120508
H	-0.3279718784	 1.8867648513	 0.9385732849	 0.138298
H	 0.0851980931	-0.7340943519	-2.1010207131	 0.100176
H	 2.7469326052	-1.0171576387	-2.0416384077	 0.109249
H	 3.4671783515	 1.0396512319	-0.6424523428	 0.250505
H	 0.7230601535	-0.9468521627	 1.8045942176	 0.093057
H	 1.4538446131	-2.6515900703	-0.306517737	 0.106994
143.1263	154.3317	208.0601	318.659	405.6856	457.8508	479.1437	590.2	617.748	674.5116	739.0972	752.574	790.5197	816.7587	874.6456	890.7093	914.5961	979.8526	984.5438	1039.9358	1055.1198	1080.6205	1114.1567	1155.7625	1184.9806	1205.3685	1218.2006	1241.8731	1245.92	1277.4856	1338.8726	1364.9722	1416.7427	1447.3672	1482.8119	1503.7773	1824.0052	2986.6079	3070.4164	3115.2442	3133.4768	3162.7234	3188.9204	3220.7421	3628.0146
CN1C2C3NC(=O)C1C23	CN1[C@H]2[C@H]3NC(=O)[C@@H]1[C@@H]23	
InChI=1S/C6H8N2O/c1-8-4-2-3(4)7-6(9)5(2)8/h2-5H,1H3,(H,7,9)	InChI=1S/C6H8N2O/c1-8-4-2-3(4)7-6(9)5(2)8/h2-5H,1H3,(H,7,9)/t2-,3+,4-,5+/m1/s1
