19
gdb 55380	2.52395	1.54842	0.98297	3.2818	79.44	-0.2324	-0.0053	0.2271	1200.0583	0.159259	-419.268017	-419.258765	-419.257821	-419.302734	33.13	
C	-0.0069167739	-0.8340607427	 1.2926100444	-0.492234
C	 0.0506090537	 0.0426105995	 0.0525933478	 0.388189
O	 0.0393908362	 1.2562725455	 0.1237986043	-0.353426
N	 0.1162406765	-0.6401427329	-1.1497295537	-0.149991
C	 0.1331585564	-2.1050698686	-1.2898283306	-0.198794
C	 0.2138862974	-2.2775580314	-2.8297586256	-0.180307
N	 0.2337101031	-0.9300112713	-3.4015949036	-0.286445
C	 0.179192325	-0.0794144106	-2.4527065233	 0.378767
C	 0.180733259	 1.3963611888	-2.6838136924	-0.455276
H	-0.8852373361	-1.4875861238	 1.2797508699	 0.140734
H	 0.8762695193	-1.4765287915	 1.3694597191	 0.140739
H	-0.0553258523	-0.1801763099	 2.1625437354	 0.149811
H	 0.9953221625	-2.5380197249	-0.773166399	 0.121285
H	-0.7719653	-2.5496268954	-0.8645418679	 0.121276
H	 1.114188829	-2.8213543229	-3.135472043	 0.119087
H	-0.6422122397	-2.8340471739	-3.226128742	 0.11909
H	 0.2340796086	 1.5664152399	-3.759739839	 0.135104
H	-0.7175957297	 1.8596117523	-2.2700517828	 0.15118
H	 1.0262458849	 1.8715943536	-2.1817487481	 0.151212
41.9331	93.5829	147.9645	163.8642	217.4027	234.3411	249.755	342.2961	418.1247	498.447	576.2533	621.1333	639.5936	678.597	788.4235	840.3845	944.4564	953.8136	981.5467	1049.4435	1064.0061	1070.6193	1072.0446	1111.1602	1167.6808	1218.2745	1256.6763	1278.2558	1330.5868	1352.2888	1376.3755	1407.1172	1420.3336	1456.7876	1465.9662	1472.7543	1483.6183	1499.5491	1524.1789	1722.6983	1777.8226	3035.2596	3043.2615	3045.7701	3060.7333	3065.7057	3085.2178	3105.6195	3131.7144	3159.4666	3163.5857
CC(=O)N1CCN=C1C	CC(=O)N1CCN=C1C	
InChI=1S/C6H10N2O/c1-5-7-3-4-8(5)6(2)9/h3-4H2,1-2H3	InChI=1S/C6H10N2O/c1-5-7-3-4-8(5)6(2)9/h3-4H2,1-2H3
