23
gdb 95356	2.69406	1.47963	1.06322	0.2663	91.39	-0.2234	0.0277	0.251	1220.5788	0.208737	-351.189745	-351.181453	-351.180508	-351.222566	33.22	
C	-0.1052075221	 1.5447072264	 0.0944254925	-0.386711
C	 0.005106644	 0.0158115335	 0.0084009355	-0.103674
C	 0.8019440584	-0.4835333304	-1.2471625995	-0.220331
C	 2.1679603565	-0.9941695533	-0.723230543	-0.234298
C	 1.8113956771	-1.5766191853	 0.6547660723	-0.037651
C	 2.8334414892	-1.628310394	 1.8073770718	-0.243305
C	 2.0202211733	-1.1875749677	 3.0602625681	-0.242718
C	 0.8978183119	-0.3585002655	 2.4614378264	-0.252303
C	 0.7784393144	-0.5887649372	 1.1556344768	 0.391533
H	 0.8866647754	 2.0089153615	 0.0928405518	 0.114962
H	-0.6705294111	 1.9449667052	-0.753832557	 0.108423
H	-0.6142794342	 1.853197076	 1.0131126214	 0.114357
H	-1.0129414966	-0.3932203909	-0.0256354395	 0.081173
H	 0.2613757061	-1.3091641837	-1.7229311104	 0.096377
H	 0.9083190199	 0.3009590105	-2.0026107432	 0.093367
H	 2.638416596	-1.7072864241	-1.4066626749	 0.090242
H	 2.8624942645	-0.1545321071	-0.5932909069	 0.094949
H	 1.3459691862	-2.5649610878	 0.507992211	 0.068092
H	 3.3095551215	-2.6049868128	 1.930375529	 0.090063
H	 3.6282654279	-0.8967297969	 1.6198482232	 0.097517
H	 1.6266714076	-2.0553291356	 3.6103191346	 0.100245
H	 2.6284421044	-0.6239956332	 3.777076147	 0.097271
H	 0.2963685296	 0.3253514421	 3.0509512231	 0.082417
68.3355	168.9708	172.4782	249.9883	280.313	324.2969	396.0001	453.9779	563.4618	566.7493	616.0857	698.6416	783.378	813.4074	833.1043	869.9079	897.8879	913.393	946.751	948.5305	965.9155	992.1958	1023.5543	1033.5116	1076.6346	1106.9372	1109.9006	1143.9409	1182.2593	1189.0919	1217.266	1231.542	1267.1552	1272.7659	1297.2378	1311.9853	1319.3579	1336.0836	1343.556	1357.2685	1362.2902	1407.6571	1484.4519	1489.1236	1494.3195	1499.4868	1500.5867	1503.4158	1726.8847	2964.8993	2996.5108	3009.2503	3027.6443	3029.6304	3035.8933	3042.8416	3054.4025	3080.4129	3089.96	3093.4194	3099.5436	3102.9653	3185.4747
CC1CCC2CCC=C12	C[C@H]1CC[C@H]2CCC=C12	
InChI=1S/C9H14/c1-7-5-6-8-3-2-4-9(7)8/h4,7-8H,2-3,5-6H2,1H3	InChI=1S/C9H14/c1-7-5-6-8-3-2-4-9(7)8/h4,7-8H,2-3,5-6H2,1H3/t7-,8+/m0/s1
