14
gdb 17871	3.35843	2.21968	2.09902	2.2576	61.88	-0.2396	-0.0231	0.2165	721.8847	0.10838	-382.533576	-382.527559	-382.526615	-382.563574	23.649	
O	 0.0503668343	-0.0042404099	-0.0002685244	-0.303923
C	 0.0137263958	 1.1846521967	 0.0407502364	 0.431965
C	-1.0691572609	 2.2869590245	 0.0267641996	-0.036149
C	-1.2897863669	 2.8574865082	 1.4381550154	-0.268741
C	 0.0647835288	 3.1298275379	 2.0608884594	-0.069026
C	 1.1792168482	 2.8760599591	 1.370718198	-0.053237
C	 0.998792669	 2.3702067883	-0.0473371174	-0.082758
O	-0.0913548888	 3.1111834118	-0.674232446	-0.291263
H	-1.9858009047	 2.1311624317	-0.5468077666	 0.104158
H	-1.8960956807	 3.7716815667	 1.3934120477	 0.124214
H	-1.8556905575	 2.1360467199	 2.0425029909	 0.127146
H	 0.0977101273	 3.5313976626	 3.0691728864	 0.106781
H	 2.1743286724	 3.008366784	 1.7800104537	 0.107512
H	 1.8992828038	 2.3259059885	-0.6601458831	 0.103321
144.3449	229.6812	362.9395	442.2212	491.2689	546.2743	569.3922	668.4344	774.4945	793.4298	871.6341	886.9427	916.8224	946.444	967.5136	985.5863	1002.8132	1054.0979	1090.9609	1128.5149	1166.0803	1201.7016	1258.1526	1275.8582	1318.0303	1357.6581	1388.3213	1469.3929	1686.6026	1922.0532	3017.4599	3048.5778	3095.1416	3121.7666	3172.3209	3200.4014
O=C1C2CC=CC1O2	O=C1[C@H]2CC=C[C@@H]1O2	
InChI=1S/C6H6O2/c7-6-4-2-1-3-5(6)8-4/h1-2,4-5H,3H2	InChI=1S/C6H6O2/c7-6-4-2-1-3-5(6)8-4/h1-2,4-5H,3H2/t4-,5+/m0/s1
