23
gdb 106597	4.26523	0.87531	0.86823	1.2084	87.15	-0.2621	0.0757	0.3378	1477.7046	0.205237	-388.246931	-388.237295	-388.236351	-388.281493	36.584	
C	-0.0344045047	 1.5116658799	 0.0396909685	-0.379767
C	 0.0360023886	-0.0156760511	-0.0699855522	-0.306671
C	 0.7408888162	-0.4983823516	-1.3135145757	 0.354885
C	 2.2189116447	-0.2154836821	-1.7438072599	-0.312204
C	 1.6249996938	-1.1146270726	-2.864238262	 0.365021
C	 2.3289924504	-1.6024708286	-4.0967856214	-0.219081
O	 1.4103429783	-2.3843872288	-4.8488463458	-0.421831
C	 0.9908160705	-1.9791239022	-1.7357986035	-0.300415
C	 0.3469899321	-0.2284947998	-2.8017406072	-0.28591
H	 0.9674149487	 1.9535838287	 0.060795213	 0.116984
H	-0.5701079993	 1.9448144291	-0.8115103994	 0.118375
H	-0.5538052066	 1.8187361803	 0.9525496368	 0.110434
H	 0.5480783403	-0.4261077334	 0.8106259806	 0.094738
H	-0.9792697023	-0.4340616439	-0.0546425446	 0.09671
H	 2.4650578627	 0.8140137422	-2.0220223867	 0.084164
H	 3.0026940418	-0.6591923972	-1.1211967786	 0.082402
H	 2.690342011	-0.7382976314	-4.6790336532	 0.083388
H	 3.2132488825	-2.1932615628	-3.8047419693	 0.083543
H	 1.8605538058	-2.6977655421	-5.6385588299	 0.287407
H	 1.6829700335	-2.5552782982	-1.113007899	 0.078938
H	 0.1114407171	-2.5677561887	-2.0097160574	 0.093936
H	-0.5791943278	-0.687366409	-3.157268739	 0.094197
H	 0.4499622627	 0.8003457835	-3.1608027641	 0.080759
69.7214	92.5417	133.2903	161.626	211.8128	237.861	288.2115	336.0001	411.2069	428.5662	542.9415	554.783	610.0673	662.6654	754.9098	792.6681	825.7345	924.7883	946.6987	960.8584	972.266	993.5223	1002.2686	1051.7291	1063.0607	1085.7879	1092.0882	1112.7062	1138.277	1141.1911	1150.6931	1168.7607	1182.0125	1196.7812	1253.7966	1277.7846	1305.2209	1306.4163	1336.729	1381.1747	1410.0594	1465.7971	1480.0247	1495.3074	1496.4195	1498.7662	1507.1818	1512.0499	1561.3554	2954.5341	2981.7951	3012.4027	3032.9342	3034.3002	3038.8321	3043.2982	3048.2808	3097.6029	3102.1807	3104.7318	3108.5601	3112.7128	3830.2574
CCC12CC(CO)(C1)C2	CC[C@@]12C[C@@](CO)(C1)C2	
InChI=1S/C8H14O/c1-2-7-3-8(4-7,5-7)6-9/h9H,2-6H2,1H3	InChI=1S/C8H14O/c1-2-7-3-8(4-7,5-7)6-9/h9H,2-6H2,1H3/t7-,8-
