17
gdb 72953	2.63196	1.53741	1.22065	3.2271	73.47	-0.2307	0.0192	0.2499	1050.7727	0.135261	-417.967518	-417.958836	-417.957891	-418.000381	32.814	
C	 0.0239453928	 1.5449195692	-0.02953827	-0.480059
C	 0.0638192658	 0.0283880796	 0.0647614542	 0.080328
C	-1.115557644	-0.6508237012	-0.4089747448	 0.221135
N	-2.0719268489	-1.2218002769	-0.7280137039	-0.349486
C	 1.3440612297	-0.8056784311	-0.1688763137	-0.13781
N	 2.4826792603	 0.0042293298	 0.2978508326	-0.336156
C	 1.9614896559	-0.0903143837	 1.7085814275	-0.248982
C	 0.6991006774	-0.7806034385	 1.2046802376	 0.367791
O	 0.0341817947	-1.676202569	 2.0023500757	-0.452833
H	 1.0200714795	 1.9473418662	 0.1617818678	 0.157057
H	-0.2781779241	 1.8566761402	-1.0334074198	 0.136587
H	-0.6847818932	 1.9686282616	 0.6877303092	 0.132519
H	 1.4181337147	-1.535674196	-0.9656673012	 0.12109
H	 3.3502787403	-0.5125215349	 0.2008839087	 0.23507
H	 2.5431943015	-0.7758208715	 2.3308592962	 0.129856
H	 1.8567854457	 0.8714204606	 2.219678902	 0.117319
H	-0.8317391083	-1.8694104445	 1.6192320518	 0.306576
123.2494	145.7405	168.1048	234.1754	256.5118	286.6268	305.4765	384.3053	428.7003	477.7268	540.9706	578.2109	652.649	705.4236	724.7831	792.4099	907.5781	952.8207	984.7982	997.0439	1008.0636	1055.9101	1066.7513	1111.6964	1129.8952	1193.6487	1222.3835	1261.2563	1298.1577	1343.3152	1395.7709	1413.0774	1442.2879	1486.3563	1498.3557	1510.6776	2332.569	3048.2561	3053.0824	3107.8125	3114.4063	3142.2611	3193.4414	3531.7547	3764.19
CC1(C#N)C2NCC12O	C[C@@]1(C#N)[C@H]2NC[C@@]12O	
InChI=1S/C6H8N2O/c1-5(2-7)4-6(5,9)3-8-4/h4,8-9H,3H2,1H3	InChI=1S/C6H8N2O/c1-5(2-7)4-6(5,9)3-8-4/h4,8-9H,3H2,1H3/t4-,5-,6+/m1/s1
