15
gdb 29041	2.68271	1.69887	1.12843	1.4203	79.28	-0.2451	-0.0837	0.1613	1043.1451	0.112994	-416.840237	-416.83242	-416.831476	-416.872814	28.608	
C	-0.4822551566	 1.423488805	 0.0601478426	-0.456082
C	-0.0375017378	-0.0062973821	-0.0039915494	 0.238973
N	 0.0809819525	-0.5789903163	-1.1510320024	-0.262679
C	 0.3537192246	-1.8890959086	-1.4068913081	 0.088526
N	 0.0442621781	-2.9595862043	-0.7444668899	-0.243129
C	-0.3677222865	-2.9484917015	 0.5559181858	 0.018314
C	-0.1833215745	-1.99995754	 1.5157428372	-0.173753
C	 0.2871008948	-0.6309277336	 1.3364987207	 0.286583
O	 0.737945857	 0.0572192157	 2.2362800737	-0.341066
H	 0.3026249795	 2.0208761462	 0.5350384962	 0.169647
H	-0.7015645691	 1.8002258484	-0.9383160387	 0.141911
H	-1.3648198026	 1.5188530821	 0.7027647024	 0.149745
H	 0.801673021	-2.0470906831	-2.3876645935	 0.132821
H	-0.8021250735	-3.8954126616	 0.8720728663	 0.124427
H	-0.4260600469	-2.2557460162	 2.5438925572	 0.125763
79.11	136.6331	167.7496	280.8355	323.3259	330.6755	375.9683	424.521	537.285	614.0055	657.1872	722.5773	759.0018	856.1303	874.8565	954.1823	978.3392	998.2862	1018.0664	1042.378	1148.2531	1203.0297	1271.6931	1296.9168	1391.6776	1434.5224	1458.8818	1461.5735	1464.163	1533.0294	1616.5525	1678.4683	1740.7657	3044.5733	3101.5105	3138.5462	3144.4549	3164.4214	3174.63
CC1=NC=NC=CC1=O	CC1=N[CH][N]C=CC1=O	
InChI=1S/C6H6N2O/c1-5-6(9)2-3-7-4-8-5/h2-4H,1H3	InChI=1S/C6H6N2O/c1-5-6(9)2-3-7-4-8-5/h2-4H,1H3
