15
gdb 127832	4.62981	1.0648	0.87152	3.7479	70.93	-0.237	-0.0452	0.1918	1268.4559	0.113073	-450.125147	-450.116888	-450.115944	-450.158486	29.656	
C	-0.0843461458	 1.4423603844	-0.0178012611	-0.341239
N	-0.1396936266	-0.0059392907	-0.0120574278	-0.264495
C	 0.5228332498	-0.6181769413	-0.9144269741	 0.268965
N	 1.3190387836	-0.0709164666	-1.8970831223	-0.568771
C	 0.5097925853	-2.1019511362	-0.9437272119	 0.386209
N	-0.0588392459	-2.8531097427	-0.0345154031	-0.169621
O	 0.1839815011	-4.1511717333	-0.4940825497	-0.143635
C	 0.873250414	-4.0313639513	-1.6265759854	 0.10459
N	 1.113900898	-2.8082174771	-1.9698620986	-0.330508
H	 0.9455521773	 1.8213950754	 0.0775806029	 0.117188
H	-0.5071359685	 1.8751364174	-0.9406241835	 0.106883
H	-0.6664881017	 1.8321677746	 0.8201964184	 0.130329
H	 1.1718079191	 0.8944098605	-2.1388959975	 0.259124
H	 1.6036963673	-0.6835851847	-2.645577774	 0.272404
H	 1.1560826029	-4.9414620784	-2.1346972624	 0.172578
62.6653	142.2139	147.9708	172.0429	298.4904	313.9004	387.8585	402.2438	486.9277	516.5751	630.5239	668.1368	744.7247	808.9832	900.8159	914.0527	972.6171	986.156	1015.9224	1099.5109	1112.3679	1150.6488	1197.4932	1250.0379	1319.8002	1381.5922	1432.7963	1487.0017	1503.7017	1531.1027	1593.1866	1629.5451	1732.6861	2955.1557	3004.3649	3106.4914	3268.4987	3591.0762	3713.6041
CN=C(N)C1=NOC=N1	CN=C(N)c1nocn1	
InChI=1S/C4H6N4O/c1-6-3(5)4-7-2-9-8-4/h2H,1H3,(H2,5,6)	InChI=1S/C4H6N4O/c1-6-3(5)4-7-2-9-8-4/h2H,1H3,(H2,5,6)
