18
gdb 64519	3.53664	1.45296	1.2893	3.4093	75.26	-0.2353	-0.0223	0.213	1014.8108	0.146988	-401.877582	-401.869809	-401.868865	-401.909813	30.332	
C	 0.0285934393	 1.6658206616	 0.10977856	-0.488195
C	 0.0581833989	 0.1505933301	 0.0495892767	 0.220209
C	-1.3170820413	-0.4466126571	 0.3175407652	 0.161125
O	-2.3541028889	 0.1600530177	 0.245645886	-0.266505
C	 0.7063890405	-0.5944476995	-1.1178622116	-0.110287
C	 2.2088466894	-0.7036575902	-0.7717490381	-0.104743
C	 2.3743486443	-0.0505278613	 0.5870462825	-0.181676
N	 1.021387563	-0.6097848944	 0.9856109241	-0.2109
C	 1.2076807892	-1.6340502155	-0.1608274935	-0.032281
H	 0.8904427558	 2.1174950824	-0.3841373605	 0.118489
H	-0.8823898846	 2.0260680535	-0.3743157864	 0.144918
H	 0.002309771	 2.0009072457	 1.1523789383	 0.133629
H	-1.294421125	-1.525436381	 0.5822608865	 0.084481
H	 0.3514135218	-0.7238727581	-2.1330920085	 0.101303
H	 2.9364577939	-0.9190208906	-1.5443305882	 0.099197
H	 3.1373462912	-0.5475353678	 1.1916904928	 0.115834
H	 2.4831610478	 1.0330011497	 0.6816158923	 0.107727
H	 1.1179624539	-2.7066345852	-0.0750063577	 0.107677
75.6974	167.4542	208.4973	238.5944	321.2399	353.9064	426.3717	489.0255	550.1799	723.9184	766.6914	772.9028	795.094	812.8798	858.1799	863.1865	909.4233	956.3586	979.5422	1005.7236	1008.2976	1029.9382	1036.2538	1063.9849	1097.0306	1128.7844	1162.5672	1167.7123	1205.4313	1250.4232	1279.3473	1314.3655	1353.1655	1399.0099	1426.1824	1487.5506	1488.5256	1522.3553	1832.1002	2904.65	3046.6813	3060.3195	3110.3322	3118.7443	3138.7705	3187.0884	3195.2677	3230.7046
CC1(C=O)C2C3CN1C23	C[C@@]1(C=O)[C@H]2[C@H]3CN1[C@@H]23	
InChI=1S/C7H9NO/c1-7(3-9)5-4-2-8(7)6(4)5/h3-6H,2H2,1H3	InChI=1S/C7H9NO/c1-7(3-9)5-4-2-8(7)6(4)5/h3-6H,2H2,1H3/t4-,5+,6-,7-/m1/s1
