19
gdb 61680	4.62083	0.78203	0.69781	1.569	72.52	-0.2543	-0.0345	0.2198	1571.9463	0.156033	-460.134512	-460.124816	-460.123872	-460.170605	33.527	
C	-0.0408092318	 1.3891464331	 0.0856412191	-0.402056
C	 0.0461184351	-0.1360968373	 0.0858394265	 0.029005
O	-1.2065933341	-0.7978865011	 0.0722368688	-0.26504
C	-1.9189909164	-0.7843276562	 1.2788643959	 0.093597
C	-2.9733090032	 0.3251009456	 1.5209438296	-0.096618
O	-3.9947326813	-0.6651921049	 1.7552614661	-0.27119
C	-3.1328745018	-1.7269989362	 1.2958120686	-0.102682
C	 0.8044971698	-0.6671758628	-1.128162335	 0.146584
O	 1.7394166756	-0.1077889488	-1.6358820224	-0.241974
H	 0.9585631877	 1.8033285507	-0.0680712001	 0.146726
H	-0.6857813059	 1.730247996	-0.7289478865	 0.133837
H	-0.437047433	 1.7666553165	 1.0319578471	 0.120911
H	 0.624930332	-0.467007591	 0.9692723308	 0.099574
H	-1.2389566353	-0.9252084442	 2.1298106006	 0.081704
H	-2.8329374454	 0.9855023466	 2.384133171	 0.10457
H	-3.1725611734	 0.924247083	 0.6227900049	 0.105637
H	-3.3987437313	-2.0779776817	 0.2901159743	 0.111834
H	-3.1098693338	-2.5741557131	 1.9891624661	 0.10919
H	 0.4184117864	-1.6430668441	-1.4945890153	 0.096392
46.366	64.9746	83.8783	98.7865	191.6225	230.5271	257.1607	309.0404	354.9707	449.9724	470.5738	615.7882	731.0045	831.9839	874.7285	886.4973	913.9263	947.044	1008.8684	1026.2679	1037.7265	1102.9497	1124.645	1139.017	1151.3511	1155.5629	1177.407	1208.8416	1270.228	1301.1328	1324.1936	1333.1532	1357.7173	1387.4308	1404.2138	1429.5458	1487.3617	1496.5251	1499.2659	1527.5803	1842.2892	2907.2278	2930.0121	3009.563	3010.9786	3022.63	3049.4556	3069.1843	3078.04	3124.7117	3136.4277
CC(OC1COC1)C=O	C[C@@H](OC1COC1)C=O	
InChI=1S/C6H10O3/c1-5(2-7)9-6-3-8-4-6/h2,5-6H,3-4H2,1H3	InChI=1S/C6H10O3/c1-5(2-7)9-6-3-8-4-6/h2,5-6H,3-4H2,1H3/t5-/m1/s1
