17
gdb 33359	6.1136	0.65698	0.62158	0.885	91.51	-0.2414	-0.0143	0.2272	1743.612	0.135937	-384.640114	-384.631346	-384.630402	-384.674761	31.807	
C	-0.1228636598	-3.8806061544	-0.403312344	-0.567339
C	-0.0801743767	-2.6821659224	-0.2599425757	 0.299203
C	-0.0321711524	-1.3321714483	-0.098389709	-0.301788
C	 0.0137310146	-0.1308337363	 0.0472619146	 0.449326
C	 0.0816608455	 1.3060176781	 0.2215825675	-0.213731
C	-0.4746225977	 1.831951574	 1.5827738016	-0.250393
C	 0.5398633169	 2.9340197478	 1.9833079481	-0.076758
O	 1.3900460303	 3.135859401	 0.8597763038	-0.23567
C	 1.5218138814	 1.8831923116	 0.2253029898	-0.092375
H	-0.1601655739	-4.9339772836	-0.5295489762	 0.190605
H	-0.4665071788	 1.7916719505	-0.5939566986	 0.118238
H	-1.4875230504	 2.2205170962	 1.4632452019	 0.120474
H	-0.5088244746	 1.0314885937	 2.324057776	 0.123127
H	 0.0724400338	 3.8928382122	 2.2204729599	 0.114581
H	 1.1308034012	 2.6134011387	 2.8542723182	 0.099108
H	 2.1944212501	 1.211239147	 0.7821106191	 0.100896
H	 1.9269612806	 2.0418321742	-0.776035107	 0.122496
38.4523	79.602	101.9608	223.0212	228.4336	291.2832	416.2089	472.1908	519.3606	547.6637	555.8903	599.4839	605.0686	683.0931	779.3721	839.6205	896.5126	940.2665	963.7441	997.9129	1052.174	1098.083	1129.776	1193.6685	1221.8583	1229.6457	1272.4605	1291.8909	1297.7397	1329.7312	1366.7384	1399.9176	1497.7442	1507.7061	1526.6147	2181.2353	2360.0778	2979.9677	2992.7802	3038.1044	3079.7895	3093.6137	3113.1703	3129.9533	3505.73
C#CC#CC1CCOC1	C#CC#C[C@H]1CCOC1	
InChI=1S/C8H8O/c1-2-3-4-8-5-6-9-7-8/h1,8H,5-7H2	InChI=1S/C8H8O/c1-2-3-4-8-5-6-9-7-8/h1,8H,5-7H2/t8-/m0/s1
