18
gdb 106202	3.76693	1.45939	1.34273	2.9168	73.79	-0.2307	0.0721	0.3028	994.6019	0.149731	-401.887094	-401.880175	-401.879231	-401.918351	28.327	
O	 0.0116050049	 1.3855893952	-0.1292470257	-0.41782
C	 0.0419348805	-0.0154565454	 0.0308623745	-0.188863
C	-1.3427374494	-0.593870561	-0.0242490984	 0.328741
C	-1.7916737949	-2.0815266335	 0.067492667	-0.158641
C	-3.161775491	-1.9922018982	 0.7015480438	-0.090106
C	-3.2825869269	-0.6534352697	 1.4025768508	-0.176643
N	-2.4490568972	 0.2043341857	 0.548331312	-0.184791
C	-2.5334147747	-0.2688408422	-0.8532357587	-0.118989
C	-3.0042789647	-1.7471081448	-0.7819221432	-0.083714
H	-0.7773497651	 1.6796476806	 0.3478283806	 0.290088
H	 0.6621757789	-0.4288367074	-0.7735067098	 0.109519
H	 0.5139597376	-0.3072634706	 0.9867502681	 0.085684
H	-1.1589007261	-2.9572373429	 0.0595608912	 0.094192
H	-3.6569483947	-2.8886481078	 1.0541331907	 0.094918
H	-4.3076630442	-0.2699913082	 1.4273521213	 0.110271
H	-2.881056851	-0.6633001926	 2.4209797504	 0.109788
H	-2.6904770811	 0.4444296996	-1.651733309	 0.101912
H	-3.478271861	-2.3206032068	-1.5647798457	 0.094454
104.9667	183.8313	234.9578	392.2839	411.7007	484.6734	572.3363	656.1321	721.7096	738.6285	761.4549	782.7271	817.6145	844.1838	873.3448	899.9357	941.7286	980.0167	994.8455	1013.3603	1024.4523	1048.6779	1057.4704	1066.8131	1089.4448	1092.3455	1136.7195	1205.7385	1219.7955	1230.0494	1245.2619	1259.5794	1304.8821	1352.1361	1362.7673	1429.8494	1462.9903	1498.417	1514.0907	2938.4368	3049.3245	3049.481	3095.6338	3195.9598	3199.6053	3217.2268	3229.1144	3737.4308
OCC12C3C4CN1C2C34	OC[C@@]12[C@H]3[C@H]4CN1[C@@H]2[C@@H]34	
InChI=1S/C7H9NO/c9-2-7-5-3-1-8(7)6(7)4(3)5/h3-6,9H,1-2H2	InChI=1S/C7H9NO/c9-2-7-5-3-1-8(7)6(7)4(3)5/h3-6,9H,1-2H2/t3-,4+,5-,6+,7-,8?/m0/s1
