17
gdb 53198	3.96908	0.9718	0.8765	1.5707	81.78	-0.2391	-0.0027	0.2364	1366.4824	0.135208	-384.646866	-384.638319	-384.637375	-384.682436	30.768	
C	-0.0032979787	 1.5317476917	-0.065108757	-0.49763
C	 0.0039526984	 0.0763646677	-0.0285578423	 0.047521
C	 0.0013968673	-1.1268081629	 0.0048810498	 0.102057
C	 0.0048599935	-2.5857677789	 0.0502224427	-0.247391
C	 0.6516859848	-3.1675810183	 1.3086428079	-0.073919
C	-0.1330432574	-4.0566043519	 1.9179836093	-0.090475
C	-1.4468422197	-4.1578997501	 1.2130877768	-0.004212
O	-2.1802513435	-2.909025009	 1.2153426314	-0.246072
C	-1.3936024324	-3.227846724	 0.0749418483	 0.033497
H	 1.0151598359	 1.9351254641	-0.0906566754	 0.14578
H	-0.5287199831	 1.9048790529	-0.9512415448	 0.14742
H	-0.5032788803	 1.9481392133	 0.8162517462	 0.151068
H	 0.536297363	-2.9656017586	-0.8363133813	 0.110582
H	 1.6254519073	-2.8326292429	 1.6447924027	 0.113665
H	 0.108403493	-4.6080578886	 2.8180705654	 0.106873
H	-2.0589075774	-5.0540965386	 1.2372909321	 0.099695
H	-1.9379642108	-3.3669768858	-0.8547233518	 0.101541
10.4415	76.8371	93.2291	216.4381	266.835	346.1281	381.3934	449.872	495.3459	543.7468	710.3897	738.8574	800.2282	836.2599	856.3237	871.3408	915.7787	943.6232	985.0247	1002.483	1052.6794	1053.3179	1056.1891	1105.5135	1130.1413	1179.5048	1250.7299	1253.5837	1296.5293	1308.4043	1370.5453	1410.5341	1415.1723	1477.9889	1479.1449	1664.4115	2374.4029	2983.9417	3026.6207	3086.3691	3088.5768	3152.1789	3167.7464	3200.3249	3224.4235
CC#CC1C=CC2OC12	CC#C[C@H]1C=C[C@H]2O[C@@H]12	
InChI=1S/C8H8O/c1-2-3-6-4-5-7-8(6)9-7/h4-8H,1H3	InChI=1S/C8H8O/c1-2-3-6-4-5-7-8(6)9-7/h4-8H,1H3/t6-,7+,8-/m0/s1
