21
gdb 114056	2.4154	1.32012	1.08139	2.7508	79.01	-0.2316	0.073	0.3046	1231.4659	0.18073	-424.194148	-424.184583	-424.183639	-424.22812	36.227	
C	-0.2389673915	 1.4020624406	 0.0364829768	-0.489878
C	-0.0445287798	-0.0741256348	 0.1508162634	 0.43228
C	 1.1213797528	-0.8801196182	-0.3402833022	-0.38882
C	 0.6829657595	-0.9978344842	 1.1124131175	 0.194925
C	 1.5968732484	-0.7553608975	 2.2793533253	-0.499072
C	-0.6226244862	-1.7941026236	 1.1319461142	 0.057197
C	-1.4636628783	-1.7160685999	 2.39584076	-0.07071
O	-2.800244386	-2.0782807542	 2.1139444547	-0.422749
O	-1.2198767894	-0.9056397797	 0.1324540667	-0.354403
H	 0.715837875	 1.9235096294	 0.1499773441	 0.124764
H	-0.6475196172	 1.6601911586	-0.9472490556	 0.134516
H	-0.9319800527	 1.7701073775	 0.7995844059	 0.126195
H	 0.9540182905	-1.691848106	-1.0437895508	 0.111432
H	 2.0478906779	-0.3310466368	-0.4840097976	 0.109849
H	 2.2888427679	 0.0660396592	 2.0672335196	 0.121226
H	 1.0432051914	-0.495092556	 3.1875281807	 0.124715
H	 2.2034319689	-1.6417733665	 2.5005170399	 0.125939
H	-0.587170001	-2.8270243984	 0.7623110784	 0.080907
H	-1.0900923372	-2.4164895365	 3.1513048318	 0.106354
H	-1.4010891685	-0.6988342596	 2.8157298436	 0.082658
H	-3.0576901745	-1.5409319833	 1.3540061537	 0.292673
96.5717	148.7267	168.6812	182.3918	188.407	196.8443	293.1945	350.8793	419.3135	442.2476	469.4088	479.9971	523.7718	612.0076	690.6761	814.1942	824.5812	882.656	922.8122	942.4542	979.55	985.3995	1030.4337	1053.9047	1077.4521	1103.8699	1109.9596	1118.1652	1186.4537	1217.9573	1230.402	1269.3784	1318.1469	1343.5974	1392.8264	1400.6575	1417.8616	1434.0149	1438.2437	1473.2508	1488.5058	1493.6148	1499.2578	1500.0129	1513.5814	2971.427	3025.555	3028.7936	3032.341	3068.8202	3084.7832	3095.4655	3099.9046	3106.6603	3115.6547	3197.6626	3777.8758
CC12CC1(C)C(CO)O2	C[C@@]12C[C@]1(C)[C@@H](CO)O2	
InChI=1S/C7H12O2/c1-6-4-7(6,2)9-5(6)3-8/h5,8H,3-4H2,1-2H3	InChI=1S/C7H12O2/c1-6-4-7(6,2)9-5(6)3-8/h5,8H,3-4H2,1-2H3/t5-,6-,7-/m1/s1
