17
gdb 95708	3.5282	1.255	0.98456	4.5717	65.4	-0.273	0.018	0.291	1173.3555	0.136148	-496.137868	-496.129673	-496.128729	-496.171098	30.181	
C	 0.4574572732	 1.6632031333	 0.0295257819	-0.408406
C	-0.0491255826	 0.2305284947	 0.1113480861	 0.102717
C	 0.2887672607	-0.5627547174	-1.1462863087	-0.084295
O	-0.3696952787	-1.8401070538	-1.2113287988	-0.247988
C	 0.1545948772	-2.9054623818	-0.557796189	 0.43137
O	 0.1024199442	-4.0081926238	-1.0065225785	-0.339822
O	 0.7410283297	-2.6386413042	 0.6376384698	-0.24148
C	 0.1518924163	-1.6615028039	 1.5093899633	 0.013007
O	 0.5557822184	-0.3628621602	 1.2589266612	-0.226977
H	 1.5384964245	 1.6823742557	-0.1386631955	 0.134849
H	-0.0342770144	 2.2019252332	-0.7851078287	 0.126426
H	 0.2498652092	 2.1834269356	 0.9672331877	 0.138621
H	-1.143721691	 0.218830415	 0.2380163868	 0.089504
H	-0.0674657176	-0.0292347829	-2.0305099318	 0.130821
H	 1.3731650363	-0.6959987715	-1.2221996824	 0.133559
H	-0.9419238949	-1.7621755737	 1.4615714357	 0.110705
H	 0.5225518695	-1.9258733341	 2.4997766109	 0.137387
54.206	142.2117	202.5356	238.594	275.5389	320.9452	327.8181	400.9028	478.0256	521.8901	649.1222	693.2715	802.1067	813.7492	846.2633	915.4813	941.6306	1003.1532	1087.3572	1090.2419	1126.2788	1139.9473	1157.3546	1185.5076	1241.2634	1297.7148	1325.9901	1341.4328	1394.5442	1414.5495	1417.8575	1454.2204	1480.4625	1487.5146	1498.4626	1504.5855	1885.8916	2982.6891	3005.0256	3047.8078	3054.4388	3116.9826	3124.5732	3133.6795	3138.2602
CC1COC(=O)OCO1	C[C@H]1COC(=O)OCO1	
InChI=1S/C5H8O4/c1-4-2-7-5(6)9-3-8-4/h4H,2-3H2,1H3	InChI=1S/C5H8O4/c1-4-2-7-5(6)9-3-8-4/h4H,2-3H2,1H3/t4-/m0/s1
