19
gdb 88737	3.175	0.914	0.87207	2.7937	77.26	-0.2521	-0.024	0.2281	1402.8395	0.157088	-423.001294	-422.992135	-422.991191	-423.036284	33.398	
C	-0.7872407572	 1.0164858962	 0.6252316729	-0.420573
C	 0.0738191135	-0.1221239633	 0.1446295246	 0.078845
O	 1.3345248807	 0.2236889627	-0.4328171262	-0.256845
C	 1.3434048221	-0.5534738893	 0.7688418677	 0.019829
C	 1.9978587781	 0.0967465807	 1.9590383171	-0.049918
C	 1.2738086651	 0.5297368445	 3.191202811	-0.299842
C	 2.2074275326	-0.6718756104	 3.2649490912	-0.122912
C	 1.582420925	-2.0016870858	 3.4386084259	 0.170452
O	 2.077762184	-2.9224155704	 4.0396825951	-0.271039
H	-0.2029444821	 1.7531688509	 1.1791014325	 0.137211
H	-1.2460706406	 1.5186505357	-0.2328492163	 0.132468
H	-1.5964809027	 0.6484661707	 1.2653068382	 0.120812
H	-0.4646578038	-0.8883983909	-0.4184076517	 0.091805
H	 1.6437676032	-1.5890542724	 0.5962049949	 0.104803
H	 2.8553690397	 0.7003546624	 1.6753586494	 0.123512
H	 1.5867681971	 1.4350439348	 3.6983340413	 0.132718
H	 0.2121069974	 0.3179170492	 3.2615153536	 0.129943
H	 3.1624321093	-0.5575912291	 3.7650243374	 0.111894
H	 0.5737805587	-2.0975343863	 2.9701540315	 0.066837
29.4341	88.1739	161.9288	183.0127	228.5985	264.3325	315.5987	344.245	410.668	428.3851	530.276	599.8802	768.1528	809.3637	842.2059	847.1732	880.3518	932.6482	959.3568	993.994	1049.8482	1055.6213	1071.5244	1086.7106	1130.206	1140.8553	1172.3488	1183.1847	1191.3672	1221.7286	1310.1723	1335.4549	1370.5428	1402.3414	1418.8975	1443.2416	1462.2565	1484.454	1491.3734	1502.9686	1821.4157	2845.822	3039.4278	3074.2317	3087.255	3099.4128	3137.9008	3141.5817	3152.2254	3184.935	3226.4532
CC1OC1C1CC1C=O	C[C@H]1O[C@H]1[C@H]1C[C@H]1C=O	
InChI=1S/C7H10O2/c1-4-7(9-4)6-2-5(6)3-8/h3-7H,2H2,1H3	InChI=1S/C7H10O2/c1-4-7(9-4)6-2-5(6)3-8/h3-7H,2H2,1H3/t4-,5+,6+,7-/m1/s1
