16
gdb 98880	3.88686	1.03476	0.88051	2.6705	65.69	-0.258	-0.0351	0.223	1269.8026	0.124039	-475.043227	-475.034776	-475.033832	-475.077767	29.689	
O	-0.2937997567	 1.3754688029	-0.6456719163	-0.423079
C	-0.6219393129	 0.0240714917	-0.7818372056	-0.124379
C	-1.0793773877	-0.5711879081	 0.5355740856	 0.341727
O	-1.18111678	 0.1326724664	 1.5179692569	-0.322088
C	-1.3717283718	-2.0708042966	 0.5889336706	-0.101116
C	-2.3187808256	-2.4804464253	 1.7431468229	-0.122314
O	-3.4408094852	-3.0940702462	 1.0580999649	-0.213011
C	-3.1366481467	-3.050012269	-0.2535540082	 0.131971
N	-2.0421964439	-2.536107036	-0.641345352	-0.278868
H	-0.4956219308	 1.5997677073	 0.2757157943	 0.293633
H	-1.4289411822	-0.1352202874	-1.5137100143	 0.139259
H	 0.2337373178	-0.5631784312	-1.1524457955	 0.122052
H	-0.3919103294	-2.5615405866	 0.668648698	 0.125008
H	-1.889975918	-3.2204563049	 2.4214261987	 0.128673
H	-2.6733178312	-1.6204898757	 2.3143446852	 0.149159
H	-3.8892584555	-3.4787828113	-0.9057965954	 0.153373
39.5739	68.9178	114.9718	171.2491	274.5612	326.4702	370.2845	409.8644	497.0667	524.6517	690.4402	746.2013	818.7729	890.0504	946.7306	953.2039	969.9749	972.6183	1027.0514	1083.1908	1109.2655	1148.0542	1166.7767	1205.876	1237.4813	1259.0831	1306.7939	1314.4426	1346.0904	1372.3587	1446.9883	1479.2355	1521.2161	1695.4588	1792.6062	2988.4476	3008.7874	3015.3723	3078.5162	3133.1637	3220.5166	3704.2738
OCC(=O)C1COC=N1	OCC(=O)[C@H]1COC=N1	
InChI=1S/C5H7NO3/c7-1-5(8)4-2-9-3-6-4/h3-4,7H,1-2H2	InChI=1S/C5H7NO3/c7-1-5(8)4-2-9-3-6-4/h3-4,7H,1-2H2/t4-/m1/s1
