22
gdb 93794	2.84199	1.24876	0.90948	3.69	83.87	-0.2313	0.0348	0.2661	1335.9378	0.195487	-404.407918	-404.398551	-404.397607	-404.44197	35.094	
C	-0.0426851346	 1.5670765284	 0.0124963532	-0.404037
C	 0.0159050444	 0.0379681045	-0.0184898269	 0.018236
C	 0.718221185	-0.5001238826	-1.2667991323	-0.2127
C	 0.6583616391	-2.0239664688	-1.3030706033	-0.15271
N	 1.0464300267	-2.6475903786	-0.0423603265	-0.092824
C	 1.268491004	-4.0824671501	-0.0971058714	-0.343316
C	 1.0166461892	-2.0301399311	 1.1844620913	 0.391792
O	 1.2398863924	-2.6299168678	 2.2238473785	-0.389558
C	 0.7409681683	-0.528890802	 1.2064569315	-0.299048
H	 0.9653235586	 1.9978749439	-0.0120754364	 0.11509
H	-0.5955101507	 1.9606634424	-0.8469904744	 0.111996
H	-0.5349303457	 1.9266531739	 0.9220174481	 0.117539
H	-1.0150261588	-0.3458260824	-0.0188538942	 0.077019
H	 0.2597991779	-0.1086155299	-2.1815708999	 0.099751
H	 1.7648804552	-0.1680242536	-1.2643809428	 0.103024
H	-0.3603078953	-2.3484349331	-1.5732686284	 0.102704
H	 1.3210604789	-2.4082179617	-2.0890070791	 0.105987
H	 2.0828790969	-4.3163582478	-0.7933359123	 0.117314
H	 1.5268508413	-4.4261282239	 0.9029508095	 0.168881
H	 0.3662971866	-4.6077349674	-0.4391991733	 0.116604
H	 1.7170587898	-0.0349483788	 1.3139515651	 0.12239
H	 0.1975691408	-0.3308025038	 2.1341498937	 0.125865
88.9979	103.7923	145.2503	217.4611	232.0336	243.2325	272.2613	359.4952	383.9301	410.431	475.4442	525.8992	607.1039	671.2499	717.1686	821.3336	886.7899	921.6644	961.4258	979.0268	1005.349	1044.1593	1097.6465	1127.1212	1149.2317	1158.9906	1170.6444	1198.7103	1259.0006	1279.1897	1285.4991	1306.5215	1341.5438	1360.9159	1376.1129	1400.7721	1413.0784	1427.6915	1456.7267	1467.7584	1489.2262	1498.4205	1499.2041	1501.276	1506.1649	1543.4326	1756.0326	2965.0693	2993.8092	3008.613	3018.3726	3022.5977	3027.0487	3036.2044	3058.2885	3073.003	3092.3333	3098.0824	3100.781	3170.0544
CC1CCN(C)C(=O)C1	C[C@H]1CCN(C)C(=O)C1	
InChI=1S/C7H13NO/c1-6-3-4-8(2)7(9)5-6/h6H,3-5H2,1-2H3	InChI=1S/C7H13NO/c1-6-3-4-8(2)7(9)5-6/h6H,3-5H2,1-2H3/t6-/m0/s1
