21
gdb 121134	3.03593	0.86815	0.80057	1.3537	75.37	-0.2451	0.065	0.3101	1518.5067	0.179883	-461.337448	-461.327092	-461.326148	-461.373116	37.516	
C	-0.149046212	 1.5741325057	-0.1219206875	-0.457732
C	-0.0215667421	 0.0602259625	-0.0377305623	 0.30797
O	-1.2452077356	-0.5836883649	-0.3236827122	-0.472056
C	 1.2466982969	-0.5165635567	-0.7243009221	-0.111995
O	 1.8709493278	-0.7458627328	 0.554032901	-0.301586
C	 0.6190657274	-0.5201742067	 1.2505297899	 0.126058
C	 0.7775862206	 0.3039079508	 2.5112829449	-0.208908
C	 1.6100861313	-0.4203123266	 3.5639890295	-0.076938
O	 1.6940485002	 0.4239819745	 4.7031686643	-0.424312
H	 0.7955542963	 2.0689000483	 0.1182911212	 0.135767
H	-0.4242596564	 1.8722182246	-1.141854641	 0.10821
H	-0.9200599995	 1.94030184	 0.5625062929	 0.130183
H	-1.6704344391	-0.1232614214	-1.0546366514	 0.2786
H	 1.0413550476	-1.4513401461	-1.2622921055	 0.097116
H	 1.8386504887	 0.1561254017	-1.3560142291	 0.095419
H	 0.1335578467	-1.4807481428	 1.4816334074	 0.078803
H	 1.257320846	 1.2617364614	 2.2864092917	 0.106152
H	-0.2142918467	 0.5188520595	 2.9277259374	 0.111243
H	 1.1347951932	-1.3830041183	 3.8148403235	 0.083965
H	 2.6047577417	-0.641535443	 3.150730216	 0.108906
H	 2.271465737	 0.0018025504	 5.3456614213	 0.285135
65.8749	89.7671	111.907	121.9411	248.6936	250.9539	259.4466	275.1374	290.3517	347.6889	358.5312	408.9161	513.4089	555.8818	654.0138	792.8602	832.6923	899.5669	912.0592	950.6772	980.2566	1019.4017	1019.9089	1076.5953	1096.3854	1106.7957	1152.4757	1166.1031	1186.9033	1205.8529	1229.377	1256.1133	1291.2479	1313.3157	1322.9754	1343.1681	1393.2051	1406.7617	1417.9038	1461.6018	1476.8692	1493.3296	1498.149	1515.7285	1529.8652	2965.2629	2988.64	3009.732	3014.611	3024.8675	3039.357	3064.145	3090.4853	3094.641	3124.6013	3811.1127	3831.4864
CC1(O)COC1CCO	C[C@@]1(O)CO[C@H]1CCO	
InChI=1S/C6H12O3/c1-6(8)4-9-5(6)2-3-7/h5,7-8H,2-4H2,1H3	InChI=1S/C6H12O3/c1-6(8)4-9-5(6)2-3-7/h5,7-8H,2-4H2,1H3/t5-,6+/m0/s1
