19
gdb 99673	2.52065	1.20876	0.86936	1.4755	78.09	-0.2468	0.0305	0.2773	1349.0895	0.156637	-422.952609	-422.942829	-422.941885	-422.988111	34.516	
C	 0.194659981	 1.4160400166	 0.0932282844	-0.23699
O	-0.123150322	 0.0489117664	-0.0743768976	-0.238228
C	 0.5481543309	-0.5741754717	-1.1556737923	-0.083041
C	 1.9993291006	-0.6532710946	-0.9550617512	 0.342716
C	 3.1849749298	-0.7236671789	-0.7711138971	-0.460053
C	-0.0778078642	-1.9682742688	-1.2825492181	 0.142935
C	-1.5428244002	-2.0160806896	-1.7582192419	-0.29448
C	-0.9726429189	-2.8008894063	-2.9573122947	-0.063479
O	 0.3787352049	-2.6572335553	-2.4618966959	-0.290179
H	 1.2603871713	 1.5607860989	 0.3130321357	 0.123817
H	-0.06115572	 2.0014023199	-0.8034958066	 0.104556
H	-0.3993971782	 1.7778691223	 0.9352804945	 0.129097
H	 0.350814885	-0.0246669785	-2.0924504897	 0.089908
H	 4.2340847713	-0.7909815296	-0.6192458481	 0.200046
H	 0.1365498925	-2.5347713297	-0.3684541907	 0.092231
H	-2.2300609627	-2.5619152915	-1.1117747049	 0.115097
H	-1.9723456634	-1.0412345405	-1.9946495687	 0.115591
H	-1.2716279579	-3.8543030909	-3.0167110278	 0.105053
H	-1.0957475999	-2.3419190782	-3.9452473194	 0.105403
65.2109	75.0677	103.527	124.4056	171.6182	191.2878	250.1304	326.884	377.5387	435.6829	506.2728	592.8488	630.9086	673.6049	775.3214	831.4513	884.0834	938.7433	956.2664	984.841	1026.384	1055.0975	1089.3772	1129.7084	1155.0391	1169.6871	1184.0842	1207.2074	1222.7288	1255.472	1277.6941	1293.3386	1345.6782	1360.0476	1394.5487	1477.6021	1485.22	1493.2706	1510.7286	1532.2171	2231.4982	2953.3867	2985.0096	3019.9076	3038.3901	3050.1261	3060.5223	3087.799	3122.7494	3143.1052	3502.4115
COC(C#C)C1CCO1	CO[C@@H](C#C)[C@H]1CCO1	
InChI=1S/C7H10O2/c1-3-6(8-2)7-4-5-9-7/h1,6-7H,4-5H2,2H3	InChI=1S/C7H10O2/c1-3-6(8-2)7-4-5-9-7/h1,6-7H,4-5H2,2H3/t6-,7+/m0/s1
