17
gdb 85159	2.08167	1.76067	1.05714	1.9501	69.27	-0.2477	0.0141	0.2618	1116.1131	0.13598	-455.209428	-455.200471	-455.199527	-455.243437	32.998	
C	 0.1339686121	 1.5997061364	-0.2699991922	-0.390497
C	 0.0362595076	 0.0996916493	-0.0459140965	 0.050789
N	 1.0408932971	-0.7113085647	-0.7705261536	-0.333542
C	 1.6914255103	-1.1635393829	 0.3395131311	 0.439565
O	 2.7071767809	-1.794114306	 0.5170630887	-0.388326
C	 0.6507063012	-0.4969798203	 1.2649330241	-0.291579
C	 1.1657713141	 0.4305434527	 2.361443723	 0.396075
N	 2.3646905487	 0.0409644338	 2.8650684646	-0.52688
O	 0.5299148465	 1.3881156579	 2.7593587104	-0.373987
H	 1.1585838989	 1.9543432223	-0.1256389556	 0.125652
H	-0.1794623053	 1.8534997439	-1.28828446	 0.109373
H	-0.5066516761	 2.1249933723	 0.4409001752	 0.1576
H	-0.9841409013	-0.250332056	-0.2327923358	 0.093866
H	 1.307280827	-0.7317500709	-1.744555039	 0.25292
H	-0.0044567516	-1.2370793367	 1.7339708676	 0.13601
H	 2.8856079666	-0.7107667395	 2.4342560331	 0.282495
H	 2.7767710535	 0.5868810385	 3.6039153549	 0.260467
55.1358	90.5659	175.4265	189.588	242.5998	335.2423	373.1959	389.7084	409.8941	446.6344	500.2363	576.4497	639.3049	678.7377	717.1837	746.3493	837.6742	892.4633	919.9419	1025.7437	1074.0406	1075.7867	1118.5051	1140.1251	1174.105	1205.7386	1274.8974	1291.0403	1359.8214	1380.3257	1395.6646	1415.1546	1481.9136	1495.2317	1626.629	1794.832	1865.4338	3041.2162	3050.8134	3080.1419	3111.0129	3142.8206	3544.6785	3603.8527	3702.5788
CC1NC(=O)C1C(N)=O	C[C@H]1NC(=O)[C@H]1C(=O)N	
InChI=1S/C5H8N2O2/c1-2-3(4(6)8)5(9)7-2/h2-3H,1H3,(H2,6,8)(H,7,9)	InChI=1S/C5H8N2O2/c1-2-3(4(6)8)5(9)7-2/h2-3H,1H3,(H2,6,8)(H,7,9)/t2-,3-/m1/s1
