15
gdb 60680	2.03984	1.60948	1.11353	1.7443	66.49	-0.2708	-0.0757	0.1951	1093.5904	0.111068	-453.922864	-453.914146	-453.913202	-453.95664	31.267	
O	-0.1763488819	 1.4229439925	-0.1150061727	-0.440025
C	-0.074878453	 0.0303386235	-0.0783661644	 0.086184
C	 0.807895898	-0.377821901	 1.1247775878	 0.144318
O	 1.2697142579	 0.4639360517	 1.8473590675	-0.246984
C	-1.3970556912	-0.6087057116	 0.1121905522	 0.263582
N	-2.4092339094	-1.1431762051	 0.2711091616	-0.314001
C	 0.5708300861	-0.5155863204	-1.360692879	-0.015867
C	 0.3358705928	 0.1847097023	-2.6427100865	-0.233271
N	 1.6537651554	 0.2444998459	-1.9808825981	-0.324213
H	 0.2454167838	 1.7383978874	 0.7038146554	 0.309736
H	 0.9890227921	-1.4589750051	 1.2598618245	 0.136963
H	 0.7052556934	-1.594855879	-1.35185706	 0.114336
H	 0.3071935115	-0.3886813107	-3.5637183276	 0.132875
H	-0.2868093008	 1.0730159541	-2.6199067015	 0.143577
H	 1.7309136756	 1.1452909855	-1.5104702092	 0.242792
73.9885	101.9213	145.8488	186.3567	237.7271	296.3069	328.6437	394.8759	462.961	504.4581	523.236	568.5811	651.3568	819.5186	844.3735	880.6292	938.7447	966.6863	986.7666	1015.1912	1104.4723	1115.6807	1143.4214	1175.0123	1230.9946	1275.6118	1306.6432	1365.4182	1400.6057	1424.2916	1501.0107	1826.907	2350.6521	2987.7834	3126.8495	3137.5119	3220.7424	3485.0444	3646.2118
OC(C=O)(C#N)C1CN1	O[C@@](C=O)(C#N)[C@H]1CN1	
InChI=1S/C5H6N2O2/c6-2-5(9,3-8)4-1-7-4/h3-4,7,9H,1H2	InChI=1S/C5H6N2O2/c6-2-5(9,3-8)4-1-7-4/h3-4,7,9H,1H2/t4-,5-/m1/s1
