19
gdb 63444	1.83837	1.76444	1.07486	1.1512	89.8	-0.2329	0.0295	0.2625	1190.1545	0.154697	-348.68177	-348.671645	-348.670701	-348.715875	38.57	
C	-0.0602206344	 1.5254055268	 0.0012777155	-0.455064
C	-0.012777999	 0.0106361531	-0.0214107187	 0.294711
C	-1.2594505449	-0.6400412869	-0.586848007	-0.455068
C	 1.3050769983	-0.657801628	-0.2474758445	-0.343368
C	 0.6964757215	-0.7052416474	 1.1682353944	-0.065298
C	 1.3166882624	 0.0957914486	 2.1938541072	 0.279141
C	 1.8340188016	 0.756128625	 3.0556208057	-0.460865
C	 0.1749200407	-1.9659231425	 1.6339278039	 0.279142
C	-0.2551768906	-3.0164301169	 2.0311302722	-0.460857
H	 0.840417851	 1.9563878915	 0.4420979487	 0.132076
H	-0.1607159172	 1.9087342604	-1.0205409559	 0.116923
H	-0.9204870373	 1.8810269544	 0.5785060614	 0.123855
H	-1.4000927838	-0.3295121863	-1.6284549394	 0.116924
H	-1.2009277193	-1.7295402342	-0.5588265029	 0.132081
H	-2.1486036002	-0.3364063827	-0.0238823587	 0.123852
H	 1.3274109335	-1.6003003278	-0.7828590822	 0.128012
H	 2.1903655884	-0.0420799407	-0.3596746125	 0.128012
H	 2.2888149681	 1.3338125687	 3.8215587658	 0.192895
H	-0.632594199	-3.9418877852	 2.3893253168	 0.192897
110.6585	135.3322	154.3261	159.8947	190.5646	229.1171	309.7651	350.1242	370.032	379.2708	465.9495	493.0312	567.1457	571.2978	580.6143	587.0698	608.6537	651.2751	653.0873	730.9966	844.2916	915.3151	939.4131	975.7776	992.4016	1038.8658	1073.9677	1135.8715	1142.9046	1227.9071	1314.2209	1355.4806	1411.4283	1425.1237	1476.4875	1479.9714	1488.1268	1502.4264	1507.8882	2233.4111	2235.1857	3030.7458	3035.4479	3090.2255	3094.0092	3132.2797	3132.3278	3137.7658	3230.9787	3502.4734	3503.3819
CC1(C)CC1(C#C)C#C	CC1(C)CC1(C#C)C#C	
InChI=1S/C9H10/c1-5-9(6-2)7-8(9,3)4/h1-2H,7H2,3-4H3	InChI=1S/C9H10/c1-5-9(6-2)7-8(9,3)4/h1-2H,7H2,3-4H3
