17
gdb 125699	5.79878	0.95113	0.87264	2.4859	77.92	-0.2377	-0.0128	0.225	1339.3316	0.136903	-417.9857	-417.97757	-417.976626	-418.018989	29.79	
C	 0.2116246109	 1.4896510343	-0.12346998	-0.493701
C	 0.0026419327	 0.0180579133	 0.0365165752	 0.398928
N	-0.4581585206	-0.6926440909	-0.965706153	-0.201004
O	-0.5351670987	-2.0077745649	-0.4920480849	-0.237553
C	-0.114693702	-2.0444060066	 0.7874881673	 0.479211
C	 0.244710465	-0.7940744821	 1.1840653904	-0.447766
C	-0.1151036234	-3.3497811054	 1.4600892705	-0.114243
C	-1.1830441827	-4.34892521	 1.1574241179	-0.233619
N	 0.1877017066	-4.5775890656	 0.6951222624	-0.316478
H	 1.2596297515	 1.7559143724	 0.048095628	 0.139488
H	-0.0681688093	 1.8011542806	-1.1314463704	 0.151372
H	-0.3918496986	 2.0504652738	 0.5976095265	 0.138996
H	 0.6261516706	-0.4907740467	 2.1450035098	 0.117301
H	 0.315528489	-3.3273817223	 2.4564709548	 0.105901
H	-1.5211174744	-5.0136291001	 1.9471973722	 0.127004
H	-1.9391792586	-4.0625134915	 0.4327629938	 0.135838
H	 0.256085962	-4.3387558182	-0.2921512406	 0.250327
61.0292	127.3867	144.3958	163.3729	279.6132	303.2505	431.4243	441.9565	617.7688	661.8959	718.6347	728.697	806.7195	822.2172	877.8972	933.8564	968.9944	983.5442	998.636	1025.2098	1045.7673	1066.8485	1102.5253	1134.0382	1154.8385	1177.7483	1265.9045	1304.3131	1313.718	1373.4332	1408.0259	1451.7861	1480.7894	1481.9281	1505.0073	1541.5772	1647.5857	3043.4842	3099.928	3116.2976	3141.2492	3158.5926	3209.0585	3272.7625	3499.9677
CC1=NOC(=C1)C1CN1	Cc1noc(c1)[C@H]1CN1	
InChI=1S/C6H8N2O/c1-4-2-6(9-8-4)5-3-7-5/h2,5,7H,3H2,1H3	InChI=1S/C6H8N2O/c1-4-2-6(9-8-4)5-3-7-5/h2,5,7H,3H2,1H3/t5-/m1/s1
