19
gdb 85408	1.92315	1.73962	0.9902	3.4699	79.62	-0.2077	0.0186	0.2263	1224.5978	0.160252	-419.279746	-419.270629	-419.269685	-419.313863	34.129	
C	-0.0100373075	 1.56084023	-0.0236351043	-0.375068
C	-0.0733531084	 0.0219521712	 0.0239101004	-0.013201
N	 0.4774261901	-0.5783459732	-1.1933258132	-0.358124
C	 1.6876880644	-1.2009223936	-1.3385255094	 0.445988
O	 2.1536137276	-1.5320987003	-2.4133424723	-0.412965
N	 2.3469146276	-1.4546547977	-0.1421460924	-0.423472
C	 1.7911937864	-1.2135957729	 1.1153333628	 0.37819
C	 2.5764495696	-1.7559533792	 2.2722016128	-0.491057
C	 0.6434216887	-0.5373589681	 1.2228524235	-0.190252
H	 1.0291645745	 1.8983438062	-0.0757336299	 0.126064
H	-0.5471155457	 1.9473607323	-0.8973057613	 0.108898
H	-0.4704869686	 1.9901704522	 0.8723712222	 0.115391
H	-1.1353573692	-0.2625234045	 0.0787076613	 0.090145
H	 0.0491124589	-0.3432421065	-2.0750859155	 0.24891
H	 3.1750052827	-2.0188496286	-0.2379165532	 0.254183
H	 2.6867313984	-2.8447915912	 2.1978475896	 0.134501
H	 3.5860467919	-1.3277712692	 2.2948835958	 0.135951
H	 2.0846300168	-1.5241738591	 3.2180755929	 0.1374
H	 0.2189772817	-0.3414134778	 2.1990633502	 0.088516
52.3499	109.3969	146.5709	191.8344	254.715	296.6544	347.2516	430.1672	436.309	488.8627	519.1545	528.2546	555.1551	614.4451	696.9354	755.5005	781.2316	899.8588	916.556	961.6604	1015.0378	1041.3646	1067.132	1083.9048	1096.304	1173.678	1204.9956	1304.9585	1336.2005	1360.8817	1399.3069	1415.1369	1428.7508	1461.127	1476.4338	1477.094	1491.1153	1497.9452	1501.0589	1755.9432	1813.2285	2972.2026	3024.8292	3027.8085	3074.5783	3097.86	3117.4608	3137.6933	3210.2751	3636.0913	3659.4042
CC1NC(=O)NC(C)=C1	C[C@H]1NC(=O)NC(=C1)C	
InChI=1S/C6H10N2O/c1-4-3-5(2)8-6(9)7-4/h3-4H,1-2H3,(H2,7,8,9)	InChI=1S/C6H10N2O/c1-4-3-5(2)8-6(9)7-4/h3-4H,1-2H3,(H2,7,8,9)/t4-/m1/s1
