19
gdb 63244	2.2722	1.71622	1.30729	3.4987	76.74	-0.2328	-0.024	0.2088	1057.4233	0.157851	-423.056235	-423.047065	-423.046121	-423.090329	34.414	
C	-0.7984420059	 1.3341353975	 0.0773547508	-0.43458
C	 0.1020468282	 0.1083754991	 0.018502525	 0.242402
O	-0.6771871869	-1.1034181433	 0.0872104566	-0.476222
C	 1.0131642326	 0.0961107745	-1.1938715132	-0.127358
C	 2.0062225991	-0.7913166041	-1.2769448787	-0.066756
C	 2.2787899721	-1.773940102	-0.1660743441	-0.263289
C	 1.9994986005	-1.1709721797	 1.2301792767	-0.298734
C	 1.0353777094	 0.0111454938	 1.2424633072	 0.399809
O	 1.0222126913	 0.8247847758	 2.132841616	-0.323692
H	-0.2056377484	 2.2527471588	 0.0988463442	 0.127738
H	-1.4518222137	 1.3599617736	-0.8013600477	 0.100456
H	-1.4157919359	 1.3052244032	 0.9765643453	 0.135877
H	-0.9594488736	-1.3139812022	-0.809480027	 0.279217
H	 0.8237581497	 0.8185344296	-1.9830688369	 0.095007
H	 2.6330246951	-0.8327627013	-2.1639250965	 0.101096
H	 1.6550413136	-2.6621421646	-0.3226413139	 0.127893
H	 3.3159244436	-2.1194896481	-0.2138654163	 0.109296
H	 1.5887905966	-1.930461291	 1.904188931	 0.139392
H	 2.9232763626	-0.8152746197	 1.6948185716	 0.132448
39.3719	103.9387	206.7163	213.6794	227.8163	268.5201	315.4432	360.228	424.541	473.8543	523.5091	569.0557	596.9131	668.1639	681.4865	779.3045	844.7184	892.1567	925.1118	934.1483	979.7846	1006.6602	1044.9976	1103.6904	1118.8807	1140.4568	1189.5986	1209.454	1240.376	1258.6461	1312.618	1351.351	1365.446	1404.4375	1409.4923	1447.9308	1475.5393	1481.3048	1484.9713	1694.5801	1820.6819	3034.1303	3042.2795	3055.9033	3074.7917	3102.3513	3113.512	3143.3013	3153.2562	3176.2858	3803.3694
CC1(O)C=CCCC1=O	C[C@@]1(O)C=CCCC1=O	
InChI=1S/C7H10O2/c1-7(9)5-3-2-4-6(7)8/h3,5,9H,2,4H2,1H3	InChI=1S/C7H10O2/c1-7(9)5-3-2-4-6(7)8/h3,5,9H,2,4H2,1H3/t7-/m1/s1
