15
gdb 45384	2.2735	1.81678	1.25428	3.3925	73.46	-0.2429	-0.0019	0.241	1008.5385	0.112287	-416.729941	-416.722204	-416.72126	-416.76216	29.619	
N	-0.0160933512	 1.2529717024	-0.4856878137	-0.543253
C	 0.0205670099	 0.0819732619	-0.0557723015	 0.428522
O	 1.0282833187	-0.6262203206	 0.5858123264	-0.276205
C	 0.2590091943	-1.8599316487	 0.5869999675	 0.040402
C	-0.5831000322	-2.0615988149	 1.8539161056	-0.192501
N	-1.6262756557	-1.1373997077	 1.3218551995	-0.352974
C	-0.9587777569	-1.0921778676	-0.0238420752	 0.084525
C	-1.7283564297	-1.4534018699	-1.1779323105	 0.199074
C	-2.3932187732	-1.7712014989	-2.1276819602	-0.412058
H	 0.8534053326	 1.754428128	-0.2966277169	 0.234271
H	 0.8048865846	-2.681279284	 0.1277179163	 0.113419
H	-0.9136900225	-3.1017831077	 1.9584016416	 0.113908
H	-0.1256952958	-1.7290707202	 2.7899610396	 0.125457
H	-2.5506275383	-1.5488867002	 1.2686982588	 0.234652
H	-2.9731832548	-2.036836902	-2.9772211675	 0.202762
120.943	124.7461	172.3378	247.4462	338.5003	380.0626	481.23	523.4074	618.1101	629.448	643.7771	659.9703	670.1716	758.0105	840.3805	862.6479	895.3922	953.2759	982.1719	999.284	1006.2793	1038.4687	1116.5035	1147.3634	1189.4036	1207.7931	1253.1625	1317.2686	1344.2858	1395.1267	1495.012	1834.4346	2240.1966	3032.0779	3094.187	3143.0053	3479.5795	3498.7287	3554.1495
N=C1OC2CNC12C#C	[NH][C]1O[C@H]2CN[C@@]12C#C	
InChI=1S/C6H6N2O/c1-2-6-4(3-8-6)9-5(6)7/h1,4,7-8H,3H2	InChI=1S/C6H6N2O/c1-2-6-4(3-8-6)9-5(6)7/h1,4,7-8H,3H2/t4-,6+/m0/s1
