25
gdb 118478	1.74443	1.02573	0.77774	1.6482	85.96	-0.2501	0.0754	0.3255	1646.2565	0.226024	-426.615725	-426.603848	-426.602904	-426.6532	42.205	
C	 0.1276533208	 0.6007387836	 1.198160302	-0.228188
O	 0.1729175471	-0.7192508121	 0.7148995953	-0.235033
C	 0.6240615441	-0.8014049655	-0.6238750854	-0.08022
C	 0.5815675302	-2.2679048443	-1.0584930129	-0.009345
C	-0.8760887928	-2.7520570625	-1.1394124148	-0.086778
O	-0.987040899	-4.1500283496	-1.3731375115	-0.419483
C	 1.3693520538	-2.5636656513	-2.3597545345	 0.033654
C	 1.0207416055	-1.6167977277	-3.5196566	-0.39646
C	 2.8863027602	-2.5909687653	-2.1217163983	-0.402933
H	 1.120768265	 1.0777464628	 1.1788563328	 0.1028
H	-0.5628557148	 1.2287705543	 0.6126329342	 0.103375
H	-0.2235099941	 0.5605932462	 2.2323181509	 0.125995
H	-0.0153635454	-0.1808979281	-1.2749420942	 0.085935
H	 1.6468611059	-0.3978584141	-0.7009431936	 0.087543
H	 1.0598362981	-2.8361833895	-0.2465250887	 0.067321
H	-1.4035923584	-2.455663542	-0.2236113904	 0.104784
H	-1.3893559004	-2.2743365048	-1.981740924	 0.105569
H	-0.6508974082	-4.6024133701	-0.5927272229	 0.280721
H	 1.0631741474	-3.5744898659	-2.6543525859	 0.091524
H	 1.3590805907	-0.5928008483	-3.3235031991	 0.111057
H	 1.5104683796	-1.948260273	-4.4410340345	 0.112057
H	-0.055121958	-1.582414752	-3.7168943249	 0.115387
H	 3.1545566334	-3.3095652017	-1.3399802572	 0.109001
H	 3.4175299597	-2.8781355809	-3.0353556501	 0.110237
H	 3.2709560698	-1.6105553583	-1.8179032822	 0.11148
65.118	78.7445	92.1646	103.0114	160.1173	215.391	225.8	228.1045	245.5988	262.3132	289.1641	319.3849	353.942	396.5845	476.1744	529.2837	571.5429	772.1826	881.8039	924.0398	930.2264	966.3769	976.1836	1010.5796	1024.8839	1076.615	1107.7572	1121.4966	1157.318	1167.5983	1185.309	1202.968	1217.7368	1229.045	1267.0681	1308.0443	1343.0611	1374.0281	1379.8154	1397.2385	1403.5687	1413.4623	1425.1847	1427.5895	1479.8227	1485.0998	1485.8136	1494.8089	1502.7436	1506.4125	1508.4194	1514.78	1527.7456	2951.1351	2968.9387	2980.909	2997.3595	3009.7977	3021.1659	3025.7414	3030.4779	3037.3598	3071.6801	3088.7569	3096.1101	3096.9486	3102.6007	3111.548	3813.3618
COCC(CO)C(C)C	COC[C@@H](CO)C(C)C	
InChI=1S/C7H16O2/c1-6(2)7(4-8)5-9-3/h6-8H,4-5H2,1-3H3	InChI=1S/C7H16O2/c1-6(2)7(4-8)5-9-3/h6-8H,4-5H2,1-3H3/t7-/m1/s1
