18
gdb 75357	2.92506	1.71734	1.17853	1.0241	77.55	-0.2264	0.0066	0.233	1045.6733	0.15072	-398.160917	-398.153316	-398.152372	-398.193263	28.719	
C	 0.0753230028	 1.4432214412	 0.1472525089	-0.479723
C	-0.088865058	-0.0352257778	 0.0116802152	 0.337259
N	 0.0287591989	-0.6809917144	-1.0803677537	-0.269964
C	-0.1401396533	-2.1148623875	-0.7916105513	-0.199097
C	-0.5468774205	-2.2162376955	 0.7019128339	-0.002154
C	 0.3496897721	-2.9771959018	 1.7158081175	-0.193484
N	 0.814642037	-1.9754142126	 2.6965872971	-0.229807
C	 0.3932026645	-0.8414770664	 2.3051485596	 0.032722
N	-0.4197961891	-0.8070278314	 1.1574166761	-0.12713
H	 0.9018845324	 1.6855166931	 0.8251837936	 0.138261
H	 0.2862080098	 1.875069593	-0.8308072763	 0.155996
H	-0.8307229275	 1.895268895	 0.5631217809	 0.14407
H	-0.9031767646	-2.5389421056	-1.4501642754	 0.117999
H	 0.8004788426	-2.6380099207	-1.011999093	 0.112789
H	-1.5903729593	-2.5290924499	 0.7978630558	 0.093861
H	-0.2020280858	-3.7676803241	 2.2315733957	 0.120879
H	 1.2240447321	-3.4481598405	 1.2468741759	 0.115063
H	 0.6174610459	 0.0888016859	 2.8179257995	 0.132458
83.1643	142.7031	167.7773	237.983	288.4341	378.8656	490.876	588.6093	595.0129	686.085	694.0986	731.8348	867.0505	913.7415	934.467	944.871	956.5377	976.3378	1039.8827	1061.6674	1067.3593	1095.2535	1096.6002	1194.4116	1217.813	1235.8178	1275.8352	1307.1172	1311.7796	1332.0011	1350.3873	1375.8551	1412.0652	1475.8316	1480.1218	1487.7875	1501.8266	1684.4528	1724.8453	3018.0349	3022.3406	3040.5995	3049.3852	3082.7657	3090.1855	3097.0835	3160.3092	3190.3588
CC1=NCC2CN=CN12	CC1=NC[C@H]2CN=CN12	
InChI=1S/C6H9N3/c1-5-8-3-6-2-7-4-9(5)6/h4,6H,2-3H2,1H3	InChI=1S/C6H9N3/c1-5-8-3-6-2-7-4-9(5)6/h4,6H,2-3H2,1H3/t6-/m1/s1
