13
gdb 9246	6.83371	0.77812	0.71795	2.874	69.15	-0.2832	-0.0613	0.2218	1443.3525	0.094336	-398.571469	-398.56306	-398.562116	-398.604926	29.127	
O	 0.1090032827	 1.4176504188	-0.0541895653	-0.40753
C	 0.1111583265	 0.0174838594	 0.0413819119	-0.059725
C	-1.3404972643	-0.5080931094	 0.0539509923	-0.097875
O	-2.0400523311	-0.0140876841	-1.0884649537	-0.417674
C	-1.3922509446	-1.9631772272	 0.1492955108	 0.07799
C	-1.3931415275	-3.1709249407	 0.1934752329	 0.060193
C	-1.4046400086	-4.5352986369	 0.2485647619	 0.211325
N	-1.4121814604	-5.6959065712	 0.2929880947	-0.32696
H	-0.5061952412	 1.6388342462	-0.7654226816	 0.29218
H	 0.6512212443	-0.4608776569	-0.7933377838	 0.094119
H	 0.6187277249	-0.2563379603	 0.9710444771	 0.130326
H	-1.8542009371	-0.0646822141	 0.9148129915	 0.14675
H	-1.7617705735	-0.5280368637	-1.8564505586	 0.296879
75.0064	83.5735	158.625	211.2412	257.2465	319.9729	326.3829	411.3075	495.929	507.9714	529.9836	578.3292	600.6029	782.8311	871.8936	1041.4038	1068.0341	1098.462	1164.4476	1200.1629	1272.0172	1290.3251	1375.3547	1415.2716	1430.4395	1502.0198	2263.2866	2399.0207	2964.639	3056.537	3091.8408	3773.6863	3790.7605
OCC(O)C#CC#N	OC[C@@H](O)C#CC#N	
InChI=1S/C5H5NO2/c6-3-1-2-5(8)4-7/h5,7-8H,4H2	InChI=1S/C5H5NO2/c6-3-1-2-5(8)4-7/h5,7-8H,4H2/t5-/m0/s1
