13
gdb 131251	3.46926	1.74357	1.16426	2.1115	65.16	-0.2033	-0.0006	0.2026	944.6483	0.092161	-448.938952	-448.93202	-448.931076	-448.970257	25.969	
O	-0.0645408576	 1.3871381031	 0.1135816402	-0.430836
C	 0.0253489344	 0.037350381	-0.0038697391	 0.242357
C	 0.0290082222	-0.8281402584	-1.0704211092	-0.170426
N	 0.0654060028	-2.1624512085	-0.6827240626	-0.402278
C	 0.0694467343	-2.077948083	 0.6230930888	 0.515233
N	 0.0859190313	-2.8744200492	 1.7309854352	-0.361658
N	 0.0647002653	-2.1323870032	 2.8790485549	-0.203291
C	 0.0431651705	-0.884018584	 2.4936322663	 0.00951
N	 0.0481006876	-0.7903284618	 1.1205928246	-0.077078
H	 0.7981236122	 1.7862786757	-0.0477068035	 0.309651
H	 0.0085986152	-0.5536635008	-2.1145449145	 0.11651
H	 0.0822483887	-3.8767839816	 1.7806162413	 0.288687
H	 0.0206626732	-0.0420868992	 3.1638592276	 0.16362
144.742	207.6514	214.9834	278.9395	315.0534	396.0563	581.0813	605.8362	647.3694	650.5164	731.9233	753.4067	804.4122	823.8004	848.6069	977.7968	1089.5824	1103.4336	1177.3256	1217.4488	1253.9951	1284.5549	1311.2155	1358.2086	1386.8916	1427.6827	1562.4954	1611.8589	1659.6011	3247.1445	3295.2464	3709.6656	3775.3888
OC1=CN=C2NN=CN12	Oc1cnc2[nH]ncn12	
InChI=1S/C4H4N4O/c9-3-1-5-4-7-6-2-8(3)4/h1-2,9H,(H,5,7)	InChI=1S/C4H4N4O/c9-3-1-5-4-7-6-2-8(3)4/h1-2,9H,(H,5,7)
