22
gdb 120255	2.86005	1.00095	0.85878	0.4852	81.58	-0.2281	0.0816	0.3097	1433.6204	0.194016	-404.295805	-404.286231	-404.285287	-404.330524	35.724	
C	-0.3266706216	 1.5856875607	 0.0786414352	-0.410496
C	-0.0141384079	 0.0931805636	 0.0965962854	-0.025265
C	 0.4611041998	-0.5826177541	-1.1908840512	-0.031227
C	 1.8100773611	-0.138428749	-1.5853503267	-0.247002
N	 1.7006932709	-1.1701926753	-0.5356543853	-0.144241
C	 1.2992040837	-0.4644497861	 0.7451915767	 0.031844
C	 2.3270695699	 0.4605588775	 1.3787643601	-0.196613
C	 3.5878804725	-0.2853771125	 1.8020888745	-0.072443
O	 4.4710136624	 0.6582034444	 2.3925046639	-0.42471
H	 0.4924932807	 2.1782032419	-0.3383502106	 0.117115
H	-1.2183547977	 1.7826194794	-0.5267351379	 0.116362
H	-0.5251504123	 1.9583956264	 1.0892618309	 0.118193
H	-0.8736691997	-0.4428470038	 0.5095404841	 0.079889
H	-0.163883752	-1.1796557816	-1.8482971468	 0.090144
H	 2.2155704521	-0.5363902158	-2.5106684728	 0.119045
H	 2.1622453689	 0.859452577	-1.3401804386	 0.112312
H	 1.0537250892	-1.254007472	 1.4627762111	 0.080063
H	 2.6162993125	 1.2743714651	 0.7060824667	 0.104463
H	 1.8843144407	 0.9352457765	 2.263222648	 0.107246
H	 3.3238103598	-1.0846717947	 2.5140675927	 0.083967
H	 4.0420674527	-0.7690501941	 0.924846644	 0.106428
H	 5.2888583241	 0.2037012568	 2.6138717164	 0.284928
74.8232	89.7117	120.175	180.8242	211.6112	248.2409	262.8281	310.2922	371.3835	419.2885	534.5852	564.2613	693.1598	749.1515	757.6846	805.7092	840.3411	907.9993	921.894	984.847	1012.6904	1042.9457	1057.7101	1073.7954	1082.7363	1094.3238	1107.3595	1125.2192	1156.9582	1183.0817	1215.9924	1225.1929	1237.9229	1269.4338	1294.3333	1317.1959	1325.9358	1370.4653	1378.1436	1401.2623	1416.0399	1460.3104	1485.1764	1493.2171	1500.2967	1510.6368	1528.4464	2966.1829	3009.3466	3033.2797	3039.3469	3040.8286	3062.4236	3084.4472	3095.1051	3112.1634	3119.626	3153.3734	3200.3858	3831.2459
CC1C2CN2C1CCO	C[C@H]1[C@H]2CN2[C@H]1CCO	
InChI=1S/C7H13NO/c1-5-6(2-3-9)8-4-7(5)8/h5-7,9H,2-4H2,1H3	InChI=1S/C7H13NO/c1-5-6(2-3-9)8-4-7(5)8/h5-7,9H,2-4H2,1H3/t5-,6+,7-,8?/m1/s1
