22
gdb 57455	2.84072	1.32584	1.20155	2.2712	81.05	-0.2262	0.0601	0.2863	1164.8442	0.192829	-404.304084	-404.29466	-404.293716	-404.337588	36.878	
C	-0.1568686943	 1.5743936788	 0.0226228124	-0.387537
C	-0.0232088254	 0.0520577402	 0.0969531861	 0.299607
C	 0.9025342855	-0.3657941977	 1.2497088326	-0.42511
O	-1.349338932	-0.4354350552	 0.3633646728	-0.449242
C	 0.5406743921	-0.4927210389	-1.2288026451	 0.065913
C	 0.3499958378	-1.9825807716	-1.6388897195	-0.301615
C	-0.2358691922	-1.4420796302	-2.9416165347	-0.017082
C	-1.3942637417	-0.568308562	-2.6869229697	-0.242381
N	-0.0378145873	 0.0085055499	-2.53474763	-0.160173
H	 0.8123590741	 2.0382040713	-0.1813384905	 0.114012
H	-0.8444492437	 1.8580152417	-0.7767337249	 0.140107
H	-0.5405843966	 1.9614405324	 0.9704887633	 0.114462
H	 0.4773025066	-0.0384642882	 2.2027633651	 0.12388
H	 1.0225980565	-1.4559142917	 1.2848402272	 0.108073
H	 1.8988336179	 0.0739364698	 1.1445960206	 0.12026
H	-1.2769478796	-1.3611384934	 0.6185644415	 0.276454
H	 1.6029574326	-0.2309376077	-1.2583044944	 0.081094
H	 1.2933015648	-2.5185078599	-1.7553749407	 0.109733
H	-0.3284143851	-2.6005608413	-1.0407307295	 0.086607
H	 0.0314403091	-1.7883624856	-3.9347387318	 0.091934
H	-1.9048657958	-0.1602289122	-3.5541871247	 0.114066
H	-2.0104897132	-0.7114007885	-1.8074553663	 0.136938
78.8384	177.7836	188.7736	201.5582	257.4441	284.7925	298.0625	328.3968	354.7539	391.2349	430.5864	494.954	583.0471	701.4327	762.1325	768.2097	789.8223	861.1589	923.4182	934.7015	948.5616	962.259	993.6275	1018.0719	1029.3797	1059.3067	1088.6534	1114.3511	1120.1995	1144.0547	1159.7798	1203.9144	1230.2496	1257.9574	1266.8004	1289.372	1355.088	1365.2892	1383.2528	1399.0949	1416.6628	1477.1515	1482.4538	1482.951	1497.9363	1502.8431	1505.0118	3024.6438	3038.4211	3048.2003	3053.0376	3093.5263	3113.6155	3116.6847	3123.4351	3129.4675	3135.9503	3163.1905	3227.7739	3808.99
CC(C)(O)C1CC2CN12	CC(C)(O)[C@H]1C[C@H]2CN12	
InChI=1S/C7H13NO/c1-7(2,9)6-3-5-4-8(5)6/h5-6,9H,3-4H2,1-2H3	InChI=1S/C7H13NO/c1-7(2,9)6-3-5-4-8(5)6/h5-6,9H,3-4H2,1-2H3/t5-,6+,8?/m0/s1
