17
gdb 124808	4.21686	1.00212	0.84683	4.8629	72.2	-0.2242	0.0085	0.2326	1338.1229	0.135205	-455.143762	-455.134629	-455.133684	-455.17793	33.513	
C	 0.0474098982	 1.3957517767	-0.4573112796	-0.385013
C	-0.0028385157	 0.0429031202	 0.2581018479	 0.056159
O	 0.3777064455	 0.2296364409	 1.6069477318	-0.443061
C	-1.3602742586	-0.6046764299	 0.1469618075	 0.392753
N	-1.9906788864	-0.925013742	 1.2503289202	-0.243484
O	-3.19520307	-1.5268571188	 0.8352251625	-0.224683
C	-3.2275923583	-1.5329883393	-0.5045311029	 0.500198
N	-4.3737955609	-2.0272568598	-1.0727186415	-0.593334
C	-2.0919265866	-0.9666854431	-1.0155888077	-0.458177
H	 1.0418007177	 1.8319174736	-0.3315365996	 0.128559
H	-0.1531198608	 1.2872620769	-1.52761009	 0.108856
H	-0.6892881131	 2.0783494415	-0.0250473413	 0.129096
H	 0.717052828	-0.6334957748	-0.2352053714	 0.083932
H	-0.2366434673	-0.2727249057	 2.1570798392	 0.299814
H	-4.8953064849	-2.6581863222	-0.4810195999	 0.269905
H	-4.2723858206	-2.3633592742	-2.0179494435	 0.26803
H	-1.8273395663	-0.82734544	-2.0495925017	 0.11045
45.8328	121.851	173.457	206.8873	242.5063	273.8207	295.4603	353.7662	382.0081	477.0121	488.795	565.6619	639.1111	694.5418	726.2829	754.8591	763.9235	910.9942	939.1228	1001.5709	1028.3724	1058.1919	1084.2463	1100.541	1134.3719	1198.3321	1289.0371	1347.3297	1379.2665	1400.1835	1423.1564	1470.5198	1490.9072	1505.8107	1543.0691	1623.7432	1672.6699	2945.4785	3043.5171	3119.4565	3128.4457	3279.1056	3576.2753	3682.7896	3765.8274
CC(O)C1=NOC(N)=C1	C[C@@H](O)c1noc(N)c1	
InChI=1S/C5H8N2O2/c1-3(8)4-2-5(6)9-7-4/h2-3,8H,6H2,1H3	InChI=1S/C5H8N2O2/c1-3(8)4-2-5(6)9-7-4/h2-3,8H,6H2,1H3/t3-/m1/s1
