15
gdb 44098	3.93307	1.48879	1.22893	4.3629	64.71	-0.2584	-0.0176	0.2407	978.6292	0.113157	-457.734129	-457.72743	-457.726485	-457.765276	26.222	
O	 0.0150625768	 0.0735661703	-0.0487912412	-0.303649
C	 0.0580907732	 1.2566213044	-0.0156015037	 0.419779
O	-1.0155787985	 2.1446371529	 0.0131477378	-0.291062
C	-0.137898078	 3.273603081	 0.1688980844	 0.424248
C	-0.2785362151	 4.7047068654	-0.3021866939	-0.342744
C	 0.693969633	 5.0891668313	 0.8753671052	-0.249112
C	 0.5079240838	 3.6705260366	 1.5092439692	 0.045812
O	 1.6100779276	 2.7476920771	 1.3280458711	-0.296123
C	 1.1108993584	 2.3963324134	 0.0210699604	-0.136781
H	 0.0275574628	 4.9371217847	-1.3242461739	 0.118871
H	-1.2860390611	 5.0942316364	-0.1343504056	 0.131939
H	 1.7240434831	 5.2673265907	 0.5636074744	 0.129719
H	 0.3556042835	 5.9166894998	 1.4996539007	 0.12319
H	 0.0489103452	 3.6017987654	 2.4955397353	 0.105702
H	 1.8573770455	 2.4225870307	-0.77446001	 0.120213
121.819	190.2994	259.8884	343.449	409.5721	471.9565	503.4367	667.2508	722.3646	747.9119	795.661	827.8696	870.6698	896.1809	900.0812	952.327	961.7592	1008.639	1053.4875	1102.1247	1115.1415	1126.6954	1165.6662	1203.0792	1218.3649	1243.5808	1269.9717	1293.8794	1316.1785	1348.7378	1466.2561	1492.9571	1948.142	3068.6452	3087.1959	3108.1109	3118.7506	3121.4638	3150.7486
O=C1OC23CCC2OC13	O=C1O[C@@]23CC[C@@H]2O[C@@H]13	
InChI=1S/C6H6O3/c7-5-4-6(9-5)2-1-3(6)8-4/h3-4H,1-2H2	InChI=1S/C6H6O3/c7-5-4-6(9-5)2-1-3(6)8-4/h3-4H,1-2H2/t3-,4-,6-/m0/s1
