21
gdb 62774	2.80318	1.28758	1.09463	0.7728	88.78	-0.2487	0.0488	0.2975	1212.6298	0.180879	-349.89712	-349.88786	-349.886916	-349.930425	36.298	
C	-0.0809426558	 1.5224302489	-0.1717987105	-0.465675
C	 0.0329532657	 0.016889084	-0.0168862912	 0.337684
C	-1.1967032535	-0.7190683609	-0.5326579875	-0.449338
C	 1.3167581482	-0.745952535	-0.2313452386	-0.094498
C	 2.5464245177	 0.0183272533	 0.2708312265	-0.276165
C	 1.930149394	 0.0231422779	 1.721569	-0.186414
C	 1.8140930297	 1.2652421142	 2.4670170301	 0.328276
C	 1.7392761902	 2.2854881389	 3.1005927592	-0.466879
C	 0.6720539366	-0.6762103693	 1.1632238011	-0.104682
H	 0.7785515637	 2.0643010128	 0.2229665285	 0.131557
H	-0.1937374115	 1.7850494027	-1.230647133	 0.106748
H	-0.9657332886	 1.8946605111	 0.3569499847	 0.114939
H	-1.3651564567	-0.4987336632	-1.5929927079	 0.114569
H	-1.0930902692	-1.8039333809	-0.4291409893	 0.111738
H	-2.0944268712	-0.413602064	 0.0166569023	 0.116328
H	 1.3603102716	-1.5916053525	-0.9082725052	 0.081627
H	 3.4694559137	-0.5627317577	 0.2289795378	 0.107755
H	 2.730622836	 0.9974345639	-0.1781804913	 0.107937
H	 2.4862699257	-0.6950436917	 2.3327627659	 0.108302
H	 1.6624255745	 3.1878312135	 3.6549023094	 0.192618
H	 0.1391760091	-1.4468631259	 1.7093196789	 0.083574
107.6436	129.2389	182.8289	224.3858	244.8385	265.468	305.9883	357.2246	407.4153	445.2919	502.1259	588.737	614.8829	630.5518	646.9902	712.6382	798.5443	845.0951	850.1232	948.1214	970.4075	978.8138	999.5066	1005.1289	1041.6893	1051.8076	1064.0097	1086.0965	1122.5687	1156.5987	1198.2095	1242.8031	1259.4011	1275.7496	1296.0511	1346.1008	1405.7946	1419.1612	1430.6723	1477.864	1486.2445	1494.2645	1505.2498	1513.316	2227.4111	3022.6353	3028.5991	3048.28	3066.263	3080.9568	3086.3319	3098.1951	3118.6978	3141.6412	3163.182	3175.6723	3503.0997
CC1(C)C2CC(C#C)C12	CC1(C)[C@H]2C[C@@H](C#C)[C@@H]12	
InChI=1S/C9H12/c1-4-6-5-7-8(6)9(7,2)3/h1,6-8H,5H2,2-3H3	InChI=1S/C9H12/c1-4-6-5-7-8(6)9(7,2)3/h1,6-8H,5H2,2-3H3/t6-,7+,8-/m1/s1
