17
gdb 46724	3.17946	1.73707	1.29976	4.178	72.86	-0.2411	0.0129	0.2539	964.4775	0.139947	-417.972803	-417.966201	-417.965256	-418.003781	26.672	
O	 0.0009151101	-0.0631304832	 0.0189635702	-0.375433
C	-0.023620687	 1.1529811218	 0.0127671511	 0.396829
N	-1.1663734043	 1.8915529598	 0.0430763732	-0.329343
C	-1.1457861966	 3.3395113617	 0.0917478201	-0.198349
C	 0.2725693003	 3.8518915785	-0.05280483	 0.044932
C	 1.2710393118	 3.2016025027	-1.0425784596	-0.088192
C	 2.3478522113	 3.7506778637	-0.0910229023	-0.171212
N	 1.3043309885	 3.20972532	 0.9020446902	-0.165529
C	 1.2309722628	 1.9958451358	-0.0681198929	-0.072616
H	-2.0350287934	 1.3861763672	 0.1300633994	 0.250479
H	-1.7635317031	 3.7620416184	-0.7128375145	 0.115926
H	-1.5546972613	 3.7063944466	 1.0436947208	 0.125014
H	 0.2835905422	 4.9445569564	 0.0031241238	 0.080982
H	 1.2484070721	 3.1884651179	-2.1372842752	 0.076626
H	 3.3035996123	 3.2236213526	-0.0403505616	 0.110892
H	 2.482095042	 4.834448014	-0.0306085841	 0.104102
H	 2.1064560524	 1.3477189359	-0.0160614286	 0.094892
119.7712	193.9139	314.3726	379.3076	477.9237	502.9265	540.0138	580.3102	700.6414	730.5025	766.1513	801.6268	863.3884	864.9022	913.114	972.6236	991.2646	1012.1619	1029.5248	1069.5773	1110.1297	1122.7101	1146.4625	1163.2662	1186.687	1223.6437	1241.225	1243.6356	1294.2852	1318.4259	1343.8155	1376.0454	1425.2953	1483.567	1523.2359	1530.2537	1806.667	3001.0639	3029.3773	3045.2236	3056.3215	3071.0458	3116.6108	3123.056	3623.6245
O=C1NCC2C3CN2C13	O=C1NC[C@@H]2[C@H]3CN2[C@@H]13	
InChI=1S/C6H8N2O/c9-6-5-3-2-8(5)4(3)1-7-6/h3-5H,1-2H2,(H,7,9)	InChI=1S/C6H8N2O/c9-6-5-3-2-8(5)4(3)1-7-6/h3-5H,1-2H2,(H,7,9)/t3-,4-,5-/m1/s1
