14
gdb 43265	3.95826	1.27907	1.14037	5.0029	75.33	-0.2632	-0.0677	0.1955	1047.442	0.10241	-395.721769	-395.714684	-395.71374	-395.753343	27.167	
N	-0.1159334096	 1.2887512976	 0.0513648129	-0.48667
C	 0.0200087204	 0.0308561071	-0.0136830145	 0.316652
C	 1.2202714474	-0.8339223131	-0.0195382819	-0.154813
C	 0.8575700356	-2.1205687209	-0.0278670994	-0.143832
C	-0.634772081	-2.2090129608	-0.0445750134	 0.136141
C	-1.3659247144	-1.617711318	 1.1318151588	-0.255638
N	-1.1490482712	-0.8216865095	-0.0793434426	-0.118214
C	-1.2706480951	-3.2060972912	-0.8716756221	 0.230577
N	-1.7538736099	-4.0393488067	-1.5099687739	-0.325741
H	 0.7966705803	 1.7422965541	 0.1116307398	 0.228771
H	 2.2289768355	-0.4455746887	 0.0357394924	 0.129959
H	 1.4985120077	-2.9917509587	-0.0400807769	 0.144753
H	-2.3973809909	-1.9057277044	 1.309026478	 0.155495
H	-0.7701890947	-1.3940272868	 2.0125686928	 0.14256
112.6612	153.8991	210.0926	337.4698	416.4586	431.5035	505.736	555.2082	597.204	689.6478	737.5405	765.7755	814.2639	835.0056	871.3584	902.4737	939.8293	966.5325	987.5901	1031.2656	1108.7831	1128.8851	1137.8391	1227.2189	1288.0177	1341.3164	1360.849	1490.7525	1638.9739	1735.1612	2364.1765	3116.7152	3217.5509	3218.2397	3241.0009	3475.6568
N=C1C=CC2(CN12)C#N	[NH]C1=C[CH][C@]2(CN12)C#N	
InChI=1S/C6H5N3/c7-3-6-2-1-5(8)9(6)4-6/h1-2,8H,4H2	InChI=1S/C6H5N3/c7-3-6-2-1-5(8)9(6)4-6/h1-2,8H,4H2/t6-,9?/m1/s1
