18
gdb 83858	2.14213	1.79472	1.31854	2.5384	71.63	-0.2103	-0.0151	0.1952	1022.027	0.149798	-439.07985	-439.071986	-439.071042	-439.112243	30.735	
O	 0.0350806432	 1.3819599716	 0.0514970182	-0.406413
C	 0.0042692275	-0.0099172732	-0.0196555803	 0.082253
C	-1.3311292316	-0.6663651141	 0.0573374405	-0.104265
C	-2.6031820533	 0.1962205439	 0.0872088516	-0.192772
N	-3.1902102051	 0.4951539916	-1.2192565258	-0.286581
C	-2.2001616572	 1.035228211	-2.1535983034	-0.271117
C	-1.0341993445	 0.0825982864	-2.4220481232	 0.380416
O	-0.5536072689	-0.0542401238	-3.5277625037	-0.332294
C	-0.5495096027	-0.7204145855	-1.2594676725	-0.190744
H	 0.787000185	 1.6962905683	-0.4622013951	 0.300086
H	 0.8431009873	-0.5079534999	 0.4650954651	 0.101795
H	-1.3723628058	-1.5932408649	 0.6209922069	 0.099691
H	-3.3611336844	-0.3116695518	 0.6895903769	 0.107336
H	-2.3823210795	 1.1486939697	 0.5802321683	 0.133466
H	-3.5799594683	-0.3570009839	-1.6127313111	 0.218411
H	-2.6683086648	 1.2707828742	-3.1130611757	 0.122443
H	-1.8025608217	 1.9664537234	-1.7314915134	 0.132083
H	-0.045834935	-1.637564313	-1.5455698134	 0.106205
78.2758	152.6396	203.6478	304.4402	339.802	386.0849	417.2866	463.7273	485.7988	569.8676	628.8695	718.4338	742.2767	775.8121	808.2751	868.557	928.1626	945.6525	948.559	1012.3368	1036.4636	1089.9989	1116.2526	1128.9436	1155.9987	1204.9438	1230.5962	1249.6911	1286.4782	1323.4498	1345.425	1353.2265	1369.7202	1380.9812	1447.7409	1454.137	1487.1379	1498.7003	1789.6832	3036.9059	3051.5506	3096.2809	3104.5716	3107.3117	3152.868	3172.2512	3497.7966	3805.9779
OC1C2CNCC(=O)C12	O[C@H]1[C@H]2CNCC(=O)[C@@H]12	
InChI=1S/C6H9NO2/c8-4-2-7-1-3-5(4)6(3)9/h3,5-7,9H,1-2H2	InChI=1S/C6H9NO2/c8-4-2-7-1-3-5(4)6(3)9/h3,5-7,9H,1-2H2/t3-,5-,6-/m0/s1
