18
gdb 50937	1.8979	1.39502	0.88788	1.5239	73.84	-0.2509	-0.0381	0.2128	1291.7399	0.144499	-439.059213	-439.0498	-439.048855	-439.09468	32.885	
O	-1.2278244854	 1.3880884755	-0.0915600735	-0.243509
C	-0.3510506289	 2.2005633552	 0.0592701925	 0.159932
C	 1.071105487	 2.0462035104	-0.4183214873	-0.311498
C	 1.4766942704	 3.143741519	-1.4291004422	-0.078521
C	 2.9572202872	 3.5095720037	-1.2886501047	 0.164123
O	 3.6248429419	 3.2918600816	-0.3125300821	-0.241479
N	 1.2203329561	 2.9517572435	-2.8543578752	-0.08618
C	 1.5015881585	 1.6650970072	-3.4854108275	-0.234012
C	 0.0996748483	 2.139384963	-3.3157257165	-0.23931
H	-0.5520550644	 3.1658800593	 0.5817614612	 0.082299
H	 1.7402063306	 2.1676930236	 0.4442037857	 0.153116
H	 1.2132056438	 1.0393214611	-0.8174775004	 0.127247
H	 0.9454388288	 4.0717303052	-1.1528308927	 0.117583
H	 3.3647905858	 4.0244674478	-2.1832584148	 0.107653
H	 1.993262317	 1.7250825828	-4.4519844879	 0.125184
H	 1.8217332422	 0.8283741857	-2.8683500906	 0.124161
H	-0.5125015804	 1.6197146453	-2.5839858906	 0.148303
H	-0.4471910186	 2.5478481401	-4.1609307534	 0.124908
56.5169	74.4638	86.7159	123.0719	217.1003	220.4854	265.3609	315.5528	431.8857	477.0404	528.0228	618.0028	720.3526	807.6103	837.4956	878.498	902.609	980.0456	997.2062	1041.8917	1083.6648	1094.4132	1112.4585	1119.6817	1135.2163	1173.3968	1190.7362	1209.9421	1253.3197	1318.8017	1334.0632	1348.1386	1395.4742	1426.9906	1463.9192	1497.1411	1527.0612	1826.9446	1835.1789	2854.4662	2927.6953	2957.1511	3032.9733	3105.1935	3113.6983	3116.168	3187.569	3206.5118
O=CCC(C=O)N1CC1	O=CC[C@@H](C=O)N1CC1	
InChI=1S/C6H9NO2/c8-4-1-6(5-9)7-2-3-7/h4-6H,1-3H2	InChI=1S/C6H9NO2/c8-4-1-6(5-9)7-2-3-7/h4-6H,1-3H2/t6-/m0/s1
