18
gdb 108947	3.3217	1.17428	1.13283	3.0072	71.96	-0.2469	0.0126	0.2595	1163.5037	0.147533	-439.081364	-439.072761	-439.071817	-439.115008	31.565	
C	-0.0051138071	 1.611816654	 0.0693000502	-0.414239
C	 0.0990673878	 0.1056807967	 0.1221157131	-0.056955
C	 1.3639682419	-0.6634273121	-0.1397350591	 0.029191
O	 2.5930478693	 0.0439568988	 0.0080719309	-0.237327
C	 2.6498387725	 0.4024978035	 1.3157961393	 0.365053
C	 3.8355965855	 1.1985136	 1.766730283	-0.131891
O	 3.783778941	 1.4516966766	 3.1457001213	-0.420869
N	 1.7017581395	 0.0341080186	 2.0848492159	-0.328993
C	 0.7542497141	-0.6730537184	 1.2573202088	-0.050065
H	 0.8405031063	 2.102129004	 0.5556161998	 0.134238
H	-0.0444814805	 1.961348009	-0.9673875355	 0.124629
H	-0.9146177818	 1.9487715409	 0.5762316549	 0.127035
H	-0.7695267413	-0.4162147878	-0.2735295021	 0.099739
H	 1.4388214612	-1.4813431338	-0.844746162	 0.113464
H	 4.7480290421	 0.6419376407	 1.5021023769	 0.12271
H	 3.8691366945	 2.1386751297	 1.1942008207	 0.120771
H	 2.9625470244	 1.0492363594	 3.4633484926	 0.298755
H	 0.2413050605	-1.51067421	 1.7140638513	 0.104753
67.557	119.9723	134.2432	209.4248	211.2309	270.1349	302.064	440.3233	504.6437	562.0483	664.0827	695.0976	742.7382	763.3331	824.1715	894.445	953.8727	993.5459	1007.5098	1028.365	1044.6722	1077.6358	1109.6375	1121.9898	1130.4713	1148.9605	1215.3251	1239.7404	1241.9067	1314.0081	1338.7999	1361.3439	1414.5971	1423.9	1480.6098	1489.8868	1500.3057	1507.6102	1703.5268	2986.5756	3003.1752	3043.7702	3103.5159	3124.882	3140.3413	3181.7188	3196.6479	3725.0485
CC1C2OC(CO)=NC12	C[C@H]1[C@H]2OC(=N[C@@H]12)CO	
InChI=1S/C6H9NO2/c1-3-5-6(3)9-4(2-8)7-5/h3,5-6,8H,2H2,1H3	InChI=1S/C6H9NO2/c1-3-5-6(3)9-4(2-8)7-5/h3,5-6,8H,2H2,1H3/t3-,5+,6-/m1/s1
