23
gdb 58195	2.08683	1.10587	1.00385	4.4179	85.42	-0.2572	0.0247	0.2819	1390.2107	0.204439	-384.48615	-384.475	-384.474056	-384.522535	40.754	
C	 0.1350672778	 1.6111814699	-0.5039312713	-0.402231
C	 0.3080658104	 0.1128677138	-0.202608319	 0.039401
C	 1.1769170638	-0.5279956605	-1.2990724562	-0.406468
C	 0.8721813261	-0.122740812	 1.2240897337	 0.019655
C	 0.0035476627	 0.5182410828	 2.314966064	-0.420342
C	 1.1230948856	-1.6372348113	 1.526731063	-0.13354
N	 1.7981817752	-1.9575463102	 2.7882120249	-0.513059
C	-0.1399239135	-2.3927118913	 1.4652986029	 0.310104
N	-1.1492596644	-2.9526142173	 1.4080469886	-0.33683
H	 1.0897785011	 2.14423402	-0.4145582784	 0.11077
H	-0.2254507848	 1.7524426192	-1.527582044	 0.115966
H	-0.5828707175	 2.0931083646	 0.1636827858	 0.11966
H	-0.6854354403	-0.3543128126	-0.2433658685	 0.098883
H	 2.2155463839	-0.1799327628	-1.236290877	 0.110292
H	 1.1813364437	-1.6203712221	-1.2546453933	 0.124982
H	 0.8000159174	-0.2535488928	-2.2890716795	 0.117549
H	 1.8726763032	 0.3349086968	 1.2628713948	 0.06842
H	-1.0245427191	 0.1427538173	 2.2714025555	 0.139894
H	 0.396439166	 0.3072792604	 3.3142672941	 0.102479
H	-0.02761658	 1.6043679357	 2.2126099673	 0.126282
H	 1.7614809108	-2.0367487859	 0.7326252215	 0.130594
H	 2.6810020672	-1.4569378105	 2.8304402502	 0.235194
H	 1.2431607647	-1.6526704613	 3.5811835907	 0.242345
37.5606	74.2165	135.9955	186.5716	200.5067	212.2432	233.638	259.2209	274.4148	337.3438	361.4627	373.9342	402.9443	449.6227	468.656	598.5018	656.0005	757.9793	823.3978	858.6907	906.6425	932.003	948.6112	969.8637	989.8108	1072.9642	1079.8383	1093.4826	1168.7332	1184.313	1193.7309	1207.6443	1277.2692	1301.4732	1348.723	1361.5881	1377.4149	1403.2068	1413.9281	1425.9397	1426.5189	1485.6141	1495.6393	1497.4111	1505.6245	1513.088	1526.3122	1654.4762	2357.5004	2987.7175	3017.9313	3026.3426	3033.1857	3043.0398	3068.8569	3091.8609	3098.4448	3104.4237	3110.3386	3118.244	3132.7554	3497.816	3584.9316
CC(C)C(C)C(N)C#N	CC(C)[C@@H](C)[C@@H](N)C#N	
InChI=1S/C7H14N2/c1-5(2)6(3)7(9)4-8/h5-7H,9H2,1-3H3	InChI=1S/C7H14N2/c1-5(2)6(3)7(9)4-8/h5-7H,9H2,1-3H3/t6-,7+/m1/s1
