18
gdb 52438	10.4959	0.42399	0.4117	2.9651	74.96	-0.2658	-0.0363	0.2295	2450.4399	0.144347	-439.095778	-439.085338	-439.084394	-439.133497	34.104	
O	-0.2492904484	 0.2333287149	 0.5800939033	-0.233598
C	 0.0425353905	 1.1083634797	-0.1895243018	 0.139475
C	 1.3436076856	 1.890344582	-0.1157944401	-0.148496
O	 1.3528552478	 2.8270051155	-1.1627997203	-0.247985
C	 2.5181895451	 3.6204124463	-1.205279407	-0.055001
C	 2.391518021	 4.5829718596	-2.3792420563	-0.198838
C	 3.62984282	 5.4910459513	-2.4984144518	-0.343511
C	 3.5311228157	 6.4240676241	-3.6183407206	 0.259986
N	 3.4406082633	 7.1566771021	-4.5070889776	-0.298098
H	-0.6191886219	 1.4221212491	-1.0264177299	 0.100489
H	 1.4107230006	 2.3741705537	 0.8734122813	 0.125094
H	 2.1869476924	 1.1825408807	-0.1857059998	 0.125072
H	 2.6391773548	 4.1769032467	-0.2597343779	 0.095859
H	 3.4125781596	 2.9840044057	-1.3212479138	 0.095861
H	 2.2597929687	 4.0104542436	-3.3021785051	 0.136062
H	 1.4933095316	 5.1939135122	-2.2492191156	 0.136057
H	 3.770322983	 6.0705221273	-1.5780819504	 0.155786
H	 4.5361647405	 4.8880330856	-2.6306752067	 0.155789
41.9789	65.8429	67.4681	71.02	130.6819	137.9172	162.2335	255.472	334.4428	396.7293	446.2715	536.5045	591.0934	741.2227	758.5529	871.0666	937.5333	1013.6261	1033.0047	1056.6716	1107.3855	1110.5927	1126.4669	1178.7711	1219.3173	1239.9615	1278.0801	1302.616	1316.2368	1345.058	1374.5781	1402.9295	1440.8968	1471.2248	1482.5022	1500.2366	1530.0204	1847.1137	2365.7458	2902.9738	2949.049	2964.3182	2977.2047	2992.7791	3037.0659	3064.3853	3071.6255	3112.563
O=CCOCCCC#N	O=CCOCCCC#N	
InChI=1S/C6H9NO2/c7-3-1-2-5-9-6-4-8/h4H,1-2,5-6H2	InChI=1S/C6H9NO2/c7-3-1-2-5-9-6-4-8/h4H,1-2,5-6H2
