16
gdb 16077	3.35228	1.79461	1.47226	1.2792	60.33	-0.2309	0.0533	0.2841	891.5665	0.12894	-420.802439	-420.794597	-420.793653	-420.834695	28.708	
C	 0.0451506581	 1.3624052415	-0.2238935851	-0.256401
O	-0.0132950789	 0.0256962688	 0.2607765479	-0.271949
C	-1.2478236576	-0.5546232534	 0.1215195668	 0.305923
C	-2.367111498	-0.5259169499	 1.1634547709	-0.158851
O	-2.7346071641	-1.9009185346	 0.83533393	-0.302224
C	-1.6117900225	-2.0190531052	-0.0538790133	-0.063218
C	-1.8195343893	-1.0653810058	-1.1931433994	 0.045597
O	-3.0924025142	-0.7603092203	-1.6656063782	-0.434555
H	 1.0787867401	 1.6943757524	-0.1085486531	 0.13214
H	-0.2402911091	 1.415354452	-1.2823777459	 0.123187
H	-0.6110543296	 2.0300211491	 0.3508379811	 0.116101
H	-1.9942098943	-0.4667247667	 2.1907481812	 0.122087
H	-3.1973083996	 0.1715514051	 1.0106192243	 0.113677
H	-1.0548889467	-2.9488245472	-0.0524107916	 0.116373
H	-1.0752704851	-1.1296905051	-1.9831559699	 0.114347
H	-3.708405609	-1.2237462107	-1.0815186756	 0.297768
81.4632	162.1286	172.1379	222.9898	254.8106	362.1565	384.42	436.5486	499.0306	625.0785	672.7963	790.1211	851.552	928.4123	933.7921	982.9431	1012.6469	1042.5249	1072.2366	1096.1973	1122.0536	1157.6138	1179.0885	1207.3403	1220.4331	1271.4903	1286.5564	1312.0128	1388.3174	1453.0019	1488.0619	1495.7459	1504.1535	1510.9106	3001.8531	3038.896	3060.7635	3097.5542	3129.4575	3153.842	3183.7339	3751.2336
COC12COC1C2O	CO[C@]12CO[C@H]1[C@H]2O	
InChI=1S/C5H8O3/c1-7-5-2-8-4(5)3(5)6/h3-4,6H,2H2,1H3	InChI=1S/C5H8O3/c1-7-5-2-8-4(5)3(5)6/h3-4,6H,2H2,1H3/t3-,4+,5+/m1/s1
