19
gdb 120829	3.32386	0.74137	0.65417	2.927	74.46	-0.2576	-0.0001	0.2575	1715.6068	0.156579	-460.150392	-460.140421	-460.139477	-460.186962	34.018	
C	-0.1335457637	 1.3434906616	 0.325315854	-0.22715
O	-0.1892017176	-0.0596405428	 0.4256261553	-0.233808
C	-1.2235691425	-0.6184715766	-0.3571290979	-0.07168
C	-1.1591069451	-2.1175431114	-0.2174021253	-0.05333
C	-1.7937664875	-2.7918333402	 0.9800973799	-0.312149
C	-2.3880365312	-2.9565591158	-0.3925392431	 0.084253
O	-3.585891919	-2.2745232722	-0.718674799	-0.188026
C	-4.7285181941	-2.7945926222	-0.2171910892	 0.174344
O	-5.8006233813	-2.3252013256	-0.4499422815	-0.269966
H	 0.6880865806	 1.6841188013	 0.9599061016	 0.127746
H	 0.0551516591	 1.6732318888	-0.7088681854	 0.104849
H	-1.0677389502	 1.8160194938	 0.6683520426	 0.105982
H	-2.2064441987	-0.2419886816	-0.0354803191	 0.101917
H	-1.1015545527	-0.3321480458	-1.4157452241	 0.093505
H	-0.2380988409	-2.5553114862	-0.5900152268	 0.104485
H	-1.30016856	-3.641613043	 1.437403172	 0.125313
H	-2.3270725375	-2.1481261862	 1.6714918787	 0.133583
H	-2.2926959723	-3.9101282417	-0.9038427584	 0.114622
H	-4.5506124454	-3.6824903644	 0.4177120259	 0.08551
42.9453	80.0338	85.4235	104.9779	146.4051	193.3566	234.8993	284.0326	317.5403	423.2747	483.0513	564.7909	636.1707	800.8613	837.8882	921.2034	945.5111	983.2141	1032.081	1050.9996	1057.8824	1072.236	1133.5337	1148.7297	1163.597	1174.3697	1179.5676	1195.1112	1226.7545	1248.1036	1274.1969	1362.6402	1394.9827	1426.6143	1441.3013	1481.2544	1484.8509	1486.3343	1505.1898	1528.1463	1869.7516	2958.0166	2969.186	2971.5747	3006.6836	3013.5122	3115.224	3137.963	3145.5266	3161.0226	3227.7099
COCC1CC1OC=O	COC[C@H]1C[C@H]1OC=O	
InChI=1S/C6H10O3/c1-8-3-5-2-6(5)9-4-7/h4-6H,2-3H2,1H3	InChI=1S/C6H10O3/c1-8-3-5-2-6(5)9-4-7/h4-6H,2-3H2,1H3/t5-,6-/m1/s1
