13
gdb 131359	2.11801	1.86566	0.99192	1.7457	69.47	-0.2151	0.0177	0.2329	1085.1239	0.089015	-452.737297	-452.729108	-452.728164	-452.769777	30.808	
O	 0.0529525205	 1.3345566268	-0.0207427995	-0.418889
C	 0.0624060635	-0.00758963	 0.0036204436	 0.326587
N	 0.0673319636	-0.7300713367	-1.0980772482	-0.339686
N	 0.0764878695	-2.0285794163	-0.6393633884	-0.273711
C	 0.0771888389	-2.0944295449	 0.6991798321	 0.375431
O	 0.0856084138	-3.2743607324	 1.3308056341	-0.420634
C	 0.0680785675	-0.792420962	 1.1944487245	-0.072471
C	 0.0657429052	-0.4390894387	 2.5552839124	 0.167868
C	 0.0642720277	-0.2020184981	 3.7381515327	-0.439069
H	 0.0509258149	 1.601963475	-0.9491938878	 0.304939
H	 0.0820300238	-2.7927202813	-1.2915402567	 0.284026
H	 0.0844345511	-3.0959496517	 2.2811233251	 0.318338
H	 0.0628361501	 0.0361496101	 4.7725865461	 0.187271
112.6826	142.1503	218.367	306.2013	313.4353	391.092	403.8658	419.3754	439.3958	464.4224	520.2973	551.6751	610.8118	662.9003	685.7931	694.3137	749.8885	814.7468	1068.0866	1120.3549	1197.1178	1227.0883	1302.8886	1371.9521	1475.4186	1566.5514	1622.9808	1641.024	2223.8252	3501.1122	3693.9044	3772.1328	3787.1212
OC1=NNC(O)=C1C#C	Oc1n[nH]c(O)c1C#C	
InChI=1S/C5H4N2O2/c1-2-3-4(8)6-7-5(3)9/h1H,(H3,6,7,8,9)	InChI=1S/C5H4N2O2/c1-2-3-4(8)6-7-5(3)9/h1H,(H3,6,7,8,9)
