19
gdb 87423	3.46886	1.4405	1.36409	1.4468	79.02	-0.2292	0.0766	0.3058	1028.397	0.160386	-381.973831	-381.966354	-381.96541	-382.00556	29.763	
C	-0.2336630164	 1.409275682	 0.0151009962	-0.316003
N	-0.0100369318	-0.0290737552	 0.088156543	-0.150208
C	 1.368872322	-0.4968859831	-0.1303368575	-0.343407
C	 0.7441380039	-0.5369421251	 1.2086574194	 0.446317
C	 1.2530208528	 0.1102861838	 2.4689581283	-0.157051
C	 0.3564557336	-0.3343102043	 3.5844428448	-0.043853
C	-0.727816835	-1.2387907842	 3.0179374906	-0.240982
C	 0.3963012015	-1.7318550907	 2.0855972679	-0.112223
N	 1.4648731091	-1.2349857805	 3.1221746373	-0.161915
H	 0.6126539161	 2.0091888396	 0.3875621544	 0.100332
H	-0.4194781247	 1.6926268473	-1.0255120986	 0.124917
H	-1.1203813479	 1.6683554272	 0.6022799179	 0.124499
H	 1.4758311808	-1.3978058345	-0.7293893832	 0.117845
H	 2.1395764654	 0.2556392758	-0.2975833083	 0.109083
H	 1.9780844799	 0.9068441404	 2.5876849851	 0.09865
H	 0.3919170082	 0.1367804823	 4.5607016296	 0.097161
H	-1.0117341923	-2.0035804189	 3.7450273393	 0.111656
H	-1.6207879101	-0.8026506669	 2.5596333469	 0.107167
H	 0.4377298247	-2.751615755	 1.7093702772	 0.088013
129.3696	159.8798	191.1318	236.3147	362.5778	410.1186	475.0474	505.629	605.4924	747.5068	776.9772	809.4713	818.0919	834.617	896.3826	917.0772	937.8908	963.0864	994.8303	1022.0201	1038.5295	1044.9966	1070.2601	1112.179	1122.7971	1133.9454	1149.0898	1160.6645	1191.0925	1205.7981	1215.6961	1247.3934	1277.5185	1305.1926	1354.8765	1447.1658	1456.5758	1492.0071	1493.7947	1497.2132	1524.3198	2970.4948	3051.6011	3068.183	3083.4053	3104.1168	3110.8763	3146.2843	3171.4979	3173.1179	3187.2877
CN1CC11C2C3CC1N23	CN1C[C@]21[C@H]1[C@H]3C[C@@H]2N13	
InChI=1S/C7H10N2/c1-8-3-7(8)5-2-4-6(7)9(4)5/h4-6H,2-3H2,1H3	InChI=1S/C7H10N2/c1-8-3-7(8)5-2-4-6(7)9(4)5/h4-6H,2-3H2,1H3/t4-,5+,6-,7-,8?,9?/m1/s1
