19
gdb 56228	4.96495	0.62648	0.56401	4.3526	73.62	-0.2524	-0.0182	0.2342	1936.1344	0.154694	-460.22687	-460.215836	-460.214892	-460.266194	36.232	
C	 0.1032278267	 1.4914256748	-0.1470797138	-0.473745
C	-0.0042991808	-0.0112697176	 0.034772427	 0.379091
O	-0.1368221456	-0.5199084096	 1.1246512206	-0.286626
C	 0.0637561202	-0.8507274168	-1.233778602	-0.322148
C	-0.0523060735	-2.3397804334	-0.9555095481	-0.059492
O	 0.0266842336	-3.0074652415	-2.2283300156	-0.246763
C	-0.0584563897	-4.3558752669	-2.1884322819	 0.425443
C	 0.0369903591	-4.9360407958	-3.5794685342	-0.478524
O	-0.1918928415	-4.9853216461	-1.1708112208	-0.343277
H	 1.0496239675	 1.7503408545	-0.6350454398	 0.140232
H	-0.6990916013	 1.8556932283	-0.7985399539	 0.140232
H	 0.0423634812	 1.9861162526	 0.822784136	 0.146389
H	-0.7307473839	-0.5249971183	-1.9178605698	 0.130637
H	 1.0042771174	-0.6299028087	-1.755290758	 0.130652
H	 0.7494039936	-2.6923359954	-0.3022035703	 0.136291
H	-0.9974172486	-2.5867954592	-0.4660197756	 0.136273
H	 0.9841908534	-4.646510793	-4.0433731582	 0.148122
H	-0.0337118718	-6.021534605	-3.5244949471	 0.149092
H	-0.7663825961	-4.5407621527	-4.2076156544	 0.148121
20.4376	46.662	55.0421	75.2346	96.2859	115.8106	184.3786	225.5144	267.0019	415.0953	440.9511	480.1256	589.9444	606.3286	652.4742	754.6578	824.5751	926.2483	934.5145	939.5156	989.5447	1064.1583	1070.7623	1105.4456	1118.2399	1179.8678	1219.8703	1266.985	1293.6258	1331.8557	1384.6944	1390.9475	1419.3251	1456.2139	1466.6523	1469.8977	1476.5769	1476.7131	1507.2994	1809.5614	1829.4818	3028.3152	3038.9384	3056.9174	3059.0536	3075.7803	3097.9813	3121.3016	3122.5447	3154.0169	3169.5745
CC(=O)CCOC(C)=O	CC(=O)CCOC(=O)C	
InChI=1S/C6H10O3/c1-5(7)3-4-9-6(2)8/h3-4H2,1-2H3	InChI=1S/C6H10O3/c1-5(7)3-4-9-6(2)8/h3-4H2,1-2H3
