19
gdb 71496	2.91621	1.78719	1.65557	1.3693	78.36	-0.2277	0.0169	0.2446	912.3538	0.162169	-385.878832	-385.872121	-385.871177	-385.909332	29.079	
O	-0.0801066649	 1.395566113	-0.0146532837	-0.490021
C	 0.0117112442	 0.0065255399	 0.0215108368	 0.407594
C	 0.3633786673	-0.8030154347	 1.3071034048	-0.305052
C	-0.4121952108	-1.9132796016	 0.569475573	-0.027062
C	-1.3535263727	-0.8211609361	-0.0164735314	-0.079679
C	-1.8191374048	-1.3616543624	-1.3373279324	-0.097915
C	-0.8865238933	-2.2142892642	-1.7768768211	-0.087559
C	 0.2887825785	-2.1563330955	-0.8144952747	-0.06838
C	 0.8946423633	-0.715922606	-1.0118417359	-0.281518
H	 0.8058770699	 1.7591721424	-0.1160445209	 0.27896
H	 1.4185865561	-0.9571373838	 1.553005116	 0.080835
H	-0.1822653405	-0.4407344175	 2.1817663203	 0.099416
H	-0.8161838691	-2.7903726734	 1.0744157992	 0.066467
H	-2.0945511436	-0.4006159621	 0.6632405332	 0.070302
H	-2.732207945	-1.0728709618	-1.8425156702	 0.096685
H	-0.8746503936	-2.7449861587	-2.7212770277	 0.092912
H	 1.0093757009	-2.9723998537	-0.8722397386	 0.059926
H	 0.7699375702	-0.3482505775	-2.0327148857	 0.097438
H	 1.9529334579	-0.6561119565	-0.7352269207	 0.086652
212.6152	235.4589	323.6412	394.0097	441.6453	456.7379	511.5888	619.1157	626.5023	723.8553	760.6628	784.8929	810.1717	845.5562	859.3552	895.0987	908.0202	940.4474	948.9374	968.5361	980.4939	1020.3972	1060.4873	1069.4484	1100.0425	1112.0597	1117.9634	1157.6108	1179.5858	1214.9439	1220.3899	1246.7152	1270.4385	1286.3616	1313.3859	1333.0303	1356.5786	1366.5265	1486.4523	1510.4799	1639.7277	3040.4855	3048.636	3102.7112	3106.7363	3112.5598	3116.5597	3124.8469	3194.5724	3220.7147	3806.1334
OC12CC3C1C=CC3C2	O[C@@]12C[C@H]3[C@@H]1C=C[C@H]3C2	
InChI=1S/C8H10O/c9-8-3-5-1-2-7(8)6(5)4-8/h1-2,5-7,9H,3-4H2	InChI=1S/C8H10O/c9-8-3-5-1-2-7(8)6(5)4-8/h1-2,5-7,9H,3-4H2/t5-,6+,7-,8-/m0/s1
