19
gdb 89877	2.77748	1.09298	0.92267	3.0501	77.22	-0.257	-0.0397	0.2173	1322.3856	0.15687	-423.008559	-422.999608	-422.998664	-423.04289	33.14	
C	 0.5916710613	 1.2503230234	-0.3159196641	-0.394376
C	-0.0985709086	-0.067808168	 0.0169403803	 0.0283
C	 0.3697703243	-1.2790266877	-0.8556728714	-0.335598
C	 1.1755207262	-1.7676594983	 0.3526646481	 0.458477
C	 0.4634825788	-0.7881110396	 1.2870667829	-0.329585
O	 1.4611865862	-3.1099699604	 0.6554039842	-0.276702
C	 2.5806366568	-2.2306362648	 0.4399193134	-0.159203
C	 3.3583199366	-2.4893332099	-0.8048837767	 0.151781
O	 4.5058630964	-2.1553290606	-0.9593508285	-0.250131
H	 1.6813204805	 1.1332673282	-0.3389951859	 0.121105
H	 0.2770326758	 1.6238779926	-1.2961277377	 0.119894
H	 0.3553071926	 2.0180048247	 0.4284499934	 0.119487
H	-1.1819987293	 0.0705187862	 0.0325488098	 0.079176
H	-0.4398604645	-1.9741724202	-1.0953965026	 0.119478
H	 0.9146034246	-1.0419231633	-1.7728936833	 0.112303
H	 1.0873557101	-0.1925295325	 1.9585855878	 0.111427
H	-0.3091483298	-1.2928580268	 1.8739268465	 0.119938
H	 3.1671732311	-1.9759899922	 1.3213625958	 0.115495
H	 2.778824061	-3.0214435109	-1.591220842	 0.088734
42.5943	103.2367	141.6776	219.0582	253.0248	308.7753	337.2608	378.0614	394.4123	446.1503	500.5402	568.0708	779.205	808.4784	823.2721	884.52	891.6178	925.6699	963.3282	982.859	1031.5305	1060.2348	1084.4521	1116.3823	1135.9833	1156.6	1165.8701	1216.5448	1228.5943	1260.986	1279.3995	1295.9988	1363.3691	1391.7891	1414.5394	1460.7639	1461.6004	1491.5767	1496.9626	1500.8653	1822.5951	2895.6946	3026.8822	3056.5564	3059.2873	3072.8146	3097.4025	3099.554	3112.3835	3113.9183	3135.0709
CC1CC2(C1)OC2C=O	C[C@H]1C[C@@]2(C1)O[C@H]2C=O	
InChI=1S/C7H10O2/c1-5-2-7(3-5)6(4-8)9-7/h4-6H,2-3H2,1H3	InChI=1S/C7H10O2/c1-5-2-7(3-5)6(4-8)9-7/h4-6H,2-3H2,1H3/t5-,6-,7-/m0/s1
