15
gdb 26828	3.45326	1.17538	0.88237	5.3732	78.97	-0.2142	-0.0574	0.1568	1251.702	0.11192	-453.995377	-453.986679	-453.985735	-454.029292	30.788	
C	-0.0720330889	 1.5279849057	 0.0620370663	-0.504563
C	-0.0317292635	 0.0367741626	-0.0039306554	 0.191288
C	 0.0350587218	-0.7851306092	-1.1107217813	 0.303078
N	 0.0296572976	-0.5584520808	-2.4620490749	-0.59656
O	 0.0400037655	-2.0674521666	-0.7065798392	-0.173767
C	-0.0265736196	-1.9970676239	 0.6664308583	 0.260641
C	-0.0289936595	-3.2162574157	 1.4555140303	 0.068338
O	 0.0247893042	-4.3403851099	 1.0058059244	-0.284541
N	-0.0709551924	-0.7702274009	 1.1055769894	-0.30993
H	 0.4590697391	 1.9841947712	-0.7808884565	 0.113191
H	-1.0978939464	 1.9154477982	 0.0518621754	 0.14163
H	 0.4022568753	 1.8726641376	 0.9840758931	 0.151832
H	 0.3251878059	 0.3659778386	-2.73824586	 0.268561
H	 0.4500370684	-1.2912739244	-3.016375039	 0.274166
H	-0.0863811874	-3.0000660325	 2.5413183191	 0.096635
55.2417	107.4489	163.9869	219.221	240.9536	257.9794	289.7948	388.0591	416.2226	533.8091	567.1685	652.8322	691.1919	725.1078	735.4819	834.7669	975.7794	997.3567	1016.906	1059.7076	1070.1546	1230.5629	1252.8188	1364.2722	1386.9684	1416.7256	1470.696	1484.4385	1494.7907	1561.9524	1616.9759	1666.4478	1779.0322	2935.1547	3026.1285	3077.422	3121.2624	3567.6753	3674.8567
CC1=C(N)OC(C=O)=N1	Cc1c(N)oc(C=O)n1	
InChI=1S/C5H6N2O2/c1-3-5(6)9-4(2-8)7-3/h2H,6H2,1H3	InChI=1S/C5H6N2O2/c1-3-5(6)9-4(2-8)7-3/h2H,6H2,1H3
