19
gdb 105014	2.18622	1.34615	1.15693	0.6609	77.2	-0.2454	0.0331	0.2785	1188.2748	0.15532	-422.952748	-422.942526	-422.941581	-422.988229	37.178	
C	-1.516164451	-1.1213226547	-0.1354125168	-0.258899
O	-0.3386651526	-0.3247021459	-0.1479563969	-0.301305
C	 0.6431527895	-0.702678254	-1.0695053284	 0.433607
C	 2.0102385828	-0.984112889	-0.5193732788	-0.300682
C	 1.167913007	-2.1152653284	-1.0692001615	-0.345407
C	 0.5530862467	 0.058393225	-2.3932865773	-0.099023
O	-0.7209580208	-0.0982741014	-3.0155384605	-0.422784
C	 0.8809329155	 1.4773284069	-2.2166142094	 0.311476
C	 1.1159279497	 2.6469460703	-2.0710710652	-0.464052
H	-1.9184292233	-1.274114398	-1.1417631884	 0.125151
H	-1.3390159599	-2.1037629916	 0.3232499565	 0.107372
H	-2.2457281983	-0.5824519078	 0.4746541612	 0.124556
H	 2.8741763464	-0.6481963365	-1.0829836416	 0.117404
H	 2.1137360207	-0.9153009767	 0.5569334874	 0.125675
H	 0.7420468405	-2.8111078908	-0.355935724	 0.121289
H	 1.4426781383	-2.5618044731	-2.0189953514	 0.120125
H	 1.274614789	-0.3886168167	-3.088417009	 0.113188
H	-1.314842705	 0.5313136725	-2.5921654139	 0.292082
H	 1.332697975	 3.6786660002	-1.9422079222	 0.200225
37.9309	98.4321	127.3516	150.2359	198.8662	238.5389	275.1841	306.1267	317.57	348.6133	405.4474	498.6999	582.2104	604.3204	630.9768	670.0906	764.3572	781.7074	864.6267	908.0437	962.7963	975.173	1009.8964	1051.3716	1062.1576	1078.1501	1097.8412	1178.9428	1186.4633	1220.1261	1249.4099	1264.9752	1299.1666	1367.1637	1411.4361	1457.3481	1473.3554	1491.5281	1496.3352	1516.8221	2234.3848	3005.6837	3035.853	3076.8512	3120.7758	3135.709	3139.3107	3218.7161	3233.557	3502.689	3814.2316
COC1(CC1)C(O)C#C	COC1(CC1)[C@@H](O)C#C	
InChI=1S/C7H10O2/c1-3-6(8)7(9-2)4-5-7/h1,6,8H,4-5H2,2H3	InChI=1S/C7H10O2/c1-3-6(8)7(9-2)4-5-7/h1,6,8H,4-5H2,2H3/t6-/m0/s1
