20
gdb 124581	4.02927	0.97112	0.91203	0.6704	81.25	-0.2554	0.0007	0.256	1370.8299	0.172224	-399.34723	-399.338213	-399.337268	-399.382137	32.699	
C	-0.0712064995	 1.5475938571	-0.0129374101	-0.391466
C	 0.0109704905	 0.0161821263	 0.011404255	 0.026236
C	 0.8661331557	-0.4827079936	 1.1816746778	-0.385667
C	-1.4113816781	-0.569106583	 0.049222417	-0.133061
N	-1.4403982916	-2.0179688922	-0.0859451681	 0.141446
N	-1.1961461945	-2.6178136088	-1.2452283459	-0.231202
C	-1.272161936	-3.9177918947	-0.9495102139	-0.058828
C	-1.5650282691	-4.0480615002	 0.4132025559	-0.067104
N	-1.6665132162	-2.8266985926	 0.9443232412	-0.223231
H	 0.9284719226	 1.9878413444	-0.0749973592	 0.118937
H	-0.6502000652	 1.9076424818	-0.8699141299	 0.115552
H	-0.54524715	 1.931580875	 0.8982866835	 0.116188
H	 0.467194967	-0.3234760059	-0.9267889505	 0.100809
H	 0.9168508082	-1.5743972878	 1.209768611	 0.131561
H	 1.8879169007	-0.0983114163	 1.1031759222	 0.113619
H	 0.4541367372	-0.144745082	 2.139850796	 0.115546
H	-1.90313321	-0.3445602176	 0.9987229306	 0.134997
H	-2.0116375925	-0.1539937066	-0.7651902121	 0.1284
H	-1.1240570729	-4.6697788929	-1.7079368935	 0.123373
H	-1.7090638763	-4.9296621803	 1.0168727334	 0.123894
34.8744	70.2693	104.9158	214.6615	241.0745	269.1311	317.5736	377.2214	414.2305	430.3111	681.6291	696.2026	782.7923	822.9578	845.7974	893.4419	901.1775	933.6791	955.0956	971.4179	982.0164	998.718	1101.6458	1106.212	1146.2167	1195.2545	1205.9196	1249.3908	1294.5936	1330.9396	1360.1621	1382.0487	1391.7216	1400.9664	1406.0908	1426.8013	1447.4856	1470.4342	1485.5641	1493.6339	1502.2663	1506.4246	1508.8182	3026.9649	3030.8027	3036.2486	3066.4025	3092.3518	3098.8986	3106.8717	3117.7555	3125.8702	3263.0009	3280.7654
CC(C)CN1N=CC=N1	CC(C)Cn1nccn1	
InChI=1S/C6H11N3/c1-6(2)5-9-7-3-4-8-9/h3-4,6H,5H2,1-2H3	InChI=1S/C6H11N3/c1-6(2)5-9-7-3-4-8-9/h3-4,6H,5H2,1-2H3
