14
gdb 16849	3.93681	2.0407	1.53333	3.5623	63.57	-0.2471	-0.0656	0.1815	799.9109	0.108194	-382.551624	-382.545312	-382.544367	-382.582245	24.186	
O	-0.0418656261	 0.4249059872	 1.0251916641	-0.326228
C	-0.0308302625	 1.2758706653	 0.1604515837	 0.380823
C	-1.3256332758	 1.707734256	-0.5338681528	-0.363941
C	-1.2833505912	 3.0709272449	-1.1780935539	 0.046949
O	-0.8105498527	 4.1464445773	-0.3766817191	-0.247032
C	 0.0209841935	 3.6972385095	-1.4693253996	-0.00883
C	 1.2583748521	 2.9734805766	-1.0922015863	-0.036042
C	 1.2320732905	 1.8802844505	-0.3190434925	-0.16897
H	-1.5357338291	 0.9565694779	-1.3079098535	 0.137594
H	-2.1410603032	 1.6385522987	 0.1925453326	 0.146088
H	-2.1311479207	 3.3240977406	-1.8155611229	 0.101852
H	 0.0990522866	 4.4136180495	-2.2838508993	 0.102524
H	 2.2029062332	 3.3781622934	-1.4453597361	 0.11583
H	 2.1406178556	 1.3851226325	 0.0079477956	 0.119382
82.3949	242.8024	327.6629	381.1753	451.9764	504.6412	578.2261	630.3265	728.0938	748.1388	824.2971	828.7419	907.2448	939.9591	982.1306	1007.5706	1018.9945	1066.8178	1134.0034	1158.7214	1216.189	1243.9086	1280.6747	1329.8569	1379.8637	1408.3117	1436.9041	1462.5904	1681.6867	1779.1881	3029.1275	3091.1286	3104.4706	3139.6759	3168.2587	3195.9528
O=C1CC2OC2C=C1	O=C1C[C@H]2O[C@H]2C=C1	
InChI=1S/C6H6O2/c7-4-1-2-5-6(3-4)8-5/h1-2,5-6H,3H2	InChI=1S/C6H6O2/c7-4-1-2-5-6(3-4)8-5/h1-2,5-6H,3H2/t5-,6+/m0/s1
