19
gdb 16338	2.96569	1.84644	1.4136	1.7763	71.34	-0.2302	0.0618	0.2919	961.3849	0.165097	-365.018378	-365.010047	-365.009103	-365.051085	31.233	
C	-0.2796087894	 1.4971972822	 0.033474492	-0.375071
C	 0.1427825767	 0.0209804922	 0.0557162637	-0.300281
C	 0.7779437253	-0.4020140022	-1.2382854781	 0.368947
C	 0.0218578355	-0.9238353938	-2.3963737842	-0.280943
N	 0.9199911627	-1.8571050995	-1.6879797795	-0.180082
C	 2.2917595423	-1.5246122764	-2.211130719	-0.199661
C	 2.2042100659	-0.0737862111	-1.6587762406	 0.037448
O	 2.3052842391	 1.0258284793	-2.5389962809	-0.434431
H	 0.572814645	 2.1475063597	-0.1869942307	 0.12795
H	-1.0356878877	 1.6768194732	-0.7374354838	 0.120614
H	-0.6982627945	 1.8005494835	 0.9976975016	 0.110792
H	 0.8460582538	-0.1521320269	 0.880778247	 0.096731
H	-0.7248868797	-0.619883908	 0.2497002886	 0.107341
H	-1.0293295797	-1.1434388605	-2.2335585989	 0.115841
H	 0.2731919456	-0.6097746658	-3.406481494	 0.119867
H	 3.0480774266	-2.1467130212	-1.727451923	 0.10501
H	 2.3825440878	-1.6120282349	-3.2990678454	 0.10319
H	 2.8547116281	 0.0611377653	-0.7841312654	 0.072627
H	 3.2372993366	 1.1878582548	-2.7175703491	 0.284113
75.9986	117.7052	190.0781	209.7838	269.091	322.4239	336.5896	392.4869	494.1537	527.0361	685.0711	722.4271	783.7572	800.8762	858.2843	876.0015	961.6107	976.7125	1002.259	1041.2906	1075.7306	1098.4785	1110.4764	1121.4072	1142.1321	1196.095	1207.048	1245.0331	1282.5243	1288.2614	1332.7674	1360.2949	1395.1139	1413.5157	1443.1896	1481.6232	1486.6801	1497.4275	1508.0885	1513.9518	3008.6242	3021.8553	3037.7861	3044.2878	3063.4124	3108.4848	3109.2113	3110.6262	3110.7177	3198.1122	3812.6694
CCC12CN1CC2O	CC[C@]12CN1C[C@H]2O	
InChI=1S/C6H11NO/c1-2-6-4-7(6)3-5(6)8/h5,8H,2-4H2,1H3	InChI=1S/C6H11NO/c1-2-6-4-7(6)3-5(6)8/h5,8H,2-4H2,1H3/t5-,6-,7?/m1/s1
