21
gdb 66241	2.86141	1.21212	1.17032	1.3224	77.36	-0.2497	0.0811	0.3307	1185.0848	0.182956	-424.207194	-424.198381	-424.197437	-424.241288	33.219	
C	-0.1638670917	 1.6902376054	 0.3029102885	-0.481147
C	 0.0706637955	 0.184880601	 0.1669924548	 0.281177
C	 0.8218685492	-0.1984815091	-1.1478881435	-0.283372
C	 1.8960198028	-1.2170800342	-0.6938114959	-0.07678
O	 1.5990589957	-1.5420128102	 0.661401084	-0.248457
C	 1.0386121179	-0.3754628704	 1.2334692072	-0.122931
C	-1.2214215997	-0.6204866579	 0.2329381131	 0.064737
C	-2.4960694808	-0.1371818225	 0.7788193801	-0.19759
O	-2.2878756509	-0.2284416463	-0.6347353012	-0.249669
H	 0.762775864	 2.2410794033	 0.1157776361	 0.113121
H	-0.914955711	 2.02952306	-0.4159703716	 0.138916
H	-0.5085292717	 1.9566576634	 1.3077794116	 0.114234
H	 0.1319929343	-0.6206850982	-1.8820401768	 0.125075
H	 1.2814285181	 0.6817129997	-1.6044440499	 0.101007
H	 1.8907038811	-2.1485284531	-1.2655923453	 0.110613
H	 2.9033948712	-0.7787050701	-0.7648125766	 0.091698
H	 1.8187316402	 0.369804768	 1.4654024309	 0.082036
H	 0.5448237581	-0.6607977452	 2.1673725636	 0.107269
H	-1.051451488	-1.6985448659	 0.2547700103	 0.101698
H	-3.2070284401	-0.851882665	 1.1918125045	 0.114389
H	-2.5816641444	 0.8739610772	 1.1700459061	 0.113977
42.9024	83.7751	182.5487	239.3264	253.3622	277.184	324.8368	354.6407	430.117	497.	639.334	678.6064	739.7777	823.8919	863.0957	876.0938	912.2065	946.5831	958.56	975.1892	1008.5299	1019.8812	1049.3277	1106.2249	1107.7954	1157.8652	1175.3339	1186.8191	1192.1201	1198.6788	1237.2961	1270.2565	1287.275	1306.0854	1322.8329	1362.9377	1398.795	1404.6497	1436.4374	1496.2246	1499.8359	1505.5333	1514.4245	1527.5245	1531.6866	2957.0965	2983.4883	3035.3648	3066.275	3081.2644	3087.612	3088.3195	3097.3017	3099.793	3113.6377	3117.8062	3177.0653
CC1(CCOC1)C1CO1	C[C@]1(CCOC1)[C@H]1CO1	
InChI=1S/C7H12O2/c1-7(6-4-9-6)2-3-8-5-7/h6H,2-5H2,1H3	InChI=1S/C7H12O2/c1-7(6-4-9-6)2-3-8-5-7/h6H,2-5H2,1H3/t6-,7-/m1/s1
