20
gdb 104325	3.06031	1.27502	1.19278	3.4487	73.93	-0.2295	0.0584	0.2879	1127.5616	0.171597	-440.25928	-440.250731	-440.249787	-440.292081	33.678	
O	-0.1062783605	 1.448868089	 0.0816732887	-0.435504
C	 0.0050640961	 0.0300157908	-0.0268277421	-0.141565
C	-1.421420629	-0.5154928113	-0.0441264217	 0.41542
O	-2.094415651	-0.0686600336	 1.129722661	-0.494995
C	-2.2239452602	-0.1452192793	-1.318695949	-0.282304
C	-3.2283109864	-1.3113335775	-1.4530026559	-0.161643
N	-2.6219545814	-2.5113915366	-0.8396092739	-0.096697
C	-1.2495216535	-2.7713899038	-1.287951645	-0.26408
C	-1.4941259227	-2.0339907353	-0.0197159916	-0.051822
H	 0.7469101528	 1.8076501571	 0.3404209223	 0.295509
H	 0.54314542	-0.2593502234	-0.9402304689	 0.09141
H	 0.5379115543	-0.3877011375	 0.8390156732	 0.097039
H	-1.8505768948	 0.8616247516	 1.2237846581	 0.283565
H	-2.7150340686	 0.8221265773	-1.2024059341	 0.109441
H	-1.5653927113	-0.0738614028	-2.1897003197	 0.097958
H	-4.1397972398	-1.0940230417	-0.8882776648	 0.119124
H	-3.5128990613	-1.5195604767	-2.4888696508	 0.100844
H	-0.9523577142	-3.815258776	-1.2479202223	 0.116095
H	-0.8578050119	-2.2293486768	-2.1454666973	 0.106145
H	-1.3443992864	-2.5088277135	 0.9450334937	 0.096061
110.8642	125.1791	190.9235	257.2794	275.5583	341.657	390.4586	401.525	435.9831	461.5732	503.1035	656.325	669.9083	729.1331	809.6379	824.7173	870.8326	936.126	950.3075	982.2552	1001.8004	1014.5286	1050.967	1080.5646	1103.3473	1112.7149	1138.0656	1158.3992	1185.6704	1203.0907	1241.2573	1250.5588	1264.8499	1286.6299	1320.0928	1336.0326	1373.3003	1420.1082	1448.9416	1476.5197	1492.0982	1506.532	1514.0246	2993.2889	3034.9057	3052.2363	3058.2149	3095.4626	3106.8435	3122.5044	3159.2205	3188.93	3766.1011	3841.3559
OCC1(O)CCN2CC12	OC[C@@]1(O)CCN2C[C@@H]12	
InChI=1S/C6H11NO2/c8-4-6(9)1-2-7-3-5(6)7/h5,8-9H,1-4H2	InChI=1S/C6H11NO2/c8-4-6(9)1-2-7-3-5(6)7/h5,8-9H,1-4H2/t5-,6-,7?/m0/s1
