14
gdb 124045	3.75608	1.63922	1.15721	3.4581	71.03	-0.2253	-0.0401	0.1851	973.512	0.103416	-436.676005	-436.669607	-436.668662	-436.706953	24.928	
C	-0.0116809797	 1.4908406891	 0.1095778257	-0.142316
O	 1.2631433429	 2.1375423426	-0.0573638173	-0.285383
C	 2.1213012542	 1.4956894977	-0.8804354506	 0.17945
C	 3.2332445855	 1.9216042071	-1.525747616	-0.048468
O	 3.7984975906	 0.8681095548	-2.169273153	-0.176056
N	 3.0449631582	-0.2776078869	-1.9469437521	-0.226801
C	 2.0536085723	 0.1042480247	-1.1761417024	 0.294436
C	 0.9748553695	-0.6883181407	-0.6245336855	-0.147628
C	 0.0076506904	-0.0153150759	 0.0089682969	-0.101504
H	-0.3662362012	 1.8056410858	 1.0955829728	 0.134104
H	-0.7168272403	 1.9008407344	-0.6330313576	 0.125318
H	 3.7384994915	 2.8680901875	-1.6165899489	 0.154016
H	 0.9780113198	-1.7670869087	-0.7227646459	 0.123851
H	-0.8427285138	-0.5276987314	 0.4481421839	 0.116981
107.8396	193.3792	337.9052	423.0227	450.6064	515.394	592.2245	603.3801	684.5154	716.4413	782.1908	800.6446	857.926	907.7973	931.3073	938.885	994.1172	1032.789	1047.026	1111.1256	1181.4482	1235.8046	1266.0412	1289.1082	1385.8481	1404.8479	1463.6529	1496.3444	1550.8713	1669.6399	1701.403	2963.0884	3077.8823	3180.8315	3213.7079	3285.5406
C1OC2=CON=C2C=C1	C1Oc2conc2C=C1	
InChI=1S/C6H5NO2/c1-2-5-6(8-3-1)4-9-7-5/h1-2,4H,3H2	InChI=1S/C6H5NO2/c1-2-5-6(8-3-1)4-9-7-5/h1-2,4H,3H2
