21
gdb 92223	2.79832	1.68826	1.34452	1.7235	80.75	-0.253	0.081	0.334	1038.038	0.184595	-387.079687	-387.072075	-387.071131	-387.111408	31.095	
C	 0.000405548	 1.6089272039	-0.1160010149	-0.41961
C	 0.0357579617	 0.091828809	 0.0073314007	 0.050635
C	 0.9292180945	-0.7339673815	-0.966276793	-0.250455
C	 1.3637298639	-1.6442056429	 0.2208474651	-0.006815
C	 2.8633246916	-1.8220230082	 0.5406247135	-0.266603
C	 3.2174550831	-0.6260998395	 1.4050901879	 0.051918
O	 2.9031473719	 0.6328876026	 0.7981863845	-0.255921
C	 1.9943683951	 0.1075711669	 1.783267732	 0.026699
C	 0.7728970442	-0.5831795414	 1.2102881915	-0.069472
H	 1.0079290697	 2.0316651997	-0.0951827605	 0.140642
H	-0.4727358291	 1.9083123569	-1.058295442	 0.108891
H	-0.5775145001	 2.060860228	 0.6987624902	 0.105013
H	-0.9886183207	-0.2967170256	-0.0238627955	 0.067709
H	 0.4190368145	-1.2268811051	-1.7983627084	 0.085165
H	 1.7614624212	-0.1446087096	-1.3558834788	 0.11293
H	 0.8301809013	-2.5968017478	 0.221616759	 0.068946
H	 3.0432589751	-2.7417391636	 1.1106967096	 0.09891
H	 3.4824148067	-1.8714955588	-0.3620504322	 0.110507
H	 4.1168230471	-0.6284479961	 2.0176640485	 0.090154
H	 1.926991596	 0.69779766	 2.6943373526	 0.090199
H	 0.1373559942	-0.939449227	 2.0271073401	 0.060558
123.1072	181.2348	221.4417	273.5453	345.9817	378.2221	388.6144	540.863	590.2898	678.1117	735.5147	778.9912	818.3345	830.7248	864.8761	882.6721	898.2927	927.3301	949.6285	964.8798	1000.1309	1038.4155	1046.3936	1089.2707	1109.1704	1128.5929	1138.3168	1158.9548	1209.8551	1211.5315	1248.1383	1264.8106	1268.8083	1275.1434	1306.2253	1319.0668	1347.0721	1352.1824	1381.6988	1409.3189	1425.7061	1476.493	1481.876	1494.8979	1507.1953	3025.6	3031.7695	3031.8481	3056.0626	3058.4069	3073.7746	3083.4811	3084.756	3120.9874	3125.1743	3130.3263	3143.8667
CC1CC2CC3OC3C12	C[C@H]1C[C@H]2C[C@H]3O[C@H]3[C@@H]12	
InChI=1S/C8H12O/c1-4-2-5-3-6-8(9-6)7(4)5/h4-8H,2-3H2,1H3	InChI=1S/C8H12O/c1-4-2-5-3-6-8(9-6)7(4)5/h4-8H,2-3H2,1H3/t4-,5-,6+,7-,8+/m0/s1
