16
gdb 28780	3.25779	1.71173	1.13493	2.9966	77.76	-0.1978	-0.0075	0.1903	1023.965	0.127554	-396.967657	-396.960381	-396.959437	-396.999323	28.154	
N	 0.1713049078	 1.4409646138	 0.0757660479	-0.611926
C	 0.0360286027	 0.0428836373	-0.0136594849	 0.196543
C	-1.033314113	-0.8267973711	-0.0552569642	-0.148522
N	-0.6196005597	-2.1504379025	-0.0610610913	-0.36382
C	 0.6856850809	-2.0807009326	-0.0367053382	 0.378719
C	 1.8777719748	-2.9967631619	-0.0302788175	-0.412223
C	 3.0227993221	-1.9964549015	 0.0359914813	-0.13499
C	 2.5432186323	-0.7453813476	 0.056876499	-0.025429
N	 1.1397865855	-0.7841478413	 0.0064626627	-0.012783
H	 0.358036859	 1.8718395257	-0.8255993463	 0.246191
H	-0.6737488907	 1.858578627	 0.4460507588	 0.250595
H	-2.0817385318	-0.5674779473	-0.0744854833	 0.095868
H	 1.8758534527	-3.6762139524	 0.8307809185	 0.145164
H	 1.9298812449	-3.6285459849	-0.9257288984	 0.142818
H	 4.0670153548	-2.268524497	 0.0680008934	 0.113219
H	 3.0581751576	 0.2017239464	 0.1117389522	 0.140575
121.2009	170.8001	186.0812	262.231	335.2513	447.9538	539.3015	633.9505	641.6066	677.7324	688.4936	725.4451	777.2584	806.0847	832.9318	887.6298	914.599	939.3688	943.3719	1032.2807	1128.526	1135.3936	1167.7744	1173.5563	1240.423	1259.4319	1288.9458	1324.8052	1400.7894	1448.1613	1469.1605	1558.8315	1597.8748	1648.5017	1656.9324	3034.52	3060.9701	3239.658	3244.0994	3266.7712	3488.3746	3592.7474
NC1=CN=C2CC=CN12	Nc1cnc2CC=Cn12	
InChI=1S/C6H7N3/c7-5-4-8-6-2-1-3-9(5)6/h1,3-4H,2,7H2	InChI=1S/C6H7N3/c7-5-4-8-6-2-1-3-9(5)6/h1,3-4H,2,7H2
