17
gdb 83501	3.02924	1.52342	1.48474	3.362	69.13	-0.2358	0.0192	0.255	954.8115	0.139085	-455.143949	-455.136881	-455.135937	-455.175065	28.892	
O	 0.0583882694	 1.3851254139	 0.0880887099	-0.454227
C	 0.011838959	-0.0112940843	 0.0152709165	 0.175919
C	-1.3622465013	-0.6250718101	-0.3984219609	-0.086174
C	-1.4930752477	-0.033948717	-1.8129553064	-0.095434
O	-0.1265191811	-0.0153329476	-2.2855845474	-0.297531
C	 0.6781717367	-0.6134649484	-1.2322615669	-0.019216
C	 0.2886633852	-2.0779733985	-1.1313322475	 0.399794
N	 0.9793446415	-3.0562638877	-1.5530345338	-0.567886
N	-0.9607888501	-2.0311000448	-0.4997709065	-0.321233
H	 0.1397808176	 1.7138458244	-0.8164619271	 0.297333
H	 0.3677059883	-0.4273352051	 0.9590649698	 0.108391
H	-2.2018254369	-0.4615976098	 0.2750870279	 0.093061
H	-2.1081838729	-0.6567591942	-2.4713379967	 0.106977
H	-1.8923875022	 0.9870156576	-1.8066703344	 0.110385
H	 1.7265370699	-0.41261415	-1.4345334925	 0.105257
H	 0.4965229625	-3.9461591024	-1.4065765609	 0.203212
H	-1.648499948	-2.7413461261	-0.7071786832	 0.241372
152.7894	247.2315	277.6103	310.569	404.2113	428.6513	479.7933	488.9474	557.6372	636.0505	680.3383	784.6759	832.5726	850.4431	871.989	900.7301	910.08	947.7687	995.5636	1016.7864	1027.6102	1066.5302	1110.9614	1125.1969	1162.2373	1213.1673	1220.4847	1250.1242	1287.4836	1293.772	1327.7104	1358.971	1376.4394	1395.5562	1431.7378	1517.9864	1766.6144	3029.6529	3075.6251	3113.7526	3139.6464	3174.1597	3437.369	3598.7699	3775.3577
OC1C2COC1C(=N)N2	O[C@H]1[C@H]2CO[C@@H]1[C]([NH])N2	
InChI=1S/C5H8N2O2/c6-5-4-3(8)2(7-5)1-9-4/h2-4,8H,1H2,(H2,6,7)	InChI=1S/C5H8N2O2/c6-5-4-3(8)2(7-5)1-9-4/h2-4,8H,1H2,(H2,6,7)/t2-,3+,4+/m1/s1
