14
gdb 18694	3.29218	2.39125	1.53854	4.852	57.25	-0.268	-0.0174	0.2505	788.8837	0.108516	-419.688731	-419.682311	-419.681367	-419.719559	23.978	
O	 0.0670867163	-0.0024624283	 0.181475685	-0.321483
C	 0.0117904035	 1.1714836199	-0.0577460956	 0.437467
O	-1.1838903123	 1.794744558	-0.1822245438	-0.229126
C	-1.2512578915	 3.0353418313	-0.9104784975	-0.082299
C	-0.273692403	 4.0874274101	-0.3981474638	-0.247458
C	 1.1218094062	 3.4987929825	-0.2843964102	 0.040799
O	 1.4263102757	 2.9013691661	 0.9724756925	-0.231599
C	 1.2469122393	 2.0344961511	-0.1579450459	-0.106748
H	-1.0639395317	 2.8244858135	-1.971121594	 0.118902
H	-2.2876101674	 3.3634021626	-0.8095158568	 0.132892
H	-0.2799908734	 4.9397284328	-1.0852571421	 0.116383
H	-0.5809171133	 4.4515125405	 0.5872301771	 0.138508
H	 1.9485164847	 4.0515902397	-0.7277981062	 0.108188
H	 2.1369554669	 1.5005974202	-0.4797243485	 0.125574
87.7792	227.9475	228.5498	397.2204	431.8589	463.4118	534.1719	689.4859	755.3228	781.3005	823.0912	883.5986	908.6892	963.1168	998.8946	1063.2614	1091.1164	1110.368	1139.6492	1225.5026	1250.5176	1269.0812	1296.6633	1359.4145	1374.0665	1420.2859	1445.5872	1469.2769	1511.8777	1851.6297	3028.3356	3053.3416	3098.8723	3116.0773	3125.0181	3158.6769
O=C1OCCC2OC12	O=C1OCC[C@H]2O[C@@H]12	
InChI=1S/C5H6O3/c6-5-4-3(8-4)1-2-7-5/h3-4H,1-2H2	InChI=1S/C5H6O3/c6-5-4-3(8-4)1-2-7-5/h3-4H,1-2H2/t3-,4-/m1/s1
