17
gdb 16147	3.94029	1.74082	1.45079	3.0613	68.66	-0.2431	-0.0242	0.2189	893.1718	0.143368	-363.860605	-363.853539	-363.852595	-363.891868	27.034	
O	-0.2790582192	 0.1304979139	 0.2012626022	-0.262874
C	-0.0491090113	 1.284941832	-0.063132527	 0.095627
C	 1.3060584712	 1.891845152	-0.0339346528	 0.246389
C	 1.4484005312	 3.3365857434	 0.3443359975	-0.286954
N	 1.5574631188	 2.9551848278	-1.053810159	-0.129263
C	 2.9446949365	 2.7465096924	-1.5229777395	-0.149536
C	 3.6695454931	 1.8300176523	-0.5099253518	-0.246261
C	 2.5289791407	 1.004165141	 0.123212337	-0.284549
H	-0.8550065752	 1.9926067714	-0.3587247986	 0.079905
H	 0.56429287	 3.9194187986	 0.5893435839	 0.124073
H	 2.340194945	 3.6117460282	 0.9029737239	 0.120918
H	 2.8764197789	 2.2659403279	-2.5042555701	 0.116817
H	 3.4369080741	 3.7140461751	-1.6602160244	 0.112807
H	 4.424157225	 1.203838366	-0.9913460719	 0.110621
H	 4.1886042933	 2.4208263816	 0.2503512543	 0.109967
H	 2.72605406	 0.7376498271	 1.1647959589	 0.115863
H	 2.352286788	 0.0701097994	-0.4186630127	 0.12645
99.7456	199.0131	208.6541	256.7961	372.6448	424.5016	472.1058	627.2927	645.4447	728.8843	781.0536	812.2012	885.9666	893.8673	938.0353	949.7446	996.0418	1021.1079	1041.4937	1084.9637	1116.4132	1171.4386	1194.0834	1207.6753	1253.9388	1284.534	1300.6695	1332.9209	1358.8619	1367.0998	1426.1029	1488.7165	1494.3722	1498.356	1519.5453	1816.3622	2892.4432	3049.5538	3059.2693	3063.8837	3091.8236	3100.3939	3102.2386	3114.7309	3186.0953
O=CC12CN1CCC2	O=C[C@]12CN1CCC2	
InChI=1S/C6H9NO/c8-5-6-2-1-3-7(6)4-6/h5H,1-4H2	InChI=1S/C6H9NO/c8-5-6-2-1-3-7(6)4-6/h5H,1-4H2/t6-,7?/m0/s1
