20
gdb 86325	2.07918	1.5484	1.09486	4.9093	75.45	-0.2421	0.0141	0.2562	1186.3492	0.170543	-440.306259	-440.296966	-440.296021	-440.340479	34.112	
C	-0.3848311708	 1.4187758988	 0.049051364	-0.414036
C	-0.0728914094	-0.0704527874	-0.0260529528	-0.00245
C	 1.1571340924	-0.4695813966	-0.8855025491	-0.17908
N	 1.942295979	-0.7012768832	 0.3499772121	-0.09843
H	 2.4300886273	 0.6733312335	 1.6319908012	 0.296498
C	 2.8157335784	-1.8601601343	 0.4117252596	-0.33536
C	 0.7178678939	-0.6869252402	 1.1805734232	-0.139808
C	 0.8427864899	 0.1618852548	 2.4424750487	 0.431795
O	 1.9630361999	 0.903207721	 2.4656505454	-0.371759
O	 0.0116073101	 0.191924568	 3.3098726847	-0.345432
H	 0.5102615842	 2.0064112793	 0.2757308994	 0.127732
H	-0.789389365	 1.7727292602	-0.9046054377	 0.116744
H	-1.1239161238	 1.6225870272	 0.8295319829	 0.144363
H	-0.9774279574	-0.6319280165	-0.2640716917	 0.092379
H	 0.9943865308	-1.3916916555	-1.4613501615	 0.097983
H	 1.5769358611	 0.2933185835	-1.5498201135	 0.109882
H	 3.6479536577	-1.7330930742	-0.2876405136	 0.131215
H	 3.2314606355	-1.955279008	 1.4198629149	 0.13548
H	 2.2932958388	-2.7992921287	 0.161403036	 0.108245
H	 0.3429432173	-1.6795354117	 1.4591658778	 0.094038
73.4415	105.2874	147.5054	189.1082	229.9987	233.5246	264.121	341.0709	379.0817	408.2564	494.9407	619.2008	675.0693	744.9456	831.4735	857.5994	862.244	914.9167	921.0236	979.5864	1004.5542	1058.7449	1100.3671	1117.319	1171.2888	1179.7756	1205.6386	1218.898	1229.4336	1265.6163	1274.5755	1318.0664	1342.2497	1370.5207	1415.6393	1418.8326	1454.997	1489.1045	1495.3269	1499.1998	1500.3901	1518.67	1869.4035	2963.0743	3000.0294	3033.4604	3037.8549	3065.3341	3068.8723	3092.286	3108.8538	3109.7168	3117.5219	3471.5423
CC1C[NH+](C)C1C([O-])=O	C[C@H]1CN(C)[C@H]1C(=O)O	
InChI=1S/C6H11NO2/c1-4-3-7(2)5(4)6(8)9/h4-5H,3H2,1-2H3,(H,8,9)	InChI=1S/C6H11NO2/c1-4-3-7(2)5(4)6(8)9/h4-5H,3H2,1-2H3,(H,8,9)/t4-,5+/m0/s1
