21
gdb 123236	11.77541	0.39674	0.39173	2.7754	78.93	-0.2549	-0.0265	0.2283	2703.0001	0.17844	-461.34516	-461.333832	-461.332888	-461.384165	36.865	
C	-0.7853261086	 1.6416590128	-0.5352337119	-0.225965
O	-0.6933231225	 0.2466100722	-0.6974704192	-0.232648
C	-0.4987503543	-0.4352004986	 0.5185527783	-0.068152
C	-0.4157640718	-1.920656732	 0.2024462463	-0.073658
O	-0.2205804965	-2.6069746218	 1.420386342	-0.247725
C	-0.1345198026	-4.0040780459	 1.264900372	-0.056302
C	 0.0422481447	-4.6257333413	 2.6501801878	-0.281082
C	 0.379685396	-6.0971216476	 2.5759522646	 0.15369
O	-0.2243668834	-6.9727516877	 3.1384949532	-0.232064
H	-0.9347814336	 2.0772542315	-1.5260320674	 0.12844
H	-1.633307355	 1.9227716851	 0.1091124904	 0.106062
H	 0.1326241305	 2.06299542	-0.0956854493	 0.105552
H	 0.4290109221	-0.1089820923	 1.0166057391	 0.095136
H	-1.3298450449	-0.2511363701	 1.2187862884	 0.096609
H	-1.3435285755	-2.2469286581	-0.2933788749	 0.100714
H	 0.415752353	-2.1060288593	-0.4959584981	 0.098602
H	-1.0434698185	-4.3977855178	 0.7809565226	 0.10367
H	 0.7180307666	-4.2684043951	 0.6148495255	 0.091925
H	 0.8833460171	-4.1130275292	 3.1377146215	 0.132446
H	-0.8502005881	-4.4877848828	 3.2645778441	 0.131435
H	 1.2687092954	-6.3323569722	 1.9436568649	 0.073315
32.5072	50.3036	68.5205	83.1632	99.3171	133.1259	141.9777	209.5997	233.7873	270.8726	343.8577	472.9927	485.6449	547.4632	788.7668	834.8131	871.2023	978.2457	1006.9564	1039.6446	1077.3184	1125.8978	1138.2084	1162.7204	1168.3816	1176.4503	1190.9498	1225.0921	1233.7132	1239.3045	1276.6451	1291.4446	1308.1289	1356.8889	1418.4856	1431.8525	1458.3498	1467.5888	1483.698	1485.8141	1504.7551	1515.5406	1532.9932	1539.2716	1838.583	2850.4342	2950.4368	2962.1838	2974.2554	2977.3371	2984.958	2989.9674	3015.4212	3019.189	3026.8528	3115.7158	3118.7249
COCCOCCC=O	COCCOCCC=O	
InChI=1S/C6H12O3/c1-8-5-6-9-4-2-3-7/h3H,2,4-6H2,1H3	InChI=1S/C6H12O3/c1-8-5-6-9-4-2-3-7/h3H,2,4-6H2,1H3
