16
gdb 45887	2.32542	1.9762	1.16165	4.3986	71.23	-0.2322	-0.0183	0.2139	1013.7389	0.126232	-437.896874	-437.889544	-437.8886	-437.928872	28.276	
O	 0.1403164357	 0.1789205756	 0.7178060422	-0.353204
C	 0.0244106221	 1.2483212548	 0.1557420896	 0.368002
N	-1.200916399	 1.885197964	 0.1039078218	-0.329801
C	-1.5959562186	 3.1047785585	-0.4664758075	 0.018189
C	-0.84662455	 4.2031283097	-0.5809010926	-0.096758
C	 0.5598089131	 4.2945675533	-0.0489302461	-0.315015
C	 1.4862229768	 3.282920569	-0.7002141387	 0.0528
O	 2.2346067825	 2.4365620617	 0.1780062249	-0.240555
C	 1.1910470488	 1.8500397079	-0.6043503305	-0.047068
H	-1.9288325546	 1.3163335928	 0.5166583027	 0.256142
H	-2.6260710307	 3.0975507324	-0.8088703035	 0.114497
H	-1.2863726638	 5.0642984581	-1.0704907029	 0.10191
H	 0.957154197	 5.3056276808	-0.1682072086	 0.113105
H	 0.5604633132	 4.0738506892	 1.0269979396	 0.137104
H	 2.0410889905	 3.6229656805	-1.574725867	 0.099937
H	 1.5448989869	 1.1722420717	-1.3819080733	 0.120714
78.8652	158.8275	234.6423	315.3592	358.9727	423.1431	486.0888	512.2055	614.6505	639.7734	692.9321	740.4708	791.2842	826.08	856.7422	915.9293	937.6633	953.5503	1014.2181	1033.0092	1096.9313	1113.3727	1138.9369	1217.5311	1246.5168	1287.1037	1326.5492	1342.2969	1390.5185	1429.0636	1468.6695	1476.8326	1483.6828	1722.0556	1787.7282	3023.5513	3092.452	3105.2783	3117.1573	3174.015	3201.6239	3583.1559
O=C1NC=CCC2OC12	O=C1NC=CC[C@H]2O[C@@H]12	
InChI=1S/C6H7NO2/c8-6-5-4(9-5)2-1-3-7-6/h1,3-5H,2H2,(H,7,8)	InChI=1S/C6H7NO2/c8-6-5-4(9-5)2-1-3-7-6/h1,3-5H,2H2,(H,7,8)/t4-,5-/m1/s1
