18
gdb 57005	2.52269	1.41734	1.17991	1.9086	76.44	-0.2464	0.0243	0.2707	1120.893	0.147173	-401.931628	-401.922803	-401.921859	-401.965555	32.435	
C	-0.0014411755	 1.5505889475	-0.0006339528	-0.394055
C	-0.0124547506	 0.0106387764	 0.0661351535	-0.174977
C	 0.6607791772	-0.4766583039	 1.2689171901	 0.344379
C	 1.2138655448	-0.8685005271	 2.2614587627	-0.479279
C	-1.4440791752	-0.5479476048	-0.0515549344	 0.099208
C	-1.5839374022	-2.0914884277	 0.0468013178	-0.208796
N	-2.4699488589	-2.3265931395	 1.1999104339	-0.259895
C	-2.7462719117	-1.1799695722	 1.6565651322	 0.127298
O	-2.2526880321	-0.068811887	 1.0546463178	-0.230221
H	 1.0213956783	 1.9309321272	 0.0497989545	 0.127762
H	-0.45377798	 1.8930162829	-0.9368394722	 0.114361
H	-0.5697937957	 1.9687892675	 0.8328217686	 0.146056
H	 0.5296464927	-0.3764430923	-0.8092124278	 0.111387
H	 1.7019423891	-1.2182889416	 3.1374624833	 0.201384
H	-1.8907030534	-0.1485779618	-0.9684830429	 0.092298
H	-2.0223316135	-2.5279549309	-0.8557831708	 0.115463
H	-0.6193768002	-2.5799267322	 0.2213057393	 0.127161
H	-3.3716495833	-0.9770972305	 2.518734567	 0.140466
66.7738	78.9892	152.397	192.9217	224.8146	260.1495	359.3309	376.6424	493.2135	547.615	629.0762	648.0148	669.3278	709.1878	779.8158	877.7311	885.393	953.8775	957.4193	980.5612	1015.6889	1024.6759	1063.3108	1111.2375	1122.5246	1149.3421	1217.5527	1297.8352	1312.6926	1315.9741	1330.5578	1353.9105	1388.1394	1408.0833	1492.2827	1495.1501	1503.0557	1714.8016	2236.1627	3002.4154	3041.9235	3045.945	3049.8812	3084.7746	3119.5007	3139.6334	3217.9462	3503.1501
CC(C#C)C1CN=CO1	C[C@@H](C#C)[C@H]1CN=CO1	
InChI=1S/C7H9NO/c1-3-6(2)7-4-8-5-9-7/h1,5-7H,4H2,2H3	InChI=1S/C7H9NO/c1-3-6(2)7-4-8-5-9-7/h1,5-7H,4H2,2H3/t6-,7+/m0/s1
