17
gdb 98313	2.95811	1.06934	0.8982	2.5272	65.23	-0.2724	-0.0427	0.2298	1297.848	0.133012	-496.078239	-496.068825	-496.067881	-496.113635	33.236	
O	-0.0367611683	 1.3561915117	-0.0649756703	-0.417761
C	-0.0576588346	-0.036775618	-0.1613938442	-0.136657
C	-1.4482677652	-0.5950621227	 0.067877189	 0.34723
O	-2.394353807	 0.1585275916	 0.1744642496	-0.338573
C	-1.6749693756	-2.1069366944	 0.1625500465	 0.005528
O	-3.0339162238	-2.3705386546	 0.35249261	-0.430396
C	-1.1164755288	-2.8041720906	-1.075388215	 0.042793
C	-1.912777674	-3.7842564902	-1.8187046355	-0.163378
O	-1.7253431203	-2.4530220003	-2.3144021864	-0.238074
H	-0.9642608169	 1.6326404944	-0.0205610669	 0.298881
H	 0.274267834	-0.3807165905	-1.1564706207	 0.139045
H	 0.6333954206	-0.4853728541	 0.568798242	 0.123661
H	-1.0926472286	-2.467400603	 1.0291045792	 0.103189
H	-3.4779873825	-1.5082833977	 0.3166485213	 0.302008
H	-0.0277911391	-2.8799120956	-1.104685055	 0.101441
H	-1.4059304466	-4.5656558301	-2.3823990671	 0.117832
H	-2.9163489531	-4.0064901958	-1.4694055564	 0.143231
42.1155	64.8823	105.3393	150.8114	224.8072	274.122	337.4141	356.9094	382.5061	415.6929	454.1286	521.1382	649.9115	748.8102	778.5432	858.1484	898.5382	962.3695	993.8208	1021.7941	1061.5963	1101.9656	1146.1146	1164.2497	1168.0603	1190.7833	1247.0669	1268.6698	1290.7771	1319.4904	1357.3282	1407.25	1440.8147	1449.573	1487.9895	1516.326	1786.2809	2955.1187	2966.6843	3006.4797	3090.8587	3103.1054	3208.0653	3688.6018	3720.3296
OCC(=O)C(O)C1CO1	OCC(=O)[C@@H](O)[C@H]1CO1	
InChI=1S/C5H8O4/c6-1-3(7)5(8)4-2-9-4/h4-6,8H,1-2H2	InChI=1S/C5H8O4/c6-1-3(7)5(8)4-2-9-4/h4-6,8H,1-2H2/t4-,5-/m1/s1
