17
gdb 24380	3.52746	1.58431	1.10798	0.6732	79.12	-0.2079	0.0228	0.2307	1054.2294	0.139174	-384.740801	-384.734007	-384.733062	-384.771967	27.315	
C	-0.0283014126	 1.4600973894	-0.1416030264	-0.398943
C	 1.3361338971	 2.0599920454	 0.1092482572	-0.051079
C	 2.4382602679	 1.3596804774	 0.3787673291	-0.038637
C	 2.5112791763	-0.1454516805	 0.4789340711	-0.404637
C	 1.1697946805	-0.7636893223	 0.2343174763	 0.213584
C	 0.0690911135	-0.0175599422	-0.0375227606	 0.31228
O	-1.0214968909	-0.8105897014	-0.2198515521	-0.1978
C	-0.5967794496	-2.0969542628	-0.0580434722	-0.020385
C	 0.7313481842	-2.1326253501	 0.2204566046	-0.310294
H	-0.757600995	 1.8638855256	 0.576964222	 0.123719
H	-0.4011298011	 1.7671369278	-1.1305420799	 0.123722
H	 1.3927186433	 3.144099328	 0.0598397984	 0.088871
H	 3.372031714	 1.891671719	 0.543564558	 0.086766
H	 3.2577791432	-0.524885816	-0.2352523412	 0.117659
H	 2.9030312088	-0.4288339299	 1.4676234662	 0.117647
H	-1.3537922959	-2.8551489736	-0.1726521587	 0.130709
H	 1.3254960465	-3.0169799438	 0.3944173283	 0.106818
105.4975	221.2746	265.3531	377.3945	404.1443	475.1924	587.069	614.1165	654.8635	683.6164	724.3336	737.5321	818.7354	860.465	906.2907	919.676	974.0194	980.2167	986.008	1014.2174	1065.8345	1128.0302	1162.4305	1193.1956	1199.1542	1207.7281	1246.4603	1253.2863	1338.3763	1381.0013	1409.9857	1457.5365	1477.3449	1484.3327	1542.634	1671.5114	1731.1865	2989.1762	2990.0379	3000.0228	3001.5168	3148.5382	3172.2619	3246.4291	3282.2889
C1C=CCC2=C1OC=C2	C1C=CCc2c1occ2	
InChI=1S/C8H8O/c1-2-4-8-7(3-1)5-6-9-8/h1-2,5-6H,3-4H2	InChI=1S/C8H8O/c1-2-4-8-7(3-1)5-6-9-8/h1-2,5-6H,3-4H2
