16
gdb 85804	2.6014	1.24758	1.18091	5.5882	72.83	-0.2463	-0.0049	0.2413	1137.8216	0.122983	-434.060022	-434.050648	-434.049704	-434.094531	32.822	
C	-0.0222809594	 1.3560868135	 0.5510054198	-0.349498
N	 0.012847314	 0.1196603074	-0.1853706612	-0.0748
C	-1.0858757258	-0.789343616	-0.5335180412	-0.212033
C	 0.0038530042	-1.8603826004	-0.8672756808	 0.187105
O	-0.0919503145	-3.0196999745	-0.0875271184	-0.447144
C	 0.139544322	-2.1626785898	-2.299285097	 0.25081
N	 0.2429428711	-2.4042262804	-3.424431434	-0.332549
C	 1.0076649129	-0.8214508057	-0.3240773711	 0.322523
N	 2.2358045086	-0.9700462895	-0.0707416944	-0.564052
H	 0.9900310075	 1.7651275276	 0.6067686433	 0.145864
H	-0.6556112224	 2.0878668711	 0.0392784443	 0.14441
H	-0.4003748565	 1.2207711265	 1.5741786359	 0.133891
H	-1.700826877	-1.1064023125	 0.3158173365	 0.131518
H	-1.7135709541	-0.452175638	-1.3626318481	 0.133965
H	 0.8129759609	-3.3053838896	 0.0976630114	 0.308084
H	 2.6550652285	-0.1634932696	 0.3919431751	 0.221905
74.1262	100.5675	121.4407	163.894	197.7044	205.9302	260.6025	337.9798	383.7812	438.1669	508.6732	604.0652	616.3163	703.0628	779.1576	804.8898	843.4226	936.1001	967.7796	1023.5667	1120.0525	1122.3725	1160.9116	1207.2171	1234.4178	1262.7183	1299.4161	1370.6773	1414.735	1455.5467	1480.2428	1506.	1521.4889	1800.2713	2356.515	3004.6394	3041.4041	3076.8244	3104.3642	3119.6893	3482.9902	3769.7115
CN1CC(O)(C#N)C1=N	CN1C[C@@](O)(C#N)[C]1[NH]	
InChI=1S/C5H7N3O/c1-8-3-5(9,2-6)4(8)7/h7,9H,3H2,1H3	InChI=1S/C5H7N3O/c1-8-3-5(9,2-6)4(8)7/h7,9H,3H2,1H3/t5-/m0/s1
