23
gdb 102302	2.35915	0.9008	0.74252	2.0712	88.83	-0.2523	0.0566	0.309	1651.8357	0.202085	-388.266399	-388.254928	-388.253984	-388.303874	41.556	
C	 1.3697601762	-0.3140984787	-1.2018484989	-0.388909
C	 0.3509916657	-0.0680394645	-0.0869808652	-0.176542
C	 0.8034866074	-0.6014777631	 1.2928105622	-0.161743
C	-0.2041120849	-0.2860937382	 2.4267674603	-0.182244
C	-0.4059119298	 1.2042311282	 2.7054043327	 0.115227
C	-1.326758956	 1.4332027534	 3.9047071978	-0.406198
O	 0.8896935938	 1.7571261232	 2.9351135071	-0.432307
C	 1.047678646	-2.043120033	 1.2487629572	 0.325449
C	 1.2162468852	-3.2338764695	 1.2202308686	-0.467621
H	 1.5623622319	-1.3830523526	-1.3292676385	 0.131603
H	 1.0096904636	 0.0836742163	-2.1557225894	 0.107974
H	 2.325036422	 0.1731752638	-0.9767912271	 0.114666
H	 0.1710350371	 1.008031425	 0.0057088181	 0.101434
H	-0.608586391	-0.5314041278	-0.3483747529	 0.097619
H	 1.7442045848	-0.0998570783	 1.5519311735	 0.123588
H	-1.1739138331	-0.7383642164	 2.1891757502	 0.101499
H	 0.1531643372	-0.7625916353	 3.3464719368	 0.110456
H	-0.8611097772	 1.6801741171	 1.8219641795	 0.06788
H	-2.3173145816	 1.0005872664	 3.7299443323	 0.117686
H	-0.9007768937	 0.9789499931	 4.8048179378	 0.126128
H	-1.4621494711	 2.5046383696	 4.0932266898	 0.103251
H	 0.7862432281	 2.6954080928	 3.1212600677	 0.282177
H	 1.3831710295	-4.2820705217	 1.1963287905	 0.188928
24.7354	75.035	110.3013	124.1112	158.0202	226.7022	241.3489	265.2213	270.507	294.8481	306.7211	403.1721	464.8719	496.016	523.8371	572.2834	618.4012	633.6522	761.44	811.669	852.4411	912.699	943.6944	957.7936	1028.2191	1038.1777	1060.2067	1087.559	1122.409	1138.7716	1156.3202	1214.9019	1273.0944	1289.0812	1324.1555	1338.8751	1358.3454	1369.4765	1389.6937	1402.9432	1412.8681	1428.4875	1472.7897	1484.2555	1491.8284	1497.7173	1498.1944	1507.794	2229.3076	2965.4236	3026.1823	3026.6055	3034.3773	3036.1964	3041.9629	3074.6425	3082.7303	3093.4478	3100.4454	3112.6822	3117.6563	3505.6034	3822.1002
CCC(CC(C)O)C#C	CC[C@@H](C[C@@H](C)O)C#C	
InChI=1S/C8H14O/c1-4-8(5-2)6-7(3)9/h1,7-9H,5-6H2,2-3H3	InChI=1S/C8H14O/c1-4-8(5-2)6-7(3)9/h1,7-9H,5-6H2,2-3H3/t7-,8+/m1/s1
