17
gdb 24153	5.08516	0.91486	0.81155	1.7505	74.27	-0.221	0.021	0.2421	1371.9125	0.136712	-421.827452	-421.819636	-421.818692	-421.860935	28.912	
C	 0.0136041503	 1.4246842268	 0.4693400625	-0.359961
C	-0.0608630824	-0.0592543904	 0.1725409203	 0.107667
C	-1.2781080362	-0.6890937131	-0.3513103726	-0.183398
O	-0.1636594992	-0.4239564298	-1.2068630072	-0.232529
C	 1.368716115	 2.0020467028	 0.1820889977	 0.248032
C	 2.1908886692	 2.65975459	 1.0430627147	-0.107451
O	 3.3417113324	 3.038713018	 0.4255428758	-0.143189
C	 3.2530062175	 2.6087107459	-0.8616026673	 0.005468
C	 2.0751055945	 1.9702525255	-1.0726516415	-0.276109
H	-0.7518290163	 1.9300828279	-0.1325534537	 0.114451
H	-0.2451721327	 1.5902760264	 1.5221897555	 0.106974
H	 0.6347687882	-0.6804232425	 0.7389131263	 0.097453
H	-1.4756462183	-1.7415767647	-0.153498703	 0.115463
H	-2.1617320292	-0.0779495605	-0.532438803	 0.113174
H	 2.10406641	 2.9321890749	 2.0824909483	 0.130799
H	 4.1007165164	 2.8335870678	-1.4876368362	 0.1343
H	 1.7333651708	 1.5166699447	-1.9893833969	 0.128855
54.6303	75.9756	121.9291	285.2498	307.053	357.1907	452.4553	622.9044	638.4107	719.107	740.7592	783.6555	794.2168	848.7834	865.5104	892.6772	934.0993	953.5743	993.5215	1054.4948	1094.319	1098.4356	1104.5886	1156.4702	1167.9868	1199.3951	1232.1254	1270.8367	1284.0656	1293.6383	1330.6475	1409.6078	1441.414	1465.5941	1527.9236	1538.3216	1637.2989	3024.6977	3065.4338	3081.8406	3103.5132	3168.3786	3261.2183	3269.638	3285.9743
C(C1CO1)C1=COC=C1	C([C@H]1CO1)c1cocc1	
InChI=1S/C7H8O2/c1-2-8-4-6(1)3-7-5-9-7/h1-2,4,7H,3,5H2	InChI=1S/C7H8O2/c1-2-8-4-6(1)3-7-5-9-7/h1-2,4,7H,3,5H2/t7-/m0/s1
