18
gdb 67601	2.76973	1.8752	1.79518	0.9373	72.84	-0.2234	0.0774	0.3008	874.6609	0.150787	-401.927608	-401.921132	-401.920188	-401.957925	27.778	
O	-0.0664501409	 1.3575878827	-0.0708577839	-0.477492
C	 0.0191749742	-0.0247282451	-0.0134621232	 0.406415
C	-1.2152541917	-0.8866789947	 0.04813251	-0.107805
C	-1.0691345154	-2.0569040682	-0.9143643975	-0.249834
C	 0.419234693	-2.0877100513	-1.2379429561	-0.030735
C	 1.0477348144	-0.7967355365	-0.8285812137	-0.149279
N	 1.3826089096	-2.0469694082	-0.1205215974	-0.120013
C	 0.7690656889	-2.0062333568	 1.2236291093	-0.178303
C	-0.2421601791	-0.8722577504	 1.2182694295	-0.158881
H	 0.671120064	 1.7270785391	 0.4271098868	 0.284587
H	-2.1833842336	-0.423055953	 0.1993994708	 0.09266
H	-1.4204227759	-3.0044594221	-0.4869881932	 0.105607
H	-1.6426601088	-1.8839193992	-1.8323216443	 0.108385
H	 0.7566337179	-2.6636593135	-2.0956181529	 0.088607
H	 1.8265174419	-0.2722106045	-1.3718888922	 0.087373
H	 0.3269163029	-2.9832337048	 1.450922938	 0.107345
H	 1.5618793229	-1.8258367701	 1.9585448952	 0.104342
H	-0.5655554642	-0.4111849834	 2.1455207447	 0.08702
238.2317	280.4876	309.757	351.758	436.4096	486.1459	563.5526	636.5558	686.7108	732.8416	745.3761	766.1736	810.9263	862.3693	902.8065	909.9356	939.2288	962.7615	1013.1213	1027.6493	1041.7556	1065.3329	1078.9058	1089.0863	1102.7143	1176.3345	1199.8154	1212.198	1231.745	1266.898	1282.2817	1301.7679	1321.1136	1323.7026	1349.6562	1383.9594	1465.0218	1487.0786	1506.9331	3027.2797	3032.5032	3063.5646	3066.5082	3139.3345	3165.8734	3169.3884	3180.5319	3793.6021
OC12C3CC4C1N4CC23	O[C@@]12[C@H]3C[C@H]4[C@@H]1N4C[C@@H]23	
InChI=1S/C7H9NO/c9-7-3-1-5-6(7)8(5)2-4(3)7/h3-6,9H,1-2H2	InChI=1S/C7H9NO/c9-7-3-1-5-6(7)8(5)2-4(3)7/h3-6,9H,1-2H2/t3-,4+,5-,6-,7+,8?/m0/s1
