17
gdb 55267	2.96929	1.33195	1.06214	10.2569	72.63	-0.1962	-0.0456	0.1506	1140.2756	0.135537	-455.182818	-455.174012	-455.173068	-455.217342	31.229	
C	-0.0021927561	 1.4114756716	 0.2133308526	-0.493818
C	 0.0138356893	-0.0523262017	-0.0624871615	 0.427681
N	-1.0704771331	-0.7827586227	-0.2519244105	-0.265042
H	-1.9002873704	-0.6747390149	 0.3925077483	 0.287168
C	-0.7092155075	-2.2110831874	-0.1110760884	-0.144628
C	 0.8259845354	-2.2228895036	-0.2090155478	-0.191087
N	 1.12265097	-0.7841464279	-0.0826114302	-0.289588
C	-1.2760571268	-2.6173049058	 1.3146029597	 0.390917
O	-2.2020759316	-1.8435328322	 1.6770655074	-0.488821
O	-0.7369798329	-3.582315295	 1.8504902343	-0.433727
H	 0.9667303293	 1.8702029696	 0.0065786047	 0.148221
H	-0.7698886602	 1.8999491508	-0.3889237458	 0.176298
H	-0.2455071201	 1.5735780477	 1.2694602651	 0.191283
H	-1.1878318679	-2.8101597601	-0.8869389746	 0.11605
H	 1.2483613616	-2.8034577775	 0.6174272527	 0.167404
H	 1.208820641	-2.6010183052	-1.161862268	 0.124536
H	 2.04791215	-0.3931550157	-0.0209468576	 0.277152
58.227	72.2091	95.3152	158.4121	214.2878	279.9373	340.6331	459.8203	500.4331	554.4238	596.4396	672.7523	692.3842	790.4835	821.41	836.5575	955.574	966.8589	1035.1768	1041.9158	1046.2116	1065.4099	1097.8364	1185.0535	1239.3239	1259.6441	1301.0506	1319.6676	1351.2187	1367.5574	1411.6214	1463.8807	1483.9071	1514.8876	1598.2791	1625.0297	1795.6461	2985.0471	3045.5883	3051.8364	3093.7554	3107.7129	3123.3323	3154.1674	3662.8839
CC1=[NH+]C(CN1)C([O-])=O	C[C]1N[C@@H](CN1)C(=O)[O]	
InChI=1S/C5H8N2O2/c1-3-6-2-4(7-3)5(8)9/h4H,2H2,1H3,(H,6,7)(H,8,9)	InChI=1S/C5H8N2O2/c1-3-6-2-4(7-3)5(8)9/h4,6-7H,2H2,1H3/t4-/m0/s1
