15
gdb 45169	3.12736	1.85794	1.62876	4.6125	63.22	-0.2614	0.0073	0.2687	845.7624	0.115926	-457.80504	-457.799143	-457.798199	-457.835258	24.399	
O	-0.0030302111	 0.0482700664	 0.4248366766	-0.345509
C	 0.0065759364	 1.1877394804	 0.0532439878	 0.45801
O	-1.1665582913	 1.8426534746	-0.2135712819	-0.237834
C	-1.0105168375	 3.2031471211	-0.6332855675	 0.164364
C	-0.1536132382	 3.2399991136	-1.9091994567	-0.261159
C	 1.2177699481	 3.0515233617	-1.2889251164	-0.124804
C	 1.0602060248	 3.5166960302	 0.1207582423	 0.094825
O	-0.2731439827	 3.9159550562	 0.335438777	-0.235491
C	 1.2221234807	 2.0253137331	-0.1434773842	-0.249395
H	-2.0120208159	 3.6225717075	-0.6972074315	 0.115235
H	-0.452300003	 2.4584248916	-2.6101395881	 0.133148
H	-0.230392921	 4.2161155198	-2.3969955411	 0.124576
H	 2.1242701778	 3.1946214307	-1.8612413611	 0.11369
H	 1.7792241424	 4.0760164889	 0.7026929159	 0.127326
H	 2.1554187304	 1.5422421541	 0.113619929	 0.12302
140.3222	363.9689	395.5821	451.374	503.5373	545.8657	637.2399	681.8879	777.3726	785.3681	820.697	852.8998	884.756	908.4087	933.0669	958.791	988.9134	1026.0205	1040.8569	1071.7714	1088.6999	1095.2821	1135.6097	1187.5562	1216.1421	1266.9382	1300.1079	1329.7556	1360.1415	1390.8383	1404.6838	1485.0844	1862.6459	3067.7964	3127.8224	3155.2012	3206.5353	3211.1712	3224.8184
O=C1OC2CC3C(O2)C13	O=C1O[C@@H]2C[C@H]3[C@@H](O2)[C@@H]13	
InChI=1S/C6H6O3/c7-6-4-2-1-3(9-6)8-5(2)4/h2-5H,1H2	InChI=1S/C6H6O3/c7-6-4-2-1-3(9-6)8-5(2)4/h2-5H,1H2/t2-,3-,4+,5-/m1/s1
