20
gdb 122862	4.19402	0.62302	0.56885	1.7894	74.57	-0.2558	0.0329	0.2887	1962.0618	0.168674	-477.407569	-477.396915	-477.395971	-477.44487	36.472	
C	-0.1695960005	 1.3087062311	 0.0371435481	-0.224987
O	-0.0378423008	-0.0918383243	 0.0501985132	-0.227167
C	 0.5612889951	-0.5960737248	-1.1199289204	-0.06668
C	 0.621392967	-2.1044275384	-1.0374759101	-0.062
O	-0.7139312022	-2.6092753683	-1.1595288187	-0.241936
C	-0.857083276	-3.9440975666	-1.1012816352	 0.362755
N	 0.1158157684	-4.7390725453	-0.9387064338	-0.527128
C	-2.3233753216	-4.317619792	-1.2617037771	-0.157732
O	-2.5626804039	-5.6854011639	-1.0091361455	-0.40223
H	 0.8075393293	 1.812141311	-0.0428356616	 0.102772
H	-0.8000691973	 1.652864237	-0.7981434732	 0.104951
H	-0.6404083331	 1.6018270999	 0.9785314272	 0.128338
H	-0.0076630014	-0.2932013282	-2.0147651524	 0.094459
H	 1.5885692147	-0.2082681435	-1.2338474597	 0.088639
H	 1.2438818648	-2.513175275	-1.8404445303	 0.11841
H	 1.0490222697	-2.4252444301	-0.0828594081	 0.130586
H	-0.2415139229	-5.6949692676	-0.9552618776	 0.224778
H	-2.9294072018	-3.6554877083	-0.6283060262	 0.121551
H	-2.6253183189	-4.1305106999	-2.2979495525	 0.140741
H	-2.4751721185	-5.8306709228	-0.0612560959	 0.291878
38.7169	60.0866	85.7283	110.0908	156.7954	183.1052	232.8368	283.0877	306.0536	318.7325	335.5741	450.877	526.4537	563.3896	692.7294	855.782	887.2131	909.7396	936.4592	1000.7766	1052.7777	1062.3912	1110.9948	1125.3882	1130.3298	1172.4658	1187.433	1202.2822	1228.4612	1261.0634	1297.2953	1333.8707	1380.9936	1399.0122	1425.5406	1447.3337	1479.779	1482.7819	1486.0946	1496.801	1498.7344	1521.7815	1734.4483	2952.9637	2969.5899	2988.172	3010.8351	3018.1967	3053.8047	3078.1026	3101.6789	3115.3023	3482.7859	3815.7461
COCCOC(=N)CO	COCCO[C]([NH])CO	
InChI=1S/C5H11NO3/c1-8-2-3-9-5(6)4-7/h6-7H,2-4H2,1H3	InChI=1S/C5H11NO3/c1-8-2-3-9-5(6)4-7/h6-7H,2-4H2,1H3
