17
gdb 70856	3.60652	1.58644	1.32986	2.3975	69.85	-0.2127	0.0673	0.28	955.0819	0.135978	-421.764488	-421.757386	-421.756442	-421.795281	30.046	
O	-0.1626368331	 1.3241561908	-0.0889436054	-0.478368
C	 0.0263663125	-0.0508052122	-0.065068503	 0.38921
C	 1.0933025288	-0.7352318888	-0.8998172733	-0.367741
C	 0.7608071958	-2.1716094107	-0.5394581561	 0.389207
O	 1.4213829027	-3.2498543615	-1.1120299855	-0.478378
C	-0.7232930813	-2.3350435056	-0.292585965	-0.12051
C	-1.2175596804	-0.9077957751	 0.0269147534	-0.120477
C	-0.259767221	-0.8416086302	 1.2107499301	-0.169119
C	 0.233923384	-2.2679450726	 0.8916641398	-0.169073
H	 0.5611449007	 1.7355793884	 0.3962064812	 0.283692
H	 0.9722423123	-0.5378307621	-1.9696793923	 0.112497
H	 2.1098904884	-0.4508517597	-0.5973435199	 0.080906
H	 2.304639015	-3.2986815861	-0.7299576242	 0.283698
H	-1.2946777249	-3.1718342189	-0.6694695275	 0.095105
H	-2.217103968	-0.5082508914	-0.0731616374	 0.09511
H	-0.3994990822	-0.3811265099	 2.1797456482	 0.087116
H	 0.5235283608	-3.0480225745	 1.5831323469	 0.087124
244.1968	270.7709	277.906	330.1019	362.3471	402.9068	445.8365	524.9515	550.4674	584.3242	724.0229	759.6149	773.1466	808.4627	815.8681	855.6372	903.7429	910.8216	949.5003	952.2943	971.7426	1035.8971	1036.5762	1054.9732	1107.7402	1147.9853	1180.6321	1191.6301	1192.8996	1223.7053	1282.4155	1305.3523	1324.172	1326.7887	1412.7776	1431.3823	1493.232	3021.3104	3084.6975	3193.799	3204.3758	3210.2111	3219.2611	3793.2837	3793.7165
OC12CC3(O)C4C1C2C34	O[C@]12C[C@]3(O)[C@@H]4[C@H]1[C@H]2[C@H]34	
InChI=1S/C7H8O2/c8-6-1-7(9)4-2(6)3(6)5(4)7/h2-5,8-9H,1H2	InChI=1S/C7H8O2/c8-6-1-7(9)4-2(6)3(6)5(4)7/h2-5,8-9H,1H2/t2-,3+,4-,5+,6-,7+
