17
gdb 6652	6.80655	0.85383	0.80857	3.6243	71.95	-0.2461	0.0281	0.2742	1404.2788	0.13964	-363.868019	-363.858301	-363.857356	-363.904478	33.074	
C	-0.1428937074	 1.4177664971	 0.1632754504	-0.481885
C	-0.2123468001	-0.1006168801	 0.2118618262	 0.40224
O	 0.4903134592	-0.7624035623	 0.9553885033	-0.373756
N	-1.1120300311	-0.6773666215	-0.6399549578	-0.306706
C	-1.2943358306	-2.1162001426	-0.6931716308	-0.158064
C	-2.1800223536	-2.6489421848	 0.4576779877	-0.341714
C	-2.3950180728	-4.0857522509	 0.3607751353	 0.292756
C	-2.5542006572	-5.2713067	 0.2424177798	-0.439413
H	-0.4015688992	 1.8145034489	 1.1487704045	 0.153394
H	 0.8883453717	 1.7132118242	-0.0457591851	 0.155453
H	-0.8010175782	 1.8672796816	-0.5848980015	 0.110046
H	-1.7094120659	-0.0908113331	-1.1971972523	 0.246226
H	-1.7379024094	-2.376200401	-1.6576781021	 0.114628
H	-0.3114379488	-2.5885206662	-0.6290700499	 0.149659
H	-1.6884662496	-2.4001111023	 1.4043105121	 0.160449
H	-3.1435724454	-2.1239813412	 0.4479242701	 0.120987
H	-2.6989748018	-6.3196411456	 0.15762166	 0.195699
23.9341	56.0421	66.5011	80.1125	166.7421	269.4929	345.2697	356.0647	392.4397	437.808	511.5767	619.726	625.6748	645.7011	654.053	759.6325	889.0838	970.5409	992.9429	1019.907	1051.6095	1085.941	1114.4478	1229.8192	1271.9674	1301.3438	1337.1314	1395.1304	1401.8128	1467.2822	1470.372	1480.3306	1485.3206	1533.272	1776.261	2238.915	3028.1119	3049.5903	3067.8005	3077.8549	3125.4175	3126.4108	3130.6542	3507.6287	3657.1207
CC(=O)NCCC#C	CC(=O)NCCC#C	
InChI=1S/C6H9NO/c1-3-4-5-7-6(2)8/h1H,4-5H2,2H3,(H,7,8)	InChI=1S/C6H9NO/c1-3-4-5-7-6(2)8/h1H,4-5H2,2H3,(H,7,8)
