19
gdb 105946	4.22015	1.25994	1.20471	1.4885	78.38	-0.2384	0.0686	0.3071	1089.8097	0.160569	-385.80943	-385.802095	-385.801151	-385.841335	29.521	
O	 0.2130703964	 1.3432451568	-0.3618201696	-0.411138
C	 0.0374848987	 0.0008297436	 0.0814001214	-0.223073
C	-1.3860678816	-0.443351382	 0.1024488053	 0.340293
C	-2.3658216211	-0.7678108685	-1.0050223171	-0.120913
C	-2.006219708	-1.8250413041	 0.0447569053	-0.1389
C	-3.0817320586	-1.5277409394	 1.1165817133	-0.051253
C	-4.3989079313	-1.2148749351	 0.3645945894	-0.242209
C	-3.5702496521	-0.0924735208	-0.3090199391	-0.047991
C	-2.6314325983	-0.0248840933	 0.9560348201	-0.13188
H	-0.2791003186	 1.912182987	 0.2384940362	 0.280824
H	 0.6025010539	-0.6198081018	-0.6236232075	 0.110573
H	 0.4936217983	-0.1450620685	 1.0748276408	 0.087272
H	-2.1729422376	-0.9009776237	-2.0615187829	 0.086571
H	-1.5361907465	-2.7662824609	-0.2101165598	 0.083835
H	-3.0509136057	-2.0758500053	 2.0573910737	 0.063898
H	-4.8403276542	-1.9922601681	-0.2669770557	 0.091877
H	-5.1587829948	-0.8053588858	 1.038549225	 0.095038
H	-4.022453615	 0.7809031715	-0.7770508251	 0.064841
H	-2.6972750042	 0.7278432582	 1.7393005064	 0.062335
86.5027	127.8633	220.2159	298.5834	371.4922	428.7269	548.7364	632.4251	718.5823	765.5695	785.6344	820.0398	835.7855	847.7182	863.9642	886.3094	926.1278	945.1122	972.8388	991.0892	1018.3758	1024.3229	1034.1486	1053.4516	1059.0817	1093.7283	1112.706	1166.4818	1179.0074	1188.5405	1219.972	1223.2411	1229.6936	1271.0215	1283.8769	1294.9942	1371.4173	1404.2226	1452.753	1487.5419	1492.2855	2963.0493	3040.4351	3060.134	3096.8699	3119.1678	3121.1503	3135.0367	3191.6119	3202.3592	3817.5664
OCC12C3C1C1CC3C21	OC[C@@]12[C@H]3[C@@H]1[C@@H]1C[C@H]3[C@H]21	
InChI=1S/C8H10O/c9-2-8-5-3-1-4(5)7(8)6(3)8/h3-7,9H,1-2H2	InChI=1S/C8H10O/c9-2-8-5-3-1-4(5)7(8)6(3)8/h3-7,9H,1-2H2/t3-,4+,5-,6+,7-,8+
