17
gdb 75412	2.33806	1.76029	1.01671	6.1711	79.9	-0.2313	-0.0626	0.1686	1138.9336	0.136482	-418.044074	-418.035371	-418.034426	-418.078843	31.572	
C	 0.05159648	 1.5083406452	 0.1292119956	-0.474492
C	-0.0166489993	 0.0088011377	 0.0750745653	 0.215891
C	-1.1404367036	-0.6750689169	-0.1740807557	-0.145016
C	-1.2366532477	-2.1593594129	-0.2335104129	-0.210192
N	 0.0207927022	-2.8254927865	 0.0074644254	-0.376559
C	 1.239650579	-2.2403417515	 0.2728809138	 0.273713
N	 2.3421745617	-2.8509453858	 0.482645612	-0.492137
C	 1.2566587492	-0.7140803064	 0.3171847357	 0.291066
O	 2.2834121443	-0.1141145775	 0.544001481	-0.290377
H	 0.7673647225	 1.8876839263	-0.6067687599	 0.147121
H	-0.926338031	 1.957510792	-0.0596989703	 0.1142
H	 0.4154167269	 1.8418502892	 1.1060965568	 0.147115
H	-2.0744987434	-0.1471940415	-0.3518839832	 0.108351
H	-1.9937774342	-2.4910511487	 0.4971710634	 0.128391
H	-1.6406261307	-2.4452269965	-1.2195412271	 0.128384
H	 0.0109582707	-3.8335653565	-0.0217071313	 0.23772
H	 2.2205382433	-3.8657669297	 0.4305589213	 0.196821
22.7351	58.9232	153.3252	238.8241	291.6323	329.7736	368.7732	426.1736	458.901	491.2378	536.6108	560.6947	667.8829	787.5198	814.7697	841.9915	885.6048	930.7166	978.5117	1020.9529	1067.3341	1072.011	1096.985	1203.3669	1235.7239	1238.5988	1346.3299	1386.4308	1414.1262	1426.8509	1469.3298	1479.942	1487.0426	1508.6234	1705.105	1725.5647	1781.5249	2958.5062	2963.8291	3044.2106	3103.2462	3127.5752	3158.8593	3430.3175	3611.6106
CC1=CCNC(=N)C1=O	CC1=CCN[C]([NH])C1=O	
InChI=1S/C6H8N2O/c1-4-2-3-8-6(7)5(4)9/h2H,3H2,1H3,(H2,7,8)	InChI=1S/C6H8N2O/c1-4-2-3-8-6(7)5(4)9/h2H,3H2,1H3,(H2,7,8)
