17
gdb 44157	2.99655	1.13042	0.96602	3.286	78.4	-0.243	-0.0143	0.2287	1242.3803	0.134461	-384.642889	-384.634535	-384.63359	-384.676565	31.609	
O	 0.2773546792	 0.0356422802	 0.1192379539	-0.310722
C	 0.1588120621	 1.2268524922	 0.1612639187	 0.412088
C	-1.0805230215	 2.162651512	 0.1155098716	-0.365862
C	-0.1010607599	 3.3311023147	-0.0728935489	-0.093092
C	 0.8508226587	 3.4421196809	 1.0644993911	-0.000512
C	 0.5205464289	 3.1659755176	 2.5305690434	-0.391347
C	 1.7196424092	 2.9361869081	 3.3293543713	 0.310004
C	 2.7218616058	 2.7599631908	 3.9681573055	-0.444304
C	 1.1250999182	 2.3663175303	 0.0214053916	-0.181436
H	-1.6659602559	 1.9403065653	-0.7814146818	 0.134639
H	-1.7529383711	 2.1878055942	 0.9771548632	 0.12192
H	-0.2319178382	 4.1259333165	-0.7956385982	 0.106417
H	 1.5532533934	 4.2653313344	 0.9549010661	 0.113252
H	-0.0288466402	 4.0257763636	 2.9369585528	 0.135316
H	-0.149057951	 2.304792028	 2.6257764342	 0.14296
H	 3.6003999096	 2.5924234323	 4.5403610639	 0.199118
H	 2.0584231326	 2.3459753788	-0.5275536982	 0.111561
43.3347	107.7265	132.6977	242.468	326.4796	337.939	448.1351	482.2453	499.3361	593.3237	623.6191	636.2633	647.9428	752.1894	795.6064	844.8526	899.1306	941.2837	951.5078	968.9278	988.9375	1007.729	1026.767	1086.9935	1108.5767	1140.2888	1176.7794	1214.1484	1247.7039	1292.2186	1318.3114	1330.7696	1436.2716	1465.8118	1469.9798	1882.0221	2242.0609	3021.328	3061.265	3071.1148	3112.0909	3139.8676	3194.3181	3203.94	3507.2168
O=C1CC2C(CC#C)C12	O=C1C[C@H]2[C@@H](CC#C)[C@@H]12	
InChI=1S/C8H8O/c1-2-3-5-6-4-7(9)8(5)6/h1,5-6,8H,3-4H2	InChI=1S/C8H8O/c1-2-3-5-6-4-7(9)8(5)6/h1,5-6,8H,3-4H2/t5-,6+,8-/m1/s1
