21
gdb 59398	2.71787	1.03207	1.00154	4.8244	84.79	-0.2511	0.0264	0.2775	1350.286	0.180076	-383.265701	-383.255432	-383.254488	-383.300618	37.768	
C	-0.3689015045	 0.3766037677	-2.6119073105	-0.384519
C	-0.0193615867	-0.4767995595	-1.3903020755	 0.071457
C	 0.7967063066	 0.3118997864	-0.3647696983	-0.388361
N	-1.277024181	-0.9104640197	-0.770003084	-0.092465
C	-1.9904723599	-2.0448762805	-1.3166869646	-0.276336
C	-1.3436581774	-2.1378908871	 0.0378768766	 0.138568
C	-0.166678909	-3.077871041	 0.2534664212	-0.466107
C	-2.1904742563	-2.0020506855	 1.2110256695	 0.272611
N	-2.8535476446	-1.9248790012	 2.1549045721	-0.342311
H	 0.5429080593	 0.7288832165	-3.1032220238	 0.11639
H	-0.9484884486	-0.1956449656	-3.3428250033	 0.115792
H	-0.9622404582	 1.2454314287	-2.311647658	 0.131351
H	 0.5768379599	-1.3376550128	-1.7361291725	 0.062155
H	 0.2258744727	 1.1759391577	-0.0119023909	 0.133936
H	 1.0518638223	-0.3010097797	 0.5044756403	 0.118219
H	 1.7293064589	 0.6684991854	-0.8120841716	 0.116295
H	-3.0678315096	-1.9423448664	-1.4106220491	 0.134966
H	-1.512123224	-2.6339200218	-2.099982634	 0.115651
H	 0.4183005091	-3.2019914237	-0.6590363207	 0.132731
H	 0.4920906773	-2.7114030961	 1.0457358455	 0.144274
H	-0.5347995764	-4.0629765916	 0.5543293815	 0.145701
77.0381	102.6978	147.1038	181.1942	208.8404	216.6907	244.8538	269.6894	332.1567	356.9753	380.276	458.9481	483.0831	571.3186	594.4378	698.3139	739.5134	865.772	894.512	933.5683	939.216	962.4062	971.9927	1075.9065	1081.967	1105.2366	1129.8587	1152.1499	1195.908	1203.6274	1256.3426	1356.141	1361.0127	1367.8155	1399.3427	1414.699	1418.9277	1481.1297	1485.172	1487.276	1494.4686	1498.1962	1506.6825	1511.0302	2355.8328	2956.5526	3038.6916	3043.8471	3051.414	3082.9389	3110.1671	3113.9086	3115.9021	3117.9056	3121.885	3139.9961	3181.638
CC(C)N1CC1(C)C#N	CC(C)N1C[C@]1(C)C#N	
InChI=1S/C7H12N2/c1-6(2)9-5-7(9,3)4-8/h6H,5H2,1-3H3	InChI=1S/C7H12N2/c1-6(2)9-5-7(9,3)4-8/h6H,5H2,1-3H3/t7-,9?/m0/s1
