19
gdb 32646	5.0704	0.88107	0.79918	2.9473	79.96	-0.1905	0.0339	0.2244	1484.2312	0.159768	-419.239889	-419.230631	-419.229687	-419.274809	33.001	
C	-0.0028305356	 1.5458952335	-0.1339344272	-0.371418
C	-0.0357803083	 0.033499166	 0.0972109719	-0.156499
N	-1.3781030777	-0.5223747993	 0.0488747383	 0.02652
C	-2.111196369	-0.960830389	 1.1011039364	-0.001616
N	-3.3139689291	-1.3717413497	 0.7406566452	-0.366833
C	-3.3546703352	-1.1846717997	-0.6100695879	 0.376945
O	-4.425683485	-1.4895270187	-1.3701808306	-0.27503
C	-5.5404074288	-2.0362578058	-0.6761513643	-0.231045
C	-2.1734452719	-0.65775525	-1.078455541	-0.262812
H	 1.0269778699	 1.911896151	-0.0802225547	 0.122518
H	-0.4053598291	 1.8024202642	-1.1176623052	 0.133828
H	-0.5965292526	 2.0665591049	 0.6227280137	 0.13346
H	 0.5822184161	-0.4797617913	-0.6479504972	 0.124563
H	 0.3779157908	-0.2109814657	 1.0800530766	 0.122797
H	-1.7203282843	-0.9637481386	 2.1079508315	 0.124736
H	-5.9225995697	-1.3387952553	 0.0766087156	 0.127739
H	-6.3021574101	-2.2204359067	-1.435890275	 0.120027
H	-5.2771354205	-2.9732756688	-0.1742584185	 0.127743
H	-1.8369424598	-0.3887149112	-2.0639723973	 0.124376
51.9878	67.4768	115.3918	168.2659	191.8379	243.7073	297.1362	348.7983	426.8907	497.0119	635.1528	640.4914	655.4293	729.7226	732.4648	789.6806	797.2387	963.0525	986.8638	1056.13	1078.9045	1097.1216	1124.6622	1181.2512	1198.2991	1210.3724	1253.6351	1281.5757	1345.1341	1391.3867	1395.7317	1412.2067	1446.1487	1479.5591	1480.2345	1486.2568	1490.448	1503.4412	1506.8256	1537.9477	1620.1387	3029.5489	3043.5001	3045.1303	3089.3252	3093.87	3119.5609	3127.1421	3135.4445	3244.1187	3286.2383
CCN1C=NC(OC)=C1	CCn1cnc(OC)c1	
InChI=1S/C6H10N2O/c1-3-8-4-6(9-2)7-5-8/h4-5H,3H2,1-2H3	InChI=1S/C6H10N2O/c1-3-8-4-6(9-2)7-5-8/h4-5H,3H2,1-2H3
