21
gdb 73190	2.49624	1.30638	1.1633	2.8989	82.77	-0.2392	-0.0252	0.2139	1185.2647	0.181772	-387.078569	-387.069654	-387.06871	-387.112835	33.725	
C	 0.1369947297	 1.5983192869	-0.0105529878	-0.493004
C	 0.0671722077	 0.0884872454	 0.0303359783	 0.350958
C	-1.3499394575	-0.5404274623	 0.2574046725	-0.291382
C	-0.830180487	-1.2750847806	 1.5298417588	-0.219898
C	 0.6057824064	-0.8005454353	 1.2141602556	-0.056079
C	 1.3672214865	-1.6778515095	 0.182273606	-0.273377
C	 1.005012541	-0.6881121191	-0.965897275	-0.110285
C	 0.3991443965	-1.2388408283	-2.2261116379	 0.146736
O	 0.5673134117	-0.779870121	-3.328673021	-0.256666
H	 1.172024979	 1.9535967102	 0.0425586294	 0.116483
H	-0.3007463789	 1.9855583012	-0.9386959765	 0.128679
H	-0.4148027221	 2.04047198	 0.8270070944	 0.114847
H	-2.120940579	 0.2086312014	 0.4542896506	 0.106386
H	-1.7200116155	-1.1879984439	-0.5401847594	 0.10249
H	-1.228671408	-0.8467589875	 2.4531747928	 0.103089
H	-0.9781344316	-2.3583866591	 1.5675826286	 0.097479
H	 1.2042210534	-0.3920497059	 2.0303227449	 0.06455
H	 2.4399766927	-1.7862457101	 0.3527396152	 0.11175
H	 0.9431825343	-2.6806859594	 0.0578274066	 0.100552
H	 1.8464326402	-0.0510930853	-1.2510462725	 0.08948
H	-0.2512778598	-2.1339554176	-2.0807599834	 0.06721
47.373	60.4833	178.6086	222.9778	258.9215	295.3364	357.4672	376.4182	429.5187	447.5426	599.0222	655.155	742.2813	772.9242	828.5419	862.7772	886.9652	910.3709	940.8291	958.7706	1015.5169	1022.3891	1037.1877	1070.341	1113.197	1140.8199	1157.0997	1187.4142	1200.9981	1213.5172	1244.7373	1254.7988	1265.0299	1283.8697	1306.2873	1314.4369	1339.5053	1409.9527	1429.6862	1478.0141	1483.0501	1488.0838	1491.4973	1502.1656	1818.8388	2844.0765	3018.312	3043.0352	3051.4868	3066.3108	3075.2795	3084.0309	3086.705	3090.6222	3097.2988	3112.007	3118.5945
CC12CCC1CC2C=O	C[C@]12CC[C@H]1C[C@H]2C=O	
InChI=1S/C8H12O/c1-8-3-2-6(8)4-7(8)5-9/h5-7H,2-4H2,1H3	InChI=1S/C8H12O/c1-8-3-2-6(8)4-7(8)5-9/h5-7H,2-4H2,1H3/t6-,7-,8-/m0/s1
