18
gdb 89554	5.6537	0.87361	0.86481	1.697	73.91	-0.2577	0.0269	0.2846	1354.7009	0.147199	-439.074516	-439.066287	-439.065343	-439.107581	31.805	
O	 0.532507164	 0.5529087168	-1.0388757724	-0.430673
C	-0.1085852301	-0.2721018621	-0.1053606969	 0.175154
C	 0.3106719546	-0.2225568617	 1.3925937258	-0.345316
C	-1.1746732138	-0.4035440913	 1.7527278048	 0.446744
C	-1.5693539884	 0.0387100563	 0.3323941085	-0.345325
C	-1.7104112391	-1.7066250671	 2.3816287893	-0.433439
C	-2.2018373965	-0.7886685913	 3.479136191	 0.420882
N	-2.8289214701	-0.9446555361	 4.5525863775	-0.541855
O	-1.7068479156	 0.3554565036	 2.8834369328	-0.279539
H	 0.4812842102	 1.4620435961	-0.7246402299	 0.279467
H	-0.0241580378	-1.2863172142	-0.5050058252	 0.100791
H	 1.0324787068	-0.9518708906	 1.766495895	 0.111622
H	 0.640566537	 0.7846404671	 1.6695092258	 0.113046
H	-1.7570321427	 1.1178387814	 0.3174569062	 0.113042
H	-2.3939447677	-0.475682158	-0.1657597544	 0.111625
H	-2.4990921166	-2.2165995988	 1.8252679326	 0.138148
H	-0.9563552588	-2.4309338483	 2.695331388	 0.138151
H	-2.9739092154	-0.0529285518	 5.0294031113	 0.227476
73.8389	79.4484	258.6056	292.8106	303.061	344.7039	386.6071	464.2346	476.2493	495.8926	499.9461	702.7644	786.8879	807.209	855.4296	862.5943	877.3044	937.4417	965.7924	986.3195	1018.8989	1032.0699	1055.4818	1081.7392	1101.6773	1174.4268	1195.0731	1205.3671	1213.2258	1247.4722	1277.5672	1304.0483	1316.9305	1339.6079	1440.4374	1458.0258	1462.1468	1486.6979	1829.1967	3048.7392	3054.99	3077.5876	3082.0847	3115.081	3119.4222	3136.4645	3475.7237	3805.5432
OC1CC2(C1)CC(=N)O2	O[C@H]1C[C@@]2(C1)C[C]([NH])O2	
InChI=1S/C6H9NO2/c7-5-3-6(9-5)1-4(8)2-6/h4,7-8H,1-3H2	InChI=1S/C6H9NO2/c7-5-3-6(9-5)1-4(8)2-6/h4,7-8H,1-3H2/t4-,6+
