22
gdb 117347	3.99675	0.69545	0.65973	2.2669	81.21	-0.2455	0.0655	0.311	1848.5226	0.191754	-441.546059	-441.53478	-441.533836	-441.584324	39.192	
C	 0.0340099418	 1.5105141433	 0.2012257303	-0.391177
C	 0.0384498651	 0.0048292361	 0.0153589094	-0.032426
O	 0.6756258283	-0.5706604505	 1.1671805118	-0.282134
C	 0.7619515181	-1.9268687036	 1.159891671	 0.527238
O	 0.3344977509	-2.6362314901	 0.2740079045	-0.424046
N	 1.4110236819	-2.3569903518	 2.2755410394	-0.372594
C	 1.5208214523	-3.7734002413	 2.6096796426	 0.069164
C	 2.8137973451	-4.012209889	 3.3920656667	-0.398388
C	 0.283135051	-4.2786840576	 3.3638584457	-0.381293
H	 1.053797313	 1.8963796704	 0.2880886419	 0.126748
H	-0.4439888849	 1.9898668237	-0.65826329	 0.121033
H	-0.517385091	 1.7914643565	 1.1031923043	 0.12582
H	-0.9758767021	-0.3972898105	-0.0739005107	 0.118218
H	 0.5862506938	-0.2918773432	-0.8848543138	 0.118856
H	 1.6084771136	-1.6688826627	 2.9848764805	 0.244287
H	 1.5757460943	-4.2948077338	 1.6496876693	 0.117557
H	 2.7999769226	-3.474335689	 4.348228714	 0.110536
H	 2.9353116338	-5.0757867928	 3.6159580175	 0.122649
H	 3.6850228227	-3.6753583658	 2.8235437755	 0.12448
H	-0.6181105799	-4.1056952343	 2.7700996748	 0.135165
H	 0.3619166477	-5.3523088046	 3.5637632015	 0.114322
H	 0.1714124119	-3.7625371394	 4.3244497236	 0.105984
29.9824	36.0838	68.6056	117.713	128.0098	229.2132	235.4667	259.1194	264.3766	306.1528	374.4277	413.8125	447.6536	461.619	501.9086	746.5246	780.7518	808.0471	842.6132	903.3813	930.0453	945.0573	958.5122	1036.6118	1117.7479	1133.9711	1149.8649	1183.4229	1185.6225	1209.6392	1246.5866	1290.4589	1348.244	1380.4353	1397.6819	1399.5223	1418.3975	1419.915	1485.1302	1485.8829	1488.3576	1495.9436	1498.0887	1508.5614	1519.4825	1543.444	1805.8029	3027.6259	3031.7561	3044.7336	3048.0864	3073.4835	3084.7806	3094.7851	3106.6673	3119.5182	3120.4475	3122.5662	3123.2629	3634.6503
CCOC(=O)NC(C)C	CCOC(=O)NC(C)C	
InChI=1S/C6H13NO2/c1-4-9-6(8)7-5(2)3/h5H,4H2,1-3H3,(H,7,8)	InChI=1S/C6H13NO2/c1-4-9-6(8)7-5(2)3/h5H,4H2,1-3H3,(H,7,8)
