23
gdb 96096	2.66595	1.32293	1.01686	1.2758	85.87	-0.2419	0.0824	0.3243	1273.1727	0.207234	-388.294239	-388.285553	-388.284609	-388.327102	34.718	
C	-0.0162024263	 1.5448666459	-0.0081235312	-0.406939
C	 0.0208340054	 0.0155024183	 0.0156127004	 0.02005
C	 0.6836784495	-0.5453737885	-1.2515251953	-0.067701
O	 0.7285989666	-1.9608432069	-1.2608054234	-0.2468
C	 1.4740094005	-2.4751279754	-0.1692801118	-0.149374
C	 0.8879952175	-2.0461621565	 1.1609139862	 0.373882
C	-0.1703232724	-2.9179153905	 1.7891207616	-0.296361
C	 1.2174416886	-2.8552779711	 2.3855955678	-0.333677
C	 0.7569766196	-0.5351614978	 1.2509980189	-0.288053
H	 0.9957825055	 1.9651898869	-0.0457808173	 0.113803
H	-0.5649145655	 1.9188270072	-0.8793061313	 0.112723
H	-0.5045899193	 1.940625036	 0.8884051773	 0.113949
H	-1.0084185505	-0.3669823552	 0.0357387896	 0.081135
H	 0.1256137436	-0.2518992447	-2.1463613478	 0.10165
H	 1.7059544674	-0.132569592	-1.3424842993	 0.076614
H	 1.4661444668	-3.564399959	-0.2749847345	 0.097856
H	 2.5231157437	-2.1342126782	-0.2403780595	 0.080167
H	-0.9785060231	-2.4344382451	 2.3284535858	 0.108043
H	-0.4646642255	-3.824099087	 1.2700782219	 0.113259
H	 1.8613716974	-3.7220869184	 2.2723328028	 0.108773
H	 1.3495292998	-2.3271738171	 3.3245432423	 0.108215
H	 1.7593998825	-0.0827354412	 1.2995488585	 0.090105
H	 0.2370619886	-0.2436457298	 2.1714268284	 0.088679
119.3759	138.3028	217.9851	232.7263	272.4641	324.5922	344.5503	386.8441	434.5667	445.1384	474.62	569.0608	766.2869	781.2383	847.1103	873.8513	909.3092	927.4058	943.1919	953.6762	968.1231	975.5413	992.7428	1040.7014	1054.066	1079.5869	1100.6434	1125.3368	1144.9492	1171.2959	1186.7585	1211.3213	1259.1861	1303.7872	1320.8508	1331.6682	1341.435	1364.6136	1379.1949	1405.5312	1416.1156	1423.0283	1467.4229	1482.0996	1487.7993	1495.6029	1499.1702	1500.4579	1510.2282	2932.5396	2941.5585	2992.1801	3020.3464	3025.6981	3051.2529	3072.6596	3075.5711	3091.5568	3097.5606	3121.7864	3127.6105	3199.1229	3214.2264
CC1COCC2(CC2)C1	C[C@H]1COCC2(CC2)C1	
InChI=1S/C8H14O/c1-7-4-8(2-3-8)6-9-5-7/h7H,2-6H2,1H3	InChI=1S/C8H14O/c1-7-4-8(2-3-8)6-9-5-7/h7H,2-6H2,1H3/t7-/m1/s1
