19
gdb 100909	2.44893	1.00991	0.74717	1.8668	73.82	-0.2632	0.0334	0.2966	1479.7309	0.156222	-460.10961	-460.099098	-460.098153	-460.145433	38.084	
O	 0.0383107689	 1.4801824419	-0.1738901001	-0.4238
C	 0.0931965446	 0.0879882868	 0.0311532644	-0.070089
C	-1.3223203603	-0.5021910843	 0.0803658066	 0.099522
O	-2.0489751328	-0.0339244159	-1.0566748567	-0.435431
C	-1.3431511034	-2.043198667	 0.1782701284	-0.242279
C	-0.6549700802	-2.5725346228	 1.4647726537	-0.065922
O	-0.700401383	-3.9770092053	 1.5536873145	-0.419046
C	-2.7086961226	-2.5623748306	 0.1211323742	 0.313243
C	-3.8168291147	-3.0301949491	 0.1384280073	-0.446795
H	-0.6693871647	 1.6151443016	-0.8184272772	 0.286778
H	 0.6659749592	-0.4203560967	-0.7679228399	 0.075337
H	 0.6245650529	-0.0804800601	 0.9731819835	 0.11428
H	-1.85347358	-0.0763435753	 0.9387031864	 0.110188
H	-1.7603007403	-0.537361513	-1.8273446016	 0.286266
H	-0.7804090531	-2.4497793058	-0.6760212202	 0.106669
H	 0.4043850875	-2.3038364981	 1.4537138347	 0.119134
H	-1.1194143824	-2.088883498	 2.3387717399	 0.100692
H	-1.6286998285	-4.2355538975	 1.4947622006	 0.287
H	-4.8058594969	-3.4176260208	 0.1228461015	 0.204254
52.7725	99.7888	123.5171	140.9117	162.68	230.2814	269.3954	306.7993	344.1839	382.8727	416.5809	444.0497	455.8751	526.8394	566.2532	634.5137	641.2969	660.9443	835.989	875.0474	1009.6321	1025.7641	1062.5931	1086.5569	1096.1302	1101.2879	1119.5601	1202.9745	1213.5794	1230.2103	1296.3352	1323.321	1363.2868	1381.1554	1384.6435	1421.8815	1432.1447	1452.944	1505.6828	1507.3584	2228.5053	2924.9028	2978.7639	2996.3444	3061.4357	3076.8658	3098.0154	3500.9214	3757.8724	3772.8504	3789.3595
OCC(O)C(CO)C#C	OC[C@@H](O)[C@@H](CO)C#C	
InChI=1S/C6H10O3/c1-2-5(3-7)6(9)4-8/h1,5-9H,3-4H2	InChI=1S/C6H10O3/c1-2-5(3-7)6(9)4-8/h1,5-9H,3-4H2/t5-,6-/m1/s1
