15
gdb 29187	3.10757	1.37919	0.96087	4.9549	72.6	-0.2179	-0.0521	0.1658	1147.7516	0.112037	-457.824098	-457.816051	-457.815106	-457.856578	30.301	
C	-0.03345487	 1.521337586	 0.0684035361	-0.482078
C	-0.0053409247	 0.0221469607	 0.0048153538	 0.270377
C	-0.0238013516	-0.6707067208	-1.1623471553	-0.349276
C	 0.0027611949	-2.1181221673	-1.2295089992	 0.4329
O	-0.0096686276	-2.8046133691	-2.2172834526	-0.353413
O	 0.0506271996	-2.7625073349	 0.014084743	-0.220567
C	 0.0691203635	-2.0763101703	 1.1753126481	-0.0338
C	 0.0436888473	-0.7284286364	 1.2345384407	 0.187474
O	 0.0613008686	-0.0031936316	 2.3934540972	-0.434931
H	 0.850068902	 1.9010045743	 0.5921380417	 0.150135
H	-0.0688402291	 1.9561825823	-0.9319410411	 0.132785
H	-0.9022262178	 1.8661512559	 0.63887625	 0.150147
H	-0.0600921145	-0.1638909017	-2.1190287957	 0.122245
H	 0.1063016393	-2.7287700034	 2.0410392536	 0.125364
H	 0.0946375801	-0.6002336938	 3.1484720096	 0.302637
110.0669	151.2778	195.9542	283.1767	304.1736	370.4316	377.7215	389.64	431.7344	541.8898	578.2547	640.0505	738.9271	745.4006	777.1729	833.4789	836.2985	886.9411	1024.9141	1063.4386	1108.0278	1172.4453	1213.7887	1249.8822	1303.6344	1350.3679	1411.0128	1472.2353	1474.1475	1504.6573	1598.3834	1704.269	1834.8514	3043.0917	3098.5676	3138.7346	3189.9648	3209.1692	3820.5397
CC1=CC(=O)OC=C1O	Cc1cc(=O)occ1O	
InChI=1S/C6H6O3/c1-4-2-6(8)9-3-5(4)7/h2-3,7H,1H3	InChI=1S/C6H6O3/c1-4-2-6(8)9-3-5(4)7/h2-3,7H,1H3
