23
gdb 122218	2.56793	0.88212	0.74295	2.1858	82.76	-0.2507	0.0791	0.3298	1655.0791	0.203522	-425.404156	-425.393466	-425.392522	-425.440761	38.801	
C	 0.9558099284	-2.8558879802	 3.1815255989	-0.383177
C	 0.3934380816	-2.3442961091	 1.8529987939	-0.181029
C	-1.0356111765	-2.811076101	 1.6111201901	-0.062197
O	-1.4688803511	-2.2877519114	 0.3586121944	-0.304507
C	-2.7379949153	-2.7187465245	-0.0709871867	 0.401136
C	-3.8691112238	-2.0182667623	 0.6498574113	-0.109453
O	-3.7383424036	-0.6115633276	 0.557643786	-0.426031
C	-2.8344406061	-2.9781506786	-1.5419510008	-0.306948
C	-2.8866949406	-4.1345616636	-0.561022948	-0.329409
H	 1.9802228835	-2.5049997057	 3.3348806146	 0.1194
H	 0.3557971893	-2.5086584939	 4.0298871257	 0.118283
H	 0.9718107914	-3.9508754862	 3.2136027911	 0.11727
H	 0.4130829441	-1.2484266122	 1.8299578593	 0.104985
H	 1.0167424465	-2.6838640233	 1.0179147992	 0.106942
H	-1.0864216781	-3.909974945	 1.5953840184	 0.092426
H	-1.6894516465	-2.4665032585	 2.4266629154	 0.094658
H	-4.8275458842	-2.2935235956	 0.1971653597	 0.101893
H	-3.904433265	-2.3424689632	 1.7037203544	 0.083171
H	-2.7928180978	-0.4318909933	 0.6286281187	 0.286363
H	-3.7429938882	-2.6843470479	-2.0554361105	 0.119149
H	-1.92268272	-2.8587224974	-2.11527205	 0.123224
H	-2.0126614536	-4.7738009922	-0.5052272908	 0.118396
H	-3.8302109642	-4.6458502772	-0.4008753743	 0.115455
49.8934	59.2037	102.3522	130.328	167.1364	217.7646	230.7856	294.3516	305.6557	364.2488	391.8803	420.0483	472.8936	576.7389	757.9696	764.8678	775.6849	897.9451	900.7126	904.9202	911.9801	934.0238	994.5118	1045.8088	1052.5133	1055.9853	1075.3669	1078.9176	1090.0106	1149.263	1186.6338	1191.7724	1200.8498	1268.6426	1294.9725	1316.0063	1333.8998	1342.4732	1357.4284	1413.0496	1426.8233	1445.3468	1455.4114	1492.1526	1497.3756	1500.4806	1507.6516	1514.0813	1527.9679	2958.9105	2984.4448	3016.1335	3032.6902	3038.3081	3068.3577	3071.9788	3100.8535	3109.5595	3132.4114	3141.374	3216.3721	3234.2944	3783.371
CCCOC1(CO)CC1	CCCOC1(CO)CC1	
InChI=1S/C7H14O2/c1-2-5-9-7(6-8)3-4-7/h8H,2-6H2,1H3	InChI=1S/C7H14O2/c1-2-5-9-7(6-8)3-4-7/h8H,2-6H2,1H3
