16
gdb 79726	2.74157	1.7901	1.43864	4.3566	68.63	-0.2412	0.0234	0.2646	937.0645	0.124277	-437.84686	-437.83938	-437.838436	-437.878972	28.124	
C	-0.0705598576	 1.35988992	-0.2088664124	-0.347955
N	-0.0373839134	-0.0470984084	 0.1057027707	-0.047266
C	-1.0824237839	-1.0599162132	 0.0803578748	-0.051457
C	-1.5716409921	-1.5482852231	-1.3312297208	-0.005748
O	-0.4713011077	-1.4245091669	-2.2299983097	-0.225894
C	-0.511069904	-2.5671107011	-1.3707271123	 0.032453
C	 0.0347359849	-2.1430911752	 0.023518777	-0.256709
C	 1.0159754463	-0.9407602048	-0.0118932046	 0.41685
O	 2.200087015	-0.7709136992	-0.110421753	-0.370511
H	 0.9615682575	 1.7177811373	-0.2284724351	 0.162303
H	-0.5232772621	 1.5393768772	-1.1920160787	 0.135263
H	-0.6273547475	 1.9232437029	 0.5475473741	 0.126226
H	-1.8319673839	-1.020045744	 0.8715456078	 0.092246
H	-2.5710829379	-1.5322265627	-1.7504013388	 0.114361
H	-0.4720668645	-3.5436803984	-1.8369075996	 0.118683
H	 0.142691751	-2.9150664104	 0.7813216808	 0.107155
108.3255	142.5237	150.211	238.7965	294.0992	375.4193	496.2015	608.3502	670.9515	725.1407	776.0616	790.31	838.3674	850.2849	893.9258	902.9538	928.3245	999.5742	1010.9763	1044.322	1049.338	1127.9236	1145.8246	1171.4111	1198.3657	1235.36	1248.0168	1268.8956	1285.4922	1375.7144	1392.1938	1447.2962	1485.4057	1510.4856	1883.4858	3019.5746	3078.8799	3108.2197	3130.8572	3157.4979	3182.2459	3203.5146
CN1C2C3OC3C2C1=O	CN1[C@H]2[C@H]3O[C@H]3[C@H]2C1=O	
InChI=1S/C6H7NO2/c1-7-3-2(6(7)8)4-5(3)9-4/h2-5H,1H3	InChI=1S/C6H7NO2/c1-7-3-2(6(7)8)4-5(3)9-4/h2-5H,1H3/t2-,3+,4-,5+/m0/s1
