20
gdb 6941	4.95691	0.98243	0.91573	2.462	73.02	-0.2526	0.0861	0.3387	1352.6093	0.17361	-386.117509	-386.107739	-386.106795	-386.152272	34.438	
C	-0.297088088	 1.3405105092	-0.026261723	-0.223962
O	-0.1741530369	-0.0596415575	-0.0865701963	-0.232456
C	 0.7973329293	-0.4839578637	-1.0184024707	-0.089647
C	 0.8309703483	-1.9900629431	-0.9978592747	-0.000801
O	 0.0015416501	-2.6950559771	-1.9283886309	-0.292885
C	 1.4278784052	-2.8349856367	-2.0481622212	 0.394851
C	 2.0406906605	-2.2483614779	-3.3036537037	-0.456544
C	 1.9558453653	-4.2030957662	-1.6669871447	-0.451257
H	 0.6489975081	 1.8224679063	 0.2696275561	 0.101226
H	-0.6091800943	 1.7665568198	-0.9930709582	 0.10548
H	-1.0592218555	 1.5697747196	 0.722284459	 0.129251
H	 0.5543994775	-0.1177293734	-2.0265967748	 0.096684
H	 1.7905807126	-0.0831348184	-0.7450870479	 0.086057
H	 0.8031331273	-2.3932541715	 0.0163765199	 0.090551
H	 1.5852979139	-1.2945564937	-3.5735293001	 0.126766
H	 3.1181823598	-2.0980403248	-3.1748356969	 0.120099
H	 1.9008166579	-2.937846042	-4.1434210714	 0.125855
H	 1.7915897713	-4.9153868579	-2.4830848178	 0.123954
H	 3.0323889148	-4.1656936076	-1.467546246	 0.118119
H	 1.4480288729	-4.5808219634	-0.776527967	 0.128659
62.544	88.2928	125.8802	165.7397	194.7786	232.054	240.8102	297.279	330.8337	374.86	434.1236	498.6834	532.6702	702.7681	829.9477	897.1046	944.1801	974.3864	986.5062	1007.8041	1087.1663	1113.7738	1137.7784	1152.9851	1168.2439	1185.9047	1227.9012	1261.8757	1272.8587	1340.5287	1398.0838	1410.0842	1420.459	1469.2268	1473.2029	1478.4187	1485.9656	1486.6612	1496.807	1500.998	1517.3455	1529.0185	2940.5244	2967.2469	3009.2958	3012.9972	3032.5052	3039.0562	3093.0354	3095.416	3098.401	3115.7119	3125.2571	3139.9832
COCC1OC1(C)C	COC[C@H]1OC1(C)C	
InChI=1S/C6H12O2/c1-6(2)5(8-6)4-7-3/h5H,4H2,1-3H3	InChI=1S/C6H12O2/c1-6(2)5(8-6)4-7-3/h5H,4H2,1-3H3/t5-/m1/s1
