15
gdb 16287	3.40648	1.78193	1.44062	2.9892	66.53	-0.262	0.0094	0.2714	887.9157	0.118547	-362.638649	-362.63137	-362.630426	-362.67007	27.202	
C	-0.0643614004	 1.5617443975	-0.0065584967	-0.412997
C	 0.0921587056	 0.0594988313	 0.044270841	 0.101861
O	 1.1496560206	-0.4610351712	-0.8185009688	-0.294156
C	 1.7057092169	-1.2065882399	 0.2515958065	 0.071583
C	 2.2178351781	-0.3205014546	 1.3294067965	-0.34209
C	 0.7232801351	-0.6268182813	 1.27207238	 0.106749
C	 0.0043871893	-1.2355170388	 2.3357604318	 0.196625
N	-0.5963488193	-1.7225256057	 3.1978070915	-0.349717
H	 0.8490721156	 2.0757732318	 0.3025657407	 0.126947
H	-0.3064570365	 1.8752969005	-1.026581585	 0.139829
H	-0.882919512	 1.8732749864	 0.6501925169	 0.136726
H	-0.8466143861	-0.4425552522	-0.2156415995	 0.106891
H	 2.0113699417	-2.2297864363	 0.068825278	 0.132678
H	 2.7301970942	-0.8179062645	 2.1460550885	 0.145545
H	 2.5760828373	 0.674670547	 1.0868629287	 0.133527
128.9575	163.5449	211.696	220.4633	310.8732	452.5691	485.8223	519.162	557.0865	614.3348	710.0744	829.5505	863.2568	896.0649	909.3993	1001.6952	1024.0646	1053.2267	1084.4399	1096.7267	1126.0945	1137.0186	1216.9235	1263.7373	1288.0943	1378.2212	1391.178	1415.0599	1474.444	1482.6923	1492.2935	2344.7031	3044.082	3047.3306	3115.7028	3128.9408	3133.1257	3194.9334	3228.6232
CC1OC2CC12C#N	C[C@H]1O[C@H]2C[C@@]12C#N	
InChI=1S/C6H7NO/c1-4-6(3-7)2-5(6)8-4/h4-5H,2H2,1H3	InChI=1S/C6H7NO/c1-4-6(3-7)2-5(6)8-4/h4-5H,2H2,1H3/t4-,5+,6-/m1/s1
