17
gdb 13398	5.42053	1.2033	1.09018	1.1952	64.9	-0.242	0.0197	0.2617	1094.4371	0.142929	-400.996156	-400.988121	-400.987177	-401.029771	27.758	
C	 0.5972014478	 0.895048071	-0.2707225708	-0.238627
O	 0.8712439773	 0.3829791923	 1.0153087789	-0.23285
C	-0.1381587781	-0.4598329427	 1.5351222983	-0.076462
C	-0.0411605614	-1.8954604366	 0.9986621979	-0.008934
C	 1.2985280507	-2.5880655515	 1.3592270707	-0.115795
O	 0.9032821127	-3.6807804458	 2.2303936427	-0.219681
C	-0.4467258337	-3.6343840543	 2.2693379605	 0.123173
N	-1.0757923995	-2.7359722902	 1.6335993072	-0.275568
H	-0.3549882663	 1.4466363571	-0.2896678602	 0.110603
H	 1.4087271307	 1.5826496633	-0.5214221493	 0.130254
H	 0.5552992257	 0.1118987691	-1.0420759452	 0.10725
H	 0.0031454421	-0.4763309018	 2.621691768	 0.109457
H	-1.1412921062	-0.0584113733	 1.3311140584	 0.104033
H	-0.2078025741	-1.8867602836	-0.0836773572	 0.08982
H	 1.8193894618	-3.0149074744	 0.4983126583	 0.118724
H	 1.9848947928	-1.9365600858	 1.9055676598	 0.132713
H	-0.9025557922	-4.4113538127	 2.8735549621	 0.141888
56.5928	69.8427	111.7728	173.383	236.9635	319.2937	428.4402	477.628	550.5514	728.4652	849.2578	904.3754	923.8562	955.8362	960.8945	967.9154	1015.4083	1075.0484	1123.8963	1143.6776	1158.2979	1181.2138	1210.8031	1234.1909	1281.5589	1309.2242	1316.6358	1359.9063	1378.7618	1402.7855	1476.9162	1490.5541	1495.8451	1509.2331	1521.6349	1701.0625	2980.6134	3005.1985	3027.8506	3043.3803	3063.9347	3074.0987	3113.6716	3113.9894	3214.1335
COCC1COC=N1	COC[C@H]1COC=N1	
InChI=1S/C5H9NO2/c1-7-2-5-3-8-4-6-5/h4-5H,2-3H2,1H3	InChI=1S/C5H9NO2/c1-7-2-5-3-8-4-6-5/h4-5H,2-3H2,1H3/t5-/m0/s1
