19
gdb 77877	2.11321	1.64644	1.26287	2.8666	76.63	-0.2322	-0.0076	0.2246	1104.9563	0.157074	-423.021557	-423.012104	-423.01116	-423.055414	34.923	
C	-0.2713510956	 1.6280894145	-0.0790832815	-0.422869
C	 0.008865981	 0.1299157494	-0.0872506044	-0.090479
C	 0.7025500735	-0.5662886745	-1.2755665838	-0.168356
C	 2.143382727	-0.23309762	-1.36302942	 0.065493
O	 2.6051251711	 1.0518942874	-1.0583753653	-0.411427
C	 1.7442096577	-1.2537579492	-0.3107827621	 0.130972
C	 2.3156648273	-2.6411808047	-0.2294758557	-0.49751
C	 1.0850130858	-0.5091165191	 0.8223428617	 0.354401
O	 1.2411733815	-0.5427919007	 2.0115298405	-0.325747
H	 0.627721821	 2.1976123978	-0.3146798927	 0.146421
H	-1.0453789251	 1.8816006684	-0.8113087658	 0.11246
H	-0.6340663234	 1.9326586052	 0.9079861798	 0.126158
H	-0.915475282	-0.4176080311	 0.1463495388	 0.102915
H	 0.1771546771	-1.0338848381	-2.0998356354	 0.099858
H	 2.6578941703	-0.6965177069	-2.207824983	 0.09537
H	 3.4594785676	 0.9698088652	-0.6211345418	 0.292731
H	 2.6073787985	-3.0105641635	-1.2175650791	 0.121237
H	 3.2045608269	-2.6558775532	 0.4108096041	 0.136605
H	 1.5943109699	-3.3460995768	 0.1964153658	 0.131766
92.5447	137.4037	186.6395	191.1361	200.6321	222.7637	240.5914	291.7794	350.301	407.9839	496.7561	574.2913	641.6833	668.2371	724.3898	766.345	856.343	877.4015	929.0357	962.9512	1007.33	1025.738	1068.4787	1087.3969	1102.0061	1155.6323	1159.65	1213.9647	1256.5594	1266.9441	1331.6222	1347.3278	1354.1863	1404.4906	1413.3322	1465.9577	1483.4066	1493.4387	1496.5491	1509.2391	1874.1955	3012.8496	3031.176	3041.1287	3078.8045	3094.4955	3099.9799	3103.9476	3154.0854	3187.0168	3807.539
CC1C2C(O)C2(C)C1=O	C[C@H]1[C@H]2[C@@H](O)[C@@]2(C)C1=O	
InChI=1S/C7H10O2/c1-3-4-6(9)7(4,2)5(3)8/h3-4,6,9H,1-2H3	InChI=1S/C7H10O2/c1-3-4-6(9)7(4,2)5(3)8/h3-4,6,9H,1-2H3/t3-,4-,6+,7+/m0/s1
