23
gdb 86080	2.34663	1.31246	1.04267	1.3773	88.12	-0.2318	0.0288	0.2606	1298.7589	0.20378	-388.319503	-388.309343	-388.308399	-388.353686	39.171	
C	-0.7936832453	 1.172609043	 0.0290225077	-0.424148
C	 0.1353325684	-0.0343069289	-0.0684968083	 0.01719
C	 1.3054032076	 0.1085268778	-1.0676136702	-0.32205
C	 2.364128731	-0.8222924706	-0.5121720995	 0.323748
C	 3.558597775	-1.2275726931	-1.3164265382	-0.491936
C	 2.0746177255	-1.16148529	 0.7448165398	-0.229125
C	 0.8030702366	-0.5120496906	 1.2554873792	 0.357606
C	 1.1227679736	 0.6049073409	 2.2594843208	-0.43883
O	-0.1061391297	-1.4438580595	 1.8560989182	-0.477972
H	-0.255908755	 2.0825436762	 0.3163270081	 0.109922
H	-1.2741944849	 1.367174343	-0.9357383443	 0.109404
H	-1.586054081	 0.9983808857	 0.763970772	 0.123584
H	-0.4581801178	-0.899779181	-0.384314611	 0.092048
H	 1.0142697988	-0.1427307318	-2.0951690833	 0.096828
H	 1.6808801418	 1.1429674119	-1.1029727967	 0.097539
H	 4.1393952903	-0.3512587222	-1.6324183888	 0.123797
H	 4.2218881329	-1.8893173646	-0.75279966	 0.121591
H	 3.2571608126	-1.7459181943	-2.2357618164	 0.125182
H	 2.6885511347	-1.7928130076	 1.3813408927	 0.074595
H	 1.7375230102	 1.3886317562	 1.8063205401	 0.118744
H	 0.2042937457	 1.0564923327	 2.6456608568	 0.121166
H	 1.6878933468	 0.2001571695	 3.1084303257	 0.100207
H	 0.2292723622	-1.6640463427	 2.7315800455	 0.270908
92.7267	133.6122	187.5384	229.6846	242.3016	250.7383	261.1423	276.3536	293.3783	363.1083	399.8858	456.9256	477.8826	508.779	582.8679	596.0102	722.6618	844.0629	881.952	899.6438	922.508	938.5849	958.9749	1015.541	1021.3073	1040.1087	1085.2556	1102.3216	1133.0264	1159.6312	1175.804	1199.8898	1223.8179	1292.7795	1326.6264	1342.4043	1360.3194	1380.9716	1398.5809	1408.9248	1413.0303	1479.0187	1484.6726	1486.5851	1488.5934	1489.9918	1502.6661	1505.5952	1723.0226	2989.9325	3015.696	3022.9896	3030.284	3034.3678	3049.8982	3061.172	3087.8163	3095.4071	3102.8123	3109.633	3114.723	3165.6359	3806.743
CC1CC(C)=CC1(C)O	C[C@H]1CC(=C[C@]1(C)O)C	
InChI=1S/C8H14O/c1-6-4-7(2)8(3,9)5-6/h5,7,9H,4H2,1-3H3	InChI=1S/C8H14O/c1-6-4-7(2)8(3,9)5-6/h5,7,9H,4H2,1-3H3/t7-,8-/m0/s1
