18
gdb 22981	2.41123	1.25925	0.92982	2.2225	76.96	-0.2388	-0.0204	0.2184	1275.1322	0.14488	-439.055381	-439.04585	-439.044906	-439.090758	34.067	
C	 0.1007430319	 1.305259672	 0.5274959415	-0.484886
C	 0.0753434586	-0.0818911896	-0.0779224671	 0.373675
O	 1.0554404267	-0.6172616513	-0.5388456404	-0.289912
C	-1.2839805148	-0.7868395677	-0.0449602269	-0.197006
C	-1.3274040123	-2.2401362308	-0.6019687936	-0.242044
C	-1.7109588778	-2.7840235479	 0.8118096872	-0.32006
C	-1.6453636521	-1.3613362919	 1.3223134004	 0.410888
N	-1.7930057595	-0.7640064865	 2.4286200275	-0.229133
O	-2.109561832	-1.6682880038	 3.456302717	-0.387437
H	 1.1241372507	 1.6804093994	 0.563828559	 0.138716
H	-0.5163622979	 1.9822366975	-0.0751949243	 0.13727
H	-0.3385241317	 1.2799139687	 1.5302294763	 0.166447
H	-2.0487328375	-0.1065208046	-0.4359023791	 0.104776
H	-2.0780054459	-2.4060901514	-1.3753585787	 0.107631
H	-0.3511542085	-2.5644264967	-0.9627010297	 0.137577
H	-2.7032525155	-3.2366738116	 0.8957498895	 0.129645
H	-0.9892356305	-3.4628452234	 1.2752689074	 0.135473
H	-2.1932105818	-1.0883667303	 4.2209677839	 0.308379
46.5254	59.8208	113.5068	152.2977	205.2457	243.785	311.8258	359.7483	373.3037	476.4148	481.4667	588.5263	615.4935	695.775	748.4465	769.2739	898.2037	934.3236	943.5804	973.7368	999.2799	1024.8651	1075.2165	1108.6128	1160.9515	1181.0094	1194.4395	1220.559	1239.099	1274.7743	1311.1535	1383.3834	1400.1041	1455.9685	1466.0262	1475.9297	1485.582	1770.9897	1814.6949	3035.416	3049.4952	3059.251	3091.1676	3101.3525	3102.2591	3151.8584	3153.7251	3816.45
CC(=O)C1CCC1=NO	CC(=O)[C@H]1CCC1=NO	
InChI=1S/C6H9NO2/c1-4(8)5-2-3-6(5)7-9/h5,9H,2-3H2,1H3	InChI=1S/C6H9NO2/c1-4(8)5-2-3-6(5)7-9/h5,9H,2-3H2,1H3/t5-/m1/s1
