16
gdb 19168	3.96341	1.56018	1.29532	2.4751	60.06	-0.2636	0.0718	0.3354	946.3487	0.129322	-420.820616	-420.812826	-420.811882	-420.852995	28.519	
O	-0.0407490661	 1.6364271839	 0.3656578152	-0.418689
C	 0.0222769989	 0.2831750503	 0.7546575154	-0.13779
C	-1.1719512523	-0.5135768756	 0.2445949358	 0.344621
C	-2.4637776208	 0.1524657604	 0.0387856016	-0.218632
O	-1.5881821561	-0.1201443186	-1.0704398421	-0.278454
C	-1.1251965489	-1.9879640942	 0.5149220906	-0.019009
C	-1.4938642305	-2.9730272414	-0.5068046682	-0.166553
O	-0.1213649537	-2.7237177835	-0.1904650161	-0.235293
H	-0.2159227597	 1.6282533688	-0.5843525148	 0.293288
H	 0.9378320205	-0.2076450708	 0.3901595192	 0.117321
H	 0.0459473696	 0.2590771101	 1.849993113	 0.115893
H	-3.3800127122	-0.4346190592	 0.052069819	 0.117439
H	-2.5587673124	 1.2037170255	 0.2971255862	 0.134475
H	-1.2197472841	-2.260567719	 1.5678261361	 0.100691
H	-1.8742852491	-3.9458818444	-0.1995261021	 0.115627
H	-1.8154164631	-2.6150462021	-1.4812366489	 0.135065
75.0743	125.9436	184.2334	243.4646	274.7638	343.3238	426.4654	477.2712	481.0756	620.3244	704.8025	832.1041	861.2783	884.8089	922.1263	944.5534	1026.4136	1062.7641	1085.1387	1113.689	1128.435	1158.1471	1167.8889	1178.3315	1206.3456	1241.3296	1289.4516	1363.9837	1401.6314	1435.3562	1447.5914	1504.2237	1512.3927	1521.5662	2993.4594	3067.8056	3091.5044	3098.6781	3100.3811	3194.8168	3198.5193	3774.2336
OCC1(CO1)C1CO1	OC[C@]1(CO1)[C@H]1CO1	
InChI=1S/C5H8O3/c6-2-5(3-8-5)4-1-7-4/h4,6H,1-3H2	InChI=1S/C5H8O3/c6-2-5(3-8-5)4-1-7-4/h4,6H,1-3H2/t4-,5+/m1/s1
