25
gdb 89310	2.50264	1.48128	1.15295	0.0501	92.65	-0.2776	0.0833	0.3609	1225.5196	0.229438	-352.370191	-352.360933	-352.359989	-352.403016	37.806	
C	-0.1125057521	 1.534254972	 0.018608679	-0.422833
C	 0.0632482681	 0.0160666411	 0.0326737084	 0.016355
C	 1.0114193457	-0.5444556865	-1.0789479482	-0.267647
C	 2.0034573772	-1.3479210773	-0.2106522968	 0.353125
C	 3.1082243491	-2.0994902075	-0.916845135	-0.497396
C	 2.2862694257	-0.3326166661	 0.9372474044	-0.300207
C	 0.7822081114	-0.575409081	 1.2779854252	 0.35107
C	 0.2026152104	-0.2764839326	 2.6421274573	-0.505205
C	 1.0336259923	-2.0374226097	 0.7962772903	-0.298884
H	 0.8427194479	 2.0562449219	 0.1412956171	 0.11338
H	-0.5451322858	 1.8640160876	-0.9322400108	 0.111851
H	-0.7817521434	 1.8704211926	 0.8178267431	 0.111609
H	-0.9305243294	-0.4421024099	-0.0511243286	 0.060444
H	 0.4892416242	-1.1760856288	-1.8054514847	 0.087354
H	 1.5132814047	 0.2555022803	-1.6356205922	 0.08701
H	 3.7437441118	-1.4179951915	-1.4949175022	 0.111785
H	 3.7497318016	-2.6304303058	-0.205212563	 0.109097
H	 2.7000325598	-2.8399666849	-1.6150451423	 0.111681
H	 2.9518503418	-0.7443900921	 1.701648925	 0.085847
H	 2.6130522541	 0.6768488189	 0.6685078263	 0.082344
H	 0.2167230601	 0.7971064189	 2.860422833	 0.11548
H	-0.8389305622	-0.6137153876	 2.7113315714	 0.1111
H	 0.7680641634	-0.7812963956	 3.4325892811	 0.109642
H	 0.1843496681	-2.6013145578	 0.394366793	 0.078579
H	 1.5630763352	-2.6378195086	 1.5421119392	 0.084421
163.5161	205.7287	215.9343	230.0373	238.8461	251.0147	261.4064	359.1195	394.3202	428.3061	478.6886	520.0902	580.1719	582.4609	688.3888	783.9115	815.0289	860.6864	881.469	909.0135	918.2843	947.2391	976.9007	1008.996	1023.702	1038.9128	1053.8767	1075.0197	1100.7094	1138.0067	1158.3415	1170.8494	1195.9735	1215.443	1253.9473	1257.494	1269.6713	1273.9547	1338.1919	1348.9054	1377.4036	1409.6278	1412.8794	1416.6075	1484.0243	1489.4821	1491.3969	1493.3881	1494.6684	1495.4788	1500.5161	1506.3495	1529.4178	3013.336	3018.7074	3020.8353	3027.4567	3030.8814	3033.6854	3047.9109	3073.8407	3080.9728	3082.7546	3089.0022	3090.5472	3092.7563	3094.3188	3098.0195	3102.7206
CC1CC2(C)CC1(C)C2	C[C@H]1C[C@@]2(C)C[C@]1(C)C2	
InChI=1S/C9H16/c1-7-4-8(2)5-9(7,3)6-8/h7H,4-6H2,1-3H3	InChI=1S/C9H16/c1-7-4-8(2)5-9(7,3)6-8/h7H,4-6H2,1-3H3/t7-,8-,9+/m0/s1
