22
gdb 84031	2.69956	1.39897	1.13758	1.7776	82.35	-0.217	0.0793	0.2962	1177.0537	0.196167	-404.319807	-404.311383	-404.310439	-404.352442	33.354	
C	-0.2045272268	 1.581954424	 0.0725492063	-0.418255
C	 0.0141747892	 0.0873775992	-0.0407985276	-0.009759
C	 0.6112272625	-0.5898635796	-1.2380269651	-0.025554
C	 1.1380808384	 0.1491958999	-2.450490205	-0.110383
O	 2.3543864111	-0.4128683436	-2.920551328	-0.239465
C	 3.5084167986	 0.0577837569	-2.246667135	-0.068129
C	 3.640986126	-0.3618651387	-0.7770198238	-0.192713
C	 2.561765414	 0.2124086496	 0.149123193	-0.159594
N	 1.3251903657	-0.5618009083	 0.0407745674	-0.098476
H	 0.4874474962	 2.1789527019	-0.5235157805	 0.123916
H	-1.2196301029	 1.829743389	-0.2554788762	 0.124384
H	-0.1091627368	 1.903857138	 1.1156510489	 0.125251
H	-0.751396743	-0.4782316391	 0.491549715	 0.088403
H	 0.2431056376	-1.5843647541	-1.4913711287	 0.089058
H	 0.4189109418	 0.0470018059	-3.2708347682	 0.107041
H	 1.2701504823	 1.2235793906	-2.2619087453	 0.084975
H	 4.3559391606	-0.3367747869	-2.8167683395	 0.105536
H	 3.5509924059	 1.1598443067	-2.3120599973	 0.080377
H	 3.6309344226	-1.4549250152	-0.7010306219	 0.116593
H	 4.6251288828	-0.020629532	-0.43112435	 0.094152
H	 2.8925058782	 0.1380567279	 1.1919086176	 0.102244
H	 2.441101536	 1.2870919776	-0.0592681063	 0.080402
122.5944	137.6799	200.8639	265.5816	280.506	323.7009	339.3755	400.9015	471.39	492.3132	562.176	583.2065	721.8468	774.6118	819.4065	847.0673	914.486	927.102	983.9398	988.531	1020.4154	1043.6796	1070.1696	1096.0255	1131.004	1144.7912	1155.7435	1169.2929	1198.3258	1233.4619	1273.5517	1284.1404	1334.3858	1352.9433	1363.5575	1379.4662	1386.3774	1405.3278	1416.0954	1420.4062	1445.87	1465.3231	1486.3154	1493.2683	1493.8073	1502.1661	1518.7509	2945.5968	2975.3967	3006.7889	3025.8031	3038.1769	3043.6766	3063.1581	3071.8805	3081.0129	3087.3243	3093.235	3100.872	3132.2812
CC1C2COCCCN12	C[C@H]1[C@H]2COCCCN12	
InChI=1S/C7H13NO/c1-6-7-5-9-4-2-3-8(6)7/h6-7H,2-5H2,1H3	InChI=1S/C7H13NO/c1-6-7-5-9-4-2-3-8(6)7/h6-7H,2-5H2,1H3/t6-,7+,8?/m0/s1
