20
gdb 91746	2.46693	1.84356	1.59973	2.1828	77.05	-0.2432	0.025	0.2682	962.9398	0.174716	-403.181567	-403.174237	-403.173293	-403.213112	29.778	
C	-0.2678979071	 1.5428951116	 0.0006322458	-0.408842
C	 0.0252168514	 0.0429563341	 0.0039498899	 0.029138
C	 0.8542054165	-0.4716790435	-1.2239878758	-0.231183
C	 2.0335753259	-1.2506833714	-0.5989421082	 0.0193
C	 1.4334854007	-1.7773783669	 0.7167933345	-0.255718
C	 0.8242970528	-0.4688650229	 1.2229833861	 0.104907
O	 1.8995197301	 0.4437385263	 1.5697667022	-0.240964
C	 2.9720848429	 0.3947558765	 0.7415022833	 0.117331
N	 3.1386782796	-0.3254934217	-0.2859610003	-0.265608
H	 0.6553612046	 2.1280269252	-0.0219406904	 0.129154
H	-0.8600440397	 1.8148413034	-0.8788583433	 0.115046
H	-0.8323506653	 1.8423578363	 0.8900461301	 0.113412
H	-0.9322435511	-0.4923671509	 0.0287354893	 0.07684
H	 0.2491575383	-1.123615657	-1.8623616638	 0.09574
H	 1.2218476574	 0.3491694485	-1.8450618063	 0.111462
H	 2.4217887565	-2.0314307793	-1.2558298312	 0.072094
H	 0.648091023	-2.5195576024	 0.5409873734	 0.101459
H	 2.1783469968	-2.201148108	 1.3946868825	 0.111351
H	 0.2264060222	-0.5482147126	 2.1323412577	 0.081585
H	 3.7385312345	 1.0910414946	 1.0768944243	 0.123497
93.1451	221.0996	247.9897	322.0339	354.2322	418.3763	448.7612	476.6903	617.5521	680.4799	721.2124	810.7333	815.2791	850.8034	886.616	911.2728	931.1397	959.1972	971.8307	978.5311	1010.6215	1044.8039	1073.3254	1102.3865	1133.166	1175.4618	1183.5319	1230.7051	1243.6435	1262.2818	1307.9129	1330.9125	1335.9718	1349.3836	1369.0215	1374.067	1402.7904	1418.3931	1477.8964	1493.0874	1497.3144	1498.2151	1714.833	3020.5034	3037.7564	3049.2889	3053.5257	3087.5582	3099.5357	3102.2677	3104.0081	3111.3847	3119.0232	3159.7379
CC1CC2CC1OC=N2	C[C@H]1C[C@@H]2C[C@H]1OC=N2	
InChI=1S/C7H11NO/c1-5-2-6-3-7(5)9-4-8-6/h4-7H,2-3H2,1H3	InChI=1S/C7H11NO/c1-5-2-6-3-7(5)9-4-8-6/h4-7H,2-3H2,1H3/t5-,6+,7+/m0/s1
