25
gdb 60015	3.76405	0.62683	0.61535	2.8432	90.46	-0.2469	-0.019	0.2279	1947.8981	0.225236	-389.516998	-389.505316	-389.504372	-389.555004	41.558	
C	 0.9078431254	-0.3230848565	-1.0787212383	-0.382594
C	 0.0039971372	 0.0984633211	 0.0884121803	 0.025128
C	-0.1647312784	 1.6245717978	 0.1135592949	-0.386534
C	-1.37871239	-0.5799965536	 0.039871177	-0.1674
C	-1.4039200325	-2.1193905143	 0.1015934227	-0.000251
C	-0.7723459995	-2.6717467978	 1.3883734386	-0.39305
C	-2.8567427188	-2.6241482441	-0.0497921661	-0.27474
C	-2.9309533527	-4.1161568055	-0.2743004005	 0.157777
O	-3.5777014232	-4.8911627046	 0.3822074621	-0.242333
H	 1.8674218001	 0.2025921734	-1.0372428545	 0.111988
H	 1.1223024904	-1.3960405855	-1.071933883	 0.113935
H	 0.4405842709	-0.0823013543	-2.041589133	 0.110647
H	 0.499823175	-0.1924642033	 1.0239492799	 0.076849
H	-0.6499900284	 1.9800227613	-0.8034914109	 0.111439
H	-0.7801900719	 1.9454205648	 0.9606472925	 0.110321
H	 0.8039791965	 2.128845745	 0.1920703685	 0.109996
H	-1.9875480522	-0.1919926819	 0.8687138373	 0.091223
H	-1.885464813	-0.2597218105	-0.8819350686	 0.086703
H	-0.835563572	-2.5088851069	-0.7547659582	 0.079092
H	 0.2873520363	-2.4134057392	 1.4638617983	 0.120474
H	-1.2797003435	-2.2692588108	 2.2731028391	 0.119353
H	-0.8491709066	-3.7628042415	 1.4356281935	 0.124716
H	-3.4645230306	-2.3683347174	 0.8243381687	 0.116674
H	-3.3100320978	-2.1458221063	-0.9305272947	 0.113245
H	-2.3148787806	-4.4744319594	-1.1347408955	 0.067343
46.7243	52.8585	60.0688	113.3688	143.0063	216.0981	228.3392	247.1434	253.8456	280.1675	333.6903	390.8871	412.4378	427.0624	490.5427	538.7542	778.7373	818.2966	839.7136	892.6777	925.448	928.1074	952.4375	967.1127	985.7267	1028.5332	1053.5184	1089.0981	1153.3412	1164.5999	1183.4571	1192.7709	1223.2282	1261.5523	1285.0697	1324.277	1358.0178	1363.035	1381.4447	1390.8383	1399.1279	1414.5874	1420.7049	1430.0345	1458.5249	1478.3044	1487.7318	1492.7732	1497.4891	1501.9817	1504.0327	1511.0155	1834.3801	2836.5437	2996.213	3002.4032	3008.965	3015.359	3022.8173	3027.8959	3031.8473	3040.2259	3086.7257	3087.5799	3093.928	3096.1749	3098.8262	3102.947	3111.7955
CC(C)CC(C)CC=O	CC(C)C[C@@H](C)CC=O	
InChI=1S/C8H16O/c1-7(2)6-8(3)4-5-9/h5,7-8H,4,6H2,1-3H3	InChI=1S/C8H16O/c1-7(2)6-8(3)4-5-9/h5,7-8H,4,6H2,1-3H3/t8-/m0/s1
