19
gdb 109548	2.05569	1.52272	1.06412	1.0459	71.5	-0.2581	-0.0365	0.2215	1184.9785	0.15706	-460.161921	-460.152165	-460.151221	-460.196425	35.531	
C	-0.0094514687	 1.5713367726	-0.035538409	-0.393474
C	-0.0419574385	 0.041558483	-0.115392315	-0.174881
C	 0.7195257201	-0.5035583227	-1.3191635328	-0.120344
C	 2.2952217654	-0.6030742798	-1.1279518997	 0.058059
O	 2.96827232	 0.1763251189	-0.190033369	-0.423452
C	 1.9853403202	-2.0312280644	-0.7024296171	 0.272721
O	 2.3113288301	-2.6029186718	 0.3093612452	-0.331107
C	 0.6663344936	-2.0874546987	-1.4565659897	 0.053714
O	-0.3579075168	-2.8271629733	-0.8745849586	-0.424801
H	 1.0183263031	 1.9328039264	 0.0492536624	 0.140297
H	-0.4559755119	 2.0205661211	-0.929599405	 0.112667
H	-0.5728843698	 1.9291990959	 0.8316710551	 0.11267
H	 0.3725774197	-0.3812605173	 0.809169778	 0.093809
H	-1.075347801	-0.3177649843	-0.1726347164	 0.114864
H	 0.4327906498	 0.012251388	-2.2378676466	 0.086609
H	 2.7936922956	-0.5278079644	-2.0997815043	 0.111232
H	 3.054504453	-0.3604662137	 0.6095663813	 0.299379
H	 0.7730688394	-2.3721807355	-2.508141446	 0.113087
H	-0.0546116832	-3.0890372101	 0.0048800374	 0.298949
86.7795	114.3719	162.0507	165.3951	187.7162	212.4379	260.8955	300.5133	327.0858	353.3573	483.7505	523.1467	598.4919	639.0781	758.3428	780.8908	799.126	827.9309	931.6927	967.4075	988.6533	1027.0829	1066.9825	1109.447	1125.4975	1155.46	1175.2342	1233.3889	1257.283	1279.6725	1303.5682	1327.8608	1348.7702	1396.4904	1407.9785	1415.4758	1431.876	1489.6415	1498.5004	1514.0092	1828.746	3023.8483	3036.7324	3056.2485	3062.0927	3066.561	3090.1892	3101.0885	3127.6432	3752.2382	3762.5457
CCC1C(O)C(=O)C1O	CC[C@H]1[C@@H](O)C(=O)[C@H]1O	
InChI=1S/C6H10O3/c1-2-3-4(7)6(9)5(3)8/h3-5,7-8H,2H2,1H3	InChI=1S/C6H10O3/c1-2-3-4(7)6(9)5(3)8/h3-5,7-8H,2H2,1H3/t3-,4+,5-
