15
gdb 75106	3.11169	1.44356	0.99266	2.2687	72.02	-0.2371	-0.0449	0.1922	1111.0467	0.115039	-450.191551	-450.183646	-450.182702	-450.224224	29.941	
N	 0.0340965489	 1.3442690669	-0.1000741878	-0.541523
C	-0.034789935	-0.011974053	-0.0151428338	 0.371797
N	-1.1530397854	-0.631738934	 0.0150305058	-0.32962
C	-1.1827823716	-2.0643750044	 0.1685084723	-0.286196
C	 0.1251510363	-2.8271103655	 0.3050912963	 0.396211
O	 0.1977787105	-4.0241623963	 0.4601817141	-0.352068
N	 1.2707271719	-2.0451283651	 0.2315987027	-0.401188
C	 1.3161979692	-0.6718775085	 0.0564944229	 0.360635
N	 2.3677862145	 0.0397023779	-0.0547775568	-0.527602
H	 0.9318669934	 1.743438187	-0.3219096444	 0.276401
H	-0.8077514801	 1.8359113781	-0.3470965451	 0.260182
H	-1.7882744554	-2.3280015315	 1.0464112285	 0.150861
H	-1.7167597615	-2.5151891088	-0.6795942025	 0.149595
H	 2.1422887799	-2.556202225	 0.3033302872	 0.253388
H	 3.2251479243	-0.5122470275	-0.0034465596	 0.219127
63.3386	130.132	217.7114	327.3753	363.7601	379.1125	444.6854	462.8441	507.1903	529.9577	550.2026	595.6055	680.263	683.5256	796.6159	807.9576	873.7458	900.4176	983.7924	995.6597	1129.5445	1226.1629	1248.1949	1287.1098	1339.2219	1345.1355	1417.0205	1449.6229	1462.7844	1596.1057	1713.0866	1748.2595	1818.1069	3017.9416	3036.3004	3465.9482	3573.7234	3595.8725	3732.1983
NC1=NCC(=O)NC1=N	NC1=C(NC(=O)C[N]1)[NH]	
InChI=1S/C4H6N4O/c5-3-4(6)8-2(9)1-7-3/h1H2,(H2,5,7)(H2,6,8,9)	InChI=1S/C4H6N4O/c5-3-4(6)8-2(9)1-7-3/h1H2,(H2,5,7)(H2,6,8,9)
