19
gdb 119300	2.12722	1.30872	0.95389	3.6781	76.8	-0.2439	0.0292	0.2732	1297.4103	0.159153	-419.179911	-419.170465	-419.169521	-419.214725	33.496	
C	-0.1471971813	 1.3566441389	-0.1876823156	-0.22849
O	-0.1265731567	-0.051500744	-0.1168389445	-0.236203
C	 0.7434477514	-0.638924112	-1.050765047	-0.10208
C	 0.705560817	-2.1545175796	-0.8480251263	 0.121619
C	-0.6581500261	-2.7834745326	-1.2771028324	-0.192204
N	-0.0721653719	-3.0556134594	-2.6099328325	-0.312977
C	 1.2980105327	-2.9303283874	-2.067478323	-0.214368
C	 1.2118279599	-2.5314648735	 0.4635565718	 0.240714
N	 1.6299137347	-2.8574802438	 1.4908354771	-0.346508
H	 0.8447193315	 1.7875190939	 0.0168752553	 0.112188
H	-0.4808580254	 1.7091300087	-1.175987936	 0.108187
H	-0.8495644775	 1.708457191	 0.5708330525	 0.135651
H	 0.4298788748	-0.416947985	-2.0830211885	 0.111679
H	 1.7739976352	-0.2694341286	-0.9199506637	 0.101755
H	-0.8971894216	-3.6753637127	-0.6850999786	 0.113692
H	-1.513850646	-2.1034398424	-1.2741885503	 0.12788
H	-0.2984457052	-3.9603765253	-3.0063551284	 0.228215
H	 1.9965043912	-2.3747642841	-2.7028364856	 0.114628
H	 1.7661571534	-3.872349262	-1.7564228143	 0.116621
66.7097	104.6643	130.1898	147.2702	188.344	211.2711	249.4229	333.4058	374.5934	411.3209	542.9182	562.9492	648.6888	712.2776	904.1453	933.1173	949.4498	963.7756	986.8878	1025.7669	1031.4638	1086.96	1124.5226	1156.9028	1166.4777	1182.9184	1212.2372	1231.0208	1262.7721	1266.4594	1308.4412	1357.0143	1376.8491	1413.7113	1479.5365	1486.2707	1500.8472	1505.6674	1525.8735	1529.8862	2356.0816	2963.8961	2979.1287	3006.5115	3018.2424	3025.4829	3027.3816	3069.2114	3096.6652	3124.1591	3540.3398
COCC1(CNC1)C#N	COCC1(CNC1)C#N	
InChI=1S/C6H10N2O/c1-9-5-6(2-7)3-8-4-6/h8H,3-5H2,1H3	InChI=1S/C6H10N2O/c1-9-5-6(2-7)3-8-4-6/h8H,3-5H2,1H3
