16
gdb 54951	3.14899	1.06585	0.95215	3.2456	71.61	-0.2714	-0.0565	0.215	1261.9793	0.120516	-437.895586	-437.886069	-437.885125	-437.930349	33.313	
C	 0.7075197993	 1.4014907593	 0.2091607463	-0.4914
C	-0.1301139153	 0.1525082872	 0.041074874	 0.373783
O	-0.7922815371	-0.3288369071	 0.9287483568	-0.291266
C	-0.0860252395	-0.4617284288	-1.3434300333	-0.09367
O	-0.5009834748	-1.8121429449	-1.4887942881	-0.239807
C	-1.3439012566	-0.8269619755	-2.0714008907	 0.227071
C	-2.7304052554	-0.6652926822	-1.4924652486	-0.481871
C	-1.2726600799	-0.7577014366	-3.5261799159	 0.265244
N	-1.2401298629	-0.6815922522	-4.6788631966	-0.323019
H	 1.7706781429	 1.1556495536	 0.1014605234	 0.155301
H	 0.4715839147	 2.1341879373	-0.5713465002	 0.149496
H	 0.5312774088	 1.8340214692	 1.1939964903	 0.155128
H	 0.7711001392	-0.1814310197	-1.9559650842	 0.122856
H	-2.683121722	-0.7156827193	-0.4052268365	 0.178608
H	-3.1648589154	 0.288985086	-1.8039538722	 0.141507
H	-3.373517236	-1.4687648164	-1.8624287045	 0.152037
62.8088	104.8776	131.3932	149.9014	188.3915	214.8575	268.9115	341.9348	350.9739	405.602	533.8154	579.574	601.6985	622.8265	694.1125	840.5605	881.1666	896.8792	964.5157	1002.0959	1046.8109	1103.5768	1112.0808	1192.6544	1236.6158	1319.7136	1382.5986	1411.1926	1424.3545	1461.3098	1472.0379	1485.6684	1493.4531	1816.3804	2357.2834	3034.1983	3054.6017	3093.1888	3115.8387	3121.6947	3159.8765	3168.4359
CC(=O)C1OC1(C)C#N	CC(=O)[C@H]1O[C@]1(C)C#N	
InChI=1S/C6H7NO2/c1-4(8)5-6(2,3-7)9-5/h5H,1-2H3	InChI=1S/C6H7NO2/c1-4(8)5-6(2,3-7)9-5/h5H,1-2H3/t5-,6-/m1/s1
