19
gdb 87759	4.77589	0.87464	0.82782	4.6109	79.85	-0.2411	0.0224	0.2636	1422.8505	0.158452	-419.179348	-419.170304	-419.16936	-419.214365	32.528	
C	 0.0282998899	 1.4631014658	-0.315946546	-0.319824
N	 0.1264177571	 0.0267179192	-0.0987986343	-0.114751
C	 1.4719565676	-0.5409266621	 0.0177030502	-0.310512
C	 0.5723554689	-0.4434488482	 1.1899268936	 0.326235
C	 0.7931459192	 0.3706181678	 2.4861277395	-0.261178
N	 0.1296032896	-0.7288944113	 3.1951076572	-0.051655
C	-0.1298102491	-1.5431645196	 2.0029439409	-0.239273
C	 0.0104557603	-1.0446505608	 4.5023965964	 0.13658
O	-0.4631821717	-2.081989432	 4.9191716709	-0.331045
H	 0.8177027678	 2.0454415555	 0.1879025229	 0.102715
H	 0.091769484	 1.6636529165	-1.3894067694	 0.132408
H	-0.9434757893	 1.8203760333	 0.0391406022	 0.129682
H	 1.6329321659	-1.4922222961	-0.4831147014	 0.12406
H	 2.3201924497	 0.1434468374	-0.0135125597	 0.11014
H	 1.8373489977	 0.5335758927	 2.7762954659	 0.121903
H	 0.2545900168	 1.3247998832	 2.5362513277	 0.119687
H	-1.1924206543	-1.6743859311	 1.7742275827	 0.130368
H	 0.3608811861	-2.5216915669	 2.0250633654	 0.127815
H	 0.3931314238	-0.2362403634	 5.1599246552	 0.066644
20.5842	113.5443	148.5254	186.4676	221.484	239.423	316.2407	372.9501	428.6758	448.6313	479.418	644.3291	752.8437	810.3821	874.7175	907.2713	951.8081	963.5629	1032.4516	1046.579	1104.0658	1112.937	1129.1646	1132.7314	1151.7045	1174.7721	1182.5794	1208.8405	1225.4869	1284.3038	1296.3389	1394.575	1429.4412	1447.0274	1461.8348	1492.8428	1495.7995	1501.5159	1519.0125	1521.2547	1792.3821	2916.1752	2964.8155	3019.3281	3042.3482	3062.6278	3071.9498	3083.0458	3089.8337	3109.5987	3173.9686
CN1CC11CN(C1)C=O	CN1CC21CN(C2)C=O	
InChI=1S/C6H10N2O/c1-7-2-6(7)3-8(4-6)5-9/h5H,2-4H2,1H3	InChI=1S/C6H10N2O/c1-7-2-6(7)3-8(4-6)5-9/h5H,2-4H2,1H3
