20
gdb 51007	2.94334	1.19039	0.9806	3.7127	80.53	-0.2302	0.0261	0.2563	1261.035	0.170418	-403.139497	-403.130317	-403.129373	-403.174546	34.341	
O	-0.3305642582	 0.0438555971	 0.0031802508	-0.336387
C	-0.083552257	 1.2333514179	 0.0092967577	 0.151526
N	 1.1487710139	 1.8014049764	 0.0019308755	-0.367536
C	 2.4328683394	 1.1320660273	-0.0147275574	 0.392332
C	 2.6157579718	-0.1689108203	 0.731863375	-0.308983
C	 2.601827369	-0.1579104734	-0.7833693809	-0.308991
C	 3.59814053	 2.0853988412	-0.0184593544	-0.024734
C	 3.5959713867	 3.396205059	-0.764834672	-0.290552
C	 3.6099087327	 3.3849619583	 0.7472391801	-0.29051
H	-0.876960773	 2.0083593356	 0.0220494705	 0.075439
H	 1.163125148	 2.8079742743	 0.0087144944	 0.241537
H	 3.5576321818	-0.3137051105	 1.2506181894	 0.107324
H	 1.7476721594	-0.5971451561	 1.213920255	 0.147151
H	 1.7249525696	-0.5792070695	-1.255539923	 0.14713
H	 3.5339688122	-0.2950619645	-1.321421801	 0.107326
H	 4.5410732295	 1.5475831198	-0.0311770994	 0.09253
H	 4.4996886049	 3.6887910605	-1.2874764125	 0.119871
H	 2.6870477911	 3.7050955718	-1.2714317424	 0.112824
H	 2.7104671696	 3.6860803621	 1.2749922317	 0.112835
H	 4.5231224587	 3.6699171131	 1.2574395328	 0.119869
21.5254	80.8954	169.3319	207.6423	234.2039	241.9679	334.2686	365.3063	427.3828	465.8425	554.8728	631.7373	770.5847	780.082	816.0251	841.3796	845.391	895.5424	939.825	956.0902	971.6364	990.4817	1022.2897	1057.517	1063.5868	1071.0523	1087.2595	1089.45	1135.5329	1190.762	1196.8322	1199.7092	1227.1781	1290.1655	1323.4776	1419.76	1443.0916	1448.7227	1476.1724	1488.3398	1504.7299	1548.633	1797.3107	2922.4952	3127.9904	3132.6194	3140.45	3142.4324	3154.0359	3203.981	3218.8829	3243.8851	3252.7541	3641.7673
O=CNC1(CC1)C1CC1	O=CNC1(CC1)C1CC1	
InChI=1S/C7H11NO/c9-5-8-7(3-4-7)6-1-2-6/h5-6H,1-4H2,(H,8,9)	InChI=1S/C7H11NO/c9-5-8-7(3-4-7)6-1-2-6/h5-6H,1-4H2,(H,8,9)
