21
gdb 64489	2.58255	1.45066	1.19279	2.6669	74.6	-0.2443	0.0697	0.314	1135.4577	0.182728	-461.355094	-461.346184	-461.34524	-461.388064	34.787	
C	 0.3378283544	 1.6010582069	-0.0045929303	-0.417254
C	-0.0674313365	 0.1285432722	 0.0102948348	 0.326902
O	-1.4862983561	 0.0839831533	 0.0678845635	-0.466592
C	 0.3754566506	-0.5660968099	-1.2974154607	-0.121169
O	-0.2716051784	-1.8227432717	-1.4356543082	-0.257983
C	 0.3940400661	-2.9530204127	-0.8993238093	-0.070493
C	 1.0579637409	-2.7215000584	 0.4665560934	-0.10499
O	 0.2621567293	-1.948994867	 1.3392824772	-0.247214
C	 0.516551104	-0.5551720443	 1.2618036294	-0.103785
H	 1.4212982103	 1.7163148527	-0.1098136031	 0.111333
H	-0.1527053496	 2.1129946929	-0.8366675024	 0.127902
H	 0.0261461119	 2.0916485757	 0.922127019	 0.127669
H	-1.7223401983	-0.8295079204	-0.1409461644	 0.28713
H	 0.0350107974	 0.0406125906	-2.1424927242	 0.112316
H	 1.4686044116	-0.6585323317	-1.363483898	 0.089838
H	-0.3821475054	-3.7196967504	-0.8125452123	 0.117248
H	 1.1589201029	-3.3266063046	-1.6003841516	 0.091869
H	 1.2221297377	-3.698377173	 0.9374203423	 0.109733
H	 2.0460420632	-2.2527718872	 0.3434473939	 0.093779
H	 1.6016608656	-0.3684822061	 1.3265957117	 0.078938
H	 0.0359484084	-0.114870637	 2.1399920694	 0.114822
122.9146	156.4626	181.7204	249.3412	278.0225	293.3927	316.5316	385.7059	401.0994	426.683	471.2272	498.332	586.7573	623.8151	794.9242	843.8632	859.3151	888.0208	923.535	956.9758	1003.5903	1012.7967	1030.1287	1097.51	1115.4481	1160.6906	1169.1862	1226.7871	1237.6164	1282.6536	1298.5633	1322.7519	1342.9792	1362.8254	1370.1821	1411.5831	1413.0769	1417.2286	1436.2972	1473.2624	1480.8932	1486.9683	1497.021	1500.1339	1509.9925	2965.036	2970.3177	2991.3287	3010.5523	3041.7309	3052.2217	3079.067	3082.3228	3091.5796	3113.8678	3121.9386	3769.5603
CC1(O)COCCOC1	CC1(O)COCCOC1	
InChI=1S/C6H12O3/c1-6(7)4-8-2-3-9-5-6/h7H,2-5H2,1H3	InChI=1S/C6H12O3/c1-6(7)4-8-2-3-9-5-6/h7H,2-5H2,1H3
