23
gdb 86397	2.44477	1.41976	1.03623	1.4862	86.04	-0.2185	0.0869	0.3054	1267.1112	0.205354	-388.296346	-388.287046	-388.286102	-388.330781	36.262	
C	 0.0149278244	 1.5059103514	 0.2986403191	-0.398102
C	 0.0074607721	 0.0255544927	-0.0472684314	 0.143776
C	 1.017627926	-0.4150606625	-1.111324689	-0.241104
C	 1.2499927925	-1.8922206295	-0.7532773683	-0.063574
C	 2.5260846133	-2.4998490572	-1.3288633818	-0.419444
C	 1.1529697517	-1.8389206753	 0.7718006241	 0.471288
C	 1.0481862953	-3.043441417	 1.6521910114	-0.333592
C	 2.2814127018	-2.1540599733	 1.7157510425	-0.329597
O	 0.3452813661	-0.7302362591	 1.1231026516	-0.322591
H	 1.0154257113	 1.8208933894	 0.6111327629	 0.117962
H	-0.2870715333	 2.1043178136	-0.567293561	 0.110681
H	-0.6810326904	 1.7122576719	 1.116701086	 0.124002
H	-1.0069160402	-0.2639040555	-0.3695815819	 0.064746
H	 0.6505241679	-0.2689482308	-2.130788446	 0.096777
H	 1.951197859	 0.1511385742	-1.0003897679	 0.097996
H	 0.3912558005	-2.471726717	-1.1205358088	 0.078335
H	 3.4089741116	-1.9270345472	-1.0276521745	 0.120902
H	 2.6660209316	-3.5351576974	-0.9991623889	 0.117155
H	 2.4883798424	-2.5076676788	-2.4227943415	 0.114734
H	 0.3463573543	-2.9871782341	 2.4767659259	 0.118966
H	 1.1456505126	-4.0279015126	 1.2040085303	 0.106334
H	 3.2165271813	-2.5408709518	 1.3265507534	 0.107976
H	 2.3789702784	-1.504003714	 2.5779934439	 0.116374
27.2471	118.6679	226.2773	228.0524	257.5099	264.8296	285.1929	389.7941	404.8225	446.8086	497.2929	535.0173	568.7279	702.2863	767.4425	839.0476	870.9175	884.7333	911.0583	927.1413	945.5394	953.1012	993.2669	1006.0418	1049.6929	1070.0879	1073.2998	1118.6395	1131.6369	1155.795	1180.1255	1191.8765	1218.1878	1232.2245	1289.2187	1333.2429	1358.2901	1370.0789	1386.8086	1395.7798	1412.9031	1413.7529	1450.6091	1484.2722	1489.0275	1495.8731	1498.2361	1502.4581	1505.5603	2953.8518	3001.6447	3029.722	3032.8742	3037.4089	3096.0062	3097.2457	3106.1682	3109.8351	3116.574	3122.5241	3137.0266	3211.1982	3229.4655
CC1CC(C)C2(CC2)O1	C[C@H]1C[C@@H](C)C2(CC2)O1	
InChI=1S/C8H14O/c1-6-5-7(2)9-8(6)3-4-8/h6-7H,3-5H2,1-2H3	InChI=1S/C8H14O/c1-6-5-7(2)9-8(6)3-4-8/h6-7H,3-5H2,1-2H3/t6-,7+/m1/s1
