21
gdb 57592	2.2399	1.29534	1.28003	1.587	78.26	-0.2422	-0.0237	0.2185	1168.6823	0.178629	-424.220571	-424.210247	-424.209303	-424.255921	38.617	
C	 0.3387549074	 1.6012715296	-0.0929856486	-0.422279
C	 0.0497119362	 0.0818931154	-0.0737631782	 0.099826
C	 0.4023198027	-0.5088404858	 1.29568502	-0.436708
C	-1.4435495962	-0.1011996625	-0.3354955007	 0.142042
O	-2.2239292431	-0.6285286296	 0.4149865951	-0.255332
C	 0.8012107287	-0.5734160721	-1.2564831458	 0.395621
O	 0.5271314481	 0.0405840511	-2.4986465862	-0.470933
C	 2.2257391853	-1.0299163451	-1.1297429429	-0.30614
C	 1.1144773919	-2.0463542925	-1.3099207248	-0.338066
H	 1.4086374688	 1.7738288293	 0.0600954696	 0.124768
H	 0.0625451525	 2.044797178	-1.0516449457	 0.135862
H	-0.2082125556	 2.1109258618	 0.7062126831	 0.118055
H	-0.2097023311	-0.0327819166	 2.065624075	 0.131077
H	 0.1955161521	-1.5799461182	 1.349585773	 0.128403
H	 1.4524384776	-0.3348695726	 1.5435024689	 0.113973
H	-1.7901690526	 0.3153772071	-1.3092226559	 0.07017
H	-0.2388497539	-0.3923009863	-2.8887992623	 0.285858
H	 2.8595077519	-0.8256035956	-1.9844963728	 0.126443
H	 2.7208949594	-0.9780807195	-0.168022438	 0.118602
H	 0.8534587617	-2.6782749184	-0.4697683215	 0.124434
H	 1.0305201383	-2.5253199575	-2.2795536412	 0.114322
38.3255	62.2693	198.3958	221.8969	242.308	255.3379	280.6646	297.0438	321.0694	350.8605	374.6322	423.5838	443.2745	503.4626	554.4084	709.678	773.3588	814.2967	892.478	910.308	921.161	935.4535	957.2221	984.5117	1028.5792	1043.8878	1054.221	1080.3754	1174.6023	1186.3773	1190.6342	1230.2669	1275.4824	1310.1823	1344.2392	1394.3171	1410.086	1432.1563	1450.3724	1484.4448	1486.4562	1495.9779	1503.2397	1511.7638	1827.426	2865.1068	3041.1169	3055.4722	3108.8751	3125.1148	3129.1501	3134.694	3140.3657	3148.5944	3225.3498	3241.0645	3813.095
CC(C)(C=O)C1(O)CC1	CC(C)(C=O)C1(O)CC1	
InChI=1S/C7H12O2/c1-6(2,5-8)7(9)3-4-7/h5,9H,3-4H2,1-2H3	InChI=1S/C7H12O2/c1-6(2,5-8)7(9)3-4-7/h5,9H,3-4H2,1-2H3
