19
gdb 35275	3.42688	0.91743	0.82045	0.633	82.82	-0.2306	0.0346	0.2652	1440.7498	0.158461	-381.969404	-381.960376	-381.959431	-382.003986	33.601	
C	-0.2444227001	-1.1674664238	 0.0480846251	-0.447671
C	-0.0744041649	 0.0204328903	 0.1239499424	 0.380858
C	 0.0943720023	 1.44754105	 0.1759095642	-0.255167
N	 0.8884539401	 2.0117090496	 1.2961794541	-0.322924
C	 1.4070782941	 2.1235675455	-0.0711376623	 0.006151
C	 2.6650357308	 1.3517177108	-0.3840961909	-0.167838
N	 3.8377704132	 2.160438749	-0.0659570804	-0.074373
C	 4.3159988102	 2.0693775999	 1.3126535335	-0.213928
C	 5.0677289434	 1.4222028824	 0.2028828015	-0.223537
H	-0.3885708945	-2.2179719005	-0.0077522182	 0.198232
H	-0.7851805905	 2.007843784	-0.1349692167	 0.111758
H	 0.4701867563	 2.8887915664	 1.5954599111	 0.237557
H	 1.3525618111	 3.0986489405	-0.5518574722	 0.098248
H	 2.6437231762	 0.3950866307	 0.1624431939	 0.101458
H	 2.6928187803	 1.1209016421	-1.4563342169	 0.106742
H	 4.6729013293	 2.9983840864	 1.7481421414	 0.111735
H	 3.767761315	 1.4249035101	 1.995508128	 0.128811
H	 5.032682594	 0.3353523683	 0.1450280413	 0.109551
H	 5.9798468338	 1.8684449482	-0.1831349989	 0.114334
53.459	83.7193	95.2303	188.6841	222.787	327.0203	348.9826	379.3465	476.5998	552.2957	589.963	615.156	657.7327	768.1142	806.5951	827.402	844.1585	895.0006	909.787	953.5776	1004.8669	1013.893	1036.9467	1063.0789	1111.6523	1117.1584	1131.0523	1166.7246	1174.0924	1201.7596	1234.4258	1251.1739	1295.469	1320.132	1355.9277	1409.2018	1465.0754	1481.6245	1494.0582	1523.0917	2239.4789	2977.4242	3050.5152	3095.5968	3108.4447	3121.0647	3131.9125	3179.1636	3196.7101	3503.9857	3504.8515
C#CC1NC1CN1CC1	C#C[C@H]1N[C@H]1CN1CC1	
InChI=1S/C7H10N2/c1-2-6-7(8-6)5-9-3-4-9/h1,6-8H,3-5H2	InChI=1S/C7H10N2/c1-2-6-7(8-6)5-9-3-4-9/h1,6-8H,3-5H2/t6-,7+/m1/s1
