16
gdb 26545	2.34342	1.86279	1.04704	6.1135	77.06	-0.2049	-0.012	0.1929	1083.6454	0.125231	-434.108634	-434.100068	-434.099124	-434.141829	31.513	
C	-0.0557478382	 1.516246657	 0.0315767715	-0.479319
C	-0.0484104153	 0.0183427197	 0.0353925118	 0.159424
C	-1.17132561	-0.723267794	-0.0026590006	 0.303623
O	-2.435224017	-0.2127872222	 0.0264233124	-0.420924
N	-1.1013063264	-2.1134660245	-0.0356259916	-0.37367
C	 0.1271813839	-2.7189142958	 0.0243833102	 0.084526
N	 1.2463288827	-2.0998506275	 0.0580598658	-0.314809
C	 1.2461310577	-0.6836437951	 0.0727110437	 0.264419
N	 2.3343080216	-0.0061645212	 0.1084038096	-0.530039
H	 0.5522826139	 1.8911889903	-0.797794644	 0.142059
H	-1.0697890495	 1.9113190425	-0.0442107512	 0.117503
H	 0.4138256694	 1.898523294	 0.9438245487	 0.143493
H	-2.9234881396	-0.5065341137	-0.7529429227	 0.304123
H	-1.9386895576	-2.6426678008	 0.1510450492	 0.260289
H	 0.1010829	-3.8072470262	 0.0319970983	 0.128862
H	 3.1208552745	-0.6581453322	 0.1185270688	 0.21044
89.3466	120.0019	165.1294	195.6128	269.6882	292.741	359.989	412.0084	507.5366	523.5917	536.471	545.0303	622.2383	691.9609	776.7192	886.5611	899.5355	924.9504	956.2417	1032.3524	1064.8001	1109.8149	1188.8625	1208.8735	1259.948	1278.6779	1368.5953	1409.4425	1426.8105	1473.2396	1480.7726	1502.9264	1670.5167	1673.2243	1747.4266	3044.6811	3095.543	3143.0144	3147.8881	3463.9621	3633.1192	3770.1852
CC1=C(O)NC=NC1=N	CC1=C(N=CN[C@H]1O)[NH]	
InChI=1S/C5H7N3O/c1-3-4(6)7-2-8-5(3)9/h2H,1H3,(H3,6,7,8,9)	InChI=1S/C5H8N3O/c1-3-4(6)7-2-8-5(3)9/h2,5-6,9H,1H3,(H,7,8)/t5-/m0/s1
