21
gdb 116931	7.23685	0.48513	0.4788	2.0922	89.78	-0.2454	0.047	0.2924	2354.0081	0.181428	-387.047014	-387.036752	-387.035808	-387.085065	35.386	
C	 0.1530324683	 1.6409654048	 0.1561114658	-0.381705
C	 0.2043366342	 0.1121875884	 0.1386105751	-0.153387
C	 0.3894700578	-0.4526470424	-1.2847416217	-0.336099
C	 0.4434826656	-1.9096717933	-1.3273803821	 0.022665
C	 0.4860401691	-3.1144766563	-1.3312672854	 0.124868
C	 0.5401443435	-4.5599295111	-1.3719276734	-0.212742
C	-0.4627926209	-5.3289611547	-2.2789323839	-0.072906
O	 0.6027996807	-6.0813372767	-2.8875335174	-0.269381
C	 1.6042854158	-5.2501091551	-2.2727508882	-0.07271
H	 1.0772428821	 2.0747405503	-0.2418649828	 0.116127
H	-0.6774372464	 2.0181607721	-0.4511280533	 0.116125
H	 0.0195282355	 2.0198149309	 1.1737670597	 0.115304
H	 1.0250761378	-0.245426268	 0.7703636206	 0.108598
H	-0.7160044926	-0.3014226941	 0.5658894108	 0.10859
H	-0.4297870356	-0.0970200183	-1.9246284729	 0.125579
H	 1.3091927249	-0.0394640015	-1.7213047484	 0.12569
H	 0.5528177857	-4.9748534709	-0.3597412916	 0.107589
H	-1.1885637279	-5.9735038198	-1.7714898342	 0.10731
H	-0.9824910381	-4.6863743687	-3.0005889869	 0.106535
H	 2.0772312335	-4.5691182131	-2.9912291182	 0.10661
H	 2.374282697	-5.8372268127	-1.7608324817	 0.107341
12.8407	59.3051	69.697	101.2249	131.3018	192.1331	239.4115	301.4495	312.5047	471.736	492.1234	506.2558	646.0106	743.1114	842.5523	872.0426	885.8861	889.8639	928.4838	1001.7108	1020.8318	1038.586	1046.1717	1105.4798	1110.5644	1122.0457	1158.1322	1170.7828	1194.7641	1241.242	1259.8459	1302.9557	1306.2002	1321.9999	1345.7692	1377.9589	1386.6429	1413.3551	1472.399	1491.9954	1498.9859	1508.4931	1509.04	1534.5887	2361.9448	3007.6734	3013.9558	3024.4543	3030.2227	3033.7881	3041.2368	3054.0382	3071.8244	3073.1266	3080.204	3100.3992	3106.2494
CCCC#CC1COC1	CCCC#CC1COC1	
InChI=1S/C8H12O/c1-2-3-4-5-8-6-9-7-8/h8H,2-3,6-7H2,1H3	InChI=1S/C8H12O/c1-2-3-4-5-8-6-9-7-8/h8H,2-3,6-7H2,1H3
