18
gdb 52797	1.89066	1.2925	0.86731	4.0112	86.6	-0.2457	0.0209	0.2665	1391.2818	0.145342	-364.79993	-364.789833	-364.788888	-364.836372	35.369	
C	 0.0148576083	 1.4775380014	-0.0097195866	-0.502406
C	 0.0314070392	 0.0225748129	 0.010873102	 0.111661
C	 0.0292274365	-1.1815985523	 0.0307604675	-0.002609
C	 0.0463569569	-2.6202570021	 0.0288388093	 0.152363
C	 1.1786004819	-3.2598661227	-0.761395638	-0.458385
C	-0.4657012365	-3.3374494046	 1.2569631162	-0.310831
C	-1.3091137554	-3.357814327	-0.0030286784	-0.211978
C	-2.5412899118	-2.626106994	-0.0594344673	 0.299159
N	-3.541729781	-2.0479114894	-0.115316989	-0.341115
H	 0.8940135437	 1.8754496753	-0.5282866584	 0.14972
H	-0.8755824488	 1.8531637098	-0.5252959488	 0.159788
H	 0.0118406084	 1.8904355386	 1.0049882881	 0.151252
H	 2.1453103966	-2.9599543446	-0.346170753	 0.136407
H	 1.1152552752	-4.3517728169	-0.7252463491	 0.117306
H	 1.1467285014	-2.9455836087	-1.8084489256	 0.138299
H	 0.0135674054	-4.268177896	 1.5397907929	 0.129365
H	-0.8227049792	-2.7313398863	 2.0799312052	 0.147909
H	-1.3211011606	-4.2822908034	-0.570952527	 0.134094
22.5067	65.5944	109.441	152.3091	177.8687	226.6678	298.9319	306.714	318.6155	355.2067	462.0557	522.3941	566.913	583.2747	632.4439	774.2767	830.8631	881.0102	942.8502	993.6294	1051.5298	1052.7912	1068.9492	1084.217	1088.2926	1110.1503	1132.2911	1244.849	1353.0537	1383.4301	1413.597	1415.5494	1475.3331	1477.5895	1477.8335	1486.1169	1500.8488	2355.75	2371.8153	3028.5051	3038.4079	3090.0149	3092.5526	3111.3106	3116.022	3144.0836	3166.2257	3242.901
CC#CC1(C)CC1C#N	CC#C[C@@]1(C)C[C@H]1C#N	
InChI=1S/C8H9N/c1-3-4-8(2)5-7(8)6-9/h7H,5H2,1-2H3	InChI=1S/C8H9N/c1-3-4-8(2)5-7(8)6-9/h7H,5H2,1-2H3/t7-,8-/m0/s1
