19
gdb 109321	1.88019	1.61802	0.98989	4.6864	82.12	-0.2348	0.0049	0.2396	1243.4456	0.16006	-382.088547	-382.079408	-382.078463	-382.123158	33.124	
C	 0.0152832227	 1.5482711515	 0.2295974835	-0.382053
C	-0.0234024981	 0.0560694994	-0.1456525161	-0.298796
C	-1.3958584296	-0.5414301971	-0.0933649374	 0.365556
C	-2.1049231223	-1.0965162052	-1.0729490141	-0.196142
C	-3.4451139202	-1.5830892468	-0.6047117296	-0.20403
N	-3.3693250501	-1.4186246143	 0.8560176793	-0.302746
C	-2.2212181133	-0.5736955702	 1.1918999039	-0.227643
C	-1.4572646811	-1.1188388364	 2.3359797834	 0.298946
N	-0.8437806315	-1.5150214764	 3.231704676	-0.336731
H	 1.0351215484	 1.935328996	 0.1514863831	 0.123262
H	-0.6248904499	 2.1388657394	-0.433326063	 0.11974
H	-0.319227169	 1.7113573903	 1.2589123515	 0.12774
H	 0.382559785	-0.0831157304	-1.1529229639	 0.108336
H	 0.6341264317	-0.4961213204	 0.5386790453	 0.134016
H	-1.7747055764	-1.1954311844	-2.1002439123	 0.104704
H	-4.2622397404	-0.9990539576	-1.0610631291	 0.101744
H	-3.6245995197	-2.634017028	-0.8731880344	 0.118455
H	-4.2279505979	-1.0814344157	 1.2665762721	 0.230997
H	-2.5060309885	 0.4532185962	 1.4804268517	 0.114644
51.3873	81.5963	135.3084	163.5029	224.7121	240.6135	303.8758	360.8397	468.849	510.7892	547.3956	615.5562	643.1803	794.0364	812.2582	834.4362	879.022	945.8352	954.3656	990.0635	1007.6695	1048.2629	1070.0428	1102.1722	1131.2822	1190.9578	1205.2083	1254.9899	1269.6074	1328.8772	1336.7869	1360.4276	1376.5206	1409.5466	1449.2486	1479.3035	1500.0023	1505.6399	1521.447	1733.0575	2353.1822	2941.2961	2957.4004	3004.7178	3025.6807	3039.192	3073.2907	3111.1845	3114.5037	3206.1206	3593.0643
CCC1=CCNC1C#N	CCC1=CCN[C@H]1C#N	
InChI=1S/C7H10N2/c1-2-6-3-4-9-7(6)5-8/h3,7,9H,2,4H2,1H3	InChI=1S/C7H10N2/c1-2-6-3-4-9-7(6)5-8/h3,7,9H,2,4H2,1H3/t7-/m0/s1
