15
gdb 130268	4.91868	0.83614	0.77776	3.4009	70.27	-0.2365	-0.0368	0.1997	1421.0555	0.111986	-453.949928	-453.941488	-453.940544	-453.984438	30.061	
N	 0.1576031987	 1.4509747951	 0.1064398253	-0.58778
C	 0.1122446643	 0.0696613193	 0.0750113169	 0.429409
N	-1.0212075648	-0.5771683138	 0.2490776154	-0.227356
O	-0.6713409916	-1.937190187	 0.2412491206	-0.222091
C	 0.6526427998	-2.0523923766	 0.045388061	 0.436086
C	 1.2063433569	-3.4361570843	 0.0476836862	-0.389167
C	 1.3423497175	-3.9957949698	 1.4647714379	 0.159017
O	 2.3074830369	-4.5940223251	 1.8550687295	-0.225174
C	 1.2193005898	-0.8230614853	-0.0647453609	-0.414884
H	 0.8324954774	 1.8626555575	-0.5212958783	 0.256606
H	-0.7540175457	 1.8790465108	 0.0151854148	 0.262559
H	 0.5187970064	-4.0983347289	-0.495805949	 0.154141
H	 2.1825709537	-3.4753161984	-0.4387373664	 0.143358
H	 0.4600173558	-3.8118246416	 2.1147068627	 0.105022
H	 2.2592012249	-0.5810352319	-0.2088014457	 0.120253
33.9395	65.1311	123.4244	249.9457	269.0053	321.8394	394.9875	434.7112	442.8672	614.1161	641.4607	683.9449	741.9439	751.2552	796.9042	814.5758	936.7967	998.1719	1026.3916	1033.3158	1049.5638	1138.6433	1167.7835	1188.1886	1286.7276	1330.3467	1418.2554	1444.5799	1499.0676	1545.4316	1640.6834	1668.9388	1839.9102	2907.9929	3031.7611	3128.0275	3273.5296	3560.2879	3661.7499
NC1=NOC(CC=O)=C1	Nc1noc(CC=O)c1	
InChI=1S/C5H6N2O2/c6-5-3-4(1-2-8)9-7-5/h2-3H,1H2,(H2,6,7)	InChI=1S/C5H6N2O2/c6-5-3-4(1-2-8)9-7-5/h2-3H,1H2,(H2,6,7)
