18
gdb 93729	3.18046	1.07041	1.02704	4.1649	72.08	-0.2753	0.0193	0.2946	1222.2431	0.147364	-439.105239	-439.096308	-439.095363	-439.139233	33.647	
O	-0.0899587045	 1.4404544776	 0.0674693032	-0.433642
C	 0.0321010684	 0.030268885	 0.0505958027	 0.137049
C	 0.6271610298	-0.5858960083	 1.3308742274	-0.254914
C	 0.0753933211	-2.0138342961	 1.3095241561	-0.247386
C	-1.4101024513	-1.7973144879	 0.9134386965	 0.247092
O	-2.1881416905	-1.3920724228	 2.0351816181	-0.455898
C	-1.3791574846	-0.5891949997	-0.0626098426	-0.244979
C	-1.9995550056	-3.0105115113	 0.3138401127	 0.228165
N	-2.451838405	-3.9791379983	-0.1258558916	-0.342238
H	 0.794567777	 1.8194411243	 0.056467899	 0.284545
H	 0.6379277253	-0.287480782	-0.8125648304	 0.071274
H	 1.7195716148	-0.546477848	 1.3627094415	 0.093891
H	 0.2329132933	-0.0405386738	 2.1941032512	 0.124472
H	 0.5771960766	-2.614311983	 0.542398313	 0.121537
H	 0.1619400931	-2.550519517	 2.2584908589	 0.107195
H	-2.2091374214	-2.1186186366	 2.6692258017	 0.289542
H	-2.1240823672	 0.1354377662	 0.2714931912	 0.148639
H	-1.6220437292	-0.8834445982	-1.0842488686	 0.125657
37.1803	144.9547	166.6316	212.7744	276.7368	336.2507	365.9912	390.1904	406.9069	443.0939	497.1176	556.126	576.0502	612.2175	752.7976	820.6621	878.4476	892.511	973.2135	1015.0829	1020.8976	1040.6038	1063.5303	1083.1073	1133.8465	1200.5789	1207.52	1246.609	1279.0702	1296.1081	1318.3745	1339.817	1361.1731	1385.4959	1432.3648	1473.277	1480.9523	1495.99	2351.3116	2970.471	3046.3188	3055.0541	3087.3742	3095.5063	3108.9866	3140.9068	3794.9748	3820.2854
OC1CCC(O)(C1)C#N	O[C@H]1CC[C@@](O)(C1)C#N	
InChI=1S/C6H9NO2/c7-4-6(9)2-1-5(8)3-6/h5,8-9H,1-3H2	InChI=1S/C6H9NO2/c7-4-6(9)2-1-5(8)3-6/h5,8-9H,1-3H2/t5-,6+/m0/s1
