18
gdb 64924	2.1736	1.51922	1.06088	3.0214	75.36	-0.2561	-0.0556	0.2005	1165.2602	0.143835	-439.087258	-439.077341	-439.076397	-439.122131	35.056	
C	-0.0332538657	 1.5125013542	-0.0942942358	-0.456233
C	 0.0480837547	 0.006578729	 0.0285619441	 0.165191
N	 1.381225877	-0.6118464559	-0.086779244	-0.384581
C	 0.7548853142	-0.6461116577	 1.2249574435	 0.188811
C	 1.339184676	 0.2037695537	 2.3371087011	-0.47194
C	 0.2706721733	-1.9876392864	 1.6982065711	 0.104048
O	 0.2895020229	-2.9905504064	 1.0248918416	-0.262924
C	-1.1075535225	-0.7247922986	-0.5915560135	 0.087873
O	-2.0596028009	-0.1565885886	-1.0685543798	-0.25414
H	 0.9324245042	 1.9760947558	 0.104829512	 0.132585
H	-0.3416065431	 1.7722360235	-1.1101442177	 0.147242
H	-0.7835068485	 1.9240295375	 0.5867191151	 0.133129
H	 1.3067864649	-1.5473376818	-0.4953268442	 0.249748
H	 1.7140639544	 1.1535733502	 1.9594293695	 0.146194
H	 0.586167051	 0.4066132846	 3.1058871393	 0.131774
H	 2.1757573025	-0.3198456899	 2.8122065982	 0.138334
H	-0.077853687	-2.0100429198	 2.7523813711	 0.094597
H	-1.0188198073	-1.8277814735	-0.6133900618	 0.110292
91.007	105.6956	117.8826	126.8028	179.7962	229.2497	276.8783	301.927	313.7539	361.1701	442.1447	461.2986	529.8255	632.2282	738.4641	754.4543	836.6586	913.841	987.9748	990.6437	1013.7293	1065.8362	1097.7973	1110.6451	1138.4239	1156.1278	1262.5001	1330.4176	1365.3333	1406.935	1416.7526	1427.581	1447.0088	1478.3148	1480.1208	1492.4094	1501.9008	1799.5068	1807.9087	2912.3293	2960.3765	3042.2507	3058.7152	3101.0789	3123.1902	3153.5607	3167.0046	3426.5981
CC1(NC1(C)C=O)C=O	C[C@]1(N[C@]1(C)C=O)C=O	
InChI=1S/C6H9NO2/c1-5(3-8)6(2,4-9)7-5/h3-4,7H,1-2H3	InChI=1S/C6H9NO2/c1-5(3-8)6(2,4-9)7-5/h3-4,7H,1-2H3/t5-,6+
