20
gdb 13978	5.28493	1.07458	1.00251	1.9378	75.02	-0.2284	0.0746	0.303	1239.8354	0.176523	-348.964943	-348.95659	-348.955646	-348.998156	31.07	
C	 0.0510962993	 1.59962884	 0.0740982269	-0.382286
C	 0.129152251	 0.0713306981	 0.052087855	-0.154811
C	 0.5794961487	-0.4878702181	-1.3073633145	-0.308431
C	 0.657698412	-1.9878194283	-1.3334869751	 0.300516
C	 1.8516271186	-2.7935978178	-0.8451660016	-0.340263
C	 1.354389804	-2.9715860046	-2.2467625915	 0.037719
O	 0.2409952943	-3.8685904585	-2.2743947298	-0.288035
C	-0.5305301207	-2.943660829	-1.4616271268	-0.125346
H	 1.0262851411	 2.0487920163	-0.1453350596	 0.114037
H	-0.658118649	 1.9718219894	-0.67371147	 0.11452
H	-0.2726867156	 1.9690019451	 1.0520366098	 0.112787
H	 0.8217103959	-0.278048315	 0.8278353903	 0.101413
H	-0.8515285488	-0.3500978618	 0.3090758868	 0.097498
H	-0.111449199	-0.1416470128	-2.0889377588	 0.096227
H	 1.5621255857	-0.0695723414	-1.5626649929	 0.096024
H	 2.766412127	-2.2167173686	-0.7411253011	 0.110247
H	 1.7342087666	-3.6063209451	-0.1328106337	 0.111612
H	 1.9397956654	-2.857494554	-3.1525189901	 0.102137
H	-0.9191725797	-3.4128465418	-0.5496011736	 0.101948
H	-1.360616017	-2.523816932	-2.0435988596	 0.102488
72.0797	88.7848	128.1938	236.6559	286.6267	313.14	335.3087	391.7374	459.0759	699.3345	741.6763	760.7286	845.3788	867.3715	901.7495	915.2108	930.7972	985.7721	1000.6903	1011.1135	1046.4652	1048.1066	1064.8882	1078.4889	1112.7526	1143.2615	1160.3974	1226.1735	1269.0758	1287.0902	1306.3813	1326.4051	1343.6305	1388.8569	1411.7922	1416.5384	1477.3132	1484.7859	1491.8177	1498.5252	1508.9177	1516.8834	3004.1967	3013.3154	3020.9293	3028.8485	3036.9826	3059.893	3061.7717	3095.3695	3102.2231	3107.5927	3173.5717	3200.0277
CCCC12CC1OC2	CCC[C@]12C[C@H]1OC2	
InChI=1S/C7H12O/c1-2-3-7-4-6(7)8-5-7/h6H,2-5H2,1H3	InChI=1S/C7H12O/c1-2-3-7-4-6(7)8-5-7/h6H,2-5H2,1H3/t6-,7-/m1/s1
