18
gdb 36035	3.68682	1.07196	0.93228	2.0673	77.22	-0.2462	0.0391	0.2853	1266.6665	0.146069	-401.860578	-401.851648	-401.850704	-401.894627	33.187	
C	 0.058030465	-1.3654674928	 0.1460354676	-0.429624
C	 0.0065682714	-0.1844857424	 0.3676676451	 0.269529
C	-0.0277826504	 1.2522624838	 0.6034457363	-0.420915
C	 1.2182604042	 2.0036379517	 0.116521395	 0.289985
C	 2.5562485239	 1.364834737	 0.1773163448	-0.273943
N	 1.8835315326	 1.58202134	-1.1188379979	-0.342786
C	 1.0968548638	 3.4856088724	 0.3259209778	 0.000387
C	 1.4980145104	 4.455721851	-0.696164705	-0.166298
O	 0.1157665048	 4.1551244223	-0.4740506756	-0.245798
H	 0.0821119164	-2.4118654424	-0.0344600276	 0.20246
H	-0.8977876061	 1.6875634982	 0.0952715908	 0.159734
H	-0.1687313476	 1.4494833611	 1.6745371111	 0.137097
H	 3.4388927493	 1.9768656725	 0.3413372863	 0.115705
H	 2.6157789545	 0.3507567798	 0.5616955737	 0.125934
H	 1.4781604408	 0.7028252487	-1.435449257	 0.238233
H	 1.0982187602	 3.7989599719	 1.3722948328	 0.091572
H	 1.8100058021	 5.4542222965	-0.3926383691	 0.108945
H	 1.9087934047	 4.0797944906	-1.6288829891	 0.139781
62.3016	80.3281	136.2068	202.2672	251.189	311.7239	345.6236	365.9452	439.4117	476.9611	614.7962	619.4604	657.1947	712.3907	829.5985	858.6614	871.7293	925.7447	936.5858	975.1123	988.3604	995.492	1054.4931	1084.5293	1116.3782	1137.0575	1158.1383	1176.8692	1229.7393	1268.4725	1280.9367	1301.1764	1329.1945	1389.441	1450.8979	1472.5007	1506.068	1519.3161	2234.5421	3019.3644	3053.2378	3084.0386	3094.8559	3111.7829	3198.2949	3201.0501	3484.3927	3502.9172
C#CCC1(CN1)C1CO1	C#CC[C@]1(CN1)[C@H]1CO1	
InChI=1S/C7H9NO/c1-2-3-7(5-8-7)6-4-9-6/h1,6,8H,3-5H2	InChI=1S/C7H9NO/c1-2-3-7(5-8-7)6-4-9-6/h1,6,8H,3-5H2/t6-,7+/m1/s1
