14
gdb 132665	3.14084	1.31701	0.92792	1.6508	68.32	-0.2045	-0.0046	0.1999	1142.3323	0.100783	-481.853416	-481.845914	-481.84497	-481.885092	29.431	
O	 0.0337474615	 1.3741716727	-0.0810126277	-0.447464
C	 0.0479088408	 0.0093532834	-0.0320424866	 0.407656
C	 0.0093783726	-0.6849725808	-1.2416317138	-0.187985
C	 0.0214767376	-2.0754615266	-1.2550446873	-0.187232
C	 0.0720670197	-2.7983464314	-0.0663746361	 0.249696
O	 0.0838846335	-4.1614824761	-0.080847194	-0.445668
C	 0.1097850799	-2.0818837977	 1.1268281909	 0.196182
F	 0.1586742486	-2.7932208673	 2.2725432099	-0.10028
C	 0.0988751823	-0.6985438078	 1.1704687853	-0.410097
H	 0.0636507117	 1.724562905	 0.8146879202	 0.29767
H	-0.0299817661	-0.1216865898	-2.1661029809	 0.108865
H	-0.008256868	-2.6214843319	-2.1909468425	 0.11497
H	 0.1204708642	-4.4638460232	 0.8343473182	 0.300868
H	 0.1300324018	-0.1991601886	 2.1333076744	 0.102819
155.2087	240.5774	294.4505	316.5433	336.6115	371.6445	395.2001	456.4901	461.9088	508.9696	598.6383	621.4195	701.6282	743.5754	806.7949	822.5903	842.5161	935.4708	971.8761	1109.8347	1175.3093	1189.3447	1212.7408	1264.7845	1335.8846	1347.9808	1410.1136	1498.0212	1555.2115	1653.1165	1677.2437	3183.3213	3196.6062	3211.9306	3803.8538	3831.3552
OC1=CC=C(O)C(F)=C1	Oc1ccc(O)c(F)c1	
InChI=1S/C6H5FO2/c7-5-3-4(8)1-2-6(5)9/h1-3,8-9H	InChI=1S/C6H5FO2/c7-5-3-4(8)1-2-6(5)9/h1-3,8-9H
