18
gdb 18370	3.08668	2.30319	1.62002	2.6983	65.96	-0.2453	0.0633	0.3085	832.1933	0.156336	-384.935219	-384.928421	-384.927477	-384.966083	27.001	
O	 0.0234516085	 1.3529297877	-0.1148392993	-0.444238
C	 0.0523566009	-0.0465516497	 0.0471878128	 0.149315
C	 0.5753991778	-0.5339659116	 1.4189058143	-0.249189
C	-0.0155750797	-1.9472011317	 1.5733534558	-0.232363
C	-1.4115279244	-1.8556370046	 0.9325490262	-0.068557
C	-2.4449976965	-0.9855910649	 1.6798203148	-0.079043
O	-2.2865678322	 0.1066638901	 0.7413609166	-0.312244
C	-1.3507552665	-0.6658465642	-0.0567932068	 0.093603
H	-0.7512646393	 1.6497959926	 0.3827202358	 0.287068
H	 0.6848709539	-0.4448239277	-0.7560870452	 0.082497
H	 1.6654285134	-0.5079486561	 1.4849865215	 0.102196
H	 0.1874501546	 0.1364067764	 2.1949275524	 0.104535
H	 0.5905041797	-2.6742924587	 1.0200427589	 0.103396
H	-0.0519409116	-2.287704174	 2.6131372067	 0.10108
H	-1.7918121052	-2.8090666895	 0.5655894546	 0.077111
H	-3.4727794186	-1.3669523484	 1.6719906031	 0.105477
H	-2.1797503818	-0.6928117128	 2.7035065239	 0.102804
H	-1.710918043	-0.787608873	-1.0825793261	 0.076554
112.1101	194.9969	254.3803	345.5116	388.7485	492.5827	524.9066	585.0413	631.9297	783.785	834.937	849.951	886.1592	897.282	945.0513	957.6235	969.6055	1014.198	1071.134	1075.8832	1105.807	1115.2375	1160.3997	1172.6433	1195.9861	1243.8554	1252.4467	1286.2904	1299.5775	1311.3945	1336.0395	1345.1506	1364.6315	1371.507	1442.314	1485.2462	1494.5616	1523.7037	3015.4122	3031.4262	3036.1533	3044.5875	3060.1757	3066.465	3081.0012	3106.6223	3110.4888	3748.6628
OC1CCC2COC12	O[C@H]1CC[C@H]2CO[C@@H]12	
InChI=1S/C6H10O2/c7-5-2-1-4-3-8-6(4)5/h4-7H,1-3H2	InChI=1S/C6H10O2/c7-5-2-1-4-3-8-6(4)5/h4-7H,1-3H2/t4-,5-,6+/m0/s1
