15
gdb 56069	5.49608	0.65213	0.59857	5.9519	68.66	-0.2611	-0.0231	0.238	1741.8875	0.110141	-491.126908	-491.117222	-491.116278	-491.163043	32.443	
N	 0.0267863784	 1.2049972678	 0.0672123062	-0.513401
C	-0.0637284565	-0.1305044715	 0.303477143	 0.414797
O	 0.7856788968	-0.7617893974	 0.8994629061	-0.35259
C	-1.3032205948	-0.8134850703	-0.3110081299	-0.280716
N	-1.8707726029	-1.805685422	 0.5777519528	-0.206716
C	-1.1816508621	-2.8301551407	 0.8038264036	 0.152885
O	-1.6685290985	-3.7664127202	 1.6755108109	-0.155763
C	-0.8941473637	-4.8585017133	 1.9347443618	 0.183397
O	-1.252494583	-5.7239125615	 2.6677304582	-0.254034
H	 0.8121508266	 1.7040089231	 0.4535360734	 0.268328
H	-0.7432438809	 1.734778462	-0.3013136031	 0.266362
H	-2.0762013172	-0.0788355651	-0.5538752065	 0.113774
H	-0.9632759032	-1.247275387	-1.2637371985	 0.135712
H	-0.2053954978	-3.0710606995	 0.3753999124	 0.125577
H	 0.0719379187	-4.8378309643	 1.4000202097	 0.102388
44.8968	59.5238	88.5986	138.5686	165.5341	212.1307	256.4164	335.401	356.5844	425.8093	499.3561	529.5408	617.3916	686.4498	753.9086	839.2861	961.5872	992.6709	1038.1261	1062.2338	1102.2031	1162.9118	1183.8143	1244.2141	1305.253	1387.244	1399.2668	1447.1006	1486.5218	1620.802	1756.5069	1804.1183	1892.6952	2984.3394	2997.0894	3078.7855	3092.7387	3600.708	3735.9444
NC(=O)CN=COC=O	NC(=O)CN=COC=O	
InChI=1S/C4H6N2O3/c5-4(8)1-6-2-9-3-7/h2-3H,1H2,(H2,5,8)	InChI=1S/C4H6N2O3/c5-4(8)1-6-2-9-3-7/h2-3H,1H2,(H2,5,8)
