16
gdb 9014	4.34135	0.93422	0.80415	2.719	70.05	-0.2526	-0.0382	0.2144	1391.5795	0.12726	-383.726395	-383.716989	-383.716045	-383.762665	31.648	
C	 0.2138367908	 1.0340261336	 1.0520281772	-0.497567
C	 0.0007005289	-0.1345869949	 0.2097929137	 0.07152
C	-0.1621359503	-1.0949791147	-0.4986569412	 0.045455
C	-0.3938035648	-2.2643501318	-1.336934884	-0.375206
C	-1.578811127	-3.1434513437	-0.8526335044	 0.054218
O	-1.842240598	-4.1523669562	-1.7833386152	-0.428436
C	-1.289437689	-3.745098074	 0.5087652892	 0.139308
O	-1.3310872882	-4.9396737636	 0.6870450084	-0.263857
H	 1.0711862581	 0.8939644878	 1.7193988802	 0.150643
H	 0.4056137265	 1.9277696007	 0.4482781726	 0.152416
H	-0.6624745235	 1.2392798956	 1.676613393	 0.149643
H	-0.6280192684	-1.963685808	-2.3642191458	 0.14944
H	 0.5039015072	-2.8920829317	-1.3960513953	 0.13723
H	-2.4532949634	-2.4806695525	-0.7294241891	 0.105593
H	-1.7915126836	-4.9847308627	-1.28555474	 0.294717
H	-1.0367588653	-3.0365311339	 1.3193912606	 0.114883
15.0907	61.8956	91.1723	130.7578	220.327	252.5488	322.153	343.4851	393.1997	400.6131	485.5641	496.5093	726.391	782.4562	834.8271	878.1422	1019.1308	1051.5639	1054.0645	1070.7667	1150.3762	1169.8694	1190.6641	1283.5233	1305.8828	1351.1107	1390.4166	1415.4979	1444.9876	1476.2857	1477.8054	1478.7523	1808.1934	2371.2792	2955.2649	2973.9252	3028.1432	3031.7057	3070.538	3089.3197	3089.9136	3676.4542
CC#CCC(O)C=O	CC#CC[C@@H](O)C=O	
InChI=1S/C6H8O2/c1-2-3-4-6(8)5-7/h5-6,8H,4H2,1H3	InChI=1S/C6H8O2/c1-2-3-4-6(8)5-7/h5-6,8H,4H2,1H3/t6-/m1/s1
