14
gdb 6310	3.90615	1.25172	1.10093	3.5706	59.21	-0.2902	0.0114	0.3016	1067.4538	0.105966	-415.917466	-415.908806	-415.907862	-415.951699	29.856	
C	-0.0049568279	 1.5893229734	 0.0225485468	-0.401986
C	 0.0073476717	 0.0617489662	-0.0423913204	-0.01421
O	 0.6708719925	-0.3901315588	-1.2324133069	-0.266208
C	-0.1586751384	-0.6816470199	-2.281153815	 0.517051
N	 0.5851230583	-1.0645592618	-3.3506898063	-0.56301
O	-1.3620030202	-0.5800974376	-2.2509256128	-0.393279
C	 0.7226268947	-0.5327592327	 1.0953200856	 0.28213
N	 1.26633973	-0.9772221872	 2.0119997284	-0.314791
H	 1.0124543587	 1.983512311	-0.028104015	 0.144767
H	-0.5875714814	 1.973514557	-0.8176010585	 0.149506
H	-0.4678681779	 1.9230932094	 0.9548848494	 0.143921
H	-1.018542459	-0.3185457413	-0.0571576779	 0.164043
H	 1.556757365	-1.2906751312	-3.2255022909	 0.27475
H	 0.0911474739	-1.4557476465	-4.1334860268	 0.277317
28.8928	87.0733	172.2532	189.6628	236.2202	290.3103	322.7528	384.0489	438.5137	525.2888	568.2003	581.5831	651.6946	778.1169	848.7608	880.715	1012.7288	1074.8719	1111.1091	1122.6144	1142.3066	1324.6545	1355.4659	1389.2197	1407.3074	1486.9095	1492.9798	1611.569	1839.5296	2368.1883	3055.8288	3079.1829	3136.6904	3145.5589	3620.3756	3752.6854
CC(OC(N)=O)C#N	C[C@@H](OC(=O)N)C#N	
InChI=1S/C4H6N2O2/c1-3(2-5)8-4(6)7/h3H,1H3,(H2,6,7)	InChI=1S/C4H6N2O2/c1-3(2-5)8-4(6)7/h3H,1H3,(H2,6,7)/t3-/m1/s1
