19
gdb 104065	2.56169	1.57186	1.22224	1.8888	69.99	-0.2354	0.055	0.2904	1064.4781	0.159245	-460.119446	-460.111066	-460.110122	-460.152739	32.378	
O	 0.547270145	 0.2540799827	 0.5029708196	-0.43775
C	-0.2805425642	 0.2188167807	-0.6559680436	-0.131101
C	-1.6751469696	-0.2567146015	-0.2735576817	 0.389601
O	-2.2667526278	 0.6353722453	 0.6451493459	-0.482398
C	-2.6508817547	-0.6032620856	-1.4349259458	-0.30742
C	-2.6441396178	-2.0949964065	-1.0141023364	-0.070799
C	-1.4301507397	-2.9262711079	-1.4801283559	-0.08648
O	-0.6538498567	-2.5605866046	-0.3072692745	-0.300651
C	-1.7377042661	-1.7525612733	 0.1962687614	 0.034433
H	 0.7833819459	-0.6621415057	 0.6912032723	 0.298778
H	-0.3446953996	 1.24608894	-1.0303610503	 0.11366
H	 0.1542299377	-0.4113291815	-1.4394821581	 0.100063
H	-1.5683876468	 0.854288416	 1.277989804	 0.282862
H	-3.6180193554	-0.1241657009	-1.2711923301	 0.124794
H	-2.3065676083	-0.3755225108	-2.4484124703	 0.097386
H	-3.5985053045	-2.613123064	-0.9422340406	 0.083727
H	-1.5940601579	-4.0093218724	-1.5134490006	 0.110806
H	-0.9508633012	-2.6070631446	-2.4146132732	 0.102011
H	-1.9648222684	-1.9333897455	 1.2498205479	 0.07848
48.7821	115.35	191.9735	278.0254	294.7803	357.2895	389.0554	416.4735	449.9751	527.7331	538.3545	681.671	777.5598	792.7648	856.9922	879.6001	907.9375	925.0327	954.4075	996.4925	1012.9381	1041.2082	1046.2733	1060.7536	1119.2366	1149.6329	1162.9083	1186.1115	1214.8946	1234.0005	1242.3859	1262.853	1304.379	1320.3652	1354.3118	1369.6347	1405.2309	1418.9588	1467.5002	1486.19	1520.3068	3014.1551	3038.6988	3054.9308	3063.0042	3082.3424	3090.218	3120.458	3130.7638	3749.9732	3795.796
OCC1(O)CC2COC12	OC[C@@]1(O)C[C@H]2CO[C@@H]12	
InChI=1S/C6H10O3/c7-3-6(8)1-4-2-9-5(4)6/h4-5,7-8H,1-3H2	InChI=1S/C6H10O3/c7-3-6(8)1-4-2-9-5(4)6/h4-5,7-8H,1-3H2/t4-,5+,6-/m0/s1
