17
gdb 85148	1.94698	1.769	1.07606	1.6358	70.18	-0.2535	-0.0531	0.2004	1127.2784	0.133278	-458.990893	-458.981981	-458.981037	-459.024994	32.664	
C	 0.1306120081	 1.3281820428	 0.2641873082	-0.480492
C	 0.0943723446	-0.1639412568	 0.0372336366	 0.397174
O	 1.0944371207	-0.8564608307	 0.091959866	-0.32984
C	-1.2789416988	-0.7614857374	-0.1861822213	-0.297166
C	-1.3281658807	-2.2868591728	-0.5678147724	 0.141988
O	-0.2361855335	-2.8614450403	-1.2064267643	-0.434219
C	-1.6192156405	-2.6540215625	 0.9273845797	-0.381126
C	-1.8908367299	-1.1789196326	 1.1917129272	 0.402851
O	-2.4186864146	-0.5450964267	 2.0555968708	-0.286906
H	 1.1329715944	 1.6409857448	 0.5582555903	 0.148088
H	-0.165736531	 1.852323621	-0.6515866811	 0.149307
H	-0.5975776061	 1.5986389113	 1.0376447723	 0.16593
H	-1.9136377282	-0.0719970653	-0.7485968389	 0.112427
H	-2.2068972198	-2.4835634621	-1.1883097334	 0.105583
H	 0.5556306599	-2.4790561451	-0.7957508721	 0.29937
H	-2.4157538849	-3.3626315596	 1.1634447465	 0.136047
H	-0.6992226899	-2.965216368	 1.4368247459	 0.150984
64.2766	90.8852	131.6693	165.6627	236.003	295.484	382.3004	432.7685	465.2687	476.472	583.9974	603.7439	608.376	683.6357	733.5682	778.7565	893.4994	938.8836	962.3493	981.2869	1020.111	1066.8883	1109.0666	1154.3415	1158.9329	1178.3475	1205.785	1253.3448	1311.6456	1353.5634	1386.0874	1426.8737	1463.0891	1472.0829	1475.8803	1765.1365	1890.5294	3035.181	3050.2508	3072.3685	3087.6529	3098.3824	3123.7355	3155.3551	3678.8178
CC(=O)C1C(O)CC1=O	CC(=O)[C@H]1[C@@H](O)CC1=O	
InChI=1S/C6H8O3/c1-3(7)6-4(8)2-5(6)9/h4,6,8H,2H2,1H3	InChI=1S/C6H8O3/c1-3(7)6-4(8)2-5(6)9/h4,6,8H,2H2,1H3/t4-,6-/m0/s1
