18
gdb 31967	3.25609	1.0737	0.87088	2.6203	76.11	-0.2134	0.0158	0.2292	1367.5083	0.14706	-439.115937	-439.106731	-439.105787	-439.151291	32.191	
C	 0.1877806308	 1.5679690764	-0.0629101618	-0.378218
C	 0.0125416054	 0.0464294169	 0.0795509793	-0.285174
C	 0.6548929747	-0.5104931241	 1.3018375495	 0.390851
N	 0.1097205831	-1.1123269039	 2.3075864167	-0.299919
C	 1.1653137731	-1.4388861989	 3.1567352104	-0.230632
C	 2.3166164611	-0.9902908238	 2.6056795092	 0.383
O	 3.5785913886	-0.9640567926	 3.0335775374	-0.266678
C	 4.573840546	-1.3516064931	 2.0788785795	-0.25438
O	 2.0171284415	-0.3879713451	 1.4116766518	-0.224974
H	 1.2468438337	 1.8371687735	-0.1031525915	 0.129501
H	-0.2898465736	 1.9237755126	-0.9802612252	 0.117787
H	-0.2633253786	 2.0934109378	 0.783882407	 0.130427
H	-1.0463123196	-0.2176061717	 0.135495315	 0.135654
H	 0.4259333399	-0.4525353926	-0.8063105781	 0.117858
H	 1.0238842531	-1.9584075275	 4.0892571628	 0.122508
H	 4.5917723064	-0.6632617506	 1.2290276705	 0.141226
H	 5.5275746132	-1.3117059374	 2.6059467332	 0.141778
H	 4.3895167114	-2.3712397058	 1.7214238942	 0.129385
39.229	59.9296	127.5315	161.5729	165.4418	222.4129	329.771	337.874	435.0065	500.6114	612.0389	685.1249	707.8175	750.7007	793.7206	819.7169	954.2323	979.0235	985.1406	1046.5041	1072.956	1089.6486	1140.9682	1174.2384	1197.7307	1235.1874	1281.5042	1295.7317	1343.9015	1368.5273	1408.8836	1471.3647	1473.3719	1487.7294	1498.1759	1503.6899	1506.6917	1627.6261	1676.6764	3028.756	3029.9369	3044.3117	3102.6861	3104.8556	3117.4365	3126.3369	3150.5174	3278.9032
CCC1=NC=C(OC)O1	CCc1ncc(OC)o1	
InChI=1S/C6H9NO2/c1-3-5-7-4-6(8-2)9-5/h4H,3H2,1-2H3	InChI=1S/C6H9NO2/c1-3-5-7-4-6(8-2)9-5/h4H,3H2,1-2H3
