20
gdb 86410	2.53091	1.50219	1.29214	2.961	74.43	-0.238	0.058	0.296	1074.842	0.172605	-440.26818	-440.259954	-440.25901	-440.300773	33.068	
O	-0.6309726266	 0.8765565249	 1.2276351454	-0.435271
C	-0.0446735126	 0.1162874732	 0.1569484502	 0.088818
C	 0.9649898582	-0.9038358425	 0.7084095559	-0.268692
C	 0.0673381574	-1.953497022	 1.3918123192	 0.049098
O	-0.2784893128	-1.5859723415	 2.7214210725	-0.44183
C	-1.1744919484	-2.0073670278	 0.4743270541	 0.343724
C	-1.7739202753	-3.3076804238	 0.0840211868	-0.306108
N	-2.4528789313	-2.4326292285	 1.0520651754	-0.350416
C	-1.152538252	-0.7685788476	-0.4278529778	-0.279959
H	 0.0629265379	 1.4221658628	 1.6136338772	 0.28717
H	 0.3872306788	 0.7966820941	-0.5872964812	 0.068026
H	 1.5178280362	-1.3577988288	-0.1228265332	 0.103294
H	 1.6904301695	-0.4708169824	 1.4038576179	 0.096485
H	 0.5570473653	-2.9271015191	 1.4805288927	 0.078175
H	-0.6799827281	-0.7073439048	 2.6525331218	 0.283548
H	-2.279665474	-3.4068327622	-0.8741332959	 0.110633
H	-1.2976774814	-4.2197248427	 0.4376699983	 0.107464
H	-2.281706792	-2.7488320442	 2.0054625911	 0.236556
H	-2.1162058564	-0.2555813403	-0.4368725411	 0.128102
H	-0.8950655625	-1.0359217368	-1.4585614993	 0.101185
64.8105	186.4514	255.7596	274.5397	331.9756	365.5221	393.9338	401.6039	421.266	520.1762	550.051	622.6506	773.9061	801.2606	818.0917	838.6746	885.8181	921.5015	934.9807	954.6068	972.7503	990.8796	1000.6016	1052.2076	1074.6085	1098.9403	1144.1416	1163.0626	1189.2973	1232.1078	1241.2982	1269.0993	1286.354	1301.5685	1317.7247	1333.4413	1357.5795	1405.1162	1416.6244	1459.8311	1466.8499	1479.8844	1513.0134	3021.6122	3039.0964	3052.4334	3074.1933	3091.6758	3092.5033	3118.8041	3174.2219	3480.6352	3727.2685	3808.0121
OC1CC(O)C2(CN2)C1	O[C@H]1C[C@@H](O)[C@]2(CN2)C1	
InChI=1S/C6H11NO2/c8-4-1-5(9)6(2-4)3-7-6/h4-5,7-9H,1-3H2	InChI=1S/C6H11NO2/c8-4-1-5(9)6(2-4)3-7-6/h4-5,7-9H,1-3H2/t4-,5+,6+/m0/s1
