21
gdb 88023	2.23947	1.36304	1.07781	0.6212	89.19	-0.2515	0.0469	0.2984	1244.4086	0.181016	-349.902678	-349.893318	-349.892374	-349.936667	35.945	
C	-0.0735516828	 1.5137043138	-0.0418911537	-0.408685
C	 0.0445828676	 0.0074462063	 0.01670622	-0.048626
C	 1.3832614337	-0.6682639606	-0.1925940869	-0.362686
C	 0.7357384969	-0.6812502038	 1.1596796601	 0.350441
C	 1.1875429654	-0.0417974936	 2.4788954634	-0.307906
C	 0.2797258911	-1.0534649946	 3.2326902249	-0.224882
C	 0.1779615418	-1.9097509606	 1.9246297837	-0.239972
C	-1.1074934655	-2.4559693947	 1.5429972966	 0.321984
C	-2.1806251384	-2.8898046197	 1.2134235203	-0.456286
H	 0.8193436527	 2.0004019035	 0.363887942	 0.113561
H	-0.1934475842	 1.8566619055	-1.0753853332	 0.117732
H	-0.9374802287	 1.8720862772	 0.5294983035	 0.116495
H	-0.8143340239	-0.5302734886	-0.3783935057	 0.095902
H	 1.4147732994	-1.5965424891	-0.755231359	 0.111005
H	 2.2552002505	-0.0338634549	-0.3285918155	 0.105705
H	 2.2517279051	-0.1989834277	 2.6825886993	 0.102041
H	 0.9613013381	 1.0176259026	 2.6220845731	 0.104052
H	 0.6980882982	-1.5563838852	 4.1064227912	 0.103524
H	-0.688301019	-0.6236572653	 3.4967221063	 0.115129
H	 0.9276210345	-2.7102946064	 1.9420914953	 0.098852
H	-3.1264248126	-3.2818323639	 0.9323842343	 0.192618
74.4707	109.6452	150.0578	187.9492	218.2197	235.9524	324.1711	402.5953	439.1539	484.6002	545.1914	556.894	611.8941	627.6614	699.0631	778.2408	790.0976	866.0912	895.0739	905.2354	938.7903	950.226	1009.388	1043.8516	1058.113	1087.3569	1103.6863	1113.7946	1130.9135	1181.6984	1192.2849	1229.4719	1236.133	1264.6267	1266.4739	1333.4069	1344.3948	1406.6206	1426.1308	1480.2767	1488.6732	1493.2247	1500.6817	1505.7755	2228.231	3025.8976	3026.5673	3047.9948	3074.786	3087.1093	3094.455	3098.8486	3112.9504	3133.9775	3136.9717	3196.9672	3503.9241
CC1CC11CCC1C#C	C[C@H]1C[C@]21CC[C@H]2C#C	
InChI=1S/C9H12/c1-3-8-4-5-9(8)6-7(9)2/h1,7-8H,4-6H2,2H3	InChI=1S/C9H12/c1-3-8-4-5-9(8)6-7(9)2/h1,7-8H,4-6H2,2H3/t7-,8+,9-/m0/s1
