19
gdb 41883	2.997	1.58472	1.13793	2.0445	76.28	-0.2411	0.0144	0.2556	1076.778	0.161369	-423.005682	-422.998242	-422.997298	-423.03761	29.35	
C	-0.0243471869	 1.3831347316	-0.3417404787	-0.106126
O	 1.2545718507	 1.6910227632	 0.2540015946	-0.297799
C	 1.4089174222	 0.3381425313	 0.7459058645	 0.117049
C	 1.3909388747	 0.2353707167	 2.2681991464	-0.271257
C	 1.2816152279	-1.2071752411	 2.7131941041	-0.083685
C	 0.3526639852	-2.0780399664	 2.3162184912	-0.038577
C	-0.804590537	-1.8342603981	 1.382751932	-0.137616
O	-0.9486442228	-0.5037522055	 0.9204716333	-0.243445
C	 0.0840041923	-0.0933360285	 0.0644356278	 0.066146
H	-0.8546800284	 1.9066736095	 0.1465662986	 0.112558
H	-0.0383218978	 1.5922288332	-1.4172043038	 0.103789
H	 2.3140290456	-0.1275047778	 0.3360779824	 0.074545
H	 2.3006187863	 0.6917841301	 2.6698285904	 0.104572
H	 0.5459796046	 0.8216890023	 2.6434841526	 0.124743
H	 2.0410673268	-1.5613610422	 3.4056634717	 0.092217
H	 0.3924433095	-3.0976535225	 2.6976831737	 0.089841
H	-0.733244926	-2.5278170617	 0.5241675706	 0.098482
H	-1.7447152432	-2.0748600658	 1.8952974342	 0.121308
H	 0.2048074563	-0.8026858384	-0.7658411755	 0.073256
92.0303	169.9561	261.8359	292.9588	316.8058	395.7991	440.0699	445.0808	611.5239	695.6803	744.6749	791.5672	832.2581	870.1309	904.5356	957.1403	972.1078	1002.1643	1010.6415	1024.6546	1040.1231	1066.4835	1110.1857	1113.1815	1158.5993	1193.8062	1201.4673	1249.5914	1266.9706	1272.3155	1297.466	1322.9353	1350.6759	1375.3893	1393.951	1416.7594	1418.7738	1479.8336	1486.6329	1516.406	1726.4273	2934.4302	3002.6648	3022.2694	3030.9493	3040.6102	3050.9247	3075.4585	3092.2206	3131.9175	3161.8584
C1OC2CC=CCOC12	C1O[C@H]2CC=CCO[C@@H]12	
InChI=1S/C7H10O2/c1-2-4-8-7-5-9-6(7)3-1/h1-2,6-7H,3-5H2	InChI=1S/C7H10O2/c1-2-4-8-7-5-9-6(7)3-1/h1-2,6-7H,3-5H2/t6-,7-/m0/s1
