19
gdb 70988	3.23098	1.60076	1.46513	1.8538	80.62	-0.2246	-0.0047	0.2199	988.3662	0.158419	-385.764929	-385.757491	-385.756547	-385.796045	31.347	
C	-0.0022028525	 1.5836384838	-0.0703146797	-0.511582
C	-0.0676245537	 0.0867810464	 0.0353838765	 0.292629
O	 0.9682965252	-0.6331270803	-0.8077150288	-0.39416
C	 0.5845414421	-1.7556151664	 0.1087624207	 0.35776
C	 1.1518696942	-2.8250957032	 1.076398822	-0.328812
C	 0.3175849883	-2.0138118317	 2.1823800078	-0.291443
C	 0.5255592276	-0.77555458	 1.2382048099	-0.022507
C	-0.8886939457	-1.9506945735	-0.2993872419	-0.147603
C	-1.3309921246	-0.6953656369	-0.3411812812	-0.098594
H	 0.9823617584	 1.9508386842	 0.2298412741	 0.13075
H	-0.1889994967	 1.9043593086	-1.1001399085	 0.134464
H	-0.7588308241	 2.0403367225	 0.5757889283	 0.124778
H	 0.8906172924	-3.8721654901	 0.897934566	 0.10362
H	 2.2246726239	-2.7318726435	 1.2546025676	 0.123365
H	-0.7116372898	-2.3730795822	 2.2359330074	 0.120953
H	 0.7479952015	-1.9522462474	 3.1839351814	 0.104971
H	 1.5298943141	-0.3850033048	 1.4306720946	 0.088701
H	-1.3854667413	-2.891082996	-0.4927282334	 0.103643
H	-2.2968845991	-0.2798273396	-0.5902724927	 0.109066
190.78	229.2105	246.7477	284.5272	350.0392	403.6921	503.8031	549.4865	573.7459	626.4065	658.8997	676.0839	719.5367	751.7687	799.519	831.5644	854.1196	860.5529	888.3436	898.4322	987.7591	1026.1918	1059.7081	1069.7728	1073.9282	1119.9534	1123.2604	1164.1205	1188.4587	1206.8892	1213.7185	1231.5383	1309.3468	1317.2541	1389.672	1412.8918	1470.8312	1476.8814	1482.1732	1491.8795	1626.0842	3040.2645	3054.5819	3059.338	3072.9426	3109.5054	3122.9507	3127.1581	3143.0028	3219.6273	3248.8441
CC12OC3(CCC13)C=C2	C[C@@]12O[C@]3(CC[C@H]13)C=C2	
InChI=1S/C8H10O/c1-7-4-5-8(9-7)3-2-6(7)8/h4-6H,2-3H2,1H3	InChI=1S/C8H10O/c1-7-4-5-8(9-7)3-2-6(7)8/h4-6H,2-3H2,1H3/t6-,7+,8-/m1/s1
