19
gdb 89678	2.98727	1.28953	1.08464	3.442	77.87	-0.2421	-0.0249	0.2172	1156.7422	0.157252	-423.015786	-423.006611	-423.005666	-423.049384	34.254	
C	-0.0324232348	 1.4200758507	 0.2571847249	-0.505719
C	 0.0167008941	-0.0645663264	 0.0477076312	 0.316225
C	-0.8418322881	-1.0178526835	 0.7979168646	-0.36078
C	 0.6521806481	-1.1572764112	 0.9949436043	 0.205073
C	 1.2657973686	-1.8716283438	-0.208747467	-0.353448
C	 0.6655230525	-0.766915687	-1.1463814022	 0.060608
O	-0.2687640932	-1.153476888	-2.1293661862	-0.431664
C	 1.2987290116	-0.8451963304	 2.2723564107	 0.052246
O	 0.792035117	-0.191753683	 3.1596131526	-0.280682
H	 0.8936578288	 1.9029790577	-0.0728705306	 0.116027
H	-0.8616863635	 1.8625448094	-0.3068977741	 0.132445
H	-0.1783129385	 1.6527692345	 1.3159679828	 0.150173
H	-1.3612596619	-0.5959291876	 1.6515106268	 0.139996
H	-1.3638494338	-1.8148907679	 0.2765463064	 0.126112
H	 2.3591557951	-1.8829452009	-0.2097633175	 0.105095
H	 0.8935850227	-2.8846556224	-0.3920325973	 0.101774
H	 1.4612370395	-0.1445122015	-1.5780382895	 0.073198
H	 0.2048149413	-1.596442096	-2.8408956355	 0.286802
H	 2.3404806943	-1.2284387227	 2.3711117255	 0.066519
98.0022	128.0897	178.1397	193.4624	209.5953	278.8245	293.7042	311.191	357.5672	440.3812	517.5983	557.0943	661.0462	697.6483	724.6834	815.9384	857.2836	961.2869	975.4757	984.6744	995.6612	1042.122	1071.1892	1090.7149	1106.943	1153.5432	1168.6032	1204.278	1236.766	1269.5416	1287.7986	1345.4185	1385.7854	1417.0662	1429.6453	1435.9755	1472.7552	1489.5977	1494.3106	1497.6961	1781.3677	2863.5371	3004.7523	3028.1239	3044.4214	3088.2001	3102.281	3114.304	3124.2499	3222.0352	3815.3388
CC12CC1(CC2O)C=O	C[C@]12C[C@]1(C[C@H]2O)C=O	
InChI=1S/C7H10O2/c1-6-3-7(6,4-8)2-5(6)9/h4-5,9H,2-3H2,1H3	InChI=1S/C7H10O2/c1-6-3-7(6,4-8)2-5(6)9/h4-5,9H,2-3H2,1H3/t5-,6-,7-/m1/s1
