21
gdb 117367	4.46002	0.74078	0.71692	3.3349	80.98	-0.2378	0.0606	0.2984	1693.6075	0.182375	-420.433589	-420.423419	-420.422475	-420.469838	36.609	
C	-0.3860770636	 1.0820651284	-0.6845914716	-0.374029
C	 0.3652460382	 0.0731358395	 0.1886130557	-0.134034
N	 1.3452093449	-0.7246599998	-0.5374622306	-0.365016
C	 0.9212805095	-1.8202251657	-1.2680452256	 0.488415
O	-0.2082520039	-2.2703967183	-1.2064534969	-0.402791
N	 1.9127913563	-2.3658681888	-2.0751951863	-0.378811
C	 1.6752647272	-3.6283895471	-2.7129427524	 0.069541
C	 0.9513330955	-3.6394600421	-4.0294367776	-0.232837
C	 2.4343034287	-3.9128192752	-3.981800172	-0.297491
H	 0.3030405623	 1.791174655	-1.1571827145	 0.103676
H	-0.9399542915	 0.5607017218	-1.4695991753	 0.142763
H	-1.0983075099	 1.6567097492	-0.08321918	 0.114316
H	 0.8861507868	 0.5840282327	 1.0058798544	 0.097231
H	-0.3412943418	-0.6311028207	 0.6325608467	 0.141977
H	 2.1468173083	-0.2264292308	-0.8946927712	 0.230214
H	 2.8640102599	-2.2026399339	-1.7773693106	 0.233587
H	 1.4822477456	-4.4658847226	-2.0458375515	 0.097874
H	 0.273723298	-4.4621347954	-4.2245925893	 0.118245
H	 0.6293192421	-2.6811665734	-4.4179249034	 0.120595
H	 3.0980974085	-3.1377842698	-4.3492574667	 0.111232
H	 2.7872654389	-4.9244200332	-4.1464345711	 0.115342
51.3925	59.5856	76.9481	126.969	141.7137	229.4478	308.6486	321.3737	371.3781	420.1218	464.9606	488.0707	533.5294	712.4528	765.7455	771.6484	806.5909	835.5629	853.6874	906.1228	941.9414	1013.1919	1027.4524	1061.5917	1077.6446	1090.0192	1124.9012	1145.3999	1162.5263	1193.8971	1206.028	1235.0211	1268.577	1329.9161	1391.9591	1403.8177	1408.8364	1461.5772	1469.891	1480.1687	1493.6039	1501.5667	1504.4892	1540.5625	1788.6286	3032.3182	3046.8313	3093.917	3118.0217	3121.1575	3129.7592	3137.2039	3150.5574	3220.5177	3241.3006	3587.5288	3605.2915
CCNC(=O)NC1CC1	CCNC(=O)NC1CC1	
InChI=1S/C6H12N2O/c1-2-7-6(9)8-5-3-4-5/h5H,2-4H2,1H3,(H2,7,8,9)	InChI=1S/C6H12N2O/c1-2-7-6(9)8-5-3-4-5/h5H,2-4H2,1H3,(H2,7,8,9)
