21
gdb 71620	2.81038	1.70398	1.5615	1.2413	80.54	-0.2473	0.079	0.3263	974.0096	0.186235	-387.096752	-387.089692	-387.088748	-387.127606	30.43	
O	-0.0663558986	 1.394463134	-0.0148747082	-0.493697
C	 0.0107228089	 0.0028947071	 0.0233181526	 0.416012
C	 0.3509663891	-0.8049179608	 1.3143191172	-0.303944
C	-0.4085832943	-1.9173546619	 0.5619255753	-0.035326
C	-1.3245249912	-0.8118356468	-0.0470438943	-0.023367
C	-1.8054789898	-1.2697583105	-1.4296603199	-0.251934
C	-0.7935076612	-2.4000147164	-1.7878463615	-0.208682
C	 0.3476702097	-2.1617269971	-0.7821063172	-0.006998
C	 0.8944801859	-0.7196048937	-1.0152422367	-0.291818
H	 0.8252616469	 1.747213171	-0.1069863985	 0.276542
H	 1.4044365858	-0.9584856947	 1.5702470874	 0.0789
H	-0.2018525661	-0.4398361129	 2.1831594399	 0.097897
H	-0.815880401	-2.7919864035	 1.0682573217	 0.060187
H	-2.0827344646	-0.4066250562	 0.6241604902	 0.06867
H	-2.8346419997	-1.6387654645	-1.3974743238	 0.095666
H	-1.7861193347	-0.4499470099	-2.1554563605	 0.105446
H	-1.2444189915	-3.3862589874	-1.6285262185	 0.091567
H	-0.45146031	-2.3602588247	-2.8267700225	 0.09163
H	 1.1106475851	-2.9423495651	-0.7688618689	 0.055782
H	 0.7313458538	-0.3646812165	-2.0374341886	 0.093865
H	 1.9592322075	-0.6121243495	-0.7808500453	 0.083603
219.6087	232.3311	237.9812	359.4113	380.1364	446.3384	476.5461	540.4916	629.5044	698.2639	716.6782	802.5393	821.8587	838.2275	864.1566	896.8929	903.3216	927.2807	963.553	970.0811	992.7848	1008.4998	1046.6665	1062.2935	1074.5843	1115.2597	1126.0676	1147.5694	1169.876	1188.552	1217.5838	1230.6464	1248.4208	1250.0116	1276.1458	1290.5987	1313.7955	1321.4839	1335.8085	1359.7375	1389.2009	1488.1606	1492.552	1505.0273	1521.2464	3034.6316	3036.442	3044.3666	3048.4095	3074.4469	3082.3179	3091.8048	3092.9853	3108.6015	3111.9182	3121.0924	3802.9845
OC12CC3C1CCC3C2	O[C@@]12C[C@H]3[C@@H]1CC[C@H]3C2	
InChI=1S/C8H12O/c9-8-3-5-1-2-7(8)6(5)4-8/h5-7,9H,1-4H2	InChI=1S/C8H12O/c9-8-3-5-1-2-7(8)6(5)4-8/h5-7,9H,1-4H2/t5-,6+,7-,8-/m0/s1
