19
gdb 70386	2.4067	1.53752	1.32738	4.0483	79.15	-0.2492	0.0287	0.2778	1069.8941	0.158539	-382.048173	-382.039242	-382.038297	-382.081242	33.88	
C	 0.0430170559	 1.5407550197	 0.1030087542	-0.500517
C	-0.0258043262	 0.0467134098	-0.0047422488	 0.319697
C	-0.8974634414	-0.7987450725	 0.837051082	-0.293669
N	 0.5611826701	-0.8961077333	 1.0372911885	-0.155176
C	 1.0452430242	-1.7777599395	-0.0739043711	-0.200828
C	 0.5459900793	-0.787283792	-1.1843902721	 0.065274
C	-0.4230001217	-1.2935484815	-2.2610186779	-0.45718
C	 1.6726136909	-0.110977069	-1.8245060854	 0.261795
N	 2.5565086324	 0.4235559519	-2.344455559	-0.35099
H	 1.03133314	 1.915692399	-0.1780313854	 0.151181
H	-0.6984266652	 2.0122447253	-0.5524214019	 0.127594
H	-0.1644005427	 1.8526250837	 1.1302278231	 0.134478
H	-1.4059598206	-0.3028089332	 1.658218867	 0.128339
H	-1.4324924803	-1.6543707686	 0.4317808145	 0.112658
H	 2.1293469261	-1.8837546621	-0.0374406781	 0.13884
H	 0.5794558115	-2.76868532	-0.0933643634	 0.112199
H	-1.2697231122	-1.8128498257	-1.8072238167	 0.125518
H	-0.8074390221	-0.4628843404	-2.8600480033	 0.140323
H	 0.083522772	-1.9895539516	-2.9360712761	 0.140464
126.715	142.3517	173.3529	202.71	216.6688	255.4334	323.1598	351.1214	440.8172	473.8996	535.4665	560.6621	628.838	661.6552	744.1163	844.375	855.7151	905.1052	921.7769	978.3999	989.5486	1035.64	1094.4585	1110.5285	1129.5426	1135.6734	1161.392	1200.9362	1248.5046	1265.5797	1315.9549	1367.9029	1413.3291	1422.3403	1480.8439	1489.2893	1489.7295	1493.4771	1495.0562	1515.7053	2349.3822	3035.3828	3046.0995	3049.3971	3102.3709	3107.2781	3117.6204	3122.8416	3130.8471	3134.7066	3196.9641
CC12CN1CC2(C)C#N	C[C@]12CN1C[C@]2(C)C#N	
InChI=1S/C7H10N2/c1-6(3-8)4-9-5-7(6,9)2/h4-5H2,1-2H3	InChI=1S/C7H10N2/c1-6(3-8)4-9-5-7(6,9)2/h4-5H2,1-2H3/t6-,7+,9?/m0/s1
