16
gdb 75841	2.63104	1.64033	1.23154	3.7959	63.89	-0.2532	-0.0009	0.2523	1008.3737	0.124385	-475.030738	-475.022705	-475.021761	-475.063121	30.896	
N	-0.1188997285	 1.5722482563	 0.1438946562	-0.525793
C	-0.1026430794	 0.1205910704	 0.0046006209	-0.230763
C	 0.5987001652	-0.4857397632	 1.2325016719	 0.451184
O	 1.6234300753	-0.1074570549	 1.7200373878	-0.339997
O	-0.1186955108	-1.5279208902	 1.7280762031	-0.212022
C	-1.3628518331	-1.6253363208	 1.0509916481	 0.027029
C	-2.307734116	-0.4627708216	 1.2240492636	-0.368573
C	-1.4498039457	-0.5809217406	-0.0165946432	 0.390583
O	-2.0218408887	-0.9005020177	-1.2452794272	-0.470234
H	 0.771497605	 1.8605412003	 0.5428817236	 0.248828
H	-0.1904138256	 2.0138381286	-0.7666551523	 0.232584
H	 0.4514118322	-0.238564655	-0.8798640927	 0.108171
H	-1.7050280378	-2.6445024935	 0.9344094566	 0.129319
H	-3.3621686651	-0.6823564765	 1.0978564582	 0.126526
H	-2.0671292541	 0.3038441271	 1.9529675599	 0.143103
H	-2.5571766629	-0.1512995887	-1.5290264544	 0.290055
85.3973	202.415	228.4714	265.768	292.6705	319.5864	343.6072	449.1283	506.0244	514.8736	584.477	679.4274	707.2284	747.241	838.8181	888.6034	911.1908	923.7844	988.2021	1006.5119	1033.1036	1072.1898	1114.2052	1129.0985	1167.4585	1182.4054	1231.6589	1292.6128	1329.7707	1352.9164	1376.7845	1416.224	1480.6268	1652.0224	1882.8438	2958.3926	3135.7157	3216.4523	3232.9158	3488.1587	3571.5189	3798.2943
NC1C(=O)OC2CC12O	N[C@H]1C(=O)O[C@H]2C[C@@]12O	
InChI=1S/C5H7NO3/c6-3-4(7)9-2-1-5(2,3)8/h2-3,8H,1,6H2	InChI=1S/C5H7NO3/c6-3-4(7)9-2-1-5(2,3)8/h2-3,8H,1,6H2/t2-,3-,5-/m0/s1
