15
gdb 50286	2.57854	1.34061	1.03025	2.0167	67.48	-0.2642	-0.0535	0.2107	1132.0258	0.109687	-457.727483	-457.719203	-457.718259	-457.761297	29.297	
O	-0.5425360594	 0.8472345992	 0.8167910539	-0.234196
C	 0.3130273116	 0.7031656792	-0.0164475644	 0.136782
C	 1.4550079529	 1.6860989566	-0.1886084532	-0.024671
O	 2.5776022434	 1.1668320046	-0.9419066806	-0.285457
C	 2.5240065251	 2.2638346432	-1.8463173415	 0.084166
C	 1.2650358882	 2.3057156145	-2.6149877594	-0.352071
C	 1.2463667084	 2.8364044831	-1.1861682874	 0.142149
C	 0.9561536233	 4.2416324503	-0.8641496708	 0.06657
O	 0.8870974845	 5.1228243704	-1.6890971665	-0.270423
H	 0.3156095572	-0.1469843026	-0.7323668165	 0.097711
H	 1.7778269303	 2.049771268	 0.7942687695	 0.121536
H	 3.4500107238	 2.7654592365	-2.1007337406	 0.136582
H	 1.1884191506	 3.1111141287	-3.3382873067	 0.161033
H	 0.7474452928	 1.3860592849	-2.8659620702	 0.133922
H	 0.8227383074	 4.4493301532	 0.2200772943	 0.086367
52.6515	100.7139	146.5752	203.8048	219.2607	277.769	425.0198	448.166	470.1215	550.3712	724.3085	750.2469	778.1454	908.5036	923.6988	965.0892	1019.4232	1027.6434	1042.7398	1058.6581	1089.9725	1094.1521	1116.9778	1194.9676	1237.7636	1274.302	1324.8102	1382.1043	1401.8768	1434.8397	1466.9738	1796.7385	1831.3785	2894.8771	2903.9528	3047.2762	3133.352	3196.6962	3231.0614
O=CC1OC2CC12C=O	O=C[C@H]1O[C@H]2C[C@@]12C=O	
InChI=1S/C6H6O3/c7-2-5-6(3-8)1-4(6)9-5/h2-5H,1H2	InChI=1S/C6H6O3/c7-2-5-6(3-8)1-4(6)9-5/h2-5H,1H2/t4-,5+,6-/m0/s1
