21
gdb 101204	3.84333	0.80063	0.6973	3.1253	79.68	-0.2404	-0.017	0.2234	1601.9076	0.180003	-424.233686	-424.22368	-424.222736	-424.269102	36.638	
C	-0.2151113867	 1.4668652512	 0.0302615585	-0.39785
C	 0.0517228505	-0.0426637735	-0.0305639868	 0.013647
C	 0.7664053376	-0.4196242231	-1.3302266069	-0.078401
O	-0.0759736825	-0.0715501346	-2.4191510725	-0.422043
C	 0.8452118903	-0.5289427849	 1.1818051605	 0.027165
C	 0.1651593995	-0.4037493591	 2.5843082986	-0.368632
C	 0.5820746401	-1.8565023625	 2.8581400324	 0.401366
O	 0.6433117587	-2.5301943384	 3.8447587463	-0.290703
C	 0.9927394172	-2.0725863861	 1.3935130897	-0.371091
H	 0.7273636219	 2.0265162569	 0.0730683863	 0.107613
H	-0.760314226	 1.7925446732	-0.8579375634	 0.137047
H	-0.801752342	 1.7336237524	 0.9145436758	 0.112297
H	-0.9154879208	-0.5670463844	-0.0386001954	 0.078019
H	 1.7300981925	 0.1151271669	-1.3845784718	 0.082814
H	 0.9893574872	-1.4980717963	-1.3358658249	 0.087535
H	 0.3868618906	-0.2745618935	-3.2368739054	 0.287965
H	 1.8293229992	-0.0470682682	 1.1965560459	 0.07754
H	 0.5379118068	 0.3477096195	 3.284485884	 0.128541
H	-0.9254570452	-0.3085666742	 2.5214213163	 0.130393
H	 0.2346342329	-2.6494969783	 0.8504235682	 0.130141
H	 1.9676327082	-2.537730603	 1.2279262846	 0.126638
52.9357	89.7071	115.6642	142.9542	228.3461	247.8353	260.2428	295.129	375.8062	387.008	424.0955	490.6251	500.2948	670.6026	678.029	759.7141	869.8077	920.3452	924.5826	934.7302	981.4097	993.5979	1027.7578	1079.0119	1093.4925	1123.6282	1139.6147	1173.1697	1190.4131	1202.6512	1237.0225	1255.302	1267.3346	1271.3538	1309.6493	1360.2998	1390.1471	1402.7773	1426.6391	1447.6206	1459.4399	1493.0739	1505.8129	1520.5023	1894.0925	2955.4141	2988.2535	3005.0904	3030.9318	3041.5088	3043.6731	3049.0254	3096.3107	3109.5227	3112.0262	3131.5369	3834.6224
CC(CO)C1CC(=O)C1	C[C@@H](CO)C1CC(=O)C1	
InChI=1S/C7H12O2/c1-5(4-8)6-2-7(9)3-6/h5-6,8H,2-4H2,1H3	InChI=1S/C7H12O2/c1-5(4-8)6-2-7(9)3-6/h5-6,8H,2-4H2,1H3/t5-/m0/s1
