20
gdb 85522	2.43958	1.55854	1.06454	3.8042	79.17	-0.2298	0.0326	0.2624	1162.1146	0.172962	-403.187922	-403.179671	-403.178727	-403.220615	32.541	
C	 0.099286849	 1.5828922353	 0.0122338108	-0.392358
C	 0.0220837213	 0.0512452423	 0.032462159	-0.003368
C	 0.5376981034	-0.5492476916	-1.2879078653	-0.333829
C	 0.7110083827	-2.0639799761	-1.3070417821	 0.377932
O	 0.5993059262	-2.724512671	-2.3236936584	-0.37685
N	 1.0462331728	-2.6329626437	-0.108490166	-0.307791
C	 1.2385110397	-1.948009614	 1.137713715	 0.015766
C	 2.2288633592	-0.8080692893	 1.2549703266	-0.313432
C	 0.7353088223	-0.5394305793	 1.2381839726	-0.026529
H	 1.1397157303	 1.9182585039	-0.0617062713	 0.117576
H	-0.4497220519	 1.9943103469	-0.8410623255	 0.116421
H	-0.3264336866	 2.0126839978	 0.9248624371	 0.112718
H	-1.0353918966	-0.2331837441	 0.1289354054	 0.085141
H	-0.1252403155	-0.2950863733	-2.1180747295	 0.129404
H	 1.5155105079	-0.1148886205	-1.5363860999	 0.124939
H	 1.2739891067	-3.6148195072	-0.1599690209	 0.24645
H	 1.1131926496	-2.606885297	 1.9899323761	 0.102625
H	 2.7600299899	-0.6774425857	 2.1915420668	 0.115022
H	 2.8140662413	-0.5702032392	 0.3733793126	 0.119993
H	 0.2994342782	-0.2558152243	 2.1921926367	 0.090172
94.6379	122.7381	221.2807	250.834	285.0449	371.5717	415.9954	465.1741	488.1724	500.8973	561.3787	648.6607	690.6599	738.7094	830.673	840.1065	886.1696	910.4424	937.274	990.4308	1006.3425	1044.6367	1066.5703	1084.4668	1102.815	1119.0129	1146.1721	1182.3344	1214.2445	1248.7163	1296.8191	1335.5752	1358.5107	1372.5644	1393.3968	1411.6098	1420.7851	1457.2868	1477.3334	1496.7338	1499.5609	1500.9913	1788.833	3000.3405	3027.6975	3030.3635	3099.0501	3101.3636	3108.4752	3134.0025	3140.9886	3166.1402	3221.4778	3615.4514
CC1CC(=O)NC2CC12	C[C@H]1CC(=O)N[C@H]2C[C@@H]12	
InChI=1S/C7H11NO/c1-4-2-7(9)8-6-3-5(4)6/h4-6H,2-3H2,1H3,(H,8,9)	InChI=1S/C7H11NO/c1-4-2-7(9)8-6-3-5(4)6/h4-6H,2-3H2,1H3,(H,8,9)/t4-,5-,6-/m0/s1
