19
gdb 82241	2.41719	2.03815	1.44202	2.6923	73.46	-0.2402	0.0732	0.3133	963.2479	0.160751	-422.999909	-422.992461	-422.991517	-423.031714	29.366	
C	 0.1861305181	 1.5813028331	-0.0161867318	-0.391178
C	 0.0659463921	 0.0544809521	-0.0124145854	-0.043893
C	 0.6956333145	-0.6220290143	-1.2222880414	 0.039135
O	 2.120365341	-0.4928661285	-1.2916451176	-0.248582
C	 1.5743592681	-1.7271316261	-0.8038213494	 0.016688
C	 1.5907317635	-1.8271956884	 0.709990387	-0.118072
C	 2.7554347375	-1.1043181736	 1.4224346024	-0.075583
O	 1.9246291917	 0.0402313808	 1.7111078889	-0.286881
C	 0.7454651484	-0.6220786494	 1.2052814381	 0.109022
H	 1.2380816152	 1.8714257264	-0.0237942963	 0.14864
H	-0.3053863071	 2.0086299061	-0.8958473929	 0.108579
H	-0.2792634633	 2.0143303783	 0.8744061126	 0.116616
H	-0.9960832526	-0.2281011415	-0.0007538465	 0.072731
H	 0.1856733426	-0.604863275	-2.184060688	 0.09192
H	 1.7711509246	-2.5973905075	-1.4253785637	 0.094
H	 1.3328198277	-2.8251954168	 1.0668446742	 0.078585
H	 3.1006896958	-1.5928293117	 2.341738393	 0.096001
H	 3.6120271834	-0.8406848647	 0.7951442007	 0.118312
H	 0.0318568287	-0.8072752493	 2.0174118961	 0.073961
106.3836	188.626	210.4027	238.5156	267.5607	435.9169	496.7715	527.8454	654.8412	676.312	805.4931	818.2017	836.1771	872.7343	885.3866	913.7828	935.1258	981.8622	1010.3715	1022.0017	1048.0628	1066.5432	1081.2191	1107.42	1135.6944	1155.0434	1170.4353	1207.2986	1247.2472	1258.5781	1306.7704	1321.1108	1328.2354	1341.4945	1367.3587	1375.6993	1404.9972	1432.0872	1493.5097	1501.2651	1513.2479	3007.1831	3022.0117	3030.0802	3044.0976	3086.4958	3104.0105	3106.0728	3125.7657	3143.014	3145.2888
CC1C2OC2C2COC12	C[C@H]1[C@H]2O[C@H]2[C@H]2CO[C@@H]12	
InChI=1S/C7H10O2/c1-3-5-4(2-8-5)7-6(3)9-7/h3-7H,2H2,1H3	InChI=1S/C7H10O2/c1-3-5-4(2-8-5)7-6(3)9-7/h3-7H,2H2,1H3/t3-,4+,5+,6-,7+/m1/s1
