13
gdb 47131	3.20831	1.30744	0.95892	4.6751	66.67	-0.3045	-0.0795	0.2251	1128.8255	0.089857	-452.794892	-452.78745	-452.786506	-452.827322	26.81	
O	 0.0376989843	-0.0350621368	-0.2157903653	-0.275285
C	-0.0514523012	 1.1177242334	 0.0610269136	 0.425837
C	-1.2946622653	 1.9717289367	 0.0677844644	-0.358566
C	-1.2609228404	 2.9825187174	 1.2213768812	-0.186307
N	-0.0009879749	 3.7108421873	 1.2748869554	-0.268706
C	 1.0223173042	 3.1012000565	 0.86034447	 0.301202
O	 1.1157426223	 1.8109707347	 0.3911575226	-0.243615
C	 2.319149836	 3.7356610698	 0.8727804858	 0.306726
N	 3.3563609623	 4.243812321	 0.8798545523	-0.305352
H	-1.3230735999	 2.5109866945	-0.887913882	 0.159057
H	-2.1646420188	 1.3147603301	 0.1056941368	 0.154304
H	-2.0748875914	 3.7048480574	 1.1237266591	 0.143209
H	-1.401905927	 2.4794333079	 2.187896146	 0.147497
104.8129	123.5987	162.1961	214.8837	398.0333	434.2572	457.2721	497.1024	565.6214	585.9899	678.016	717.0807	785.9288	879.8927	925.2005	977.2158	1058.2498	1094.4166	1111.5031	1206.5127	1232.6441	1264.024	1332.9797	1380.9419	1460.5201	1486.3605	1735.0112	1904.8778	2369.5229	3024.7977	3042.9602	3097.33	3132.8782
O=C1CCN=C(O1)C#N	O=C1CCN=C(O1)C#N	
InChI=1S/C5H4N2O2/c6-3-4-7-2-1-5(8)9-4/h1-2H2	InChI=1S/C5H4N2O2/c6-3-4-7-2-1-5(8)9-4/h1-2H2
