18
gdb 13422	3.35545	1.22341	1.13431	1.5562	77.72	-0.2342	0.0451	0.2793	1165.4139	0.151188	-347.769011	-347.759327	-347.758383	-347.804367	33.517	
C	-0.0836996268	 1.4721089434	-0.124389149	-0.500376
C	-0.0559994301	 0.0171570777	-0.0622741655	 0.08066
C	 0.0080513513	-1.1867210765	 0.0041022429	 0.052864
C	 0.0133803841	-2.6184880584	 0.0432099264	-0.266508
C	-0.4776289858	-3.3849949341	 1.2815965256	-0.049903
C	-0.8733341135	-2.6663170279	 2.5484612703	-0.399797
C	-1.3424421227	-3.3219141505	 0.0526160033	 0.110143
O	-2.5002414456	-2.5502779946	 0.0622330653	-0.423607
H	 0.9035639152	 1.8946008082	 0.0931731072	 0.151928
H	-0.3853584394	 1.8281031716	-1.1157794831	 0.148592
H	-0.7874793535	 1.8871629685	 0.6054592997	 0.150632
H	 0.8018668195	-3.094002481	-0.5328060197	 0.108649
H	 0.0401882501	-4.3288971947	 1.4318801137	 0.088401
H	-1.4744763031	-1.782990866	 2.3270993631	 0.128597
H	-1.4712361464	-3.3249299144	 3.187041284	 0.118642
H	 0.0071384754	-2.3496094476	 3.11661754	 0.116424
H	-1.4363250792	-4.2161204868	-0.5596861021	 0.096758
H	-2.2653876396	-1.661703357	-0.2373670521	 0.287901
33.8119	87.6965	93.3495	134.0066	199.1819	234.1186	262.5285	272.9597	368.8625	412.7678	515.5147	565.3615	639.7063	738.5243	749.816	831.4514	923.0306	971.2971	1014.7409	1050.6644	1054.1282	1070.1653	1098.6986	1140.0592	1172.7593	1186.9287	1245.4831	1356.5694	1364.7851	1384.0364	1414.4605	1421.6962	1428.6786	1476.8458	1479.5101	1488.6259	1499.0971	2353.0479	3026.4502	3040.9336	3086.1197	3088.7016	3098.8291	3123.905	3131.8843	3142.1667	3151.6026	3738.3355
CC#CC1C(C)C1O	CC#C[C@H]1[C@@H](C)[C@H]1O	
InChI=1S/C7H10O/c1-3-4-6-5(2)7(6)8/h5-8H,1-2H3	InChI=1S/C7H10O/c1-3-4-6-5(2)7(6)8/h5-8H,1-2H3/t5-,6+,7-/m1/s1
