24
gdb 123067	3.45531	0.53113	0.49252	2.9667	91.25	-0.2407	0.0331	0.2738	2371.2553	0.215096	-405.553509	-405.542115	-405.541171	-405.591763	39.799	
C	-0.8707402838	 1.2965055964	 0.618904392	-0.378083
C	-0.375432814	-0.1325972299	 0.3811206751	-0.168832
C	-1.4566424657	-1.04990405	-0.2007555113	-0.169306
C	-0.9544514934	-2.4720996261	-0.4353815133	-0.093888
O	-1.9405155083	-3.2930712004	-1.0598984154	-0.201206
C	-2.8018617848	-3.9342895033	-0.2387410689	 0.123313
N	-3.776461262	-4.5664119363	-0.7168597613	-0.229447
C	-4.6869938141	-5.2948508018	 0.149708675	-0.108633
C	-4.4550517721	-5.2664367407	 1.6647528157	-0.395636
H	-0.0785583885	 1.9287697255	 1.0313279074	 0.114377
H	-1.2133465977	 1.7561556611	-0.31443148	 0.118876
H	-1.7104585783	 1.3122450443	 1.3222771534	 0.11643
H	 0.4874333509	-0.1130521701	-0.2976981752	 0.100279
H	-0.0075746398	-0.5543129398	 1.3260885687	 0.097018
H	-2.3219773974	-1.0809702987	 0.4746607488	 0.098752
H	-1.8215430307	-0.6486301221	-1.1539168626	 0.113961
H	-0.0990955142	-2.4707986299	-1.1180137476	 0.117654
H	-0.6239232067	-2.92948357	 0.5085269316	 0.10088
H	-2.5402791541	-3.8501534844	 0.8247592357	 0.071627
H	-5.6979548843	-4.9231683473	-0.0652281072	 0.110949
H	-4.689267806	-6.3383179247	-0.1935217036	 0.111526
H	-5.2267189918	-5.860013393	 2.1642406842	 0.114657
H	-3.4826229585	-5.6903320807	 1.9379462709	 0.117991
H	-4.5077621547	-4.248869578	 2.0669959878	 0.11674
34.7246	60.036	67.2981	111.4804	167.6886	176.7672	191.1267	238.8237	241.5173	318.3398	348.7557	360.5181	419.2489	524.2326	599.3793	740.511	781.9931	801.0069	891.8121	910.9329	947.7218	985.0801	1007.4742	1044.5338	1063.9445	1085.8249	1093.1586	1132.1684	1148.2366	1181.2672	1227.9836	1276.8685	1296.8052	1315.7289	1325.5471	1338.1872	1379.1343	1386.4153	1397.1141	1410.0695	1415.5263	1431.0546	1484.9744	1487.0795	1492.4143	1495.222	1499.1902	1504.8084	1506.9178	1515.3964	1778.3594	3000.9781	3012.0564	3013.1186	3023.2825	3024.0559	3031.8576	3032.5497	3033.818	3040.4561	3065.3906	3088.7884	3098.5453	3100.0311	3104.9707	3106.1493
CCCCOC=NCC	CCCCOC=NCC	
InChI=1S/C7H15NO/c1-3-5-6-9-7-8-4-2/h7H,3-6H2,1-2H3	InChI=1S/C7H15NO/c1-3-5-6-9-7-8-4-2/h7H,3-6H2,1-2H3
