17
gdb 98232	3.26806	1.09118	0.82652	0.3563	67.09	-0.2742	-0.0207	0.2535	1321.1509	0.134829	-492.350815	-492.341155	-492.34021	-492.385868	34.465	
C	-1.1557785557	 1.2284748739	-0.2146255984	-0.360002
N	-0.3078409088	 0.0435638172	-0.0368969373	-0.198312
C	-0.2115000344	-0.4470320579	 1.3239151027	 0.490921
N	 0.563921803	-1.5341004665	 1.496673292	-0.557079
O	-0.8104079109	 0.1209848639	 2.2136083401	-0.390649
C	 0.3218796418	-0.5145806161	-1.1193865478	 0.420806
O	 1.0500856229	-1.5033549673	-1.0765368795	-0.409677
C	 0.1033761907	 0.1404300653	-2.4868239861	-0.144348
O	 0.8117373206	-0.5471398704	-3.4704884769	-0.42252
H	-1.991244924	 1.0168456349	-0.8871587138	 0.139493
H	-1.5419279754	 1.4881862065	 0.7677804872	 0.188784
H	-0.5792221424	 2.0687444754	-0.6103073744	 0.139505
H	 1.0368242976	-1.9599155539	 0.7111224403	 0.292603
H	 0.6382194935	-1.8826368194	 2.4363450934	 0.268228
H	-0.9748477042	 0.1505377128	-2.7106988771	 0.122446
H	 0.4215085424	 1.1933924825	-2.4347836781	 0.122474
H	 1.2580878834	-1.2714274711	-3.0022322763	 0.297326
62.8968	80.6834	94.9321	167.7033	222.0279	250.4556	353.1576	360.4218	405.382	418.3795	419.6897	456.0787	562.3599	579.5418	680.1661	686.1049	780.9433	785.8464	891.3334	1025.9342	1109.3719	1131.8557	1155.7977	1163.0769	1221.5418	1265.3595	1300.6683	1344.0939	1366.2401	1454.5167	1464.6528	1498.4471	1506.8994	1513.7262	1585.008	1733.3085	1822.6381	2982.9198	3002.1176	3051.6486	3113.1701	3186.1407	3526.2314	3678.8074	3720.9902
CN(C(N)=O)C(=O)CO	CN(C(=O)N)C(=O)CO	
InChI=1S/C4H8N2O3/c1-6(4(5)9)3(8)2-7/h7H,2H2,1H3,(H2,5,9)	InChI=1S/C4H8N2O3/c1-6(4(5)9)3(8)2-7/h7H,2H2,1H3,(H2,5,9)
