20
gdb 90965	3.07514	1.45708	1.3605	1.7785	78.87	-0.207	0.0787	0.2857	1060.6243	0.170837	-403.082434	-403.074373	-403.073429	-403.114666	31.84	
C	 0.0385821566	 1.487913196	-0.1124836542	-0.324769
N	-0.0572741968	 0.04710526	 0.0458714712	-0.078838
C	-1.4354538888	-0.4680737375	 0.269979577	-0.204733
C	-1.206454838	-1.3709859185	 1.4749702007	-0.100646
C	-0.2400007005	-0.6499521938	 2.4564760823	 0.033194
O	 0.4219369681	-1.9094550261	 2.8050097952	-0.350655
C	 0.2279169201	-1.9941526367	 1.3483190444	 0.421878
C	 0.6866266786	-3.2146590785	 0.6172133609	-0.52902
C	 0.6557079771	-0.5085171257	 1.1740490183	-0.047136
H	 1.0873723219	 1.7755033884	-0.2371455586	 0.12102
H	-0.5001796337	 1.7960414543	-1.0142139991	 0.121092
H	-0.3737144204	 2.059416567	 0.7400866555	 0.092708
H	-2.1406759401	 0.3446383144	 0.4949422893	 0.095692
H	-1.8122860106	-1.0046024359	-0.6090264564	 0.106507
H	-2.0182150874	-1.9793624262	 1.8719989975	 0.076673
H	-0.463042268	 0.0456581366	 3.2652738605	 0.085591
H	 0.1360380905	-4.1006562156	 0.9479461338	 0.130376
H	 0.5283252863	-3.0846215434	-0.4578359333	 0.135656
H	 1.7536937571	-3.3851394516	 0.7906145838	 0.133562
H	 1.7050343479	-0.2296165171	 1.2649487712	 0.081848
112.8088	176.7166	200.0561	229.2194	257.1439	333.3515	386.5278	481.4899	514.3468	618.8882	647.7401	689.1158	767.8013	781.0103	841.3132	888.8014	923.9112	940.2223	962.219	989.7565	1018.9144	1047.0269	1052.5174	1107.741	1131.336	1151.8931	1157.513	1176.7784	1209.1665	1228.5609	1239.7861	1245.0307	1287.0047	1297.4555	1351.309	1392.4239	1424.0232	1460.5249	1476.2095	1488.4277	1489.5419	1504.2078	1517.5149	2930.1249	3002.4143	3038.4769	3044.6141	3060.5556	3102.3858	3110.9284	3115.3587	3115.9729	3132.4685	3137.9364
CN1CC2C3OC2(C)C13	CN1C[C@@H]2[C@H]3O[C@]2(C)[C@@H]13	
InChI=1S/C7H11NO/c1-7-4-3-8(2)6(7)5(4)9-7/h4-6H,3H2,1-2H3	InChI=1S/C7H11NO/c1-7-4-3-8(2)6(7)5(4)9-7/h4-6H,3H2,1-2H3/t4-,5-,6+,7+/m1/s1
