17
gdb 106076	3.06933	1.52968	1.35653	4.4225	73.95	-0.2044	-0.0553	0.1491	1008.4644	0.134461	-417.848421	-417.840495	-417.839551	-417.880897	30.435	
C	-0.4258964809	 1.3827642776	-0.012748995	-0.332155
N	 0.2567821277	 0.0998583005	-0.1577067914	-0.411754
C	 0.7535142683	-0.4532572759	 1.034587271	 0.279163
C	 1.0806434226	-1.839482121	 1.4341060164	-0.173932
C	 2.6291960502	-1.9271871565	 1.4019190728	-0.173351
N	 3.0443444779	-0.6112684533	 2.0092369269	-0.228066
C	 1.9581283611	 0.034979981	 1.9447769801	 0.221244
O	 1.1618813846	 0.2606540217	 3.0823998107	-0.26167
C	 0.309037634	-0.7574229757	 2.403517317	 0.006799
H	 0.2783783012	 2.1207352052	 0.3846998189	 0.141483
H	-0.7562394608	 1.7277349735	-0.9957086463	 0.12446
H	-1.2958516347	 1.3518607465	 0.6620039409	 0.109658
H	-0.3032226227	-0.572640505	-0.6675949693	 0.228022
H	 0.4562242899	-2.6803278362	 1.1332043624	 0.09132
H	 3.0379298662	-2.6858427229	 2.0755413937	 0.134615
H	 3.004320905	-2.1270865417	 0.38716378	 0.11612
H	-0.6369619593	-0.9607341577	 2.8915478814	 0.128042
75.7925	139.5071	181.9681	252.6704	286.695	374.4914	470.8435	501.4164	566.7619	594.2012	616.9514	691.3931	731.1137	765.9177	871.0625	907.5652	913.4102	941.7773	959.2462	1004.9221	1029.4046	1046.3002	1091.4146	1095.4779	1150.21	1169.8844	1193.196	1227.2989	1251.661	1294.7753	1439.7979	1464.9488	1478.3593	1483.8834	1500.4685	1521.3167	1617.21	2981.1127	2994.1657	3073.2209	3084.3155	3118.7463	3125.9162	3194.0457	3546.9244
CNC12C3CN=C1OC23	CN[C@@]12[C@H]3C[N][C]1O[C@@H]23	
InChI=1S/C6H8N2O/c1-7-6-3-2-8-5(6)9-4(3)6/h3-4,7H,2H2,1H3	InChI=1S/C6H8N2O/c1-7-6-3-2-8-5(6)9-4(3)6/h3-4,7H,2H2,1H3/t3-,4+,6+/m0/s1
