21
gdb 119872	3.12918	0.93875	0.78413	1.7095	81.64	-0.2269	0.0176	0.2445	1489.0931	0.181503	-424.228505	-424.218659	-424.217714	-424.263991	35.453	
C	 0.0505078417	 1.5444236394	-0.2259176068	-0.393716
C	-0.028083865	 0.0422414216	 0.0460567767	 0.055785
O	 0.479200877	-0.6654682134	-1.0882670255	-0.278502
C	 1.4288569463	-1.644094343	-0.6795672389	-0.112541
C	 1.6017520898	-1.4251097278	 0.7944871074	-0.208198
C	 0.7821957134	-0.4674849051	 1.2227809738	 0.288394
C	 0.6054003991	 0.0402145106	 2.6250166908	-0.300614
C	 1.5554368538	 1.188565654	 2.9814387978	-0.065875
O	 1.270617005	 1.5713371807	 4.317643976	-0.41761
H	 1.0915294663	 1.8616486466	-0.3389458619	 0.11588
H	-0.4836067427	 1.7783666546	-1.1511609759	 0.126091
H	-0.4106814008	 2.1159560341	 0.586273273	 0.114225
H	-1.0911977655	-0.2245513179	 0.19172609	 0.075945
H	 1.0562761675	-2.6578478955	-0.9047167627	 0.100189
H	 2.3611354703	-1.5126822518	-1.2503397944	 0.10348
H	 2.2855388886	-2.0055361943	 1.4027828846	 0.097211
H	-0.4223982518	 0.3897748411	 2.7799247657	 0.111873
H	 0.776466316	-0.7667691463	 3.3449729224	 0.117553
H	 2.595417978	 0.8438290697	 2.8719128625	 0.090476
H	 1.4143752419	 2.0289717837	 2.285704084	 0.092929
H	 1.851967641	 2.3002987191	 4.5525884613	 0.287025
64.4581	79.265	87.4627	131.7287	238.5974	254.1646	264.3186	285.5988	345.0043	357.8395	403.5547	600.8197	675.3281	777.7835	783.0121	817.8097	832.7391	879.6267	952.1748	1004.2148	1031.9797	1049.7978	1061.7207	1074.5725	1084.5845	1117.5936	1122.8053	1196.7428	1200.8954	1218.0137	1240.1781	1288.4413	1312.52	1332.8628	1360.2762	1372.852	1383.8136	1399.9518	1451.5702	1485.7545	1491.2201	1498.8974	1524.6465	1528.028	1723.0605	2925.4364	2958.6427	2978.2988	2988.9721	3010.2625	3036.1331	3037.0387	3084.2191	3110.6037	3118.0756	3203.2834	3831.4798
CC1OCC=C1CCO	C[C@H]1OCC=C1CCO	
InChI=1S/C7H12O2/c1-6-7(2-4-8)3-5-9-6/h3,6,8H,2,4-5H2,1H3	InChI=1S/C7H12O2/c1-6-7(2-4-8)3-5-9-6/h3,6,8H,2,4-5H2,1H3/t6-/m1/s1
