20
gdb 14777	12.03944	0.53029	0.52275	2.8733	74.23	-0.25	-0.021	0.229	2064.9937	0.174109	-386.141684	-386.131544	-386.130599	-386.178299	33.602	
C	 0.0289672299	 1.3978937583	-0.098387438	-0.228194
O	 0.0348231719	-0.0079701733	-0.0495881724	-0.230283
C	 0.6607062916	-0.5160523423	 1.1070279836	-0.051265
C	 0.6003970674	-2.0373466941	 1.06092885	-0.192924
C	 1.2591014892	-2.6915979493	 2.2790415628	-0.197065
C	 1.1821919471	-4.2278575485	 2.2396467146	-0.27251
C	 1.9330976214	-4.8592325847	 3.3889100235	 0.159855
O	 1.463218089	-5.6282531757	 4.1868544667	-0.236392
H	 1.0499483101	 1.8124871382	-0.1037635851	 0.102633
H	-0.475262571	 1.6920459693	-1.022120907	 0.127601
H	-0.5117888656	 1.8353365224	 0.7562397815	 0.103332
H	 1.7098354844	-0.1738332622	 1.1593525723	 0.082765
H	 0.1570207842	-0.1388148814	 2.014820353	 0.084703
H	-0.4499894794	-2.3433420691	 0.9904286106	 0.112185
H	 1.0883691609	-2.3796898727	 0.1403297755	 0.10824
H	 2.3114126627	-2.3823506666	 2.340288118	 0.103475
H	 0.7793559385	-2.3315467387	 3.1982063528	 0.113069
H	 0.1469696094	-4.5806395228	 2.2606274228	 0.123369
H	 1.6448105993	-4.5850619735	 1.3076190957	 0.119312
H	 3.0029859788	-4.546919093	 3.4588722889	 0.068095
45.1676	61.4581	82.0091	104.4832	134.3843	141.4133	236.2153	248.9467	281.8547	405.2626	489.8395	526.7189	744.4642	787.4624	852.0905	954.8491	979.5635	1010.7099	1033.8538	1064.6688	1111.7585	1159.2137	1166.3795	1180.1331	1217.3666	1220.9543	1258.468	1274.147	1314.2297	1323.4897	1331.7612	1390.468	1428.5099	1433.0219	1464.6716	1481.7757	1485.5917	1489.9152	1501.6122	1508.766	1533.5233	1837.8906	2844.2031	2938.649	2963.8653	2968.2401	3008.9326	3009.7139	3015.7055	3035.2448	3047.6981	3080.0348	3099.7245	3113.7463
COCCCCC=O	COCCCCC=O	
InChI=1S/C6H12O2/c1-8-6-4-2-3-5-7/h5H,2-4,6H2,1H3	InChI=1S/C6H12O2/c1-8-6-4-2-3-5-7/h5H,2-4,6H2,1H3
