21
gdb 106312	2.75891	1.16773	1.00369	0.8948	79.08	-0.2471	0.0676	0.3147	1270.5107	0.181642	-424.190035	-424.180435	-424.179491	-424.224189	36.285	
C	-0.0970108996	 1.5714825897	 0.1806672386	-0.414671
C	 0.0799380345	 0.0654926777	 0.1798555626	-0.056116
C	 1.3339674211	-0.684181517	-0.1973702893	-0.150327
C	 2.6071711715	-0.043179659	 0.338988293	 0.125599
O	 2.971977939	 1.1700562777	-0.288877476	-0.429472
C	 1.9997073807	-0.0207016735	 1.7839169436	-0.343865
C	 0.7680828912	-0.7591208049	 1.2396706722	 0.309727
C	 0.1089599441	-1.9164690875	 1.9282800044	-0.172505
O	-0.6094654122	-1.5257015515	 3.0936911871	-0.414236
H	 0.8115170653	 2.0945721411	 0.4781672252	 0.138086
H	-0.3520816651	 1.920530372	-0.8256165939	 0.11877
H	-0.9113410621	 1.8688522278	 0.8519991513	 0.100957
H	-0.7948249523	-0.458489837	-0.207414924	 0.08083
H	 1.3186940141	-1.4440018783	-0.9708859143	 0.081981
H	 3.4368541159	-0.7614954583	 0.2943305184	 0.074279
H	 3.8017649392	 1.4688071161	 0.0972286119	 0.282426
H	 2.5772059525	-0.6135692578	 2.497658706	 0.1014
H	 1.8209701284	 0.9688504956	 2.2126435845	 0.099436
H	-0.5415484477	-2.449303341	 1.2148917202	 0.082572
H	 0.8589538068	-2.633627077	 2.2822287687	 0.10428
H	-1.2390648554	-0.8482177149	 2.8253743099	 0.280847
81.1129	118.672	153.3089	196.7323	234.7501	266.8047	289.2192	313.7155	353.286	385.6728	422.2188	482.4044	607.693	687.8165	709.5008	775.2073	849.3924	919.0966	930.1512	961.3759	980.8419	990.695	1025.2354	1050.9037	1065.1558	1111.8302	1120.593	1130.2235	1166.6767	1197.4557	1220.7886	1236.2581	1273.9991	1288.4694	1330.0823	1348.7017	1371.2856	1419.9809	1422.8083	1426.9503	1464.0532	1488.4418	1496.9118	1504.0216	1507.6715	2965.1088	3003.7788	3030.9516	3054.3608	3058.9056	3087.434	3099.6088	3109.5268	3150.3947	3170.7382	3809.9713	3812.4762
CC1C2C(O)CC12CO	C[C@H]1[C@H]2[C@@H](O)C[C@@]12CO	
InChI=1S/C7H12O2/c1-4-6-5(9)2-7(4,6)3-8/h4-6,8-9H,2-3H2,1H3	InChI=1S/C7H12O2/c1-4-6-5(9)2-7(4,6)3-8/h4-6,8-9H,2-3H2,1H3/t4-,5-,6-,7+/m0/s1
