17
gdb 89937	3.11248	1.37718	1.12339	4.1178	73.66	-0.2503	-0.0027	0.2477	1101.7868	0.136211	-417.973	-417.96488	-417.963936	-418.005669	30.632	
C	 0.2740988662	 1.5911833461	-0.0430936207	-0.413369
C	 0.0245243291	 0.1106358648	 0.0982074543	 0.154737
O	 0.8020403499	-0.696123602	-0.8516197379	-0.344003
C	 1.2586699238	-1.5799161451	 0.1801616332	 0.315839
C	 2.6428274159	-1.2015562279	 0.7652796814	-0.218678
N	 1.9916324153	-0.196063482	 1.6522103434	-0.315224
C	 0.6404704195	-0.668092334	 1.2845667394	-0.136929
C	 0.9496266845	-2.9763636692	-0.0582824571	 0.226759
N	 0.7103457695	-4.0963678848	-0.2170100693	-0.33908
H	 1.3142943949	 1.8247721225	 0.1918765434	 0.143512
H	 0.0511681146	 1.9111311819	-1.0653502093	 0.13254
H	-0.3767873526	 2.1503294836	 0.637759448	 0.119075
H	-1.0397167793	-0.1311014447	-0.0241683895	 0.090838
H	 3.114157734	-2.0361781696	 1.2959713464	 0.121839
H	 3.3424498015	-0.7802172091	 0.0380503298	 0.130186
H	 2.2109198262	-0.3178109365	 2.6323795381	 0.234349
H	-0.011309343	-1.0052639939	 2.0903003664	 0.097611
94.2086	147.5176	182.7615	214.4748	252.753	335.8999	393.6203	453.6764	533.7327	561.9962	612.6924	669.7409	718.1211	812.6504	863.8914	896.0401	954.0787	985.6003	1016.1392	1042.3433	1058.0066	1090.3141	1103.1787	1147.4881	1154.3261	1177.9517	1235.7254	1279.9081	1312.3124	1355.2143	1370.7122	1399.517	1409.8236	1480.988	1491.4226	1496.3478	2351.6123	3017.2536	3037.5932	3043.3359	3100.2787	3110.1259	3116.4894	3141.9167	3565.8836
CC1OC2(CNC12)C#N	C[C@H]1O[C@]2(CN[C@@H]12)C#N	
InChI=1S/C6H8N2O/c1-4-5-6(2-7,9-4)3-8-5/h4-5,8H,3H2,1H3	InChI=1S/C6H8N2O/c1-4-5-6(2-7,9-4)3-8-5/h4-5,8H,3H2,1H3/t4-,5+,6+/m1/s1
