17
gdb 53802	2.72852	1.31089	1.08785	2.5676	70.99	-0.2472	-0.0639	0.1833	1158.6749	0.133753	-455.141778	-455.132228	-455.131284	-455.176553	34.541	
C	 0.032273073	 1.5116957957	-0.0845571729	-0.489198
C	 0.0350267113	 0.0020082511	-0.033907092	 0.347728
C	 0.8044867788	-0.7946215752	-0.9968523713	-0.219188
O	 1.257066976	-0.6379188861	 0.3568835706	-0.266153
C	-1.1693107508	-0.7067723374	 0.5718933947	 0.316627
O	-1.8507404832	-1.4741889125	-0.0734980295	-0.323009
C	-1.491677709	-0.482553805	 2.0436577523	 0.278344
N	-2.4771640445	-1.3173611513	 2.4796435037	-0.536012
N	-0.8278112775	 0.4004755057	 2.6914774641	-0.505355
H	 0.9468468337	 1.8612176814	-0.5712337317	 0.125806
H	-0.8260604073	 1.8727794745	-0.6623946562	 0.121467
H	-0.0228501166	 1.9210358649	 0.9242572604	 0.169455
H	 0.4638946093	-1.7909190874	-1.2671067228	 0.128807
H	 1.4031925832	-0.2791529754	-1.7458558042	 0.114355
H	-2.9694972568	-1.8447229687	 1.7752694191	 0.272264
H	-2.9231411089	-1.1584530287	 3.3661688805	 0.254939
H	-1.1293599906	 0.4603713443	 3.6665547151	 0.209123
49.4126	66.8853	169.1651	186.7711	221.3948	269.2134	307.3942	338.608	363.5339	418.4425	467.4182	524.8363	546.1931	594.8054	672.7751	808.0781	821.9763	872.3198	887.9809	927.4242	1024.2347	1048.6799	1096.1061	1115.7691	1137.333	1148.4437	1162.1669	1278.0386	1386.3572	1405.4101	1432.3839	1473.9356	1506.8497	1526.7984	1599.1275	1715.6052	1784.2382	3041.0967	3095.7818	3110.6041	3157.6316	3189.7363	3445.0333	3589.9075	3724.797
CC1(CO1)C(=O)C(N)=N	C[C@]1(CO1)C(=O)C(=N)N	
InChI=1S/C5H8N2O2/c1-5(2-9-5)3(8)4(6)7/h2H2,1H3,(H3,6,7)	InChI=1S/C5H8N2O2/c1-5(2-9-5)3(8)4(6)7/h2H2,1H3,(H3,6,7)/t5-/m0/s1
