15
gdb 20928	5.829	1.28533	1.14488	1.3408	65.28	-0.2141	-0.0179	0.1962	1034.1947	0.119284	-392.127201	-392.119197	-392.118252	-392.160435	27.871	
C	-0.0922477118	 1.4658298804	-0.247706383	-0.362466
C	-0.0639063908	-0.0092297609	 0.172866536	-0.144785
N	-1.3837481276	-0.6192907371	 0.1424696099	-0.359151
C	-1.758981427	-1.186517539	-0.9288920416	 0.535745
N	-1.1768668589	-1.4048387445	-2.1759373508	-0.313811
N	-1.9925978938	-2.1217399897	-3.0080040243	-0.082833
N	-3.0679723643	-2.3615459329	-2.3872115231	-0.063156
N	-2.9784523698	-1.8116009598	-1.1495469143	-0.310646
H	 0.8996717439	 1.9196744508	-0.1503659087	 0.109717
H	-0.4176040631	 1.5773598421	-1.2879108953	 0.106991
H	-0.7924377644	 2.0236606794	 0.3804838864	 0.130277
H	 0.6710992357	-0.5549239741	-0.4470218441	 0.066233
H	 0.3092467482	-0.0770315187	 1.2010386178	 0.107424
H	-0.2641182298	-1.1344405579	-2.4931333127	 0.289658
H	-3.7244169266	-1.918718768	-0.4849378521	 0.290803
40.008	110.7508	140.0866	194.8583	279.5154	321.8348	390.9858	441.1631	521.1136	701.9024	703.2613	719.701	809.4683	906.4693	985.1663	1012.2219	1019.8852	1067.7349	1108.9474	1124.099	1171.8123	1286.9627	1307.375	1366.3239	1377.0423	1389.6645	1402.9333	1489.087	1495.8083	1518.6306	1527.2634	1789.8056	2927.7899	3031.5308	3046.5654	3099.3968	3116.1536	3700.231	3715.9359
CCN=C1NN=NN1	CCN=c1[nH]nn[nH]1	
InChI=1S/C3H7N5/c1-2-4-3-5-7-8-6-3/h2H2,1H3,(H2,4,5,6,7,8)	InChI=1S/C3H7N5/c1-2-4-3-5-7-8-6-3/h2H2,1H3,(H2,4,5,6,7,8)
