23
gdb 120220	3.58461	0.9177	0.89228	1.8128	84.69	-0.2402	0.0802	0.3204	1462.1507	0.207326	-388.278526	-388.269794	-388.268849	-388.312461	33.855	
C	-0.0460999397	 1.608638578	 0.1705794296	-0.381012
C	-0.094178722	 0.0927670703	-0.0366987748	-0.160425
C	 0.8436948786	-0.3934359079	-1.151010764	-0.22767
C	 0.8113594919	-1.9037442681	-1.3311176605	 0.039474
C	-0.3673001131	-2.6744841782	-1.9893610586	 0.062365
C	-0.5430581374	-2.0220207919	-3.3768453107	-0.219141
C	 0.9661444614	-2.0045355084	-3.7796688026	-0.217556
C	 1.5187803526	-2.651339608	-2.4915258021	 0.041175
O	 0.5763116548	-3.7510473438	-2.2869143048	-0.300791
H	 0.963794188	 1.9391087121	 0.4381270783	 0.11454
H	-0.3362638799	 2.1428976345	-0.7410984615	 0.113755
H	-0.7226930146	 1.9245874223	 0.9706851995	 0.112598
H	 0.1662071932	-0.4152513393	 0.9009935537	 0.097796
H	-1.1226733692	-0.2129325401	-0.269733649	 0.098313
H	 0.5869763816	 0.1195646027	-2.0855142887	 0.096066
H	 1.8726779386	-0.0886348619	-0.9136280882	 0.09539
H	 1.0657504669	-2.4118108235	-0.3961616008	 0.081444
H	-1.2532385659	-2.9988889678	-1.442946867	 0.073682
H	-1.1466890679	-2.6534112252	-4.0315994516	 0.1068
H	-1.000200858	-1.0295823055	-3.3352448848	 0.096741
H	 1.1766958838	-2.6279448842	-4.6507906659	 0.106305
H	 1.3619503799	-1.0025542273	-3.9658892289	 0.097347
H	 2.5672426463	-2.9494943588	-2.4581518568	 0.072805
66.6225	85.1298	125.3372	240.169	262.8755	296.5859	327.8199	386.2368	508.5311	602.6475	713.6722	743.8063	778.4086	833.6043	840.5147	861.9277	871.7331	891.0445	906.5261	924.707	971.3459	987.9387	1005.9731	1029.1175	1051.2015	1080.1745	1112.2008	1133.7578	1170.5092	1175.9992	1201.4005	1223.3753	1247.2472	1265.6327	1275.9348	1294.2361	1310.0299	1318.1718	1331.2821	1342.7618	1383.2269	1409.6545	1415.6427	1474.8033	1487.5262	1494.0018	1500.1967	1502.4324	1510.8232	3009.4515	3018.9006	3029.2659	3039.6848	3057.6455	3062.9619	3070.5949	3076.0599	3095.8088	3102.1309	3108.0391	3115.3039	3119.8065	3125.412
CCCC1C2CCC1O2	CCC[C@H]1[C@H]2CC[C@@H]1O2	
InChI=1S/C8H14O/c1-2-3-6-7-4-5-8(6)9-7/h6-8H,2-5H2,1H3	InChI=1S/C8H14O/c1-2-3-6-7-4-5-8(6)9-7/h6-8H,2-5H2,1H3/t6-,7+,8-
