17
gdb 124929	3.26927	1.27218	0.92634	3.2573	85.35	-0.2242	0.0001	0.2242	1238.3794	0.135108	-380.877233	-380.867859	-380.866915	-380.911907	33.55	
C	-0.0331030896	 1.513119539	 0.1332308402	-0.509062
C	-0.0106991984	 0.0304366157	-0.041449077	 0.30485
C	 0.0056609067	-0.7630303502	-1.173524388	 0.032782
C	-0.0017971259	-0.339073089	-2.6081176359	-0.522284
C	 0.0427061303	-2.0962406296	-0.6706050153	 0.146005
N	 0.0484466182	-2.1237656566	 0.6690033578	-0.302745
N	 0.0184038837	-0.8293934672	 1.0144728595	-0.262731
C	 0.0607780944	-3.2869466573	-1.4401119711	 0.280867
C	 0.0727867544	-4.268057048	-2.1379037959	-0.439389
H	 0.9751455603	 1.9298443821	 0.2450833921	 0.143304
H	-0.4896706897	 1.9924454015	-0.7364047618	 0.144893
H	-0.6119405759	 1.8046338528	 1.0159521663	 0.130624
H	 1.0106284754	-0.1576655221	-2.9892740058	 0.131893
H	-0.4468496825	-1.1167478203	-3.2348237874	 0.141249
H	-0.5741937825	 0.5825797369	-2.7554268177	 0.12059
H	 0.0046324515	-0.59211923	 1.9926748046	 0.270965
H	 0.0855434497	-5.1436248878	-2.7380655347	 0.188189
56.9204	79.044	115.3566	136.5581	246.6647	254.8111	284.3575	367.8093	477.4366	525.7255	533.0886	566.909	568.4965	663.0839	671.811	702.7718	741.9553	751.3476	962.2893	999.0212	1052.6108	1068.948	1120.2217	1190.3056	1237.2887	1292.3918	1402.6248	1417.8155	1428.1262	1451.2341	1477.341	1480.8661	1487.7696	1498.5229	1520.2487	1622.454	2234.9509	3026.3207	3028.8878	3079.5499	3083.9783	3113.3034	3118.1424	3504.3915	3661.8932
CC1=C(C)C(=NN1)C#C	Cc1c(C)c(n[nH]1)C#C	
InChI=1S/C7H8N2/c1-4-7-5(2)6(3)8-9-7/h1H,2-3H3,(H,8,9)	InChI=1S/C7H8N2/c1-4-7-5(2)6(3)8-9-7/h1H,2-3H3,(H,8,9)
