16
gdb 85390	1.99923	1.96645	1.02174	1.862	70.14	-0.2512	0.0084	0.2596	1122.0689	0.125387	-471.239628	-471.231591	-471.230647	-471.272366	30.338	
C	-0.0186751129	 1.4543009457	 0.0101364409	-0.409823
C	 0.0265148774	-0.0524910093	 0.0017942787	 0.193792
O	 0.7129408327	-0.4749363327	-1.1667742024	-0.211492
C	 0.9291449578	-1.8078207183	-1.254072874	 0.463898
N	 1.1713018618	-2.3232759533	-2.3819138892	-0.544318
N	 0.8490811109	-2.4550310352	-0.0144121401	-0.436136
C	 0.938714556	-1.821306646	 1.2315436438	 0.463893
N	 1.1894342644	-2.3489665772	 2.3518435674	-0.544315
O	 0.7219607132	-0.4875521329	 1.1603574299	-0.211491
H	 0.9987256045	 1.8514992362	 0.0085427559	 0.15022
H	-0.5459519094	 1.810776199	-0.8769552648	 0.143806
H	-0.5393886283	 1.8011250914	 0.9048976739	 0.1438
H	-0.9771905128	-0.500511333	 0.003256001	 0.104495
H	 1.3939986595	-3.313119806	-2.3074876886	 0.217284
H	 1.0100803533	-3.4495812182	-0.0204301396	 0.259102
H	 1.4114459217	-3.3379517101	 2.2649891574	 0.217284
115.0146	119.8977	164.9819	214.5379	280.413	371.026	476.6571	502.5201	517.8663	555.7421	574.0537	712.9876	716.6706	748.953	789.2531	796.1664	891.7046	905.9194	973.5366	1041.2628	1073.9302	1095.9084	1127.7328	1145.4093	1176.0076	1292.398	1393.1909	1401.146	1413.452	1426.5423	1437.8385	1482.1363	1488.3553	1773.0014	1773.2121	3014.0372	3064.9293	3149.8843	3150.636	3522.5508	3523.0328	3644.0673
CC1OC(=N)NC(=N)O1	C[C@H]1O[C]([NH])N[C]([NH])O1	
InChI=1S/C4H7N3O2/c1-2-8-3(5)7-4(6)9-2/h2H,1H3,(H3,5,6,7)	InChI=1S/C4H7N3O2/c1-2-8-3(5)7-4(6)9-2/h2H,1H3,(H3,5,6,7)
