22
gdb 109814	2.67491	0.98691	0.82391	1.5082	88.66	-0.2165	0.0529	0.2694	1494.2713	0.191405	-367.146881	-367.136219	-367.135275	-367.1831	38.732	
C	 0.7934352344	-0.0197682713	-0.1855630371	-0.380164
C	 0.1040768578	-0.8687265991	 0.8903361754	-0.202249
C	-1.3547236624	-1.1219879466	 0.5547001902	-0.014
C	-1.8418137211	-2.3173843589	-0.2069493747	-0.000833
C	-0.9028976353	-3.4096971965	-0.7131118659	-0.391924
C	-1.5667721183	-4.7057740979	-0.8261727421	 0.306513
C	-2.1314108296	-5.7626950712	-0.9190223573	-0.441892
N	-2.1860674433	-2.139554783	 1.2010934718	-0.107057
C	-1.6417791754	-3.0185666386	 2.2252954584	-0.318482
H	 1.8265857057	 0.2086549925	 0.0927838118	 0.115115
H	 0.8109495664	-0.5378015602	-1.1501087088	 0.119752
H	 0.2693016278	 0.9308794014	-0.3319197174	 0.120358
H	 0.6562745229	-1.8023790549	 1.0285005701	 0.097694
H	 0.1537740977	-0.3440401444	 1.8535017488	 0.102992
H	-1.8991022577	-0.1902709567	 0.3871912295	 0.084476
H	-2.6953393526	-2.1834360477	-0.8713105351	 0.094798
H	-0.5286223546	-3.1090309665	-1.7008288832	 0.135095
H	-0.019646538	-3.5105553717	-0.0760020459	 0.130225
H	-2.6238505756	-6.6997229104	-1.0005659518	 0.195657
H	-0.592883174	-3.321502706	 2.0954508317	 0.097533
H	-1.7244522316	-2.5164686001	 3.1945976501	 0.121682
H	-2.2487047432	-3.9279076522	 2.2612652815	 0.134711
49.4727	60.2431	118.0295	145.2028	176.073	211.4933	237.2488	281.9253	300.4424	338.6724	418.3848	511.676	519.5668	548.8129	619.9135	637.4977	727.4791	784.7228	815.3292	842.6438	955.0549	968.8812	983.3907	1030.3765	1069.7183	1091.1735	1139.3969	1146.8471	1166.457	1171.2497	1201.5993	1233.4049	1282.6184	1310.3936	1342.066	1353.9764	1399.3397	1413.4259	1439.9904	1458.1286	1467.5044	1491.5293	1493.4528	1499.3863	1503.868	1511.5509	2238.5219	2993.8225	3023.4155	3025.6316	3034.0506	3067.281	3068.9647	3077.5273	3084.9666	3103.2756	3106.9481	3107.519	3108.5289	3507.1005
CCC1C(CC#C)N1C	CC[C@H]1[C@@H](CC#C)N1C	
InChI=1S/C8H13N/c1-4-6-8-7(5-2)9(8)3/h1,7-8H,5-6H2,2-3H3	InChI=1S/C8H13N/c1-4-6-8-7(5-2)9(8)3/h1,7-8H,5-6H2,2-3H3/t7-,8+,9?/m0/s1
