18
gdb 35056	2.4342	1.58184	1.49862	0.536	77.65	-0.2235	0.0308	0.2543	1000.6735	0.148432	-401.878806	-401.870914	-401.86997	-401.911118	30.74	
C	-0.2726672922	-1.2356688036	-0.1244974032	-0.476845
C	-0.1490898044	-0.0429863651	-0.0256982702	 0.37423
C	-0.0427002941	 1.386625785	 0.024599119	-0.206301
C	 0.5027562278	 2.0977018337	 1.2256890944	-0.032395
C	 1.0237662809	 1.3550415753	 2.4455704308	-0.122657
O	 2.0088524857	 0.3926475352	 2.1347261091	-0.232256
C	 3.0282741677	 0.9517102283	 1.3246578027	-0.080668
C	 2.4908457943	 1.2691718289	-0.068064695	-0.15822
N	 1.2651169824	 2.0883291911	-0.0235490575	-0.124273
H	-0.3766222651	-2.2906696385	-0.1863092369	 0.200521
H	-0.807951749	 1.9026408687	-0.5525990666	 0.113209
H	 0.0590215615	 3.0646775638	 1.4626641589	 0.096365
H	 1.4342398419	 2.0992639775	 3.1496843967	 0.09523
H	 0.2121606562	 0.8231769124	 2.9521209074	 0.123373
H	 3.4321285218	 1.8618611614	 1.7995114376	 0.090423
H	 3.8323284423	 0.2126609514	 1.2682775612	 0.112634
H	 3.2423313435	 1.8262247048	-0.6394166919	 0.104654
H	 2.2916124189	 0.3328869495	-0.6000151465	 0.122974
104.8085	119.3273	170.9989	290.8086	348.4472	362.7854	455.142	499.2585	559.2121	597.9813	612.6625	661.4601	694.9315	750.9411	804.3994	839.9005	885.0022	939.5055	959.5847	1023.3126	1054.9396	1095.0333	1107.6935	1132.1331	1155.078	1167.2418	1258.8287	1272.719	1306.0231	1329.2625	1363.6722	1374.7554	1380.4588	1406.9376	1434.9318	1488.552	1494.3795	1500.1567	2231.4026	2956.7312	2966.3712	3032.2628	3074.7447	3076.008	3091.9549	3100.7659	3117.5202	3502.9922
C#CC1C2COCCN12	C#C[C@H]1[C@H]2COCCN12	
InChI=1S/C7H9NO/c1-2-6-7-5-9-4-3-8(6)7/h1,6-7H,3-5H2	InChI=1S/C7H9NO/c1-2-6-7-5-9-4-3-8(6)7/h1,6-7H,3-5H2/t6-,7+,8?/m0/s1
