18
gdb 46256	2.9091	1.57639	1.302	2.0959	76.17	-0.2357	-0.0341	0.2016	1023.6144	0.14755	-401.907239	-401.899457	-401.898513	-401.940095	29.977	
O	-0.0246967823	 0.0325237955	-0.2838745467	-0.303673
C	-0.0556338304	 1.2099161671	-0.0587421054	 0.360947
C	-1.159594626	 2.2084109793	 0.3164882071	-0.342397
C	-0.0385848703	 3.2603138045	 0.5861411181	-0.312534
C	 1.0356663538	 2.2947086357	 0.0226004049	 0.259523
C	 2.4269518368	 2.0857005937	 0.6659984961	-0.33733
C	 3.017010553	 2.431199509	-0.6967838271	-0.012867
C	 2.4555777643	 1.58069724	-1.7606137237	-0.245998
N	 1.6507020407	 2.7365791739	-1.2941223258	-0.174821
H	-1.8052074832	 2.4477602234	-0.5342816456	 0.141636
H	-1.7921799405	 1.9105358645	 1.1566923886	 0.130891
H	-0.1200582314	 4.1913206485	 0.0241749248	 0.123836
H	 0.1008085496	 3.4851246833	 1.6461779491	 0.109383
H	 2.629941521	 2.8374726492	 1.4318813181	 0.116858
H	 2.6540378172	 1.0928810584	 1.0646573439	 0.119062
H	 3.8611899663	 3.0915170279	-0.8662593425	 0.097247
H	 2.8330100296	 1.7273751058	-2.7677826351	 0.123224
H	 2.1059523619	 0.5766154805	-1.5388970689	 0.147012
41.8934	144.9732	157.1455	288.1811	314.0927	423.0921	447.7008	505.6225	591.7783	711.559	724.0256	749.1415	767.9513	805.7255	851.3802	888.9032	930.9031	941.9095	999.0038	1041.1738	1056.0049	1064.1292	1103.3587	1112.1288	1135.6898	1158.2277	1175.7339	1189.2769	1223.6926	1226.3712	1240.3486	1271.1567	1290.7578	1368.821	1434.9759	1475.0173	1477.1139	1503.4327	1872.7061	3057.6482	3060.44	3075.3316	3111.9814	3114.9525	3122.397	3139.7881	3165.5461	3213.9756
O=C1CCC11CC2CN12	O=C1CC[C@]21C[C@H]1CN21	
InChI=1S/C7H9NO/c9-6-1-2-7(6)3-5-4-8(5)7/h5H,1-4H2	InChI=1S/C7H9NO/c9-6-1-2-7(6)3-5-4-8(5)7/h5H,1-4H2/t5-,7+,8?/m0/s1
