14
gdb 98016	4.70963	0.60096	0.55777	3.0494	71.74	-0.2715	-0.0732	0.1983	1876.6858	0.097571	-473.820299	-473.810106	-473.809162	-473.857794	33.609	
N	 0.3465499848	 1.0594316164	 0.5054743326	-0.519816
C	-0.2593633229	 0.3633561727	-0.4956253385	 0.269938
O	 0.1192422022	 0.3525692536	-1.6493425462	-0.323197
C	-1.4426384088	-0.3777019361	-0.065027167	 0.073697
C	-2.4224926515	-1.0182763024	 0.231032762	-0.002959
C	-3.5951667875	-1.8016896252	 0.5979567705	 0.229244
O	-3.5786058724	-2.5883663817	 1.5126678824	-0.253867
C	-4.8106666967	-1.5330178203	-0.2773348906	-0.176467
O	-5.889572328	-2.2999186278	 0.1755813973	-0.393951
H	 1.2032507877	 1.5452593609	 0.2935028917	 0.273438
H	 0.0645726518	 0.9523666615	 1.4647435915	 0.275592
H	-5.0029439378	-0.4459554023	-0.2450885032	 0.121221
H	-4.5154594003	-1.7630796239	-1.3160574486	 0.128829
H	-6.6359570107	-2.1425495154	-0.4099739039	 0.298299
18.9101	62.6107	71.1578	117.7283	194.0125	208.0102	237.3373	274.5974	303.7982	328.1975	516.2436	558.0754	577.3238	587.0675	622.3248	753.1306	773.221	894.5885	1011.3839	1093.7743	1098.6801	1161.3923	1236.7937	1245.8888	1345.5266	1442.5322	1487.8313	1611.7714	1779.6203	1791.163	2321.0204	2954.0335	2977.3866	3597.1706	3736.5729	3837.6645
NC(=O)C#CC(=O)CO	NC(=O)C#CC(=O)CO	
InChI=1S/C5H5NO3/c6-5(9)2-1-4(8)3-7/h7H,3H2,(H2,6,9)	InChI=1S/C5H5NO3/c6-5(9)2-1-4(8)3-7/h7H,3H2,(H2,6,9)
