18
gdb 80468	2.52701	1.56252	1.33527	3.4882	72.27	-0.2412	0.0165	0.2577	1037.0298	0.148621	-439.110012	-439.101675	-439.100731	-439.142813	31.397	
C	-0.010848261	 1.3792753282	-0.094154859	-0.344516
N	 0.0047408969	-0.0653425658	-0.173508509	-0.109122
C	-1.208647738	-0.8503987752	 0.0171093353	-0.196928
C	-0.7295764277	-2.2976151821	 0.0095051462	-0.122546
C	 0.03103837	-2.7230432699	-1.2075201241	 0.127636
O	-0.0148570721	-2.0423492317	-2.4202383172	-0.422477
C	 0.800170831	-2.2454957336	 0.0132566687	-0.228821
C	 1.1710766485	-0.7908380352	 0.0209077916	 0.407626
O	 2.2773106077	-0.3115568677	 0.146292011	-0.388255
H	 1.0225326171	 1.7248835916	-0.153344808	 0.167092
H	-0.5914933247	 1.8131936424	-0.9153255839	 0.124968
H	-0.4463606347	 1.721900972	 0.8544081105	 0.123517
H	-1.6918127693	-0.5946961523	 0.9711307676	 0.113019
H	-1.931313587	-0.6535279955	-0.7858183476	 0.120772
H	-1.2853083832	-3.0229749841	 0.5911687137	 0.101689
H	 0.0871916195	-3.7904299564	-1.3932117589	 0.119156
H	 0.1249308608	-1.1024173776	-2.2505334446	 0.293982
H	 1.4434100564	-2.923617447	 0.5579098879	 0.113208
124.9963	133.0804	154.9391	203.9266	229.1596	306.6626	368.4282	454.3433	467.3582	541.9691	650.9097	672.1204	766.8553	770.737	798.4209	830.2197	941.4315	981.6631	992.194	1031.4025	1056.1774	1082.9975	1105.9903	1146.6773	1163.8688	1190.642	1230.2801	1269.8902	1292.5792	1319.6015	1327.7106	1361.5364	1419.3148	1445.7791	1461.1801	1493.3394	1509.0114	1534.2229	1809.7208	2997.0915	3011.0797	3032.7679	3070.2622	3145.2333	3172.5991	3184.5562	3208.3741	3773.748
CN1CC2C(O)C2C1=O	CN1C[C@H]2[C@@H](O)[C@H]2C1=O	
InChI=1S/C6H9NO2/c1-7-2-3-4(5(3)8)6(7)9/h3-5,8H,2H2,1H3	InChI=1S/C6H9NO2/c1-7-2-3-4(5(3)8)6(7)9/h3-5,8H,2H2,1H3/t3-,4+,5-/m1/s1
