17
gdb 8775	3.92165	1.16608	1.13008	1.6147	66.99	-0.2497	-0.0436	0.2061	1106.9642	0.139389	-401.031473	-401.022166	-401.021221	-401.066101	31.628	
C	 0.1140219808	 1.4249347957	-0.1084156931	-0.395315
C	-0.048466924	-0.0929796103	-0.0104320495	-0.083694
C	 0.7476057221	-0.6922622886	 1.1539073272	 0.151906
O	 1.593869221	-0.108018501	 1.7750429999	-0.230338
N	-1.4274562628	-0.5524716381	 0.0556312752	-0.043896
C	-2.274024173	-0.1191946762	 1.1598877211	-0.354296
C	-1.962992897	-1.3372739138	-0.9292917868	 0.157446
O	-3.1036622239	-1.74191242	-0.9641007943	-0.335985
H	 1.1739410179	 1.6782169276	-0.1761668044	 0.144589
H	-0.4040255555	 1.8073661172	-0.9912980053	 0.125798
H	-0.283575179	 1.9254515476	 0.7779823417	 0.135514
H	 0.3829956962	-0.5583635419	-0.9103936098	 0.117824
H	 0.4762293053	-1.75015894	 1.3747356259	 0.091712
H	-2.5305931951	 0.9428484622	 1.0797617549	 0.136413
H	-3.1906852718	-0.707390611	 1.120758948	 0.173531
H	-1.7730008377	-0.2836915271	 2.119818155	 0.133008
H	-1.2161464036	-1.5740676623	-1.7132657758	 0.075782
56.6329	74.1982	126.1515	149.7728	213.834	250.403	266.9082	322.8574	327.4709	420.9439	431.5536	593.3447	700.7946	831.2203	869.3965	927.0737	1023.7079	1027.8276	1096.3257	1113.9443	1138.7971	1159.2119	1275.1798	1294.0075	1315.4499	1396.5938	1410.8731	1427.7659	1441.9163	1444.1087	1486.4882	1491.2349	1501.3769	1522.1499	1801.105	1839.5358	2877.2111	2931.8007	2997.3764	3031.9392	3057.5274	3086.6848	3132.0018	3140.9739	3159.1802
CC(C=O)N(C)C=O	C[C@@H](C=O)N(C)C=O	
InChI=1S/C5H9NO2/c1-5(3-7)6(2)4-8/h3-5H,1-2H3	InChI=1S/C5H9NO2/c1-5(3-7)6(2)4-8/h3-5H,1-2H3/t5-/m0/s1
