27
gdb 112904	2.16476	1.14118	0.83268	0.1686	95.75	-0.2927	0.0774	0.3701	1552.251	0.25262	-353.588461	-353.577917	-353.576973	-353.624409	40.256	
C	-0.1439891651	 1.7301040782	 0.2023183689	-0.389041
C	-0.0154332164	 0.2028940238	 0.2421165085	-0.197824
C	-1.3153045437	-0.5317803463	-0.1015277161	 0.049355
C	-1.8404048491	-0.3350601124	-1.5339607627	-0.213849
C	-2.9528063478	-1.3886725135	-1.6529279753	 0.051183
C	-3.4380631002	-1.6616361338	-3.075340318	-0.409392
C	-2.3449455144	-2.6199228706	-0.9419661171	-0.225414
C	-1.294806474	-2.0871219616	 0.0809008344	 0.005167
C	 0.074999824	-2.7447515467	-0.1367984205	-0.394227
H	 0.7922540068	 2.213197252	 0.4994742803	 0.108337
H	-0.3961535148	 2.0881911131	-0.8009131912	 0.117289
H	-0.9284545876	 2.0786864708	 0.8840271354	 0.111108
H	 0.7811471466	-0.1116441926	-0.4433434815	 0.093879
H	 0.3115347226	-0.098881925	 1.2460145491	 0.090829
H	-2.0930641267	-0.1455119931	 0.5740708604	 0.062324
H	-2.1968843385	 0.6807133398	-1.7308937565	 0.089177
H	-1.0441986771	-0.5468297117	-2.2631992217	 0.085803
H	-3.8070200293	-1.0321931418	-1.0598957378	 0.066041
H	-2.6127080823	-2.0045728655	-3.7107905944	 0.109399
H	-4.2125073656	-2.4364276095	-3.0918609948	 0.109546
H	-3.8603806842	-0.761235083	-3.534683127	 0.108391
H	-3.1117831986	-3.2421343248	-0.4702286613	 0.090852
H	-1.8454688092	-3.2555005773	-1.6843527577	 0.088789
H	-1.6112088912	-2.3241229716	 1.103002613	 0.062713
H	 0.4725736165	-2.5291531729	-1.1353828007	 0.111149
H	 0.8155448685	-2.4133785815	 0.5973497654	 0.110367
H	-0.0115153695	-3.8333555626	-0.050402141	 0.108051
28.5495	101.2527	126.0065	173.0961	224.6446	241.7633	275.1559	275.7671	322.9139	360.7821	413.2273	428.6711	467.5387	526.26	618.0246	765.4289	790.3517	845.1531	868.7569	896.3457	914.4852	935.076	971.4876	981.764	1013.6264	1041.893	1047.2762	1063.6515	1082.0892	1106.2669	1154.7136	1168.0772	1184.5581	1211.9414	1253.3749	1272.6438	1297.8255	1305.6669	1313.4025	1322.5453	1348.8066	1363.3061	1379.3038	1383.061	1396.3994	1410.0897	1411.4429	1412.1828	1484.6279	1488.8326	1497.0355	1497.4147	1498.86	1500.1302	1502.4258	1505.0026	1509.7437	2981.3046	2993.0631	3007.4325	3015.3422	3020.4765	3023.8716	3028.4511	3028.9394	3029.877	3053.1183	3074.7983	3077.6438	3088.3369	3090.2503	3092.1315	3095.5478	3102.1586	3104.0718
CCC1CC(C)CC1C	CC[C@H]1C[C@@H](C)C[C@H]1C	
InChI=1S/C9H18/c1-4-9-6-7(2)5-8(9)3/h7-9H,4-6H2,1-3H3	InChI=1S/C9H18/c1-4-9-6-7(2)5-8(9)3/h7-9H,4-6H2,1-3H3/t7-,8+,9-/m0/s1
