21
gdb 70906	2.56241	1.69579	1.2724	1.2074	81.39	-0.2415	0.0822	0.3237	1070.8917	0.183378	-387.078945	-387.070843	-387.069898	-387.110767	33.393	
C	-0.0183114302	 1.5081417198	 0.0246174235	-0.487263
C	-0.0186083575	-0.0082762273	 0.0260115454	 0.339874
C	 0.2991514737	-0.7077824231	-1.3481763133	-0.349421
C	-0.9136131217	-1.6026222319	-1.1116842005	 0.400374
O	-1.7025004764	-2.1485891005	-2.1112075089	-0.469515
C	-0.9089613068	-2.1635550649	 0.3035845339	-0.112106
C	 0.3938524539	-2.1665775777	 1.1033818461	-0.246635
C	 0.8015379154	-0.6700659016	 1.1498485902	-0.239152
C	-1.3895693257	-0.7539797762	 0.0397768687	-0.180499
H	 0.9927027676	 1.9015961246	-0.1324763706	 0.113542
H	-0.657619792	 1.9066641447	-0.7699245091	 0.116357
H	-0.3841253554	 1.9037488652	 0.9795266684	 0.112155
H	 0.1196379565	-0.0304759456	-2.187970532	 0.101589
H	 1.285414321	-1.1740957471	-1.4653694454	 0.078697
H	-1.3236084182	-2.9973519578	-2.3653232049	 0.281398
H	-1.6595194816	-2.9279553853	 0.4749403123	 0.081547
H	 0.2389349921	-2.5742313689	 2.1070738798	 0.097204
H	 1.1642970508	-2.7843321065	 0.6280448964	 0.094133
H	 1.8781991825	-0.5174436969	 1.0180945818	 0.091099
H	 0.5239831923	-0.2284421591	 2.1145081062	 0.092107
H	-2.3669547504	-0.3547768438	 0.2773120019	 0.084514
182.1602	213.5986	229.8445	260.4735	301.0639	315.9542	364.7029	419.9646	451.5911	558.4672	562.6707	694.4147	713.3747	753.0786	814.9843	862.343	885.5927	912.7758	920.0521	958.0918	978.025	984.2478	994.7533	1033.4901	1057.6505	1092.8797	1124.682	1133.6163	1189.6413	1216.1574	1226.3888	1240.1704	1255.159	1272.5596	1297.2082	1299.5704	1328.9712	1358.6677	1413.8387	1440.9642	1485.0162	1494.1396	1496.1295	1497.1199	1512.4091	3019.4848	3021.9491	3028.5336	3037.7784	3067.7294	3082.2931	3085.6776	3090.5708	3096.0076	3172.7192	3200.1593	3791.871
CC12CC3(O)C(CC1)C23	C[C@@]12C[C@@]3(O)[C@@H](CC1)[C@@H]23	
InChI=1S/C8H12O/c1-7-3-2-5-6(7)8(5,9)4-7/h5-6,9H,2-4H2,1H3	InChI=1S/C8H12O/c1-7-3-2-5-6(7)8(5,9)4-7/h5-6,9H,2-4H2,1H3/t5-,6-,7-,8+/m0/s1
