18
gdb 83625	3.14177	1.50128	1.08738	4.3707	80.67	-0.2341	-0.0272	0.2068	1108.949	0.149071	-401.969168	-401.961298	-401.960354	-402.001489	30.075	
C	 0.0877020741	 1.4592598935	 0.3257983388	-0.350772
N	-0.0059377945	 0.0838352784	-0.106336848	-0.099722
C	-1.2065655433	-0.6921583858	-0.1124258316	-0.01454
C	-2.1420196639	-0.984091926	-1.3605395136	-0.252096
C	-1.9742536557	-2.5230606735	-1.0747670344	-0.304532
C	-0.7322427354	-2.0965822559	-0.3285774908	 0.240812
C	 0.5991153676	-2.1362769611	-0.4121065129	-0.339091
C	 1.1187035918	-0.7560087665	-0.1432614959	 0.408558
O	 2.2677471665	-0.3816668053	-0.0397655529	-0.393883
H	 1.148113146	 1.7176072765	 0.3578588317	 0.164442
H	-0.4239757058	 2.1308658982	-0.3724019462	 0.122136
H	-0.3439879858	 1.604561818	 1.3256009556	 0.117391
H	-1.819574126	-0.5222661268	 0.7817422451	 0.095531
H	-3.1533987708	-0.5758487826	-1.314083296	 0.111321
H	-1.6540435195	-0.6972774174	-2.292902284	 0.127529
H	-2.7715601206	-2.9056130083	-0.4311979068	 0.122897
H	-1.8426065201	-3.1922468876	-1.9258031358	 0.124977
H	 1.2478773755	-2.9300100779	-0.7541368524	 0.119041
136.1981	139.8778	154.5771	241.1022	276.2725	337.1671	373.9417	501.4889	597.1293	659.5954	703.9235	730.7709	766.9357	813.0711	851.2891	870.6659	916.123	940.2333	1001.8253	1058.4797	1068.8984	1087.9088	1130.0054	1157.0437	1161.8021	1196.23	1222.7427	1243.4749	1280.2474	1298.2903	1315.3426	1399.3428	1447.5703	1470.1542	1485.9404	1495.286	1515.5524	1692.5472	1801.2668	3006.7362	3026.5001	3065.3612	3065.5832	3075.6733	3128.7146	3136.5838	3149.8294	3239.2196
CN1C2CCC2=CC1=O	CN1[C@H]2CC[C]2[CH]C1=O	
InChI=1S/C7H9NO/c1-8-6-3-2-5(6)4-7(8)9/h4,6H,2-3H2,1H3	InChI=1S/C7H9NO/c1-8-6-3-2-5(6)4-7(8)9/h4,6H,2-3H2,1H3/t6-/m0/s1
