16
gdb 97877	6.80624	0.55281	0.5171	3.9303	81.35	-0.2664	-0.0878	0.1786	2055.5995	0.121052	-400.74471	-400.734485	-400.733541	-400.783108	33.87	
C	-0.0993199897	 1.6187641767	-0.0273577652	-0.367536
C	 0.0639487456	 0.0890982697	 0.0379711533	-0.316833
C	 0.7404486694	-0.4642190818	-1.129714491	 0.164667
C	 1.2996776077	-0.9010827296	-2.1013723625	 0.004418
C	 1.9707507914	-1.4465369754	-3.2658402671	-0.475359
C	 1.8561881205	-2.960995519	-3.4014500122	 0.305125
O	 1.2781050159	-3.6983497785	-2.651678879	-0.238732
C	 2.550237765	-3.4955373833	-4.5963570489	 0.217909
N	 3.0956979853	-3.9000075497	-5.5322551136	-0.293285
H	 0.8742154723	 2.1118451129	-0.093091446	 0.12984
H	-0.6861098164	 1.9107566561	-0.9023820589	 0.130259
H	-0.6107601829	 1.983319222	 0.8680178738	 0.120027
H	 0.6233658019	-0.1842601231	 0.9414713742	 0.135763
H	-0.9211268785	-0.3835107492	 0.1384858899	 0.137932
H	 1.5857431277	-1.0132766998	-4.2013434172	 0.172988
H	 3.0447837649	-1.206667748	-3.2705693597	 0.172816
8.8172	41.3827	61.344	152.2065	159.3083	179.567	257.6215	270.4068	347.6456	383.7474	457.4041	518.1734	565.9084	597.1972	753.8969	785.5235	831.0845	937.5731	966.7842	1059.6058	1080.1241	1104.5527	1171.1585	1214.506	1285.0298	1343.5919	1355.1108	1410.5609	1427.7409	1474.2522	1495.6822	1505.1813	1815.7298	2336.7941	2378.0332	3002.6991	3025.8297	3026.0803	3046.8579	3054.4053	3121.4313	3125.3119
CCC#CCC(=O)C#N	CCC#CCC(=O)C#N	
InChI=1S/C7H7NO/c1-2-3-4-5-7(9)6-8/h2,5H2,1H3	InChI=1S/C7H7NO/c1-2-3-4-5-7(9)6-8/h2,5H2,1H3
