17
gdb 9724	2.85065	1.94279	1.64261	4.018	67.76	-0.2733	0.0288	0.3021	879.8673	0.142544	-363.88961	-363.881641	-363.880697	-363.92219	29.059	
C	-0.0505414924	 1.5287834512	 0.0170288236	-0.429425
C	 0.0317794903	 0.0045445667	-0.049774414	 0.2289
C	 0.8289033086	-0.5538127015	-1.2470716715	-0.241713
C	 1.2735466625	-1.9257988371	-0.7218587374	-0.251068
C	 1.4459430823	-1.67212336	 0.7885986076	-0.070213
O	 0.734779691	-0.461489111	 1.0950407891	-0.278132
C	-1.3426017906	-0.570570614	-0.0530649997	 0.260976
N	-2.4035289066	-1.0293968465	-0.0567189026	-0.343953
H	 0.9621525599	 1.9392247081	 0.0269425769	 0.129135
H	-0.5930135299	 1.9241334682	-0.8458298751	 0.134726
H	-0.5664113296	 1.8419221504	 0.9273544609	 0.147134
H	 0.2409434516	-0.6038983413	-2.165228388	 0.125481
H	 1.687589366	 0.1032748926	-1.4177450134	 0.112726
H	 0.4928252737	-2.670146725	-0.9012165766	 0.132114
H	 2.1916183711	-2.2834315632	-1.1922803288	 0.114393
H	 1.0484135663	-2.4927504424	 1.3953842178	 0.117613
H	 2.4942031958	-1.5160073753	 1.0673318809	 0.111305
57.9823	135.1634	191.1249	214.8878	230.8207	314.0633	402.2316	491.7193	575.3428	625.986	656.1932	732.346	848.0412	870.1759	903.8132	918.3043	936.5324	1021.2653	1047.6682	1061.3541	1129.584	1184.5607	1198.9233	1220.8572	1232.3654	1267.961	1326.8858	1341.7957	1388.3952	1407.9685	1477.7132	1483.5485	1492.9703	1500.3224	1532.3607	2347.0812	3033.9385	3051.8675	3059.2929	3064.7889	3075.0252	3117.3796	3127.5091	3133.222	3138.0853
CC1(CCCO1)C#N	C[C@]1(CCCO1)C#N	
InChI=1S/C6H9NO/c1-6(5-7)3-2-4-8-6/h2-4H2,1H3	InChI=1S/C6H9NO/c1-6(5-7)3-2-4-8-6/h2-4H2,1H3/t6-/m0/s1
