15
gdb 52599	2.05205	1.11238	0.91651	2.2002	82.5	-0.2585	-0.0049	0.2536	1369.444	0.106549	-383.370233	-383.359614	-383.35867	-383.407095	37.029	
C	-0.0386535577	 1.4844732361	 0.0226462539	-0.501258
C	-0.0010325921	 0.0305974374	-0.0004712413	 0.037623
C	 0.0383155988	-1.1716583184	-0.0276897292	 0.124958
C	 0.0392347567	-2.6475768494	-0.0406290849	-0.239634
O	-1.2949716982	-3.1592707186	-0.1378578606	-0.416134
C	 0.765825875	-3.1427841519	-1.2226771185	 0.398111
C	 1.3737207504	-3.536808666	-2.1785439013	-0.452081
C	 0.6925267803	-3.1466736075	 1.1898089922	 0.351465
C	 1.1827190341	-3.5535319219	 2.207639688	-0.469367
H	 0.6598685838	 1.9060439472	-0.7080252316	 0.157909
H	-1.0396755661	 1.8565878239	-0.220548634	 0.155391
H	 0.2333214652	 1.8728944842	 1.0098719966	 0.154657
H	-1.7787297233	-2.8065337354	 0.6192810738	 0.288806
H	 1.9082147265	-3.8879639002	-3.0266083648	 0.20468
H	 1.6262245966	-3.9162990693	 3.1021172816	 0.204874
20.0198	78.9479	95.697	129.0048	192.9585	209.3972	247.6707	280.8231	334.6902	368.6062	471.4534	501.7922	523.9947	552.1939	558.2012	642.9319	646.8333	666.223	669.6515	673.1736	927.4816	1025.2435	1047.0203	1051.9737	1058.0549	1184.8281	1371.4879	1412.6209	1475.1465	1476.0464	2236.8164	2251.952	2370.9548	3031.0881	3094.5919	3095.3	3500.5846	3502.2593	3791.8512
CC#CC(O)(C#C)C#C	CC#CC(O)(C#C)C#C	
InChI=1S/C8H6O/c1-4-7-8(9,5-2)6-3/h2-3,9H,1H3	InChI=1S/C8H6O/c1-4-7-8(9,5-2)6-3/h2-3,9H,1H3
