19
gdb 121007	3.49965	0.95499	0.83171	2.3645	73.84	-0.224	0.059	0.2831	1438.7577	0.159761	-456.37257	-456.363403	-456.362459	-456.407253	33.423	
C	-0.1544434442	 1.5302136983	-0.09226009	-0.38536
C	-0.0049326313	 0.0236497278	 0.0219391862	-0.045288
O	 0.7140216432	-0.4409742806	-1.1174974219	-0.23743
C	 0.8487270767	-1.8174757304	-1.1949189735	 0.185838
C	 1.5796085058	-2.2000775181	-2.5005809498	-0.200324
N	 2.9235744309	-2.603107086	-2.0883419456	-0.344491
C	 2.8934495636	-2.6434002586	-0.8158522366	 0.462916
N	 3.8957260466	-3.0574436181	 0.0197879514	-0.580215
O	 1.7373356037	-2.3125020242	-0.1649120657	-0.259822
H	 0.8268167395	 2.0118550451	-0.1255253502	 0.13006
H	-0.6972292423	 1.796141217	-1.0036878498	 0.127829
H	-0.7045848507	 1.9226818375	 0.76810207	 0.11709
H	 0.5332644398	-0.2496830868	 0.9388923609	 0.106553
H	-0.9910259307	-0.4666582475	 0.0590190975	 0.091053
H	-0.1160694261	-2.314029263	-1.0274561238	 0.076364
H	 1.0688042804	-3.018566496	-3.0222039483	 0.106618
H	 1.6062121427	-1.3357926319	-3.1709299884	 0.120696
H	 4.8025527767	-3.0856255464	-0.420368815	 0.26726
H	 3.8865654158	-2.6411131082	 0.9382147428	 0.26065
51.4732	86.156	121.461	177.2284	242.6792	251.4965	352.8306	361.2094	395.3481	457.1993	550.9038	578.6543	703.1648	747.7033	800.9481	820.2921	855.8137	913.9177	953.1523	972.5191	1008.9874	1043.445	1073.8848	1147.7935	1151.3238	1177.4917	1186.8579	1231.099	1295.4627	1306.0884	1341.9116	1370.4527	1405.2322	1426.7256	1448.4488	1483.7709	1493.4844	1500.3216	1527.4564	1618.9319	1765.7677	2978.9494	3018.4729	3034.1618	3037.2169	3046.0246	3083.341	3120.7764	3123.3994	3586.5028	3699.0318
CCOC1CN=C(N)O1	CCO[C@H]1C[N][C](N)O1	
InChI=1S/C5H10N2O2/c1-2-8-4-3-7-5(6)9-4/h4H,2-3H2,1H3,(H2,6,7)	InChI=1S/C5H10N2O2/c1-2-8-4-3-7-5(6)9-4/h4H,2-3H2,1H3,(H2,6,7)/t4-/m1/s1
