14
gdb 129723	2.43019	1.92485	1.0747	0.8137	73.47	-0.1952	-0.0464	0.1487	1023.0386	0.102811	-466.178105	-466.170405	-466.16946	-466.209911	29.999	
N	 0.0137762487	 1.389229539	 0.1201679927	-0.594221
C	-0.0071011006	 0.0319793116	 0.0420216898	 0.214736
C	-1.135696168	-0.7429160252	 0.0159959974	 0.387157
O	-2.3559877346	-0.1479644494	 0.0221536843	-0.435479
N	-1.1340251651	-2.1041477416	-0.0140649603	-0.290582
N	-0.0411648626	-2.7597278066	-0.0279943304	-0.085197
N	 1.1066283179	-2.0402629068	-0.0169814621	-0.320115
C	 1.2670605671	-0.6583054462	 0.0060235676	 0.382684
N	 2.3722654423	 0.0004487094	-0.0084492324	-0.585362
H	 0.9105092877	 1.8089071653	-0.0796153776	 0.279368
H	-0.8200447629	 1.8945389928	-0.1275468301	 0.269425
H	-3.0089582674	-0.8602824461	-0.0016274008	 0.304539
H	 1.9281201144	-2.6271006405	-0.0395437957	 0.268907
H	 3.191731013	-0.6036894958	-0.0450476024	 0.20414
130.9345	191.5286	274.4304	294.1882	332.9554	399.028	430.4279	508.8353	516.0603	536.6585	554.6601	570.9237	620.8051	678.3861	708.4807	748.7838	766.6738	931.5636	986.2842	1073.7477	1130.9251	1175.016	1281.8212	1342.5608	1369.6346	1394.488	1472.6228	1524.9228	1608.2835	1693.5926	1705.1796	3491.7766	3572.5047	3617.2902	3712.9397	3779.8426
NC1=C(O)N=NNC1=N	Nc1c(O)nn[nH]c1[NH]	
InChI=1S/C3H5N5O/c4-1-2(5)6-8-7-3(1)9/h(H2,4,8)(H3,5,6,7,9)	InChI=1S/C3H10N5O/c4-1-2(5)6-8-7-3(1)9/h1-3,5-9H,4H2
