20
gdb 8001	3.18158	1.59941	1.17634	1.3893	77.67	-0.236	0.0227	0.2588	1082.9404	0.176551	-349.028396	-349.019632	-349.018688	-349.061493	32.928	
C	-0.0031625845	 1.5760734586	-0.046863321	-0.39417
C	 0.0374344596	 0.044706162	 0.0135372828	-0.008366
C	 0.7736893576	-0.6217122159	-1.1764611159	-0.253573
C	 1.5230599718	-1.8414676496	-0.5896829467	 0.059038
O	 2.7902751295	-2.0953949812	-1.1877372667	-0.432394
C	 1.5859241244	-1.5357708816	 0.8981215096	 0.266629
C	 2.4303561848	-2.3638966332	 1.8134970822	-0.485622
C	 0.7833736128	-0.5149984143	 1.2051259426	-0.173079
H	 1.0100966113	 1.9928573016	-0.0674505423	 0.111024
H	-0.5286481602	 1.922104622	-0.9433364107	 0.113378
H	-0.5197036135	 1.9941503092	 0.8239708682	 0.111799
H	-1.0027431243	-0.3145614091	 0.0444682686	 0.079101
H	 0.1123823623	-0.8843321874	-2.0060030473	 0.099901
H	 1.5242577777	 0.0746450782	-1.572970598	 0.089
H	 0.9663772202	-2.7732669533	-0.760108378	 0.089043
H	 3.3237040241	-1.3004957283	-1.0733804272	 0.2723
H	 3.4650676488	-2.407773484	 1.4566915652	 0.127989
H	 2.4258782829	-1.9747692019	 2.8350589373	 0.118134
H	 2.0741045061	-3.4021602115	 1.8415534357	 0.126857
H	 0.6303010985	-0.1296671004	 2.2096202314	 0.083012
68.6358	138.7745	168.3596	229.7068	242.3731	288.1292	329.4729	363.6037	430.9249	454.4537	560.9231	603.9869	622.5115	802.2652	854.5864	869.9795	924.7411	939.8964	988.9994	1007.9661	1047.238	1063.4585	1087.0949	1097.3243	1131.6411	1185.996	1215.4795	1262.2262	1275.1157	1312.642	1316.8609	1338.5971	1365.1885	1406.9501	1409.5116	1426.6939	1473.9771	1483.9742	1488.8698	1496.9165	1498.0027	1722.6721	2978.9181	3012.8738	3021.3087	3023.7814	3027.3077	3074.4898	3093.4371	3096.4364	3098.5171	3115.258	3166.6556	3791.3028
CC1CC(O)C(C)=C1	C[C@H]1C[C@@H](O)C(=C1)C	
InChI=1S/C7H12O/c1-5-3-6(2)7(8)4-5/h3,5,7-8H,4H2,1-2H3	InChI=1S/C7H12O/c1-5-3-6(2)7(8)4-5/h3,5,7-8H,4H2,1-2H3/t5-,7-/m1/s1
