16
gdb 6872	2.91004	1.68382	1.47596	3.747	66.26	-0.2557	0.0259	0.2816	922.6749	0.129295	-379.915369	-379.906631	-379.905687	-379.948115	31.937	
C	-0.0859911189	 1.5365286711	-0.1238883472	-0.453381
C	 0.0322422714	 0.0279143045	-0.0522166075	 0.227081
N	-1.0632640169	-0.7744391337	-0.5469413106	-0.550092
C	 1.3742758776	-0.6146883416	-0.2192579752	 0.091008
O	 2.4537585293	 0.2210042415	-0.4558350164	-0.409386
C	 0.7131068689	-0.6178537226	 1.1679573032	-0.267244
C	 1.2905666505	 0.1808161076	 2.2047007991	 0.296259
N	 1.7782084765	 0.8136136169	 3.0427384969	-0.348885
H	 0.809804774	 2.0363440641	 0.2465580171	 0.15515
H	-0.2403334159	 1.8455255642	-1.1636363925	 0.118371
H	-0.9443953843	 1.8788167823	 0.4640365396	 0.120101
H	-1.9267315748	-0.509729938	-0.0795151595	 0.234278
H	-1.2017150674	-0.5907235353	-1.5377182969	 0.234863
H	 1.3928077009	-1.5818089711	-0.7191557411	 0.110026
H	 3.1998561811	-0.0694875538	 0.0806351697	 0.303975
H	 0.284622248	-1.559356406	 1.4917504613	 0.137874
109.294	139.8192	180.7776	209.1875	246.6824	269.5337	315.2539	379.2714	391.6023	421.2087	514.0476	559.6664	653.9581	704.6869	827.9467	846.5838	885.8101	954.3169	1008.4552	1042.2872	1078.0649	1105.8508	1175.1125	1244.6457	1270.3611	1276.4113	1319.2529	1355.3732	1415.0699	1451.1871	1487.0327	1499.2681	1657.6708	2346.5693	3035.3908	3095.7618	3120.4986	3146.1546	3183.5527	3476.5006	3552.2269	3801.544
CC1(N)C(O)C1C#N	C[C@@]1(N)[C@@H](O)[C@H]1C#N	
InChI=1S/C5H8N2O/c1-5(7)3(2-6)4(5)8/h3-4,8H,7H2,1H3	InChI=1S/C5H8N2O/c1-5(7)3(2-6)4(5)8/h3-4,8H,7H2,1H3/t3-,4+,5+/m1/s1
