16
gdb 69077	2.6939	1.71441	1.27771	1.5973	70.56	-0.2556	-0.0388	0.2169	986.5235	0.123361	-437.899208	-437.89135	-437.890406	-437.931331	29.781	
C	-0.0730950525	 1.4942830396	 0.1358863469	-0.475424
C	 0.0203513071	-0.0032273646	 0.0463938462	 0.283163
C	-0.8068361044	-0.9096065117	 0.9077490561	-0.364687
C	 0.6838695301	-0.9361219167	 1.1282631153	 0.251169
O	 1.4220405962	-1.8859442881	 0.3802754274	-0.24583
C	 1.1768993324	-1.588158902	-0.9244692636	 0.08166
N	 0.4568909589	-0.5783129821	-1.2012485495	-0.284009
C	 1.3284284372	-0.4691063442	 2.3631081815	 0.083897
O	 0.7972392023	 0.2769716205	 3.1539248164	-0.276067
H	 0.8272000792	 1.9643358128	-0.2691918406	 0.130769
H	-0.9328430947	 1.8511199884	-0.4400658174	 0.137015
H	-0.1958551593	 1.8049725568	 1.1762142791	 0.150012
H	-1.3531364492	-0.4386592634	 1.7179571031	 0.150955
H	-1.265610296	-1.7865113428	 0.4629650172	 0.131073
H	 1.6389903653	-2.2594661117	-1.637287573	 0.15256
H	 2.3664392273	-0.8401601506	 2.498855525	 0.093745
128.5214	173.1581	197.8581	228.8855	278.7985	330.6708	407.1984	429.8991	527.0094	602.2258	611.3341	667.1017	763.5967	784.628	913.8306	935.0034	948.3691	974.0432	983.5798	1038.6114	1057.6836	1097.9059	1137.4002	1160.5448	1235.8501	1296.0005	1339.2439	1359.0734	1417.6314	1420.5902	1455.8538	1487.8035	1495.7359	1666.1654	1796.294	2912.9837	3044.8899	3112.7399	3130.16	3134.4087	3230.1997	3235.9035
CC12CC1(OC=N2)C=O	C[C@]12C[C@]1(OC=N2)C=O	
InChI=1S/C6H7NO2/c1-5-2-6(5,3-8)9-4-7-5/h3-4H,2H2,1H3	InChI=1S/C6H7NO2/c1-5-2-6(5,3-8)9-4-7-5/h3-4H,2H2,1H3/t5-,6-/m0/s1
