14
gdb 10460	3.0079	1.5801	1.19097	3.9358	62.71	-0.2681	-0.0451	0.223	983.7736	0.105924	-378.707448	-378.699456	-378.698512	-378.741081	27.565	
O	 0.3729003259	-0.1712661294	-0.0566783461	-0.229513
C	 0.091496849	 0.9924580132	-0.171338771	 0.160215
C	 1.0799887612	 2.1224577006	 0.0762714297	-0.367673
C	 1.2324983451	 3.0249192598	-1.1445169048	 0.131987
C	 2.5820484481	 3.5697289864	-1.4898653465	-0.262162
N	 1.9742410668	 2.5325919752	-2.3237867267	-0.315963
C	 0.0600653177	 3.8193662018	-1.4590511653	 0.286787
N	-0.8823430051	 4.4569721779	-1.6629207739	-0.33181
H	-0.9261088777	 1.3186349918	-0.4769344135	 0.111375
H	 0.7198142549	 2.7185792183	 0.9250669871	 0.148156
H	 2.0448833713	 1.6835719474	 0.3443781863	 0.129584
H	 2.6583600838	 4.5460263349	-1.9576663166	 0.151803
H	 3.3971326286	 3.3107328646	-0.8194832354	 0.133758
H	 2.3665521805	 1.6169876674	-2.1134863633	 0.253456
37.4966	73.7634	157.5392	215.5713	239.3963	352.8877	395.3177	476.674	570.5919	591.7307	676.7775	817.3892	844.9222	906.7048	942.7298	985.2744	1029.9793	1053.7732	1106.0027	1147.271	1197.6442	1239.1414	1291.4947	1317.9465	1373.4982	1425.4159	1455.2508	1506.7884	1835.7019	2357.9593	2907.5915	3031.5736	3106.7302	3117.3703	3211.4698	3498.0694
O=CCC1(CN1)C#N	O=CC[C@]1(CN1)C#N	
InChI=1S/C5H6N2O/c6-3-5(1-2-8)4-7-5/h2,7H,1,4H2	InChI=1S/C5H6N2O/c6-3-5(1-2-8)4-7-5/h2,7H,1,4H2/t5-/m1/s1
