15
gdb 52561	3.46	0.698	0.58509	2.3325	80.04	-0.2698	-0.0333	0.2364	1811.8677	0.109977	-416.785829	-416.775877	-416.774933	-416.824903	32.733	
C	 0.211558555	 1.3677429001	 0.0071761569	-0.5078
C	 0.0892120655	-0.0794664018	 0.0005345375	 0.242549
C	-0.0198717801	-1.2784913785	-0.0049238689	 0.013093
C	-0.1464128716	-2.7025994868	-0.0115843172	 0.200338
N	-1.278048904	-3.2770442415	-0.0036788161	-0.521528
O	 1.1037329736	-3.2774926093	-0.0264864679	-0.230605
C	 1.150193711	-4.6930625629	-0.0345319522	-0.241291
C	 2.5539903645	-5.1050047704	-0.0501878611	 0.279019
N	 3.6481055827	-5.4718214806	-0.0626418501	-0.281909
H	 1.2620156532	 1.6759224062	-0.0009457095	 0.162082
H	-0.277100514	 1.8041806731	-0.8704985879	 0.163336
H	-0.2606361985	 1.7946651116	 0.8984371929	 0.163334
H	-1.2260847714	-4.2936052223	-0.009545656	 0.231193
H	 0.6638938658	-5.1125461369	 0.8569517598	 0.164094
H	 0.6468681684	-5.10299144	-0.9209960201	 0.164096
3.1936	66.2073	66.7153	100.8551	162.776	186.4064	295.4761	321.0936	382.7318	389.8189	449.4874	508.0332	611.9504	708.9447	789.9717	817.2853	966.3114	978.296	1039.5105	1047.443	1052.834	1113.6424	1129.4481	1253.958	1312.0818	1406.4461	1411.5208	1471.2074	1472.2805	1495.6781	1705.1719	2373.5652	2379.1773	3008.7053	3033.7647	3046.4032	3097.6123	3101.9706	3516.4534
CC#CC(=N)OCC#N	CC#C[C]([NH])OCC#N	
InChI=1S/C6H6N2O/c1-2-3-6(8)9-5-4-7/h8H,5H2,1H3	InChI=1S/C6H6N2O/c1-2-3-6(8)9-5-4-7/h8H,5H2,1H3
