16
gdb 32712	6.23595	0.83681	0.74121	3.174	82.23	-0.1961	-0.0111	0.185	1483.3426	0.125394	-434.107541	-434.098824	-434.09788	-434.142714	29.902	
C	-0.0358562246	 1.5137798076	 0.0108578351	-0.312796
N	-0.066035001	 0.0626311474	 0.0029163797	-0.281066
C	-1.2120026428	-0.6414545157	 0.0102275668	 0.122765
N	-2.3619353837	-0.0562769143	 0.024604442	-0.38498
C	-3.4636910807	-0.8639276806	 0.0316841685	 0.482778
N	-3.5764744822	-2.1663949137	 0.0293098769	-0.352492
C	-4.9429801978	-2.3945417944	 0.0402518222	-0.113961
C	-5.5965839814	-1.2099955727	 0.0486421502	-0.052118
O	-4.6576798716	-0.2146258527	 0.043379577	-0.182989
H	 1.0036122109	 1.8456513656	 0.0031625617	 0.125386
H	-0.5520478765	 1.9173825472	-0.865944229	 0.150237
H	-0.5357690856	 1.9072816861	 0.9015641775	 0.15027
H	 0.8001790301	-0.4452317029	-0.0084798628	 0.260412
H	-1.093100976	-1.7282906028	 0.0031716106	 0.139145
H	-5.3536928395	-3.392198907	 0.0412619505	 0.113762
H	-6.6277258876	-0.9033213771	 0.0580893931	 0.135646
35.7847	50.2444	114.7097	128.3576	233.824	243.3861	363.4977	461.9945	478.5534	603.3072	626.3626	721.3207	777.8636	856.9848	860.9379	936.0387	983.1593	987.9444	1019.3887	1111.1314	1150.7875	1159.8999	1172.1276	1188.6719	1238.3775	1295.2801	1361.4947	1429.4639	1455.7936	1472.1986	1508.4725	1546.5708	1558.1057	1587.6721	1700.5818	3040.5991	3097.4569	3099.6766	3141.0647	3255.9353	3301.5701	3684.9857
CNC=NC1=NC=CO1	CNC=Nc1ncco1	
InChI=1S/C5H7N3O/c1-6-4-8-5-7-2-3-9-5/h2-4H,1H3,(H,6,7,8)	InChI=1S/C5H7N3O/c1-6-4-8-5-7-2-3-9-5/h2-4H,1H3,(H,6,7,8)
