20
gdb 103106	2.90935	1.10115	1.01226	1.5061	82.58	-0.2278	0.029	0.2568	1274.5514	0.167464	-403.081649	-403.071187	-403.070243	-403.116855	38.266	
C	-0.2851721042	 1.3897064416	 0.1666402723	-0.321403
N	 0.0591245355	-0.0261321135	 0.2362462646	-0.14374
C	 1.3936943704	-0.4675150949	-0.2309962145	-0.28425
C	 2.372724857	 0.4701349578	-0.7054654087	 0.347652
C	 3.1925254	 1.2399359636	-1.1341911481	-0.448566
C	 1.015621733	-0.5216590324	 1.2286141853	 0.277648
C	 1.6694567833	 0.3923853055	 2.2432650036	-0.468076
C	 0.5657652336	-1.8636053336	 1.7898361681	-0.101313
O	-0.5651897466	-1.7033731089	 2.62861047	-0.419683
H	 0.567776064	 2.0768333879	 0.2238886281	 0.123321
H	-0.8008202627	 1.5727199238	-0.7810888609	 0.128737
H	-0.9784630338	 1.621540232	 0.9808861847	 0.122651
H	 1.3643948364	-1.3963207006	-0.7988301333	 0.109722
H	 3.9220720332	 1.9146216179	-1.5088144903	 0.199823
H	 1.93739235	 1.3646093873	 1.8293692511	 0.13002
H	 0.9951610768	 0.5363844783	 3.0929504559	 0.135617
H	 2.5873825535	-0.0702095851	 2.6205248899	 0.12618
H	 0.3524979794	-2.555873622	 0.9624805764	 0.089261
H	 1.3519984681	-2.3062678758	 2.4104773871	 0.107114
H	-1.2514238371	-1.319345289	 2.0694850688	 0.289283
65.1592	122.4097	127.9551	151.3962	164.7863	193.2472	258.2432	295.5993	338.9137	376.0294	418.5387	449.4359	477.8937	589.5788	597.3976	634.808	660.3062	713.3959	765.8856	866.2665	938.8682	967.1652	1041.2795	1048.0568	1067.5903	1116.7532	1148.7097	1152.6028	1171.3946	1207.9443	1288.1834	1331.4056	1379.8812	1401.5824	1414.4142	1424.3504	1454.0375	1479.7196	1485.1177	1496.1931	1499.0616	1514.3173	2228.515	2996.6048	3019.2317	3046.4241	3077.3266	3085.5715	3105.6684	3107.5412	3109.9756	3146.4354	3502.1619	3786.9743
CN1C(C#C)C1(C)CO	CN1[C@@H](C#C)[C@]1(C)CO	
InChI=1S/C7H11NO/c1-4-6-7(2,5-9)8(6)3/h1,6,9H,5H2,2-3H3	InChI=1S/C7H11NO/c1-4-6-7(2,5-9)8(6)3/h1,6,9H,5H2,2-3H3/t6-,7-,8?/m0/s1
