19
gdb 16769	3.97196	1.60692	1.51808	1.6602	70.97	-0.2188	0.082	0.3009	933.0714	0.167007	-365.033575	-365.026127	-365.025183	-365.065172	28.651	
C	-0.5810455349	 0.8181831473	 0.0831726006	-0.240079
O	-0.0231814518	-0.4541056667	-0.1502066105	-0.237299
C	 0.8928318119	-0.4944348753	-1.2401306197	 0.090819
C	 1.6698040638	-1.8229602104	-1.1702520882	-0.242922
C	 0.9288888743	-2.7541245933	-2.1170948442	-0.017379
C	-0.5501555892	-2.8271214557	-2.0013855264	-0.24859
N	 0.069617031	-1.9711128971	-3.029785714	-0.100158
C	 0.1999291237	-0.5603225203	-2.6264741568	-0.176793
H	 0.200682663	 1.5704897194	 0.2740420405	 0.105323
H	-1.1979489655	 1.1723275908	-0.7560139627	 0.107675
H	-1.2154411606	 0.7349728071	 0.9690229876	 0.128671
H	 1.5624208641	 0.3752487992	-1.1684492167	 0.066802
H	 2.6961450125	-1.6769196286	-1.5230683597	 0.104782
H	 1.7150103654	-2.1833429472	-0.1395007126	 0.119225
H	 1.4796149331	-3.5781493691	-2.5621032301	 0.085451
H	-1.0783400171	-3.6880336039	-2.4019310073	 0.108561
H	-1.0150762357	-2.3533979939	-1.1423788265	 0.132891
H	-0.7779590848	-0.0691113413	-2.624297941	 0.109006
H	 0.8219822968	-0.0586835108	-3.3770523123	 0.104013
107.7492	150.0019	204.4617	268.8972	325.2711	382.5806	413.9962	456.2512	672.7085	737.5095	781.7333	808.5914	845.6182	871.1746	921.079	954.8268	999.454	1006.4769	1068.719	1099.3221	1113.0163	1122.9005	1143.8257	1174.2779	1183.1505	1199.252	1218.6858	1253.2401	1271.9401	1288.3189	1333.5978	1337.0976	1384.9002	1405.4683	1473.3653	1478.4702	1483.3509	1490.7855	1506.9174	1512.9498	2974.0907	2990.5741	3022.6786	3037.9945	3054.5506	3089.5415	3106.3107	3112.9432	3114.0799	3145.4077	3207.4111
COC1CC2CN2C1	CO[C@H]1C[C@H]2CN2C1	
InChI=1S/C6H11NO/c1-8-6-2-5-3-7(5)4-6/h5-6H,2-4H2,1H3	InChI=1S/C6H11NO/c1-8-6-2-5-3-7(5)4-6/h5-6H,2-4H2,1H3/t5-,6-,7?/m0/s1
