19
gdb 59815	4.5528	0.62221	0.62068	1.7575	78.72	-0.2566	0.0075	0.2642	1885.2356	0.156527	-456.400093	-456.389467	-456.388522	-456.436758	37.075	
C	-0.0895200836	 1.5363289264	 0.0393935099	-0.369916
C	-0.042909973	 0.0042543481	 0.0399081738	 0.057659
C	 0.6773715399	-0.5369576032	 1.2799506809	-0.36996
N	-1.4112799054	-0.5067899185	 0.0316227287	-0.209927
C	-1.7546349735	-1.2162298012	-0.9429666632	 0.109115
O	-3.0350454832	-1.7090436976	-0.9781189701	-0.23872
C	-3.3748592567	-2.4937635284	-2.0607900857	 0.515987
N	-4.6735699059	-2.8586804487	-1.9363966577	-0.563661
O	-2.6343237448	-2.7846795175	-2.9661226878	-0.383057
H	 0.9229753637	 1.951457597	 0.0665125975	 0.110144
H	-0.5916971018	 1.9112222282	-0.8572358682	 0.114715
H	-0.639471671	 1.8996007034	 0.9130299458	 0.125246
H	 0.5075620177	-0.3290107971	-0.8573835616	 0.064077
H	 0.1490843142	-0.2326032971	 2.1887640573	 0.12519
H	 0.7184110096	-1.6299753538	 1.2616051581	 0.114332
H	 1.7018845044	-0.1543367452	 1.326716365	 0.110216
H	-1.153600524	-1.5106810781	-1.806096597	 0.135213
H	-5.179436353	-2.656673776	-1.0922286107	 0.276603
H	-5.0409676034	-3.5208160107	-2.5958487651	 0.276742
40.4701	65.0938	118.9384	126.2578	170.7311	216.4348	241.2939	261.9923	283.622	309.617	411.092	474.3123	518.5881	542.8843	567.4215	674.7655	775.8619	837.1304	931.3215	941.6369	956.3201	1001.0484	1007.4155	1107.1359	1135.9182	1162.6353	1177.4121	1213.3834	1332.0625	1356.1889	1362.9207	1394.3793	1399.818	1414.5267	1481.1759	1487.3475	1494.0391	1510.6829	1606.4926	1772.5642	1856.5969	2941.7302	3034.5126	3038.6989	3108.387	3111.1922	3112.1307	3112.3135	3116.4359	3627.8209	3764.8759
CC(C)N=COC(N)=O	CC(C)N=COC(=O)N	
InChI=1S/C5H10N2O2/c1-4(2)7-3-9-5(6)8/h3-4H,1-2H3,(H2,6,8)	InChI=1S/C5H10N2O2/c1-4(2)7-3-9-5(6)8/h3-4H,1-2H3,(H2,6,8)
