15
gdb 7476	4.12925	1.40851	1.30969	1.9057	60.91	-0.2656	0.0115	0.2771	947.3683	0.118003	-399.786358	-399.778515	-399.777571	-399.81892	28.174	
O	-0.0219534356	 1.4861689572	-0.1270158997	-0.470157
C	 0.0019118993	 0.0940640396	 0.0084317134	 0.347028
C	 0.9179038558	-0.5710988183	-1.0400048962	-0.384713
C	 2.290138918	-0.0873730706	-0.9085288475	 0.240447
N	 3.3496601413	 0.3509935585	-0.7607564707	-0.301122
C	 0.1434206631	-0.5072297982	 1.4326643572	-0.12414
O	-1.0519631209	-1.2920610176	 1.237202287	-0.270941
C	-1.4018393224	-0.5368901289	 0.0600132418	-0.11589
H	 0.880756702	 1.8235840861	-0.066307852	 0.298451
H	 0.8968745725	-1.659205436	-0.9211611513	 0.16612
H	 0.5513387477	-0.3326595526	-2.0443406348	 0.161828
H	 1.0192317164	-1.1283264043	 1.6493536021	 0.114269
H	 0.019316402	 0.2523209604	 2.21467212	 0.111872
H	-2.1786070309	 0.2124239577	 0.255468224	 0.118744
H	-1.7051742382	-1.1799053028	-0.7735983933	 0.108206
76.5396	108.4356	133.2714	292.0998	343.2793	359.2179	402.5798	412.1991	435.308	538.3431	713.3037	818.5815	891.4172	916.0813	958.4816	969.2759	1003.0825	1026.3493	1061.5804	1147.3233	1150.0417	1166.8449	1243.4944	1287.1426	1295.3715	1302.8898	1358.5273	1412.7814	1457.4817	1501.6443	1527.6302	2356.263	3017.056	3027.723	3051.8966	3077.4241	3079.5138	3099.8606	3777.0998
OC1(CC#N)COC1	OC1(CC#N)COC1	
InChI=1S/C5H7NO2/c6-2-1-5(7)3-8-4-5/h7H,1,3-4H2	InChI=1S/C5H7NO2/c6-2-1-5(7)3-8-4-5/h7H,1,3-4H2
