17
gdb 47875	2.28728	1.73611	1.13376	5.8234	68.99	-0.2497	-0.0617	0.188	1073.1083	0.136599	-459.004025	-458.995833	-458.994889	-459.037387	30.012	
O	-0.0256445803	-0.0086455351	-0.0113197272	-0.273824
C	-0.0659018209	 1.1930309784	 0.039059617	 0.27248
C	-1.3494113089	 1.987307426	 0.1331928144	-0.312021
C	-1.8072046619	 2.3895428298	-1.2880510588	-0.201621
C	-0.6407314412	 2.868767024	-2.168207084	-0.237283
C	 0.3448257154	 3.7878414577	-1.447713034	-0.059938
O	 1.3687676799	 3.1461869663	-0.6617405751	-0.230366
C	 1.2701475877	 1.9855577582	 0.0218541681	 0.331966
O	 2.2165009572	 1.5729318265	 0.6299383918	-0.294743
H	-2.1053586003	 1.3710574302	 0.6245677037	 0.135115
H	-1.1827638382	 2.8840845388	 0.7411164138	 0.121436
H	-2.2901066893	 1.5305725415	-1.7632428156	 0.129112
H	-2.5627244661	 3.1776565274	-1.2045040144	 0.113243
H	-0.0857991329	 2.0157779014	-2.5774760679	 0.134223
H	-1.0362041032	 3.4151017874	-3.0309664678	 0.11803
H	 0.9179974233	 4.3666887874	-2.1753890368	 0.134439
H	-0.1844439705	 4.501228244	-0.8031400272	 0.119748
57.276	101.209	164.3483	242.6026	300.9491	322.9465	365.1582	410.1473	509.9111	583.0004	624.733	702.2193	789.8482	815.902	833.9827	921.6075	952.8198	976.2924	1049.9409	1065.3688	1101.5336	1119.2338	1187.0206	1203.3783	1252.8387	1288.5236	1301.2647	1334.2189	1373.1329	1385.9438	1431.3022	1478.2327	1483.9753	1497.6268	1517.4896	1824.4848	1832.5012	3027.8186	3039.8001	3042.9621	3049.0322	3079.504	3096.8284	3102.9275	3117.9881
O=C1CCCCOC1=O	O=C1CCCCOC1=O	
InChI=1S/C6H8O3/c7-5-3-1-2-4-9-6(5)8/h1-4H2	InChI=1S/C6H8O3/c7-5-3-1-2-4-9-6(5)8/h1-4H2
