19
gdb 88910	2.81649	0.96661	0.82767	3.0511	82.74	-0.2545	-0.0555	0.199	1443.2525	0.156449	-385.857179	-385.84728	-385.846336	-385.893295	35.489	
C	-0.123407315	 1.4560959595	-0.07350974	-0.40488
C	 0.5675879213	 0.1102035026	-0.0672864779	-0.007352
C	 1.9859045337	-0.0407649124	 0.4231674407	-0.285042
C	 0.851627943	-0.6691486749	 1.2007665416	 0.000722
C	 0.4531174625	-0.1653915527	 2.5804519703	-0.326114
C	 1.2973674992	-0.8283653347	 3.6581474699	 0.24727
O	 0.8929262027	-1.7438966613	 4.3414085425	-0.280936
C	 2.650448131	-0.3134226729	 3.8164166913	 0.295895
C	 3.759875305	 0.1286816715	 3.9695025078	-0.462164
H	 0.1965506712	 2.0877474279	 0.7602148131	 0.116137
H	 0.1055936891	 2.0005511459	-0.9961155774	 0.120391
H	-1.2123522919	 1.3494391488	-0.0131252002	 0.119749
H	 0.3006062934	-0.5160423449	-0.9150656563	 0.088047
H	 2.6702800077	-0.6873268067	-0.1147823559	 0.113384
H	 2.4573157705	 0.8356107499	 0.8571326269	 0.114919
H	 0.7570732851	-1.7479158906	 1.1077576223	 0.097516
H	 0.5784800065	 0.9200033847	 2.6444496667	 0.112733
H	-0.5911478488	-0.4133881579	 2.794775931	 0.123992
H	 4.7434962138	 0.5056115281	 4.1123109336	 0.215732
29.0518	57.2964	117.4011	155.693	189.703	213.113	254.7451	319.9895	388.5669	448.34	473.0071	616.0628	645.2777	683.2743	707.9945	761.2882	773.5688	840.4416	879.1837	891.4489	936.6005	970.3881	1040.037	1072.1999	1103.943	1115.0469	1154.0158	1181.1675	1199.6409	1246.56	1265.2663	1298.9718	1384.4766	1413.4696	1426.5172	1464.0197	1492.8851	1494.0864	1504.8708	1768.1956	2208.3171	3029.867	3047.8046	3088.8287	3097.9156	3105.825	3130.725	3132.7128	3144.7732	3214.3734	3494.3248
CC1CC1CC(=O)C#C	C[C@H]1C[C@H]1CC(=O)C#C	
InChI=1S/C8H10O/c1-3-8(9)5-7-4-6(7)2/h1,6-7H,4-5H2,2H3	InChI=1S/C8H10O/c1-3-8(9)5-7-4-6(7)2/h1,6-7H,4-5H2,2H3/t6-,7-/m0/s1
