19
gdb 44934	2.50506	1.80065	1.51679	2.6951	78.8	-0.2334	-0.0133	0.22	964.1076	0.162551	-385.939365	-385.932381	-385.931437	-385.970579	28.874	
O	-0.012191175	 0.0173641232	 0.1162359622	-0.328003
C	-0.0313613077	 1.2180181856	 0.0389308487	 0.424384
C	-1.2883099681	 2.1029007201	-0.0297147983	-0.318713
C	-0.7172118289	 3.5267155525	 0.1688134896	-0.062916
C	 0.6242455754	 3.4362346793	-0.5965580136	-0.237818
C	 1.2009752205	 2.1411202063	 0.0017949367	-0.119741
C	 1.6686924552	 2.4085890169	 1.4540982411	-0.261072
C	 0.6711334172	 3.2504204569	 2.212792641	-0.048625
C	-0.4173540778	 3.7636289321	 1.6375527489	-0.06735
H	-1.7436987107	 1.9852110881	-1.0220443396	 0.121503
H	-2.0254318749	 1.7909618027	 0.7134691304	 0.125876
H	-1.3805942701	 4.3008152215	-0.222847301	 0.070325
H	 0.4546930107	 3.3335655028	-1.6741570965	 0.096691
H	 1.2615293683	 4.3083981717	-0.4290820929	 0.103482
H	 2.0035810523	 1.6760211406	-0.5740312689	 0.086182
H	 1.8300558487	 1.4541452326	 1.9707771197	 0.126612
H	 2.646956812	 2.9096107207	 1.4363283973	 0.110752
H	 0.8730417469	 3.4253583111	 3.2665439857	 0.090009
H	-1.1295492239	 4.3423891853	 2.2191516396	 0.088424
98.5368	234.5394	271.7984	390.1789	426.9907	462.4057	493.6305	558.8804	619.09	656.2569	744.0282	772.3284	826.4862	840.861	880.3658	898.7589	940.3807	959.8465	967.1605	997.4986	1022.9514	1052.7661	1059.5589	1125.1792	1138.9257	1154.2866	1176.342	1200.825	1228.5999	1274.4607	1290.5556	1315.8293	1323.7197	1350.1656	1373.8797	1406.9236	1448.9625	1473.7829	1498.5995	1709.6749	1848.4548	3007.7413	3029.5243	3041.9233	3046.9409	3083.2929	3093.196	3098.6611	3110.7331	3150.7193	3174.2562
O=C1CC2CC1CC=C2	O=C1C[C@@H]2C[C@H]1CC=C2	
InChI=1S/C8H10O/c9-8-5-6-2-1-3-7(8)4-6/h1-2,6-7H,3-5H2	InChI=1S/C8H10O/c9-8-5-6-2-1-3-7(8)4-6/h1-2,6-7H,3-5H2/t6-,7+/m0/s1
