20
gdb 123120	2.75143	0.76017	0.67832	2.8993	72.6	-0.237	0.0317	0.2687	1710.8302	0.168529	-477.428222	-477.417406	-477.416462	-477.46599	37.013	
C	-0.403240432	 1.1647731572	-0.4608567889	-0.227937
O	 0.4073702401	 0.0143353936	-0.5193542491	-0.229486
C	-0.2902229755	-1.1327300231	-0.9414710081	-0.069306
C	 0.7134714243	-2.2858452468	-0.9367615574	-0.097002
O	 0.1656971607	-3.5147410705	-1.3866639461	-0.25183
C	-0.6709499365	-4.1887499801	-0.4625123989	-0.17953
C	-2.164589702	-4.1406965817	-0.809330212	 0.362443
N	-2.4330765095	-3.6345387417	-2.0412388455	-0.505351
O	-3.0025513903	-4.5498932061	-0.030702328	-0.362173
H	-0.8250689343	 1.4166095496	-1.4465875601	 0.105704
H	-1.237072311	 1.0400579858	 0.2474589254	 0.109581
H	 0.2268852619	 1.9913607085	-0.1242539112	 0.130002
H	-1.1383571727	-1.3470816967	-0.2698866844	 0.098557
H	-0.7050910603	-0.997469424	-1.9545536956	 0.085672
H	 1.5352738499	-2.0481040393	-1.6181459747	 0.121125
H	 1.1349732241	-2.3934737369	 0.072422175	 0.110685
H	-0.3810962725	-5.2468293023	-0.4514296113	 0.138727
H	-0.5513685058	-3.8076045973	 0.5580718071	 0.129988
H	-1.6713456641	-3.4090346985	-2.6585393388	 0.26811
H	-3.3785013045	-3.6636514796	-2.3844794176	 0.26202
32.8583	61.0555	79.3558	94.3263	124.0956	171.3866	229.89	277.9821	326.4687	351.3496	431.7769	457.2491	506.5151	511.1034	569.2139	680.9062	810.8785	862.0266	957.0193	1001.559	1024.1084	1061.8456	1093.9337	1138.2359	1166.3781	1167.8401	1196.0157	1229.3433	1251.9527	1287.7297	1315.1224	1354.5577	1365.8173	1372.4138	1436.0412	1469.3914	1481.208	1485.5724	1498.7904	1506.1712	1527.8359	1589.7895	1809.417	2955.181	2975.2099	2986.2242	3015.1813	3019.0043	3030.0978	3077.7926	3096.4693	3116.9146	3598.2593	3738.8551
COCCOCC(N)=O	COCCOCC(=O)N	
InChI=1S/C5H11NO3/c1-8-2-3-9-4-5(6)7/h2-4H2,1H3,(H2,6,7)	InChI=1S/C5H11NO3/c1-8-2-3-9-4-5(6)7/h2-4H2,1H3,(H2,6,7)
