18
gdb 133872	3.17344	2.01595	1.96622	0.8088	75.03	-0.2108	0.088	0.2988	817.6336	0.151201	-401.859197	-401.853493	-401.852549	-401.888757	25.714	
C	-1.0853671212	 1.7035183787	 0.4472199949	-0.322925
C	 0.4287119801	 1.4759803881	 0.0451560695	-0.083117
C	-0.0846508544	 0.3923205192	-0.9448867068	 0.118961
O	 0.5857191104	-0.8217557981	-1.2071364989	-0.281239
C	 0.4460061152	-1.5707583287	 0.0160377871	 0.074685
C	 1.2789841895	-0.77111204	 1.0183452578	-0.176181
N	 0.4663931943	 0.4665430196	 1.175017207	-0.14643
C	-0.8315731196	 0.177077501	 0.3981957233	 0.281965
C	-1.0475590588	-1.3141569039	 0.4879805159	-0.368667
H	-1.7449306164	 2.1285379478	-0.3111962001	 0.103466
H	-1.2269364538	 2.133148413	 1.4378968564	 0.118911
H	 1.1967631024	 2.2449235877	-0.0701562437	 0.079996
H	-0.6140077826	 0.7255758193	-1.842796359	 0.07631
H	 0.7262211305	-2.6081671754	-0.1704156077	 0.079997
H	 2.2825271808	-0.5812038951	 0.6272831604	 0.110522
H	 1.3678755106	-1.2494849037	 2.0001677237	 0.099562
H	-1.7707249482	-1.7139582848	-0.2250700461	 0.116273
H	-1.2349892288	-1.7028390146	 1.4908519864	 0.11791
341.8591	404.9408	420.1018	447.4187	486.3536	605.8036	626.4751	717.3918	766.672	774.8939	787.2643	808.2552	844.0115	875.696	917.0458	959.7181	973.0175	979.5697	1014.8525	1034.423	1046.6008	1083.4698	1100.4785	1117.0904	1124.9721	1158.3848	1171.8179	1192.9773	1199.4256	1223.8617	1241.5612	1266.5085	1310.2712	1320.6547	1329.5991	1386.572	1471.6941	1486.0777	1493.8342	3035.8116	3055.153	3077.0589	3079.7257	3089.5615	3093.2161	3116.0489	3143.6475	3167.8727
C1C2C3OC4CN2C13C4	C1[C@@H]2[C@H]3O[C@H]4CN2[C@@]13C4	
InChI=1S/C7H9NO/c1-4-3-8-5-2-7(1,8)6(5)9-4/h4-6H,1-3H2	InChI=1S/C7H9NO/c1-4-3-8-5-2-7(1,8)6(5)9-4/h4-6H,1-3H2/t4-,5-,6-,7+/m1/s1
