17
gdb 5307	4.41354	1.5396	1.18905	0.7508	70.9	-0.2006	0.038	0.2386	1001.3511	0.143467	-363.901528	-363.893756	-363.892812	-363.933737	29.544	
C	 0.1276921281	 1.4090391492	 0.8839748569	-0.398529
C	-0.1623026519	 0.3074103942	-0.1333779467	 0.005028
O	 0.8357944387	-0.723411789	-0.1050454149	-0.433379
C	-1.5313092845	-0.2898875074	 0.0244895032	 0.292708
C	-2.6913408018	 0.1437128162	 0.632884779	-0.24669
C	-3.6900431464	-0.8463455601	 0.4138328844	-0.146012
C	-3.111245884	-1.8576561651	-0.3178409693	-0.093985
N	-1.8084248455	-1.5059774086	-0.5533153536	-0.278112
H	 1.1442175583	 1.7839259064	 0.7414048653	 0.122653
H	-0.5708949927	 2.2430571412	 0.7681295901	 0.126208
H	 0.0312598511	 1.0285501697	 1.9067543656	 0.114588
H	-0.05430311	 0.7280316607	-1.1426385513	 0.101129
H	 0.7982288458	-1.1264947358	 0.7707568097	 0.277425
H	-2.8148800961	 1.0726813762	 1.1678892659	 0.08941
H	-4.712672052	-0.8193359442	 0.7575978729	 0.091565
H	-3.5102849867	-2.792327042	-0.67811466	 0.114051
H	-1.1071782503	-2.0616394314	-1.0131814773	 0.261941
57.9773	169.2939	191.936	247.3185	331.4441	369.5352	458.3918	482.3247	552.4191	623.5418	641.3225	712.5709	732.019	799.292	849.5923	882.869	898.5833	962.7182	1030.7341	1053.892	1080.6781	1097.7861	1133.4104	1144.8019	1246.2738	1274.9367	1285.8113	1357.1281	1400.7147	1418.2756	1440.7527	1455.3395	1486.6848	1492.1191	1500.3498	1605.7237	3010.9915	3037.7162	3108.684	3126.2497	3241.4886	3253.9683	3270.1892	3672.9715	3783.7713
CC(O)C1=CC=CN1	C[C@@H](O)c1ccc[nH]1	
InChI=1S/C6H9NO/c1-5(8)6-3-2-4-7-6/h2-5,7-8H,1H3	InChI=1S/C6H9NO/c1-5(8)6-3-2-4-7-6/h2-5,7-8H,1H3/t5-/m1/s1
