20
gdb 62137	4.87248	0.66025	0.63819	3.3461	82.89	-0.2537	0.0267	0.2804	1752.5545	0.168493	-403.147199	-403.136582	-403.135637	-403.184342	37.442	
C	 0.1179337676	 1.3837774657	 0.2945129038	-0.385703
C	 0.0563861954	-0.1123696567	-0.0247962564	 0.015065
C	 0.8111948477	-0.9603655542	 1.0153073291	-0.165694
N	 2.2300877635	-0.6570917622	 1.0925059934	-0.280051
C	 2.8214833962	-0.1162399438	 2.1927491593	 0.15406
O	 2.253754209	 0.1760647612	 3.2233872765	-0.32163
C	-1.4036319439	-0.6204343474	-0.1170313612	-0.359129
C	-2.1651200186	-0.0087850121	-1.198661562	 0.296562
C	-2.7738658393	 0.4995891721	-2.1021122643	-0.435097
H	 1.1518552058	 1.7374497764	 0.3212011326	 0.117466
H	-0.4238218396	 1.9614569013	-0.4587546172	 0.130157
H	-0.3292820263	 1.591383941	 1.2731935553	 0.12597
H	 0.5214021051	-0.2820035841	-1.0061295988	 0.078284
H	 0.41046046	-0.7821938793	 2.0172014141	 0.149362
H	 0.6808402758	-2.0264457408	 0.7872487169	 0.103723
H	 2.8129676652	-0.8573679325	 0.2950199947	 0.24658
H	 3.9095919524	 0.0296032087	 2.0401332866	 0.07422
H	-1.4031385012	-1.7103721818	-0.2511287992	 0.125925
H	-1.9096824903	-0.4318314442	 0.8398437692	 0.134625
H	-3.3230694249	 0.9443497829	-2.8944894523	 0.195304
25.5101	52.4747	83.2775	124.8884	191.7312	211.1776	257.3196	307.5986	334.6307	348.9349	409.2228	420.0087	532.5615	565.2403	617.472	638.8396	759.308	840.5597	891.8441	906.2618	935.1451	982.5107	1014.0948	1032.1286	1114.0297	1127.7691	1156.6741	1206.1722	1242.5517	1285.948	1303.1615	1359.1588	1382.7382	1392.1433	1417.1188	1431.8315	1468.1278	1483.8301	1495.0063	1499.7683	1535.9726	1807.0254	2237.8004	2934.1228	3004.5364	3012.5188	3018.2455	3039.0995	3045.1615	3104.4523	3109.9843	3125.3392	3506.5067	3630.5344
CC(CNC=O)CC#C	C[C@@H](CNC=O)CC#C	
InChI=1S/C7H11NO/c1-3-4-7(2)5-8-6-9/h1,6-7H,4-5H2,2H3,(H,8,9)	InChI=1S/C7H11NO/c1-3-4-7(2)5-8-6-9/h1,6-7H,4-5H2,2H3,(H,8,9)/t7-/m1/s1
