14
gdb 20853	6.78954	1.31653	1.11788	2.8472	60.88	-0.2515	-0.0053	0.2463	1026.6311	0.106798	-415.858458	-415.851128	-415.850183	-415.890565	26.199	
C	-0.0693618459	 1.4897298158	 0.1388490527	-0.380484
C	 0.0316038648	-0.0240258417	-0.0602971721	-0.306551
C	 0.7483102472	-0.4102170189	-1.3045170844	 0.442847
N	 1.2605565314	 0.374978282	-2.1761230822	-0.181858
O	 1.8180798771	-0.4993277136	-3.1539044617	-0.244946
C	 1.5837574348	-1.7875209633	-2.7700188203	 0.504268
N	 1.8967139703	-2.8639140436	-3.3283732094	-0.577549
O	 0.8958564388	-1.731698017	-1.5807517564	-0.207845
H	 0.9217346785	 1.9460533134	 0.1953775115	 0.144158
H	-0.605674356	 1.9604463869	-0.6884923405	 0.144146
H	-0.6041427893	 1.7064236734	 1.066519164	 0.125252
H	 0.5497578697	-0.4997976016	 0.781676664	 0.146427
H	-0.9632256933	-0.485461469	-0.0942831197	 0.146426
H	 2.3998527019	-2.6912859228	-4.1949315654	 0.245709
59.566	151.7803	180.1114	220.9712	309.5401	365.5285	511.2484	627.7119	657.5126	730.295	766.1543	782.8756	801.4994	904.7215	939.1294	968.7952	1002.0453	1060.9583	1097.2772	1117.0642	1246.3639	1281.0907	1296.3154	1418.2418	1421.5533	1469.8686	1495.2387	1505.055	1700.1023	1815.9511	3036.2885	3058.3634	3064.5077	3133.6779	3134.6979	3546.8291
CCC1=NOC(=N)O1	CCC1=NO[C@H]([NH])O1	
InChI=1S/C4H6N2O2/c1-2-3-6-8-4(5)7-3/h5H,2H2,1H3	InChI=1S/C4H7N2O2/c1-2-3-6-8-4(5)7-3/h4-5H,2H2,1H3/t4-/m1/s1
