16
gdb 44332	3.15267	1.87759	1.53369	2.3545	72.06	-0.2255	-0.0368	0.1887	872.9022	0.12676	-400.747911	-400.74161	-400.740666	-400.778482	26.004	
O	 0.0430619449	 0.0551320084	 0.2315367681	-0.304516
C	 0.0036705458	 1.2365626217	 0.0358028217	 0.404148
C	-1.2573103647	 2.1127283211	-0.1241244558	-0.274977
N	-0.8485491276	 3.3465385351	-0.7932576184	-0.117284
C	 0.0205895684	 4.3195735343	-0.0581074198	-0.064475
C	 0.5326742853	 3.9885437911	 1.302558748	-0.074818
C	 1.2395439138	 2.8534226802	 1.2861793271	-0.100204
C	 1.2000961747	 2.2160004887	-0.097181718	-0.205986
C	 0.6145118544	 3.312676897	-0.9901120939	-0.065162
H	-1.9890188053	 1.59320264	-0.7503449579	 0.139913
H	-1.7183942451	 2.2799518252	 0.8539961276	 0.138246
H	-0.1711131369	 5.3492232855	-0.3402606451	 0.099265
H	 0.3347933042	 4.5993808499	 2.1746905296	 0.108451
H	 1.6599354958	 2.3419576711	 2.1439423239	 0.118844
H	 2.1148205058	 1.7249705879	-0.4257846624	 0.09796
H	 1.0024882266	 3.5263114328	-1.9803437449	 0.100594
109.4809	283.321	332.3178	432.3698	496.1471	567.6737	621.7033	658.6213	714.5374	749.9634	773.4762	802.208	835.8126	846.7555	916.2572	927.4321	953.6429	967.1459	1018.963	1027.8636	1055.7464	1093.8077	1109.6917	1122.3305	1190.035	1207.9913	1253.9549	1270.2576	1285.4984	1296.3457	1351.825	1366.2392	1456.7375	1645.3427	1857.2269	3058.102	3098.7725	3129.5158	3162.0993	3172.2063	3198.8009	3223.053
O=C1CN2C3C=CC1C23	O=C1CN2[C@H]3C=C[C@@H]1[C@@H]23	
InChI=1S/C7H7NO/c9-6-3-8-5-2-1-4(6)7(5)8/h1-2,4-5,7H,3H2	InChI=1S/C7H7NO/c9-6-3-8-5-2-1-4(6)7(5)8/h1-2,4-5,7H,3H2/t4-,5-,7+,8?/m0/s1
