14
gdb 5337	5.70532	1.53375	1.2088	0.6398	81.2	-0.2321	-0.029	0.203	942.2448	0.109052	-308.307402	-308.300904	-308.29996	-308.337862	25.463	
C	 0.0184497986	-1.2101742848	-0.0040899946	-0.417678
C	 0.0019900916	-0.0059275102	 0.0030272626	 0.223872
C	-0.0172909894	 1.418973865	 0.010932722	 0.170197
C	-1.2364910596	 2.115578901	 0.0308468898	-0.196028
C	-1.2512181692	 3.5049693612	 0.0385398794	-0.087566
C	-0.0552030524	 4.2205397131	 0.0265549019	-0.116044
C	 1.1597352686	 3.5377732291	 0.0067694219	-0.087565
C	 1.1826100193	 2.148493753	-0.0010404001	-0.196032
H	 0.0332209936	-2.2717202289	-0.0105566157	 0.193096
H	-2.1640339392	 1.5547072457	 0.0401188733	 0.105791
H	-2.1999106109	 4.0310694559	 0.0539499315	 0.100555
H	-0.0698811168	 5.3051923312	 0.0326092846	 0.101054
H	 2.093841991	 4.0894910563	-0.0026253984	 0.100556
H	 2.1249885848	 1.6130642323	-0.0164224783	 0.105792
142.6409	155.0188	368.5157	410.8279	470.6337	528.5733	547.6978	589.2589	632.1345	639.7071	710.7511	773.5829	784.5935	863.9975	935.7242	958.6547	992.9884	1012.2671	1049.6443	1100.1785	1183.3722	1199.9034	1225.5175	1315.5013	1347.5158	1470.9618	1521.4552	1608.9059	1640.2231	2226.2997	3173.4907	3182.3355	3193.6565	3201.6196	3205.8991	3504.2193
C#CC1=CC=CC=C1	C#Cc1ccccc1	
InChI=1S/C8H6/c1-2-8-6-4-3-5-7-8/h1,3-7H	InChI=1S/C8H6/c1-2-8-6-4-3-5-7-8/h1,3-7H
