18
gdb 99054	4.27637	0.71756	0.69221	4.2347	73.89	-0.2641	-0.0293	0.2348	1660.0844	0.14435	-439.115522	-439.105137	-439.104193	-439.152247	35.773	
C	-0.0989425038	 1.5602081229	-0.0302080771	-0.378669
C	-0.174550736	 0.0675468273	 0.278268302	-0.287936
C	 0.8999090879	-0.415940392	 1.2335710257	 0.399066
O	 1.6699972574	 0.3314216629	 1.7887691693	-0.298478
C	 0.9902918142	-1.9321767683	 1.4455953144	-0.328295
C	 1.4868476116	-2.2592292501	 2.8622069699	-0.006077
O	 0.5169997604	-1.9679605956	 3.8513324919	-0.412497
C	 1.9395192619	-3.6603676993	 2.9528751174	 0.252836
N	 2.2553303141	-4.7700437451	 3.020358363	-0.316232
H	 0.8506606096	 1.8126061676	-0.5092966333	 0.132526
H	-0.9121535554	 1.8577407292	-0.6974262532	 0.115509
H	-0.1671455398	 2.1489346707	 0.887486365	 0.140026
H	-1.141767455	-0.197070158	 0.7307418957	 0.13053
H	-0.1173979054	-0.5407199079	-0.6354321544	 0.124684
H	 0.0308670648	-2.4234925024	 1.2507726367	 0.117654
H	 1.6977951587	-2.3210674158	 0.7014020842	 0.153791
H	 2.3316037321	-1.5972385732	 3.0770857094	 0.166795
H	-0.1932289474	-2.6164866729	 3.7821569033	 0.294768
36.2498	61.2166	86.7327	120.675	183.9339	199.6695	240.1988	279.5292	335.6247	359.4068	398.2511	472.471	563.2754	594.3862	652.6523	743.3599	809.6904	874.8736	928.269	993.3991	1006.9809	1044.9674	1093.0177	1107.7888	1127.3001	1192.4562	1266.729	1280.105	1308.0268	1359.2543	1381.6375	1415.5754	1423.3546	1446.966	1452.1244	1493.6934	1498.3634	1813.3755	2354.696	3011.0025	3035.1081	3038.7274	3054.398	3076.1678	3089.507	3125.2103	3132.4674	3799.5637
CCC(=O)CC(O)C#N	CCC(=O)C[C@@H](O)C#N	
InChI=1S/C6H9NO2/c1-2-5(8)3-6(9)4-7/h6,9H,2-3H2,1H3	InChI=1S/C6H9NO2/c1-2-5(8)3-6(9)4-7/h6,9H,2-3H2,1H3/t6-/m1/s1
