17
gdb 103144	2.3225	1.49657	1.14959	2.9452	64.3	-0.2584	-0.0022	0.2562	1107.8664	0.134252	-496.122909	-496.113779	-496.112835	-496.156813	33.288	
C	-0.2089912971	 1.5247434326	 0.0489260635	-0.400215
C	 0.0906961966	 0.0461645688	-0.0083113109	 0.086802
O	 1.3316500424	-0.2477867172	-0.7629082527	-0.26014
C	 1.9452885047	-0.7815309302	 0.3326934272	 0.411688
O	 3.0388916791	-1.2503082686	 0.4199825835	-0.349432
C	 0.7115492402	-0.6125983862	 1.2472527843	 0.185691
O	 0.8530682284	 0.2405862184	 2.3447770222	-0.465302
C	 0.1683472901	-1.972287716	 1.68882852	-0.138226
O	 1.0140965266	-2.4893269279	 2.7059469943	-0.426017
H	 0.6166418259	 2.0720445341	 0.5075619301	 0.146876
H	-0.3835419449	 1.9126324788	-0.9583392883	 0.133126
H	-1.1076894735	 1.696280013	 0.6489073962	 0.134608
H	-0.7277910128	-0.5237631686	-0.4582229111	 0.098403
H	 1.1250581242	-0.325326592	 3.0818493704	 0.296976
H	-0.8201696067	-1.8456341243	 2.1423520248	 0.12622
H	 0.0764382697	-2.6583155901	 0.8352046331	 0.111961
H	 1.8785439371	-2.6568546845	 2.3069977333	 0.306981
91.8836	98.8484	155.4915	199.7038	216.0589	266.7517	289.7754	336.6083	422.6413	457.7829	485.8386	561.8965	597.9026	718.4683	765.0082	776.3449	856.5326	909.0497	993.0041	1027.0449	1049.2919	1066.1863	1117.1491	1149.6484	1152.3954	1210.2177	1268.6414	1310.1258	1360.8223	1378.6816	1414.0983	1422.9416	1433.1682	1484.2115	1489.564	1494.7719	1912.4222	3010.3052	3051.7217	3068.3222	3083.6682	3122.7117	3144.6761	3739.2949	3768.1321
CC1OC(=O)C1(O)CO	C[C@H]1OC(=O)[C@]1(O)CO	
InChI=1S/C5H8O4/c1-3-5(8,2-6)4(7)9-3/h3,6,8H,2H2,1H3	InChI=1S/C5H8O4/c1-3-5(8,2-6)4(7)9-3/h3,6,8H,2H2,1H3/t3-,5+/m1/s1
