20
gdb 106108	2.78554	1.37935	1.17704	1.6059	78.13	-0.2298	0.0648	0.2946	1144.4143	0.171063	-403.080874	-403.072419	-403.071474	-403.113928	32.745	
C	 0.2797790617	 1.5728669179	 0.2418558651	-0.381835
C	-0.1053309872	 0.1138486809	-0.037343195	-0.332032
C	 0.4821827406	-0.4195300693	-1.303288439	 0.346883
C	 0.8520966597	-1.7795976045	-1.7909598754	-0.152811
C	 0.2467059939	-1.5075243386	-3.1700403059	 0.152761
O	-1.0910362975	-1.9348973698	-3.291465055	-0.445428
C	 0.4426678546	-0.0004638571	-2.8408175107	-0.168479
C	 1.965979786	 0.103941829	-2.7234091634	-0.159777
N	 1.921054659	-0.7637970037	-1.4941412651	-0.187226
H	 1.365642625	 1.6748150974	 0.3269986939	 0.134467
H	-0.0611486944	 2.2333703863	-0.5623270794	 0.118118
H	-0.1694770984	 1.9236649777	 1.1755211992	 0.115528
H	 0.2358651354	-0.5255421052	 0.7859454127	 0.116557
H	-1.1990723633	 0.0191456903	-0.0729269976	 0.096866
H	 0.9108433485	-2.7185459326	-1.2534840657	 0.097762
H	 0.7613904388	-1.886151364	-4.0590087757	 0.084475
H	-1.5438402574	-1.7282713964	-2.465210614	 0.279804
H	-0.1839055458	 0.7452173844	-3.3276169258	 0.07637
H	 2.5744272249	-0.2867928538	-3.5482929996	 0.097856
H	 2.3311292258	 1.0922612713	-2.4341556737	 0.110141
75.0193	129.2984	174.2133	228.517	290.7333	334.2413	366.2648	374.3866	466.6282	528.4156	603.5183	737.9494	760.9886	797.0151	835.2524	871.9408	916.6106	941.8909	970.2096	971.432	976.5887	1036.2069	1050.0501	1072.5581	1104.0369	1110.1693	1153.873	1171.7582	1183.5621	1200.4672	1244.2555	1267.65	1283.7664	1295.3322	1321.1727	1345.9641	1406.7662	1426.3802	1441.0284	1468.3958	1498.1197	1507.3298	1513.098	3014.6161	3028.94	3038.0084	3057.0916	3061.8789	3100.8734	3106.9554	3116.54	3131.4664	3190.6487	3788.036
CCC12C3C(O)C1CN23	CC[C@@]12[C@H]3[C@@H](O)[C@@H]1CN23	
InChI=1S/C7H11NO/c1-2-7-4-3-8(7)6(7)5(4)9/h4-6,9H,2-3H2,1H3	InChI=1S/C7H11NO/c1-2-7-4-3-8(7)6(7)5(4)9/h4-6,9H,2-3H2,1H3/t4-,5-,6+,7-,8?/m0/s1
