18
gdb 105328	2.49595	1.54084	1.17425	1.4877	77.8	-0.2373	0.0265	0.2637	1102.1617	0.14568	-401.846789	-401.838043	-401.837099	-401.879951	33.137	
C	 0.0062329882	 1.3441821139	 0.1143372943	-0.257309
O	-0.0755161688	-0.0607426554	-0.0477140388	-0.276574
C	 0.6286777913	-0.5704058278	-1.1602936313	 0.20617
C	 2.1966066057	-0.6374013427	-1.0603591369	-0.226662
N	 2.1947006472	-2.136429453	-1.15475632	-0.126074
C	 1.4208639395	-2.6015236614	 0.008802985	-0.246876
C	 0.6747848968	-2.1001019003	-1.159330461	-0.070356
C	 0.1551177088	-0.0118641139	-2.4256825551	 0.302976
C	-0.2373623105	 0.4481325017	-3.4647610287	-0.463621
H	 1.0469175443	 1.6807869588	 0.2300370872	 0.107694
H	-0.4420220529	 1.8782012224	-0.7328775628	 0.125105
H	-0.5455486694	 1.5843527172	 1.0254445512	 0.130846
H	 2.7100426075	-0.199747309	-1.9164495375	 0.126968
H	 2.6192834191	-0.2513843909	-0.1271191395	 0.109775
H	 1.4599742263	-3.6785236197	 0.1384216398	 0.124469
H	 1.4338027856	-2.0218429758	 0.9276935198	 0.126064
H	 0.0818787967	-2.7283094689	-1.8138830126	 0.106711
H	-0.5842249753	 0.8509990448	-4.3844963534	 0.200696
116.5511	127.6099	161.2105	181.9745	194.8796	288.3285	387.6964	430.2463	481.0273	519.281	548.8953	627.2554	639.9993	668.0596	752.9894	785.7862	848.9227	903.8016	962.8219	984.3801	1041.3091	1064.0773	1093.2685	1107.7007	1111.8654	1162.5839	1178.8703	1185.2737	1211.342	1232.7069	1238.6577	1278.9817	1368.6838	1475.4694	1479.061	1487.6132	1502.5955	1510.8108	2230.1557	2994.8339	3050.5583	3058.0472	3116.8981	3125.8457	3135.8717	3182.7986	3209.5039	3499.1869
COC1(CN2CC12)C#C	CO[C@]1(CN2C[C@@H]12)C#C	
InChI=1S/C7H9NO/c1-3-7(9-2)5-8-4-6(7)8/h1,6H,4-5H2,2H3	InChI=1S/C7H9NO/c1-3-7(9-2)5-8-4-6(7)8/h1,6H,4-5H2,2H3/t6-,7-,8?/m0/s1
