22
gdb 107987	2.77305	1.46502	1.27141	1.8899	85.16	-0.2197	0.0815	0.3013	1127.4631	0.196353	-367.164629	-367.156574	-367.15563	-367.197243	32.103	
C	 0.0461918192	 1.5869667545	-0.0239343	-0.379526
C	 0.0000335422	 0.0541172862	-0.045956572	-0.323199
C	-1.40616756	-0.5002591121	-0.0012644424	 0.323318
C	-2.5796457259	-0.291582109	-0.9745980168	-0.217718
N	-3.2161680529	-1.223452266	 0.056951257	-0.168929
C	-1.8707197782	-1.9858443304	 0.0569254771	-0.021884
C	-1.6916759381	-2.5640870807	 1.4543006539	-0.241576
C	-2.1599144309	-1.333641196	 2.2801839923	-0.241121
C	-2.4774266852	-0.3888022804	 1.1287145775	-0.007284
H	 1.0765329649	 1.9529961357	-0.0593887975	 0.113907
H	-0.4881554483	 2.0109136373	-0.8806208629	 0.119879
H	-0.4181848557	 1.9843171705	 0.8849060055	 0.118004
H	 0.5008939054	-0.3183928107	-0.9495369548	 0.098701
H	 0.5702503999	-0.345250591	 0.8036277783	 0.097355
H	-3.0521963959	 0.6946944579	-1.0202202203	 0.093112
H	-2.5065006968	-0.732172689	-1.9743695699	 0.091565
H	-1.7175609292	-2.6379593027	-0.8064915107	 0.063749
H	-2.3226843936	-3.4433125495	 1.6102147582	 0.109401
H	-0.6551530751	-2.8524498213	 1.653270816	 0.098781
H	-3.0462916263	-1.5427620912	 2.8852660225	 0.109601
H	-1.3853857779	-0.9342611914	 2.9419119113	 0.098421
H	-2.9417139817	 0.5746298194	 1.3513843376	 0.065443
73.1232	157.5378	177.521	237.834	258.3827	367.2487	436.2646	474.2328	603.2533	679.2482	710.4095	756.6224	791.074	817.6709	834.4526	897.8122	907.6625	939.2419	971.3235	974.3989	995.8148	998.6453	1018.163	1040.8991	1062.9287	1096.5832	1124.5809	1143.9846	1159.0202	1183.6481	1212.1707	1250.2262	1254.9264	1262.7431	1299.0523	1303.6715	1309.3708	1319.2125	1362.2957	1396.7025	1411.8868	1475.1613	1480.8465	1498.6521	1499.9585	1505.5531	1532.8597	3011.7471	3033.9392	3036.773	3042.8799	3051.5465	3059.944	3087.6798	3091.08	3095.1133	3095.9229	3101.6711	3107.04	3108.8917
CCC12CN3C1CCC23	CC[C@@]12CN3[C@@H]1CC[C@@H]23	
InChI=1S/C8H13N/c1-2-8-5-9-6(8)3-4-7(8)9/h6-7H,2-5H2,1H3	InChI=1S/C8H13N/c1-2-8-5-9-6(8)3-4-7(8)9/h6-7H,2-5H2,1H3/t6-,7+,8-
