18
gdb 49592	2.69437	1.75645	1.39094	3.0887	74.2	-0.2276	-0.0215	0.206	970.2147	0.148772	-401.911336	-401.903972	-401.903028	-401.943337	28.996	
O	-0.1635931308	-0.0603495104	 0.1212275909	-0.248186
C	-0.0199819268	 1.1213008415	-0.0532978465	 0.173923
C	 1.293694001	 1.8815362129	-0.0326962511	-0.102679
C	 1.357395198	 2.8596455523	 1.1620015694	-0.065704
C	 1.3180085672	 2.3066199431	 2.565007691	-0.307933
C	 2.6474461538	 2.5463877035	 1.8919896716	-0.031773
C	 3.3259002655	 1.4281574446	 1.1304358146	-0.032967
C	 2.6959752958	 0.0876432814	 1.0426158893	-0.24493
N	 2.5118716567	 1.0567066634	-0.0515788039	-0.098506
H	-0.8966537615	 1.7860847731	-0.2351217181	 0.077694
H	 1.299121524	 2.489485645	-0.9492481872	 0.104127
H	 1.0295114928	 3.8795752494	 0.9948726256	 0.095138
H	 1.0353138733	 2.9986625953	 3.351599521	 0.117723
H	 0.9731655367	 1.2938821502	 2.7356412038	 0.129757
H	 3.2798793119	 3.3423045136	 2.2669212372	 0.093196
H	 4.3934030462	 1.5388553243	 0.9616471862	 0.091762
H	 3.2957501012	-0.773937323	 0.7611616797	 0.116668
H	 1.8630040346	-0.1554847101	 1.6887674164	 0.132689
69.3378	166.6603	204.8781	296.6126	343.1731	424.4271	494.2064	643.18	673.8019	693.8875	721.3472	804.5247	817.5586	829.948	848.1837	928.599	939.7914	982.182	1020.9109	1031.8531	1060.2255	1070.1435	1079.6158	1093.8822	1109.1877	1120.5414	1136.0871	1158.6993	1203.7719	1270.0717	1283.8299	1330.3106	1341.9657	1370.5359	1391.5187	1430.3673	1486.0285	1531.2463	1833.5491	2859.1583	3001.3583	3124.5136	3138.2532	3143.8341	3166.7441	3182.4496	3219.171	3231.1335
O=CC1C2CC2C2CN12	O=C[C@H]1[C@H]2C[C@H]2[C@H]2CN12	
InChI=1S/C7H9NO/c9-3-7-5-1-4(5)6-2-8(6)7/h3-7H,1-2H2	InChI=1S/C7H9NO/c9-3-7-5-1-4(5)6-2-8(6)7/h3-7H,1-2H2/t4-,5+,6-,7+,8?/m1/s1
