13
gdb 9577	4.65045	1.31817	1.26178	5.2174	66.7	-0.2684	0.0001	0.2685	962.3297	0.093176	-361.418638	-361.410675	-361.409731	-361.450769	29.093	
O	-0.0534383859	 1.3804075233	-0.0805703217	-0.428112
C	 0.0221268296	-0.0090782861	-0.0079110125	 0.211489
C	-0.438545541	-0.6735865098	 1.2699898967	-0.333178
C	-1.3395894684	-0.7016551455	 0.0456510067	-0.228674
C	-2.5342883313	 0.0937548832	 0.0158353492	 0.314793
N	-3.5135565633	 0.7078650474	-0.0114538524	-0.333163
C	 1.0635756818	-0.6296087597	-0.786751871	 0.285398
C	 1.9570302086	-1.1239319691	-1.4211510124	-0.441048
H	 0.7593004468	 1.7442856752	 0.2892047117	 0.29792
H	 0.0199840138	-1.607277399	 1.5715998952	 0.141975
H	-0.7289056807	-0.0011587322	 2.0682163308	 0.150508
H	-1.4119817711	-1.6407009644	-0.4906549938	 0.153159
H	 2.7388902113	-1.5602390732	-1.9930938666	 0.208932
106.183	126.6423	180.9974	243.7254	272.4058	357.6241	384.3768	473.9039	552.0608	554.8238	607.8378	622.5692	690.6048	717.2402	799.8403	869.8765	919.9828	998.4828	1051.1118	1073.824	1127.1285	1230.2817	1253.7832	1336.0565	1397.5895	1466.4775	2237.1079	2361.5594	3150.0274	3184.2482	3251.6119	3498.6528	3800.7122
OC1(CC1C#N)C#C	O[C@]1(C[C@H]1C#N)C#C	
InChI=1S/C6H5NO/c1-2-6(8)3-5(6)4-7/h1,5,8H,3H2	InChI=1S/C6H5NO/c1-2-6(8)3-5(6)4-7/h1,5,8H,3H2/t5-,6-/m0/s1
