23
gdb 89842	2.78117	1.2661	1.09392	1.5688	85.04	-0.2512	0.073	0.3242	1241.9492	0.20632	-388.29524	-388.286045	-388.285101	-388.329057	36.242	
C	 0.0700299008	 1.6266448453	 0.0241299082	-0.403549
C	-0.0182058091	 0.1079948265	 0.147599511	 0.025988
C	 0.3551387601	-0.6723320922	-1.1455768846	-0.315994
C	 1.0595770317	-1.9543306208	-0.6639026002	 0.379676
C	 1.0968362266	-3.2080318071	-1.4879727729	-0.338819
C	 2.3593480973	-2.3985636573	-1.3073967132	-0.316142
C	 0.9099347853	-1.9941738768	 0.8575903378	-0.313784
C	 0.8978618688	-0.5066523481	 1.2349945683	 0.124484
O	 2.2094274546	 0.0495633841	 1.2334507453	-0.442144
H	 1.1004596128	 1.937378534	-0.1701504727	 0.120306
H	-0.5618238079	 1.993716349	-0.7914747718	 0.106428
H	-0.2545230899	 2.1194870454	 0.9467828953	 0.111019
H	-1.0458641881	-0.1642298818	 0.4228695873	 0.069876
H	-0.5356051549	-0.8945506499	-1.7420821147	 0.101013
H	 1.0165808498	-0.0743747626	-1.7833135696	 0.095255
H	 1.0256042676	-4.1623630498	-0.9754373721	 0.110663
H	 0.6203060902	-3.1918053189	-2.4631115883	 0.110194
H	 2.7259380126	-1.8367120309	-2.1613047633	 0.109947
H	 3.1397258637	-2.8089727387	-0.6737399297	 0.112814
H	-0.0464356185	-2.4535326038	 1.1390600366	 0.097009
H	 1.7081499641	-2.5461670435	 1.3622086048	 0.097962
H	 0.5116923695	-0.3221424931	 2.2419261742	 0.072062
H	 2.6563579029	-0.2576026691	 0.4368614643	 0.285738
48.6611	123.2978	216.9201	233.6646	259.4001	291.7369	334.2221	362.6834	383.5375	415.5332	459.706	561.7106	676.1545	769.1348	785.7809	813.6397	857.7424	868.3168	898.0847	937.3589	942.4906	960.6272	985.6285	1002.3107	1031.687	1051.1187	1076.6553	1080.8969	1107.9118	1150.3538	1186.311	1192.801	1219.0941	1236.163	1267.2431	1287.6101	1304.8343	1308.6211	1354.3627	1363.7676	1382.6912	1408.8651	1432.396	1466.5842	1482.6324	1492.6358	1499.554	1500.7478	1503.5176	3010.6785	3024.7854	3031.0972	3034.6097	3069.4992	3072.6145	3087.7199	3096.7133	3113.9908	3115.7121	3122.0686	3194.9872	3210.5808	3801.4741
CC1CC2(CC2)CC1O	C[C@H]1CC2(CC2)C[C@H]1O	
InChI=1S/C8H14O/c1-6-4-8(2-3-8)5-7(6)9/h6-7,9H,2-5H2,1H3	InChI=1S/C8H14O/c1-6-4-8(2-3-8)5-7(6)9/h6-7,9H,2-5H2,1H3/t6-,7+/m0/s1
