19
gdb 116113	2.4714	1.29962	0.89561	4.2817	72.18	-0.2634	0.0073	0.2707	1284.6971	0.160189	-460.20944	-460.200805	-460.199861	-460.243297	32.215	
O	-0.0090622055	 1.4101163481	 0.0257861638	-0.422483
C	 0.0244290753	 0.0031664327	 0.0952932923	-0.06299
C	-1.3548308797	-0.6128764275	-0.1179803448	 0.118942
C	-1.3736283296	-2.1330611169	-0.0819773007	-0.227393
C	-2.8206718193	-2.6261234387	-0.085836369	-0.229525
C	-3.5461864608	-2.0639666053	 1.1392730268	-0.324952
C	-3.3067132248	-0.5866394421	 1.4176171887	 0.404034
O	-4.0252684938	 0.0704820606	 2.1189205241	-0.318352
O	-2.1860608891	-0.0115338563	 0.9086881947	-0.261799
H	-0.6872153266	 1.6979249668	 0.6487648812	 0.297538
H	 0.699984213	-0.3417335375	-0.6947929358	 0.111088
H	 0.4233114272	-0.3510779484	 1.060201833	 0.092314
H	-1.7488193268	-0.2578611341	-1.0800676172	 0.099005
H	-0.8221700806	-2.5097083972	-0.9496983901	 0.113738
H	-0.8542481511	-2.492313167	 0.8161030042	 0.10837
H	-3.3177413474	-2.2917553947	-1.0048645861	 0.112409
H	-2.8673566338	-3.7192120989	-0.0817899932	 0.109137
H	-4.6279959876	-2.2071164385	 1.092985889	 0.139811
H	-3.207203809	-2.5873223353	 2.0434713792	 0.14111
78.9415	88.1684	124.5468	191.1112	270.2418	367.0488	429.6554	438.7758	442.018	492.6439	542.7184	556.7546	642.0795	745.9944	855.6797	909.1347	928.6031	937.8867	973.6509	1055.3185	1073.7501	1103.3156	1113.0067	1116.3421	1171.0677	1206.3736	1237.0119	1253.1184	1282.302	1311.4162	1355.7889	1374.9577	1379.2277	1398.9935	1402.462	1441.054	1459.8481	1482.9177	1497.4134	1501.4164	1844.6494	2972.0175	3017.6125	3027.9335	3031.1242	3037.529	3074.6258	3083.0791	3086.9251	3111.286	3795.2966
OCC1CCCC(=O)O1	OC[C@H]1CCCC(=O)O1	
InChI=1S/C6H10O3/c7-4-5-2-1-3-6(8)9-5/h5,7H,1-4H2	InChI=1S/C6H10O3/c7-4-5-2-1-3-6(8)9-5/h5,7H,1-4H2/t5-/m1/s1
