17
gdb 113297	1.9661	1.40223	1.05	2.9176	71.92	-0.2478	-0.0332	0.2146	1201.1713	0.132352	-458.958202	-458.948681	-458.947737	-458.992976	33.174	
C	 0.4808229096	 1.0193433706	-0.1515905056	-0.251285
O	-0.2953211347	 0.049829871	 0.5405029347	-0.222198
C	 0.4305962643	-0.7126692828	 1.4195977167	 0.115979
C	-0.1245279742	-1.9927551679	 1.8448569476	-0.357104
C	 1.1046515024	-2.0534390646	 0.9133315073	 0.061797
C	 0.8903440364	-2.4386675094	-0.5002416826	 0.093533
O	 1.7323151925	-2.9566378426	-1.1966532148	-0.271554
C	 2.4119421213	-2.3634795088	 1.5404778681	 0.080435
O	 2.6519199232	-2.1525655951	 2.7096146574	-0.285806
H	 1.2303287004	 0.5428655949	-0.7973780245	 0.12913
H	-0.2117546284	 1.5971933024	-0.7653178388	 0.142997
H	 0.992181158	 1.6914720923	 0.5503893926	 0.126091
H	 1.078474073	-0.1736901123	 2.1115631392	 0.130096
H	 0.0695507436	-2.3236525701	 2.858510851	 0.159163
H	-1.0659650678	-2.2993022098	 1.4015139258	 0.143985
H	-0.1238944778	-2.2126928212	-0.8934425661	 0.089203
H	 3.1658648882	-2.7889700266	 0.8524799419	 0.115537
75.4639	106.2862	130.2743	164.3286	186.9529	208.3721	227.1549	297.7192	348.4008	420.1932	471.5219	557.6194	641.9943	713.3622	774.1308	857.3339	945.5942	997.4026	1048.6046	1053.1777	1063.634	1098.7902	1146.0478	1180.3716	1184.3018	1254.9806	1274.851	1303.8074	1396.8762	1415.9819	1436.7925	1461.2231	1489.112	1494.1825	1507.2705	1786.2516	1801.5669	2901.7362	2969.388	3003.8205	3063.3954	3113.3833	3140.3934	3140.5853	3240.9853
COC1CC1(C=O)C=O	CO[C@H]1CC1(C=O)C=O	
InChI=1S/C6H8O3/c1-9-5-2-6(5,3-7)4-8/h3-5H,2H2,1H3	InChI=1S/C6H8O3/c1-9-5-2-6(5,3-7)4-8/h3-5H,2H2,1H3/t5-/m0/s1
