18
gdb 20263	3.90224	2.71516	2.41439	0.0648	73.14	-0.2541	0.1018	0.3559	682.1979	0.158803	-310.658685	-310.653613	-310.652669	-310.687383	23.03	
C	-0.0629126085	 1.556228781	 0.0528135126	-0.225064
C	 1.4902397825	 1.4542569367	 0.0154902193	-0.04669
C	 1.8356714431	 0.7013142691	 1.3139778824	-0.057467
C	 2.1987061573	-0.7353871148	 0.9874717693	-0.068463
C	 2.3473013164	-0.8579616357	-0.518829372	-0.244966
C	 1.3115993147	 0.1905942143	-0.8974068548	-0.024168
C	 0.0308640006	 0.0034059188	-0.0103751405	-0.04669
C	 0.7585404083	-0.3694394419	 1.2949146856	-0.057463
H	-0.529304803	 2.0096772678	 0.9324382721	 0.086041
H	-0.4798392086	 1.9918630908	-0.8603500048	 0.088894
H	 2.1241429589	 2.2940200975	-0.2710016477	 0.055622
H	 2.1615442682	 1.2020918919	 2.2158610995	 0.078353
H	 2.7801282037	-1.3326168157	 1.6799712262	 0.076103
H	 3.3544023422	-0.60297701	-0.8688928348	 0.093962
H	 2.0928500409	-1.8571389597	-0.8912683361	 0.09396
H	 1.1309389858	 0.3911364261	-1.9525628737	 0.064058
H	-0.8072551198	-0.620266726	-0.3229493774	 0.055623
H	 0.2399053871	-0.7081441302	 2.1818543147	 0.078354
371.5583	424.392	491.7232	662.9729	677.0504	718.9791	797.4751	802.5583	823.0005	831.0419	861.8247	883.23	929.2437	935.4084	960.4408	968.5698	978.9667	1006.0888	1023.1062	1046.4552	1056.6163	1066.1088	1077.0734	1098.18	1109.8905	1151.1835	1221.4049	1228.0297	1237.0761	1244.1374	1251.8578	1273.531	1285.0695	1309.4038	1347.5501	1381.6866	1488.1509	1504.2834	3031.9452	3046.7	3073.8465	3102.8765	3105.4624	3106.841	3129.8814	3182.0146	3195.0106	3206.5865
C1C2C3C4CC2C1C34	C1[C@H]2[C@@H]3[C@@H]4C[C@H]2[C@H]1[C@H]34	
InChI=1S/C8H10/c1-3-4-2-5(3)8-6(1)7(4)8/h3-8H,1-2H2	InChI=1S/C8H10/c1-3-4-2-5(3)8-6(1)7(4)8/h3-8H,1-2H2/t3-,4-,5+,6+,7-,8+
