15
gdb 54168	3.31459	1.10135	0.98137	3.8113	67.15	-0.2671	-0.0274	0.2397	1194.4627	0.11084	-453.972454	-453.963388	-453.962444	-454.006418	32.577	
C	-0.4145006151	 1.6753054094	 0.419619344	-0.472922
C	-0.1558600861	 0.242246232	 0.0391817485	 0.277749
O	 1.1422654079	-0.0866943936	-0.4814031569	-0.272759
C	 0.7919470106	-0.6214496133	 0.7970025496	-0.151378
C	 1.5242482362	-0.1131501407	 1.9359825431	 0.319368
N	 2.1006492556	 0.2716151925	 2.8607558676	-0.320168
C	-1.3233082584	-0.4766894834	-0.6334566495	 0.344731
N	-0.9462700002	-1.4154316415	-1.5401670812	-0.529977
O	-2.4708064709	-0.2199480085	-0.3320734922	-0.352613
H	 0.3992119369	 2.0765094486	 1.0257596029	 0.149906
H	-0.5176302482	 2.2849941633	-0.4828879297	 0.142164
H	-1.3531867255	 1.732491282	 0.9738279244	 0.166323
H	 0.620144781	-1.6957192397	 0.8179153761	 0.149488
H	 0.0077248144	-1.4414982996	-1.8611846494	 0.278849
H	-1.6659006982	-1.8773060277	-2.0718490873	 0.271238
73.1197	120.439	135.0529	167.8889	234.9664	292.6802	333.3348	362.6882	399.5113	467.1782	509.6883	577.1534	598.936	616.5526	708.4789	754.4218	845.3215	880.1682	956.0676	1039.0152	1090.799	1099.7656	1105.032	1209.7811	1316.9151	1376.1152	1412.827	1418.2909	1477.1025	1494.9248	1598.2174	1808.4525	2362.4796	3058.6035	3131.3217	3140.778	3156.9461	3593.3224	3728.9186
CC1(OC1C#N)C(N)=O	C[C@]1(O[C@H]1C#N)C(=O)N	
InChI=1S/C5H6N2O2/c1-5(4(7)8)3(2-6)9-5/h3H,1H3,(H2,7,8)	InChI=1S/C5H6N2O2/c1-5(4(7)8)3(2-6)9-5/h3H,1H3,(H2,7,8)/t3-,5+/m0/s1
