16
gdb 13244	7.35031	0.7946	0.75941	4.0298	78.45	-0.2615	-0.0573	0.2042	1465.7659	0.12976	-346.573231	-346.564952	-346.564007	-346.608273	28.32	
O	-0.2546328784	-0.0218888584	-0.2189309494	-0.231877
C	 0.1286686386	 0.846299674	 0.5326255202	 0.016655
C	 1.231475798	 1.730824469	 0.2688560071	 0.037093
C	 2.1557304863	 2.4891222154	 0.0834319132	 0.092802
C	 3.2436746282	 3.402700073	-0.1753396542	-0.154956
C	 3.8927531842	 3.4483314184	-1.5975211489	-0.216203
C	 3.9890535551	 4.9904930197	-1.459810457	-0.216856
C	 2.9241298608	 4.9290803827	-0.3336390508	-0.217261
H	-0.3667386189	 1.0202567033	 1.5101979566	 0.095079
H	 4.0197756865	 3.2681208665	 0.5864827816	 0.113474
H	 4.8147345346	 2.8809080099	-1.7366549276	 0.110964
H	 3.1719076253	 3.1487181549	-2.3616676783	 0.122314
H	 4.9646284745	 5.3045308954	-1.0781724421	 0.109291
H	 3.7512581896	 5.5888369705	-2.3408949136	 0.108325
H	 1.9123593477	 5.0749837584	-0.718879811	 0.120206
H	 3.0622852577	 5.5544463573	 0.5502251642	 0.110951
14.4821	80.3015	97.5733	171.3721	217.6413	289.8849	426.7781	512.531	568.7295	659.3188	749.6967	786.5274	879.8181	913.4095	936.9823	941.7771	997.7312	1017.2742	1023.1	1117.5562	1183.7767	1205.1311	1233.9334	1236.5063	1256.3342	1277.0922	1278.232	1353.7645	1423.6112	1479.2264	1488.7975	1509.8641	1764.3251	2318.6069	2911.4178	3044.353	3064.7081	3070.8707	3074.7868	3114.4096	3128.3615	3137.2979
O=CC#CC1CCC1	O=CC#CC1CCC1	
InChI=1S/C7H8O/c8-6-2-5-7-3-1-4-7/h6-7H,1,3-4H2	InChI=1S/C7H8O/c8-6-2-5-7-3-1-4-7/h6-7H,1,3-4H2
