16
gdb 110178	2.86258	1.14355	0.89413	2.583	73.59	-0.2691	0.0001	0.2692	1270.4413	0.123094	-437.84021	-437.831511	-437.830567	-437.873959	31.949	
O	-0.0066509557	 1.3778628038	 0.1011914501	-0.417761
C	-0.0564355129	-0.0015214459	-0.1765778337	-0.075387
C	-1.4833802477	-0.5245157074	 0.0073180688	-0.178482
C	-1.7359501588	-2.0533098614	 0.1648713874	-0.093528
O	-2.2282943961	-1.8130015644	 1.5416470424	-0.256594
C	-1.9515284336	-0.4710944911	 1.4403369596	 0.456588
N	-1.9852120271	 0.4527892467	 2.2906427371	-0.558987
C	-2.7184921373	-2.6772864625	-0.690997606	 0.326528
C	-3.5243902087	-3.1867666501	-1.4218496302	-0.420862
H	-0.4054382235	 1.5085203446	 0.9745177604	 0.30371
H	 0.2732643196	-0.1350560827	-1.2120668285	 0.117017
H	 0.6289843968	-0.5784497079	 0.4674018905	 0.09039
H	-2.1654705873	-0.0410248644	-0.6938900905	 0.131059
H	-0.8198931141	-2.6495613143	 0.2210176581	 0.126961
H	-2.2907676565	 0.1298661184	 3.2094458639	 0.236041
H	-4.2384359968	-3.6419285515	-2.0637330096	 0.213308
81.0852	105.8477	149.8975	167.998	225.9838	301.7566	380.3871	417.3956	489.9257	532.6237	571.7454	632.4376	681.8639	689.0634	739.3173	829.6781	862.0321	900.6522	972.3944	1033.1042	1054.6291	1058.8286	1088.9285	1106.437	1191.0766	1200.6575	1241.0415	1286.2829	1346.7537	1365.1465	1389.2155	1453.4322	1513.3881	1816.7644	2243.3516	2959.7035	3063.4918	3072.1338	3111.4906	3485.2527	3499.7453	3719.1242
OCC1C(OC1=N)C#C	OC[C@H]1[C@@H](O[C]1[NH])C#C	
InChI=1S/C6H7NO2/c1-2-5-4(3-8)6(7)9-5/h1,4-5,7-8H,3H2	InChI=1S/C6H7NO2/c1-2-5-4(3-8)6(7)9-5/h1,4-5,7-8H,3H2/t4-,5-/m0/s1
