20
gdb 11791	3.93799	1.68516	1.55257	1.4991	73.95	-0.2396	0.0844	0.3241	933.9141	0.178365	-348.997746	-348.990244	-348.9893	-349.029398	29.609	
C	 0.1805613453	 1.518010867	 0.1779276241	-0.384779
C	-0.0775881394	 0.0280628314	-0.0791235588	-0.291398
C	 0.614746872	-0.5010692183	-1.3100143916	 0.444672
C	 0.7922162686	-2.0131257368	-1.606113631	-0.279852
C	 2.0252337984	-1.4222219156	-2.3165596214	 0.082757
C	 1.4262565956	-0.6454779405	-3.5069646951	-0.215654
C	 0.3008251932	 0.087589976	-2.711063164	-0.256624
O	 2.0852295516	-0.3952762008	-1.2802024703	-0.336082
H	 1.2547413694	 1.7169259462	 0.2279991833	 0.139033
H	-0.241654667	 2.1452733311	-0.613105867	 0.116591
H	-0.2695460869	 1.830696501	 1.124611402	 0.110937
H	 0.2629850675	-0.5562781621	 0.7833816422	 0.103472
H	-1.1544088878	-0.1601914851	-0.1809731079	 0.098242
H	 1.0620262059	-2.5697199676	-0.7074417092	 0.104112
H	 0.0335440249	-2.5385034277	-2.1932341858	 0.087975
H	 2.958119843	-1.9685473197	-2.4553851495	 0.074349
H	 2.1541025313	 0.0437021025	-3.940095084	 0.105478
H	 1.0499102106	-1.2996599874	-4.2983791884	 0.09555
H	-0.7084865005	-0.1585408748	-3.0530523496	 0.094853
H	 0.4177061841	 1.1725585011	-2.725528498	 0.106368
80.2216	164.5969	211.8915	276.0845	324.401	405.7501	449.7129	557.184	600.3152	712.56	766.3113	823.8104	828.6131	842.796	877.0145	910.9944	944.082	956.49	973.0612	1003.0168	1026.7358	1044.6125	1087.7939	1114.855	1160.5843	1164.8171	1208.2041	1226.8821	1239.1153	1274.9353	1283.8072	1301.4228	1322.5299	1336.5131	1393.644	1408.9099	1474.9696	1479.0939	1481.803	1498.3685	1505.8141	1509.6397	3024.8126	3043.2674	3057.5753	3059.6007	3062.609	3069.7128	3106.7695	3110.6365	3120.6187	3122.0815	3125.4454	3135.9796
CCC12CC(CC1)O2	CC[C@@]12C[C@@H](CC1)O2	
InChI=1S/C7H12O/c1-2-7-4-3-6(5-7)8-7/h6H,2-5H2,1H3	InChI=1S/C7H12O/c1-2-7-4-3-6(5-7)8-7/h6H,2-5H2,1H3/t6-,7+/m1/s1
