14
gdb 34173	3.96644	1.61192	1.41972	4.8355	68.49	-0.2735	-0.0059	0.2676	887.7999	0.102127	-399.470408	-399.464335	-399.463391	-399.500828	24.715	
N	-0.0160322824	-1.0818679984	 0.0328686072	-0.334614
C	-0.0480427303	 0.0734294077	 0.0257279986	 0.159774
C	-0.0621356803	 1.5139310699	-0.0277487997	 0.39333
O	-0.973301332	 2.1737891742	 0.8724706898	-0.320291
C	-0.8423721421	 3.3142038977	-0.0111815664	 0.066822
C	 0.6544670507	 3.7291991044	-0.0339798732	-0.098487
C	 0.9256441432	 3.0335486543	-1.350204184	-0.101951
C	 1.2687275137	 2.3317741986	-0.0598010434	-0.147163
C	-0.4988308213	 2.415863898	-1.2419651231	-0.15865
H	-1.6440730665	 4.0428994172	 0.0785706148	 0.099887
H	 1.1458684377	 4.5773694181	 0.4208918854	 0.108872
H	 1.5417082904	 3.3082701188	-2.1922991386	 0.108799
H	 2.2260170773	 2.0814004566	 0.3732087503	 0.116467
H	-1.1869865183	 2.1065835928	-2.0228060878	 0.107206
155.3176	162.1532	462.959	494.2104	525.7394	568.929	601.6338	747.9899	776.0324	807.1775	812.5555	841.8764	854.8873	870.8276	891.5684	938.5514	950.2582	996.1586	1011.7911	1029.3103	1038.8129	1060.0197	1117.1204	1169.3511	1180.4258	1216.836	1249.8714	1276.0344	1285.7108	1351.1398	2360.2712	3157.8239	3173.0255	3220.1467	3228.1651	3243.8741
N#CC12OC3C4C(C14)C23	N#C[C@@]12O[C@H]3[C@@H]4[C@@H]([C@H]14)[C@@H]23	
InChI=1S/C7H5NO/c8-1-7-4-2-3(4)6(9-7)5(2)7/h2-6H	InChI=1S/C7H5NO/c8-1-7-4-2-3(4)6(9-7)5(2)7/h2-6H/t2-,3+,4-,5+,6-,7+/m0/s1
