17
gdb 44969	2.58546	1.82359	1.61385	4.1487	66.66	-0.2502	-0.0036	0.2467	907.5127	0.139392	-459.008365	-459.001709	-459.000764	-459.039275	26.901	
O	-0.0190221699	 0.0108837462	-0.3671085843	-0.337365
C	 0.0130254048	 1.1735805746	-0.0975634685	 0.410972
O	-1.1107160183	 1.9205712904	 0.1224452113	-0.23864
C	-0.7157588432	 3.2825403355	 0.4538811861	 0.090877
C	 0.6106696893	 3.450319809	-0.3008665365	-0.249871
C	 1.2302644355	 2.1107526251	 0.0938379473	-0.00765
O	 1.6328829459	 2.1445173107	 1.4592340309	-0.273552
C	 0.5500720773	 2.2919077611	 2.3802868457	-0.080439
C	-0.458142791	 3.3786853016	 1.9621212119	-0.231779
H	-1.5240714919	 3.9342403446	 0.1211297241	 0.097305
H	 0.4437589803	 3.5135801404	-1.3804279564	 0.118446
H	 1.2033595598	 4.3033983224	 0.0326412922	 0.117639
H	 2.0905900098	 1.7786487441	-0.4849575687	 0.110149
H	 0.02549699	 1.3321279503	 2.488943324	 0.124624
H	 1.0094717767	 2.5278102881	 3.3427682512	 0.118701
H	-0.0724603357	 4.3792818071	 2.1860879913	 0.112627
H	-1.3865820394	 3.2437075287	 2.5258924782	 0.117957
137.3633	240.8474	286.2561	363.2367	424.3227	456.5904	491.0354	588.5303	691.3395	728.1193	793.3987	827.539	848.5633	867.3394	912.8595	923.9282	977.5784	993.9274	1039.7257	1075.2968	1082.7996	1108.6821	1143.8803	1193.4828	1219.476	1247.0552	1283.6604	1316.5574	1341.9955	1346.9436	1369.7528	1379.4965	1414.4927	1473.0664	1487.8472	1515.998	1893.9214	3008.9715	3046.7706	3063.9442	3093.1084	3105.3623	3111.6341	3131.158	3138.0903
O=C1OC2CC1OCC2	O=C1O[C@@H]2C[C@H]1OCC2	
InChI=1S/C6H8O3/c7-6-5-3-4(9-6)1-2-8-5/h4-5H,1-3H2	InChI=1S/C6H8O3/c7-6-5-3-4(9-6)1-2-8-5/h4-5H,1-3H2/t4-,5+/m0/s1
