20
gdb 107071	3.40642	1.05065	0.89387	2.5154	83.87	-0.2449	0.027	0.2719	1386.0093	0.169476	-403.126957	-403.117554	-403.11661	-403.161473	34.431	
C	-0.0304481692	 1.4545017701	-0.0429586052	-0.378082
C	-0.11885187	-0.0702245866	 0.1131206834	-0.288479
C	 0.7161918994	-0.5773315104	 1.2433081294	 0.481012
C	 2.1644971685	-0.9188556864	 1.2735391904	-0.331755
C	 1.1241976788	-1.9548248753	 1.7265913252	-0.309861
C	 0.5753925812	-1.5071144663	 3.0361986002	 0.486995
O	 0.3078723042	-0.1999112766	 2.5949103734	-0.321554
N	 0.3462551932	-2.0483649581	 4.1385643584	-0.348092
C	-0.2718038173	-1.2634813143	 5.1976782207	-0.339338
H	 0.9954413323	 1.7699188902	-0.257369259	 0.121058
H	-0.6702161719	 1.7981192381	-0.8606940037	 0.116067
H	-0.3517784993	 1.9551787941	 0.8747545784	 0.13887
H	-1.1598941118	-0.369988618	 0.2810491121	 0.115736
H	 0.2123647269	-0.5660254213	-0.8067173897	 0.108485
H	 2.6192616841	-1.1468864447	 0.3138008153	 0.123405
H	 2.8222679246	-0.4528734561	 2.0003605569	 0.128298
H	 1.0291827802	-2.9346662907	 1.2819076971	 0.118951
H	-1.157472343	-1.7936003002	 5.5642957398	 0.125264
H	 0.4249073206	-1.1872132127	 6.0401321666	 0.127232
H	-0.5648521914	-0.252133935	 4.8928451303	 0.125789
78.9128	101.7924	108.3497	156.2566	203.6746	222.0631	284.0068	364.2872	388.5193	458.6597	497.2448	642.7235	688.2207	742.5337	788.6822	840.7725	883.7765	920.4233	956.4559	978.3271	995.7685	1020.2791	1033.2058	1064.0141	1077.4225	1096.4861	1126.8949	1136.7942	1169.0908	1219.9352	1259.1642	1309.8327	1353.3462	1408.6529	1419.998	1440.2256	1474.6709	1490.6524	1493.8378	1498.2215	1498.711	1511.1857	1853.9092	3017.26	3034.9013	3042.8742	3072.758	3081.5492	3088.2376	3113.6929	3120.8297	3121.6776	3212.6478	3226.9802
CCC12CC1C(O2)=NC	CC[C@]12C[C@H]1C(=NC)O2	
InChI=1S/C7H11NO/c1-3-7-4-5(7)6(8-2)9-7/h5H,3-4H2,1-2H3	InChI=1S/C7H11NO/c1-3-7-4-5(7)6(8-2)9-7/h5H,3-4H2,1-2H3/t5-,7-/m0/s1
