18
gdb 37450	2.587	1.97686	1.93066	2.2673	69.48	-0.2421	0.067	0.3091	850.7663	0.151745	-439.048662	-439.042305	-439.041361	-439.078999	26.847	
C	-0.0166740251	 1.555277778	 0.0390004411	-0.074858
O	 1.3158749927	 2.0887792605	 0.0399652848	-0.266717
C	 2.2968763511	 1.0670635964	 0.0023462433	 0.050433
C	 2.073785036	 0.1349810441	 1.2065983579	-0.06979
O	 0.7657990822	-0.4498659176	 1.1235123049	-0.285037
C	 0.0427537835	 0.0292791886	-0.0223286272	 0.070233
C	 0.8030802918	-0.4262555096	-1.2634190231	-0.055681
N	 1.1533922675	 0.62874394	-2.2389678262	-0.334246
C	 2.1491972686	 0.1933622623	-1.2476376729	-0.03086
H	-0.5199618971	 1.8583759466	 0.965816452	 0.097887
H	-0.558523228	 1.9623902552	-0.8204034216	 0.117231
H	 3.2681570416	 1.5643269322	 0.0617722531	 0.082641
H	 2.8249556977	-0.6668184735	 1.2317156762	 0.094846
H	 2.1482180726	 0.7108081804	 2.1373963051	 0.106557
H	-0.9570885079	-0.4034515072	 0.0563226375	 0.080204
H	 0.6599138319	-1.4464264454	-1.6044965042	 0.091675
H	 1.3651420409	 0.1943720104	-3.1337895194	 0.234631
H	 3.0211554399	-0.3660576815	-1.5744116713	 0.090852
203.4569	306.5784	317.9354	350.7569	405.7804	522.3389	572.9145	610.9106	694.4356	779.9824	836.5142	850.1411	879.0017	893.6229	900.879	921.5307	949.1472	993.46	1027.8768	1041.8315	1070.0496	1100.8769	1104.5335	1123.1312	1153.2127	1188.7588	1225.3298	1237.5604	1246.0003	1298.5685	1327.6395	1339.836	1347.477	1379.0647	1394.4717	1412.753	1441.7254	1501.9443	1514.3468	3003.0684	3021.5158	3047.4744	3078.9362	3083.0903	3089.7853	3147.4349	3164.4247	3506.2238
C1OC2COC1C1NC21	C1O[C@H]2CO[C@@H]1[C@H]1N[C@@H]21	
InChI=1S/C6H9NO2/c1-3-5-6(7-5)4(8-1)2-9-3/h3-7H,1-2H2	InChI=1S/C6H9NO2/c1-3-5-6(7-5)4(8-1)2-9-3/h3-7H,1-2H2/t3-,4-,5-,6+/m0/s1
