14
gdb 12947	2.73291	2.19077	1.69325	3.269	57.71	-0.2581	-0.0086	0.2495	812.6437	0.10571	-419.665678	-419.658323	-419.657379	-419.697092	27.314	
C	-0.0046279828	 1.5442358944	 0.0270454011	-0.426818
C	 0.0896679654	 0.0363419942	 0.083599096	-0.063787
C	 1.3364539018	-0.7526876416	-0.1585112615	-0.00971
O	 2.4802281797	-0.0223480194	 0.3695076024	-0.259938
C	 1.9917713787	-0.1443254986	 1.6692690893	 0.38259
O	 2.5504167545	 0.1198197777	 2.6824380648	-0.324294
C	 0.6922978319	-0.7813970095	 1.2254214479	 0.176444
O	-0.0788698267	-1.6690875888	 1.9242028338	-0.436514
H	 0.9402557731	 2.0118837085	 0.3119064441	 0.147725
H	-0.2473987391	 1.870170631	-0.9894412998	 0.127557
H	-0.789184888	 1.9093222971	 0.6962603977	 0.133476
H	-0.7913563602	-0.494910247	-0.2775129287	 0.116555
H	 1.5376890129	-1.5186228246	-0.8936589187	 0.133635
H	 0.4952233188	-2.3266970234	 2.3348361817	 0.303079
123.0887	192.4072	217.1089	246.0795	294.6602	352.212	413.4347	509.6994	592.5044	651.1805	730.0041	776.6967	803.2632	889.8907	924.9145	928.148	967.7014	1048.7873	1069.4121	1109.242	1126.7716	1212.8974	1272.4909	1333.0997	1356.2776	1416.353	1477.4794	1494.4409	1505.1778	1939.1563	3045.0271	3108.3939	3119.6128	3136.7819	3228.2779	3788.8356
CC1C2OC(=O)C12O	C[C@H]1[C@H]2OC(=O)[C@@]12O	
InChI=1S/C5H6O3/c1-2-3-5(2,7)4(6)8-3/h2-3,7H,1H3	InChI=1S/C5H6O3/c1-2-3-5(2,7)4(6)8-3/h2-3,7H,1H3/t2-,3+,5+/m0/s1
