17
gdb 64866	2.87662	1.21471	0.98876	1.9738	74.95	-0.2659	-0.0375	0.2284	1198.173	0.133351	-421.791816	-421.782985	-421.78204	-421.825362	33.367	
O	 0.4028565216	 1.3460278878	-0.4317258999	-0.479847
C	-0.0638613751	 0.147316531	 0.0939327548	 0.346428
C	 0.063114844	-0.0341281137	 1.6432340751	-0.29543
C	-1.4147218401	-0.5466863408	 1.702534091	-0.180101
C	-1.6146850966	 0.0095590081	 0.2531079097	-0.29543
C	-1.5532718647	-1.9861358998	 1.8245232297	 0.338086
C	-1.6563887148	-3.1817497349	 1.9113815061	-0.480493
C	 0.5350001189	-1.0168702127	-0.6654426742	 0.105158
O	 1.3008482962	-0.841273172	-1.5841210574	-0.283086
H	 0.9991494925	 1.1017116341	-1.159140229	 0.291638
H	 0.8381852456	-0.7012340382	 2.0250407987	 0.11912
H	 0.1676740423	 0.9507620635	 2.1018261987	 0.129641
H	-2.0295563817	-0.0541982654	 2.4600762971	 0.113484
H	-2.0540810428	 1.0086180181	 0.2610123929	 0.12964
H	-2.1540047691	-0.6233101278	-0.4541054453	 0.119117
H	-1.7590057758	-4.2349095822	 2.0020283005	 0.20282
H	 0.2350607197	-2.0295608452	-0.3354334887	 0.119254
73.4384	112.1936	159.1417	206.163	298.246	301.3921	373.0178	401.521	432.5558	509.8147	536.6389	554.8739	624.755	635.1719	773.5813	788.2919	835.2417	841.0221	926.1936	928.3376	959.9101	1000.6676	1083.1193	1096.7231	1126.0307	1161.909	1190.3623	1242.96	1252.1694	1305.06	1351.463	1388.4692	1442.4966	1462.5448	1484.0652	1803.4497	2230.6718	2965.6261	3069.4556	3074.7955	3079.4127	3140.1801	3140.7471	3502.7776	3667.5059
OC1(CC(C1)C#C)C=O	O[C@]1(C[C@@H](C1)C#C)C=O	
InChI=1S/C7H8O2/c1-2-6-3-7(9,4-6)5-8/h1,5-6,9H,3-4H2	InChI=1S/C7H8O2/c1-2-6-3-7(9,4-6)5-8/h1,5-6,9H,3-4H2/t6-,7-
