14
gdb 49267	2.85791	1.39002	0.96586	4.338	65.74	-0.2755	-0.0869	0.1885	1136.9657	0.100682	-473.873977	-473.866306	-473.865361	-473.906793	27.472	
O	-0.9369829081	 1.5195188513	 0.1676528141	-0.230692
C	 0.1538283576	 1.0219342593	 0.2293107708	 0.123835
C	 1.4395921005	 1.7995505484	 0.2273643704	 0.304719
N	 2.5346449614	 1.1655541273	 0.2727524731	-0.264564
C	 3.7564410562	 1.9555949467	 0.2654349437	-0.181826
C	 3.5809165251	 3.2772210885	-0.4932694674	-0.356189
C	 2.3333518808	 3.9965823506	-0.0392356681	 0.421517
O	 2.1869557622	 5.1711492325	 0.0902130157	-0.283643
O	 1.2534256242	 3.1576865336	 0.2094250632	-0.229143
H	 0.3361917126	-0.0682328888	 0.2898703599	 0.114683
H	 4.0465176659	 2.1407399182	 1.3093161353	 0.142609
H	 4.5582619385	 1.3593910128	-0.1780420875	 0.136226
H	 4.4308251364	 3.9506665575	-0.3752076096	 0.149435
H	 3.4643122869	 3.0682971422	-1.5646018335	 0.153033
92.6356	114.8664	164.8745	187.4322	294.3294	424.3831	455.9018	523.0863	523.2174	619.9399	670.0757	710.6191	787.0525	898.2051	948.8782	980.3606	1029.5012	1059.873	1089.4912	1123.4003	1211.0611	1262.5005	1274.5005	1332.1111	1379.6127	1389.9051	1462.1118	1486.0702	1725.8699	1832.3529	1896.9161	2960.6404	3019.5238	3041.3194	3089.508	3132.2058
O=CC1=NCCC(=O)O1	O=CC1=NCCC(=O)O1	
InChI=1S/C5H5NO3/c7-3-4-6-2-1-5(8)9-4/h3H,1-2H2	InChI=1S/C5H5NO3/c7-3-4-6-2-1-5(8)9-4/h3H,1-2H2
