21
gdb 70242	2.86742	1.26949	1.16741	1.7415	77.51	-0.2372	0.0728	0.31	1164.2399	0.181757	-424.224404	-424.215482	-424.214538	-424.257124	36.122	
C	 0.5741666995	 1.3500966769	 0.038250756	-0.445698
C	-0.0815464458	-0.0321522219	-0.0465210781	 0.407266
O	-1.5028549211	 0.137379347	-0.104008041	-0.475073
C	 0.4363878261	-0.8704000454	-1.2651418309	-0.286208
C	 1.3499737388	-1.9469988427	-0.710300905	-0.1085
C	 2.5071834344	-1.5243896329	 0.1810338953	-0.329928
C	 1.218502231	-1.9613885059	 0.8010069395	 0.425327
O	 1.2876391843	-3.1296260466	 1.5613565291	-0.472379
C	 0.1980947298	-0.9086338281	 1.2021152567	-0.328712
H	 1.6607637563	 1.286908333	 0.1405722872	 0.123797
H	 0.3673677764	 1.9289386057	-0.8708324522	 0.103781
H	 0.17777329	 1.9019079611	 0.8956727324	 0.124389
H	-1.6969723589	 0.7489916505	-0.8225960138	 0.271956
H	-0.4339558532	-1.3337434269	-1.7414426069	 0.102794
H	 0.922216814	-0.2339116363	-2.0151385438	 0.089227
H	 1.4665361808	-2.8746945242	-1.2595437854	 0.085372
H	 3.3173415524	-2.2400563029	 0.2660573194	 0.120621
H	 2.8208519521	-0.4869264923	 0.224993201	 0.108797
H	 0.4239256879	-3.5567961567	 1.5266332682	 0.277619
H	 0.5094348105	-0.3140208452	 2.0670809311	 0.101593
H	-0.7393757254	-1.4090173362	 1.471369791	 0.103959
111.2225	171.2359	258.0348	292.1243	300.6423	327.6794	346.8374	363.4182	368.6512	424.3228	455.7475	475.2279	551.6978	601.9495	722.2529	776.5962	841.4295	892.8094	900.9688	920.7331	938.7019	953.0186	966.3448	992.8984	1050.6003	1066.1247	1096.6196	1117.9457	1132.0041	1166.2397	1195.7839	1249.7315	1252.8862	1280.4726	1303.2799	1324.8453	1352.2789	1383.074	1402.074	1426.9061	1473.8063	1485.3769	1492.9941	1498.1547	1504.4365	3022.2571	3026.5357	3037.5074	3073.0412	3080.3998	3095.0288	3121.017	3135.6131	3171.9731	3221.2977	3785.2449	3801.9883
CC1(O)CC2CC2(O)C1	C[C@@]1(O)C[C@H]2C[C@@]2(O)C1	
InChI=1S/C7H12O2/c1-6(8)2-5-3-7(5,9)4-6/h5,8-9H,2-4H2,1H3	InChI=1S/C7H12O2/c1-6(8)2-5-3-7(5,9)4-6/h5,8-9H,2-4H2,1H3/t5-,6+,7+/m0/s1
