21
gdb 94691	3.04768	1.42195	1.26738	1.547	77.61	-0.2357	0.0702	0.3059	1091.076	0.18317	-424.217167	-424.208823	-424.207879	-424.249427	33.732	
C	-0.0761807276	 1.5335221697	-0.0410273948	-0.462197
C	 0.045226872	 0.027992363	-0.0048044949	 0.442938
C	 1.133262035	-0.7082495116	-0.8454182619	-0.291454
C	 1.0656203132	-1.8158760739	 0.2460354441	-0.058028
C	 0.6346095823	-0.6952836459	 1.2375329892	-0.269608
C	-0.1348007227	-2.7287137818	-0.0510246112	 0.12972
O	-0.5395790433	-3.4819856273	 1.082812375	-0.44084
C	-1.2685270499	-1.874040103	-0.6688430134	-0.12042
O	-1.257774513	-0.509639778	-0.2526437541	-0.31562
H	 0.8793298876	 2.0041558743	 0.207883484	 0.109821
H	-0.3850876955	 1.8701000007	-1.0355583177	 0.122533
H	-0.8291625767	 1.8703875255	 0.6783920841	 0.125452
H	 0.9111001156	-0.9676499725	-1.8835002487	 0.09978
H	 2.078824124	-0.1620311003	-0.807441882	 0.101516
H	 1.9604125278	-2.3961135225	 0.477431183	 0.07055
H	 1.5005217094	-0.1745274304	 1.654942241	 0.098463
H	-0.0686578582	-0.9232312343	 2.0448813899	 0.081668
H	 0.1547545189	-3.4868428559	-0.7876373024	 0.087461
H	-0.7720573584	-2.8645941223	 1.7843812305	 0.280717
H	-1.2010396036	-1.9224140025	-1.765314006	 0.093936
H	-2.2375376068	-2.2902931509	-0.3795104737	 0.113613
122.1027	189.9577	214.1925	270.2317	291.5251	329.2468	395.7937	420.7065	450.4922	455.637	504.9778	617.4007	704.0288	780.8539	821.8486	858.4783	875.3684	894.3733	907.8822	968.4928	975.4208	998.1151	1032.4541	1067.1563	1079.2999	1106.8854	1139.2816	1156.1189	1197.9601	1211.4677	1242.0074	1244.1167	1260.1527	1295.1388	1316.5348	1330.1519	1352.5188	1394.6174	1411.6658	1434.8395	1472.7903	1480.603	1492.576	1496.933	1515.7158	2991.6312	3037.6913	3043.9623	3047.7641	3063.7557	3088.5507	3093.1943	3102.3773	3109.6843	3114.8408	3119.408	3811.4038
CC12CC(C1)C(O)CO2	C[C@@]12C[C@@H](C1)[C@@H](O)CO2	
InChI=1S/C7H12O2/c1-7-2-5(3-7)6(8)4-9-7/h5-6,8H,2-4H2,1H3	InChI=1S/C7H12O2/c1-7-2-5(3-7)6(8)4-9-7/h5-6,8H,2-4H2,1H3/t5-,6-,7+/m0/s1
