18
gdb 68510	2.62988	1.83559	1.42562	1.7066	75.65	-0.2342	0.0058	0.24	965.7678	0.148951	-401.918824	-401.911386	-401.910442	-401.950382	29.899	
C	 0.0199187847	 1.5237114789	-0.0034433483	-0.509246
C	-0.014173782	 0.0216514082	 0.029530994	 0.193638
N	 0.4357278222	-0.7609836196	-1.1939848071	-0.347921
C	-0.3251473122	-1.9256184922	-0.6023917985	-0.151557
C	 0.4562739123	-2.1936781705	 0.6842724501	-0.032649
C	 1.8532879319	-1.6394779066	 0.7939788013	-0.305911
C	 0.6871596371	-0.7544173487	 1.1522753772	-0.071226
C	-1.3256859544	-0.8215029581	-0.1359446881	 0.391978
O	-2.496745993	-0.6015184125	-0.2035750397	-0.329064
H	 1.0421748846	 1.8889176495	-0.1422312463	 0.134439
H	-0.6069208164	 1.9175522069	-0.8100001714	 0.125695
H	-0.3602855675	 1.9289801796	 0.9393486824	 0.134849
H	-0.0772739213	-0.4147773389	-2.0051196972	 0.23354
H	-0.5946872113	-2.7488691578	-1.2605471242	 0.089917
H	 0.1110043367	-2.9757584687	 1.3483200136	 0.100244
H	 2.4257127507	-2.0076032266	 1.6386921346	 0.112066
H	 2.4293813612	-1.4416299278	-0.0999449066	 0.13553
H	 0.5188147067	-0.4383681449	 2.1744312242	 0.095677
136.0176	181.5651	204.3155	289.8086	302.6998	418.7452	519.2004	543.5942	593.9979	683.8528	716.7137	739.0201	797.8325	809.1642	851.1896	871.9052	893.6447	901.7092	989.8537	1018.1908	1029.3516	1045.1804	1077.5524	1091.0956	1100.6589	1119.2027	1166.0898	1172.7411	1187.414	1240.6524	1271.3098	1299.9607	1354.7154	1389.2803	1416.1504	1461.297	1486.611	1488.3105	1880.6941	3037.2419	3107.0984	3112.01	3146.8475	3148.4993	3186.4808	3196.9809	3239.583	3465.894
CC12NC(C3CC13)C2=O	C[C@@]12N[C@@H]([C@H]3C[C@@H]13)C2=O	
InChI=1S/C7H9NO/c1-7-4-2-3(4)5(8-7)6(7)9/h3-5,8H,2H2,1H3	InChI=1S/C7H9NO/c1-7-4-2-3(4)5(8-7)6(7)9/h3-5,8H,2H2,1H3/t3-,4+,5-,7+/m0/s1
