16
gdb 28474	3.17051	1.3505	0.95273	2.6012	75.56	-0.2263	-0.0052	0.221	1175.3011	0.125559	-437.968278	-437.960345	-437.959401	-438.000441	30.655	
C	-0.0044965714	 1.4984130442	 0.0263808197	-0.542991
C	 0.0309166496	-0.0071961767	 0.029914488	 0.147122
C	 0.0059913443	-0.7529271851	-1.140509164	-0.064143
N	 0.034999749	-2.0884797019	-1.2043022683	-0.386107
C	 0.0922047782	-2.7424958546	-0.0487421066	 0.445615
O	 0.1217686455	-4.0912645981	-0.1051467204	-0.421329
C	 0.1230555146	-2.1269087249	 1.2013922827	-0.315236
C	 0.0916716514	-0.7407545885	 1.2320479005	 0.347614
O	 0.1214739746	-0.1367698141	 2.4451343758	-0.429139
H	 0.8885332265	 1.9382645626	 0.4912451845	 0.131046
H	-0.0508316246	 1.8784347479	-0.9971633617	 0.140046
H	-0.8808285872	 1.8967907402	 0.5559195619	 0.13103
H	-0.0408077006	-0.2349181351	-2.096777938	 0.103175
H	 0.0928288165	-4.3118865518	-1.0466276265	 0.295735
H	 0.1696900292	-2.7052472657	 2.1144413809	 0.115016
H	 0.0948392946	 0.8186445715	 2.3276799015	 0.302545
137.1557	161.2396	221.0186	288.3207	323.5759	348.4879	393.589	454.4039	474.4307	539.2827	539.3474	574.2101	698.887	761.9818	766.5106	787.9635	876.7551	950.4268	976.8674	1019.8731	1062.6646	1164.075	1172.3029	1229.6564	1277.2866	1338.0925	1343.7216	1382.3543	1416.5683	1477.695	1486.8154	1513.7348	1528.8874	1635.5422	1673.2219	3003.157	3046.2952	3113.3394	3141.7464	3223.321	3767.0108	3822.3014
CC1=CN=C(O)C=C1O	Cc1cnc(O)cc1O	
InChI=1S/C6H7NO2/c1-4-3-7-6(9)2-5(4)8/h2-3H,1H3,(H2,7,8,9)	InChI=1S/C6H7NO2/c1-4-3-7-6(9)2-5(4)8/h2-3H,1H3,(H2,7,8,9)
