16
gdb 107319	2.7609	1.70353	1.20138	3.5983	71.12	-0.2514	-0.064	0.1874	1007.0237	0.125395	-437.88299	-437.875491	-437.874547	-437.914936	28.873	
O	 0.1466182672	 1.0773661651	-0.7069928503	-0.417616
C	-0.0186536437	 0.0873654536	 0.283827966	-0.153299
C	-1.4241400351	-0.4808556017	 0.2219209113	 0.165679
C	-2.5411211694	 0.0820043758	 1.0454281028	-0.261715
N	-1.9825051345	-1.2616381989	 1.3325121112	-0.137323
C	-2.7477832155	-2.2850982068	 0.7079543564	-0.034092
C	-2.6260215186	-2.3407970441	-0.6311206941	-0.207897
C	-1.7822772007	-1.2111577021	-1.0565699552	 0.353671
O	-1.3643246242	-0.928168119	-2.1650578605	-0.369307
H	-0.1048815469	 0.6625796487	-1.5460628738	 0.300986
H	 0.7050265759	-0.735361744	 0.1712298173	 0.100248
H	 0.1614232219	 0.5537833005	 1.2572419729	 0.11373
H	-2.298202142	 0.8537986943	 1.7700624785	 0.142573
H	-3.5419650804	 0.1195974809	 0.6251954554	 0.137209
H	-3.3646833473	-2.9047549659	 1.3479680102	 0.137186
H	-3.0834861266	-3.0522124863	-1.3032172681	 0.129968
109.2959	152.3165	222.366	270.4598	327.2893	378.029	472.0603	486.3517	571.5138	656.8361	687.9173	750.8613	808.3541	837.4876	865.8618	902.1422	936.3066	964.1322	997.4269	1035.4417	1077.2985	1101.802	1113.574	1131.3278	1158.9572	1211.5053	1323.619	1347.4244	1360.6554	1379.1742	1459.4812	1491.2404	1511.544	1602.2174	1774.8835	2981.6207	3079.7683	3116.064	3209.0877	3215.032	3248.8921	3714.4555
OCC12CN1C=CC2=O	OC[C@]12CN1C=CC2=O	
InChI=1S/C6H7NO2/c8-4-6-3-7(6)2-1-5(6)9/h1-2,8H,3-4H2	InChI=1S/C6H7NO2/c8-4-6-3-7(6)2-1-5(6)9/h1-2,8H,3-4H2/t6-,7?/m0/s1
