14
gdb 25255	3.23315	1.69425	1.11958	3.19	72.23	-0.2172	-0.0338	0.1834	995.089	0.103957	-436.738202	-436.731567	-436.730623	-436.769249	25.862	
O	-0.076133378	-0.0585662127	 0.0050394518	-0.372172
C	 0.0100647712	 1.1525246248	 0.0097413019	 0.26289
C	-1.2017062607	 2.1358026221	 0.031393831	-0.213282
O	-0.6937921734	 3.4929002929	 0.0309187103	-0.27731
C	 0.6504423035	 3.3673763351	 0.0115732918	 0.398228
C	 1.1171128215	 2.0655250044	-0.0012699819	 0.119855
N	 2.4939057421	 2.1232306689	-0.0201766546	-0.391017
C	 2.8633849972	 3.4373829979	-0.0188944111	-0.034135
C	 1.7404256854	 4.2582714722	 0.0007221483	-0.324095
H	-1.831507333	 1.9957994201	-0.8517843265	 0.147044
H	-1.8066898406	 1.9871360171	 0.9303633807	 0.147042
H	 3.1182897948	 1.3359587504	-0.0327580177	 0.280656
H	 3.9067212293	 3.7138399965	-0.0320726113	 0.137424
H	 1.7380867308	 5.3355372703	 0.0059981876	 0.118871
141.3325	188.3522	294.3914	322.9767	443.6786	541.0226	542.4507	612.1698	639.363	661.6757	725.4583	737.0662	760.2192	838.7772	926.2692	978.3629	995.0817	1037.1285	1075.015	1093.6918	1171.4984	1191.7819	1279.5008	1304.5385	1379.6428	1451.1919	1467.6099	1483.2929	1565.1618	1589.1611	1798.6473	3063.6651	3116.0562	3253.3992	3275.7951	3686.6153
O=C1COC2=C1NC=C2	O=C1COc2c1[nH]cc2	
InChI=1S/C6H5NO2/c8-4-3-9-5-1-2-7-6(4)5/h1-2,7H,3H2	InChI=1S/C6H5NO2/c8-4-3-9-5-1-2-7-6(4)5/h1-2,7H,3H2
