17
gdb 128661	2.38356	1.49529	0.93153	1.1391	74.28	-0.1918	0.0148	0.2066	1238.2988	0.136462	-451.320164	-451.310801	-451.309857	-451.35465	32.747	
C	 0.010302577	 1.4162719548	-0.0299480594	-0.238478
O	 0.0409449519	-0.0071377191	 0.006522923	-0.275491
C	 0.6441382242	-0.5996274092	-1.0395682849	 0.353711
N	 1.1655507001	 0.0228775556	-2.0870672296	-0.337045
N	 1.5871703312	-0.9802073388	-2.864968284	 0.126472
C	 2.4168561282	-0.7515566722	-4.0219568897	-0.305653
N	 1.3971259425	-2.2099344251	-2.363636131	-0.310056
C	 0.7858482832	-1.9965545311	-1.2039674936	 0.243711
N	 0.4208908795	-3.0026365176	-0.3164673202	-0.599808
H	 1.0248987567	 1.8283895299	-0.0539310069	 0.134283
H	-0.5318025922	 1.774193836	-0.9119963419	 0.13311
H	-0.5016682973	 1.7314892519	 0.8801521325	 0.128896
H	 3.4764995338	-0.6685691991	-3.7509396847	 0.136885
H	 2.2885273888	-1.5905652402	-4.7070695967	 0.151188
H	 2.0963539699	 0.1748631246	-4.5004108838	 0.149126
H	 0.3207187242	-3.900157229	-0.7716582772	 0.254248
H	-0.4059259316	-2.7703313815	 0.2172946882	 0.254901
84.6961	107.0408	122.7805	172.795	177.7749	226.0773	274.2843	293.1519	374.7392	386.7761	584.2884	618.8422	638.557	657.1855	702.194	771.9253	871.4873	999.1986	1060.132	1074.5897	1138.9742	1151.6011	1181.2471	1219.2462	1297.1381	1360.5034	1395.0492	1444.4389	1445.6283	1471.559	1478.7599	1485.8973	1503.1932	1509.2586	1595.9431	1611.2072	1648.3417	3027.446	3028.9518	3093.	3114.721	3144.2632	3161.0928	3547.302	3646.6048
COC1=NN(C)N=C1N	COc1nn(C)nc1N	
InChI=1S/C4H8N4O/c1-8-6-3(5)4(7-8)9-2/h1-2H3,(H2,5,6)	InChI=1S/C4H8N4O/c1-8-6-3(5)4(7-8)9-2/h1-2H3,(H2,5,6)
