19
gdb 84002	2.17976	1.77635	1.4617	1.9348	71.06	-0.2162	0.0662	0.2824	1012.761	0.159031	-460.128702	-460.120349	-460.119405	-460.16111	32.597	
C	-0.1055520658	 1.4631299938	-0.0166603671	-0.443662
C	 0.0421231019	-0.0364631743	-0.045847156	 0.363451
O	-1.0979267317	-0.6209732307	-0.6143106204	-0.300007
C	-1.4050027452	-1.9594217341	-0.2416508683	-0.079073
C	-1.0578924274	-2.2336362182	 1.2116228327	-0.094264
O	 0.3391906887	-2.0334558876	 1.4330620617	-0.266537
C	 0.7442157144	-0.7308309583	 1.1032332849	-0.070312
C	 1.4274860424	-0.6280212265	-0.2569692317	 0.030044
O	 1.5816246929	-1.8134411359	-0.9708929441	-0.430813
H	 0.7968574473	 1.9382949493	 0.3782935528	 0.117452
H	-0.276787569	 1.8415596559	-1.0294045962	 0.133758
H	-0.9543076157	 1.756624739	 0.6093659972	 0.121499
H	-2.4810430145	-2.0823178684	-0.4036177856	 0.109414
H	-0.8704611963	-2.665017199	-0.8895013306	 0.113001
H	-1.6398857977	-1.5794567588	 1.876374059	 0.105831
H	-1.2664298073	-3.2757495852	 1.4684254345	 0.115502
H	 1.1005900614	-0.1607368959	 1.9591700756	 0.093933
H	 2.2599601047	 0.0640148687	-0.3699167964	 0.091178
H	 1.5091601268	-2.5294901236	-0.3237618822	 0.289605
135.7832	168.885	205.8933	234.2352	259.577	320.8498	352.868	400.1898	460.899	500.1375	567.5106	617.4756	654.3477	731.3965	805.2122	826.6784	896.5991	913.1829	985.2131	1024.4405	1046.4001	1096.1332	1116.9889	1124.678	1140.6984	1163.7046	1172.1446	1240.1305	1268.6463	1273.8084	1309.3741	1330.9081	1375.5444	1400.472	1415.1661	1415.414	1438.9129	1479.5819	1489.4018	1500.5701	1502.5477	3007.8245	3030.2753	3036.8159	3080.9076	3100.6952	3106.243	3112.3676	3114.392	3124.3348	3730.2185
CC12OCCOC1C2O	C[C@]12OCCO[C@H]1[C@H]2O	
InChI=1S/C6H10O3/c1-6-4(7)5(6)8-2-3-9-6/h4-5,7H,2-3H2,1H3	InChI=1S/C6H10O3/c1-6-4(7)5(6)8-2-3-9-6/h4-5,7H,2-3H2,1H3/t4-,5+,6-/m1/s1
