25
gdb 96477	2.21717	1.41721	0.97909	0.2591	94.8	-0.2206	0.0303	0.2509	1340.2673	0.230586	-352.381454	-352.372037	-352.371092	-352.414968	37.539	
C	-0.0083049541	 1.6095037707	-0.0410190288	-0.420927
C	 0.0588508791	 0.0755247897	 0.0128723073	-0.052648
C	 0.7266516283	-0.488662686	-1.2670786156	-0.173583
C	 0.273389417	-1.9047600274	-1.6544342727	-0.191469
C	 0.589942378	-3.0269822893	-0.6551248705	-0.172246
C	-0.0366667687	-2.8355059071	 0.7418525551	-0.251976
C	 0.6480330715	-1.7778559168	 1.5744082047	-0.145892
C	 0.724579376	-0.4770976539	 1.2743411243	 0.326764
C	 1.509102778	 0.4610154394	 2.1578522936	-0.480791
H	 0.9876321772	 2.0599094851	-0.1086219036	 0.11514
H	-0.572478083	 1.9279742208	-0.9232914224	 0.10945
H	-0.5066546339	 2.0290020475	 0.8380367009	 0.112512
H	-0.980289141	-0.2862035691	 0.010543399	 0.078213
H	 0.4896957037	 0.1773022478	-2.1067143286	 0.084298
H	 1.8175791388	-0.4587335525	-1.1489609804	 0.089832
H	-0.8135041613	-1.8836639161	-1.8209802314	 0.089365
H	 0.7196773056	-2.1624061499	-2.6230724859	 0.088235
H	 0.2273751992	-3.9716940257	-1.0794673633	 0.086623
H	 1.6767927016	-3.1325085715	-0.5449215751	 0.092427
H	-1.1046122525	-2.5995357312	 0.6181483571	 0.099415
H	-0.0014041684	-3.7885447589	 1.279656297	 0.09098
H	 1.1512487874	-2.1273325654	 2.4739152289	 0.071182
H	 1.9584225984	-0.0793749645	 2.9949904255	 0.11396
H	 2.3190515957	 0.9553063615	 1.6061607874	 0.120314
H	 0.8853359673	 1.2623416327	 2.5711114576	 0.120824
85.482	156.8284	205.5872	250.8373	266.2286	270.9488	311.3751	325.4015	356.1554	397.6592	440.0935	514.0584	557.7679	613.4014	704.7973	803.7774	807.3699	849.6484	863.0015	908.2742	947.9585	980.4981	989.0332	1021.1916	1047.9405	1065.9255	1085.7207	1110.4191	1116.7782	1124.473	1173.7681	1216.3541	1239.4648	1263.7953	1301.9316	1326.3343	1344.4578	1358.6813	1366.7395	1384.3641	1389.7146	1398.7493	1408.7262	1420.2206	1478.1683	1479.3507	1481.5671	1483.7041	1488.2237	1494.4307	1506.33	1509.7748	1722.2508	2982.8024	2993.5644	3001.1114	3012.2923	3015.507	3018.6445	3034.7375	3045.1203	3051.5447	3059.6663	3064.9043	3065.2627	3100.1107	3105.6784	3110.4632	3138.5179
CC1CCCCC=C1C	C[C@H]1CCCCC=C1C	
InChI=1S/C9H16/c1-8-6-4-3-5-7-9(8)2/h6,9H,3-5,7H2,1-2H3	InChI=1S/C9H16/c1-8-6-4-3-5-7-9(8)2/h6,9H,3-5,7H2,1-2H3/t9-/m0/s1
