20
gdb 88015	2.84425	1.34623	1.17203	1.7585	80.21	-0.2235	0.0718	0.2952	1157.5265	0.16953	-403.075817	-403.067122	-403.066177	-403.109056	33.357	
C	-0.2116991948	 1.2923512454	-0.1279000305	-0.318165
N	 0.1617538386	-0.1100911636	-0.0084700896	-0.119346
C	 1.5905900235	-0.4299450612	-0.0806586715	-0.315365
C	 0.842550229	-0.529521301	 1.1938989789	 0.198472
C	 1.0678897555	 0.2173720816	 2.5125114513	-0.153346
O	 0.741509154	-0.9795041162	 3.2572142923	-0.319333
C	 0.4606413217	-1.7067586108	 2.0552285064	 0.41119
C	-0.6986315536	-2.6337942051	 1.9173861297	-0.330367
C	 0.7307288759	-3.1646372237	 1.9066431607	-0.342564
H	 0.5250996843	 1.9859575018	 0.3102882969	 0.101591
H	-0.3259623142	 1.5422517265	-1.1869513521	 0.127566
H	-1.1741824592	 1.4558135105	 0.3669106782	 0.128956
H	 1.8513909928	-1.3201567237	-0.6477246763	 0.118096
H	 2.2969486892	 0.3954496463	-0.1769704634	 0.107019
H	 2.0899646442	 0.557019393	 2.7144709266	 0.108988
H	 0.3639400817	 1.0329638789	 2.7205913588	 0.107179
H	-1.2920171929	-2.820880057	 2.8057864034	 0.122347
H	-1.2518275457	-2.6049059898	 0.9846168267	 0.127451
H	 1.1505591556	-3.5233705286	 0.9720832572	 0.115069
H	 1.0719887442	-3.6922390231	 2.7909846364	 0.12456
82.2594	131.4692	177.1635	205.037	231.4191	266.9628	368.3444	415.6256	450.1772	529.4719	560.8834	609.8273	758.5551	785.0052	870.8407	873.2675	879.128	918.0445	963.5956	975.8293	1011.4523	1045.4279	1047.6025	1063.5682	1077.332	1107.1526	1123.8729	1151.9813	1161.3003	1187.7728	1189.648	1215.6698	1240.3587	1325.3334	1363.106	1445.159	1446.9622	1455.5518	1489.614	1495.0843	1497.9352	1517.5858	1529.7924	2966.3316	3016.5241	3062.9246	3070.7236	3080.012	3107.7574	3125.9728	3132.7072	3170.0496	3211.5562	3228.219
CN1CC11COC11CC1	CN1C[C@]21COC12CC1	
InChI=1S/C7H11NO/c1-8-4-6(8)5-9-7(6)2-3-7/h2-5H2,1H3	InChI=1S/C7H11NO/c1-8-4-6(8)5-9-7(6)2-3-7/h2-5H2,1H3/t6-,8?/m0/s1
