12
gdb 132332	2.10176	1.8474	0.98319	2.5628	62.28	-0.2344	-0.0426	0.1918	1061.0291	0.077885	-513.958792	-513.951873	-513.950929	-513.99042	26.185	
O	-0.1073276435	 1.2618441109	 0.0099029301	-0.368974
C	 0.0473937761	-0.0536737632	 0.0023511715	 0.521927
N	 1.2152735767	-0.5986484705	-0.0067381371	-0.453246
C	 1.1996169638	-1.9629718308	-0.0138326535	 0.338439
F	 2.4039179199	-2.5020923902	-0.0230236868	-0.049724
C	 0.0944047708	-2.7358350805	-0.0120285262	-0.333831
C	-1.1937774743	-2.0964377825	-0.001872414	 0.407521
N	-2.322921556	-2.6584031435	 0.0011696266	-0.532371
O	-1.1277021011	-0.6627279418	 0.0053106937	-0.232406
H	 0.7814506779	 1.6459678247	 0.0071559853	 0.32813
H	 0.136147358	-3.8141290602	-0.0178970817	 0.141013
H	-3.0835286682	-1.9810110924	 0.0087464121	 0.233523
139.389	187.7361	206.4357	349.9584	363.7455	483.6111	557.2533	566.2434	596.4837	638.3992	674.1257	687.0836	773.2917	816.1026	848.5384	871.0173	996.2659	1048.1459	1089.5211	1207.6054	1244.8132	1261.5351	1441.401	1483.0017	1640.904	1686.506	1779.3972	3257.7503	3516.1058	3775.183
OC1=NC(F)=CC(=N)O1	OC1=N[C@@H](F)C=C([NH])O1	
InChI=1S/C4H3FN2O2/c5-2-1-3(6)9-4(8)7-2/h1,6H,(H,7,8)	InChI=1S/C4H4FN2O2/c5-2-1-3(6)9-4(8)7-2/h1-2,6H,(H,7,8)/t2-/m1/s1
