14
gdb 132365	2.02774	1.79634	0.95814	1.4994	67.04	-0.2587	-0.0347	0.2241	1130.299	0.101345	-478.055827	-478.04827	-478.047325	-478.088405	27.922	
C	-0.0283230766	 1.5097762455	 0.0040495481	-0.467118
C	 0.0033827024	 0.0083666425	-0.0253619674	 0.343179
C	-0.1315781726	-0.7065904933	-1.2138387634	-0.343401
C	-0.0828850349	-2.0882902929	-1.0880142633	 0.356109
F	-0.203162899	-2.8424407983	-2.168833434	-0.057362
N	 0.0773654431	-2.7256846558	 0.0485482068	-0.409266
C	 0.1958472987	-1.9311559109	 1.1227490019	 0.451384
O	 0.3608383202	-2.5431338622	 2.3011186584	-0.387139
N	 0.1687276978	-0.6076113626	 1.1550060934	-0.344474
H	 0.9033835174	 1.893009072	 0.4314719156	 0.152469
H	-0.1655797496	 1.9344345564	-0.9923564572	 0.12538
H	-0.8396095552	 1.8518401787	 0.6540084369	 0.152469
H	-0.265634996	-0.2318215158	-2.175420183	 0.118238
H	 0.3602382443	-3.4929540931	 2.1209213173	 0.309533
67.9491	184.1122	208.4944	239.606	299.3379	358.4085	529.6382	555.1971	567.1365	588.8136	614.613	636.6758	722.6629	816.7374	844.2826	986.3743	997.0421	1019.8179	1058.439	1106.5049	1178.1431	1246.375	1314.8144	1398.9853	1415.1246	1472.7864	1478.7806	1486.3046	1513.1109	1611.9743	1655.8624	3047.3093	3109.6975	3137.0696	3232.0704	3785.2101
CC1=CC(F)=NC(O)=N1	Cc1cc(F)nc(O)n1	
InChI=1S/C5H5FN2O/c1-3-2-4(6)8-5(9)7-3/h2H,1H3,(H,7,8,9)	InChI=1S/C5H5FN2O/c1-3-2-4(6)8-5(9)7-3/h2H,1H3,(H,7,8,9)
