19
gdb 93721	2.60613	1.31335	1.19896	1.204	77.11	-0.2565	0.0411	0.2976	1165.2028	0.156438	-423.002113	-422.992565	-422.99162	-423.038604	35.141	
C	 0.1966899545	 1.5771957872	 0.0195030826	-0.411428
C	 0.0866502843	 0.0639162936	-0.0202257216	 0.113065
C	 0.8270770939	-0.624291847	-1.1986389665	-0.118237
O	 1.657130424	-1.607040216	-0.5874582359	-0.264895
C	 1.2082111957	-1.7597688568	 0.7512807762	 0.217673
C	 2.3814698098	-2.1488503107	 1.6349249322	-0.431764
O	 0.7314158983	-0.4860814495	 1.1310029083	-0.267346
C	 0.1153327263	-2.7613529537	 0.8084024762	 0.361491
C	-0.7710326652	-3.5718421569	 0.8523100952	-0.484552
H	 1.2468140178	 1.8844033871	 0.0220661942	 0.127462
H	-0.2959245968	 2.0173223837	-0.8534246435	 0.119598
H	-0.2835565267	 1.9737467816	 0.9181574619	 0.131877
H	-0.9697724285	-0.2382777012	-0.0199468423	 0.086133
H	 0.1245679237	-1.0877344638	-1.9015393007	 0.108159
H	 1.4726762649	 0.0693694186	-1.7474138672	 0.109693
H	 3.1481380401	-1.3751923604	 1.5594738399	 0.129498
H	 2.0523914118	-2.2409986331	 2.6719180148	 0.136901
H	 2.791380981	-3.1053645188	 1.3048658373	 0.13819
H	-1.5524547888	-4.2904934438	 0.8916428191	 0.198482
4.6793	100.6238	181.5146	192.2687	210.9332	232.4912	291.1468	349.649	415.9816	424.4946	532.5062	586.2115	639.0542	654.8229	660.1654	681.7128	802.1523	856.6487	877.5935	912.6783	943.6413	966.7604	1063.3994	1100.9339	1120.241	1162.2782	1169.417	1193.9841	1228.7064	1240.4919	1356.1334	1363.9827	1397.3089	1404.5366	1413.2509	1478.6597	1480.1036	1485.1369	1497.181	1524.0893	2227.9872	3004.3811	3027.861	3040.7755	3061.9374	3074.9564	3114.3342	3122.226	3147.8223	3149.5013	3498.9659
CC1COC(C)(O1)C#C	C[C@H]1CO[C@@](C)(O1)C#C	
InChI=1S/C7H10O2/c1-4-7(3)8-5-6(2)9-7/h1,6H,5H2,2-3H3	InChI=1S/C7H10O2/c1-4-7(3)8-5-6(2)9-7/h1,6H,5H2,2-3H3/t6-,7-/m0/s1
