22
gdb 107628	2.52116	1.47685	1.11794	2.1231	81.08	-0.2325	0.0683	0.3008	1185.8387	0.195515	-404.346292	-404.337263	-404.336319	-404.379853	35.113	
C	-0.4266664499	 1.4923753944	-0.3139021792	-0.380962
C	 0.0457364157	 0.0607209119	-0.0192395797	-0.303027
C	 0.917519494	-0.5323582683	-1.1010808754	 0.327849
N	 0.3216358114	-0.9544045281	-2.3984939743	-0.393658
C	 0.9089655467	-1.9638417872	-1.4799194593	-0.086592
C	 2.3021665412	-2.4093802384	-1.8836585289	-0.220129
C	 3.0367625124	-1.0870633981	-2.1888244794	-0.244775
C	 2.3239212647	 0.0139957157	-1.3563200227	 0.100554
O	 2.3323048539	 1.2835784529	-1.9893706915	-0.439299
H	 0.4237306827	 2.1589862864	-0.4730491011	 0.145217
H	-1.0430995962	 1.5236709922	-1.2190651457	 0.109757
H	-1.0288142889	 1.8802240763	 0.5133271823	 0.107738
H	 0.6040731404	 0.048396058	 0.9262342799	 0.101879
H	-0.8246082676	-0.5918094385	 0.1329842991	 0.087905
H	-0.6915977752	-0.975310776	-2.3014086749	 0.226338
H	 0.2335386431	-2.6638692854	-0.9962970287	 0.081416
H	 2.763286935	-2.9365445768	-1.0398596666	 0.099203
H	 2.3003289436	-3.0953821039	-2.7368773988	 0.103922
H	 4.1073601886	-1.1334317681	-1.9765947798	 0.098387
H	 2.9258204793	-0.8304967486	-3.2455651362	 0.11106
H	 2.8291360189	 0.1678056981	-0.3954753711	 0.081902
H	 1.7831233961	 1.1838017215	-2.777564178	 0.285315
77.8507	113.1345	170.7049	200.6019	243.8552	309.676	317.4132	401.004	430.6887	469.5856	543.3361	595.0363	641.6749	701.0753	781.9494	826.7065	862.1027	893.809	911.5376	945.8115	979.3689	987.5615	1035.8445	1053.4985	1070.2396	1087.4508	1103.7904	1118.2601	1136.2622	1184.4723	1241.4446	1248.2707	1266.4734	1299.015	1312.6581	1341.3407	1344.9423	1367.3024	1376.0677	1411.6152	1431.6131	1454.4685	1478.5501	1480.3647	1493.9253	1494.6556	1512.0731	3009.1805	3035.5225	3036.7266	3041.4464	3046.3815	3067.3079	3078.8366	3100.6105	3114.8359	3132.2571	3150.07	3485.8209	3773.2189
CCC12NC1CCC2O	CC[C@]12N[C@H]1CC[C@H]2O	
InChI=1S/C7H13NO/c1-2-7-5(8-7)3-4-6(7)9/h5-6,8-9H,2-4H2,1H3	InChI=1S/C7H13NO/c1-2-7-5(8-7)3-4-6(7)9/h5-6,8-9H,2-4H2,1H3/t5-,6+,7-/m0/s1
