19
gdb 93121	2.04189	1.65371	1.25657	1.3141	81.19	-0.2445	0.0223	0.2668	1096.4845	0.159446	-385.872141	-385.863541	-385.862597	-385.905034	33.654	
O	 0.0374000569	 1.4189859782	 0.0407507422	-0.442987
C	 0.0221849116	 0.0052891358	 0.0400344273	 0.123025
C	 0.8493334266	-0.5874447777	 1.1873240303	-0.271638
C	 0.6674053453	-2.0770423957	 1.3125552581	-0.050734
C	-0.3329541324	-2.7447780781	 0.7403534123	-0.042631
C	-1.4039222306	-2.0969646917	-0.0963059762	-0.275664
C	-1.4249501458	-0.5551061504	 0.0484582172	-0.188697
C	-2.1253241152	-0.1118731361	 1.2529513474	 0.323692
C	-2.6712163231	 0.2929215269	 2.2462520878	-0.485356
H	-0.463250005	 1.7062609985	 0.8150063197	 0.280586
H	 0.474230026	-0.2891019336	-0.9141060814	 0.092703
H	 1.9048751044	-0.3368401775	 1.0318197231	 0.110485
H	 0.5587915928	-0.0964868852	 2.1278593986	 0.111595
H	 1.3990642069	-2.6136542045	 1.9115280145	 0.087146
H	-0.4025189975	-3.8228113797	 0.863192404	 0.087123
H	-1.2498810994	-2.3482846813	-1.1552356293	 0.112584
H	-2.3878026885	-2.5026738221	 0.16495945	 0.11757
H	-1.9423820269	-0.1231946382	-0.816546603	 0.110935
H	-3.1747389361	 0.6297582926	 3.1186611475	 0.200265
96.4953	139.8088	150.962	233.1325	327.2043	377.4635	393.5074	401.8957	441.6249	464.2928	586.4258	618.8345	636.8493	650.706	686.8001	741.895	838.61	894.8573	914.3292	954.4634	989.0136	1005.0194	1041.6394	1065.7724	1094.7762	1101.9836	1172.091	1207.0478	1233.38	1264.0033	1270.1378	1328.008	1356.4202	1369.0212	1389.938	1412.9006	1434.2107	1471.6514	1476.1269	1727.5305	2223.9413	3005.2377	3008.3258	3035.8439	3046.9018	3057.9055	3063.5012	3145.3369	3168.7068	3501.6689	3770.385
OC1CC=CCC1C#C	O[C@H]1CC=CC[C@H]1C#C	
InChI=1S/C8H10O/c1-2-7-5-3-4-6-8(7)9/h1,3-4,7-9H,5-6H2	InChI=1S/C8H10O/c1-2-7-5-3-4-6-8(7)9/h1,3-4,7-9H,5-6H2/t7-,8+/m1/s1
