19
gdb 83665	2.2158	1.75693	1.32503	3.4569	78.29	-0.2307	0.0087	0.2394	1044.1219	0.160463	-382.039619	-382.031318	-382.030374	-382.072995	31.337	
C	 0.2243161882	 1.6448952204	-0.1108615907	-0.423209
C	 0.1285391915	 0.1318625918	-0.0087548074	-0.009343
C	 0.6673287026	-0.7747762463	-1.1423187621	 0.02735
C	 1.9615942577	-0.3796641713	-1.8939052507	-0.259458
C	 2.7192814762	-1.301957071	-0.9010964646	-0.177548
N	 1.4558088934	-1.6202309752	-0.1542330685	-0.142278
C	 1.1011971014	-0.6534508674	 0.9489099214	-0.14023
C	 2.1952066717	 0.1146310553	 1.5313795635	 0.289566
N	 3.0661423634	 0.7290088091	 1.981607856	-0.342017
H	 1.249865712	 1.9848123194	-0.2780179766	 0.139765
H	-0.3956418461	 2.0111949148	-0.9359031606	 0.122581
H	-0.1302885175	 2.1192096989	 0.8096657879	 0.131291
H	-0.8996875948	-0.1515069954	 0.2320692572	 0.095562
H	-0.0883914069	-1.2943460878	-1.7375635506	 0.080819
H	 1.9936909443	-0.6930886188	-2.93914468	 0.111809
H	 2.2284730763	 0.6782701054	-1.8447845992	 0.115658
H	 3.1247900766	-2.2119981463	-1.3511287958	 0.114394
H	 3.5016436466	-0.8360809587	-0.296797256	 0.135852
H	 0.5908957835	-1.172557707	 1.7663006667	 0.129438
40.6317	141.425	177.8488	199.4555	249.3956	339.0772	377.6177	461.0817	527.1642	590.3281	668.6612	729.5973	762.4836	779.3392	838.4716	877.5479	918.1679	956.3268	984.1997	1000.1001	1031.816	1067.5431	1097.1549	1130.0227	1161.2699	1183.6419	1213.4216	1224.5074	1232.5269	1263.2929	1280.0685	1312.6713	1337.9453	1352.8191	1368.6215	1419.0418	1481.1716	1492.0456	1501.3666	1511.5498	2341.6604	3039.28	3051.1516	3058.1765	3059.6936	3070.7994	3076.8096	3104.7989	3105.1866	3118.4983	3127.4717
CC1C2CCN2C1C#N	C[C@H]1[C@H]2CCN2[C@H]1C#N	
InChI=1S/C7H10N2/c1-5-6-2-3-9(6)7(5)4-8/h5-7H,2-3H2,1H3	InChI=1S/C7H10N2/c1-5-6-2-3-9(6)7(5)4-8/h5-7H,2-3H2,1H3/t5-,6+,7-/m0/s1
