21
gdb 108972	3.92151	1.17881	1.06637	0.2724	88.64	-0.2091	0.0144	0.2234	1230.9664	0.183998	-349.907736	-349.899976	-349.899032	-349.940136	31.264	
C	-0.2345756715	 1.5311798682	-0.0937276174	-0.370594
C	 0.1451506911	 0.044831069	 0.0403366565	-0.306171
C	 0.8106886932	-0.5046682252	-1.1787793273	 0.329409
C	 2.0506133807	-0.9686998794	-1.3723268934	-0.242536
C	 2.0818002492	-1.3639627818	-2.8379296423	-0.04371
C	 1.2601899754	-0.2761815926	-3.627074591	-0.034638
C	 0.7147187179	-1.3678998733	-4.5763386388	-0.254151
C	 0.6837801054	-2.008446705	-3.1698335149	-0.034827
C	 0.1683379318	-0.652298543	-2.5580397402	-0.105499
H	 0.6553868916	 2.1456072163	-0.2611147803	 0.119976
H	-0.9142637656	 1.6934164489	-0.9365259875	 0.118653
H	-0.7331640664	 1.8900300112	 0.8121252661	 0.111175
H	 0.8052440082	-0.0881929161	 0.9050835361	 0.101877
H	-0.7666628829	-0.5312159246	 0.254212268	 0.101909
H	 2.8620211752	-1.0582229964	-0.6625048423	 0.093872
H	 2.9867408453	-1.7822148544	-3.2813328562	 0.057094
H	 1.5975411894	 0.7334047069	-3.878346229	 0.064192
H	-0.2519249369	-1.1709983373	-5.0491058291	 0.086825
H	 1.4215078371	-1.7931746033	-5.2949293643	 0.087662
H	 0.3510080304	-3.0117479326	-2.8891655578	 0.064262
H	-0.8690440887	-0.3507085352	-2.7164987351	 0.055221
75.8561	120.0518	197.8084	278.201	335.2002	432.3116	448.5039	543.3826	605.1653	719.3284	752.145	785.8817	798.0266	835.471	861.3674	877.9908	898.7222	909.5782	947.6487	964.5384	980.7951	1009.8657	1050.062	1064.9657	1072.0291	1087.0957	1098.2	1125.0239	1153.6072	1189.9539	1192.4029	1212.6856	1228.9031	1241.1296	1259.6535	1281.5547	1317.9185	1339.3116	1351.4704	1405.7439	1478.9977	1497.5993	1506.6268	1515.7441	1687.8746	3002.8832	3035.3709	3042.5267	3057.4247	3070.6167	3075.0381	3097.7049	3101.7485	3106.0872	3108.9507	3110.4337	3220.7867
CCC1=CC2C3CC2C13	CCC1=C[C@@H]2[C@H]3C[C@@H]2[C@@H]13	
InChI=1S/C9H12/c1-2-5-3-6-7-4-8(6)9(5)7/h3,6-9H,2,4H2,1H3	InChI=1S/C9H12/c1-2-5-3-6-7-4-8(6)9(5)7/h3,6-9H,2,4H2,1H3/t6-,7-,8+,9+
