14
gdb 64556	3.00998	1.49007	1.13125	0.514	63.94	-0.2585	-0.061	0.1975	1018.8312	0.099444	-473.75787	-473.750327	-473.749383	-473.789936	28.585	
O	 0.0379689029	 1.4199253386	 0.034875357	-0.472682
C	 0.0227350829	 0.0455072861	-0.006790586	 0.426714
C	 0.9837511708	-0.480773416	-1.0463205239	 0.080453
O	 1.6465833912	 0.2738070041	-1.7167939646	-0.269045
C	 0.0004511881	-0.7170224565	 1.3730957958	-0.225168
N	-1.4300770295	-0.1980087608	 1.519384583	-0.297791
C	-1.384852969	-0.6623118456	 0.0635920479	-0.225184
C	-0.6693834857	-1.9013841553	 0.6435896795	 0.407474
O	-0.7812760021	-3.0867962397	 0.7124166112	-0.326616
H	 0.6840081037	 1.6890546243	-0.638471287	 0.299409
H	 1.0504313111	-1.5797358193	-1.1631630583	 0.12518
H	 0.7250869013	-0.6661290481	 2.1824565742	 0.117659
H	-1.9934045939	-0.8369872275	 2.0885949747	 0.241928
H	-2.2302077317	-0.5495412843	-0.6112404434	 0.117669
107.5272	144.0453	232.4779	282.5423	345.7169	377.4472	453.1842	465.6721	527.1466	543.5841	696.4094	720.3487	790.5116	801.7257	837.8775	875.7887	979.9931	1031.5708	1035.1157	1098.4573	1113.1311	1116.0669	1156.7885	1176.4799	1225.8489	1272.5629	1325.0099	1390.8785	1454.8668	1808.6826	1902.2341	2955.496	3156.4801	3159.5428	3408.4958	3681.0071
OC1(C=O)C2NC1C2=O	O[C@@]1(C=O)[C@H]2N[C@@H]1C2=O	
InChI=1S/C5H5NO3/c7-1-5(9)3-2(8)4(5)6-3/h1,3-4,6,9H	InChI=1S/C5H5NO3/c7-1-5(9)3-2(8)4(5)6-3/h1,3-4,6,9H/t3-,4+,5-
