18
gdb 30131	3.65625	1.16926	1.14527	3.0048	78.92	-0.1953	0.0328	0.2281	1151.2598	0.149436	-398.138765	-398.130677	-398.129733	-398.17221	30.647	
C	-0.0327122195	 1.498649112	-0.3679136393	-0.412999
C	 0.0019829356	 0.0136034267	-0.1000868642	 0.010581
C	 1.2527225274	-0.771277706	-0.2743479962	-0.247926
N	 0.7255622464	-0.5410720271	 1.0693630169	-0.198653
C	 1.432991439	 0.3215479338	 1.9237785833	 0.332845
C	 1.0203885103	 0.7258700218	 3.1707853077	-0.192569
N	 2.0394976287	 1.5274330911	 3.644451404	-0.230205
C	 3.0067018978	 1.5612430631	 2.6907351617	 0.007596
N	 2.6732940361	 0.848953828	 1.6369169247	-0.300326
H	 0.9510570399	 1.9523834278	-0.227766179	 0.141629
H	-0.3562630454	 1.6863647688	-1.3973345819	 0.116666
H	-0.739762468	 2.0023669694	 0.3011208313	 0.116944
H	-0.9433279563	-0.4993053729	-0.2705587263	 0.086291
H	 1.2156937931	-1.8043857151	-0.610683203	 0.107618
H	 2.1500848427	-0.2246823586	-0.5491623683	 0.13876
H	 0.1342448535	 0.5142671257	 3.7432979394	 0.128248
H	 2.0685964607	 1.9802473068	 4.5421081949	 0.266627
H	 3.9264264882	 2.1124125748	 2.8180171444	 0.128872
32.2555	118.1037	188.5369	225.0715	300.5633	370.6346	459.3256	507.202	519.3064	596.7254	667.9456	693.3595	754.2353	791.1205	810.0629	853.8394	913.7595	946.637	966.3314	1018.6444	1048.6342	1087.6402	1128.236	1131.1354	1141.9467	1157.8399	1197.052	1232.5412	1254.6386	1336.7041	1361.9377	1398.2436	1423.1905	1467.9516	1490.8426	1496.4969	1506.4929	1523.3406	1596.1465	3032.7124	3090.6852	3106.4165	3111.5206	3132.6028	3199.9067	3249.9357	3286.4885	3669.7564
CC1CN1C1=CNC=N1	C[C@H]1CN1c1c[nH]cn1	
InChI=1S/C6H9N3/c1-5-3-9(5)6-2-7-4-8-6/h2,4-5H,3H2,1H3,(H,7,8)	InChI=1S/C6H9N3/c1-5-3-9(5)6-2-7-4-8-6/h2,4-5H,3H2,1H3,(H,7,8)/t5-,9?/m0/s1
