14
gdb 14806	2.54205	2.19116	1.32061	4.6547	67.5	-0.2555	0.0052	0.2607	904.1449	0.107209	-341.530357	-341.52276	-341.521816	-341.562548	27.476	
C	-0.1038201933	-1.2543603028	-0.0963157489	-0.457932
C	-0.0804490539	-0.0552420698	-0.0264332507	 0.366392
C	-0.0596019462	 1.3875447117	 0.0570356243	-0.216505
C	-0.0918660133	 1.9863177362	 1.5007562416	-0.169289
N	 1.3669362821	 2.2110335273	 1.4235904423	-0.290804
C	 1.3584816889	 2.074510087	-0.0437567763	-0.138168
C	 2.4735341961	 1.3211095048	-0.6150106322	 0.317439
N	 3.3578812498	 0.7463772382	-1.0865119241	-0.321852
H	-0.1112565486	-2.3144395503	-0.1609181589	 0.208605
H	-0.7876706903	 1.8217722366	-0.6309797962	 0.121236
H	-0.7002413473	 2.8992543302	 1.5463660839	 0.103069
H	-0.3981788044	 1.3048758954	 2.2975722409	 0.130286
H	 1.7118539989	 3.0966304169	 1.7753584188	 0.232637
H	 1.2724594016	 3.0225604783	-0.5937342644	 0.114887
86.1885	105.3017	199.2967	205.7697	278.9066	434.2491	478.5378	558.5121	578.7604	637.1816	654.3569	687.3129	783.5617	819.4001	932.9781	995.3324	999.2263	1049.1794	1098.3632	1106.4943	1138.1593	1189.5548	1242.1086	1313.6286	1348.7355	1364.7761	1398.1741	1521.0596	2243.5554	2361.2967	2998.8462	3013.6257	3088.6214	3100.7706	3504.0407	3543.5971
C#CC1CNC1C#N	C#C[C@H]1CN[C@H]1C#N	
InChI=1S/C6H6N2/c1-2-5-4-8-6(5)3-7/h1,5-6,8H,4H2	InChI=1S/C6H6N2/c1-2-5-4-8-6(5)3-7/h1,5-6,8H,4H2/t5-,6-/m0/s1
