17
gdb 70039	4.30707	1.07757	0.94719	1.7484	84.2	-0.2305	-0.0333	0.1972	1245.6576	0.134314	-384.658815	-384.650537	-384.649592	-384.691358	32.12	
C	 0.0551907553	 1.5052902238	-0.0582217754	-0.489246
C	-0.0708206338	 0.0170053965	 0.1152567989	 0.403675
C	-1.3991336451	-0.6898268653	-0.1583880829	-0.383429
C	-1.3353060735	-1.9351331314	 0.7224131631	 0.171915
C	-0.2048999796	-1.9589740107	 1.453688559	-0.197786
C	 0.6535816705	-0.7929521714	 1.1170853543	-0.059567
O	 1.0604976495	-0.7693304822	-0.2762659893	-0.295443
C	-2.357875674	-2.910844741	 0.7091721016	 0.225704
C	-3.259260443	-3.7103144985	 0.671193424	-0.414639
H	 1.0546667754	 1.8402158081	 0.2298231993	 0.131814
H	-0.1083575644	 1.787946183	-1.1042015675	 0.130047
H	-0.6840172339	 2.0343762212	 0.552076273	 0.123532
H	-2.2574280251	-0.0618840655	 0.109359348	 0.119088
H	-1.5057152678	-0.9500530886	-1.2170235159	 0.134213
H	 0.0660726874	-2.7329060762	 2.1596738771	 0.11067
H	 1.3805267181	-0.3861517535	 1.8135823646	 0.094964
H	-4.043275666	-4.4260027685	 0.6466245881	 0.194488
106.0785	142.5787	187.1619	237.9626	301.2094	348.7075	396.7818	474.403	526.924	535.8316	567.8987	600.5983	641.3006	660.1564	729.1826	836.0196	857.1255	885.4376	907.0613	952.4965	975.8574	1008.5285	1074.9303	1100.6075	1165.7111	1194.3995	1228.795	1264.4499	1303.8737	1328.0051	1407.4311	1436.7239	1461.8701	1484.6387	1495.2336	1646.621	2219.7988	3034.2102	3039.8563	3080.7802	3097.747	3124.4318	3162.0311	3222.718	3502.9381
CC12CC(=CC1O2)C#C	C[C@]12CC(=C[C@H]1O2)C#C	
InChI=1S/C8H8O/c1-3-6-4-7-8(2,5-6)9-7/h1,4,7H,5H2,2H3	InChI=1S/C8H8O/c1-3-6-4-7-8(2,5-6)9-7/h1,4,7H,5H2,2H3/t7-,8+/m1/s1
