16
gdb 56938	2.2185	1.26687	0.97612	5.2535	73.81	-0.2813	0.0086	0.2899	1225.9965	0.124818	-396.93313	-396.924103	-396.923159	-396.967682	32.187	
N	-0.4006144158	 1.2293556704	 0.1314921498	-0.495556
C	 0.11366525	-0.1135051355	-0.1498986771	-0.165098
C	 0.983759855	-0.1651492271	-1.3478367472	 0.261528
N	 1.6681287556	-0.1430899179	-2.2793109751	-0.315313
C	 0.8674661619	-0.6544569284	 1.0557211698	 0.02355
C	 0.1106093828	-1.0762947766	 2.2727015079	-0.295302
C	 0.8009828664	-2.1327472894	 1.4214254591	-0.17286
C	-0.0015636697	-3.0340549719	 0.6424291696	 0.291009
N	-0.6604035206	-3.7479879615	 0.0138973872	-0.33544
H	 0.3720778453	 1.8804846352	 0.2437373206	 0.24292
H	-0.9413259294	 1.5625128334	-0.6616287512	 0.250452
H	-0.7478612338	-0.7620470319	-0.3454556777	 0.152466
H	 1.8411999441	-0.1998242717	 1.2114440614	 0.120599
H	 0.5338310165	-0.8731517923	 3.2489668033	 0.13866
H	-0.9712362643	-1.0362919122	 2.226754832	 0.153669
H	 1.7104648361	-2.5754930826	 1.8120177775	 0.144718
41.2599	100.6935	137.5051	204.7268	230.2893	251.1887	275.9874	352.3543	425.3726	526.7864	559.5	577.4096	652.8215	776.1212	817.0643	845.6291	867.3356	946.3035	971.861	1018.2544	1061.8081	1078.5343	1121.5667	1131.9846	1152.5902	1209.7085	1249.5655	1309.4645	1371.9734	1388.3144	1429.3127	1490.8972	1663.7887	2347.9329	2353.933	3057.2958	3151.2453	3158.7281	3177.7933	3242.9611	3490.7539	3570.1697
NC(C#N)C1CC1C#N	N[C@@H](C#N)[C@H]1C[C@H]1C#N	
InChI=1S/C6H7N3/c7-2-4-1-5(4)6(9)3-8/h4-6H,1,9H2	InChI=1S/C6H7N3/c7-2-4-1-5(4)6(9)3-8/h4-6H,1,9H2/t4-,5-,6-/m0/s1
