20
gdb 105923	3.60446	1.42564	1.32698	1.7404	80.96	-0.2236	0.0817	0.3053	1060.2742	0.172441	-365.936644	-365.929242	-365.928297	-365.968544	29.867	
C	 0.4054116054	 1.354270296	 0.3883375367	-0.380415
C	-0.224852982	 0.1084116128	-0.2467840685	-0.317253
C	 0.5002679938	-0.3647635367	-1.4697733736	 0.382894
C	 0.6186617079	-1.7768317884	-1.9345681422	-0.105674
C	 0.9664779656	-1.5877174477	-3.4240697509	-0.076064
C	 0.1107883656	-0.3977298126	-3.9287997446	-0.251485
C	 0.8040580963	 0.3914704591	-2.7888205601	-0.13044
C	 2.0193063131	-0.5878580753	-2.8422498346	 0.02771
N	 1.834686303	-1.0652416022	-1.3981246678	-0.223545
H	 1.448955671	 1.1608937061	 0.6531792828	 0.135388
H	 0.3844771346	 2.2070720803	-0.2983902258	 0.11386
H	-0.1316754678	 1.6460334801	 1.2957373916	 0.110636
H	-0.2361656889	-0.7103885248	 0.4831427583	 0.107219
H	-1.2736919608	 0.3064506634	-0.5072750321	 0.099711
H	 0.1874863179	-2.6316358743	-1.4266749234	 0.090204
H	 1.2040131886	-2.4580828457	-4.0321119642	 0.073614
H	 0.4373842359	-0.0540715934	-4.9158126591	 0.099556
H	-0.9793073473	-0.493969275	-3.9093304457	 0.094653
H	 0.8809154099	 1.4767344579	-2.7741694632	 0.072066
H	 3.0113989182	-0.3790274697	-3.2365995639	 0.077366
79.8732	156.5268	198.0334	278.8404	364.4781	416.4223	584.8676	596.4912	733.015	740.481	766.8572	813.6887	836.1229	853.095	862.6111	870.9587	899.253	943.4108	962.8823	968.6428	990.6779	1004.4179	1051.4302	1063.2594	1074.2347	1106.7193	1112.1735	1176.5057	1187.9842	1208.2961	1219.1957	1224.9059	1252.8908	1266.469	1286.5025	1332.3523	1350.7951	1405.9243	1429.9942	1469.7034	1485.6442	1497.3824	1508.4355	3014.2201	3037.9702	3041.4411	3054.3513	3098.8973	3104.6026	3117.3772	3130.5056	3136.3905	3144.7281	3179.9245
CCC12C3C4CC1C4N23	CC[C@@]12[C@H]3[C@H]4C[C@@H]1[C@H]4N23	
InChI=1S/C8H11N/c1-2-8-5-3-4-6(5)9(8)7(4)8/h4-7H,2-3H2,1H3	InChI=1S/C8H11N/c1-2-8-5-3-4-6(5)9(8)7(4)8/h4-7H,2-3H2,1H3/t4-,5+,6-,7+,8-,9?/m0/s1
