20
gdb 107795	2.58788	1.58402	1.26985	1.1439	77.11	-0.2379	0.0644	0.3023	1075.6378	0.170982	-403.084114	-403.075705	-403.074761	-403.116894	32.813	
C	-0.0525257868	 1.5487995476	-0.0405028961	-0.384495
C	-0.0219191235	 0.0131134226	-0.0256949656	-0.321568
C	 0.693188344	-0.5387751627	 1.1821049384	 0.274257
C	 2.1945464316	-0.3314741746	 1.4520512939	-0.204815
N	 2.2295437788	-1.6015721627	 2.252735039	-0.151756
C	 0.9137039583	-1.6296704423	 2.9888950564	-0.114857
C	 0.9870031227	-2.0449454669	 1.5660402414	-0.120389
C	 0.0880073048	-0.4055926784	 2.6210224098	 0.130459
O	 0.1809377002	 0.7993571015	 3.3393531536	-0.446111
H	 0.9599184805	 1.9626418585	-0.100820195	 0.116622
H	-0.6143216347	 1.9203477466	-0.9023933426	 0.112054
H	-0.5146554255	 1.9416305325	 0.8694385233	 0.140137
H	-1.0480332938	-0.3769070322	-0.0465509472	 0.099494
H	 0.463408135	-0.356104955	-0.9388580747	 0.097424
H	 2.8118681325	-0.4732547216	 0.5607960835	 0.110756
H	 2.5245233803	 0.5752915953	 1.9771982911	 0.081626
H	 0.8785027754	-2.2408723354	 3.8813328515	 0.09998
H	 0.8542505646	-3.000954373	 1.0782097861	 0.099859
H	-0.97559619	-0.6619252432	 2.5962575806	 0.093985
H	 1.1061208954	 0.9615655433	 3.5485636927	 0.287339
89.607	140.7403	197.0242	219.9217	290.3444	300.5389	347.6157	359.3524	506.1418	591.7811	648.4522	713.211	769.1473	793.8402	812.0878	858.3878	878.9354	924.8765	962.786	969.816	988.7976	1000.5413	1017.6948	1040.7528	1105.1267	1116.4826	1144.9293	1164.0838	1177.77	1205.0103	1239.0204	1260.6865	1272.2431	1295.9699	1327.9375	1349.4651	1382.234	1414.3285	1433.0473	1487.2564	1497.9808	1509.2439	1514.361	3008.8201	3013.5581	3037.9894	3044.3432	3072.7891	3092.3221	3103.2225	3121.1197	3199.4991	3214.1434	3825.1427
CCC12CN3C(C13)C2O	CC[C@]12CN3[C@H]([C@@H]13)[C@H]2O	
InChI=1S/C7H11NO/c1-2-7-3-8-4(5(7)8)6(7)9/h4-6,9H,2-3H2,1H3	InChI=1S/C7H11NO/c1-2-7-3-8-4(5(7)8)6(7)9/h4-6,9H,2-3H2,1H3/t4-,5+,6-,7+,8?/m1/s1
