21
gdb 102538	1.9142	1.33295	0.92941	2.2467	75.65	-0.2468	-0.0301	0.2168	1342.646	0.178854	-461.355878	-461.344846	-461.343902	-461.392887	38.204	
C	 0.1689076678	 1.5652625189	-0.4061175831	-0.240407
O	-0.1299161939	 0.1980368392	-0.2205995974	-0.247474
C	 0.7091044135	-0.6992664975	-0.9359822624	 0.064932
C	 1.9693308733	-0.983409069	-0.0958105726	-0.067495
O	 2.7612659087	-2.0511061305	-0.5754345277	-0.423056
C	-0.0868406891	-1.9804964439	-1.2429516968	-0.087715
C	-1.5602819505	-1.7059000241	-1.6135622433	-0.410499
C	 0.5256395644	-2.7791570332	-2.3762480852	 0.171505
O	 1.4470768056	-2.4325607869	-3.0768484171	-0.273551
H	 1.1599718077	 1.839049645	-0.0183822123	 0.113408
H	 0.1236388007	 1.8476419826	-1.4689157756	 0.109107
H	-0.586129499	 2.1341720132	 0.142231242	 0.129206
H	 0.998181482	-0.2469009537	-1.8975604979	 0.07873
H	 2.5575437296	-0.0573004952	-0.0020274131	 0.086064
H	 1.6412558714	-1.2628157001	 0.9118977499	 0.112125
H	 2.8674037395	-1.9397754503	-1.5280689735	 0.296095
H	-0.0797540851	-2.6414416839	-0.3637364831	 0.107825
H	-2.0792754773	-2.6384943508	-1.8573555494	 0.115825
H	-2.0710749898	-1.2270779481	-0.7788592272	 0.148344
H	-1.6298116768	-1.0417798475	-2.4812181899	 0.125865
H	 0.0122791971	-3.7481427742	-2.5673667343	 0.091166
55.3443	59.142	86.6633	110.7975	169.4089	195.6805	216.4857	223.0977	291.4317	304.091	347.0072	455.1548	467.6678	473.2764	528.0387	664.821	794.3762	908.9307	923.9076	978.5231	991.0105	1032.2923	1078.116	1110.9839	1133.13	1144.7704	1169.6164	1181.4995	1219.98	1234.7869	1286.5807	1317.4652	1344.2515	1385.0289	1398.8082	1407.6548	1429.6385	1438.6901	1479.7165	1490.952	1492.9203	1503.5956	1510.25	1513.8278	1809.1744	2883.8636	2978.6232	2981.401	2991.6704	3012.0145	3037.3775	3042.2351	3065.6083	3105.1776	3113.4762	3155.0548	3782.6893
COC(CO)C(C)C=O	CO[C@@H](CO)[C@@H](C)C=O	
InChI=1S/C6H12O3/c1-5(3-7)6(4-8)9-2/h3,5-6,8H,4H2,1-2H3	InChI=1S/C6H12O3/c1-5(3-7)6(4-8)9-2/h3,5-6,8H,4H2,1-2H3/t5-,6-/m0/s1
