20
gdb 106606	2.57749	1.51577	1.27202	3.2442	78.49	-0.2365	-0.0088	0.2277	1099.9891	0.171853	-403.146128	-403.137689	-403.136745	-403.179153	32.45	
C	-0.045586179	 1.5705402725	-0.0795472865	-0.390755
C	 0.0427754183	 0.0421024495	-0.0110640937	-0.294116
C	 0.7406812288	-0.4729177257	 1.2241467328	 0.211079
C	 0.8644417944	-2.0078302854	 1.4446893355	-0.277703
C	 1.7100572004	-2.0168575465	 2.7653808224	-0.241039
C	 1.8518454495	-0.4864048817	 2.962642619	-0.121375
N	 2.1123854944	 0.0520960438	 1.586078724	-0.349468
C	 0.4034594953	-0.0387600848	 2.6740933134	 0.460258
O	-0.5058682694	 0.4665387049	 3.2544241159	-0.32608
H	 0.9510064338	 2.0176673749	-0.0406462052	 0.132503
H	-0.5337055795	 1.8895058841	-1.005058697	 0.107524
H	-0.6222479962	 1.9644140788	 0.7622790654	 0.138105
H	-0.963503256	-0.3952966159	-0.0342412353	 0.110166
H	 0.560175832	-0.3483265031	-0.8983833667	 0.097033
H	-0.1074866478	-2.4975272697	 1.5560024276	 0.114359
H	 1.3828570542	-2.4803564873	 0.604264854	 0.103055
H	 1.2007464941	-2.5095274153	 3.5985122339	 0.116874
H	 2.6869612283	-2.4923747881	 2.6396135111	 0.10593
H	 2.449794514	-0.1050270776	 3.7882613802	 0.090355
H	 2.8555915703	-0.4618210674	 1.1097765591	 0.213292
78.3018	153.7048	165.6985	193.3823	249.0352	271.8831	386.0706	463.866	478.697	615.0139	656.6047	721.3771	759.1308	776.1305	831.3362	855.7936	860.2872	902.8046	949.8741	960.7901	996.9381	1012.9805	1049.4633	1071.166	1104.3313	1122.9691	1131.5017	1179.3025	1225.0996	1245.7365	1258.4812	1291.5592	1313.0971	1324.8802	1356.1769	1385.1361	1411.7316	1474.6891	1489.6811	1494.6185	1504.9262	1510.3618	1924.6069	3012.6959	3045.1827	3046.3859	3050.1803	3057.4799	3087.7719	3106.1185	3116.0498	3125.8508	3142.3612	3435.5502
CCC12CCC(N1)C2=O	CC[C@@]12CC[C@@H](N1)C2=O	
InChI=1S/C7H11NO/c1-2-7-4-3-5(8-7)6(7)9/h5,8H,2-4H2,1H3	InChI=1S/C7H11NO/c1-2-7-4-3-5(8-7)6(7)9/h5,8H,2-4H2,1H3/t5-,7+/m1/s1
