22
gdb 96445	2.12224	1.82697	1.2495	1.5964	81.72	-0.219	0.0779	0.2969	1100.0889	0.196447	-404.315828	-404.307672	-404.306728	-404.347877	33.212	
C	-0.2341837733	 1.5589299678	 0.0431854577	-0.414859
C	-0.0526969903	 0.033343051	 0.0030117856	 0.052052
C	 0.3697020299	-0.5062802685	-1.3783774005	-0.209229
C	 1.6568729042	 0.0567551554	-1.9959135952	-0.075999
O	 2.8603723944	-0.3143830871	-1.3455794694	-0.238536
C	 3.0129590344	 0.247177873	-0.0537357674	-0.111144
C	 2.2537236586	-0.5243198029	 1.0063990219	 0.001412
C	 1.4911205673	 0.1946237059	 2.0709679061	-0.264876
N	 0.7984972948	-0.5691544783	 1.0472188366	-0.083205
H	 0.6835086946	 2.1194169542	-0.152893374	 0.118783
H	-0.9687662349	 1.8562017296	-0.7132181753	 0.114756
H	-0.6192835696	 1.8748467792	 1.0171854775	 0.122481
H	-1.0511901297	-0.3840182518	 0.1937738556	 0.084142
H	 0.4645056007	-1.5955407188	-1.3043989458	 0.114941
H	-0.4443880761	-0.3042407206	-2.0869325639	 0.093868
H	 1.7527094536	-0.3288110984	-3.0161774568	 0.106379
H	 1.5978971838	 1.1553638669	-2.0698257893	 0.085761
H	 4.0842855068	 0.2013352147	 0.1724157788	 0.10797
H	 2.7239069187	 1.3087941714	-0.0613091543	 0.086644
H	 2.7147385888	-1.4815557886	 1.2497972641	 0.090017
H	 1.4332776457	-0.2013640015	 3.0825857622	 0.111744
H	 1.4869566778	 1.2820104574	 2.0172111758	 0.106899
145.6579	207.4331	238.6461	268.665	296.159	337.6635	387.212	415.4257	426.7275	468.0063	576.5885	615.7708	686.8375	800.7257	815.1572	853.8187	911.1225	955.8039	964.2482	997.7112	1013.0921	1026.6164	1058.0498	1089.4417	1120.0567	1140.9801	1143.45	1149.907	1159.7912	1187.4617	1252.5806	1287.1026	1318.5442	1349.1688	1354.7008	1372.9091	1390.478	1395.2028	1409.231	1418.036	1436.0991	1464.8149	1481.9879	1492.7446	1497.4572	1511.8006	1517.4243	2971.8011	2992.8894	2994.9531	3025.8576	3039.9644	3061.8561	3071.2843	3076.5928	3090.4669	3103.2601	3103.7529	3120.1742	3168.9276
CC1CCOCC2CN12	C[C@H]1CCOC[C@H]2CN12	
InChI=1S/C7H13NO/c1-6-2-3-9-5-7-4-8(6)7/h6-7H,2-5H2,1H3	InChI=1S/C7H13NO/c1-6-2-3-9-5-7-4-8(6)7/h6-7H,2-5H2,1H3/t6-,7+,8?/m0/s1
