18
gdb 77124	2.66025	1.29949	1.01546	1.6522	74.05	-0.2258	-0.0319	0.1939	1192.5042	0.146396	-439.048563	-439.039833	-439.038889	-439.082515	32.547	
O	 0.3060615363	 1.047234278	-0.424099696	-0.420665
C	 0.0164461169	-0.2746225592	-0.0798251747	 0.01739
C	 0.0233798969	-0.681203221	 1.4505891517	-0.084689
N	-1.3905441454	-1.104556057	 1.3707489565	-0.380406
C	-1.447823571	-0.7297968609	-0.0506407378	 0.333654
C	-2.5986054327	 0.0027836533	-0.6781188674	-0.316933
C	-2.2456974904	-1.4076963446	-1.1145903347	-0.332807
C	 1.0063728327	-1.7653595671	 1.7843733596	 0.139462
O	 0.7038340882	-2.9276427869	 1.9071807183	-0.252993
H	-0.3569196328	 1.6126072187	-0.0103858211	 0.289098
H	 0.6724099583	-0.8988632168	-0.6930037729	 0.106071
H	 0.1958044312	 0.184288507	 2.1048449818	 0.092154
H	-1.4444207256	-2.1118742175	 1.5106859572	 0.234588
H	-3.4870767987	 0.1385341656	-0.0710650222	 0.124338
H	-2.3758295391	 0.8158900033	-1.3620817333	 0.118447
H	-1.7913651953	-1.54967696	-2.090165613	 0.121399
H	-2.9093321571	-2.2101969789	-0.8082365899	 0.122724
H	 2.0611812777	-1.426804686	 1.8844225179	 0.089167
43.5005	108.4548	200.3081	208.0128	235.7838	297.4217	337.9668	371.1048	410.5952	521.3701	572.5165	737.1349	768.5743	782.1644	804.9202	857.9537	893.5313	916.4898	931.4328	993.4463	1014.9178	1046.884	1073.3124	1075.681	1123.5905	1151.5808	1175.268	1191.0594	1227.5491	1265.1422	1287.6761	1311.5859	1374.7969	1400.1139	1412.3583	1436.4097	1452.8166	1495.4097	1811.1894	2893.7044	3017.711	3072.916	3123.5931	3127.096	3205.4943	3222.5693	3484.6522	3792.721
OC1C(NC11CC1)C=O	O[C@H]1[C@@H](NC21CC2)C=O	
InChI=1S/C6H9NO2/c8-3-4-5(9)6(7-4)1-2-6/h3-5,7,9H,1-2H2	InChI=1S/C6H9NO2/c8-3-4-5(9)6(7-4)1-2-6/h3-5,7,9H,1-2H2/t4-,5-/m0/s1
