21
gdb 56668	2.39903	1.28518	1.12613	1.6288	83.84	-0.2502	0.0517	0.3019	1222.8323	0.179965	-387.048423	-387.038508	-387.037564	-387.082723	37.878	
C	-0.2702807449	 1.4216785398	 0.0119357387	-0.424524
C	 0.0460680131	-0.0867095428	 0.0818079165	-0.211137
C	 0.6280281982	-0.5483577269	-1.1775879096	 0.348952
C	 1.1006143012	-0.9153422523	-2.2202667575	-0.472938
C	 0.9553377156	-0.4411203716	 1.2910370539	 0.42761
O	 2.1884598351	 0.2413287493	 1.2368859361	-0.479684
C	 0.1876700803	-0.404736388	 2.6535974692	-0.287136
C	 0.0569215115	-1.9502079569	 2.5834241097	-0.216214
C	 1.1534726577	-1.9642143146	 1.4844333065	-0.26022
H	 0.6319563358	 2.0001963849	-0.2095340637	 0.124715
H	-0.9870094796	 1.6259239507	-0.7868086753	 0.133122
H	-0.6979410922	 1.777149376	 0.9544860642	 0.119356
H	-0.9017083142	-0.6218127969	 0.2332358856	 0.104902
H	 1.5233273697	-1.2443376434	-3.1369870239	 0.193062
H	 2.0192327105	 1.1892464403	 1.2576619513	 0.276368
H	 0.8651792067	-0.0855885711	 3.449414544	 0.104921
H	-0.7328255522	 0.1824722522	 2.7124083439	 0.090782
H	 0.2679153685	-2.5041547957	 3.499835942	 0.102105
H	-0.9185291019	-2.2705845086	 2.2078887448	 0.10327
H	 1.002439583	-2.5962610189	 0.6072892845	 0.109536
H	 2.1476708479	-2.1535955054	 1.8947801293	 0.113154
73.8464	129.1205	135.5393	207.8199	224.6056	245.4955	267.2011	315.6873	357.3702	382.1008	463.6645	519.0983	553.2583	620.8547	637.4809	671.7308	735.7745	787.694	808.0288	879.1322	914.5311	938.1017	975.8634	1002.1624	1021.838	1038.6204	1088.4967	1117.5976	1129.1421	1197.1294	1201.617	1249.7084	1264.0602	1277.2514	1290.2927	1312.1873	1331.8778	1374.0537	1402.6829	1469.4718	1484.9414	1491.1722	1506.3096	1509.5412	2234.0318	3010.2848	3040.2822	3056.6967	3065.9582	3074.8431	3105.4456	3110.8402	3120.3587	3123.618	3134.5434	3505.0305	3809.2188
CC(C#C)C1(O)CCC1	C[C@@H](C#C)C1(O)CCC1	
InChI=1S/C8H12O/c1-3-7(2)8(9)5-4-6-8/h1,7,9H,4-6H2,2H3	InChI=1S/C8H12O/c1-3-7(2)8(9)5-4-6-8/h1,7,9H,4-6H2,2H3/t7-/m0/s1
