19
gdb 12020	4.0509	1.22835	1.17234	2.7179	72.38	-0.242	0.0724	0.3144	1118.6554	0.163983	-365.019367	-365.010699	-365.009755	-365.052663	31.962	
C	-0.3890028439	 1.5110092919	 0.2311253355	-0.435949
C	-0.0111907844	 0.0513310356	 0.0677378525	 0.32164
C	-1.1609695143	-0.8453182037	-0.3499572492	-0.455703
N	 1.3125728555	-0.1866430991	-0.5356490176	-0.374653
C	 1.085617219	-0.5660244556	 0.8729659839	-0.079151
C	 1.8885029609	 0.1523471103	 1.9062703483	 0.086104
C	 1.7618819988	-0.1716680349	 3.3334135339	-0.182635
O	 2.8836676382	-0.6298292366	 2.5800562993	-0.236557
H	 0.4844954061	 2.1301255508	 0.4417534581	 0.127332
H	-0.8486795794	 1.8877678132	-0.6895915773	 0.117835
H	-1.1132600864	 1.6401348636	 1.043092761	 0.114612
H	-1.5570093772	-0.5358942869	-1.3245490392	 0.122059
H	-0.8459697435	-1.8909805536	-0.426854305	 0.1136
H	-1.9850915534	-0.7949172569	 0.3703866101	 0.123327
H	 1.2978153789	-1.0119922835	-1.1300214592	 0.22771
H	 0.9746839604	-1.6261704198	 1.0989663247	 0.083592
H	 2.2243515603	 1.1498186745	 1.6282213332	 0.103456
H	 1.9749872726	 0.589478945	 4.0829626756	 0.114366
H	 1.0626443517	-0.9461149443	 3.6484178614	 0.109014
58.8237	143.5254	156.9369	188.674	224.9343	313.526	370.5272	374.4555	399.0435	450.0045	532.2429	710.8073	814.7601	850.1305	863.1484	918.9623	958.2621	970.79	985.4108	1000.296	1071.2033	1081.0803	1099.247	1133.0004	1154.8132	1160.5738	1170.5341	1235.9848	1291.1086	1300.7708	1339.7054	1382.677	1411.9802	1423.3807	1474.9391	1480.2353	1490.9944	1498.7695	1514.0955	1533.5668	3022.4674	3033.5851	3077.7336	3085.1106	3091.6066	3098.9562	3112.7735	3128.0712	3138.0286	3163.3808	3494.7585
CC1(C)NC1C1CO1	CC1(C)N[C@H]1[C@H]1CO1	
InChI=1S/C6H11NO/c1-6(2)5(7-6)4-3-8-4/h4-5,7H,3H2,1-2H3	InChI=1S/C6H11NO/c1-6(2)5(7-6)4-3-8-4/h4-5,7H,3H2,1-2H3/t4-,5+/m1/s1
