16
gdb 22298	3.03226	1.20337	0.9421	2.0889	68.48	-0.2403	-0.0315	0.2088	1201.1101	0.12335	-474.997152	-474.988964	-474.98802	-475.030365	30.56	
O	-0.3267791491	 1.1414146496	-0.8958246369	-0.39677
N	-0.0401041296	-0.1281194707	-0.365054238	-0.180336
C	-0.998975699	-0.5370218762	 0.3687021733	 0.32019
C	-2.2951297615	 0.2099942819	 0.5973628898	-0.159586
O	-3.1831225959	-0.5439405688	 1.4033469203	-0.241865
C	-3.4390439998	-1.8279341232	 0.873039044	-0.1862
C	-2.1703609575	-2.6818679056	 0.7829661892	 0.359217
O	-2.2001984492	-3.8613543405	 0.5430979753	-0.292128
C	-0.8875658295	-1.887266757	 1.0233192471	-0.378074
H	 0.4523654644	 1.3213273523	-1.4323933264	 0.312663
H	-2.1108859038	 1.152940697	 1.120713045	 0.145956
H	-2.7481624185	 0.4627376202	-0.3749041159	 0.12679
H	-4.157216663	-2.3199230387	 1.5342054488	 0.147868
H	-3.8917274991	-1.7736161045	-0.1319827778	 0.125389
H	-0.0184309048	-2.4418511191	 0.6699957393	 0.147265
H	-0.8026681039	-1.7543192364	 2.1125348227	 0.14962
74.5794	83.5896	221.533	281.7375	305.7499	377.5494	399.5657	432.1401	460.8024	508.1097	527.7433	578.204	669.286	758.11	810.3607	908.7199	964.2784	981.0318	988.5005	1066.1252	1132.2325	1155.4355	1193.1523	1245.0965	1266.4071	1275.038	1298.3108	1340.1374	1373.5972	1407.4091	1437.9853	1453.2467	1471.2053	1741.7738	1840.0885	2969.2246	2983.3712	3007.8413	3086.3085	3103.8331	3142.505	3822.5232
ON=C1COCC(=O)C1	ON=C1COCC(=O)C1	
InChI=1S/C5H7NO3/c7-5-1-4(6-8)2-9-3-5/h8H,1-3H2	InChI=1S/C5H7NO3/c7-5-1-4(6-8)2-9-3-5/h8H,1-3H2
