17
gdb 123490	5.113	0.92008	0.87516	1.3084	74.03	-0.2399	-0.0006	0.2394	1333.1612	0.138684	-414.156201	-414.148421	-414.147476	-414.190095	28.303	
C	-0.1085019798	 1.6351588469	 0.0667755986	-0.277538
N	-0.2676403485	 0.2535380573	-0.3811411273	-0.066215
C	-0.1753108749	-0.7713386566	 0.6544987925	-0.21551
C	-1.4888462446	-0.4186425462	 0.0472207374	-0.218855
C	 1.3353903236	 2.0319649654	 0.0461421712	 0.319055
N	 1.876276652	 2.7971794797	 0.9975944343	-0.276677
N	 3.1372338551	 2.9276062522	 0.6032481132	-0.074429
N	 3.4774394722	 2.3079328577	-0.5182345003	-0.194678
C	 2.3380425628	 1.7276142517	-0.8946654663	-0.113405
H	-0.6829312728	 2.2696221334	-0.6206074279	 0.121785
H	-0.5094170839	 1.8122318955	 1.0789296307	 0.103892
H	 0.337221768	-1.6854159887	 0.3699406628	 0.119627
H	 0.0045169379	-0.4464134574	 1.6778340691	 0.117851
H	-2.1880031232	 0.1405425998	 0.6670879078	 0.111546
H	-1.9526920714	-1.0701732337	-0.68772161	 0.119377
H	 3.8046426621	 3.4602419067	 1.1368248052	 0.291364
H	 2.2802748353	 1.1272002464	-1.7872444709	 0.132811
31.2951	70.649	131.3424	282.2446	329.2231	374.4231	431.1187	512.5721	692.8691	723.5137	760.9247	772.4182	840.8179	892.1368	908.4039	994.7097	1005.2312	1022.4077	1034.6546	1054.4636	1114.005	1119.467	1157.1166	1171.2443	1178.6851	1202.9204	1238.4695	1266.3847	1322.7154	1343.1487	1388.2054	1422.0836	1481.9631	1486.4842	1494.5849	1521.8755	1569.5113	2966.9695	3035.4079	3096.0029	3102.0024	3179.8542	3194.7058	3283.7519	3672.0788
C(N1CC1)C1=NNN=C1	C(N1CC1)c1n[nH]nc1	
InChI=1S/C5H8N4/c1-2-9(1)4-5-3-6-8-7-5/h3H,1-2,4H2,(H,6,7,8)	InChI=1S/C5H8N4/c1-2-9(1)4-5-3-6-8-7-5/h3H,1-2,4H2,(H,6,7,8)
