16
gdb 16877	4.15262	1.89984	1.43562	3.9315	65.3	-0.218	0.0345	0.2525	854.9288	0.133545	-379.933611	-379.926925	-379.925981	-379.964384	26.355	
O	-0.0087694297	-0.0435999534	-0.2303580862	-0.373753
C	-0.0400060641	 1.1584758693	-0.0598205609	 0.419516
C	-1.3404733179	 1.956635791	 0.0460316697	-0.283904
N	-1.1741291734	 3.0595137706	 0.9907632897	-0.306858
C	-0.1647777046	 3.9971340131	 0.5776383606	-0.003119
C	 1.089246679	 4.1035553227	 1.4197085461	-0.303323
C	 1.1042949081	 3.3491176451	 0.1049162031	 0.015204
N	 1.0906830678	 1.9203923099	 0.0701865401	-0.306121
H	-1.6298767333	 2.2739351401	-0.9728374534	 0.103428
H	-2.1051316323	 1.2669661736	 0.4078297752	 0.13349
H	-2.0523765529	 3.5158087025	 1.1989550418	 0.229508
H	-0.4872891442	 4.884044257	 0.0318045095	 0.085649
H	 1.6148844512	 5.0511685005	 1.4630110576	 0.112177
H	 1.0968731388	 3.5101855249	 2.3258986605	 0.127692
H	 1.6227377582	 3.8182321611	-0.7276980352	 0.102887
H	 1.9625794093	 1.4110087319	 0.0540031216	 0.247526
100.1833	202.5586	307.2624	411.8135	454.052	475.6969	498.9458	541.703	628.3778	665.3727	727.1247	801.7227	837.7668	896.0048	918.921	1003.3212	1035.5068	1042.4225	1055.1361	1071.4781	1132.1491	1150.687	1173.2245	1241.0767	1252.3162	1308.9756	1339.3186	1397.5473	1421.791	1444.6761	1470.9159	1488.6431	1499.7571	1806.3772	2934.862	3089.4083	3116.1323	3126.8841	3140.0566	3240.3067	3564.2982	3604.913
O=C1CNC2CC2N1	O=C1CN[C@H]2C[C@H]2N1	
InChI=1S/C5H8N2O/c8-5-2-6-3-1-4(3)7-5/h3-4,6H,1-2H2,(H,7,8)	InChI=1S/C5H8N2O/c8-5-2-6-3-1-4(3)7-5/h3-4,6H,1-2H2,(H,7,8)/t3-,4+/m0/s1
