18
gdb 108025	4.00231	1.47046	1.34437	1.3253	73.37	-0.223	0.0731	0.2961	992.9906	0.14861	-401.870118	-401.862977	-401.862033	-401.90163	28.588	
C	-0.2577588147	 1.2419052339	 0.0581296037	-0.256844
O	 0.3070887971	-0.0555989002	-0.0456212351	-0.300397
C	 0.8698705841	-0.5260391868	 1.1239022378	 0.42468
C	 2.1325410611	 0.0572214097	 1.741448367	-0.316187
C	 2.2430697709	-0.8874818463	 2.9112465823	-0.046817
C	 1.7172761298	-2.2358003392	 2.5682055463	-0.052772
C	 0.7975387763	-2.0253312377	 1.3590761736	-0.17136
C	-0.0016412085	-1.0869162904	 2.2304822016	-0.09196
N	 0.894263265	-1.3164115811	 3.4242819274	-0.164884
H	 0.5086776956	 2.0070174717	 0.241612683	 0.114767
H	-0.7422818948	 1.4509622256	-0.8979388384	 0.13025
H	-1.0041889519	 1.2931446504	 0.8619942603	 0.113965
H	 2.9949862201	-0.0102721881	 1.0701585195	 0.113568
H	 2.0075118796	 1.0981831543	 2.0573054847	 0.107753
H	 2.9920306704	-0.7581000792	 3.6838723484	 0.098427
H	 2.0963715951	-3.1794197393	 2.9433695292	 0.096622
H	 0.4814537238	-2.7333001811	 0.6070211726	 0.101308
H	-1.0656187289	-0.9339987363	 2.3509502763	 0.09988
97.6148	176.5473	194.9787	346.0251	372.0632	454.6403	534.6405	607.2413	700.0437	745.9614	753.845	788.2591	800.9226	858.7033	897.9719	926.4835	944.4147	966.3942	996.563	1026.4363	1043.05	1047.5147	1060.1017	1075.5581	1154.8819	1164.0778	1180.2106	1183.0573	1206.6837	1228.5767	1247.3522	1289.254	1328.2545	1361.6705	1395.0427	1480.2323	1487.6492	1491.9787	1507.7439	2999.6452	3046.404	3056.0882	3092.7358	3125.0222	3172.7209	3187.5807	3203.3614	3226.1881
COC12CC3C4C1C2N34	CO[C@]12C[C@@H]3[C@@H]4[C@H]1[C@H]2N34	
InChI=1S/C7H9NO/c1-9-7-2-3-5-4(7)6(7)8(3)5/h3-6H,2H2,1H3	InChI=1S/C7H9NO/c1-9-7-2-3-5-4(7)6(7)8(3)5/h3-6H,2H2,1H3/t3-,4+,5-,6-,7-,8?/m1/s1
