19
gdb 126837	3.74856	0.9615	0.86293	2.6351	78.7	-0.2724	-0.0151	0.2573	1435.3004	0.159972	-415.395802	-415.386561	-415.385617	-415.431462	32.287	
C	-0.2185694454	 1.4850873571	 0.0544906229	-0.381571
C	 0.1799143605	 0.0150738165	-0.0621192254	-0.135647
N	 0.7661980949	-0.4949160979	 1.1701884375	 0.144878
N	 2.0510350108	-0.8025055715	 1.2812751489	-0.130345
N	 2.2250413271	-1.2010682629	 2.5163206733	-0.263478
C	 1.0133788341	-1.1180194173	 3.1228786146	 0.388612
C	 0.7750713741	-1.4627200497	 4.5560363511	-0.275791
C	 1.3102706549	-0.3875804951	 5.5170982118	-0.37619
N	 0.0744528331	-0.6723557063	 2.2906879128	-0.306389
H	 0.6540850381	 2.1080716629	 0.2686421152	 0.139102
H	-0.6621128613	 1.8216229052	-0.8867939859	 0.128774
H	-0.9513666671	 1.6224752814	 0.8530644898	 0.148744
H	-0.6869235762	-0.6086186794	-0.296841532	 0.14019
H	 0.9388079615	-0.137614632	-0.83142545	 0.150804
H	-0.2994283869	-1.6027699119	 4.7030517942	 0.122048
H	 1.2649032563	-2.4186916974	 4.7682873535	 0.126616
H	 2.3839254302	-0.2401927341	 5.3715652757	 0.139122
H	 0.8098482472	 0.5708727373	 5.3490993278	 0.12386
H	 1.1411446643	-0.6832581151	 6.5565629642	 0.116661
33.1351	49.7348	103.3242	174.8519	198.1687	223.991	302.228	344.232	434.3157	454.4779	621.5806	715.5518	734.993	780.369	795.2908	805.7398	977.1704	984.6036	1041.5892	1076.7735	1081.3243	1087.4807	1109.4272	1113.4072	1234.1411	1253.6398	1286.7771	1347.8456	1361.3518	1387.3948	1394.9176	1406.0194	1413.041	1437.4703	1476.9908	1480.6117	1489.5044	1496.5338	1503.362	1506.5178	1540.9989	3042.4266	3050.9424	3054.6849	3073.945	3097.5552	3115.6598	3123.4685	3126.0042	3127.7982	3146.2907
CCN1N=NC(CC)=N1	CCn1nnc(CC)n1	
InChI=1S/C5H10N4/c1-3-5-6-8-9(4-2)7-5/h3-4H2,1-2H3	InChI=1S/C5H10N4/c1-3-5-6-8-9(4-2)7-5/h3-4H2,1-2H3
