20
gdb 67633	2.41601	1.90297	1.56425	1.8074	81.55	-0.214	0.0852	0.2992	982.8614	0.171585	-365.967673	-365.959814	-365.95887	-365.999512	31.437	
C	-0.1128464276	 1.5145437299	 0.0167666722	-0.519699
C	 0.0066278237	 0.0210877196	 0.0144323707	 0.292317
C	 0.8905840493	-0.8308387617	-0.9478237182	-0.121737
C	-0.1407803549	-1.9007154953	-0.9764402659	-0.121736
N	 1.1414357331	-2.1228287966	-0.285004828	-0.121969
C	 0.9325697148	-1.9601469899	 1.1612739803	-0.174007
C	-0.1591674381	-0.9087921122	 1.2014280183	-0.194209
C	-1.0502369153	-1.0752520476	-0.0148826298	 0.292316
C	-2.5466209353	-1.0101354561	-0.0507386768	-0.519699
H	 0.8205237675	 1.9898676928	 0.3429745126	 0.121227
H	-0.3480477316	 1.9012556763	-0.9817187863	 0.120134
H	-0.9059781222	 1.8479075012	 0.6938436417	 0.119463
H	 1.5790024148	-0.4665470677	-1.7008405369	 0.087999
H	-0.459100214	-2.5807521921	-1.7573917245	 0.087999
H	 0.6286584289	-2.916572934	 1.5997533266	 0.103729
H	 1.865040737	-1.6340150668	 1.6340460507	 0.10373
H	-0.5781665601	-0.529618499	 2.1267019417	 0.083315
H	-2.9270766219	-0.2486865539	 0.6377898418	 0.119463
H	-2.9149656855	-0.761532892	-1.0529153048	 0.120134
H	-2.9956172428	-1.968813665	 0.2371206146	 0.121227
160.1757	172.3868	187.6207	222.3171	279.4793	302.5149	422.4047	568.9891	593.207	606.9848	726.2142	773.0575	775.5061	786.4547	837.0684	869.0511	879.5627	933.3937	943.503	955.1725	985.0396	1034.7597	1039.2194	1078.178	1093.1885	1108.8429	1166.9497	1169.4626	1176.2969	1218.5713	1220.5706	1250.6568	1300.355	1325.0406	1332.476	1411.511	1418.2383	1470.4769	1483.8455	1487.7504	1495.2571	1498.0291	1506.1863	3016.7676	3019.2195	3043.5758	3072.9931	3074.012	3088.4355	3091.7422	3094.9472	3177.0365	3182.6276	3189.9926
CC12C3C4N3CC1C24C	C[C@@]12[C@@H]3[C@H]4N3C[C@@H]1[C@@]24C	
InChI=1S/C8H11N/c1-7-4-3-9-5(7)6(9)8(4,7)2/h4-6H,3H2,1-2H3	InChI=1S/C8H11N/c1-7-4-3-9-5(7)6(9)8(4,7)2/h4-6H,3H2,1-2H3/t4-,5-,6+,7-,8+,9?
