25
gdb 88458	2.63649	1.15914	1.10718	0.0863	92.31	-0.254	0.0821	0.3361	1312.9844	0.228834	-352.338218	-352.328465	-352.32752	-352.372328	38.263	
C	 2.1054289736	-0.2218127667	-0.8602278081	-0.415844
C	 0.6973335897	-0.0848151991	-0.3200312992	 0.005434
C	 0.0197212995	-1.2373686552	 0.3869030769	-0.327138
C	 0.3695518383	 0.0144736702	 1.155167622	-0.058119
C	 1.3746804762	 0.0840983539	 2.2918769157	 0.340745
C	 1.9598502258	 1.5002421868	 2.3777683179	-0.437849
C	 0.8249381418	-0.3850039077	 3.6811074859	-0.246762
C	 2.1722560682	-1.1015807722	 3.9547958435	-0.228809
C	 2.4937938298	-1.0012463169	 2.4408465063	-0.252269
H	 2.7335052513	-0.8463266187	-0.2206753857	 0.124186
H	 2.0924327368	-0.6801069939	-1.8558689533	 0.112774
H	 2.5955463735	 0.753906494	-0.9550659607	 0.114319
H	 0.0496285481	 0.5057171386	-0.9642612204	 0.077756
H	-1.0243781859	-1.4464202461	 0.1786191312	 0.104116
H	 0.6167611776	-2.1279119002	 0.5568453258	 0.107842
H	-0.4857753074	 0.6567840415	 1.3649798289	 0.076121
H	 1.1623848147	 2.2447995057	 2.4842403706	 0.108036
H	 2.6303874266	 1.6071027745	 3.2372738552	 0.107428
H	 2.5292215519	 1.7461626435	 1.475391571	 0.115729
H	 0.5132271052	 0.3980024788	 4.3789058419	 0.088186
H	 0.0018994694	-1.095590915	 3.5626567224	 0.097963
H	 2.8497700408	-0.5015686939	 4.567723786	 0.101548
H	 2.123989629	-2.1045849131	 4.3846340172	 0.094549
H	 2.2518294361	-1.9310651215	 1.9209561296	 0.098146
H	 3.5070173191	-0.7016121473	 2.1578497592	 0.091911
75.0042	129.6501	156.5433	197.9586	237.9378	251.6123	270.2275	334.6503	356.2648	365.3858	473.577	493.8921	624.9486	700.3465	776.7234	798.9116	841.4613	862.025	876.4875	908.3982	919.9389	929.4216	946.5786	950.9057	993.6595	1034.029	1042.3903	1076.5475	1093.0993	1120.9817	1153.4698	1166.0591	1191.7962	1202.2237	1205.9169	1221.7945	1260.0765	1264.9329	1272.7261	1277.1641	1317.8064	1389.3505	1406.4154	1414.8458	1425.2162	1473.0815	1482.4249	1492.5092	1494.0494	1496.3482	1499.0681	1506.1027	1510.5115	3023.7586	3029.3993	3046.4018	3053.6288	3064.7471	3080.7026	3089.0327	3092.7372	3097.1971	3098.7637	3104.0657	3115.2713	3120.3736	3126.9679	3133.6065	3206.4806
CC1CC1C1(C)CCC1	C[C@H]1C[C@H]1C1(C)CCC1	
InChI=1S/C9H16/c1-7-6-8(7)9(2)4-3-5-9/h7-8H,3-6H2,1-2H3	InChI=1S/C9H16/c1-7-6-8(7)9(2)4-3-5-9/h7-8H,3-6H2,1-2H3/t7-,8+/m0/s1
