18
gdb 26481	3.59901	1.30222	1.06723	2.5815	78.5	-0.2101	0.0343	0.2444	1146.7358	0.150086	-398.150763	-398.142794	-398.14185	-398.183389	30.658	
C	-0.3169098809	 1.2963902991	-0.8732736885	-0.467732
C	-0.074805451	 0.0340596527	-0.0750626792	 0.194973
C	 1.0879238074	-0.8370740416	-0.4268203791	-0.258506
N	 1.0914042962	-0.0665435553	 0.8283019235	-0.36799
C	-1.2935927929	-0.5924318383	 0.495595554	 0.352813
N	-2.4981341475	-0.6078555142	-0.0369655172	-0.331906
C	-3.2773028266	-1.3165753126	 0.849566027	-0.093901
C	-2.5342437472	-1.7283381161	 1.9249163804	-0.115755
N	-1.2636379426	-1.2590620175	 1.682711562	-0.274958
H	 0.6111670205	 1.6539712505	-1.3306024208	 0.10401
H	-1.0486591781	 1.1048643884	-1.6619775568	 0.156925
H	-0.7217628825	 2.0884688948	-0.2349501044	 0.128705
H	 1.015524971	-1.9135345303	-0.3024841962	 0.1222
H	 1.7328469408	-0.5134284326	-1.2396790117	 0.117047
H	 1.6761630258	 0.7599894069	 0.7363911758	 0.235071
H	-4.3267866513	-1.4874140075	 0.6632045959	 0.102426
H	-2.7793704013	-2.2881023998	 2.8119323684	 0.123831
H	-0.4456486898	-1.3104325466	 2.2688650269	 0.272747
72.2778	148.6033	194.1146	215.9545	314.2789	346.5109	413.3375	492.7029	555.6232	615.3577	673.8413	727.5305	753.504	824.5653	842.2223	852.6464	931.4364	934.4304	975.5498	981.9053	1006.8966	1051.778	1087.8462	1115.7509	1128.2761	1145.6529	1182.2661	1217.1029	1265.4918	1333.1288	1345.3616	1404.0224	1413.6927	1471.5114	1478.3208	1493.7611	1506.9822	1516.9649	1590.39	3037.0249	3103.9432	3108.9769	3126.6999	3198.1126	3246.5258	3280.1699	3505.325	3651.6522
CC1(CN1)C1=NC=CN1	C[C@]1(CN1)c1ncc[nH]1	
InChI=1S/C6H9N3/c1-6(4-9-6)5-7-2-3-8-5/h2-3,9H,4H2,1H3,(H,7,8)	InChI=1S/C6H9N3/c1-6(4-9-6)5-7-2-3-8-5/h2-3,9H,4H2,1H3,(H,7,8)/t6-/m0/s1
