19
gdb 121337	3.42115	0.94522	0.77669	3.693	71.39	-0.2593	0.0096	0.2688	1445.8055	0.159849	-460.207003	-460.197964	-460.19702	-460.241547	32.572	
O	 0.2084246263	 1.400212937	 0.4145604605	-0.418838
C	 0.119064981	-0.0008428543	 0.2023290859	-0.080631
C	-1.3305875209	-0.4583747082	 0.0032930374	-0.214444
C	-1.4812520941	-1.9756848582	-0.1533635883	-0.146992
C	-2.9120577936	-2.5260862437	-0.075659788	-0.255356
C	-2.809837794	-3.8087047864	-0.9093841362	-0.088141
O	-1.7951552201	-3.5436485537	-1.89505601	-0.217221
C	-1.00597376	-2.5063743767	-1.5093213064	 0.446468
O	-0.0956362588	-2.1160598684	-2.1846452678	-0.340511
H	 0.0621383417	 1.8336698214	-0.4318259881	 0.283682
H	 0.7337301895	-0.327863037	-0.6442626643	 0.128805
H	 0.5276952581	-0.46574417	 1.107824418	 0.104019
H	-1.918897194	-0.1240431749	 0.865582682	 0.107759
H	-1.7521273782	 0.0394692796	-0.8800053311	 0.09774
H	-0.8602350326	-2.4800163939	 0.6026136066	 0.109838
H	-3.2558789807	-2.7139189113	 0.9434560627	 0.117516
H	-3.6087722029	-1.8230272493	-0.5452025478	 0.119637
H	-2.4945138589	-4.6683617226	-0.3058875131	 0.118278
H	-3.7272840278	-4.0712519793	-1.439758492	 0.128392
74.1127	83.7875	116.1313	175.2479	208.9643	270.4866	286.2952	334.4657	409.6889	516.4752	617.7258	673.2067	716.1433	760.9054	815.1306	887.3044	953.6735	969.9446	1014.7264	1053.4558	1061.6215	1072.7709	1106.49	1130.7138	1159.3864	1182.6841	1207.7267	1236.4593	1277.9724	1302.4192	1334.7448	1337.5538	1365.047	1401.433	1405.9688	1418.8989	1484.3922	1495.6236	1518.0747	1524.2436	1867.5615	2998.8304	3020.1228	3032.2848	3036.4447	3053.1051	3059.6004	3085.8273	3108.8186	3118.6257	3822.3805
OCCC1CCOC1=O	OCC[C@H]1CCOC1=O	
InChI=1S/C6H10O3/c7-3-1-5-2-4-9-6(5)8/h5,7H,1-4H2	InChI=1S/C6H10O3/c7-3-1-5-2-4-9-6(5)8/h5,7H,1-4H2/t5-/m0/s1
