13
gdb 21123	5.40908	1.6109	1.25079	1.1657	66.94	-0.2554	-0.0602	0.1952	908.5936	0.095797	-394.753027	-394.746096	-394.745152	-394.78468	24.49	
C	 0.0495008103	 1.4284429494	 0.101827231	-0.337949
N	 0.1175436608	-0.0186517153	 0.0412655363	-0.299223
C	 0.5340686597	-0.5867055973	-1.0208158574	 0.34503
C	 0.5916898514	-2.0498849007	-1.0523806023	 0.033706
N	 0.9835741655	-2.7687498434	-2.0362284285	-0.079333
O	 1.3922891217	-2.0417965854	-3.1855268856	-0.222831
C	 1.3364777305	-0.6981633681	-3.1490853051	 0.171513
N	 0.9561994753	 0.0582828015	-2.1991369631	-0.328281
H	 0.6599895414	 1.7696304523	 0.9463083597	 0.133035
H	 0.3759400445	 1.9363009994	-0.8108210003	 0.136577
H	-0.9830885636	 1.7181656592	 0.3300054222	 0.13303
H	 0.2785806114	-2.604666529	-0.1721421108	 0.159852
H	 1.680895211	-0.2949048726	-4.099961226	 0.154875
80.0877	107.4276	227.7129	245.2002	425.9275	441.6647	474.7799	594.7557	684.8582	768.9313	791.0489	823.1716	970.2372	978.231	979.5952	1061.474	1108.9932	1124.3225	1157.576	1266.8157	1316.8023	1409.7229	1426.4372	1484.2659	1491.4747	1652.9077	1692.4127	1717.9521	3019.7638	3074.2806	3104.3352	3161.4027	3185.5394
CN=C1C=NOC=N1	CN=c1cnocn1	
InChI=1S/C4H5N3O/c1-5-4-2-7-8-3-6-4/h2-3H,1H3	InChI=1S/C4H5N3O/c1-5-4-2-7-8-3-6-4/h2-3H,1H3
