16
gdb 13235	7.58427	0.90471	0.86728	2.0085	67.5	-0.2512	0.0252	0.2764	1294.4459	0.128289	-383.659954	-383.65161	-383.650666	-383.693924	28.951	
C	-0.1070559728	-1.1675293309	-0.1147161321	-0.410416
C	-0.0043075594	 0.0185002111	 0.0403243789	 0.280741
C	 0.0887373082	 1.4571083102	 0.2444163851	-0.22007
O	 1.323742202	 1.9381090967	-0.2620064152	-0.249639
C	 1.4606436801	 3.3274511892	-0.1348414472	 0.10579
C	 1.9270894742	 3.8930091243	 1.2310100111	-0.094998
O	 3.0909797102	 4.484468408	 0.6188401299	-0.271527
C	 2.8118374651	 3.8468024258	-0.6454962475	-0.101689
H	-0.1914282339	-2.2168042435	-0.2555162142	 0.203589
H	-0.7521612105	 1.9616022306	-0.2612913014	 0.122662
H	-0.0057460248	 1.6839425017	 1.3191594002	 0.125039
H	 0.5850105954	 3.845251062	-0.5512504204	 0.077868
H	 1.2907129513	 4.6440037454	 1.7128447131	 0.103392
H	 2.1893957646	 3.1092561578	 1.9544844572	 0.105491
H	 3.5140297953	 3.0348835296	-0.8713963947	 0.116467
H	 2.792450215	 4.5620223022	-1.4746579828	 0.107298
49.7549	79.9864	96.6156	142.197	256.931	331.6056	384.9269	428.5427	537.1262	613.2384	679.597	752.3057	872.8394	891.1986	965.4395	985.9238	1028.7051	1032.0185	1053.4543	1058.5357	1133.1298	1156.0175	1163.5276	1207.3817	1255.5137	1276.4649	1303.7817	1345.1552	1387.6653	1440.8805	1498.6685	1500.9684	1526.6505	2249.9432	2959.0223	2980.7668	3001.4184	3007.5908	3027.17	3065.4142	3078.7398	3505.7114
C#CCOC1COC1	C#CCOC1COC1	
InChI=1S/C6H8O2/c1-2-3-8-6-4-7-5-6/h1,6H,3-5H2	InChI=1S/C6H8O2/c1-2-3-8-6-4-7-5-6/h1,6H,3-5H2
