23
gdb 104738	2.20924	1.36699	1.00068	1.4321	83.3	-0.2386	0.0694	0.3081	1305.4526	0.202217	-425.399811	-425.388704	-425.38776	-425.435601	40.673	
C	-0.5285638214	 0.9116702342	 0.3197874304	-0.243666
O	-0.6026879509	-0.2999320321	-0.4171650301	-0.294238
C	 0.426763448	-0.512044731	-1.3463695307	 0.411585
C	 0.2811214955	 0.308964056	-2.6071968138	-0.156389
O	 0.7415657015	 1.6374576894	-2.3557741207	-0.418802
C	 1.8043300659	-0.8226127026	-0.7997552283	-0.380149
C	 0.9558530905	-1.9387865434	-1.379476548	 0.254272
C	 0.3402272918	-2.9359381673	-0.4129898142	-0.439167
C	 1.3975650529	-2.5795440258	-2.6847697107	-0.459482
H	 0.4306103832	 1.0041572629	 0.8476159598	 0.104829
H	-0.650918844	 1.7899552409	-0.3217428959	 0.123936
H	-1.3372975827	 0.874876022	 1.0544974951	 0.114107
H	 0.8486012386	-0.1401031315	-3.4315470527	 0.086245
H	-0.7822614396	 0.3073041446	-2.8892115236	 0.095993
H	 0.551633057	 2.1676569639	-3.1358956153	 0.285302
H	 2.664588002	-0.4727075291	-1.3610538824	 0.112155
H	 1.9255310858	-0.7857529935	 0.277758863	 0.111242
H	-0.0183711645	-2.4480762736	 0.4931088072	 0.128187
H	-0.5119481925	-3.4494557491	-0.8735432953	 0.111356
H	 1.0776977011	-3.6983202696	-0.1369893335	 0.106657
H	 2.0502065339	-3.4344211409	-2.4725021551	 0.115804
H	 0.5420776213	-2.9557248543	-3.2584021868	 0.114878
H	 1.9623480267	-1.8977099504	-3.3250802186	 0.115347
62.9583	104.3589	127.8601	168.333	186.2425	201.9416	240.6596	259.7622	273.0119	336.2379	345.2229	375.7544	401.869	420.1718	483.9174	562.6152	690.5398	790.4715	906.045	914.455	924.5996	953.9405	974.4646	1013.6382	1035.2299	1051.7401	1056.1846	1087.7574	1156.1217	1178.0883	1185.9808	1211.0763	1226.5213	1251.7615	1282.5645	1308.1523	1382.1436	1408.489	1422.2302	1459.7173	1474.4675	1480.513	1484.4445	1488.882	1489.4162	1503.0695	1509.7033	1514.3549	1516.3644	2992.96	3006.8632	3023.6975	3030.0969	3042.3268	3079.1092	3079.1818	3083.2631	3112.6554	3116.2709	3128.404	3148.5847	3214.6745	3820.907
COC1(CO)CC1(C)C	CO[C@@]1(CO)CC1(C)C	
InChI=1S/C7H14O2/c1-6(2)4-7(6,5-8)9-3/h8H,4-5H2,1-3H3	InChI=1S/C7H14O2/c1-6(2)4-7(6,5-8)9-3/h8H,4-5H2,1-3H3/t7-/m1/s1
