21
gdb 112586	3.14577	0.91928	0.8388	1.1424	85.32	-0.2542	0.0332	0.2875	1483.7963	0.179809	-387.050601	-387.04054	-387.039596	-387.085549	37.897	
C	 0.0784238402	 1.4909598426	 0.2593442144	-0.37954
C	-0.0968428916	-0.0114387774	 0.0154565818	-0.19464
C	 0.6397271601	-0.5093686176	-1.220820314	 0.065167
C	 2.1947028027	-0.542136203	-1.2051632664	-0.276515
C	 2.1532166609	-1.9044271639	-1.952409404	 0.248626
O	 3.0681850554	-2.8406688147	-1.4125591531	-0.463185
C	 0.6536110855	-2.0339679757	-1.515029768	-0.310932
C	 2.3067514598	-1.7863524261	-3.3997793455	 0.300256
C	 2.4304593733	-1.7316216194	-4.5951100323	-0.50738
H	 1.1340724323	 1.7509639754	 0.3935294462	 0.119772
H	-0.3008333563	 2.0757480344	-0.5861057805	 0.114149
H	-0.4595055051	 1.8143758402	 1.1558220156	 0.112186
H	 0.2573126083	-0.5712345928	 0.8916584223	 0.092239
H	-1.1651909071	-0.2454250813	-0.0846256837	 0.095173
H	 0.2908053045	 0.036782364	-2.1044948701	 0.076178
H	 2.748729544	 0.2704096704	-1.6769763992	 0.108228
H	 2.5834084759	-0.7144740426	-0.1967683618	 0.112382
H	 3.1009812805	-3.6011029058	-2.0032442482	 0.28105
H	 0.609824366	-2.6215293331	-0.5929744995	 0.105694
H	-0.0555989102	-2.4327256195	-2.2428737382	 0.101175
H	 2.5461308208	-1.6709045139	-5.6491506559	 0.199918
60.4351	97.1891	138.3256	172.7279	213.6415	235.8894	267.3112	339.5826	360.0982	402.4412	428.9503	508.9468	567.0287	614.1534	632.3807	667.4402	710.8329	781.3918	836.9283	856.8278	941.1664	944.1435	973.5378	1008.746	1020.438	1050.9365	1070.5906	1132.8565	1145.7275	1206.9771	1222.5781	1255.4294	1272.6372	1278.2656	1307.8817	1346.2883	1368.4957	1396.1419	1412.2543	1465.9069	1482.9832	1493.4226	1499.3048	1507.0007	2226.6605	3010.1624	3030.2129	3034.3055	3050.3069	3055.3532	3063.0889	3096.6977	3102.6222	3122.8832	3129.4603	3500.4533	3808.4499
CCC1CC(O)(C1)C#C	CC[C@H]1C[C@@](O)(C1)C#C	
InChI=1S/C8H12O/c1-3-7-5-8(9,4-2)6-7/h2,7,9H,3,5-6H2,1H3	InChI=1S/C8H12O/c1-3-7-5-8(9,4-2)6-7/h2,7,9H,3,5-6H2,1H3/t7-,8+
