19
gdb 35282	3.0152	0.99742	0.87088	3.9142	80.76	-0.2196	0.0252	0.2448	1380.9893	0.159476	-382.039943	-382.031009	-382.030065	-382.07464	33.231	
N	 0.219923564	-1.1421560728	 0.2259604135	-0.346082
C	 0.1432125659	 0.0127625951	 0.2559480676	 0.28596
C	 0.0902245568	 1.4461650143	 0.281563942	-0.202073
C	 1.0208719281	 2.1949803473	 1.2363936592	-0.295238
C	 1.2780322846	 2.2300973666	-0.2496595145	 0.054533
N	 2.3466492748	 1.5409581984	-0.9012003897	-0.312569
C	 3.6471557823	 2.1436476184	-0.7784995398	 0.073917
C	 4.5472104875	 1.954572481	 0.4277101845	-0.271963
C	 4.8707894211	 1.2899396755	-0.8953315581	-0.294021
H	-0.8972502352	 1.8587801047	 0.1082077044	 0.137086
H	 0.6117725116	 3.0705961038	 1.7282639849	 0.127291
H	 1.6733059455	 1.5852506818	 1.8491579478	 0.138602
H	 1.0064327222	 3.1579038066	-0.7490915973	 0.110949
H	 2.3573028677	 0.5509648092	-0.6853232253	 0.237813
H	 3.6904001864	 3.1193243165	-1.2572586347	 0.094
H	 5.1633359291	 2.7844069044	 0.7574879312	 0.112199
H	 4.1943032137	 1.3126738695	 1.2275851848	 0.109895
H	 4.7292152629	 0.2155213079	-0.9632742991	 0.120255
H	 5.7063513711	 1.658879072	-1.4791039615	 0.119445
40.3469	78.1811	114.5683	182.0786	213.6396	333.5794	365.8953	403.9418	484.0333	565.9774	606.9066	634.9024	753.0591	765.9073	810.732	826.0011	855.0531	874.8012	942.9175	970.7517	998.0921	1010.9574	1048.1502	1060.1226	1078.6093	1119.7259	1130.3274	1132.3857	1164.1806	1193.4203	1214.4192	1252.6077	1267.1711	1352.9332	1365.8416	1417.0898	1462.2616	1474.8025	1502.1008	1522.9145	2346.3844	3126.4066	3129.3757	3130.6899	3134.91	3143.8422	3176.5657	3209.213	3224.3815	3240.7825	3548.0108
N#CC1CC1NC1CC1	N#C[C@H]1C[C@H]1NC1CC1	
InChI=1S/C7H10N2/c8-4-5-3-7(5)9-6-1-2-6/h5-7,9H,1-3H2	InChI=1S/C7H10N2/c8-4-5-3-7(5)9-6-1-2-6/h5-7,9H,1-3H2/t5-,7-/m1/s1
