12
gdb 21546	3.46861	1.9549	1.2515	6.2517	62.33	-0.24	-0.0712	0.1688	876.3501	0.08409	-414.65234	-414.645436	-414.644492	-414.68352	24.946	
N	 0.0649972245	 1.4398225289	 0.1516012034	-0.60573
C	 0.0089632959	 0.067885031	 0.0378382535	 0.092574
C	-1.077289837	-0.783132763	 0.0088224221	 0.293204
O	-0.6327246966	-2.0712988245	-0.0363129313	-0.198956
N	 0.7325678094	-2.0779638954	-0.0406186838	-0.104551
C	 1.118599038	-0.826529202	 0.0055456832	-0.005583
C	-2.5026392529	-0.5172093008	 0.0145117884	 0.071054
O	-3.3804214301	-1.3497300051	-0.0156624906	-0.272172
H	 0.9038147822	 1.8702163209	-0.207285474	 0.265528
H	-0.7659850886	 1.9462453775	-0.1135169898	 0.265753
H	 2.1736070334	-0.5913332651	 0.0154791402	 0.138046
H	-2.7381856683	 0.5718092076	 0.0500528887	 0.060834
140.7979	174.6122	209.9069	300.1726	333.8441	350.8873	545.092	558.1293	636.78	664.2516	705.4758	793.3479	882.1456	954.8313	1007.3271	1013.3012	1057.5164	1212.1425	1236.1011	1271.987	1425.4225	1474.3722	1509.0257	1640.2197	1677.3495	1784.3574	2851.8195	3243.9045	3578.767	3677.184
NC1=C(ON=C1)C=O	Nc1c(onc1)C=O	
InChI=1S/C4H4N2O2/c5-3-1-6-8-4(3)2-7/h1-2H,5H2	InChI=1S/C4H4N2O2/c5-3-1-6-8-4(3)2-7/h1-2H,5H2
