16
gdb 88333	4.00017	0.89444	0.83484	5.735	69.29	-0.2565	-0.0445	0.212	1385.3313	0.122062	-475.045919	-475.036757	-475.035813	-475.080934	31.778	
C	 0.3274321068	 1.410486544	-0.6501321138	-0.435259
C	-0.0645106817	 0.0869891175	-0.0512790152	 0.084945
O	 0.9490582441	-0.8996943985	 0.1072180904	-0.22446
C	 0.3619633711	-0.388471408	 1.2915581138	-0.083729
C	 1.2525371649	 0.45112307	 2.178650136	 0.4297
O	 2.2414701991	 1.0195724595	 1.7977518676	-0.301895
N	 0.7738645601	 0.5051239196	 3.4980685392	-0.363586
C	 1.2920794074	 1.2372771654	 4.5664739818	 0.168894
O	 2.2445345737	 1.9632998751	 4.5392578008	-0.244949
H	 1.2685898848	 1.7659040612	-0.2306792516	 0.174015
H	 0.4403665187	 1.3015528359	-1.7336851619	 0.134269
H	-0.4570670606	 2.1530389003	-0.4694182648	 0.122383
H	-1.0155766523	-0.3219327094	-0.4004255041	 0.100409
H	-0.295029188	-1.0902468041	 1.8108414803	 0.092347
H	-0.0467625975	-0.0438616595	 3.7101745535	 0.258252
H	 0.6852745896	 1.056289111	 5.4774471679	 0.088662
46.4281	64.5486	148.8801	175.8131	211.6017	231.9107	269.8054	339.4579	377.4788	449.5202	590.5377	603.5096	738.7125	785.5925	816.4249	866.9512	942.0678	998.4804	1026.7326	1035.4717	1076.5418	1089.1384	1156.6457	1167.0848	1176.9529	1297.6659	1392.1108	1417.4373	1446.326	1451.3052	1492.3217	1501.0126	1509.2835	1811.4641	1874.593	2922.4245	3042.9762	3073.0308	3087.6992	3103.3859	3161.1044	3608.5799
CC1OC1C(=O)NC=O	C[C@H]1O[C@H]1C(=O)NC=O	
InChI=1S/C5H7NO3/c1-3-4(9-3)5(8)6-2-7/h2-4H,1H3,(H,6,7,8)	InChI=1S/C5H7NO3/c1-3-4(9-3)5(8)6-2-7/h2-4H,1H3,(H,6,7,8)/t3-,4-/m1/s1
