25
gdb 122017	2.27233	0.7296	0.57631	1.5497	87.81	-0.2434	0.085	0.3284	2028.4888	0.225384	-426.618085	-426.606073	-426.605129	-426.656945	41.405	
C	-0.0495915071	 1.5013501884	-0.0928810271	-0.382228
C	-0.0236383133	 0.0114788826	 0.2085336917	-0.035281
O	-1.3028601901	-0.5198244685	-0.0737975455	-0.257187
C	-1.409233659	-1.9381032625	-0.0057885303	 0.137833
C	-1.4278271371	-2.4434109287	 1.440029765	-0.403997
C	-2.685165834	-2.3219450414	-0.7542553754	-0.206259
C	-2.6757810415	-1.8947235491	-2.2160112201	-0.055746
O	-3.8688955862	-2.351987697	-2.8191493923	-0.231942
C	-3.9774992962	-1.9717741305	-4.1676294396	-0.225058
H	 0.9252258021	 1.9513003451	 0.118454193	 0.112752
H	-0.2943836752	 1.6767388173	-1.1443603155	 0.123632
H	-0.8032364986	 2.0025210722	 0.5212193041	 0.126929
H	 0.7401554277	-0.4937424256	-0.4069060764	 0.082842
H	 0.2519312948	-0.1539214404	 1.2619047245	 0.088264
H	-0.5415724204	-2.3821773003	-0.5262412109	 0.060289
H	-2.2709900961	-2.0048545018	 1.9831447731	 0.123264
H	-1.5297518319	-3.5329518771	 1.4631188486	 0.115456
H	-0.5066981293	-2.186010176	 1.9701251435	 0.114966
H	-2.8187968175	-3.4080994747	-0.7029550771	 0.10226
H	-3.5472213563	-1.8659315218	-0.2539896657	 0.110714
H	-2.5961053587	-0.8001466711	-2.2902383597	 0.10125
H	-1.7982553325	-2.3213317672	-2.7352605105	 0.074249
H	-4.9268998	-2.3607648333	-4.5446525178	 0.123082
H	-3.9699926404	-0.876231416	-4.2872741469	 0.101155
H	-3.1580589635	-2.3848612424	-4.7786145627	 0.098759
43.0948	62.9456	68.6587	84.0627	133.1896	151.1224	199.9774	219.1206	235.7799	256.2101	295.041	309.0166	389.9636	467.3125	502.6826	533.2349	787.4608	821.2196	844.3582	912.7277	956.0305	980.192	989.9395	1049.0376	1096.2401	1118.9259	1139.1617	1156.862	1166.734	1177.8928	1186.4621	1199.6786	1229.531	1247.1686	1298.344	1303.5985	1309.8902	1369.8934	1382.3211	1402.6787	1405.0987	1425.0937	1437.4588	1479.2076	1481.2672	1483.7682	1484.7812	1491.6738	1497.9917	1500.2604	1505.9378	1529.8998	1534.6903	2935.882	2942.5805	2959.3464	2964.2417	2991.848	3004.2279	3010.6761	3038.3061	3043.6949	3044.0199	3087.7971	3108.8043	3111.7847	3115.3912	3117.8597	3120.6711
CCOC(C)CCOC	CCO[C@@H](C)CCOC	
InChI=1S/C7H16O2/c1-4-9-7(2)5-6-8-3/h7H,4-6H2,1-3H3	InChI=1S/C7H16O2/c1-4-9-7(2)5-6-8-3/h7H,4-6H2,1-3H3/t7-/m0/s1
