15
gdb 45693	3.64815	1.47611	1.12201	3.981	67.08	-0.247	-0.0019	0.2451	1024.2053	0.114933	-453.959235	-453.952264	-453.95132	-453.990806	26.739	
O	 0.0084579055	 0.2371603268	 0.8207837816	-0.310827
C	-0.0047886243	 1.2104438902	 0.1246578927	 0.396871
C	-1.2987622346	 1.89163691	-0.3554882857	-0.308798
N	-1.2292121042	 3.356672285	-0.4772638685	-0.321707
C	-0.1056755922	 3.683109108	-0.9502936174	 0.401006
N	 0.6100936369	 4.8616031183	-1.1032270266	-0.366684
C	 1.9041930373	 4.1340374489	-0.9434919685	-0.200493
C	 1.1048222143	 2.821930124	-1.2091756644	 0.012358
O	 1.1894603204	 1.7643121167	-0.2717208632	-0.232973
H	-1.5819992451	 1.4255368472	-1.3111064682	 0.139229
H	-2.0690366464	 1.6177852287	 0.3664359142	 0.150674
H	 0.3757225119	 5.7064438749	-0.5976255747	 0.254453
H	 2.668543981	 4.4112914061	-1.6715825052	 0.126993
H	 2.306373966	 4.1589859116	 0.0734713279	 0.137526
H	 1.2245798434	 2.4411194035	-2.2273686142	 0.122373
99.6469	159.6473	270.9675	346.0629	380.3602	453.3243	478.9989	557.8965	588.4115	665.0199	740.9864	767.185	835.1477	890.9033	954.3346	977.8886	995.1893	1051.5359	1066.8917	1143.4986	1149.4604	1174.5464	1217.3206	1227.0668	1248.1628	1313.992	1322.7473	1357.8224	1392.9547	1471.5089	1511.4934	1813.3406	1862.4081	3003.7723	3059.7657	3071.2574	3124.6595	3126.8889	3576.7095
O=C1CN=C2NCC2O1	O=C1C[N][C]2NC[C@H]2O1	
InChI=1S/C5H6N2O2/c8-4-2-7-5-3(9-4)1-6-5/h3H,1-2H2,(H,6,7)	InChI=1S/C5H6N2O2/c8-4-2-7-5-3(9-4)1-6-5/h3H,1-2H2,(H,6,7)/t3-/m1/s1
