16
gdb 24448	3.49833	1.64629	1.15985	1.8861	70.94	-0.182	0.0289	0.2109	1006.036	0.127883	-437.899203	-437.892503	-437.891559	-437.930212	26.927	
C	-0.0244095634	 1.4032922069	 0.0753128826	-0.189705
C	 1.4192955885	 1.9425940257	-0.0066822	-0.089565
O	 2.2199922119	 1.4980198635	 1.0894284904	-0.279868
C	 2.0104837046	 0.1713208871	 1.3319463666	 0.270361
C	 0.9878600485	-0.5521461506	 0.8005152896	 0.258989
N	-0.0863554572	-0.0661974931	 0.0561559667	-0.398313
O	 1.0400355979	-1.8382837637	 1.2399549163	-0.187819
C	 2.1365506565	-1.9204959666	 2.0541277385	-0.012611
C	 2.7645473919	-0.7183734366	 2.1594560638	-0.315948
H	-0.4790738318	 1.7554044808	 1.0081798371	 0.13147
H	-0.6123761998	 1.7989508409	-0.7567496302	 0.11341
H	 1.8794335365	 1.6132785883	-0.9501025035	 0.100601
H	 1.4307771451	 3.0348986624	 0.0289455866	 0.116007
H	-0.1197310232	-0.4366350179	-0.8889718128	 0.235341
H	 2.339604669	-2.8967480659	 2.4599159445	 0.132958
H	 3.649302905	-0.4946673213	 2.7333835938	 0.114693
120.7652	230.5281	326.7364	366.1531	418.2996	469.2075	529.478	601.4395	656.0211	698.6044	705.2197	710.8984	786.1938	810.2066	870.9938	904.6293	941.5097	1032.6168	1050.3171	1072.9121	1123.0766	1156.7054	1187.256	1270.8398	1278.1002	1290.7605	1315.9995	1373.0957	1395.3733	1443.3995	1469.4926	1483.1369	1508.3191	1542.7188	1693.9217	2998.5678	3046.8608	3101.3778	3107.5369	3262.3695	3292.075	3490.4548
C1COC2=C(N1)OC=C2	C1COc2c(N1)occ2	
InChI=1S/C6H7NO2/c1-3-9-6-5(1)8-4-2-7-6/h1,3,7H,2,4H2	InChI=1S/C6H7NO2/c1-3-9-6-5(1)8-4-2-7-6/h1,3,7H,2,4H2
