25
gdb 116362	2.86956	1.05917	0.83239	0.309	94.52	-0.2326	0.0242	0.2568	1494.7816	0.230729	-352.378387	-352.368811	-352.367866	-352.412847	37.012	
C	 0.0201295026	 1.5613447042	 0.255575441	-0.392812
C	-0.0532126318	 0.050978817	 0.0072197438	-0.174715
C	 0.676712589	-0.4387378605	-1.2612152339	 0.052847
C	 0.8394965994	-1.9696179824	-1.2080904403	-0.187369
C	 1.7409299941	-2.6115121435	-2.2721089911	-0.195371
C	 1.2217122177	-2.5324077156	-3.7198284899	-0.244482
C	 1.279560003	-1.155372893	-4.3362906927	-0.046707
C	 0.7341098964	-0.0531120601	-3.8230230967	-0.059248
C	-0.0585532517	 0.0308360839	-2.5398430748	-0.249575
H	 1.0607186991	 1.8976051873	 0.3269347443	 0.113839
H	-0.4593856061	 2.1394139026	-0.5404101214	 0.118137
H	-0.4784398369	 1.8263800887	 1.1934114889	 0.111187
H	 0.3769207414	-0.4641913082	 0.8754051489	 0.08896
H	-1.1047409137	-0.2655563461	-0.038746738	 0.09058
H	 1.6808847372	 0.0100572479	-1.2654376273	 0.066423
H	 1.2410762062	-2.2363078698	-0.2220834811	 0.0866
H	-0.1584060856	-2.4311470012	-1.2588886935	 0.086056
H	 2.7407195455	-2.1612108276	-2.226528584	 0.093956
H	 1.8663855217	-3.6699404346	-2.0113519641	 0.087846
H	 1.8024573485	-3.2242913196	-4.3387956549	 0.094167
H	 0.1872889332	-2.908487967	-3.7430149334	 0.103278
H	 1.8154796775	-1.0709674319	-5.2792405335	 0.080455
H	 0.8530358759	 0.8786978703	-4.3718595336	 0.080197
H	-0.9818975507	-0.5622289801	-2.6335936055	 0.101799
H	-0.385465432	 1.0658040689	-2.405317237	 0.093951
72.3188	99.8606	108.2824	216.347	227.6388	286.8334	289.8266	344.2611	401.8557	423.5463	474.644	501.6331	659.5421	705.5622	771.0434	790.2046	847.5051	872.703	890.1151	916.3699	946.1539	983.889	997.8889	1029.5018	1033.1895	1042.7221	1082.562	1108.5493	1121.5581	1144.9407	1178.85	1237.9295	1247.1117	1274.0045	1279.271	1308.3076	1318.0356	1342.07	1363.5511	1373.4722	1382.019	1384.8561	1402.6589	1414.423	1424.262	1473.443	1479.2379	1483.4182	1487.7598	1493.3026	1501.7206	1507.3271	1725.5596	2984.2949	2990.1557	2993.1788	2999.72	3013.0808	3014.9395	3032.6177	3038.1029	3047.8925	3057.3206	3063.1289	3075.5643	3097.6818	3104.5476	3133.6328	3158.7118
CCC1CCCC=CC1	CC[C@H]1CCCC=CC1	
InChI=1S/C9H16/c1-2-9-7-5-3-4-6-8-9/h3,5,9H,2,4,6-8H2,1H3	InChI=1S/C9H16/c1-2-9-7-5-3-4-6-8-9/h3,5,9H,2,4,6-8H2,1H3/t9-/m1/s1
