15
gdb 31466	6.97865	0.87854	0.78419	1.7544	78.89	-0.2014	-0.0019	0.1996	1392.8456	0.111053	-420.611865	-420.603274	-420.602329	-420.646011	31.034	
C	 0.0320237032	 1.4239644178	-0.0742519604	-0.248463
O	 0.012271181	-0.0021063555	-0.0158549525	-0.271852
C	 0.5847068957	-0.6664870659	-1.0204867234	 0.500766
C	 0.7124372739	-2.0020742655	-1.2292287255	-0.484201
C	 1.422199872	-2.1262117508	-2.4829986048	 0.163269
C	 1.6592604731	-0.8551991444	-2.9188169018	-0.14598
O	 1.1482512599	 0.0490557272	-2.0265033864	-0.187901
C	 1.7985823738	-3.3241488795	-3.1333122665	 0.23619
C	 2.1108338907	-4.3545553575	-3.6723498279	-0.434768
H	 1.0579910679	 1.8053477434	-0.0847223104	 0.137497
H	-0.4951683008	 1.7909795584	-0.9605786272	 0.137445
H	-0.479600596	 1.7605173393	 0.8274873419	 0.14174
H	 0.3594875624	-2.7960270045	-0.594741264	 0.122915
H	 2.1462247307	-0.4454119097	-3.7857470333	 0.145189
H	 2.3890803027	-5.2592037826	-4.1528624977	 0.188154
27.7428	128.5572	133.8766	176.2204	246.6843	303.207	434.3959	473.7023	537.9151	564.3876	587.7093	627.3377	650.6465	681.4353	692.5021	712.7035	771.962	950.4525	994.9862	1053.6505	1145.3213	1177.1354	1183.2276	1195.1143	1246.6227	1319.5912	1388.8208	1480.7791	1486.095	1501.9025	1585.4035	1665.8792	2236.5804	3034.9984	3103.2977	3153.539	3287.8867	3298.5346	3505.9225
COC1=CC(=CO1)C#C	COc1cc(co1)C#C	
InChI=1S/C7H6O2/c1-3-6-4-7(8-2)9-5-6/h1,4-5H,2H3	InChI=1S/C7H6O2/c1-3-6-4-7(8-2)9-5-6/h1,4-5H,2H3
