16
gdb 124872	3.68673	1.24626	1.23881	5.1231	69.51	-0.3051	-0.0435	0.2616	1066.8782	0.12429	-430.185743	-430.177929	-430.176985	-430.219422	28.432	
C	-0.188274347	 1.4706649207	 0.2451434165	-0.449317
C	 0.0268558978	-0.0111514129	 0.0267728368	 0.350706
C	 1.3588303702	-0.5571619589	-0.4125218024	-0.288562
C	 0.8484171331	-0.8367192738	 0.9795192419	-0.289571
N	-1.1339672412	-0.6754933839	-0.5309607536	 0.101769
N	-2.1125668396	-1.2025403976	 0.193647549	-0.116933
N	-2.9883927565	-1.6189698076	-0.666812102	-0.087477
N	-2.5486572958	-1.3395315623	-1.9112912138	-0.087608
N	-1.3975170009	-0.7487268631	-1.8292372941	-0.117325
H	 0.7177450213	 1.9191090887	 0.6603843756	 0.13204
H	-0.4192308517	 1.9735586006	-0.698731522	 0.147209
H	-1.0106697865	 1.6459460478	 0.9453164795	 0.14638
H	 1.3583228253	-1.3700615173	-1.128126244	 0.145391
H	 2.1594515312	 0.161452836	-0.5437679107	 0.133495
H	 1.2933858459	-0.312617553	 1.8171953001	 0.133554
H	 0.5028364644	-1.8381860334	 1.2040585432	 0.14625
20.0826	131.5886	197.0151	229.7117	296.7261	316.9317	411.9157	510.5711	544.9423	743.9891	766.7071	776.0081	834.8008	891.0812	951.4152	956.1834	969.724	1049.0697	1078.7252	1089.5105	1092.3667	1125.487	1136.199	1170.7808	1188.7423	1231.9504	1257.6508	1343.8146	1387.4338	1407.2768	1419.3712	1467.679	1484.4129	1498.2797	1507.9448	3043.6675	3115.9255	3126.7473	3150.2255	3152.9373	3234.6594	3246.9235
CC1(CC1)N1N=NN=N1	CC1(CC1)n1nnnn1	
InChI=1S/C4H7N5/c1-4(2-3-4)9-7-5-6-8-9/h2-3H2,1H3	InChI=1S/C4H7N5/c1-4(2-3-4)9-7-5-6-8-9/h2-3H2,1H3
