15
gdb 24322	4.04979	1.61617	1.15517	4.8738	82.36	-0.1932	-0.0303	0.1629	983.5834	0.117946	-379.746988	-379.740899	-379.739955	-379.777203	25.213	
N	-0.0153733329	 1.3419431379	 0.0097631319	-0.219315
C	 1.2479484542	 1.8721062343	 0.0006051223	-0.214255
C	 2.1316846228	 0.8005107344	-0.0139177318	 0.246086
C	 3.5425399714	 0.659460947	-0.0283283367	-0.246227
C	 4.0552841691	-0.6091150814	-0.040322768	-0.007003
N	 3.3093415502	-1.7615607415	-0.0395056808	-0.29522
C	 2.0041344502	-1.6561342757	-0.0263084633	-0.077858
C	 1.3344050253	-0.4061235973	-0.0129155849	 0.198389
C	-0.002972338	-0.019719282	 0.002119899	-0.211273
H	-0.856219652	 1.8959727824	 0.0209127081	 0.271066
H	 1.4070924457	 2.9374359918	 0.0050152052	 0.13149
H	 4.1990303873	 1.523077612	-0.0298621491	 0.089848
H	 5.1304760344	-0.7634228634	-0.0515488087	 0.098246
H	 1.4328228241	-2.5842758161	-0.0259581278	 0.099909
H	-0.9165992517	-0.5907334125	 0.0077585848	 0.136115
211.4016	243.2223	396.7416	437.6265	560.1058	594.8027	605.3991	614.9894	634.8589	655.1267	720.518	782.135	798.4696	834.0564	902.6903	912.5894	954.4266	973.6193	1038.7716	1089.6557	1148.2645	1208.817	1235.9512	1262.4937	1318.2277	1378.9276	1389.5842	1424.8336	1485.0804	1497.4038	1548.5967	1573.1855	1659.5739	3124.5797	3163.4799	3188.7378	3270.0896	3273.6013	3659.8209
N1C=C2C=CN=CC2=C1	[nH]1cc2ccncc2c1	
InChI=1S/C7H6N2/c1-2-8-4-7-5-9-3-6(1)7/h1-5,9H	InChI=1S/C7H6N2/c1-2-8-4-7-5-9-3-6(1)7/h1-5,9H
