17
gdb 15868	2.39165	2.2381	1.39798	3.0166	68.45	-0.2657	0.0195	0.2851	930.5686	0.14128	-363.871192	-363.862866	-363.861922	-363.904232	30.01	
C	 0.1758609707	 1.5289793569	-0.2091707397	-0.408007
C	 0.0571607593	 0.0468455107	 0.0625455406	 0.156054
O	 0.852850665	-0.7566432337	-0.8330239398	-0.298477
C	 1.4165362923	-1.530340582	 0.246046891	 0.156055
C	 2.9204693698	-1.6554122067	 0.1613032125	-0.40801
C	 0.7671747776	-0.5815005872	 1.3069027874	-0.267449
C	 1.6720285182	 0.2838769011	 2.0415165023	 0.299834
N	 2.3958991825	 0.9753109682	 2.620746942	-0.338573
H	 1.2119393582	 1.8658579399	-0.1247903417	 0.142815
H	-0.1791129124	 1.7416530074	-1.2220741322	 0.133864
H	-0.4364135904	 2.0993298044	 0.4968823135	 0.127844
H	-0.9955926066	-0.2667656109	 0.0279212745	 0.086307
H	 0.9504605546	-2.5246401729	 0.2905909084	 0.086305
H	 3.4011238148	-0.6741147727	 0.170697962	 0.142813
H	 3.3052584133	-2.2418746541	 1.0019483196	 0.127843
H	 3.1901516284	-2.1674945904	-0.7672766723	 0.133866
H	 0.0966171948	-1.0775257879	 2.0108517919	 0.126915
50.6539	137.9455	166.8202	218.4774	229.2418	326.3377	343.4857	412.1716	434.2248	515.6724	619.8264	731.103	803.4031	833.5088	886.8971	932.6289	977.5325	1009.9527	1082.2745	1125.262	1133.5128	1138.2077	1175.8358	1197.6816	1279.6172	1312.8673	1353.149	1362.0259	1401.1304	1411.4175	1424.6129	1479.4599	1484.4622	1491.0503	1495.3329	2352.1273	3000.2514	3005.6576	3043.466	3043.9225	3098.5516	3115.1249	3115.2678	3130.6688	3131.9617
CC1OC(C)C1C#N	C[C@H]1O[C@@H](C)[C@H]1C#N	
InChI=1S/C6H9NO/c1-4-6(3-7)5(2)8-4/h4-6H,1-2H3	InChI=1S/C6H9NO/c1-4-6(3-7)5(2)8-4/h4-6H,1-2H3/t4-,5+,6+
