22
gdb 100006	2.7749	1.02601	0.94092	4.1522	79.72	-0.2372	0.0341	0.2713	1361.7767	0.191654	-441.50118	-441.490212	-441.489268	-441.537103	39.921	
C	 0.6881015193	 1.2841153678	 0.1082384753	-0.355661
N	-0.0332094655	 0.0189639427	-0.0115893379	-0.085502
C	-0.6738108548	-0.4220257604	 1.1137894289	 0.148148
O	-0.7112926812	 0.1766248684	 2.1726821131	-0.355802
C	 0.0399380744	-0.7444331981	-1.2814282154	 0.241618
C	 1.4635654131	-1.2968592286	-1.4944258048	-0.400175
C	-0.9564959258	-1.9148327227	-1.3176333544	-0.436672
C	-0.3293503522	 0.2275098349	-2.4280038922	-0.085918
O	-0.2764205521	-0.4833091524	-3.6548585255	-0.418518
H	 1.6839261419	 1.2132626242	-0.3358594616	 0.123852
H	 0.1495521956	 2.1102888458	-0.3697659684	 0.125387
H	 0.7789121972	 1.5073937935	 1.1708380329	 0.168153
H	-1.1681499921	-1.3938059177	 0.9825682975	 0.08481
H	 1.71860762	-2.0022557277	-0.6985232279	 0.118691
H	 1.5211471036	-1.809992045	-2.4565750261	 0.139225
H	 2.2143896466	-0.5019283073	-1.4989183525	 0.113765
H	-1.9768087711	-1.587081645	-1.0975822728	 0.122343
H	-0.9469661593	-2.3292813214	-2.3266563422	 0.146802
H	-0.6846096135	-2.7120131564	-0.621506054	 0.123928
H	-1.3365114805	 0.6289671224	-2.2354043385	 0.095709
H	 0.3734090845	 1.0708645667	-2.4429687517	 0.091832
H	-0.4414799281	 0.1365874861	-4.3704225018	 0.293987
39.486	113.9622	137.4406	181.9032	204.5591	218.768	229.9257	303.4656	313.399	341.7067	363.3641	375.1586	383.9234	413.2905	458.0697	469.7341	660.535	786.0304	858.4969	920.2257	959.3655	966.5238	1023.5168	1044.9533	1052.2976	1085.0661	1152.3164	1165.1409	1196.6594	1220.3351	1234.5731	1284.5406	1300.1485	1381.2417	1399.996	1413.3731	1434.2746	1453.3077	1459.67	1483.5515	1492.5984	1500.6905	1505.1732	1513.9753	1522.2235	1530.9735	1771.8146	2981.6752	3027.7134	3037.8047	3040.979	3048.4935	3054.603	3097.3694	3116.8847	3120.3233	3135.3029	3144.2622	3157.7414	3841.2935
CN(C=O)C(C)(C)CO	CN(C=O)C(C)(C)CO	
InChI=1S/C6H13NO2/c1-6(2,4-8)7(3)5-9/h5,8H,4H2,1-3H3	InChI=1S/C6H13NO2/c1-6(2,4-8)7(3)5-9/h5,8H,4H2,1-3H3
