18
gdb 112638	3.2041	1.17744	0.89873	5.3287	79.03	-0.2054	-0.0152	0.1902	1283.6072	0.147458	-439.11931	-439.110166	-439.109222	-439.153643	33.496	
C	 0.0620398405	 1.3958722987	-0.0247714718	-0.242563
O	-0.1218103563	-0.0061078991	 0.0878751604	-0.250795
C	 0.6447101519	-0.6103623026	 1.1077433905	 0.01499
C	 0.1332870533	-2.0384970464	 1.3485051616	-0.349706
C	 1.3674685709	-2.9037449861	 1.2407981433	 0.391097
N	 1.2792173299	-4.2257865298	 1.5241427127	-0.574445
C	 2.4706846324	-2.1950235333	 0.8825206477	-0.321857
C	 2.1440440227	-0.790810852	 0.7267271579	 0.389293
O	 2.8655462545	 0.1202531102	 0.3652202183	-0.374817
H	 1.0938891649	 1.651006524	-0.2815377348	 0.148824
H	-0.6142276381	 1.7360557773	-0.8132079989	 0.116716
H	-0.2048063232	 1.9044191316	 0.9158296706	 0.095934
H	 0.5928109031	-0.0054494788	 2.02787153	 0.078837
H	-0.3597544016	-2.1669117084	 2.3183165324	 0.118353
H	-0.5948688977	-2.2975659154	 0.571538869	 0.137312
H	 0.3746457709	-4.6635051196	 1.5692598806	 0.264328
H	 2.0561665002	-4.8327556927	 1.3211531312	 0.266437
H	 3.4616793216	-2.5967045775	 0.7140266393	 0.092062
41.5228	118.8636	157.247	188.1134	247.0015	291.1968	317.2498	339.8674	402.6391	458.8487	517.7872	559.7417	595.1176	649.9948	713.0091	824.842	858.3282	896.5556	938.2417	1027.7451	1052.7325	1077.6967	1146.8096	1180.6656	1185.2336	1203.194	1238.8069	1252.8638	1293.2589	1308.7928	1374.0481	1419.0618	1468.6006	1475.8229	1479.2451	1520.3275	1634.4866	1678.8784	1785.5668	2966.962	2978.1178	3041.0518	3080.745	3081.5978	3126.0687	3212.8906	3601.9873	3717.0627
COC1CC(N)=CC1=O	CO[C@H]1CC(=CC1=O)N	
InChI=1S/C6H9NO2/c1-9-6-3-4(7)2-5(6)8/h2,6H,3,7H2,1H3	InChI=1S/C6H9NO2/c1-9-6-3-4(7)2-5(6)8/h2,6H,3,7H2,1H3/t6-/m0/s1
