22
gdb 120675	3.98753	0.83811	0.81559	2.9071	84.09	-0.2365	0.0788	0.3154	1522.9978	0.194223	-404.303376	-404.294127	-404.293183	-404.338049	34.93	
O	 0.487008044	 1.0419933534	-0.552824384	-0.423228
C	 0.1564925768	-0.2528494677	-0.0979513208	-0.048435
C	-1.3322354175	-0.3543137542	 0.2322976022	-0.152
N	-2.0915445126	 0.0378552905	-0.9542168532	-0.152842
C	-2.6087494352	-1.0295663857	-1.8191355472	-0.328339
C	-3.5181248785	-0.2041043149	-0.9834866008	 0.39115
C	-4.4378099552	-0.7159286467	 0.1384120077	-0.297751
C	-5.6124527163	 0.0157443041	-0.5774926005	-0.212231
C	-4.5809865041	 0.7988020738	-1.4433539425	-0.296234
H	-0.2354882992	 1.2867877768	-1.1475044254	 0.284905
H	 0.4139002201	-1.0215493444	-0.8472312301	 0.08135
H	 0.7556506834	-0.4529613837	 0.7971319752	 0.101066
H	-1.5800927596	-1.3675383892	 0.5892408985	 0.084263
H	-1.5694645332	 0.3552317488	 1.0337778901	 0.10909
H	-2.5253903292	-0.8555106154	-2.8890403431	 0.115587
H	-2.4373757113	-2.0601938697	-1.508883877	 0.1087
H	-4.5245490814	-1.7967592046	 0.2730668509	 0.103644
H	-4.1977250288	-0.2622873299	 1.1054829569	 0.108298
H	-6.2186442305	-0.6688220749	-1.1752677299	 0.107811
H	-6.2762795122	 0.6088680424	 0.053776252	 0.103437
H	-4.3809727823	 1.8024628073	-1.0560827104	 0.108971
H	-4.7731540873	 0.8686936737	-2.5168151486	 0.10279
50.8214	100.9005	110.4936	161.0826	198.4152	275.3487	361.9647	415.0406	446.6069	481.7592	500.1104	642.6797	700.9051	752.711	795.2636	877.4402	896.8541	900.3105	910.7962	932.443	933.8948	980.905	1037.3177	1055.5658	1091.4465	1114.4369	1116.234	1147.991	1171.1506	1178.3293	1209.4956	1225.7725	1246.7824	1251.1386	1271.0088	1275.0997	1284.2621	1376.2869	1380.5177	1416.5717	1445.8713	1472.7446	1480.4941	1482.5244	1505.8709	1510.729	1516.0712	2954.1064	2969.7146	3049.5838	3055.3564	3057.0761	3068.945	3072.1752	3084.4493	3100.1454	3105.7407	3129.1436	3173.2904	3743.7261
OCCN1CC11CCC1	OCCN1CC21CCC2	
InChI=1S/C7H13NO/c9-5-4-8-6-7(8)2-1-3-7/h9H,1-6H2	InChI=1S/C7H13NO/c9-5-4-8-6-7(8)2-1-3-7/h9H,1-6H2
