21
gdb 84804	2.83577	1.35641	1.07059	1.604	82.82	-0.2371	0.0272	0.2643	1189.7953	0.18316	-387.079671	-387.071076	-387.070132	-387.113034	32.986	
C	-0.0323026028	 1.6172465591	-0.0544797757	-0.384288
C	 0.0140085591	 0.0781868889	-0.0076193348	-0.048362
C	 0.8327180168	-0.4797968113	-1.1511512321	-0.062852
C	 1.9991518031	-0.9793534612	-0.7493813044	-0.074933
C	 2.1724963484	-0.8870683969	 0.7465639796	-0.281582
C	 0.7444598506	-0.5341748936	 1.239032125	-0.018184
C	 0.6746583839	 0.3038087365	 2.4949185473	 0.06927
C	 1.693722864	 0.2719423046	 3.5521606518	-0.189982
O	 1.6097313223	 1.3771796198	 2.6487387958	-0.23071
H	 0.9682486047	 2.0473067598	 0.0413764061	 0.134469
H	-0.45733442	 1.9538155258	-1.0060100906	 0.105651
H	-0.6524921169	 2.0274017158	 0.748637347	 0.112953
H	-1.0206587292	-0.2871825464	-0.0465445117	 0.069319
H	 0.504578235	-0.4028037836	-2.1827087757	 0.087839
H	 2.7675623458	-1.3819459092	-1.4003681222	 0.090299
H	 2.5442480674	-1.8172494235	 1.1911974639	 0.098473
H	 2.88984857	-0.0986059897	 1.0108847187	 0.125278
H	 0.2310603622	-1.4768837714	 1.4691186789	 0.082016
H	-0.3384962299	 0.5700696604	 2.8043226955	 0.088058
H	 1.4122346479	 0.4896193181	 4.5815687006	 0.11238
H	 2.5745236676	-0.357124372	 3.4366874871	 0.114885
79.3771	99.0238	188.618	217.164	230.3764	279.9083	329.0993	421.8317	480.5979	595.7381	662.5414	733.4611	753.0046	776.7671	820.9675	882.4246	901.5325	959.9192	969.9664	977.0561	980.95	993.9879	1064.6525	1082.0224	1098.9658	1109.1785	1129.138	1146.6301	1162.4157	1175.7758	1187.9177	1282.8179	1291.7691	1307.2966	1312.0651	1349.7864	1363.4912	1377.9136	1410.7587	1432.4772	1490.356	1492.1421	1497.0479	1529.6246	1690.1238	3004.1396	3020.4339	3022.6819	3035.8111	3057.8275	3080.8555	3087.946	3099.4406	3120.2824	3172.2396	3175.3625	3202.0331
CC1C=CCC1C1CO1	C[C@H]1C=CC[C@H]1[C@H]1CO1	
InChI=1S/C8H12O/c1-6-3-2-4-7(6)8-5-9-8/h2-3,6-8H,4-5H2,1H3	InChI=1S/C8H12O/c1-6-3-2-4-7(6)8-5-9-8/h2-3,6-8H,4-5H2,1H3/t6-,7+,8+/m0/s1
