18
gdb 81133	3.27656	1.1224	0.99645	2.989	76.19	-0.2682	0.035	0.3032	1212.6135	0.147952	-401.913357	-401.90506	-401.904116	-401.946706	31.53	
O	 0.1334802692	 1.4007028008	-0.1961387339	-0.4484
C	 0.0359629201	 0.016235578	-0.0343153926	 0.140845
C	-0.0048879633	-0.660012302	 1.3692719345	-0.103027
C	-1.4770809536	-0.162884569	 1.5067213868	-0.288413
C	-1.3569101585	-0.6962531425	 0.0455170873	 0.297049
C	-2.423886298	-0.6946555649	-1.0335762795	-0.474068
C	-3.6439823213	-1.3857995464	-0.6195047602	 0.261043
N	-4.5954803613	-1.9375327503	-0.264884268	-0.312067
C	-0.5845618296	-1.9069375388	 0.6406323944	-0.255969
H	-0.3346354527	 1.8430436246	 0.5192381142	 0.286654
H	 0.737630405	-0.4210035745	-0.7503662932	 0.086521
H	 0.7701751706	-0.6483232896	 2.1349003222	 0.084211
H	-2.1231122616	-0.7348477294	 2.1763488454	 0.117561
H	-1.654056294	 0.9086593341	 1.6446389576	 0.081786
H	-2.6748938584	 0.3389852181	-1.3011166418	 0.157866
H	-2.0397335495	-1.1709408728	-1.9435592485	 0.155171
H	 0.0877896465	-2.4437928527	-0.0348372119	 0.097567
H	-1.1710469095	-2.5910879828	 1.2560646971	 0.11567
54.2339	102.5112	196.9618	246.2654	288.3206	347.9692	390.7686	404.9313	507.8722	538.8316	611.1427	690.7805	761.2539	818.286	870.2753	885.984	920.6514	939.9398	962.1744	988.9726	1023.2854	1050.0587	1076.3112	1131.7678	1140.1959	1148.285	1174.811	1206.5075	1230.5382	1238.7011	1259.38	1289.7627	1302.8702	1335.4243	1451.0483	1457.4042	1507.6375	1549.4736	2361.2961	3035.8563	3047.7958	3057.6193	3073.5952	3078.0861	3113.6925	3123.2924	3132.6636	3817.8331
OC1C2CC1(CC#N)C2	O[C@H]1[C@H]2C[C@]1(CC#N)C2	
InChI=1S/C7H9NO/c8-2-1-7-3-5(4-7)6(7)9/h5-6,9H,1,3-4H2	InChI=1S/C7H9NO/c8-2-1-7-3-5(4-7)6(7)9/h5-6,9H,1,3-4H2/t5-,6-,7+/m0/s1
