25
gdb 120445	4.08632	0.67688	0.66969	1.3554	90.07	-0.2507	0.0746	0.3253	1860.2242	0.227044	-389.496691	-389.485986	-389.485042	-389.532538	40.43	
C	 0.0826124604	 1.5989521261	-0.0075809679	-0.379368
C	 0.1489847741	 0.0692529355	-0.0150033498	-0.161853
C	 0.6580380154	-0.5195236251	 1.3063695706	-0.189783
C	 0.7318960977	-2.0412056956	 1.3064740575	 0.048585
C	 1.8132585178	-2.7381361674	 0.4296588069	-0.26798
C	 2.075617979	-3.7374450057	 1.5822345698	 0.422818
C	 1.3652053219	-5.0770040741	 1.4152440296	-0.446342
O	 3.4630191132	-3.9236097631	 1.8025698961	-0.477017
C	 1.3397428363	-2.7553635545	 2.5467756723	-0.312327
H	 1.0711118526	 2.0368883637	 0.1705000158	 0.11362
H	-0.2867986937	 1.988970383	-0.96131401	 0.109505
H	-0.5849695744	 1.9622497104	 0.7818836735	 0.112064
H	-0.8469456777	-0.3399255789	-0.2317810321	 0.091428
H	 0.7982642702	-0.2649211317	-0.8346738515	 0.099988
H	 1.6546729999	-0.1118403424	 1.5278693118	 0.089141
H	 0.0050296624	-0.188256089	 2.1265265382	 0.088983
H	-0.2595839125	-2.4519676105	 1.0814802523	 0.063614
H	 1.5171264529	-3.1527028254	-0.5375258163	 0.091362
H	 2.6892867035	-2.0975486857	 0.2920321697	 0.106174
H	 1.8166070737	-5.6469708336	 0.5969968212	 0.122023
H	 1.4392821986	-5.6734872556	 2.3339054969	 0.102848
H	 0.3007161297	-4.9429199109	 1.1981306749	 0.118677
H	 3.5701988607	-4.565928205	 2.5127528229	 0.270347
H	 2.0693311864	-2.1187261662	 3.0561582263	 0.09871
H	 0.652565862	-3.1799954784	 3.2847263311	 0.084784
57.7027	90.3903	91.9488	156.1894	248.1667	262.1617	265.6883	277.6397	299.7284	336.9503	382.7242	421.4757	447.9205	472.1168	614.7234	745.8004	751.54	828.9926	852.4466	889.0121	899.4391	907.4877	956.5131	975.5194	984.715	1034.6547	1041.7909	1054.6175	1092.4553	1125.0258	1145.2326	1191.0053	1210.8368	1223.5421	1262.1519	1270.9928	1274.6119	1295.2789	1313.671	1331.9633	1370.8654	1381.8472	1398.3621	1408.4006	1411.9393	1466.0254	1480.3557	1487.1076	1491.2146	1493.607	1500.4243	1501.0024	1510.4311	2998.9931	3014.9948	3017.9502	3021.9491	3028.2903	3035.4804	3044.5202	3053.754	3055.6807	3085.0718	3095.0121	3099.8973	3103.4678	3109.2928	3111.5088	3798.39
CCCC1CC(C)(O)C1	CCC[C@H]1C[C@@](C)(O)C1	
InChI=1S/C8H16O/c1-3-4-7-5-8(2,9)6-7/h7,9H,3-6H2,1-2H3	InChI=1S/C8H16O/c1-3-4-7-5-8(2,9)6-7/h7,9H,3-6H2,1-2H3/t7-,8+
