22
gdb 121421	3.22485	0.96825	0.89814	1.4645	79.49	-0.2307	0.0776	0.3084	1395.5269	0.196317	-441.470782	-441.461966	-441.461021	-441.50474	33.739	
O	-0.100051413	 1.4652126529	-0.0732698546	-0.421218
C	 0.0706418925	 0.0698459957	 0.0515326017	-0.056008
C	-1.2803760766	-0.647562104	-0.0271422199	-0.159982
N	-2.0006504377	-0.2430640568	-1.2355127285	-0.089006
C	-1.5352323481	-0.9271749325	-2.4437716593	-0.155943
C	-2.2590229314	-0.3712058641	-3.6678635265	-0.082095
O	-3.6635882295	-0.4915128809	-3.5378702942	-0.241786
C	-4.1234038956	 0.1755747923	-2.3760376735	-0.081144
C	-3.4530128443	-0.3708889245	-1.1178076014	-0.154558
H	-0.800658419	 1.5626004966	-0.7348901268	 0.2738
H	 0.7583502645	-0.3209159092	-0.7177237563	 0.08325
H	 0.5350453499	-0.1294351562	 1.0236950539	 0.104218
H	-1.1463367663	-1.7425237952	 0.0369263067	 0.082767
H	-1.8820595164	-0.3380666581	 0.8341001413	 0.106288
H	-0.4574666996	-0.7765470905	-2.5595117382	 0.108333
H	-1.7169435101	-2.0167652844	-2.3781985924	 0.088517
H	-1.9779040241	 0.6855879416	-3.8092921373	 0.09129
H	-1.9772977068	-0.9295338205	-4.564990159	 0.109669
H	-3.9237251685	 1.2571658559	-2.4539328493	 0.090878
H	-5.2053509066	 0.0224027271	-2.3328258615	 0.109359
H	-3.7592524308	-1.4244607765	-0.9760305618	 0.087625
H	-3.7918369123	 0.1968161715	-0.2443848531	 0.105746
61.4886	84.5335	175.3944	231.2248	257.8331	332.7448	358.5555	415.5555	427.8993	493.4826	529.3837	553.2208	610.3257	769.8569	864.9549	871.982	891.937	920.681	942.9228	1027.6875	1047.7495	1086.6112	1097.3859	1099.3717	1143.3473	1144.7251	1158.4489	1192.9868	1230.9218	1235.0783	1265.0401	1305.865	1326.5075	1338.1036	1360.8686	1374.8297	1384.1378	1401.7972	1420.9688	1426.5972	1448.9336	1478.6168	1484.3378	1486.1622	1496.8371	1505.465	1520.6141	2925.8949	2931.1867	2945.604	2961.9922	2971.1724	2976.9012	3059.874	3066.2907	3073.0463	3078.268	3090.7662	3093.035	3715.1306
OCCN1CCOCC1	OCCN1CCOCC1	
InChI=1S/C6H13NO2/c8-4-1-7-2-5-9-6-3-7/h8H,1-6H2	InChI=1S/C6H13NO2/c8-4-1-7-2-5-9-6-3-7/h8H,1-6H2
