14
gdb 133541	2.20258	1.60692	1.2159	2.1196	60.6	-0.2622	0.033	0.2951	1019.3571	0.095645	-531.013604	-531.005232	-531.004287	-531.046915	31.146	
F	 0.3822052667	 0.1248177957	 0.2003816088	-0.086365
C	-0.037857609	 1.3945925126	 0.0532844731	 0.233593
F	 1.0375488413	 2.1433256668	-0.2206065067	-0.068143
F	-0.8364932578	 1.4306965423	-1.0204889231	-0.068142
C	-0.7536647198	 1.883217099	 1.2950274074	-0.003942
C	-1.560687201	 0.8578613262	 2.0792767691	-0.296552
C	-0.260957838	 1.3521036219	 2.6340033658	-0.296549
C	-1.2304344618	 3.2352073845	 1.2074277595	 0.23007
C	-1.6309377091	 4.3660095842	 1.1388095135	-0.407568
H	-2.4843121431	 1.2134811949	 2.5179962006	 0.139542
H	-1.5936726675	-0.1472303379	 1.6772464336	 0.142553
H	 0.5905707787	 0.6833550223	 2.6094900271	 0.142555
H	-0.2783880205	 2.0523136085	 3.4594879624	 0.139541
H	-1.9825842338	 5.3658898212	 1.0733901413	 0.199408
57.3969	132.1374	183.2896	242.9683	250.5584	361.5812	399.5782	435.9586	522.4032	531.3581	582.9936	592.5793	614.2585	671.8246	737.0734	787.2865	887.5837	916.0527	967.2301	990.8905	1074.4462	1100.465	1154.7003	1189.9002	1192.7106	1213.7072	1315.4859	1364.5593	1460.0423	1492.3155	2244.9229	3155.613	3157.5369	3243.2258	3256.0934	3502.3774
FC(F)(F)C1(CC1)C#C	FC(F)(F)C1(CC1)C#C	
InChI=1S/C6H5F3/c1-2-5(3-4-5)6(7,8)9/h1H,3-4H2	InChI=1S/C6H5F3/c1-2-5(3-4-5)6(7,8)9/h1H,3-4H2
