15
gdb 123990	4.43112	1.37242	1.14297	2.5742	72.29	-0.2501	0.0087	0.2588	1029.68	0.115982	-412.936832	-412.930055	-412.929111	-412.968433	25.507	
C	 0.0851571947	 1.5465339541	-0.0354345708	-0.294448
N	 1.2797757603	 0.680836976	-0.0295168772	-0.35101
C	-0.0353073507	 0.0740616754	 0.0122812759	 0.168444
C	-0.5362847988	-0.8870666244	 1.1535274707	-0.223957
N	-1.0942094639	-1.6809863704	 0.0351665471	 0.056243
N	-1.8534115781	-2.6975637598	-0.422969078	-0.277043
C	-1.8224268328	-2.4192594459	-1.7335895621	 0.020751
N	-1.1248872043	-1.2989747243	-2.1243378879	-0.391812
C	-0.6948769264	-0.8791480275	-0.9482317852	 0.33905
H	-0.0564671433	 2.1324762479	 0.8681988926	 0.133751
H	-0.2076218052	 2.041353822	-0.9573641951	 0.138998
H	 1.6836302313	 0.6006261467	-0.9593892473	 0.253995
H	 0.2529513686	-1.3947680436	 1.7105327306	 0.151803
H	-1.295271167	-0.4790264937	 1.824222723	 0.146124
H	-2.3269258444	-3.0580909126	-2.4435720764	 0.129113
82.6266	147.7014	231.9741	293.9511	447.0596	508.9569	517.3378	665.333	729.2249	761.7701	823.4364	863.2978	885.7175	929.7551	963.0065	989.0526	1021.7391	1056.9457	1083.1361	1128.884	1138.9767	1160.3193	1229.6884	1240.735	1248.4065	1260.1918	1306.901	1365.4092	1442.1949	1476.5065	1506.9253	1518.5354	1578.1611	3077.404	3113.1854	3143.5895	3202.4216	3259.2351	3510.6722
C1NC11CN2N=CN=C12	C1N[C@]21Cn1ncnc21	
InChI=1S/C5H6N4/c1-5(7-1)2-9-4(5)6-3-8-9/h3,7H,1-2H2	InChI=1S/C5H6N4/c1-5(7-1)2-9-4(5)6-3-8-9/h3,7H,1-2H2/t5-/m1/s1
