23
gdb 84122	2.27274	1.35391	1.09559	2.0033	87.51	-0.2399	0.0163	0.2562	1266.9563	0.204349	-388.317748	-388.307739	-388.306795	-388.351846	38.777	
C	 0.0261395873	 1.4952996891	 0.0251689517	-0.492409
C	-0.0061554057	 0.0002770959	-0.0205595557	 0.332784
C	-0.0296610742	-0.7766131574	-1.107945526	-0.221145
C	 0.0338652212	-2.2428361583	-0.770949679	 0.079573
O	 1.3063464065	-2.8020321052	-1.111704831	-0.435834
C	-0.3202982322	-2.2790408682	 0.7603259897	 0.262793
C	-1.8303397496	-2.5415826966	 0.8983512021	-0.420977
C	 0.4678742413	-3.3455702114	 1.5247643727	-0.421802
C	-0.0047070027	-0.8331341513	 1.2430885258	-0.343982
H	 0.9063173046	 1.8542371476	 0.5739808952	 0.126029
H	 0.0466277803	 1.9325276461	-0.9766729395	 0.124998
H	-0.8495679041	 1.8918716615	 0.5544154974	 0.128297
H	-0.0111207369	-0.4190973926	-2.132503449	 0.086687
H	-0.6794298198	-2.8510898067	-1.3387788771	 0.073846
H	 1.9748497327	-2.1484597497	-0.878884734	 0.271116
H	-2.0944239884	-3.5276431924	 0.5008525089	 0.11215
H	-2.1397586963	-2.5103280855	 1.9486181454	 0.108338
H	-2.4130646735	-1.7919638869	 0.3522394665	 0.113661
H	 1.5462054267	-3.1985098154	 1.4238043916	 0.104517
H	 0.2167447429	-3.3175834098	 2.5911420655	 0.102579
H	 0.2404394175	-4.3492176683	 1.1512435171	 0.115077
H	 0.9704898639	-0.7662746706	 1.7469036386	 0.096126
H	-0.7424504216	-0.475925154	 1.9731162431	 0.097577
79.8675	135.8664	186.0174	215.1988	244.7781	276.7945	285.8322	329.7249	335.3278	346.4427	385.5302	421.6031	498.0424	530.867	549.9458	674.0049	804.1205	842.2551	868.3655	895.0923	924.3041	955.1632	972.7053	996.6224	1016.1084	1035.2291	1044.9153	1063.0187	1142.8617	1177.5662	1212.4567	1228.9124	1248.7984	1266.0253	1296.2293	1336.4526	1347.5506	1397.3035	1412.3952	1420.3178	1433.6181	1478.7395	1480.1102	1482.4134	1487.1113	1491.3147	1503.4401	1507.0448	1714.4905	3001.4721	3018.1944	3023.6478	3032.3765	3038.3034	3042.8348	3064.2447	3091.854	3096.7771	3097.7494	3111.9167	3114.6438	3183.2324	3802.4968
CC1=CC(O)C(C)(C)C1	CC1=C[C@@H](O)C(C)(C)C1	
InChI=1S/C8H14O/c1-6-4-7(9)8(2,3)5-6/h4,7,9H,5H2,1-3H3	InChI=1S/C8H14O/c1-6-4-7(9)8(2,3)5-6/h4,7,9H,5H2,1-3H3/t7-/m1/s1
