21
gdb 58512	2.60137	1.3361	1.23433	1.8138	77.35	-0.253	0.0605	0.3135	1153.4281	0.179927	-424.189633	-424.180155	-424.179211	-424.223342	36.439	
C	 0.0798195696	 1.5074083837	-0.1010785057	-0.423033
C	 0.0352696474	-0.0173662022	 0.0774217779	-0.001925
C	 0.7404611025	-0.4463462906	 1.3711770433	-0.399057
C	-1.4036462777	-0.5461878251	 0.0283408358	 0.397642
O	-2.2071537588	-0.0733098715	 1.0956162028	-0.496171
C	-2.1572192975	-0.4814128578	-1.3647621927	-0.328271
C	-2.2814442499	-2.0071090615	-1.3086856125	 0.032999
O	-0.9489003144	-2.5360640939	-1.2221506081	-0.250176
C	-1.5788060829	-2.0809554176	-0.0223305321	-0.011381
H	 1.1144080105	 1.8600969748	-0.1516385155	 0.120096
H	-0.4254393103	 1.8286101703	-1.0182488937	 0.115616
H	-0.3885824865	 2.0250065362	 0.7455073034	 0.105523
H	 0.5521204255	-0.4780957214	-0.7721987121	 0.091985
H	 0.2054839562	-0.0687599733	 2.2479324074	 0.120701
H	 0.7924135996	-1.5365887853	 1.4534335988	 0.118318
H	 1.764674633	-0.0616848096	 1.4018630123	 0.107114
H	-2.2944024828	 0.8816411463	 1.0067560291	 0.281222
H	-3.1159313633	 0.0310263926	-1.2555362	 0.105635
H	-1.6103027094	-0.0883738315	-2.2254859202	 0.103254
H	-3.0400910259	-2.6527194516	-1.7348182795	 0.104826
H	-1.667054875	-2.769999251	 0.8093685813	 0.105083
80.8088	142.838	189.5478	213.0884	238.7618	274.4749	282.2956	315.3674	326.8151	433.6225	441.5217	483.2849	560.8692	663.9074	787.814	833.5101	861.8916	875.4462	908.6206	925.856	948.7029	968.8575	977.8856	1011.7531	1040.254	1047.5787	1087.1944	1133.1522	1155.0398	1189.5858	1220.648	1227.9961	1253.1243	1259.4058	1321.8559	1356.992	1387.8314	1390.3495	1400.1299	1416.4393	1459.6158	1487.3421	1492.6233	1506.9353	1513.1293	3020.2915	3036.4441	3045.9603	3061.2656	3084.528	3101.3703	3104.5535	3112.2254	3124.8298	3183.2667	3198.6862	3810.8453
CC(C)C1(O)CC2OC12	CC(C)[C@@]1(O)C[C@H]2O[C@@H]12	
InChI=1S/C7H12O2/c1-4(2)7(8)3-5-6(7)9-5/h4-6,8H,3H2,1-2H3	InChI=1S/C7H12O2/c1-4(2)7(8)3-5-6(7)9-5/h4-6,8H,3H2,1-2H3/t5-,6-,7+/m1/s1
