20
gdb 50696	2.78889	1.39078	1.08138	1.4695	79.11	-0.2248	-0.0212	0.2036	1154.0496	0.172344	-403.138872	-403.130714	-403.12977	-403.171984	31.248	
O	-0.6507237331	 0.8564784988	-0.6147340058	-0.247103
C	 0.1576002291	 1.024626094	 0.2629259923	 0.150484
C	 1.3652706942	 1.9357730741	 0.1647028439	-0.109835
C	 1.4963561533	 2.6264695924	-1.1966191044	-0.211116
C	 2.5748574522	 3.7092084751	-1.1237393467	-0.21418
C	 2.1759096811	 4.8089133651	-0.1356924541	-0.145155
N	 1.7551828766	 4.3134211138	 1.1899072241	-0.096501
C	 0.338561418	 4.023947682	 1.3937842675	-0.245103
C	 1.3336966373	 2.9179271305	 1.3420904557	-0.016331
H	 0.0493531384	 0.5086291799	 1.2450424486	 0.077188
H	 2.247254126	 1.2945288289	 0.3208698406	 0.097021
H	 1.7330936981	 1.8781107749	-1.9584107781	 0.109054
H	 0.5339041135	 3.0607264713	-1.4896928958	 0.115217
H	 3.5269541032	 3.2586699563	-0.8135227562	 0.100588
H	 2.7455928247	 4.1591407711	-2.1074340506	 0.101188
H	 3.0181913838	 5.4913482203	 0.0235805839	 0.107068
H	 1.3628894088	 5.4065248619	-0.5678158474	 0.10206
H	-0.0820054264	 4.3467771245	 2.343140593	 0.11467
H	-0.3332947781	 4.135079678	 0.5431989901	 0.115964
H	 1.6486856992	 2.4770130569	 2.2866965992	 0.094821
63.6982	103.7342	212.4924	221.652	276.2016	363.0037	388.2425	445.6385	519.5246	590.324	684.7134	724.1843	753.2075	864.4765	868.3598	895.2957	927.8635	952.747	964.5018	1033.0656	1056.8579	1071.0757	1082.0909	1119.678	1124.059	1163.2696	1186.239	1202.9059	1229.8564	1280.5955	1292.8467	1328.1429	1337.1466	1361.1561	1379.7542	1389.362	1406.3203	1434.8881	1487.1983	1493.9531	1501.5521	1520.1968	1824.0963	2863.0263	2984.3847	3017.1785	3021.7236	3048.4586	3057.3313	3076.7254	3086.6498	3091.221	3107.1381	3170.2838
O=CC1CCCN2CC12	O=C[C@H]1CCCN2C[C@@H]12	
InChI=1S/C7H11NO/c9-5-6-2-1-3-8-4-7(6)8/h5-7H,1-4H2	InChI=1S/C7H11NO/c9-5-6-2-1-3-8-4-7(6)8/h5-7H,1-4H2/t6-,7+,8?/m1/s1
