16
gdb 35476	3.9187	1.16893	0.98135	3.9302	73.62	-0.2686	-0.0245	0.2441	1159.2968	0.125917	-400.749521	-400.7421	-400.741156	-400.781753	28.283	
N	 0.1147334314	-1.1868315277	 0.2084716691	-0.317988
C	 0.0629405624	-0.0370352975	 0.1057230183	 0.263335
C	-0.0095825684	 1.4214329384	-0.0176047425	-0.203221
C	-0.8497312204	 2.0215036409	 1.1426066486	-0.234577
C	-0.7229047122	 3.5379811736	 1.2107126287	 0.010863
O	 0.2030187728	 4.0475865971	 2.1744085243	-0.246141
C	 0.5322048974	 4.1683846118	 0.7773384062	 0.012724
C	 1.6163979055	 3.2949364651	 0.2588184048	-0.096594
C	 1.380247947	 2.0365792817	-0.1057574144	-0.044822
H	-0.5290384907	 1.6235653836	-0.966432565	 0.14356
H	-1.8951847754	 1.7253516468	 1.0227553842	 0.123118
H	-0.4955614334	 1.6062914453	 2.0898779522	 0.146993
H	-1.6481785917	 4.10798058	 1.1419495038	 0.102744
H	 0.5168515012	 5.1944278682	 0.4116475783	 0.102109
H	 2.6138750143	 3.7150909653	 0.17140149	 0.111434
H	 2.1719028501	 1.4076332975	-0.4995642466	 0.126462
73.0102	155.0776	198.249	280.463	378.7914	430.5995	481.5967	512.1695	569.9893	606.4886	722.8798	746.845	814.056	828.5931	917.1156	955.5361	974.6351	997.4205	1020.7424	1047.5498	1059.5887	1109.4216	1143.1006	1195.5006	1235.1897	1279.9562	1293.3218	1313.653	1343.8299	1376.6864	1415.213	1460.9714	1479.5683	1713.1294	2360.5457	2997.0509	3065.0979	3109.6494	3115.7398	3126.9875	3171.0407	3194.0591
N#CC1CC2OC2C=C1	N#C[C@H]1C[C@H]2O[C@H]2C=C1	
InChI=1S/C7H7NO/c8-4-5-1-2-6-7(3-5)9-6/h1-2,5-7H,3H2	InChI=1S/C7H7NO/c8-4-5-1-2-6-7(3-5)9-6/h1-2,5-7H,3H2/t5-,6+,7-/m1/s1
