19
gdb 39225	2.46141	2.1959	1.5579	2.1438	77.54	-0.2222	0.0082	0.2303	911.6772	0.162368	-385.853762	-385.847207	-385.846262	-385.884116	28.549	
C	 0.0062251296	 1.5422789327	-0.0254165655	-0.272496
C	 1.5394664692	 1.7212396686	-0.018579851	-0.053169
C	 2.0194617247	 1.4226911849	 1.455829428	-0.208691
C	 0.9757515044	 0.5963999382	 2.2967959332	-0.2736
C	 0.4766800753	-0.4957317042	 1.3681089974	 0.038074
O	-0.864504141	-0.6959230955	 0.8471999815	-0.321593
C	 0.0647314333	 0.0200815476	 0.0593201979	 0.36398
C	 1.0041644262	-0.3441772556	-1.0669122711	-0.185611
C	 1.915737786	 0.6366466807	-1.0570093261	-0.078878
H	-0.521420312	 2.0177915569	 0.8012439998	 0.099833
H	-0.4359046342	 1.8684833047	-0.9702266735	 0.098033
H	 1.8823861647	 2.7119975461	-0.3249602492	 0.067108
H	 2.9705864808	 0.8805260551	 1.4319113098	 0.105001
H	 2.2167149571	 2.3698446221	 1.968145175	 0.101796
H	 1.4525591981	 0.189866632	 3.1936913018	 0.098243
H	 0.1577623026	 1.2348480896	 2.6381339999	 0.120709
H	 1.0443721888	-1.4247429061	 1.3787131481	 0.093698
H	 1.0017147673	-1.2577824323	-1.6457465989	 0.109873
H	 2.810971259	 0.6856326444	-1.6650450872	 0.097689
219.9155	279.0958	354.5694	416.8261	440.3764	481.7863	536.1133	578.4629	589.6464	712.4097	740.0839	775.6079	798.3153	836.5387	873.0093	907.0803	923.209	933.5691	944.1807	979.5774	1015.5205	1032.938	1075.2088	1088.2351	1114.5894	1139.6971	1166.2888	1192.8218	1212.9396	1240.0794	1300.314	1309.691	1316.5521	1330.8877	1353.3824	1359.339	1470.0791	1481.8049	1487.2079	1515.7539	1622.7717	3041.3233	3059.3097	3068.7007	3076.6557	3085.0831	3103.066	3122.5971	3137.0751	3198.8859	3232.0028
C1C2CCC3OC13C=C2	C1[C@H]2CC[C@H]3O[C@@]13C=C2	
InChI=1S/C8H10O/c1-2-7-8(9-7)4-3-6(1)5-8/h3-4,6-7H,1-2,5H2	InChI=1S/C8H10O/c1-2-7-8(9-7)4-3-6(1)5-8/h3-4,6-7H,1-2,5H2/t6-,7+,8-/m0/s1
