23
gdb 101002	2.57117	1.04509	1.00087	2.7524	81.07	-0.243	0.0576	0.3006	1374.6051	0.20375	-425.407976	-425.397481	-425.396536	-425.443643	38.498	
C	-0.1301083345	 1.5987969608	 0.1499291813	-0.381531
C	-0.0227880585	 0.0733135786	 0.0690751896	-0.210816
C	-1.3884197709	-0.6092824457	-0.078005284	 0.083566
O	-2.046900988	-0.2060231238	-1.2789084477	-0.442852
C	-1.350346593	-2.1458040722	 0.0378288995	 0.290398
C	-0.4677023603	-2.8197073042	-1.008252391	-0.49184
C	-1.1774060389	-2.6334584755	 1.5004311513	-0.116896
O	-2.5671087946	-2.9932161414	 1.5975688595	-0.276677
C	-2.7772559278	-2.7299853221	 0.1936598343	-0.117762
H	 0.8589073866	 2.0645445994	 0.1916863682	 0.11014
H	-0.6613204849	 1.9935914832	-0.7202582808	 0.128176
H	-0.6836216546	 1.9066906493	 1.0435946412	 0.117966
H	 0.6120120498	-0.2059524583	-0.7833722646	 0.090013
H	 0.4815247675	-0.3154141486	 0.962499628	 0.101213
H	-2.0459248675	-0.2435258537	 0.7220015284	 0.091679
H	-1.4503871322	-0.3792352419	-2.0152109388	 0.279041
H	 0.5849748991	-2.5391442751	-0.899931505	 0.122071
H	-0.5289174735	-3.9087294551	-0.9207018977	 0.123961
H	-0.7845326196	-2.5609565863	-2.0254860697	 0.110579
H	-0.5158013803	-3.5033347046	 1.6158627922	 0.090832
H	-0.8959947649	-1.8760700018	 2.24355229	 0.09625
H	-3.6028749552	-2.0327661949	 0.016737998	 0.114012
H	-2.9596115941	-3.6542042859	-0.3715157722	 0.088479
59.1239	85.7238	99.567	171.0398	216.2573	221.7139	251.6541	297.7245	311.6328	324.6601	337.4246	451.1807	488.0905	495.3216	720.9319	777.9751	834.4011	880.7738	896.9134	950.7217	976.0659	984.8822	996.9117	1008.0517	1037.6233	1061.5446	1099.7696	1120.3848	1156.176	1164.5049	1181.3623	1195.4013	1259.6449	1295.5211	1306.6442	1333.2353	1335.113	1381.0241	1395.9325	1406.9631	1413.709	1425.039	1480.2654	1493.99	1497.3113	1501.6257	1508.8156	1513.9514	1538.4857	2993.4186	3006.5114	3009.3066	3024.2404	3029.6511	3038.1384	3039.1654	3054.0904	3071.1347	3092.2535	3103.7782	3105.1964	3120.2503	3806.155
CCC(O)C1(C)COC1	CC[C@@H](O)C1(C)COC1	
InChI=1S/C7H14O2/c1-3-6(8)7(2)4-9-5-7/h6,8H,3-5H2,1-2H3	InChI=1S/C7H14O2/c1-3-6(8)7(2)4-9-5-7/h6,8H,3-5H2,1-2H3/t6-/m1/s1
