12
gdb 130481	4.16561	1.71635	1.21552	0.9504	68.81	-0.26	-0.0973	0.1627	899.993	0.081356	-431.67729	-431.671683	-431.670739	-431.707298	21.963	
O	-0.0072688128	 1.2797033289	 0.0091795671	-0.13777
C	 1.2440534505	 1.7426095155	-0.0004678194	-0.00827
C	 2.1127205051	 0.6761611021	-0.0147584742	 0.166398
N	 3.4702135959	 0.5714064073	-0.0285428937	-0.319217
C	 3.8989643576	-0.6618826018	-0.0394554525	 0.052678
N	 3.1578009783	-1.8287050318	-0.0386145059	-0.247618
C	 1.8568971748	-1.7390012778	-0.0254596697	-0.034838
C	 1.2371726691	-0.454425545	-0.012412466	 0.304454
N	-0.0401102883	-0.1078616068	 0.0018952427	-0.231824
H	 1.3625302963	 2.8138717095	 0.0042406486	 0.177327
H	 4.9744490834	-0.8139487429	-0.0507486987	 0.131058
H	 1.26954494	-2.6546796871	-0.0247542882	 0.147621
220.0261	237.9598	430.4109	456.8991	561.1671	594.4711	629.2869	642.2029	776.7318	783.702	848.7933	908.0607	923.6942	946.0871	947.2393	1006.5339	1086.4027	1148.1746	1257.6638	1301.4065	1342.7675	1402.0119	1431.8058	1445.7012	1534.6816	1575.4197	1649.3681	3159.5294	3181.75	3281.3029
O1C=C2N=CN=CC2=N1	o1cc2ncncc2n1	
InChI=1S/C5H3N3O/c1-4-5(2-9-8-4)7-3-6-1/h1-3H	InChI=1S/C5H3N3O/c1-4-5(2-9-8-4)7-3-6-1/h1-3H
