21
gdb 89390	2.63264	1.39601	1.13815	3.1659	82.66	-0.2308	-0.0086	0.2222	1181.0732	0.18249	-387.124534	-387.11561	-387.114666	-387.157915	34.466	
C	-0.5936040761	 1.3627785471	 0.1291484232	-0.403962
C	 0.0357520622	-0.0276881049	-0.0391193515	-0.090179
C	 0.8542221746	-0.2581195578	-1.3345300524	-0.307969
C	 2.3173078919	-0.4850141632	-0.9240327722	 0.346231
C	 3.1707383163	-1.3692166763	-1.8008045446	-0.481312
C	 2.9357157682	 0.6420245788	-0.1632764553	-0.32971
C	 2.3701619134	-0.5594986331	 0.5956942995	-0.188021
C	 0.9889959799	-0.3742327009	 1.1257337524	 0.409525
O	 0.6384315774	-0.5141610268	 2.2727842718	-0.345001
H	 0.1500634548	 2.1614595837	 0.0383787622	 0.118637
H	-1.3612451056	 1.5366684197	-0.6312224989	 0.11689
H	-1.0591758815	 1.4447745259	 1.1152050353	 0.13969
H	-0.7740688478	-0.7628357411	 0.025407674	 0.106544
H	 0.4892454482	-1.1467386958	-1.8600910415	 0.102776
H	 0.7654242452	 0.5805890781	-2.0346198753	 0.101618
H	 3.2732855207	-0.9418176566	-2.805282327	 0.122051
H	 4.1773633918	-1.489063986	-1.3880651539	 0.118221
H	 2.728930172	-2.3663277454	-1.9076078251	 0.120523
H	 4.0180325984	 0.7180869556	-0.1603442352	 0.120941
H	 2.4257971834	 1.5970451666	-0.0926000202	 0.121287
H	 3.0572308027	-1.1900888876	 1.1468526547	 0.10122
70.7701	132.2496	218.7438	219.4474	227.8245	290.8923	329.6354	366.1163	391.8094	478.2522	531.8315	611.8509	661.8044	715.9842	778.6391	851.3141	878.4821	907.4296	926.6461	933.6369	963.0946	1020.6656	1045.6601	1060.0473	1073.4115	1086.3158	1123.3678	1142.0101	1187.5795	1218.1719	1249.6666	1265.0858	1302.7141	1325.7692	1333.9666	1397.0658	1408.6101	1422.9445	1485.2119	1487.6052	1496.283	1498.6749	1501.6245	1509.5367	1823.5294	3023.6542	3032.581	3037.0477	3044.1759	3074.1673	3084.7743	3100.651	3102.5163	3118.7876	3129.3668	3190.5452	3213.4568
CC1CC2(C)CC2C1=O	C[C@H]1C[C@@]2(C)C[C@H]2C1=O	
InChI=1S/C8H12O/c1-5-3-8(2)4-6(8)7(5)9/h5-6H,3-4H2,1-2H3	InChI=1S/C8H12O/c1-5-3-8(2)4-6(8)7(5)9/h5-6H,3-4H2,1-2H3/t5-,6-,8-/m0/s1
