21
gdb 93712	2.52985	1.19367	1.1154	4.7899	82.51	-0.2474	0.0363	0.2837	1251.9251	0.183266	-383.299296	-383.289899	-383.288955	-383.333733	35.471	
C	-0.0587618434	 1.5682441659	 0.0506251275	-0.417382
C	 0.077158259	 0.0571035176	-0.062292049	 0.060641
C	 0.9663112582	-0.4407984356	-1.2227744725	-0.210791
C	 1.4027793912	-1.8526805826	-0.7802738898	-0.276253
C	 1.1298510428	-1.8814477122	 0.7758333591	 0.131868
C	 2.3582409253	-2.2914131582	 1.5997297058	-0.454565
N	 0.6680527082	-0.5319883332	 1.1507155674	-0.310916
C	 0.0310625005	-2.832678992	 1.055865723	 0.307573
N	-0.8168668323	-3.5924771736	 1.2553955817	-0.356135
H	 0.9242090084	 2.0423775281	 0.1641470017	 0.109716
H	-0.5249026627	 1.9826801563	-0.8479816694	 0.124284
H	-0.6725983186	 1.8416062733	 0.9131423985	 0.133397
H	-0.9237451785	-0.382665037	-0.1737085884	 0.099152
H	 0.4502725773	-0.441858479	-2.1868211087	 0.106654
H	 1.8365555217	 0.2199655889	-1.3173740664	 0.094643
H	 0.8317186001	-2.6332076696	-1.2872164608	 0.12838
H	 2.4603137767	-2.0422896914	-0.9798997138	 0.109449
H	 3.1948144776	-1.6249704436	 1.3645806045	 0.118653
H	 2.1438381858	-2.2278275338	 2.6695859244	 0.146003
H	 2.6584681164	-3.3155517393	 1.366291926	 0.14259
H	 1.4815306961	 0.015601391	 1.4220915191	 0.213038
39.3239	109.4161	183.4919	201.3452	240.4821	251.9422	294.1454	355.3316	394.1118	436.0728	508.7941	555.7485	613.7118	616.9764	765.5017	776.6154	806.5896	871.0029	896.4184	936.3807	945.4977	985.3	1002.7642	1056.9278	1112.9781	1129.278	1162.6611	1165.3777	1190.5669	1246.7524	1275.7829	1309.0796	1318.584	1354.0187	1377.4985	1407.5668	1411.7591	1463.9478	1486.187	1489.9418	1494.1847	1498.6226	1500.1441	1505.0516	2352.1975	3008.4435	3027.4766	3035.2172	3040.7975	3069.9649	3090.5159	3099.1717	3115.9358	3119.2368	3121.2071	3133.8975	3486.5207
CC1CCC(C)(N1)C#N	C[C@H]1CC[C@@](C)(N1)C#N	
InChI=1S/C7H12N2/c1-6-3-4-7(2,5-8)9-6/h6,9H,3-4H2,1-2H3	InChI=1S/C7H12N2/c1-6-3-4-7(2,5-8)9-6/h6,9H,3-4H2,1-2H3/t6-,7+/m0/s1
