17
gdb 36197	3.48199	1.19986	1.06177	1.3968	73.38	-0.2497	0.0359	0.2856	1154.0192	0.134312	-421.742814	-421.734539	-421.733595	-421.776188	30.89	
C	 0.0618006825	-1.2274933203	 0.0874656482	-0.44449
C	-0.0103247967	-0.0289091737	 0.0494607353	 0.306296
C	-0.0666002905	 1.4290566324	 0.0190390746	-0.445819
C	 1.3140886518	 2.0524886876	-0.0692261967	 0.408323
C	 2.3246351229	 1.8791493335	 1.0804472794	-0.119153
O	 2.6574425804	 3.2938008164	 1.0411695761	-0.292749
C	 1.7036809829	 3.5480878191	-0.0006350657	-0.004942
C	 2.2685375113	 3.3292178764	-1.4112060957	-0.100382
O	 1.9297318628	 1.9172468686	-1.3654724519	-0.325218
H	 0.1182370494	-2.2876596734	 0.1108680421	 0.200775
H	-0.6633417265	 1.7666910606	-0.8363101445	 0.140532
H	-0.5634530967	 1.7998181395	 0.9248041245	 0.138163
H	 1.8923439807	 1.6000692297	 2.0492116041	 0.107107
H	 3.1768795331	 1.2338954865	 0.8478596317	 0.120081
H	 1.0566960093	 4.4035205427	 0.2037819163	 0.088848
H	 1.7261816475	 3.8393049038	-2.2172440675	 0.10568
H	 3.3444569859	 3.5050926406	-1.5099966401	 0.116949
55.3431	107.4096	140.4951	249.8882	312.6367	348.7882	378.6499	411.381	454.3347	626.2675	648.4011	704.0596	715.4119	838.8818	877.0004	914.7751	918.1358	952.5228	988.2429	995.0719	1030.6212	1070.6362	1100.4886	1109.1986	1143.3196	1162.8193	1184.3807	1260.0818	1266.1568	1313.4103	1334.4784	1342.8039	1383.4112	1454.9204	1501.9161	1504.3765	2241.6747	3019.6766	3022.9899	3027.4024	3066.1271	3084.4674	3092.9465	3094.1052	3505.9389
C#CCC12COC1CO2	C#CC[C@]12CO[C@H]1CO2	
InChI=1S/C7H8O2/c1-2-3-7-5-8-6(7)4-9-7/h1,6H,3-5H2	InChI=1S/C7H8O2/c1-2-3-7-5-8-6(7)4-9-7/h1,6H,3-5H2/t6-,7-/m0/s1
