19
gdb 86781	3.65808	0.93981	0.81033	3.9579	76.49	-0.2329	0.0257	0.2586	1401.5311	0.158121	-419.187486	-419.177932	-419.176988	-419.22225	34.52	
C	-0.1864921454	 1.5883306842	-0.1667084798	-0.39978
C	-0.0351634574	 0.0723379562	-0.0565597279	 0.007515
C	 0.7813071348	-0.5728970306	-1.2114515722	 0.107207
O	 0.8811441954	 0.2317864144	-2.3569564333	-0.422047
C	 1.9790587981	-0.6175372509	-0.2252403139	-0.217796
N	 1.0093701736	-0.4453627473	 0.8713593592	-0.082798
C	 1.3792823382	 0.3001194509	 2.053500884	-0.297938
C	 2.3501456596	-0.450391333	 2.8612299447	 0.281719
N	 3.1290942375	-1.0291429783	 3.4876294112	-0.305506
H	 0.7655947645	 2.0868462213	-0.3668408131	 0.127714
H	-0.8594162281	 1.8278821762	-0.994322106	 0.135235
H	-0.6170421064	 2.0062690548	 0.7490283355	 0.112349
H	-1.0149729285	-0.3809494851	 0.1346361269	 0.081674
H	 0.4145306289	-1.5776583283	-1.4514450933	 0.086029
H	 1.3561545482	-0.2574122844	-3.0353765505	 0.29179
H	 2.5816114728	-1.5290375562	-0.1647394418	 0.114595
H	 2.6423892151	 0.2485037563	-0.3798314392	 0.096103
H	 1.8181065703	 1.2936469101	 1.8453699334	 0.129323
H	 0.4853281686	 0.4692397296	 2.6657775962	 0.154612
57.4756	95.2395	122.3985	221.1327	226.8341	230.2854	253.7863	311.5061	388.1183	418.707	452.1089	468.4643	573.5826	694.089	792.7828	823.2637	913.8122	932.8611	972.9479	987.9963	1039.3433	1072.0191	1107.3823	1125.9932	1144.0485	1177.1665	1219.536	1239.3037	1255.7777	1294.6791	1313.1966	1325.9521	1376.0964	1382.7143	1405.1439	1436.829	1472.4727	1490.5304	1493.7929	1516.8181	2365.6878	2931.9504	2978.4795	3024.3808	3038.0583	3043.857	3055.4185	3075.4819	3113.0201	3125.745	3828.8913
CC1C(O)CN1CC#N	C[C@H]1[C@@H](O)CN1CC#N	
InChI=1S/C6H10N2O/c1-5-6(9)4-8(5)3-2-7/h5-6,9H,3-4H2,1H3	InChI=1S/C6H10N2O/c1-5-6(9)4-8(5)3-2-7/h5-6,9H,3-4H2,1H3/t5-,6-/m0/s1
