22
gdb 100318	2.03945	1.3562	1.03349	2.5222	77.61	-0.2357	0.0553	0.291	1276.893	0.193193	-441.453574	-441.443286	-441.442342	-441.488589	38.513	
C	 1.4871279385	-1.6428437845	-0.998670652	-0.401001
C	 0.4550175539	-0.8521771099	-0.1863634175	-0.200681
C	 0.719966343	-0.721345244	 1.3305394756	 0.322507
O	-0.255424499	 0.160870182	 1.8871066529	-0.482022
C	 0.5953394645	-2.0697638082	 2.0597724787	-0.120301
O	-0.7689849064	-2.4749740228	 1.9491956503	-0.436986
C	 2.090207454	-0.1246977832	 1.625171453	-0.009472
C	 2.3008849341	 1.3407965941	 1.5935637674	-0.248599
N	 2.3130988484	 0.6107781832	 2.8781132931	-0.338468
H	 1.5818298578	-2.6770551618	-0.6517732961	 0.116561
H	 1.1872533595	-1.6824507949	-2.050363407	 0.116983
H	 2.4792115574	-1.1829299218	-0.9599166171	 0.122489
H	 0.3797232246	 0.1674942537	-0.5779171025	 0.104448
H	-0.5325573819	-1.3108095972	-0.3082036681	 0.106003
H	-1.0422607124	-0.3821288921	 2.0267150098	 0.288458
H	 1.2682397053	-2.8177454729	 1.6188974446	 0.097586
H	 0.8792150213	-1.9281515295	 3.1108684896	 0.106461
H	-0.9380580241	-3.1695814804	 2.5911761662	 0.296997
H	 2.9196108759	-0.770817581	 1.3472973349	 0.086217
H	 3.2602886408	 1.744646026	 1.2827809186	 0.110171
H	 1.4405530289	 1.9657781152	 1.375974664	 0.126344
H	 1.399028226	 0.7472673601	 3.3080849316	 0.236305
69.4826	96.2348	143.3501	178.4154	223.7578	248.1097	254.9114	293.8909	303.4781	357.2612	413.0607	455.2743	469.0138	518.2407	618.6035	727.25	778.9994	853.3009	872.2758	925.9451	962.5934	972.1278	993.3006	1017.4572	1055.501	1068.5061	1106.4152	1135.8797	1151.6623	1169.4483	1181.3531	1214.9739	1257.4596	1276.201	1287.1226	1293.5558	1323.8749	1350.5866	1380.5845	1412.0635	1436.2137	1459.152	1484.7771	1501.235	1504.651	1507.1296	1518.4729	3004.5685	3039.7929	3043.0449	3046.4339	3080.1397	3103.5602	3112.5254	3115.6917	3134.5626	3206.6732	3479.4292	3766.8244	3845.6614
CCC(O)(CO)C1CN1	CC[C@@](O)(CO)[C@H]1CN1	
InChI=1S/C6H13NO2/c1-2-6(9,4-8)5-3-7-5/h5,7-9H,2-4H2,1H3	InChI=1S/C6H13NO2/c1-2-6(9,4-8)5-3-7-5/h5,7-9H,2-4H2,1H3/t5-,6-/m1/s1
