20
gdb 89263	2.50066	1.82549	1.35069	1.4887	78.55	-0.2001	0.0639	0.2641	1030.4691	0.170019	-403.072119	-403.063822	-403.062878	-403.104402	32.554	
C	-0.3266686071	 1.4742784174	-0.0545098181	-0.329693
N	 0.1339074167	 0.1039420646	 0.0064311581	-0.055529
C	 1.2241501906	-0.3744812187	-0.8756875009	-0.232257
C	 1.8549374631	-1.1282394618	 0.3319886281	 0.307962
C	 2.0516378524	-2.6239608526	 0.2789303468	-0.502924
C	 2.9221847681	-0.3061773085	 1.1083913966	-0.039352
O	 2.6358312877	 1.0849170658	 0.9496623598	-0.233124
C	 1.89483908	 0.3561407931	 1.9348798121	 0.003914
C	 0.7608367848	-0.4416263215	 1.2101288892	-0.091599
H	 0.4751346425	 2.2165423698	 0.0855292442	 0.116191
H	-0.8021148567	 1.6588526233	-1.0243225956	 0.116378
H	-1.0864003795	 1.6351110026	 0.7187990262	 0.113128
H	 0.8638200853	-1.0183957224	-1.6881911539	 0.089726
H	 1.8596598289	 0.4157886291	-1.2923649865	 0.101888
H	 2.8614867073	-2.8908801255	-0.4109935913	 0.120468
H	 2.3110780044	-3.0277319733	 1.2644349036	 0.117556
H	 1.1416517531	-3.1281363653	-0.0611925211	 0.128516
H	 3.950949832	-0.5758758887	 1.3247883458	 0.099239
H	 1.9310656866	 0.732573412	 2.9520574978	 0.102593
H	 0.1065302398	-0.9971690293	 1.8909818991	 0.066921
137.8617	188.9493	216.0474	235.798	240.3482	270.6497	315.7515	380.3538	501.6834	547.9373	623.7021	701.1918	795.6793	805.805	840.5084	857.1032	884.9028	921.7638	962.0644	970.7395	995.2367	1016.7957	1048.3792	1118.0908	1127.0359	1145.6836	1165.9	1201.9514	1217.0848	1241.1499	1247.3604	1269.9028	1286.3676	1310.1267	1346.8583	1378.0506	1413.6322	1446.9336	1479.3948	1492.9196	1493.4357	1506.6302	1514.0307	2979.2533	3006.9719	3021.7855	3044.3453	3053.5816	3056.6862	3081.7843	3087.8194	3100.4248	3159.7237	3175.3322
CN1CC2(C)C3OC3C12	CN1C[C@@]2(C)[C@H]3O[C@H]3[C@@H]12	
InChI=1S/C7H11NO/c1-7-3-8(2)5(7)4-6(7)9-4/h4-6H,3H2,1-2H3	InChI=1S/C7H11NO/c1-7-3-8(2)5(7)4-6(7)9-4/h4-6H,3H2,1-2H3/t4-,5+,6-,7+/m0/s1
