15
gdb 26830	3.50985	1.12256	0.85508	5.0836	78.27	-0.2151	-0.0557	0.1593	1275.023	0.112482	-454.003989	-453.995516	-453.994572	-454.037359	30.456	
C	-0.0225213143	 1.528024164	 0.1405026253	-0.515663
C	 0.0143901403	 0.0469398977	-0.002628152	 0.224989
C	 0.0524287492	-0.7723554545	-1.1256250696	 0.291473
O	 0.0638268847	-0.3349040321	-2.4014907628	-0.436621
N	 0.0774032336	-2.0790614938	-0.8044662526	-0.362432
C	 0.055647889	-2.1157487136	 0.5273616314	 0.242523
N	 0.0175656855	-0.8446378001	 1.0380422743	-0.332315
C	 0.0677113312	-3.2761909208	 1.4055109342	 0.085121
O	 0.1000898907	-4.4323929742	 1.0543768697	-0.265607
H	 0.8444558027	 1.9122738075	 0.691378129	 0.137671
H	-0.0156876277	 1.9821751895	-0.852285907	 0.163149
H	-0.9251450157	 1.8711906202	 0.6603834609	 0.137694
H	 0.0916948222	-1.1210277063	-2.9613637463	 0.308265
H	-0.0044608415	-0.6057063294	 2.0169887195	 0.271526
H	 0.04263113	-2.997385394	 2.487520576	 0.050226
91.4478	110.7812	169.3498	228.7837	244.6898	249.1314	382.5803	402.7888	431.6917	514.8286	558.612	645.8471	684.6939	729.6808	736.988	847.9308	1002.5767	1006.5029	1043.6208	1060.9214	1163.8064	1192.9514	1281.9343	1341.3311	1404.4988	1419.387	1468.7069	1483.9212	1486.3061	1495.6271	1543.7584	1654.5933	1797.1095	2826.7384	3022.4437	3069.5527	3135.0104	3644.2051	3798.6961
CC1=C(O)N=C(N1)C=O	Cc1c(O)nc([nH]1)C=O	
InChI=1S/C5H6N2O2/c1-3-5(9)7-4(2-8)6-3/h2,9H,1H3,(H,6,7)	InChI=1S/C5H6N2O2/c1-3-5(9)7-4(2-8)6-3/h2,9H,1H3,(H,6,7)
