23
gdb 91735	2.94402	1.33088	1.25661	1.2955	83.92	-0.2572	0.0793	0.3365	1146.4332	0.208653	-388.317216	-388.308948	-388.308003	-388.349578	33.901	
C	-0.3221953714	 1.5312966425	 0.002642459	-0.421149
C	 0.025298285	 0.0430620639	 0.0076120744	 0.067119
C	 0.789405194	-0.4553658387	-1.2648530926	-0.245685
C	 1.9535169729	-1.296193972	-0.6901929753	-0.000887
C	 1.344046112	-1.8512927711	 0.6159802916	-0.228516
C	 0.9430367132	-0.4605477046	 1.1533617135	-0.014641
C	 2.3024750107	 0.2777395263	 1.1168168402	-0.254206
C	 3.0122476219	-0.3246589215	-0.1392457215	 0.14526
O	 4.1739621598	-1.0782056645	 0.1899043762	-0.451497
H	 0.5630283348	 2.1612303261	-0.1358492655	 0.112935
H	-1.0132990254	 1.7630407955	-0.8151024912	 0.112598
H	-0.8051537725	 1.8339450103	 0.9387010478	 0.109269
H	-0.9161913472	-0.5138932678	 0.0887625441	 0.0669
H	 0.14418218	-1.0615318093	-1.9070498763	 0.094695
H	 1.1542376977	 0.3792400056	-1.8746941648	 0.089844
H	 2.3797895831	-2.0205581302	-1.385512026	 0.063467
H	 0.4875755704	-2.5120704434	 0.4502486205	 0.084291
H	 2.0827010623	-2.3659084778	 1.2351359778	 0.103047
H	 0.4602626981	-0.4391470605	 2.1333436126	 0.050782
H	 2.2052371514	 1.3653930294	 1.0734706459	 0.093485
H	 2.8913800503	 0.0336583882	 2.0072125681	 0.091574
H	 3.2657424988	 0.4494460981	-0.8786131167	 0.054136
H	 4.7806653	-0.4969795145	 0.6592174581	 0.277179
93.2003	190.5891	244.6253	265.3549	277.7331	343.4075	369.2401	442.8572	458.6597	485.4959	607.4133	717.7903	769.602	806.3448	826.037	854.5136	901.1041	926.3587	939.7624	942.0482	958.864	986.672	1002.8521	1025.1879	1046.1661	1078.6396	1109.6277	1139.0902	1147.9716	1159.4496	1182.3394	1203.9683	1228.938	1270.8084	1276.1392	1287.6463	1313.2364	1320.3819	1336.0084	1343.491	1365.1103	1381.0893	1411.0655	1424.1146	1477.1994	1489.9111	1496.9402	1501.6106	1510.3339	2983.1863	3017.5733	3025.2489	3035.2736	3048.2109	3055.623	3081.6642	3083.7523	3090.2955	3092.0903	3101.6649	3108.0156	3113.1632	3815.4793
CC1CC2CC1CC2O	C[C@H]1C[C@@H]2C[C@H]1C[C@H]2O	
InChI=1S/C8H14O/c1-5-2-7-3-6(5)4-8(7)9/h5-9H,2-4H2,1H3	InChI=1S/C8H14O/c1-5-2-7-3-6(5)4-8(7)9/h5-9H,2-4H2,1H3/t5-,6-,7+,8+/m0/s1
