14
gdb 13468	3.2861	1.82748	1.31834	3.1469	58.3	-0.2661	-0.0375	0.2286	902.9264	0.105766	-419.721632	-419.713951	-419.713007	-419.754372	26.695	
C	-0.4023134527	 1.416281669	-0.0737025104	-0.487916
C	 0.0739826283	-0.0050583411	 0.1163653289	 0.372966
O	 0.36593053	-0.4793995488	 1.187482687	-0.284911
C	 0.1319865142	-0.8414727781	-1.160562963	-0.297606
C	 0.3728128431	-2.3464586979	-1.0212367672	-0.099701
O	-0.978613459	-2.6175141999	-1.5419691099	-0.231126
C	-1.2495472779	-1.2903589065	-1.6838516328	 0.458209
O	-2.2457101076	-0.76836293	-2.0676046407	-0.317588
H	 0.3257645304	 1.9773686398	-0.6713938799	 0.144502
H	-1.3438362333	 1.4179509611	-0.6344922189	 0.173232
H	-0.5304544594	 1.9012497212	 0.894247819	 0.149257
H	 0.7098746769	-0.3262874719	-1.9322373599	 0.133367
H	 1.1275749676	-2.7855070578	-1.6741710938	 0.131115
H	 0.4710836292	-2.6965474892	 0.0059020915	 0.1562
63.6326	132.8295	140.9929	149.941	277.2559	372.0932	459.2967	538.7501	590.3072	661.9398	746.0644	796.8612	910.156	942.296	955.6685	1013.2514	1053.7337	1097.118	1122.5196	1160.5256	1163.334	1184.7667	1320.8632	1343.1504	1388.3845	1464.8793	1473.0003	1512.9067	1817.182	1929.3671	3035.3404	3089.7172	3095.4283	3098.566	3157.9866	3166.0037
CC(=O)C1COC1=O	CC(=O)[C@H]1COC1=O	
InChI=1S/C5H6O3/c1-3(6)4-2-8-5(4)7/h4H,2H2,1H3	InChI=1S/C5H6O3/c1-3(6)4-2-8-5(4)7/h4H,2H2,1H3/t4-/m1/s1
