20
gdb 68447	2.83114	1.69559	1.29438	2.2207	79.	-0.2397	0.034	0.2736	1032.2895	0.172782	-403.153256	-403.145535	-403.144591	-403.184883	31.296	
C	-0.0312232779	 1.5628469273	 0.2061533666	-0.465461
C	 0.0238221686	 0.0617900272	-0.046967173	 0.284874
C	 1.1842333393	-0.4748405233	-0.9397099396	-0.282774
C	 1.3215521135	-1.6673517907	 0.0369109642	 0.122368
C	 0.5626905563	-0.8421894502	 1.1036647991	-0.28277
O	 0.6402799726	-2.8475138268	-0.382478957	-0.23454
C	-0.6618406419	-2.7903067632	-0.7683167854	 0.120086
N	-1.5062437428	-1.8585838892	-0.8576536104	-0.270581
C	-1.3311914494	-0.4535242867	-0.5517669481	-0.18439
H	 0.9330513856	 1.9363548274	 0.5665758376	 0.109916
H	-0.2804011363	 2.1121175799	-0.7091622386	 0.117456
H	-0.7877975179	 1.8121770806	 0.9591612687	 0.117456
H	 0.9643195561	-0.7131985269	-1.9834785904	 0.111376
H	 2.0677960228	 0.1684947514	-0.8974626489	 0.100641
H	 2.3274906825	-2.010625525	 0.281179148	 0.087637
H	 1.2611934997	-0.3082229283	 1.7542964448	 0.100641
H	-0.1623734846	-1.3791096739	 1.7206162748	 0.111374
H	-0.9646403827	-3.8013592851	-1.0421477439	 0.118535
H	-2.1027056746	-0.1933846318	 0.1877017788	 0.109078
H	-1.601187159	 0.1030907474	-1.4611629374	 0.109077
153.1497	210.7538	252.0847	256.7391	346.8512	367.6049	390.8525	410.9608	514.1792	518.7493	627.1806	783.0718	811.552	832.228	866.7776	874.5409	926.5271	938.6956	961.9224	973.8727	993.6687	1019.7966	1032.3002	1090.6733	1133.0367	1154.3088	1201.1939	1220.0779	1221.7065	1266.8982	1280.33	1296.1112	1312.137	1381.3956	1394.636	1414.4405	1441.5529	1460.0152	1467.1075	1488.1256	1496.8183	1497.3845	1761.6159	2994.9284	3019.8161	3023.0535	3053.8015	3059.096	3088.7125	3093.5872	3102.2785	3113.505	3115.4746	3134.5415
CC12CC(C1)OC=NC2	C[C@@]12C[C@@H](C1)OC=NC2	
InChI=1S/C7H11NO/c1-7-2-6(3-7)9-5-8-4-7/h5-6H,2-4H2,1H3	InChI=1S/C7H11NO/c1-7-2-6(3-7)9-5-8-4-7/h5-6H,2-4H2,1H3/t6-,7+
