22
gdb 100654	2.43988	1.14635	1.00333	3.81	82.78	-0.2677	0.0387	0.3064	1328.4046	0.190954	-404.365541	-404.354395	-404.353451	-404.401467	40.137	
C	 0.0475282483	 1.3795727954	 0.1003985454	-0.240914
O	-0.059673	-0.0180746763	-0.0570405771	-0.256772
C	 0.6565465335	-0.554652373	-1.1577759919	 0.139235
C	 2.1623105118	-0.6102648395	-0.8892607348	-0.431678
C	 0.0031523734	-1.9454960081	-1.4457154021	 0.074134
C	 0.137161212	-2.89893282	-0.2367337352	-0.413266
C	-1.488475764	-1.7497455081	-1.8020176489	-0.414078
C	 0.6808542571	-2.5378017749	-2.6095620382	 0.265848
N	 1.2066290485	-3.0023853406	-3.5285902241	-0.353522
H	 1.0627208423	 1.6954794192	 0.3773768555	 0.114354
H	-0.2442692925	 1.9132485493	-0.8169836832	 0.109679
H	-0.635157664	 1.6623754238	 0.9052185465	 0.131948
H	 0.4781333346	 0.0728403669	-2.0467252441	 0.078359
H	 2.6849440347	-1.1063036405	-1.7112329052	 0.148974
H	 2.573197347	 0.3986164284	-0.7971241684	 0.121274
H	 2.3730220234	-1.1467538514	 0.0396584287	 0.129344
H	-0.2969881942	-2.4204580926	 0.6432454299	 0.142881
H	-0.394472504	-3.8336014726	-0.4320571746	 0.128512
H	 1.1805758613	-3.1429823794	-0.0262605129	 0.131438
H	-1.6017872036	-1.1011447093	-2.6754459805	 0.126157
H	-1.9594671752	-2.7098145289	-2.0275312198	 0.128294
H	-2.0001740806	-1.2888607678	-0.9559034251	 0.139799
69.0751	75.3079	140.2028	184.0381	190.9126	215.3334	235.0366	240.6356	275.0286	283.6648	342.2543	347.184	407.9781	435.9913	507.1873	581.8756	602.6856	723.4916	841.4333	892.4603	944.7501	952.3511	1017.4077	1059.0854	1066.1405	1114.5903	1150.7144	1181.2438	1187.7809	1217.6669	1231.9752	1251.7929	1367.0693	1379.9519	1393.9896	1407.9085	1418.5479	1478.1779	1482.7795	1484.269	1489.4821	1492.8805	1503.2756	1506.6214	1512.4455	1516.8054	2349.9476	2966.1791	2985.5024	3038.8835	3050.6901	3052.5972	3058.184	3116.1219	3120.5408	3121.9418	3129.2726	3133.4864	3145.6317	3148.5597
COC(C)C(C)(C)C#N	CO[C@@H](C)C(C)(C)C#N	
InChI=1S/C7H13NO/c1-6(9-4)7(2,3)5-8/h6H,1-4H3	InChI=1S/C7H13NO/c1-6(9-4)7(2,3)5-8/h6H,1-4H3/t6-/m0/s1
