20
gdb 70475	3.43801	0.95931	0.86553	2.6023	79.8	-0.236	-0.0258	0.2102	1388.5874	0.169428	-403.115774	-403.106594	-403.10565	-403.150608	33.601	
C	-0.0059841334	 1.5324292279	 0.0679534877	-0.493233
C	-0.0533921614	 0.0343556635	 0.0024747888	 0.33493
C	-0.8774143977	-0.7983371797	 0.9047076489	-0.286542
N	 0.5897261105	-0.8664492249	 1.0531678785	-0.161887
C	 1.0457724934	-1.772581135	-0.059387024	-0.179104
C	 0.5164874545	-0.8016797993	-1.1506683489	-0.066393
C	-0.4286261769	-1.3056164981	-2.249347593	-0.303606
C	 0.3096651726	-2.1438507719	-3.2687086578	 0.161489
O	 0.0772027838	-3.2997152531	-3.5115182893	-0.235687
H	 0.9784443217	 1.9116665623	-0.227496968	 0.122472
H	-0.7537099068	 1.9774691761	-0.5996166195	 0.122051
H	-0.2122980265	 1.8817272325	 1.0836466306	 0.133317
H	-1.3635851745	-0.2923531481	 1.7335949533	 0.120017
H	-1.4114033078	-1.6737598867	 0.540319632	 0.111159
H	 2.131562234	-1.88228873	-0.0432531035	 0.114384
H	 0.5873528873	-2.7671985423	-0.0284426335	 0.113266
H	 1.3526215362	-0.2660882803	-1.613697278	 0.083798
H	-1.2496464341	-1.8997266986	-1.8399208683	 0.120053
H	-0.8545982923	-0.4381678522	-2.7744226142	 0.118126
H	 1.1325631372	-1.603223272	-3.7947456818	 0.071391
45.8898	69.758	153.0549	168.5939	183.9658	265.8543	316.1762	387.7684	441.5211	487.7932	539.2858	624.6491	718.525	757.6215	812.5427	859.5207	889.8152	926.3417	965.4894	988.5269	1030.7934	1051.7492	1085.0787	1096.2592	1110.9071	1130.8576	1143.0396	1198.1713	1220.7375	1228.7696	1269.4769	1296.4915	1319.828	1363.6254	1399.188	1422.4895	1428.4977	1463.4485	1482.2754	1491.6477	1495.9546	1517.1143	1834.4362	2847.4057	3012.5521	3025.821	3043.3137	3044.4826	3086.3081	3101.2213	3106.7845	3112.222	3114.7141	3191.9889
CC12CN1CC2CC=O	C[C@]12CN1C[C@H]2CC=O	
InChI=1S/C7H11NO/c1-7-5-8(7)4-6(7)2-3-9/h3,6H,2,4-5H2,1H3	InChI=1S/C7H11NO/c1-7-5-8(7)4-6(7)2-3-9/h3,6H,2,4-5H2,1H3/t6-,7-,8?/m1/s1
