13
gdb 132287	2.03377	1.83408	0.97017	2.451	64.48	-0.2632	-0.0654	0.1978	1102.134	0.088048	-497.925883	-497.918321	-497.917377	-497.958408	27.374	
C	-0.01661695	 1.4661321841	 0.0565608926	-0.469697
C	-0.0025838871	-0.0213189613	-0.0647190589	 0.428419
N	-0.0964032063	-0.6130076053	-1.2106676191	-0.356633
C	-0.0707071972	-1.9689261123	-1.1742716233	 0.353975
F	-0.1686723321	-2.5359906009	-2.3600233934	-0.043959
C	 0.0426057531	-2.7315708396	-0.0606610575	-0.422786
C	 0.1470788336	-2.0771134184	 1.2129034406	 0.441116
O	 0.2542671519	-2.5370260869	 2.3100057926	-0.325848
O	 0.1139289862	-0.6423281891	 1.1100016573	-0.236896
H	 0.9054144578	 1.8101007771	 0.5354828003	 0.162987
H	-0.1143875415	 1.9152643263	-0.930509566	 0.161599
H	-0.8480215351	 1.7803260153	 0.6952980136	 0.162978
H	 0.0576077169	-3.811169639	-0.0921670186	 0.144744
102.6246	150.4693	179.3096	205.3456	293.2069	377.579	476.7407	551.5127	591.1697	600.7153	618.313	727.8451	759.8582	807.8229	850.3772	976.9001	1003.7079	1062.9684	1065.7363	1119.5852	1254.2352	1334.6289	1409.1161	1426.2315	1466.5806	1472.4604	1622.8293	1670.146	1884.8929	3053.4108	3112.7503	3174.1302	3245.4945
CC1=NC(F)=CC(=O)O1	Cc1nc(F)cc(=O)o1	
InChI=1S/C5H4FNO2/c1-3-7-4(6)2-5(8)9-3/h2H,1H3	InChI=1S/C5H4FNO2/c1-3-7-4(6)2-5(8)9-3/h2H,1H3
