18
gdb 22967	3.65364	0.76298	0.66569	1.8419	72.95	-0.2491	-0.0054	0.2436	1641.9224	0.145329	-476.145435	-476.135744	-476.1348	-476.180918	34.158	
O	 0.1725412202	 1.3699721287	-0.195898939	-0.418148
C	 0.0388978967	-0.0106394673	 0.1003517516	-0.066509
C	-1.3357926668	-0.5635435664	-0.2879617675	-0.214876
C	-1.4568627988	-2.05287869	-0.005872676	 0.037585
O	-1.40318897	-2.3738933369	 1.417511452	-0.300307
C	-2.7005381571	-3.0157252091	 1.3976103566	-0.161796
C	-2.8284211104	-2.6841586882	-0.0672453604	 0.347606
N	-3.6665232004	-2.8065211546	-1.0023411068	-0.22595
O	-4.8278350639	-3.4579257811	-0.5544746614	-0.38913
H	-0.4228021962	 1.8545006566	 0.3846054516	 0.282194
H	 0.8198475061	-0.5152392537	-0.4798317552	 0.111445
H	 0.2344115272	-0.2199608976	 1.1616959746	 0.111299
H	-2.1209064622	-0.0317800256	 0.2645820443	 0.092368
H	-1.5125275067	-0.3899873859	-1.3557111642	 0.122316
H	-0.68480218	-2.6137224762	-0.553068133	 0.100489
H	-2.6482706784	-4.0856602671	 1.6359983823	 0.129507
H	-3.4258730435	-2.5344511123	 2.0652698743	 0.130183
H	-5.3691113559	-3.4845358431	-1.3510507837	 0.311724
69.7978	80.262	94.9669	129.9607	200.8006	232.898	295.3575	315.8178	353.1078	371.2966	475.0401	541.5328	591.1027	727.4607	786.3993	882.4501	899.0381	978.6385	989.696	1009.4054	1046.0766	1071.5303	1078.9053	1101.4658	1131.5885	1174.0808	1186.0499	1244.4957	1289.4019	1310.0469	1327.6764	1371.61	1402.891	1417.7501	1420.4428	1472.2987	1499.4854	1513.5594	1815.4832	2997.5051	3006.4645	3018.5851	3028.209	3058.5673	3062.4524	3086.903	3815.5873	3817.7333
OCCC1OCC1=NO	OCC[C@H]1OCC1=NO	
InChI=1S/C5H9NO3/c7-2-1-5-4(6-8)3-9-5/h5,7-8H,1-3H2	InChI=1S/C5H9NO3/c7-2-1-5-4(6-8)3-9-5/h5,7-8H,1-3H2/t5-/m1/s1
