23
gdb 73447	2.14433	1.83838	1.4972	0.3073	88.87	-0.2356	0.0877	0.3234	1066.7287	0.207052	-351.154476	-351.145958	-351.145014	-351.186752	34.482	
C	-0.0225883208	 1.4518173841	 0.0562898442	-0.495039
C	-0.008546664	-0.0565934964	-0.0260354599	 0.315498
C	 1.0453247697	-0.7203809205	-0.9220360605	-0.288065
C	 0.3883700375	-2.0526661253	-1.3691460063	-0.210046
C	-0.7236361195	-2.2677446712	-0.3357764933	-0.089263
C	-0.1423956397	-2.3060346617	 1.1147854223	-0.243768
C	-0.4431508687	-0.8140738071	 1.2292598539	-0.152226
C	-1.2957668047	-0.8453447634	-0.0363146083	 0.315282
C	-2.6816763749	-0.3562825707	-0.3323795932	-0.520045
H	 0.9271179976	 1.8314530589	 0.4514152197	 0.116153
H	-0.1721384149	 1.9040488537	-0.9314624016	 0.112096
H	-0.8174790132	 1.8173638725	 0.7142578041	 0.11352
H	 1.2843332044	-0.0793339311	-1.7774169389	 0.090448
H	 1.9855302375	-0.8867713451	-0.3834615953	 0.095914
H	-0.0446901416	-1.9483101475	-2.3709890391	 0.091597
H	 1.0965745333	-2.8873028684	-1.4032460241	 0.090666
H	-1.4336357442	-3.0577582852	-0.5855510176	 0.059909
H	-0.7725853535	-2.8928333944	 1.7888275063	 0.095522
H	 0.8967217913	-2.6395985758	 1.2270889002	 0.083014
H	-0.6242885999	-0.2703583129	 2.1516017415	 0.069611
H	-2.8284856908	 0.6707013319	 0.0172855879	 0.118338
H	-2.8867688987	-0.3674920986	-1.4103870858	 0.115241
H	-3.4420275622	-0.9803349359	 0.1519634339	 0.115642
181.7786	186.0738	196.0359	201.3311	233.0072	306.3283	323.2401	377.7796	473.5875	544.0666	613.5186	635.9518	696.4141	750.1044	829.3826	851.121	869.0432	900.7801	936.1623	948.2944	970.1111	978.5967	1012.852	1040.2517	1068.1544	1092.1364	1094.6825	1135.8576	1140.3698	1164.8717	1203.1563	1217.226	1239.2782	1251.4265	1268.071	1286.2619	1307.6255	1334.0853	1352.5878	1409.5299	1420.3304	1448.3017	1483.0143	1485.8448	1490.7644	1492.0749	1497.0159	1504.1934	1513.8515	3015.5505	3019.5352	3020.3824	3027.6305	3035.2153	3062.1059	3069.521	3076.1085	3080.6309	3083.9364	3091.3365	3096.6573	3099.1447	3151.0419
CC12CCC3CC1C23C	C[C@@]12CC[C@H]3C[C@@H]1[C@@]23C	
InChI=1S/C9H14/c1-8-4-3-6-5-7(8)9(6,8)2/h6-7H,3-5H2,1-2H3	InChI=1S/C9H14/c1-8-4-3-6-5-7(8)9(6,8)2/h6-7H,3-5H2,1-2H3/t6-,7-,8+,9-/m0/s1
