15
gdb 50129	5.04781	0.97221	0.8896	2.8865	73.96	-0.2599	-0.0088	0.2511	1247.3939	0.112969	-416.803449	-416.795596	-416.794652	-416.836381	28.576	
O	-0.0113219051	 0.0804808102	-0.3744850122	-0.309622
C	 0.0269720051	 1.2638296529	-0.1243507406	 0.134843
N	 1.1497658053	 1.9226038796	 0.2815621897	-0.043954
C	 2.5465715144	 1.4720864955	 0.1583241795	-0.231158
C	 2.9682841858	 2.9548607965	 0.0464034693	 0.157696
C	 2.2079165593	 3.642109228	-1.0755844346	-0.323519
C	 1.4821391002	 3.3334900124	 0.196461164	-0.066477
C	 4.1061802544	 3.5288935022	 0.6794618607	 0.203879
N	 5.0385082343	 3.9861250684	 1.1904208888	-0.33636
H	-0.8553492352	 1.934446116	-0.1590947469	 0.082753
H	 2.9099855676	 0.9890299802	 1.0681629645	 0.150581
H	 2.7446349702	 0.8373068776	-0.7094303709	 0.144796
H	 2.4728239464	 4.6837871864	-1.2219155341	 0.15361
H	 1.9841437508	 3.0858276243	-1.9811487955	 0.140402
H	 1.0294528964	 4.0721120597	 0.8460308484	 0.14253
62.4409	126.978	167.4311	229.5932	282.2374	359.009	455.8342	476.2524	548.1818	578.3502	608.3381	758.1124	821.2306	872.8197	920.9664	972.0143	990.3021	1033.4973	1036.9719	1080.3015	1086.7726	1152.2539	1180.4347	1210.51	1266.6374	1283.2524	1386.4257	1390.4395	1435.3791	1475.8099	1510.1218	1800.1579	2353.027	2934.2817	3065.7445	3123.0544	3126.5505	3200.3502	3225.7569
O=CN1CC2(CC12)C#N	O=CN1C[C@]2(C[C@@H]12)C#N	
InChI=1S/C6H6N2O/c7-2-6-1-5(6)8(3-6)4-9/h4-5H,1,3H2	InChI=1S/C6H6N2O/c7-2-6-1-5(6)8(3-6)4-9/h4-5H,1,3H2/t5-,6+/m1/s1
