19
gdb 92607	2.18319	1.61788	1.45911	1.603	69.42	-0.2462	0.0528	0.2989	1021.383	0.1593	-460.149083	-460.140701	-460.139757	-460.181956	32.733	
O	 0.4091314497	 1.1134065206	-0.6584616942	-0.429141
C	 0.0761342112	-0.0894897545	-0.0058892826	 0.068818
C	 0.0456776634	-0.1387209458	 1.546299319	-0.318719
C	-1.3387847624	-0.8553012017	 1.4885512602	 0.084189
O	-2.4233897899	-0.1824005276	 2.0943786459	-0.252414
C	-2.763419322	 0.9183199334	 1.2578637903	-0.092335
C	-2.5012322881	 0.455286541	-0.187343103	-0.3202
C	-1.3995916092	-0.6128504058	-0.0467420248	 0.356424
O	-1.6198961133	-1.7738835947	-0.8148516213	-0.48628
H	 0.0289884903	 1.8448598511	-0.1613702948	 0.281904
H	 0.7340598048	-0.8548853739	-0.4268246253	 0.096306
H	 0.8570158815	-0.6888711796	 2.0257234656	 0.112921
H	-0.0187852323	 0.8499547431	 2.0119784728	 0.103848
H	-1.3442317761	-1.895474017	 1.8148386368	 0.093644
H	-3.8081712167	 1.1739168763	 1.4512743922	 0.117177
H	-2.1546182632	 1.8025454378	 1.5088902586	 0.080578
H	-3.3840809784	-0.0427648973	-0.5960271461	 0.119177
H	-2.2212349264	 1.2758716955	-0.8539256215	 0.103193
H	-1.5256283729	-1.5392887008	-1.7448390176	 0.280912
58.6842	205.3402	220.9581	249.5433	284.1156	294.7168	345.4554	415.6942	465.5717	516.2292	568.826	624.2312	678.4261	743.553	830.9757	874.8113	893.3997	927.611	975.3947	985.0585	1024.7065	1038.9171	1072.0066	1123.1479	1135.3619	1159.7443	1168.5101	1203.2934	1231.4636	1235.8504	1250.0306	1269.3835	1295.4866	1322.9107	1338.258	1384.1378	1395.9691	1426.816	1469.2523	1484.0087	1522.5596	2964.6077	3055.4806	3061.1481	3075.1163	3092.8949	3111.7507	3114.2005	3125.398	3798.8614	3814.9615
OC1CC2OCCC12O	O[C@H]1C[C@H]2OCC[C@@]12O	
InChI=1S/C6H10O3/c7-4-3-5-6(4,8)1-2-9-5/h4-5,7-8H,1-3H2	InChI=1S/C6H10O3/c7-4-3-5-6(4,8)1-2-9-5/h4-5,7-8H,1-3H2/t4-,5+,6+/m0/s1
