16
gdb 41061	3.34733	2.15893	1.9182	1.2749	69.88	-0.2323	0.0401	0.2723	776.1028	0.126349	-400.592268	-400.58658	-400.585635	-400.621883	24.613	
C	 0.0236053568	 1.5380776197	-0.1718466754	-0.190819
O	 1.4405606895	 1.5232723706	 0.2104591042	-0.329231
C	 1.3148452156	 0.153138216	 0.5836149242	 0.362329
C	 0.7933037796	-0.304999202	 1.9754316594	-0.303115
C	-0.2364190639	-1.0395341426	 1.0980541034	-0.051183
N	 0.581448019	-1.9761055593	 0.1826862014	-0.143125
C	 1.7294764445	-1.0703064128	-0.2208252581	-0.115349
C	 0.457324254	-1.0759741776	-0.9975839653	-0.099207
C	-0.0956241138	 0.0068616975	-0.0503912294	 0.118194
H	-0.5775964311	 2.1168142595	 0.538720778	 0.117849
H	-0.1118468294	 1.9441060118	-1.178812936	 0.124255
H	 1.4385675126	-0.8996594535	 2.6255454942	 0.112392
H	 0.3514622425	 0.5277250628	 2.5278529895	 0.116861
H	-1.1430260397	-1.5192339175	 1.4677391727	 0.082132
H	 2.6900719042	-1.541526031	-0.3930506577	 0.09814
H	 0.1994938396	-1.4343894515	-1.987319925	 0.099877
252.3053	341.2562	389.835	479.2987	554.2216	579.8245	714.9556	761.2523	765.6517	794.6967	846.5691	848.2806	861.2605	913.5387	922.6066	937.5117	966.0658	997.8307	1013.0064	1044.0104	1066.0525	1117.2593	1121.6194	1154.6411	1164.2081	1198.6208	1209.5156	1222.5382	1258.5925	1273.4808	1284.6222	1303.9167	1332.8076	1475.4645	1503.2577	3031.0448	3068.0597	3087.9551	3109.8574	3131.9521	3173.3495	3187.8209
C1OC23CC4N5C2C5C134	C1O[C@]23C[C@@H]4N5[C@H]2[C@@H]5[C@]134	
InChI=1S/C7H7NO/c1-3-6-2-9-7(1,6)5-4(6)8(3)5/h3-5H,1-2H2	InChI=1S/C7H7NO/c1-3-6-2-9-7(1,6)5-4(6)8(3)5/h3-5H,1-2H2/t3-,4+,5-,6+,7+,8?/m0/s1
