23
gdb 102691	2.46601	0.81955	0.68433	4.0808	84.07	-0.2776	0.0086	0.2863	1731.9085	0.203256	-425.458736	-425.447552	-425.446608	-425.496761	38.836	
C	-0.7520961518	 2.0086633668	 0.2798252103	-0.390126
C	-0.2893576015	 0.5537437846	 0.1537089771	-0.185628
C	-1.435029613	-0.4640195492	-0.0458321588	 0.026769
C	-2.0370453299	-0.3733662501	-1.464823599	-0.172067
C	-3.4397696176	-0.9694148553	-1.634810917	-0.394577
C	-0.8936477896	-1.8594077031	 0.2840002605	-0.093939
O	-1.904535671	-2.8773277274	 0.2359294933	-0.176802
C	-2.3376433421	-3.3993590074	 1.3969574677	 0.171682
O	-3.2078453337	-4.2148063783	 1.4569855919	-0.277436
H	 0.1023375784	 2.6751617655	 0.4318393891	 0.117412
H	-1.280617935	 2.3536587554	-0.6138118742	 0.124965
H	-1.4273894671	 2.1332311297	 1.1333707437	 0.118248
H	 0.4198794012	 0.4616106782	-0.6799403227	 0.10074
H	 0.2738968011	 0.2905165097	 1.0586599889	 0.09232
H	-2.2235442417	-0.2363937149	 0.6870070245	 0.074712
H	-2.0743547438	 0.6820071812	-1.7572084267	 0.098198
H	-1.3414229536	-0.8512925972	-2.1687960933	 0.094711
H	-3.8045104058	-0.8018561408	-2.6533037265	 0.108568
H	-3.4541620308	-2.0424720516	-1.4389007005	 0.148637
H	-4.1507256659	-0.4950026098	-0.9488020868	 0.111008
H	-0.1291357548	-2.155997694	-0.4423522591	 0.121666
H	-0.4295477762	-1.85997404	 1.2791932567	 0.105184
H	-1.7945907056	-2.996739272	 2.2753968409	 0.075756
38.6524	42.7957	78.486	98.3879	143.5921	204.5181	218.6944	248.2307	273.1771	322.9366	356.2757	364.0757	446.1607	501.4614	677.6125	759.3743	778.1039	836.4476	922.6457	959.2871	987.2597	1025.732	1042.6615	1046.0038	1049.6945	1065.3234	1135.6735	1148.0359	1173.7669	1200.7491	1274.1566	1289.4681	1316.4353	1337.4575	1354.2494	1379.8337	1396.6231	1409.4953	1414.8753	1417.62	1433.1278	1482.0128	1488.7159	1498.637	1501.6077	1503.1842	1508.4233	1516.0155	1865.1746	2936.3749	2995.3996	3009.0106	3014.6152	3019.7774	3036.2651	3037.5794	3044.2911	3060.3171	3077.7068	3096.273	3103.1135	3110.0828	3145.368
CCC(CC)COC=O	CCC(CC)COC=O	
InChI=1S/C7H14O2/c1-3-7(4-2)5-9-6-8/h6-7H,3-5H2,1-2H3	InChI=1S/C7H14O2/c1-3-7(4-2)5-9-6-8/h6-7H,3-5H2,1-2H3
