18
gdb 66258	2.04495	1.63442	1.41498	2.8277	78.41	-0.2573	0.0154	0.2727	1054.6829	0.147174	-401.939152	-401.930381	-401.929437	-401.972272	33.353	
C	-0.1392878202	 1.5879272956	 0.0446169229	-0.433872
C	 0.0258083678	 0.0622106406	-0.0043215188	-0.000399
C	 0.9220434001	-0.4547124443	-1.1601550942	-0.255694
C	 1.4657043507	-1.7598856948	-0.5793975131	-0.095855
O	 1.5935940987	-1.5132681014	 0.8338863616	-0.243147
C	 0.8029967182	-0.4704206062	 1.2112842381	 0.409356
N	 0.7255015382	 0.0026413744	 2.3763995807	-0.538362
C	-1.2803613731	-0.6026319579	-0.0484744263	 0.361442
C	-2.3487333191	-1.1500943019	-0.1095994924	-0.510023
H	 0.8411421066	 2.0722815572	 0.0537292942	 0.119292
H	-0.7027287022	 1.9388400735	-0.8239558391	 0.120738
H	-0.6699840721	 1.873215599	 0.9543532546	 0.155911
H	 0.376616432	-0.5952229011	-2.0940204186	 0.122324
H	 1.736933524	 0.2566139913	-1.3283389946	 0.114384
H	 0.7708962912	-2.5932624394	-0.7322051126	 0.126355
H	 2.4506403373	-2.039896214	-0.958464616	 0.121649
H	 1.3275767635	-0.5138064197	 3.0196365705	 0.224747
H	-3.2968089415	-1.6275465909	-0.144008537	 0.201154
94.8741	137.4671	168.5922	220.871	227.562	266.9117	338.092	408.6622	476.4141	535.0259	609.9759	630.7149	643.774	661.2104	684.1857	716.6948	832.25	888.3217	924.6772	937.8307	964.1484	1012.4505	1043.0351	1081.3227	1150.947	1175.7046	1192.3543	1246.245	1249.3875	1291.3245	1340.275	1401.4487	1411.5919	1483.446	1487.021	1493.2907	1518.4905	1776.9304	2231.7109	3046.1662	3048.8288	3059.2697	3112.3873	3122.629	3133.8301	3146.2726	3476.2141	3500.881
CC1(CCOC1=N)C#C	C[C@]1(CCO[C]1[NH])C#C	
InChI=1S/C7H9NO/c1-3-7(2)4-5-9-6(7)8/h1,8H,4-5H2,2H3	InChI=1S/C7H9NO/c1-3-7(2)4-5-9-6(7)8/h1,8H,4-5H2,2H3/t7-/m1/s1
