14
gdb 45929	3.02761	1.51496	1.02947	1.8118	66.56	-0.2523	-0.06	0.1923	1068.2589	0.102746	-470.049835	-470.042284	-470.041339	-470.082528	27.832	
N	-0.101567027	 1.3042515978	-0.2858816105	-0.508699
C	-0.0257797444	 0.0535534477	-0.0644859763	 0.302135
N	-1.1517370198	-0.7203504709	 0.1098275625	-0.330868
C	-1.0912763941	-1.9328022268	 0.8970232328	-0.314463
C	 0.1156992074	-2.7745427916	 0.5370503088	 0.427532
O	 0.1753268059	-3.9591592745	 0.6569885653	-0.289356
O	 1.2223345901	-2.0904526476	 0.0913153321	-0.233821
C	 1.2694055308	-0.712896504	-0.0468010265	 0.35804
N	 2.3697754434	-0.1212864528	-0.2006716522	-0.481122
H	 0.8342483305	 1.6711443849	-0.4606225907	 0.248481
H	-1.9984189079	-0.1733280341	 0.1856036496	 0.262394
H	-1.0417812849	-1.7498941381	 1.9846986651	 0.147718
H	-1.9740678795	-2.5472838449	 0.7125883131	 0.163923
H	 3.1509536595	-0.777813165	-0.1814060831	 0.248105
63.7641	113.6651	157.7249	348.3818	395.125	414.2696	440.1157	490.9633	560.8263	609.5921	630.4074	693.5486	779.212	820.6133	884.7843	894.8693	923.6822	1017.3004	1046.7937	1095.3836	1154.4418	1213.9458	1251.7755	1314.7233	1346.9887	1437.4993	1466.3517	1500.2919	1725.1062	1756.3821	1888.2642	2958.7677	3117.3387	3493.9011	3496.8497	3596.7889
N=C1NCC(=O)OC1=N	[NH]C1=C(OC(=O)CN1)[NH]	
InChI=1S/C4H5N3O2/c5-3-4(6)9-2(8)1-7-3/h6H,1H2,(H2,5,7)	InChI=1S/C4H5N3O2/c5-3-4(6)9-2(8)1-7-3/h6H,1H2,(H2,5,7)
