19
gdb 38365	2.32467	2.10153	1.39751	1.3152	75.77	-0.211	0.0077	0.2187	965.0622	0.162053	-419.165057	-419.157733	-419.156789	-419.19678	29.222	
C	-0.314663202	 1.3607957703	-0.0019319663	-0.207424
C	 1.1904652995	 1.7001141951	-0.0603228162	 0.125383
C	 1.4169768953	 0.277966247	 0.497180686	-0.208342
N	-0.000351653	-0.0856131556	 0.2104577217	-0.090531
C	-0.2004002562	-0.9506439117	-0.9470121197	-0.173321
C	 0.1114352653	-0.376352266	-2.3473596517	-0.170769
N	 1.4984960726	-0.0586974699	-2.6451376746	-0.224144
C	 2.1104993176	 0.9567256441	-2.2200659383	 0.107171
O	 1.7502677718	 1.9556571999	-1.3551620725	-0.252941
H	-0.8077043877	 1.7881318948	 0.8784887165	 0.108391
H	-0.9045628096	 1.6075697254	-0.8871679913	 0.115742
H	 1.5247075279	 2.5429705133	 0.5488179147	 0.093782
H	 2.1728774068	-0.3385801605	 0.0055638802	 0.124062
H	 1.6102157957	 0.2855886565	 1.5759032711	 0.108097
H	 0.3944315285	-1.856810279	-0.7852069034	 0.114339
H	-1.2527750153	-1.2629680897	-0.9653985405	 0.104739
H	-0.2040712955	-1.1350314427	-3.0725195291	 0.10553
H	-0.5217160937	 0.5035298736	-2.5296296899	 0.106542
H	 3.1108924319	 1.162464865	-2.6054829166	 0.113696
79.4613	212.0952	273.3336	285.4957	360.1961	414.3979	438.39	483.2046	594.9687	703.7144	749.4569	783.2871	823.2695	823.7005	874.02	924.9611	961.4003	975.7173	1004.8386	1017.5369	1043.5848	1092.4564	1103.6962	1119.9101	1145.7223	1175.0509	1250.1746	1271.2042	1281.2659	1282.8325	1325.9663	1329.4025	1366.0555	1387.703	1396.5006	1433.5699	1471.1539	1477.0414	1498.8894	1516.1312	1741.4187	3003.8935	3018.4386	3034.7012	3040.9155	3052.71	3071.484	3084.722	3107.0103	3108.9977	3116.903
C1C2CN1CCN=CO2	C1[C@H]2CN1CCN=CO2	
InChI=1S/C6H10N2O/c1-2-8-3-6(4-8)9-5-7-1/h5-6H,1-4H2/b7-5-	InChI=1S/C6H10N2O/c1-2-8-3-6(4-8)9-5-7-1/h5-6H,1-4H2/b7-5-
