18
gdb 71222	2.89791	1.87346	1.68854	1.4878	75.52	-0.2287	-0.0041	0.2245	895.437	0.14949	-401.901129	-401.894367	-401.893423	-401.931699	28.672	
C	-0.0016842451	 1.5217075938	-0.008096108	-0.493561
C	 0.0048070894	 0.0097232872	 0.0101456662	 0.249156
N	 1.0315265997	-0.6398008689	-0.8902206349	-0.326485
C	 1.2273479489	-1.6798069285	 0.1005618947	-0.061672
C	-0.0841021928	-2.4863570433	 0.6065723401	 0.014628
O	-0.0041302392	-1.7505216676	 1.8823983199	-0.291706
C	 0.7565484265	-0.7598025863	 1.2254988204	 0.083195
C	-1.3211952518	-1.9933021368	-0.0724645537	-0.083041
C	-1.3126908031	-0.6677169524	-0.268637291	-0.101971
H	 1.0052173967	 1.9129508925	 0.1598375338	 0.123613
H	-0.3541234257	 1.9032584746	-0.9734669001	 0.116789
H	-0.6652313474	 1.9130447058	 0.7709100048	 0.122305
H	 0.6552673782	-0.9445067615	-1.7877661785	 0.206242
H	 2.1528509617	-2.256642444	 0.0668866255	 0.08411
H	-0.0085862502	-3.5624307403	 0.7639928126	 0.073711
H	 1.3615721416	-0.1398933946	 1.8888643725	 0.08677
H	-2.1543783102	-2.64638401	-0.3046451266	 0.100978
H	-2.1556066872	-0.1009147598	-0.6529019476	 0.09694
200.3147	248.8635	282.7274	388.2037	397.8351	461.4814	532.4649	603.1996	673.4852	691.0124	713.9345	747.1195	760.0012	806.0428	855.452	892.6846	912.7097	950.2064	979.7746	988.5591	1005.3561	1064.1799	1070.7764	1096.8484	1136.6075	1155.985	1192.8893	1203.0174	1235.445	1255.0678	1300.5848	1306.263	1339.5056	1360.5958	1396.2994	1409.401	1484.6395	1493.4755	1649.0131	3028.5448	3092.554	3095.4197	3107.1193	3114.5223	3116.7327	3166.4829	3199.7162	3455.483
CC12NC3C(OC13)C=C2	C[C@@]12N[C@@H]3[C@@H](O[C@H]13)C=C2	
InChI=1S/C7H9NO/c1-7-3-2-4-5(8-7)6(7)9-4/h2-6,8H,1H3	InChI=1S/C7H9NO/c1-7-3-2-4-5(8-7)6(7)9-4/h2-6,8H,1H3/t4-,5+,6-,7-/m0/s1
