19
gdb 41146	2.93736	1.96529	1.49187	1.5223	79.56	-0.2245	0.0047	0.2292	930.7536	0.161922	-385.855181	-385.84858	-385.847636	-385.885624	28.478	
C	-0.0068845872	 1.5716025668	-0.0716861502	-0.260614
C	 1.5573055721	 1.4914665555	 0.0441561406	-0.332036
C	 1.3529657695	 0.1464609379	 0.7476159496	 0.432658
C	 2.0472919605	-1.1927765463	 1.0299071799	-0.339664
C	 1.0625402541	-1.1431867554	 2.2414478727	 0.034317
O	 1.1307662585	 0.3158970201	 2.1766205614	-0.317152
C	-0.3658306995	-1.5245340691	 1.8803687561	-0.064065
C	-0.9347026907	-0.8715619023	 0.8608227636	-0.105471
C	-0.0238548417	 0.0132422996	 0.0587673919	-0.03329
H	-0.4393410345	 2.0563445231	 0.8049014916	 0.124792
H	-0.4265866593	 2.0066865808	-0.9803738479	 0.095376
H	 2.0288381871	 1.3789789936	-0.9361709217	 0.106942
H	 2.0770332137	 2.2607208383	 0.6183247965	 0.110921
H	 1.9434562749	-1.9948353881	 0.2957753173	 0.097531
H	 3.082917574	-1.0881344966	 1.3605242918	 0.106799
H	 1.3935713335	-1.5329931177	 3.2057310496	 0.075393
H	-0.898415284	-2.2505456694	 2.4858719357	 0.092149
H	-1.9710200543	-1.0251052889	 0.5729032653	 0.09289
H	 0.1085897832	-0.4072057816	-0.9478880838	 0.082527
197.1225	274.2673	344.5084	348.9257	453.8666	491.7163	545.6495	559.819	679.1618	718.4876	746.7379	773.6788	830.3206	858.4112	891.3394	901.2372	918.2115	927.3529	970.6008	987.762	1002.0899	1063.0676	1087.641	1089.2824	1112.3322	1158.1124	1160.4854	1201.7289	1214.6338	1231.4801	1241.2687	1257.5198	1275.0539	1318.8319	1342.8375	1348.2926	1390.2716	1467.9392	1481.6856	1488.3128	1668.1779	3007.9599	3063.354	3065.1698	3078.4922	3096.1998	3124.1666	3130.041	3143.2206	3158.559	3188.0577
C1CC23CC(O2)C=CC13	C1C[C@@]23C[C@@H](O2)C=C[C@@H]13	
InChI=1S/C8H10O/c1-2-7-5-8(9-7)4-3-6(1)8/h1-2,6-7H,3-5H2	InChI=1S/C8H10O/c1-2-7-5-8(9-7)4-3-6(1)8/h1-2,6-7H,3-5H2/t6-,7-,8-/m0/s1
