16
gdb 10022	3.35093	1.0812	0.85143	1.6603	75.47	-0.2483	0.0331	0.2814	1335.3057	0.127253	-346.53849	-346.52878	-346.527836	-346.57512	33.183	
C	-0.0220603101	 1.4924195147	 0.0307770489	-0.498959
C	 0.0016535948	 0.0370930103	 0.0109781917	 0.084372
C	 0.0367068176	-1.1655386403	-0.0057579068	 0.072215
C	 0.0190227537	-2.6288310894	-0.0151758177	-0.354767
C	-1.4438288615	-3.1692074886	 0.0262798526	-0.056381
O	-1.4839242448	-4.5736787065	 0.0763548927	-0.41436
C	 0.7107294959	-3.1935509527	-1.1792240793	 0.315229
C	 1.2205984478	-3.7094791512	-2.1380415055	-0.458766
H	 0.9927585144	 1.9048852186	 0.0215583133	 0.152226
H	-0.5514586686	 1.8931442473	-0.8404504047	 0.151151
H	-0.5254409845	 1.8691861926	 0.9278206079	 0.150473
H	 0.5149905976	-3.0062402052	 0.8902374473	 0.139799
H	-1.9225910365	-2.8019576945	 0.9375465991	 0.121674
H	-1.9881781626	-2.7626308257	-0.8378150519	 0.105021
H	-1.0352835138	-4.9002596168	-0.7132500438	 0.287792
H	 1.7010358905	-4.1384896027	-2.9827365037	 0.203281
9.501	82.953	97.4262	126.1046	186.2593	256.1831	281.7803	361.8002	382.8043	419.4814	469.5473	535.6011	555.2125	632.0926	662.6057	802.2242	858.2778	1029.6413	1033.9157	1053.0772	1054.2118	1090.3471	1168.864	1202.5528	1272.2118	1331.5973	1380.9448	1414.3777	1421.9053	1477.3809	1478.2253	1504.3338	2232.711	2377.1173	3001.9027	3015.5675	3029.2014	3090.8977	3091.3677	3103.203	3501.3183	3780.9555
CC#CC(CO)C#C	CC#C[C@@H](CO)C#C	
InChI=1S/C7H8O/c1-3-5-7(4-2)6-8/h2,7-8H,6H2,1H3	InChI=1S/C7H8O/c1-3-5-7(4-2)6-8/h2,7-8H,6H2,1H3/t7-/m0/s1
