19
gdb 90080	3.19309	1.58832	1.43517	0.5494	74.97	-0.2417	0.061	0.3027	986.4442	0.16035	-422.942349	-422.935171	-422.934227	-422.973558	29.677	
C	-0.1504659681	 1.5418246359	-0.1884381181	-0.404054
C	 0.0704483758	 0.047115522	-0.0974697984	 0.037593
O	 1.0751533503	-0.4751591724	-1.0613383631	-0.367963
C	 1.9986329857	-0.6571170709	 0.018605182	 0.395823
C	 2.9796295852	-1.6665731533	 0.6779879751	-0.331551
C	 2.9768112698	-0.4586072165	 1.7172302525	 0.093937
C	 2.9539743273	 0.4770055343	 0.5020830535	-0.285275
O	 1.6137203317	-0.2935383985	 2.2309834886	-0.301136
C	 0.9050999158	-0.6574165948	 1.0419706259	 0.068838
H	-0.5495663681	 1.7942733573	-1.1758346104	 0.131302
H	-0.8852489038	 1.8484211059	 0.5637322753	 0.12686
H	 0.7611253792	 2.1190020539	-0.0339583677	 0.130339
H	-0.8763399955	-0.4765384121	-0.2645431231	 0.089778
H	 2.5800713398	-2.6333334388	 0.9890390152	 0.109732
H	 3.9660660808	-1.7693182141	 0.2221864466	 0.110004
H	 3.6938357955	-0.3957211869	 2.5315045974	 0.096003
H	 3.8851688014	 0.5002269448	-0.0670866189	 0.104974
H	 2.5687446103	 1.4797782805	 0.6778173683	 0.107503
H	 0.4472943368	-1.6399413764	 1.1977169994	 0.087294
170.7153	187.9632	207.3124	340.1605	420.7385	443.9156	484.5686	539.726	576.5365	661.4448	756.1965	772.4065	797.3412	824.6767	857.7175	882.2426	934.0462	952.9048	975.3623	1005.6928	1031.3013	1044.2031	1050.9999	1102.4725	1116.647	1137.0404	1152.4173	1186.749	1213.5374	1223.7547	1236.3296	1274.2943	1293.9683	1327.7611	1384.4237	1399.0883	1424.0378	1473.2609	1482.5801	1495.2705	1516.1215	3033.4636	3044.8193	3058.6575	3074.2352	3086.9793	3107.5621	3143.986	3148.6503	3163.8396	3165.2913
CC1OC23CC(C2)OC13	C[C@H]1O[C@@]23C[C@@H](C2)O[C@@H]13	
InChI=1S/C7H10O2/c1-4-6-7(9-4)2-5(3-7)8-6/h4-6H,2-3H2,1H3	InChI=1S/C7H10O2/c1-4-6-7(9-4)2-5(3-7)8-6/h4-6H,2-3H2,1H3/t4-,5-,6+,7-/m1/s1
