23
gdb 89179	2.37736	1.34768	1.13053	1.2333	86.62	-0.2348	0.0747	0.3095	1246.0413	0.203606	-388.27166	-388.261667	-388.260723	-388.305419	38.922	
C	-0.0786901502	 1.5142392478	 0.0468700712	-0.405252
C	-0.0091772765	-0.0085914537	 0.0728564275	 0.019196
C	 1.0612956413	-0.6159416857	-0.8954112857	-0.316874
C	 1.8516554317	-1.1616711132	 0.3045283447	 0.311368
C	 3.3521633336	-1.156759895	 0.3818516932	-0.495926
C	 0.7747257784	-0.5863877928	 1.2578570651	-0.176759
C	 0.9897134929	-2.0784689613	 1.1345133617	 0.350339
C	-0.0257093881	-3.0645606026	 0.5975472675	-0.46182
O	 1.7322626956	-2.6144926788	 2.2105912382	-0.472081
H	 0.9159858048	 1.9551073522	 0.1779683226	 0.114482
H	-0.4832331449	 1.8723428198	-0.9063673885	 0.111241
H	-0.7201495272	 1.8963972866	 0.8489874855	 0.110778
H	-1.0198990728	-0.4173570529	-0.0467648953	 0.061911
H	 0.719483463	-1.3443561598	-1.6382532053	 0.089434
H	 1.6134838105	 0.1696244362	-1.4199276803	 0.099182
H	 3.7536751482	-0.1562627429	 0.183718288	 0.107357
H	 3.6940365758	-1.481706812	 1.3658702193	 0.138934
H	 3.7821526699	-1.8360390893	-0.3653571438	 0.112978
H	 0.9090525886	-0.1019114434	 2.2205739087	 0.07238
H	-0.5763926737	-2.6813136114	-0.2635136755	 0.122345
H	 0.4755901781	-3.9913894487	 0.3009911966	 0.124021
H	-0.7614141084	-3.3151883904	 1.3725105499	 0.103445
H	 1.1348235396	-2.6969979389	 2.9617606549	 0.279321
126.918	177.0524	183.8477	198.361	238.3565	242.8546	262.2591	292.6821	318.6923	347.3064	420.4666	434.117	466.6514	516.6478	645.407	667.6925	721.6013	845.3366	900.6176	906.1211	931.4911	946.556	953.032	993.2685	1028.4211	1054.7202	1082.157	1106.4705	1130.5056	1161.8023	1199.4521	1203.6403	1223.4463	1257.7369	1264.3944	1299.9031	1312.2633	1368.8543	1406.1938	1408.8426	1417.6226	1453.9616	1482.672	1491.7004	1493.4886	1494.1348	1498.622	1502.8446	1508.5139	3020.1816	3021.3138	3022.7672	3025.3674	3041.2147	3071.5237	3086.282	3088.3449	3091.5655	3094.8963	3132.3918	3136.2167	3153.4147	3797.6787
CC1CC2(C)C1C2(C)O	C[C@H]1C[C@@]2(C)[C@@H]1[C@]2(C)O	
InChI=1S/C8H14O/c1-5-4-7(2)6(5)8(7,3)9/h5-6,9H,4H2,1-3H3	InChI=1S/C8H14O/c1-5-4-7(2)6(5)8(7,3)9/h5-6,9H,4H2,1-3H3/t5-,6+,7-,8-/m0/s1
