17
gdb 105285	2.46193	1.15979	0.9462	3.9879	77.94	-0.2451	-0.0265	0.2186	1281.396	0.13178	-421.771858	-421.762221	-421.761277	-421.806596	34.514	
C	 0.05146555	 1.3241262381	-0.2781271974	-0.256146
O	-0.0584885569	 0.0198659556	 0.274751118	-0.273251
C	-1.3249426533	-0.5495138262	 0.1289368105	 0.228654
C	-1.6367653131	-1.223187936	-1.1808446169	-0.353259
C	-1.3296045886	-2.0756980758	 0.0429632019	-0.17732
C	-0.0381298839	-2.8124852623	 0.094648628	 0.173442
O	 0.0881806703	-3.892935825	 0.6149376853	-0.265471
C	-2.3890756256	 0.0836965699	 0.8685790654	 0.312797
C	-3.2656129642	 0.6271277538	 1.4868097596	-0.461727
H	 1.0809191142	 1.6451432703	-0.1098376515	 0.136033
H	-0.1573314335	 1.3215053222	-1.3567961666	 0.112113
H	-0.6340284422	 2.024416923	 0.2145699573	 0.129689
H	-2.6546226794	-1.2193510002	-1.5504941027	 0.140959
H	-0.8607695673	-1.1646216204	-1.9374330118	 0.135236
H	-2.1544564159	-2.582728587	 0.5289320518	 0.126112
H	 0.8120463792	-2.2978940648	-0.3979380564	 0.087112
H	-4.0398700898	 1.0999492048	 2.0394125754	 0.205026
81.7174	103.4915	111.4062	156.9386	189.9699	205.211	285.4009	329.5339	403.546	438.2852	458.7938	553.5124	597.3459	638.2974	679.9935	687.754	854.7469	891.7828	919.7808	959.0356	1034.5915	1060.0746	1072.299	1096.6643	1171.8809	1182.7375	1212.1817	1231.3277	1262.9077	1353.3309	1437.0981	1463.6302	1476.6493	1485.4654	1508.0591	1817.1849	2232.6821	2924.0611	3003.6293	3067.3892	3134.6357	3137.5285	3195.5727	3236.8624	3499.7595
COC1(CC1C=O)C#C	CO[C@]1(C[C@H]1C=O)C#C	
InChI=1S/C7H8O2/c1-3-7(9-2)4-6(7)5-8/h1,5-6H,4H2,2H3	InChI=1S/C7H8O2/c1-3-7(9-2)4-6(7)5-8/h1,5-6H,4H2,2H3/t6-,7-/m0/s1
