20
gdb 110779	2.61259	1.30951	1.16315	1.6435	78.7	-0.2334	-0.0211	0.2123	1170.6401	0.170798	-403.153456	-403.144902	-403.143958	-403.186996	32.632	
C	 0.0094977197	 1.6802827131	-0.2950719805	-0.371972
C	-0.3923005914	 0.2068640751	-0.2828480889	-0.140631
N	 0.4477650172	-0.5474877944	-1.2079766499	-0.085567
C	 1.7181492088	-1.1411790233	-0.8094366428	-0.044589
C	 2.0323480855	-1.3500631124	 0.6601750143	-0.347621
C	 0.9116488085	-2.248214218	 1.2098610029	 0.388408
O	 0.7229806249	-2.4993101527	 2.3705752946	-0.308311
C	 0.0709678053	-2.7713939608	 0.033823107	-0.343853
C	 0.5368772127	-1.9999835144	-1.1869016595	-0.045607
H	 1.0339242599	 1.8106642767	 0.0691660154	 0.118424
H	-0.0385803636	 2.0809218604	-1.3112799484	 0.128561
H	-0.6543096392	 2.2665664058	 0.347358253	 0.114885
H	-0.3746089552	-0.1653576697	 0.7534100414	 0.101219
H	-1.4260657769	 0.0997533737	-0.6318408034	 0.108458
H	 2.5459193011	-0.9656518088	-1.490812881	 0.093751
H	 2.988562139	-1.8753860115	 0.7761079265	 0.134454
H	 2.103927993	-0.434825923	 1.2563196418	 0.136972
H	 0.2694448377	-3.8434539473	-0.0889215704	 0.133443
H	-0.994787327	-2.6737321259	 0.2631982576	 0.135919
H	 0.45986868	-2.4814928627	-2.1580248799	 0.093657
67.4282	88.6421	164.8991	203.178	266.6196	309.429	436.5863	461.2714	472.8229	501.8553	638.815	692.1115	730.9231	771.0087	780.5195	810.7772	863.5133	882.5955	947.5133	1014.7509	1029.602	1031.6814	1087.6202	1101.9519	1124.0199	1136.8901	1164.7886	1178.5623	1214.3428	1273.5027	1276.3107	1308.7251	1324.0481	1343.2764	1381.8397	1402.7884	1413.7414	1441.2682	1449.0288	1488.3185	1494.8921	1512.4765	1845.9474	2979.225	3039.9736	3040.6084	3043.2751	3050.7313	3086.1778	3086.8699	3109.0203	3122.3436	3136.5144	3145.9268
CCN1C2CC(=O)CC12	CCN1[C@H]2CC(=O)C[C@@H]12	
InChI=1S/C7H11NO/c1-2-8-6-3-5(9)4-7(6)8/h6-7H,2-4H2,1H3	InChI=1S/C7H11NO/c1-2-8-6-3-5(9)4-7(6)8/h6-7H,2-4H2,1H3/t6-,7+,8?
