19
gdb 34297	3.2761	1.43995	1.29041	1.9225	80.77	-0.2394	0.0407	0.2801	1048.1974	0.160788	-385.869845	-385.862286	-385.861342	-385.901515	30.89	
C	 0.0877448941	-1.1468234993	 0.0027111612	-0.346554
C	 0.0417971558	 0.0536703014	-0.0013166723	 0.143052
C	-0.0604893443	 1.4996947964	 0.0076509012	 0.29948
C	-0.8325786533	 2.1112734569	 1.2079537843	-0.25
C	-1.0954481794	 3.570366439	 0.7171316395	-0.224105
C	-0.4168031442	 3.5920095654	-0.6731607766	-0.069684
C	 1.0970338316	 3.4441852983	-0.4614701431	-0.07002
O	 1.2588352777	 2.09059526	 0.003540777	-0.315966
C	-0.7399645637	 2.1815470539	-1.200576006	-0.257044
H	 0.1383280084	-2.2075110129	 0.0030578143	 0.184357
H	-1.7584783138	 1.5633657165	 1.4013373006	 0.107462
H	-0.2120312897	 2.0614634686	 2.1043586275	 0.116049
H	-2.1669681245	 3.7708265214	 0.6271402347	 0.100139
H	-0.675968197	 4.3229131845	 1.3905229731	 0.101485
H	-0.6962245952	 4.4327625886	-1.3093167228	 0.069145
H	 1.6652100924	 3.5790794025	-1.3914895931	 0.097354
H	 1.4914839603	 4.1396944949	 0.2895860633	 0.098012
H	-0.2509805054	 1.9276204596	-2.1435060325	 0.111528
H	-1.8091771798	 1.9672631543	-1.2653396402	 0.10531
136.0121	149.265	194.5077	343.7647	399.9457	437.4009	510.3111	523.5887	534.1858	586.0735	620.404	671.1938	772.7345	785.5726	827.4209	853.3323	919.7635	930.716	941.0819	961.0255	976.9475	981.1279	1026.4673	1092.9201	1119.035	1141.2518	1163.9615	1182.0551	1204.5828	1245.6621	1256.8563	1278.3978	1302.6802	1328.4733	1343.5993	1376.1333	1479.2419	1487.1265	1504.3528	1531.4335	2246.036	3007.1233	3046.8131	3052.7359	3068.3907	3073.2891	3093.3249	3110.4793	3125.3262	3130.5451	3503.0097
C#CC12CCC(CO1)C2	C#C[C@@]12CC[C@@H](CO1)C2	
InChI=1S/C8H10O/c1-2-8-4-3-7(5-8)6-9-8/h1,7H,3-6H2	InChI=1S/C8H10O/c1-2-8-4-3-7(5-8)6-9-8/h1,7H,3-6H2/t7-,8+/m1/s1
