20
gdb 19479	4.32721	1.53329	1.47517	1.0063	74.73	-0.2431	0.0913	0.3345	965.0309	0.179137	-348.984257	-348.976936	-348.975992	-349.015697	28.733	
C	 0.1918068758	 1.3118922399	 0.1268887836	-0.242482
O	-0.2659685118	 0.0340143648	-0.2535742224	-0.26023
C	 0.5063403695	-0.5553018851	-1.2674597661	 0.185022
C	 1.8383871815	-1.2460598349	-0.8142721728	-0.057154
C	 0.9321143701	-2.4011951653	-0.2948001531	-0.226615
C	 0.0724868903	-2.0202326235	-1.537901971	-0.046751
C	 1.0018334871	-2.3996642176	-2.7047089726	-0.218226
C	 2.3459581256	-1.8025213656	-2.1566448274	-0.216277
H	 1.2011489607	 1.2805915794	 0.5628998293	 0.10684
H	 0.2092417043	 2.0059804541	-0.7282592118	 0.103404
H	-0.5037710354	 1.6955829782	 0.8772375355	 0.125672
H	 0.5743419589	 0.1221912909	-2.1346968794	 0.048554
H	 2.5621948811	-0.7422826968	-0.1725678024	 0.056554
H	 1.3590431285	-3.4078651112	-0.2563275957	 0.081529
H	 0.4366894453	-2.1545466332	 0.6429606101	 0.112432
H	-0.9831333072	-2.2801142349	-1.6167136543	 0.062775
H	 1.0520972365	-3.4814865793	-2.8546611877	 0.097595
H	 0.6950728119	-1.9438809415	-3.6508049054	 0.095519
H	 2.7522533824	-1.0214935826	-2.806758061	 0.094119
H	 3.1215614849	-2.5616496859	-2.0226061952	 0.09772
103.3816	179.6431	190.2048	292.4885	310.8314	399.3257	461.2058	532.3849	642.2055	820.3628	827.8502	841.8563	890.675	902.057	920.3625	942.8478	969.9312	995.5575	1025.267	1030.4253	1066.6426	1086.2598	1125.8075	1139.3018	1173.696	1184.1129	1213.9895	1219.0383	1239.5612	1252.8497	1262.6054	1268.6312	1292.7815	1318.8533	1324.6883	1399.7799	1480.4989	1487.2684	1491.996	1492.3441	1509.0973	1518.2975	2961.6963	2977.4157	3024.9836	3047.1092	3056.3543	3059.7612	3084.145	3103.7949	3107.668	3113.8052	3118.1088	3150.3388
COC1C2CC1CC2	CO[C@H]1[C@H]2C[C@@H]1CC2	
InChI=1S/C7H12O/c1-8-7-5-2-3-6(7)4-5/h5-7H,2-4H2,1H3	InChI=1S/C7H12O/c1-8-7-5-2-3-6(7)4-5/h5-7H,2-4H2,1H3/t5-,6+,7+
