20
gdb 70825	2.29391	1.70179	1.44861	1.6114	79.55	-0.2278	0.0703	0.298	1052.196	0.1685	-403.061585	-403.052574	-403.05163	-403.094455	34.797	
C	 0.050971871	 1.4535061845	-0.1005397533	-0.537391
C	 0.0298099263	-0.0428041822	-0.0683964291	 0.255008
N	 0.6646183771	-0.9288893552	-1.1045443045	-0.406619
C	 0.0769645571	-1.919477351	-0.1375222072	 0.255009
C	 0.1730826162	-3.4064252569	-0.2795522978	-0.537391
C	 0.4379498087	-1.0149177347	 1.076362722	 0.024737
O	-0.8872981217	-1.0703198334	 1.6764354773	-0.366421
C	-1.1654696955	-1.0243838792	 0.2395692248	 0.376288
C	-2.5815722822	-1.0424215678	-0.2368061271	-0.534442
H	 1.0779145881	 1.8259018951	-0.1672359185	 0.134617
H	-0.5073299949	 1.8421188073	-0.9595988828	 0.119759
H	-0.4067347953	 1.8493971007	 0.8116834584	 0.136761
H	 0.1150106691	-0.9108505582	-1.9691787053	 0.199109
H	 1.2172827042	-3.7209342654	-0.3715767943	 0.134617
H	-0.2624837282	-3.8907683402	 0.6002601614	 0.136761
H	-0.36663552	-3.7583382062	-1.165873357	 0.119758
H	 1.3138768767	-1.0167708456	 1.7242053642	 0.093391
H	-3.1340784326	-0.1824244354	 0.1546226815	 0.137085
H	-2.6131438608	-1.0028339664	-1.3311367932	 0.122281
H	-3.0894904532	-1.9555581496	 0.0891931604	 0.137083
172.1782	191.3184	195.1638	202.4162	214.2108	214.7184	265.4685	265.6365	435.9909	505.493	555.4472	592.2766	665.2582	727.9082	738.4569	761.9446	805.1268	815.802	872.4219	917.2787	958.0893	1037.0838	1079.6195	1084.3015	1098.4674	1110.635	1129.9874	1164.7824	1235.9573	1247.1841	1266.0403	1315.9689	1318.0786	1390.4896	1403.1087	1404.647	1447.7571	1471.3692	1482.9629	1483.278	1489.2356	1490.2916	1496.7563	3031.2853	3031.3177	3033.4071	3097.2031	3097.2353	3103.8395	3108.2774	3112.2639	3112.2646	3129.8036	3385.4186
CC12NC3(C)C1OC23C	C[C@@]12N[C@@]3(C)[C@@H]1O[C@@]23C	
InChI=1S/C7H11NO/c1-5-4-6(2,8-5)7(5,3)9-4/h4,8H,1-3H3	InChI=1S/C7H11NO/c1-5-4-6(2,8-5)7(5,3)9-4/h4,8H,1-3H3/t4-,5-,6+,7+
