21
gdb 64124	3.45618	0.99748	0.96392	0.9859	84.87	-0.2468	0.0511	0.2979	1344.3695	0.180764	-387.075623	-387.066044	-387.0651	-387.109988	36.664	
C	-0.1006538802	 1.5342112092	 0.0862598301	-0.417589
C	 0.0011812273	 0.0119904437	-0.0261190226	 0.397162
C	-1.3824800562	-0.6410850857	 0.0440047838	-0.42423
C	 0.7947491097	-0.4396404572	-1.2844984344	-0.285065
C	 2.177066784	-0.853823119	-0.7256334373	-0.1825
C	 1.7694114872	-1.3516872824	 0.6764421411	-0.090488
O	 0.7859340333	-0.435187168	 1.1056878342	-0.292002
C	 2.8989933732	-1.8253917164	-1.5287551984	 0.305672
C	 3.4871066757	-2.6460382455	-2.1816963068	-0.447341
H	 0.8861928443	 1.997379054	-0.0080953645	 0.113349
H	-0.7513156369	 1.9412799461	-0.6944036998	 0.111677
H	-0.5132879014	 1.8124321499	 1.0603701562	 0.124172
H	-1.9954135053	-0.3522645314	-0.8166037475	 0.112686
H	-1.2942082173	-1.7317955921	 0.0478353983	 0.116095
H	-1.9034926853	-0.3364852067	 0.9564158276	 0.120877
H	 0.3198668024	-1.3044228366	-1.7561506987	 0.111902
H	 0.8689810404	 0.3506943867	-2.0343491604	 0.112472
H	 2.7956214938	 0.0427812454	-0.5963866444	 0.108822
H	 1.3786091987	-2.3795395706	 0.6087312959	 0.095018
H	 2.5912657809	-1.3409964426	 1.3971683896	 0.115106
H	 4.0119630116	-3.3652937109	-2.760030312	 0.194205
43.5156	132.6962	139.0889	227.7942	251.6777	262.2316	326.3325	344.4008	379.2564	452.8733	497.1107	512.9378	529.8767	619.6604	629.6876	633.1275	774.7802	868.017	884.8084	898.06	931.7653	965.491	1001.8677	1041.4461	1049.0912	1070.1042	1098.4259	1165.0218	1180.4074	1223.3248	1258.6644	1283.9169	1300.2852	1306.0365	1339.6897	1391.0031	1398.4114	1416.5851	1475.9281	1483.3969	1494.0743	1497.3413	1504.9163	1520.6791	2237.2517	2977.4849	3031.7391	3032.5923	3038.0389	3065.1664	3093.5004	3103.6629	3110.2672	3110.7488	3116.8275	3117.816	3505.1829
CC1(C)CC(CO1)C#C	CC1(C)C[C@@H](CO1)C#C	
InChI=1S/C8H12O/c1-4-7-5-8(2,3)9-6-7/h1,7H,5-6H2,2-3H3	InChI=1S/C8H12O/c1-4-7-5-8(2,3)9-6-7/h1,7H,5-6H2,2-3H3/t7-/m0/s1
