16
gdb 19681	4.45574	1.87781	1.67613	2.7253	67.51	-0.2384	-0.0203	0.2181	801.0526	0.131142	-346.555478	-346.549058	-346.548114	-346.586214	24.964	
O	-0.7242633324	 0.9119344855	 0.6274407501	-0.247057
C	 0.0669991825	 1.0790301256	-0.2671178865	 0.135162
C	 1.2613121545	 1.9968426954	-0.2160323689	-0.074349
C	 1.4017786068	 3.1534861647	-1.2183815712	-0.094964
C	 0.7194704012	 4.3854590715	-0.6009002149	-0.05806
C	 0.1487724235	 3.9704617369	 0.7540421184	-0.232205
C	 1.4130939422	 3.074720848	 0.8923195142	-0.077111
C	 2.1171824901	 3.9966630311	-0.1890519019	-0.082375
H	-0.0387407116	 0.5249337855	-1.2313915021	 0.069511
H	 2.1612974039	 1.3690760025	-0.2797432064	 0.096251
H	 1.6038637109	 3.0921126256	-2.2797790849	 0.090158
H	 0.4225116148	 5.2146911009	-1.2303904201	 0.087024
H	 0.1869692987	 4.8045341636	 1.4600275106	 0.100058
H	-0.8269249768	 3.4822593968	 0.8066532307	 0.115958
H	 1.8056098164	 2.8069611473	 1.8697547549	 0.078623
H	 3.0654100953	 4.5122578491	-0.2245536719	 0.093376
85.6355	185.3327	218.062	401.7014	475.0499	657.8233	686.0269	736.2188	780.8183	790.3854	822.1971	851.2152	896.6664	943.5625	984.6553	1001.4205	1014.6519	1023.7326	1026.1789	1054.104	1080.5253	1085.6779	1134.869	1156.3137	1168.1306	1206.6541	1234.3799	1266.8845	1314.6294	1356.2802	1362.7486	1422.8592	1507.6779	1822.6177	2837.3486	3017.012	3062.3343	3118.9351	3151.1597	3193.2247	3201.221	3227.9033
O=CC1C2C3CC1C23	O=C[C@H]1[C@H]2[C@H]3C[C@@H]1[C@@H]23	
InChI=1S/C7H8O/c8-2-5-3-1-4-6(3)7(4)5/h2-7H,1H2	InChI=1S/C7H8O/c8-2-5-3-1-4-6(3)7(4)5/h2-7H,1H2/t3-,4-,5+,6+,7+/m0/s1
