13
gdb 129076	3.15383	1.53307	1.03161	2.0105	80.88	-0.2243	-0.0642	0.16	1057.2152	0.090379	-411.729079	-411.721632	-411.720688	-411.761197	27.967	
N	-0.0836512152	 1.3223869153	 0.0061170233	-0.529187
C	-0.0037896108	 0.0412663697	 0.0092747336	 0.190299
C	 1.2139225405	-0.7640136612	 0.0039871396	-0.029988
N	 1.2386309772	-2.0600381182	 0.0077032966	-0.178204
N	 0.0490045214	-2.6683183405	 0.0170484111	-0.118128
N	-1.1582854167	-2.1098380049	 0.0230380449	-0.253782
C	-1.2162775366	-0.8016812891	 0.0194424575	 0.138601
C	-2.5032781534	-0.2005606563	 0.0259615364	 0.307084
C	-3.5846071124	 0.3262293489	 0.0313622336	-0.368755
H	 0.8519405573	 1.7361567816	-0.0009446203	 0.212369
H	 2.1820245294	-0.2697130928	-0.0035864444	 0.130191
H	 0.066694755	-3.6747342761	 0.0200677699	 0.296409
H	-4.5371913957	 0.7960531938	 0.0361550082	 0.203091
78.9322	144.2506	199.8627	366.4505	390.1948	409.3513	470.2504	529.2979	556.1309	619.683	624.6395	637.4584	660.2923	722.5902	801.975	859.484	892.7876	934.609	1079.5055	1114.1071	1207.4128	1249.2174	1363.6533	1418.8561	1466.2665	1575.4156	1619.7015	1676.0242	2234.	3167.5697	3435.6377	3502.2317	3663.9703
N=C1C=NNN=C1C#C	[NH]c1cn[nH]nc1C#C	
InChI=1S/C5H4N4/c1-2-5-4(6)3-7-9-8-5/h1,3H,(H2,6,9)	InChI=1S/C5H9N4/c1-2-5-4(6)3-7-9-8-5/h1,4-9H,3H2
