23
gdb 100687	2.85877	0.95179	0.88189	1.4501	77.81	-0.255	0.0623	0.3173	1462.488	0.202094	-462.562742	-462.551238	-462.550294	-462.598801	42.468	
C	-0.0559863381	 1.612203591	 0.1101067321	-0.385366
C	-0.0056024209	 0.0842757339	 0.022318676	-0.20841
C	-1.3964252314	-0.5432322662	-0.1034401893	 0.109082
O	-2.0608479227	-0.1420859163	-1.3019489875	-0.441634
C	-1.4014256687	-2.0837800097	 0.0435355902	 0.357386
C	-0.5659181035	-2.7963519495	-1.0321060312	-0.443846
O	-0.8678043001	-2.3509850037	 1.3384990494	-0.482237
C	-2.8526504499	-2.5889218543	 0.0097047805	-0.117484
O	-2.8136291495	-3.9595888526	 0.4118978534	-0.440092
H	 0.9504595554	 2.0401108862	 0.1429549599	 0.108395
H	-0.5811524028	 2.0365257511	-0.7505111254	 0.12098
H	-0.5859619596	 1.9352534175	 1.0128343333	 0.116179
H	 0.6039671391	-0.2164175766	-0.8416602848	 0.082679
H	 0.4813721155	-0.337467821	 0.9065673025	 0.127494
H	-2.0237390947	-0.1543129633	 0.7084282509	 0.086832
H	-1.4504507895	-0.2795404857	-2.0343521837	 0.280274
H	 0.4949536263	-2.5683889996	-0.9079613097	 0.122548
H	-0.6982667586	-3.8777878637	-0.9459827414	 0.131829
H	-0.8773179902	-2.5049920151	-2.0415830054	 0.098316
H	-1.1877952385	-3.2320108957	 1.5726454325	 0.285493
H	-3.4538779606	-1.9960650728	 0.7129957152	 0.092217
H	-3.2781298555	-2.4747857057	-0.9939980013	 0.104539
H	-3.7110341017	-4.2525996184	 0.5896653938	 0.294829
74.4891	91.3427	134.6839	150.6785	213.5143	232.0609	242.6029	255.7634	288.9707	298.5991	312.7871	341.5623	363.1698	426.7352	446.8675	494.9522	519.1787	655.7152	763.2289	786.0699	875.4984	925.7906	962.4363	987.7319	995.659	1048.2041	1062.4982	1096.307	1119.4504	1131.8384	1172.9456	1193.9933	1248.4963	1252.8982	1273.6814	1331.2234	1336.65	1381.3002	1391.7243	1402.6447	1412.0775	1417.4901	1442.5696	1484.6649	1491.6397	1496.2615	1504.2457	1509.1983	1512.876	3003.0331	3007.7708	3034.5249	3038.0195	3039.2387	3061.9877	3086.725	3103.0865	3110.292	3115.7975	3132.4468	3765.6504	3806.7749	3848.6734
CCC(O)C(C)(O)CO	CC[C@@H](O)[C@@](C)(O)CO	
InChI=1S/C6H14O3/c1-3-5(8)6(2,9)4-7/h5,7-9H,3-4H2,1-2H3	InChI=1S/C6H14O3/c1-3-5(8)6(2,9)4-7/h5,7-9H,3-4H2,1-2H3/t5-,6+/m1/s1
