15
gdb 51272	3.48169	1.20381	0.8995	3.5219	71.9	-0.2293	-0.032	0.1973	1211.2765	0.114837	-450.186033	-450.178251	-450.177306	-450.218791	28.706	
N	-0.0455616029	 0.8683703521	-0.967161032	-0.550615
C	-0.0912631827	-0.2107129756	-0.3033325661	 0.384402
C	-0.9022032245	-0.459908608	 0.9703104592	-0.237254
N	-0.6431395664	-1.8496675707	 1.3702704012	-0.356514
C	 0.1655491543	-2.2990818847	 0.4883387749	 0.514135
N	 0.6567896924	-3.6010977379	 0.5169838766	-0.397284
C	 1.5154548939	-4.1759884793	-0.3814920507	 0.167375
O	 1.988663738	-3.6281530422	-1.3548622579	-0.318094
N	 0.5490805947	-1.4349723202	-0.5176190315	-0.38289
H	 0.5669491005	 0.7912051728	-1.7804206727	 0.213133
H	-0.6044884336	 0.2358268348	 1.7624942284	 0.144745
H	-1.9704280839	-0.2984616843	 0.7891704789	 0.14481
H	 0.3183108226	-4.1504776805	 1.2943137721	 0.27937
H	 1.7377397508	-5.2240862226	-0.1159973553	 0.110176
H	 1.1753736868	-1.7056322136	-1.2622638951	 0.284506
86.6742	120.1343	178.6343	215.6974	328.476	343.5938	478.4034	518.6825	562.7478	586.9883	637.3239	691.5662	731.9971	855.19	861.1309	887.2853	990.0969	1001.835	1029.8915	1048.437	1079.9692	1144.1536	1183.7903	1263.8819	1279.6854	1321.3405	1434.5037	1460.1532	1488.5594	1504.9222	1721.6474	1766.3051	1797.9981	2990.0474	3048.0315	3078.5102	3462.8458	3608.4548	3618.0149
N=C1CN=C(NC=O)N1	[NH][C]1CN=C(NC=O)N1	
InChI=1S/C4H6N4O/c5-3-1-6-4(8-3)7-2-9/h2H,1H2,(H3,5,6,7,8,9)	InChI=1S/C4H6N4O/c5-3-1-6-4(8-3)7-2-9/h2H,1H2,(H3,5,6,7,8,9)
