16
gdb 126869	4.66603	0.96383	0.83854	1.1262	79.42	-0.2543	-0.0601	0.1942	1356.5593	0.124339	-434.043677	-434.035476	-434.034532	-434.077827	29.323	
C	-0.1967701619	 1.5470310986	-0.0736084973	-0.363408
C	 0.0605692844	 0.0395522612	 0.0189616685	-0.147327
N	 0.7899750095	-0.4122864967	-1.1549589895	-0.305338
C	 1.8985511433	-1.0266401331	-1.0219933336	 0.340658
C	 2.6066008983	-1.4567359453	-2.2304530207	 0.031085
N	 3.7180546713	-2.0899863923	-2.2702276728	-0.079443
O	 4.2874587525	-2.3820669591	-1.0030082295	-0.223009
C	 3.6367307743	-1.9762821123	 0.102495348	 0.171353
N	 2.5340734332	-1.348012625	 0.1931639952	-0.328374
H	 0.7445176214	 2.1044260197	-0.0426041623	 0.119429
H	-0.7074164031	 1.7955682918	-1.0080608788	 0.126339
H	-0.8175139324	 1.8785509777	 0.7643720277	 0.113287
H	 0.570143527	-0.2085560655	 0.9567579719	 0.11927
H	-0.9045465884	-0.4846515439	 0.0141867916	 0.111499
H	 2.1691420097	-1.231830565	-3.1992747711	 0.159259
H	 4.2040198609	-2.2684621109	 0.9846829126	 0.15472
31.289	82.4522	152.1205	194.0569	275.7869	354.9647	425.8472	439.3619	520.4271	593.2412	687.9972	768.418	788.596	808.2059	836.7509	916.787	970.0706	978.021	994.7232	1065.3228	1105.0779	1117.4277	1165.4562	1266.5929	1290.0343	1315.9701	1373.8057	1403.3169	1410.489	1487.9506	1492.3923	1508.586	1652.5339	1692.6185	1712.321	3014.3831	3040.5071	3063.9623	3112.1849	3121.6871	3160.9405	3185.678
CCN=C1C=NOC=N1	CCN=c1cnocn1	
InChI=1S/C5H7N3O/c1-2-6-5-3-8-9-4-7-5/h3-4H,2H2,1H3	InChI=1S/C5H7N3O/c1-2-6-5-3-8-9-4-7-5/h3-4H,2H2,1H3
