21
gdb 65922	2.78459	1.31767	1.11784	3.1758	77.56	-0.24	0.0694	0.3094	1183.7311	0.182289	-424.185095	-424.176128	-424.175184	-424.219308	33.06	
C	 0.0028902753	 1.6185986667	 0.1776106552	-0.46701
C	-0.0121290492	 0.1027547853	-0.0039509394	 0.260752
C	 0.9403296002	-0.4191855868	-1.1108626097	-0.112897
O	 1.8500605725	-0.9638987843	-0.1367232545	-0.273476
C	 0.9456552398	-0.6669068815	 0.9445771849	-0.115122
C	-1.4370242264	-0.4209904285	-0.0310701273	 0.088798
C	-2.3073091462	-0.1777143793	-1.2881065753	-0.297132
C	-2.4761337595	-1.7087646659	-1.2850468901	-0.064647
O	-1.5173179123	-1.8546510514	-0.2153319848	-0.292222
H	 1.0301502397	 1.9933310454	 0.2159917905	 0.129221
H	-0.5071736594	 2.1249170436	-0.6500072236	 0.118433
H	-0.4965865085	 1.9115605157	 1.1083128968	 0.117697
H	 0.5151104526	-1.2030240895	-1.7496238891	 0.100824
H	 1.4161506385	 0.3457986191	-1.7371952142	 0.091319
H	 1.4234535514	-0.0716944694	 1.7327969046	 0.092851
H	 0.5185129686	-1.5782370328	 1.379897738	 0.114028
H	-1.9440167174	-0.1294793011	 0.9022278169	 0.071328
H	-3.2106507615	 0.4173300802	-1.1501323699	 0.112309
H	-1.7485326366	 0.2086743939	-2.1435501726	 0.112953
H	-3.4719730343	-2.0605212171	-0.9863870099	 0.103181
H	-2.1655033672	-2.2448234524	-2.1885516066	 0.108814
73.777	90.5509	97.3324	186.6098	234.9527	252.8836	315.0413	345.8826	432.7256	498.253	634.3364	762.1022	827.9011	850.8202	886.9962	916.8208	945.1691	959.1137	962.5985	978.4479	1012.6909	1031.7422	1043.4578	1061.4193	1102.4915	1163.348	1165.1107	1170.8771	1188.2637	1216.4103	1233.3858	1254.8234	1285.1787	1299.4025	1317.4087	1358.5823	1380.0838	1392.4381	1416.971	1490.1462	1493.4159	1496.0866	1505.7611	1527.2242	1531.4914	2974.8001	3006.4073	3016.133	3016.8714	3026.2714	3055.9689	3062.23	3062.4426	3076.2734	3089.1226	3104.7432	3133.6576
CC1(COC1)C1CCO1	CC1(COC1)[C@H]1CCO1	
InChI=1S/C7H12O2/c1-7(4-8-5-7)6-2-3-9-6/h6H,2-5H2,1H3	InChI=1S/C7H12O2/c1-7(4-8-5-7)6-2-3-9-6/h6H,2-5H2,1H3/t6-/m1/s1
