15
gdb 55583	4.06387	0.94616	0.77113	6.9602	66.82	-0.2615	-0.0353	0.2262	1400.9558	0.110428	-491.150274	-491.141081	-491.140137	-491.185503	31.309	
C	-0.2265978877	 1.319263576	 0.2657062618	-0.457324
C	 0.2807191966	-0.0150781612	-0.2052772354	 0.43534
N	 1.4868418947	-0.3985339592	-0.3068372166	-0.530816
O	-0.7801509557	-0.8042366684	-0.5269566384	-0.262743
C	-0.793322018	-2.1303839225	-1.0128661446	 0.50507
O	-1.8559757636	-2.6178961495	-1.2277653764	-0.301985
N	 0.4535433393	-2.6874938839	-1.1737389	-0.401009
C	 0.7049570087	-3.9784378636	-1.6354417184	 0.169405
O	-0.1057504854	-4.7995244876	-1.9613478304	-0.252538
H	 0.598228059	 1.980472113	 0.5350661952	 0.134263
H	-0.8262545234	 1.7856545	-0.5212217419	 0.165959
H	-0.8811131033	 1.1813786952	 1.1311779138	 0.165952
H	 2.1363952249	 0.3276686132	-0.0213375722	 0.240459
H	 1.24092933	-2.0771984202	-0.9251257494	 0.296551
H	 1.7982962239	-4.1535372012	-1.6630152472	 0.093417
43.1314	84.2311	123.9668	140.5122	164.3033	242.3214	256.0828	321.0544	446.2835	533.3184	563.9352	621.9597	757.3993	763.1185	829.7604	846.5795	923.8028	959.5398	1033.1638	1040.5395	1070.2199	1085.9949	1099.331	1192.506	1371.8222	1414.7027	1446.0515	1467.4611	1477.3863	1575.0925	1725.0962	1830.805	1919.1862	2944.2813	3054.5558	3122.181	3150.0451	3286.8521	3543.6458
CC(=N)OC(=O)NC=O	C[C]([NH])OC(=O)NC=O	
InChI=1S/C4H6N2O3/c1-3(5)9-4(8)6-2-7/h2,5H,1H3,(H,6,7,8)	InChI=1S/C4H6N2O3/c1-3(5)9-4(8)6-2-7/h2,5H,1H3,(H,6,7,8)
