19
gdb 93153	2.2523	1.74297	1.14669	4.1814	76.53	-0.2579	-0.0119	0.246	1100.2209	0.160155	-423.058379	-423.049981	-423.049037	-423.091616	31.965	
C	-0.3818095735	 1.458163545	 0.0394288004	-0.388573
C	 0.0950689804	-0.0089852511	 0.0027010435	-0.092605
C	 0.809529589	-0.337694744	-1.3264752386	-0.294155
C	 2.0866352373	 0.4354310629	-1.5192593691	-0.039005
C	 3.1280279209	 0.2315848951	-0.7148391657	-0.078574
C	 3.0541019832	-0.8091975842	 0.3657810522	-0.117804
O	 2.1460111021	-0.5118875015	 1.4490229757	-0.226475
C	 0.8137574692	-0.291697928	 1.3372343393	 0.379794
O	 0.174922126	-0.260567219	 2.3567217374	-0.318318
H	 0.4651771449	 2.1495278409	-0.0067929601	 0.126094
H	-1.0350144118	 1.6621822832	-0.8150212561	 0.111662
H	-0.9355780215	 1.6498663111	 0.9596913256	 0.147733
H	-0.7972889758	-0.6419277675	 0.064905897	 0.113085
H	 1.0159531071	-1.4154611423	-1.3702440943	 0.114386
H	 0.1069979094	-0.1292663744	-2.139180125	 0.106917
H	 2.1294012893	 1.1893560338	-2.3000042879	 0.102906
H	 4.0460543291	 0.8016083109	-0.815365136	 0.104085
H	 2.784655924	-1.7870611388	-0.0538975495	 0.121437
H	 4.0146726807	-0.9237599021	 0.8703153713	 0.127409
50.4158	134.1027	227.488	243.4905	268.8889	328.4623	352.3308	378.7165	454.0571	541.9043	628.6057	655.9778	722.8371	751.8955	798.452	880.0345	906.2989	944.0412	982.8548	995.4291	1024.7541	1050.0876	1070.8573	1103.6716	1128.7679	1211.0365	1233.1926	1263.0165	1282.9759	1296.5459	1329.5169	1369.8403	1400.1559	1405.1531	1423.8305	1485.7652	1495.4877	1508.7911	1513.3085	1715.5407	1813.9955	3016.11	3021.7098	3041.7969	3048.7661	3076.6386	3109.3687	3115.5319	3143.4767	3164.6855	3189.1877
CC1CC=CCOC1=O	C[C@H]1CC=CCOC1=O	
InChI=1S/C7H10O2/c1-6-4-2-3-5-9-7(6)8/h2-3,6H,4-5H2,1H3	InChI=1S/C7H10O2/c1-6-4-2-3-5-9-7(6)8/h2-3,6H,4-5H2,1H3/t6-/m0/s1
