16
gdb 49699	2.27327	1.16887	0.88417	1.0735	78.72	-0.2407	-0.1111	0.1296	1305.7728	0.121499	-437.834102	-437.824189	-437.823245	-437.87112	32.724	
O	-0.0793567286	 0.2771451302	-0.6581450057	-0.246675
C	-0.0223599342	 1.2163323075	 0.0998291394	 0.058749
C	 1.2051578182	 1.9572758576	 0.3790662643	 0.149643
C	 2.6636422638	 2.1396047401	 0.0688499832	-0.178231
C	 3.1631680863	 2.541805334	-1.3186838804	-0.177013
N	 2.4661427109	 3.73583686	-1.7918991774	-0.523256
H	 2.7906821332	 4.5479142125	-1.2736315636	 0.242244
H	 2.6755356529	 3.9017876659	-2.7699411682	 0.23151
C	 1.7516425052	 3.0476525422	 0.8565323499	 0.123469
C	 1.5773596243	 4.3803054047	 1.4225269949	 0.057844
O	 2.331909955	 5.297918826	 1.1904485498	-0.253079
H	-0.9163308917	 1.5825648532	 0.6453445043	 0.094955
H	 3.3698691089	 1.5347466442	 0.6392914357	 0.102627
H	 4.259120823	 2.6513324886	-1.2603420752	 0.091235
H	 2.9682204398	 1.7239738276	-2.023029261	 0.122261
H	 0.6898741829	 4.5078266455	 2.0741334601	 0.103719
25.3382	60.1995	82.4925	105.7725	134.3604	175.2067	279.8573	307.0573	328.7307	429.8172	445.8555	606.3887	652.7063	769.2411	814.2364	866.083	936.9967	989.8622	999.0254	1026.6771	1054.3616	1095.2009	1174.5682	1209.0283	1242.2217	1318.4719	1375.3254	1410.0339	1413.4483	1422.1858	1502.6989	1659.2165	1764.5938	1774.0287	1859.4237	2915.7846	2930.9796	2956.2182	3049.5997	3092.3633	3493.8799	3582.2376
O=C[C-]1C2C[NH2+]C12C=O	O=CC1=C([C@@H]1CN)C=O	
InChI=1S/C6H6NO2/c8-2-5-4-1-7-6(4,5)3-9/h2-4,7H,1H2/q-1/p+1	InChI=1S/C6H7NO2/c7-1-4-5(2-8)6(4)3-9/h2-4H,1,7H2
