25
gdb 122623	3.78615	0.6428	0.58547	1.3388	89.61	-0.2611	0.0803	0.3415	1975.6972	0.228252	-389.481944	-389.471234	-389.47029	-389.518458	39.18	
C	-0.0902701995	 1.56883316	-0.1704049634	-0.391293
C	-0.000546074	 0.0481075152	-0.0592183269	-0.007164
C	 1.1732109484	-0.5680511145	-0.8785899778	-0.222899
C	 2.004741618	-0.6649961467	 0.4280540725	-0.22391
C	 0.6855551278	-0.5085508739	 1.2362210916	 0.053554
C	 0.6844949569	 0.2995951418	 2.5284173841	-0.221641
C	 1.4778878343	-0.3793745499	 3.6510438687	-0.164364
C	 1.4868804811	 0.4240954264	 4.9442459766	-0.075092
O	 2.2444600837	-0.2962563733	 5.9059174493	-0.422332
H	 0.88245619	 2.0484979215	-0.0146596606	 0.112411
H	-0.4394823422	 1.8569575664	-1.1680730747	 0.110124
H	-0.7890097311	 1.9891999681	 0.5608078174	 0.111666
H	-0.9859769646	-0.3821602866	-0.2655399423	 0.059998
H	 0.9240267068	-1.5539904236	-1.2807459552	 0.096356
H	 1.5803920427	 0.0424663482	-1.6897146566	 0.090162
H	 2.5954579099	-1.5701707327	 0.588133423	 0.094512
H	 2.6637176748	 0.1998435393	 0.5590626972	 0.095558
H	 0.2747675955	-1.5046189985	 1.4433764956	 0.066191
H	 1.101281335	 1.2981439812	 2.3417148319	 0.090745
H	-0.3522829189	 0.4577538712	 2.8583119121	 0.089909
H	 1.0597196119	-1.3714819612	 3.8620861707	 0.102321
H	 2.516066933	-0.5403139561	 3.3362103689	 0.10851
H	 1.9221871159	 1.4204446257	 4.7598436583	 0.08158
H	 0.4519020032	 0.5827888051	 5.2904431211	 0.081259
H	 2.2449242517	 0.2062708169	 6.7256179085	 0.28384
58.9562	78.1455	92.5327	125.2278	143.2939	214.4721	262.4551	265.7051	278.5182	349.4558	371.3363	430.8459	530.678	673.1648	752.5102	769.8438	806.7086	854.0266	885.4919	913.1489	944.6315	955.2265	1001.1976	1017.0847	1032.7117	1058.415	1069.8865	1093.7583	1132.3455	1166.0749	1183.3068	1208.4157	1221.3676	1236.0188	1257.7019	1264.2087	1282.9769	1284.0468	1303.6021	1312.6651	1319.7548	1367.8159	1369.3617	1400.1078	1410.7699	1464.2542	1478.8404	1484.2002	1496.9992	1498.2255	1501.1693	1504.0944	1529.3516	2955.4146	2979.902	3002.4743	3017.0358	3025.9099	3029.5736	3038.5785	3042.6967	3045.9783	3054.5641	3075.0955	3091.1031	3092.4669	3094.5497	3109.2419	3829.5402
CC1CCC1CCCO	C[C@H]1CC[C@H]1CCCO	
InChI=1S/C8H16O/c1-7-4-5-8(7)3-2-6-9/h7-9H,2-6H2,1H3	InChI=1S/C8H16O/c1-7-4-5-8(7)3-2-6-9/h7-9H,2-6H2,1H3/t7-,8+/m0/s1
