20
gdb 48208	2.00491	1.45449	0.9175	2.5303	80.16	-0.2434	-0.0219	0.2215	1299.1145	0.169225	-403.104571	-403.095244	-403.0943	-403.139742	33.756	
O	-0.5951145029	 1.0342647296	-1.0348920124	-0.254283
C	 0.2810854142	 0.8689638853	-0.2266410918	 0.169666
C	 1.3699400843	 1.8919486656	 0.0782413794	-0.078867
C	 0.9676667341	 2.6708598694	 1.3200616343	 0.016856
C	 1.3276613532	 4.1311419639	 1.4587107797	-0.274832
C	-0.1047581107	 3.725501692	 1.2277885283	-0.267824
N	 2.6182883897	 1.1735913518	 0.3133886683	-0.075078
C	 3.4181932668	 0.8454753444	-0.866462906	-0.230578
C	 3.8552154151	 1.9097512135	 0.0778884908	-0.216208
H	 0.3494037298	-0.0551820891	 0.3900473077	 0.08649
H	 1.4201642882	 2.5813799401	-0.7826190672	 0.071441
H	 0.9974892526	 2.0753476395	 2.227601415	 0.097584
H	 1.613173715	 4.4936061386	 2.439882624	 0.117683
H	 1.8572543264	 4.6042415415	 0.6385367195	 0.113
H	-0.538167571	 3.9149572818	 0.251607338	 0.129145
H	-0.8073784519	 3.8113700717	 2.048720919	 0.117486
H	 3.8918775608	-0.1315942757	-0.8566260489	 0.121637
H	 3.0479060144	 1.1641973663	-1.8393967542	 0.120617
H	 3.7799077049	 2.9396047198	-0.2646127077	 0.115209
H	 4.6563156172	 1.72446602	 0.7874581441	 0.120856
55.9508	71.7981	88.6298	159.5139	186.852	218.5537	338.2237	383.7651	407.0001	462.8667	516.0876	772.321	783.2997	827.6776	832.0399	882.0781	899.1092	933.0445	955.0537	1004.4657	1021.2203	1056.8323	1062.7315	1080.5499	1106.6231	1115.1259	1120.4755	1136.6648	1164.2443	1178.8807	1196.732	1205.4353	1221.93	1276.8563	1310.8158	1323.2511	1398.584	1414.3934	1471.3757	1492.6804	1504.6554	1518.7564	1834.4423	2886.3545	2951.6708	3099.5301	3104.6168	3133.1237	3139.3164	3155.5083	3182.5806	3196.5455	3212.5606	3227.6409
O=CC(C1CC1)N1CC1	O=C[C@@H](C1CC1)N1CC1	
InChI=1S/C7H11NO/c9-5-7(6-1-2-6)8-3-4-8/h5-7H,1-4H2	InChI=1S/C7H11NO/c9-5-7(6-1-2-6)8-3-4-8/h5-7H,1-4H2/t7-/m0/s1
