22
gdb 62927	2.60899	1.63511	1.53574	0.1437	80.75	-0.2063	0.0798	0.2861	1026.5914	0.19556	-404.311929	-404.303598	-404.302654	-404.344007	33.871	
C	-0.1027668484	 1.4887408119	-0.0145674656	-0.441119
C	-0.0307936139	-0.0397913106	-0.0356406206	 0.327347
C	-1.431375114	-0.6113044736	 0.1451731656	-0.46987
C	 0.8624921975	-0.6396372541	-1.1624157774	 0.089453
C	 2.0397666985	-0.3898304692	-0.2028201929	-0.22549
N	 1.0617455687	-0.5095970004	 0.9439393007	-0.151109
C	 0.8974240366	-1.9547016827	 1.1887092164	-0.190307
C	 0.9477659569	-2.7923931116	-0.1250205907	-0.087746
O	 0.5996557021	-2.0324587838	-1.2882802433	-0.276483
H	 0.8723959628	 1.9668124347	-0.1252620445	 0.115956
H	-0.747066688	 1.8494261257	-0.8234257757	 0.112729
H	-0.5280356591	 1.8252808156	 0.936199342	 0.123353
H	-2.1174669194	-0.1217307953	-0.5535834312	 0.116234
H	-1.4822406392	-1.6829934027	-0.0480171728	 0.129045
H	-1.7981648638	-0.4140122793	 1.1586036998	 0.121084
H	 0.8440778243	-0.2231229742	-2.1743581917	 0.068359
H	 2.8589016745	-1.1119214364	-0.1970202362	 0.10531
H	 2.4602834782	 0.6144922639	-0.2586591773	 0.109573
H	 1.7038074325	-2.285133078	 1.8538276312	 0.103184
H	-0.0412964944	-2.1093467405	 1.7258305864	 0.11208
H	 1.9537730192	-3.2110923363	-0.2633320426	 0.100418
H	 0.2516311784	-3.6361656431	-0.0837657598	 0.108001
169.7032	177.3131	205.9155	221.4925	301.411	323.0776	390.3194	417.1179	472.6782	491.0265	524.2549	624.5566	689.9459	777.5261	824.3278	830.7257	864.2537	913.2209	926.7615	950.6293	953.9784	979.0374	1006.8824	1044.3318	1061.6647	1129.5441	1160.0476	1166.6805	1200.6424	1216.8912	1249.1827	1257.9667	1270.4564	1288.0758	1295.3399	1346.6149	1361.0444	1395.1523	1403.3165	1418.3043	1476.8047	1482.3256	1496.6098	1500.3479	1509.7379	1515.9636	1531.7142	3001.3843	3036.4834	3038.509	3042.4711	3057.972	3065.9581	3081.3388	3095.7871	3101.1678	3105.6613	3123.063	3134.4969	3141.8066
CC1(C)C2CN1CCO2	CC1(C)[C@H]2CN1CCO2	
InChI=1S/C7H13NO/c1-7(2)6-5-8(7)3-4-9-6/h6H,3-5H2,1-2H3	InChI=1S/C7H13NO/c1-7(2)6-5-8(7)3-4-9-6/h6H,3-5H2,1-2H3/t6-/m1/s1
