17
gdb 27927	2.4994	1.31929	0.87287	3.5303	80.77	-0.2256	-0.0383	0.1874	1299.3372	0.134454	-421.890159	-421.881158	-421.880214	-421.924131	32.025	
C	 0.108217498	 1.4484668194	 0.1316879931	-0.490644
C	-0.0692165008	-0.0228011447	 0.0367406318	 0.368466
C	-1.1323585465	-0.835882377	-0.1555938527	-0.388177
C	-0.6279077104	-2.1864597108	-0.1460869505	 0.096202
C	-1.4071524293	-3.4045208963	-0.3163495014	 0.066018
O	-2.6070925474	-3.432073123	-0.491527568	-0.284709
C	 0.7272911324	-2.0880383422	 0.0549102817	 0.282159
C	 1.8290106739	-3.0785975459	 0.1679653435	-0.495472
O	 1.0747569719	-0.7846364586	 0.1666221433	-0.214924
H	 0.7831810678	 1.8226970921	-0.6462904415	 0.14105
H	-0.857829098	 1.9438104165	 0.0151363574	 0.142779
H	 0.5303687969	 1.7405019061	 1.099870917	 0.141048
H	-2.1619273071	-0.5470038005	-0.2911786728	 0.134605
H	-0.8199843089	-4.3491044259	-0.2757359377	 0.057745
H	 1.4455774671	-4.0949018225	 0.0649589278	 0.14602
H	 2.5852245828	-2.9147673006	-0.6078747011	 0.148917
H	 2.3326795774	-2.9963996258	 1.1376065802	 0.148917
104.0982	122.7009	142.85	168.374	192.9483	219.9736	255.809	359.4147	376.7731	523.5753	624.9083	641.933	654.7382	662.9841	834.884	839.1742	937.4191	1010.1349	1026.8734	1030.1082	1058.2533	1067.7559	1133.617	1165.9211	1238.9121	1295.9414	1410.5255	1418.4112	1431.4524	1436.9664	1470.1421	1472.5845	1481.7795	1491.4555	1616.7781	1660.552	1780.6324	2874.2386	3032.2157	3034.9881	3083.2948	3086.422	3133.6578	3140.5449	3271.8111
CC1=CC(C=O)=C(C)O1	Cc1cc(C=O)c(C)o1	
InChI=1S/C7H8O2/c1-5-3-7(4-8)6(2)9-5/h3-4H,1-2H3	InChI=1S/C7H8O2/c1-5-3-7(4-8)6(2)9-5/h3-4H,1-2H3
