12
gdb 130609	3.73811	1.2396	0.9309	3.1048	75.71	-0.2565	-0.0829	0.1736	1137.9328	0.07645	-435.440243	-435.432945	-435.432001	-435.472243	27.079	
O	-0.0698830931	-0.0678930231	 0.0049384313	-0.355684
C	-0.0215634598	 1.1509335667	 0.0094604918	 0.378606
C	-1.2482307731	 1.9826495773	 0.0310690527	-0.062434
N	-1.3182316096	 3.2652544532	 0.0380568301	-0.037311
O	-0.12068486	 3.9683862198	 0.0243149593	-0.267637
C	 1.0689241299	 3.3111672915	 0.0044153038	 0.273579
C	 1.1785170251	 1.9600828057	-0.0034943222	-0.360434
C	 2.1698062769	 4.2063085696	-0.006881275	 0.264272
C	 3.1075131225	 4.95893407	-0.016535909	-0.356789
H	-2.211007182	 1.4782692438	 0.0424470522	 0.158878
H	 2.1535903893	 1.4919226367	-0.0193914858	 0.142924
H	 3.9375506739	 5.6229019889	-0.0250843994	 0.222031
124.1798	144.4136	146.4763	344.6301	416.8818	417.2688	476.2262	516.3241	544.6993	644.3746	686.46	690.3428	712.9479	741.633	896.3456	916.5623	928.0656	957.3298	989.9427	1173.6523	1241.169	1308.9502	1362.8675	1616.4241	1649.108	1760.9805	2240.1218	3182.7831	3229.8528	3496.7346
O=C1C=NOC(=C1)C#C	O=c1cnoc(c1)C#C	
InChI=1S/C6H3NO2/c1-2-6-3-5(8)4-7-9-6/h1,3-4H	InChI=1S/C6H3NO2/c1-2-6-3-5(8)4-7-9-6/h1,3-4H
