14
gdb 132102	3.07654	1.45847	0.99555	4.1684	70.55	-0.233	-0.0647	0.1684	1105.0764	0.100344	-478.004151	-477.996295	-477.99535	-478.037339	28.241	
C	-0.0159785381	 1.557670793	 0.0232246834	-0.505565
C	-0.0055898161	 0.0552242317	-0.0048075086	-0.044856
C	-0.1442422692	-0.6857847488	-1.1254141444	 0.384463
F	-0.3043456219	-0.1753397241	-2.322550131	-0.02916
O	-0.1380939968	-2.0003223719	-1.1733895917	-0.20603
C	 0.0243607013	-2.7514556436	 0.0249180469	 0.437766
N	 0.0134103186	-4.0009316174	-0.1468918825	-0.517665
N	 0.1714104351	-2.0490375069	 1.2060457381	-0.312879
C	 0.1548003288	-0.7542873127	 1.1710380908	-0.00662
H	 0.9224786013	 1.955246061	 0.4250432185	 0.141721
H	-0.1494205073	 1.9648345013	-0.9804970149	 0.146068
H	-0.8286658761	 1.9389362095	 0.651243603	 0.141732
H	 0.1352740892	-4.4489416483	 0.7594491403	 0.241426
H	 0.2743052112	-0.2421053928	 2.1269267822	 0.129599
64.6061	77.6619	195.4034	266.4553	266.8301	361.2016	439.3327	484.5471	535.2383	577.2796	706.693	725.6755	759.8052	804.2551	856.3806	916.8411	966.7033	992.1657	1033.3696	1074.293	1194.9909	1246.8334	1296.1114	1396.2357	1422.8478	1425.521	1489.198	1496.9544	1581.327	1728.6876	1752.958	3035.0646	3085.9891	3123.9163	3137.1785	3527.1947
CC1=C(F)OC(=N)N=C1	CC1=CN=C(O[C@@H]1F)[NH]	
InChI=1S/C5H5FN2O/c1-3-2-8-5(7)9-4(3)6/h2,7H,1H3	InChI=1S/C5H6FN2O/c1-3-2-8-5(7)9-4(3)6/h2,4,7H,1H3/t4-/m0/s1
