20
gdb 126799	2.92506	1.26079	0.96079	1.8344	83.25	-0.1973	0.0297	0.227	1280.8322	0.171693	-399.355579	-399.34576	-399.344816	-399.390749	35.25	
C	-0.1781932279	 1.483731738	-0.0161874935	-0.376041
C	 0.0395527192	-0.0310931417	-0.011035849	-0.141518
N	 0.7837029712	-0.4969225842	-1.1680264075	-0.019417
N	 0.1291444084	-0.6789266004	-2.3327005248	-0.283114
C	 1.0704781462	-1.0500127357	-3.1973062223	-0.058451
C	 2.3459315858	-1.0909228352	-2.5951413716	 0.046624
N	 3.6103740197	-1.3950787181	-3.1631462892	-0.613135
C	 2.1272819223	-0.7123015978	-1.278643139	 0.350514
C	 3.1094354861	-0.5527394521	-0.167317786	-0.51869
H	 0.7742393526	 2.0214319017	 0.0188688239	 0.123473
H	-0.7073975284	 1.7816212717	-0.9247683032	 0.145562
H	-0.7747930807	 1.7842508859	 0.850830155	 0.116258
H	 0.5798405004	-0.3447012184	 0.8866783228	 0.116017
H	-0.9214319746	-0.551786018	-0.0214576215	 0.131624
H	 0.8051300726	-1.2736915311	-4.2214652368	 0.09633
H	 3.5640899452	-1.3785889462	-4.1752150347	 0.2373
H	 3.9365072025	-2.3179271811	-2.8941876535	 0.23902
H	 4.1175102975	-0.5897068099	-0.5885665233	 0.148505
H	 2.9971159069	 0.405167887	 0.3523080691	 0.130678
H	 3.0311103048	-1.3459447944	 0.5871375753	 0.12846
48.0697	98.034	103.3111	161.1039	211.9786	224.7341	257.0165	300.9497	312.2156	403.6539	495.1509	590.527	665.1624	682.2303	712.2092	754.6958	796.0269	831.499	858.289	950.5236	974.0245	1063.0234	1066.6833	1099.259	1121.6513	1172.7077	1208.4691	1249.6067	1290.8039	1355.5087	1390.2958	1405.8718	1408.1947	1413.8733	1438.1293	1476.8923	1487.1829	1491.6973	1492.0959	1506.4619	1527.3773	1624.4315	1658.9386	3019.4199	3041.5864	3063.4837	3071.9478	3103.0477	3116.3286	3118.3048	3133.3059	3229.3278	3500.9625	3586.1341
CCN1N=CC(N)=C1C	CCn1ncc(N)c1C	
InChI=1S/C6H11N3/c1-3-9-5(2)6(7)4-8-9/h4H,3,7H2,1-2H3	InChI=1S/C6H11N3/c1-3-9-5(2)6(7)4-8-9/h4H,3,7H2,1-2H3
