16
gdb 30315	3.06948	1.64665	1.12815	3.0012	70.37	-0.206	-0.0019	0.2041	1043.2661	0.126368	-437.89957	-437.892255	-437.891311	-437.931821	27.385	
C	 0.0089689052	 1.608022193	-0.0532156835	-0.398693
C	-0.0061602315	 0.0829847918	 0.1012501607	-0.162584
C	 0.7447965392	-0.6564551653	-1.0858609379	-0.097008
O	 1.6146940819	-1.7117254962	-0.5608547413	-0.279206
C	 1.6282500774	-1.4742786117	 0.7701371755	 0.35263
C	 0.808214221	-0.5044672206	 1.2006301949	 0.208694
O	 0.9048255893	-0.4603807682	 2.5650451573	-0.192882
C	 1.8231366343	-1.4303695824	 2.8362416196	 0.04412
N	 2.2929537319	-2.0765911238	 1.8044698631	-0.348419
H	 1.0355321847	 1.984567455	-0.0998705006	 0.124546
H	-0.5127370003	 1.9117339243	-0.9670101286	 0.120238
H	-0.492054152	 2.0883555711	 0.7922936266	 0.130237
H	-1.0522352664	-0.2522961196	 0.1496662327	 0.097288
H	 0.0580823712	-1.1238353102	-1.7933111907	 0.127589
H	 1.3826550036	 0.0564442391	-1.6194899233	 0.121689
H	 2.0842387805	-1.5643333264	 3.8736713556	 0.151761
65.7581	141.9775	221.6727	267.9622	323.7046	414.2719	489.7969	599.9051	636.2879	675.7179	746.6066	750.2844	795.1691	882.4941	925.9529	944.9758	963.8143	1027.917	1088.834	1096.7233	1135.213	1144.8531	1235.8283	1260.3353	1294.5001	1332.3165	1358.7209	1378.5406	1408.7041	1457.4672	1494.0679	1498.7312	1501.2908	1517.4819	1697.5518	2989.1986	3033.8892	3047.2077	3105.3204	3113.8126	3122.1608	3281.9867
CC1COC2=C1OC=N2	C[C@H]1COc2c1ocn2	
InChI=1S/C6H7NO2/c1-4-2-8-6-5(4)9-3-7-6/h3-4H,2H2,1H3	InChI=1S/C6H7NO2/c1-4-2-8-6-5(4)9-3-7-6/h3-4H,2H2,1H3/t4-/m0/s1
