21
gdb 89494	2.84372	1.43269	1.21233	2.1312	84.62	-0.2355	0.0077	0.2432	1120.6424	0.182974	-387.076338	-387.067773	-387.066829	-387.109	34.168	
C	-0.1171533901	 1.5834106565	-0.1607424735	-0.455571
C	-0.062202287	 0.0573430842	-0.0430179539	 0.30666
C	 1.1595823306	-0.5506892417	-0.8363733628	-0.282765
C	 1.9810536628	-0.5901581093	 0.5076375712	-0.327295
C	 0.6325264815	-0.4991219387	 1.1808995445	 0.27658
C	-0.1779723807	-1.1329348922	 2.0252664775	-0.292604
C	-1.6193333872	-0.9354262059	 1.5650905411	 0.119314
O	-2.3212111684	 0.0681291025	 2.3035379771	-0.440252
C	-1.4549412776	-0.6011232774	 0.0420805974	-0.325641
H	 0.8633503689	 2.0451497244	-0.0021442876	 0.110864
H	-0.4667932731	 1.8782584876	-1.156740689	 0.118385
H	-0.8130093463	 2.0059105225	 0.5716707549	 0.112609
H	 0.9516413664	-1.5572042396	-1.2064122779	 0.108008
H	 1.5711511545	 0.0602430075	-1.6443350491	 0.098855
H	 2.5908208743	-1.4712074685	 0.7181656283	 0.113259
H	 2.6005919726	 0.304126957	 0.6254683187	 0.115626
H	 0.09442973	-1.7487833712	 2.8743844612	 0.093996
H	-2.2176374157	-1.8430080954	 1.6979606416	 0.080849
H	-1.6786338523	 0.7442617879	 2.5409897531	 0.275303
H	-2.2790824376	 0.0236266918	-0.3132473551	 0.099253
H	-1.4680382555	-1.5381394317	-0.5255441877	 0.094568
92.5911	162.4904	235.5923	251.4633	274.205	299.162	339.0772	382.8887	423.7464	505.3562	577.5933	670.3728	712.1992	771.643	791.3345	828.2892	847.3628	877.2602	904.1832	918.2818	956.3713	965.5041	1009.2941	1020.2045	1046.916	1096.4054	1126.422	1158.1754	1198.3351	1214.0258	1220.3627	1241.1041	1255.0126	1265.3392	1282.5985	1319.2336	1337.011	1408.0554	1423.2142	1468.8426	1475.1993	1485.543	1491.5355	1498.9532	1718.1988	3023.8827	3040.049	3053.914	3056.9821	3058.9315	3089.7639	3096.4738	3100.9373	3108.4782	3124.4895	3198.8067	3816.5316
CC12CCC1=CC(O)C2	C[C@@]12CC[C]1[CH][C@@H](O)C2	
InChI=1S/C8H12O/c1-8-3-2-6(8)4-7(9)5-8/h4,7,9H,2-3,5H2,1H3	InChI=1S/C8H12O/c1-8-3-2-6(8)4-7(9)5-8/h4,7,9H,2-3,5H2,1H3/t7-,8+/m1/s1
