17
gdb 18792	3.48287	2.43653	2.16109	0.4991	66.69	-0.2103	0.0692	0.2794	729.5967	0.143782	-363.788425	-363.782182	-363.781237	-363.818438	25.28	
C	-0.2288595738	 1.5751825873	-0.0294717206	-0.42075
C	 0.0283823334	 0.0824614527	-0.034974846	 0.054556
C	 0.6362727889	-0.5916929478	-1.2815934543	 0.071262
O	 1.7916999274	 0.1366507982	-1.7656657341	-0.305707
C	 2.6397392095	-0.4404860312	-0.7414580393	 0.094586
C	 2.4381364629	 0.2568902198	 0.6114879853	-0.189428
N	 1.1383177462	-0.4760828783	 0.8446099911	-0.184778
C	 1.5145411005	-1.41104602	-0.3130182082	-0.044375
H	 0.5781480327	 2.1192698543	-0.5256116814	 0.134422
H	-1.1596313692	 1.7991816098	-0.5609352881	 0.118899
H	-0.3290708185	 1.9452290473	 0.9964203825	 0.125968
H	-0.878563009	-0.4612604876	 0.2591273888	 0.083381
H	 0.0046553582	-0.9531051327	-2.0968280632	 0.076621
H	 3.6360475807	-0.6831771827	-1.1181770968	 0.080211
H	 3.1644727267	-0.0790760868	 1.3599604731	 0.109785
H	 2.3900340163	 1.3482011953	 0.6222247887	 0.112336
H	 1.5540808173	-2.4877917077	-0.1640162277	 0.083011
179.723	212.4114	264.8351	413.0472	432.7136	565.467	676.4192	697.2281	766.0139	817.3915	836.0889	862.6938	868.8604	928.5109	941.6696	973.6927	999.4851	1003.0484	1066.4817	1078.3832	1120.8734	1151.3285	1177.9901	1185.7628	1198.5783	1217.1097	1258.4412	1284.4139	1289.8668	1307.5715	1345.1294	1370.5155	1402.6658	1480.9789	1486.5643	1511.1124	3021.1983	3038.2105	3041.534	3076.8218	3082.4033	3102.5938	3110.4494	3127.0557	3139.7145
CC1C2OC3CN1C23	C[C@H]1[C@H]2O[C@H]3CN1[C@@H]23	
InChI=1S/C6H9NO/c1-3-6-5-4(8-6)2-7(3)5/h3-6H,2H2,1H3	InChI=1S/C6H9NO/c1-3-6-5-4(8-6)2-7(3)5/h3-6H,2H2,1H3/t3-,4-,5+,6+/m0/s1
