14
gdb 56953	3.90458	1.04117	0.90536	4.4055	68.76	-0.2818	-0.0092	0.2726	1225.9749	0.098277	-436.623262	-436.614495	-436.613551	-436.65724	31.457	
O	-0.151562409	 1.3418469625	-0.164949568	-0.397125
C	-0.0069575791	-0.0487367586	-0.1117786263	-0.048569
C	 0.8313382944	-0.5531133839	-1.2292847268	 0.256866
N	 1.4861462941	-0.9523974376	-2.093090828	-0.308635
C	 0.6017904917	-0.5219030835	 1.2136361533	 0.031097
O	 1.4117025242	 0.4454918426	 1.8679410744	-0.244412
C	 0.1855533047	 0.0260136644	 2.5208158927	-0.161875
C	-0.864572204	 0.9864364543	 2.7077566495	 0.333564
C	-1.7585713763	 1.7524062181	 2.947356157	-0.400909
H	 0.591074404	 1.7148504323	 0.332830143	 0.305718
H	-1.0040988432	-0.492210907	-0.2249705761	 0.152635
H	 1.0090183997	-1.5324363293	 1.1934981961	 0.131797
H	 0.37293979	-0.609854861	 3.3854549928	 0.136016
H	-2.5477258212	 2.4399218467	 3.1314301164	 0.213832
48.2421	106.5318	158.5896	196.2193	249.6248	270.1208	327.1068	431.7613	448.5777	539.1217	573.9414	589.008	643.6888	689.0186	705.7716	810.9622	832.5382	912.7209	971.6823	1010.4194	1085.2535	1134.3748	1150.3053	1254.5618	1292.9981	1320.9272	1381.3445	1435.5563	1443.714	2244.5144	2357.0922	3045.117	3115.8851	3126.6111	3499.2295	3735.386
OC(C#N)C1OC1C#C	O[C@@H](C#N)[C@H]1O[C@H]1C#C	
InChI=1S/C6H5NO2/c1-2-5-6(9-5)4(8)3-7/h1,4-6,8H	InChI=1S/C6H5NO2/c1-2-5-6(9-5)4(8)3-7/h1,4-6,8H/t4-,5-,6+/m0/s1
