18
gdb 7562	3.07525	1.60358	1.54058	2.8292	67.45	-0.2482	-0.0196	0.2286	945.8469	0.151437	-384.938835	-384.929931	-384.928987	-384.973152	31.237	
C	 0.2714945269	 1.4836727782	 0.0278295888	-0.486909
C	-0.1743267238	 0.0312369531	 0.0405098661	 0.324683
O	-0.6508789036	-0.4789672808	 1.0287923298	-0.303117
C	-0.0090859265	-0.7646417351	-1.2499350404	 0.190172
C	-1.1379707057	-0.4152233593	-2.226771357	-0.466828
C	 1.4069867091	-0.794011053	-1.8912373633	-0.119395
O	 1.4731987467	-2.2237912049	-1.7748888918	-0.270717
C	 0.220969883	-2.280247692	-1.0550633548	-0.113863
H	 1.3666645228	 1.5294447035	 0.0497197878	 0.149781
H	-0.0504902952	 2.0025410005	-0.8800380169	 0.135456
H	-0.1177579735	 1.9930140853	 0.9100811898	 0.147266
H	-1.1247730086	 0.6439992394	-2.5036721838	 0.12244
H	-1.0326032627	-1.0023179253	-3.1443403789	 0.134141
H	-2.1148268435	-0.6404012337	-1.7868683667	 0.137329
H	 1.4638253555	-0.4563499009	-2.9339036138	 0.10151
H	 2.2000059852	-0.2980215422	-1.3149959673	 0.096763
H	 0.3491783114	-2.5860646568	-0.0117697489	 0.120385
H	-0.5029563475	-2.942677846	-1.5434741089	 0.100905
42.8762	64.828	112.5302	201.8741	235.1359	243.827	324.1088	337.3168	423.3019	516.9121	606.7184	620.6573	839.6782	861.8874	924.4007	941.6398	957.0568	998.3805	1012.1896	1034.4505	1041.9307	1142.6365	1154.4827	1163.1162	1185.017	1220.4611	1300.3386	1308.8643	1372.0381	1383.0741	1411.708	1462.8638	1475.7404	1493.6976	1496.9169	1516.3435	1538.4196	1802.6621	2998.6534	3029.5695	3034.1667	3040.6857	3044.6624	3083.5607	3101.7065	3107.3797	3109.1308	3153.7302
CC(=O)C1(C)COC1	CC(=O)C1(C)COC1	
InChI=1S/C6H10O2/c1-5(7)6(2)3-8-4-6/h3-4H2,1-2H3	InChI=1S/C6H10O2/c1-5(7)6(2)3-8-4-6/h3-4H2,1-2H3
