16
gdb 108462	2.42327	1.74917	1.24401	3.7287	66.07	-0.259	-0.0034	0.2556	1010.2629	0.124221	-474.981117	-474.973276	-474.972332	-475.01362	29.386	
O	-0.1192479961	 1.4352246819	-0.0690857906	-0.416862
C	-0.0475932258	 0.0539946698	 0.2075955774	-0.153123
C	-1.4058918839	-0.5882476774	 0.0684561207	 0.298256
O	-2.3446577216	-0.3282478992	 1.1398881324	-0.313482
C	-2.7641662931	-1.7151526428	 1.1829210069	-0.102071
C	-1.8605673795	-2.0691183975	 0.0018390931	-0.022013
O	-2.5050797339	-1.8150248397	-1.2875790631	-0.272064
C	-2.0754745054	-0.501023178	-1.2931937919	 0.430178
N	-2.1648004253	 0.4083117184	-2.1516260658	-0.568242
H	-0.5687947529	 1.5390332848	-0.920581877	 0.306324
H	 0.6564039723	-0.4720873319	-0.459969139	 0.094152
H	 0.3145251596	-0.0527254751	 1.234794294	 0.118463
H	-2.4764734235	-2.1853674202	 2.1305183646	 0.11985
H	-3.8363894484	-1.8450747149	 1.0067432758	 0.12667
H	-1.246645423	-2.9664116992	-0.0190096832	 0.115788
H	-2.6776694596	 0.1216614611	-2.9864965742	 0.238176
107.7373	133.3707	162.5957	240.8168	284.9511	340.707	422.8584	483.4742	498.3535	638.7159	718.5975	729.8001	834.0491	860.5362	868.1666	916.1162	969.7551	998.1965	1016.2354	1040.2641	1071.9802	1087.8313	1118.5804	1152.0278	1168.1316	1225.8609	1256.3767	1298.4063	1336.0727	1356.5716	1392.3555	1456.8655	1490.6483	1501.7006	1819.078	2960.3821	3032.8255	3082.3611	3093.1823	3150.2648	3482.6465	3727.1488
OCC12OCC1OC2=N	OC[C@]12OC[C@H]1O[C]2[NH]	
InChI=1S/C5H7NO3/c6-4-5(2-7)3(9-4)1-8-5/h3,6-7H,1-2H2	InChI=1S/C5H7NO3/c6-4-5(2-7)3(9-4)1-8-5/h3,6-7H,1-2H2/t3-,5+/m1/s1
