16
gdb 64582	3.97773	1.21529	1.18076	2.5038	70.19	-0.2565	-0.0312	0.2253	1061.2773	0.123894	-437.88945	-437.881513	-437.880569	-437.922397	29.025	
C	-0.0469742903	 1.5758205738	 0.0344094759	-0.47726
C	 0.0276215573	 0.0675682989	 0.0476810329	 0.144288
C	-1.1366906761	-0.648203608	-0.5363429396	 0.12978
O	-2.1190710017	-0.1087958603	-0.9823604426	-0.264707
C	 1.3359179514	-0.6923096014	-0.1506742511	 0.016854
O	 2.5204389096	 0.0601706139	 0.0461425675	-0.200849
C	 2.5119977546	 0.3938787723	 1.3641716543	 0.095489
N	 1.5541958276	-0.0239443437	 2.0919856359	-0.249784
C	 0.6843589984	-0.7471668188	 1.2031032809	-0.08039
H	 0.221805221	 1.9704475576	-0.9498092091	 0.133102
H	-1.0729151012	 1.8840785613	 0.2469800411	 0.147894
H	 0.6113499733	 2.0259954026	 0.7787464364	 0.134179
H	-1.0474742607	-1.7603540018	-0.5336269928	 0.067714
H	 1.4520152829	-1.4829207401	-0.880881196	 0.127842
H	 3.3473147656	 1.0019724163	 1.686888955	 0.156923
H	 0.1499422382	-1.5930415324	 1.6167911013	 0.118925
64.5583	108.3358	189.5206	212.0638	289.0005	316.8219	381.2774	491.9933	530.132	673.4077	736.533	760.6593	844.3566	865.9099	888.203	942.2176	972.8311	998.1787	1046.1227	1050.2439	1081.1556	1088.3685	1111.0489	1123.7746	1191.8101	1282.6024	1320.2409	1334.1236	1371.9451	1417.0281	1446.2759	1487.2318	1495.4656	1655.7694	1813.9609	2849.1311	3056.3829	3122.8921	3143.4659	3189.6693	3196.9635	3241.5324
CC1(C=O)C2OC=NC12	C[C@@]1(C=O)[C@H]2OC=N[C@@H]12	
InChI=1S/C6H7NO2/c1-6(2-8)4-5(6)9-3-7-4/h2-5H,1H3	InChI=1S/C6H7NO2/c1-6(2-8)4-5(6)9-3-7-4/h2-5H,1H3/t4-,5+,6+/m1/s1
