18
gdb 48602	2.63409	1.47944	1.23484	1.8151	77.49	-0.2303	-0.0403	0.19	1073.461	0.147018	-401.851295	-401.843365	-401.842421	-401.884108	30.424	
O	 0.0562474221	-0.1662632915	-0.1578820582	-0.243254
C	 0.0593337817	 1.039849272	-0.1384499939	 0.031298
C	 1.2988269416	 1.871762208	-0.0965837809	 0.124096
C	 1.7288341687	 2.9499626534	 0.9406160662	-0.21004
N	 2.9031435814	 2.9793820218	-0.0587103001	-0.185569
C	 2.7780320058	 1.4364912607	-0.0443826957	-0.204436
C	 1.8094969562	 2.915848395	-1.1115158909	 0.407529
C	 1.9980334837	 2.9529866369	-2.579963282	-0.373287
C	 1.2318242825	 4.0636702443	-1.8497186788	-0.37845
H	-0.8935839799	 1.6192822678	-0.1529099419	 0.073617
H	 1.1647109359	 3.8835809822	 0.9789495671	 0.113603
H	 2.0128227338	 2.5974265657	 1.9352357656	 0.111084
H	 3.1408373674	 0.9834052835	 0.8807093996	 0.109439
H	 3.2000406311	 0.957604156	-0.9287862604	 0.1171
H	 2.9866272831	 3.1948329829	-2.956349644	 0.131972
H	 1.4306742392	 2.2688905164	-3.2027867486	 0.124287
H	 0.1575956552	 4.1189997544	-1.9940811996	 0.119712
H	 1.7245035405	 5.0255129803	-1.7505405935	 0.131299
56.0924	150.9344	190.4529	240.7902	266.9596	332.4258	463.1277	500.6174	609.7997	626.605	712.7873	741.4615	769.0032	812.6551	893.7004	899.0031	911.5499	959.0304	988.0435	1023.445	1038.39	1045.7916	1080.8543	1104.1816	1105.4002	1136.0908	1156.7803	1178.8323	1180.8496	1196.312	1269.7342	1296.1227	1389.0525	1423.3381	1451.4378	1503.3937	1505.4469	1546.1157	1815.6117	2854.8491	3062.8547	3073.4767	3126.9844	3129.4855	3138.0581	3147.1099	3207.7161	3220.6185
O=CC12CN(C1)C21CC1	O=C[C@@]12CN(C1)C12CC1	
InChI=1S/C7H9NO/c9-5-6-3-8(4-6)7(6)1-2-7/h5H,1-4H2	InChI=1S/C7H9NO/c9-5-6-3-8(4-6)7(6)1-2-7/h5H,1-4H2
