21
gdb 72212	3.21649	1.56823	1.306	0.4443	87.58	-0.2189	0.0259	0.2448	1059.885	0.185055	-349.950525	-349.943016	-349.942071	-349.981843	31.352	
C	-0.0718940541	 1.563474326	 0.0128832744	-0.50135
C	 0.0011392735	 0.0647910541	-0.0410998247	 0.347461
C	 0.7589096086	-0.7371453562	-1.1042880965	-0.299014
C	-0.3267290485	-1.865900413	-1.0131922437	-0.021019
C	 0.1657637147	-3.2031162353	-0.4531766113	-0.264009
C	 0.8084005429	-3.0296155361	 0.9019498683	-0.078374
C	 0.6378125401	-1.9251436326	 1.6320447601	-0.055482
C	-0.2396769526	-0.8094777538	 1.1943977135	-0.110156
C	-1.1104938398	-0.9787310446	-0.0211505498	-0.137371
H	 0.8894948169	 1.9999250464	 0.3108434565	 0.11901
H	-0.3346088275	 1.9830731531	-0.9657404709	 0.113884
H	-0.8248032901	 1.9012727126	 0.7329593269	 0.115452
H	 0.7454012741	-0.2354010941	-2.0759307069	 0.094201
H	 1.7886784485	-1.0257487881	-0.869072248	 0.093306
H	-0.8498572791	-2.0100238026	-1.9611884634	 0.06613
H	-0.6615908565	-3.9265367667	-0.3926369631	 0.103003
H	 0.890944638	-3.6447824855	-1.1504913703	 0.100454
H	 1.436130737	-3.8370619433	 1.2696707689	 0.08136
H	 1.1353794636	-1.822922096	 2.5931601469	 0.07958
H	-0.7010860872	-0.2440532956	 1.9999619799	 0.07851
H	-2.1862176223	-0.8464322188	 0.0073349032	 0.074424
188.007	201.5731	226.4406	264.3774	358.9297	371.0367	480.9713	508.2489	557.9416	618.6397	676.1967	751.122	794.5753	816.2584	854.5086	892.7611	917.9531	936.6794	957.8906	968.4325	982.2614	993.117	1023.8288	1053.9026	1062.7276	1096.9494	1106.2562	1153.7569	1179.5072	1207.6916	1234.3969	1236.6904	1260.5536	1304.8312	1321.0295	1324.6786	1372.4377	1414.4102	1416.8025	1450.8129	1469.5984	1485.4108	1489.9	1499.5567	1708.2011	2992.5433	3016.2231	3024.5638	3042.7269	3072.725	3074.0307	3091.357	3096.9307	3138.1413	3148.2864	3168.872	3171.5324
CC12CC3CC=CC1C23	C[C@@]12C[C@H]3CC=C[C@@H]1[C@@H]23	
InChI=1S/C9H12/c1-9-5-6-3-2-4-7(9)8(6)9/h2,4,6-8H,3,5H2,1H3	InChI=1S/C9H12/c1-9-5-6-3-2-4-7(9)8(6)9/h2,4,6-8H,3,5H2,1H3/t6-,7-,8+,9-/m1/s1
