17
gdb 48704	4.70156	1.04115	0.99179	4.0148	75.75	-0.2551	-0.041	0.2142	1216.9945	0.134076	-421.77431	-421.766278	-421.765334	-421.807096	30.332	
O	-0.0115707532	 0.1773221924	-0.693234402	-0.25483
C	 0.1232977402	 1.0592007975	 0.116548927	 0.055065
C	 1.2886435125	 1.9674765821	 0.193304229	 0.323211
C	 1.6556788393	 2.99142655	 1.2879993747	-0.400839
C	 2.1773208228	 3.9201484895	 0.1638579634	 0.367648
C	 1.9425880534	 5.3964762926	 0.0416002252	-0.329004
C	 3.349547424	 4.8525435772	 0.153481077	-0.316264
C	 1.8144985911	 2.8779563123	-0.8729101796	-0.111065
O	 2.4734163255	 1.6658045326	-0.5432910939	-0.255723
H	-0.6555646899	 1.2787751665	 0.8818406923	 0.074955
H	 0.7791861117	 3.3969053942	 1.8013890111	 0.117482
H	 2.3852429037	 2.6341757945	 2.0184400361	 0.120265
H	 1.6193048367	 5.7840260726	-0.9194581618	 0.120575
H	 1.5216156886	 5.9174651221	 0.8953066477	 0.119375
H	 3.8796756452	 5.0013669791	 1.088331974	 0.122651
H	 3.9829273232	 4.8731188319	-0.7268834116	 0.124233
H	 1.4734506952	 3.001499843	-1.8954916386	 0.122266
78.5962	119.004	187.9239	254.0984	276.9435	314.7583	389.6606	437.3106	520.8595	633.9518	756.3966	771.2385	802.3551	848.2872	859.8705	903.8648	920.6528	962.4381	978.5892	992.7256	1040.9906	1056.9066	1067.4425	1080.7809	1128.1957	1171.4141	1186.6309	1211.0807	1242.4902	1256.8765	1390.7291	1399.5401	1432.591	1465.0927	1470.1962	1505.5906	1816.6286	2873.8946	3059.8396	3118.9539	3125.9205	3133.2276	3181.068	3205.6519	3221.3982
O=CC12CC3(CC3)C1O2	O=C[C@]12CC3(CC3)[C@H]1O2	
InChI=1S/C7H8O2/c8-4-7-3-6(1-2-6)5(7)9-7/h4-5H,1-3H2	InChI=1S/C7H8O2/c8-4-7-3-6(1-2-6)5(7)9-7/h4-5H,1-3H2/t5-,7-/m1/s1
