19
gdb 116833	11.99537	0.36734	0.3596	1.4459	102.74	-0.2272	-0.0129	0.2143	2991.3901	0.156655	-385.842071	-385.831032	-385.830088	-385.880489	37.179	
C	-0.0296556438	 1.5684959373	-0.0080550139	-0.381621
C	-0.0014487842	 0.0390416905	-0.0042151398	-0.15692
C	 0.7338947778	-0.5280754922	 1.2296431128	-0.37219
C	 0.773604342	-1.9818717011	 1.2554761606	 0.199201
C	 0.7959233678	-3.1927531356	 1.2587415356	-0.103915
C	 0.8218820896	-4.5521143141	 1.2642936755	-0.224901
C	 0.8469924954	-5.761959068	 1.2723699745	 0.314865
C	 0.855788207	-7.2163556811	 1.2457926267	-0.245424
O	 1.5426341491	-7.7155157039	 2.3869843305	-0.40805
H	 0.9835463789	 1.9853679948	-0.0174709317	 0.117686
H	-0.5541996159	 1.9493129137	-0.8892914522	 0.116991
H	-0.5407702506	 1.9595154799	 0.8786877194	 0.117687
H	-1.0220993624	-0.3584650688	-0.0204817857	 0.113343
H	 0.4900198397	-0.3328032545	-0.9098626853	 0.11335
H	 1.7593761778	-0.1341078998	 1.2540925745	 0.133151
H	 0.2474826332	-0.1595981518	 2.1434561222	 0.133135
H	-0.1854090262	-7.5787513753	 1.2157083729	 0.121324
H	 1.3355317962	-7.5530833641	 0.311539582	 0.121326
H	 1.5239877985	-8.6766968157	 2.3337273613	 0.290962
20.3183	49.8451	61.545	114.9087	116.5336	212.2703	233.1447	238.7761	259.3261	314.5582	386.5288	398.47	536.6157	576.1254	576.8062	680.2171	743.7078	872.1204	879.8741	951.9466	1021.621	1042.1518	1058.052	1105.5149	1121.1727	1239.4367	1242.4819	1258.3745	1278.9649	1315.0295	1322.991	1381.8922	1412.1762	1459.9986	1469.642	1491.4443	1497.5936	1498.4027	1508.0381	2277.8181	2384.7102	2957.4955	2975.006	3007.1161	3030.8733	3034.9737	3044.6652	3076.2777	3102.5655	3107.3799	3815.9537
CCCC#CC#CCO	CCCC#CC#CCO	
InChI=1S/C8H10O/c1-2-3-4-5-6-7-8-9/h9H,2-3,8H2,1H3	InChI=1S/C8H10O/c1-2-3-4-5-6-7-8-9/h9H,2-3,8H2,1H3
