13
gdb 130553	3.72252	1.33898	0.98476	1.7248	74.89	-0.2667	-0.0726	0.1942	1103.445	0.089661	-415.608532	-415.601096	-415.600152	-415.640919	27.133	
O	 0.0128824492	-0.0290513318	 0.0040390933	-0.311646
C	-0.0160727141	 1.1789574583	 0.0076682956	 0.298969
C	 1.1600220929	 2.0136273105	 0.0014978035	 0.247995
C	 2.2045883455	 2.6075041965	-0.0044358867	-0.375635
N	-1.2417949839	 1.8724482937	 0.0184212867	-0.032862
C	-2.4860295106	 1.2928132262	 0.0257526687	 0.014086
C	-3.3888853685	 2.3184350172	 0.0351119625	-0.251301
C	-2.5942406193	 3.5007463924	 0.0326778789	 0.015531
N	-1.3032483014	 3.2339600844	 0.0226788293	-0.243922
H	 3.1187961792	 3.1498290761	-0.0099438869	 0.218456
H	-2.5866437728	 0.2208685473	 0.0234849614	 0.167786
H	-4.4640157742	 2.2416110595	 0.0426333935	 0.122509
H	-2.9268567221	 4.5289463996	 0.0379343102	 0.130036
80.1092	136.0859	159.4126	259.2764	275.5189	460.4818	520.2061	610.8679	660.5271	664.5542	687.464	712.2919	765.5337	795.0227	880.6195	917.1068	925.1166	942.0443	1045.4872	1061.6449	1123.4791	1236.3978	1282.8155	1376.6377	1425.536	1451.7581	1580.1928	1778.4485	2233.0133	3243.5003	3270.8153	3298.0387	3496.7793
O=C(C#C)N1C=CC=N1	O=C(C#C)n1cccn1	
InChI=1S/C6H4N2O/c1-2-6(9)8-5-3-4-7-8/h1,3-5H	InChI=1S/C6H4N2O/c1-2-6(9)8-5-3-4-7-8/h1,3-5H
