15
gdb 32716	6.96347	0.76839	0.6951	4.576	79.6	-0.215	-0.033	0.182	1548.7091	0.112607	-453.968923	-453.960569	-453.959625	-454.003388	28.575	
C	 0.1832104776	 1.3697857763	-0.1097794249	-0.251822
O	-0.1788886651	 0.0176127091	 0.1615982118	-0.184017
C	 0.5953741028	-0.6272186837	 1.0414332161	 0.110664
N	 0.3339912822	-1.8354032714	 1.3324580497	-0.338769
C	 1.0981284549	-2.5257235945	 2.2222880217	 0.405749
C	 1.014363778	-3.8041093216	 2.6829882431	-0.183784
N	 2.0361098376	-4.0434293207	 3.5909361225	-0.254993
C	 2.6823582703	-2.9262755179	 3.6423849894	 0.072611
O	 2.1907091019	-1.9448920096	 2.848197657	-0.190249
H	 1.189806085	 1.4329952632	-0.5387788635	 0.135349
H	-0.5413063577	 1.7387078926	-0.8357306759	 0.153633
H	 0.1325208966	 1.9841054738	 0.7964829868	 0.135343
H	 1.4246341092	-0.0453290061	 1.4581020948	 0.112805
H	 0.2884767785	-4.5546600456	 2.4174635959	 0.130421
H	 3.5528866781	-2.681906364	 4.2311875654	 0.147058
39.6075	84.1151	114.2213	163.3058	190.8086	324.6925	379.4245	412.4909	535.4051	662.4327	702.0801	798.4963	818.9537	857.7914	925.1844	967.5905	977.8306	1054.2257	1116.5442	1126.9214	1165.9961	1176.1136	1240.3697	1265.1534	1298.2142	1340.9477	1402.5105	1482.522	1494.6041	1498.2431	1547.6242	1646.131	1735.8895	3021.3451	3068.3719	3089.3037	3153.8984	3270.5708	3278.7723
COC=NC1=CN=CO1	COC=Nc1cnco1	
InChI=1S/C5H6N2O2/c1-8-4-7-5-2-6-3-9-5/h2-4H,1H3	InChI=1S/C5H6N2O2/c1-8-4-7-5-2-6-3-9-5/h2-4H,1H3
