22
gdb 87991	2.52984	1.27695	1.19499	2.672	82.7	-0.2306	0.0655	0.2961	1211.9115	0.192531	-404.322538	-404.312713	-404.311769	-404.356584	37.652	
C	 0.0502729656	 1.3682849689	-0.3802691277	-0.394853
C	 0.2556983339	-0.0952237568	-0.0717360526	-0.082737
N	 1.6316223256	-0.5181028638	 0.2649048433	-0.385381
C	 0.5866167943	-0.5891429449	 1.2825082877	 0.329224
C	 0.734300048	 0.0883996387	 2.6484124832	-0.305835
C	 0.6812786994	-1.3280674158	 3.298547189	-0.280787
C	 0.1663492972	-1.9158835212	 1.9439834922	 0.339138
C	-1.3348068544	-2.1833949706	 1.9165168198	-0.452933
O	 0.8923599822	-3.0050653013	 1.4033541264	-0.481279
H	 0.6602336898	 1.9897488345	 0.2806206086	 0.125331
H	 0.3371274708	 1.5940829787	-1.4130672802	 0.118943
H	-1.0002945478	 1.6523502686	-0.2522386476	 0.110198
H	-0.323856791	-0.7794557532	-0.6927539164	 0.076091
H	 1.8086469969	-1.4596797344	-0.081351966	 0.240371
H	 1.6553555878	 0.6556629113	 2.7906636212	 0.113371
H	-0.1189962484	 0.7186636799	 2.9165179627	 0.099545
H	 1.6790083756	-1.7128690767	 3.519244891	 0.112055
H	 0.0381675188	-1.4587489923	 4.1728693007	 0.088478
H	-1.8979676994	-1.3193065076	 2.2815716098	 0.124677
H	-1.6695191729	-2.405778575	 0.8984788177	 0.122384
H	-1.5886510144	-3.0365962233	 2.5593418803	 0.105791
H	 0.5010276823	-3.8257507338	 1.719350077	 0.27821
85.4984	142.2625	171.5772	190.6214	208.855	264.8984	271.6295	287.5995	336.7122	402.4131	434.6023	482.6326	548.8154	575.3892	671.9192	758.8306	802.2152	869.4219	892.9044	919.7814	943.6342	956.4752	975.9096	1017.0307	1043.026	1080.2871	1089.599	1127.0596	1140.3493	1178.5221	1198.8758	1221.3189	1242.6772	1249.1866	1258.6941	1283.537	1351.5423	1372.2376	1408.354	1411.0607	1466.4562	1472.5116	1486.9159	1490.2196	1492.8574	1496.7208	1511.3004	3018.6247	3031.4943	3056.9477	3063.088	3087.606	3092.5081	3093.7047	3113.4452	3115.3177	3121.8064	3130.5669	3485.4499	3815.832
CC1NC11CCC1(C)O	C[C@H]1N[C@]21CC[C@]2(C)O	
InChI=1S/C7H13NO/c1-5-7(8-5)4-3-6(7,2)9/h5,8-9H,3-4H2,1-2H3	InChI=1S/C7H13NO/c1-5-7(8-5)4-3-6(7,2)9/h5,8-9H,3-4H2,1-2H3/t5-,6+,7+/m1/s1
