23
gdb 116164	3.01306	0.99385	0.79149	0.3749	82.07	-0.2407	0.0718	0.3125	1502.2733	0.206355	-425.438395	-425.428815	-425.427871	-425.472719	36.473	
C	-0.0876535388	 1.5530304074	 0.0861561802	-0.39339
C	 0.0139338888	 0.0263460743	-0.0087268897	-0.182329
C	 0.7419391716	-0.4943246757	-1.2579799889	 0.01061
C	 2.2277655935	-0.1062184219	-1.2772943493	-0.073884
O	 2.9031866341	-0.6133211076	-2.4176550596	-0.246557
C	 2.8685347933	-2.0256491948	-2.4737615713	-0.101658
C	 1.4292466033	-2.5501931277	-2.5628611696	 0.087872
O	 1.3939415601	-3.9701452761	-2.5176818355	-0.430971
C	 0.6227252531	-2.0233834067	-1.3799907554	-0.210287
H	 0.8941998066	 2.0269553515	 0.1821833622	 0.120178
H	-0.5723972013	 1.972572064	-0.8024714675	 0.116166
H	-0.6787831016	 1.8506955628	 0.9577452786	 0.114311
H	 0.5136398622	-0.3669123138	 0.8873619827	 0.095432
H	-0.9969584153	-0.4003220548	 0.0012627752	 0.096749
H	 0.2785211049	-0.0393111007	-2.145560474	 0.07516
H	 2.3579545527	 0.9781987547	-1.3161333872	 0.105915
H	 2.7145460273	-0.4740206749	-0.3556072982	 0.081811
H	 3.4489293965	-2.3162067134	-3.3569171726	 0.091617
H	 3.3490454737	-2.4721318119	-1.5861559953	 0.089922
H	 0.9825523482	-2.1761747088	-3.4983414785	 0.069385
H	 1.8265223148	-4.3067113786	-3.309119016	 0.282876
H	 1.0080809779	-2.5003305662	-0.4678838822	 0.101385
H	-0.4250840956	-2.3275008412	-1.478316598	 0.099687
71.6191	122.7754	158.4778	192.8061	237.7044	285.2707	307.0943	315.7406	366.0166	414.3878	440.6943	466.539	501.4695	586.7603	767.6781	865.3359	876.4377	920.979	930.7932	953.3453	983.6303	1033.4513	1044.1359	1073.059	1089.9564	1121.3422	1139.8099	1153.3188	1180.7146	1202.4352	1243.6827	1280.8816	1289.2961	1312.6675	1324.5725	1342.5036	1345.6572	1365.6833	1391.6464	1400.9945	1413.0777	1414.5545	1439.9406	1482.7798	1489.243	1491.2636	1500.0449	1503.2899	1508.3498	2941.9999	2960.6399	2974.2602	3000.7701	3012.3425	3021.5299	3033.6295	3046.6075	3061.3582	3071.5584	3091.1852	3100.2436	3106.3657	3813.1531
CCC1COCC(O)C1	CC[C@H]1COC[C@@H](O)C1	
InChI=1S/C7H14O2/c1-2-6-3-7(8)5-9-4-6/h6-8H,2-5H2,1H3	InChI=1S/C7H14O2/c1-2-6-3-7(8)5-9-4-6/h6-8H,2-5H2,1H3/t6-,7+/m1/s1
