15
gdb 13657	5.95848	0.88407	0.81486	3.5347	77.38	-0.2473	-0.0644	0.1829	1353.6007	0.116812	-362.604547	-362.596052	-362.595108	-362.638519	28.948	
C	-0.0731360561	 1.4371554068	-0.3092853146	-0.31434
N	 0.0574725343	 0.0065758867	-0.0588260292	-0.070947
C	 1.3906133507	-0.5476130477	-0.0742209149	-0.233314
C	 0.6381664027	-0.4302392088	 1.2276966661	-0.184538
C	 1.0841528239	 0.5055561453	 2.2127980814	 0.154762
C	 1.4241274976	 1.274890981	 3.0836633642	-0.006636
C	 1.8455661434	 2.214767596	 4.0855416786	 0.018334
O	 2.0111457807	 1.9470652288	 5.254624854	-0.232469
H	 0.7640694253	 2.0350301847	 0.0794009113	 0.114729
H	-0.1390702533	 1.5878598224	-1.3906205966	 0.132575
H	-0.9986392928	 1.7983994264	 0.1476572242	 0.135542
H	 1.5038038003	-1.530759552	-0.5227248487	 0.13267
H	 2.2325777012	 0.1289961228	-0.2113318163	 0.126179
H	 0.172497815	-1.3269389706	 1.6287270499	 0.130578
H	 2.0148401571	 3.2403639482	 3.6975923508	 0.096876
56.0475	83.5273	118.7177	179.9441	203.5335	267.9542	350.606	383.7865	485.7619	574.1491	631.8943	735.9267	790.3701	875.0947	975.2103	1015.2614	1018.6845	1060.9205	1112.4791	1123.4891	1159.7423	1202.8372	1208.9551	1321.771	1371.4652	1422.2224	1448.4955	1489.0737	1492.5604	1506.1592	1760.9834	2307.1863	2912.9266	2997.0342	3084.7128	3097.2142	3118.6294	3139.1704	3190.1361
CN1CC1C#CC=O	CN1C[C@H]1C#CC=O	
InChI=1S/C6H7NO/c1-7-5-6(7)3-2-4-8/h4,6H,5H2,1H3	InChI=1S/C6H7NO/c1-7-5-6(7)3-2-4-8/h4,6H,5H2,1H3/t6-,7?/m1/s1
