18
gdb 58493	2.30354	1.29567	1.08143	5.8208	72.92	-0.2707	0.0221	0.2927	1191.3075	0.145256	-439.083135	-439.073481	-439.072537	-439.117436	35.794	
C	 0.0756353638	 1.4756945948	-0.3031362072	-0.414683
C	 0.0429479958	 0.024291946	 0.1893333162	 0.08687
O	 0.5285371345	-0.0853729966	 1.5152348997	-0.432702
C	-1.3582524928	-0.5652706949	 0.1152185338	 0.379722
O	-2.2408718835	 0.0000583478	 1.0526508436	-0.474785
C	-1.9353011019	-1.0840701549	-1.1643848526	-0.350953
C	-1.5681860919	-2.0575228683	-0.0408273241	-0.224282
C	-0.4593920354	-2.9533863281	-0.2060509953	 0.305632
N	 0.4289918873	-3.6789036133	-0.3566741088	-0.344534
H	 1.0872509669	 1.8740581431	-0.1983826811	 0.137935
H	-0.2235184994	 1.550901416	-1.3539052732	 0.116317
H	-0.5916148759	 2.1080383826	 0.2944827737	 0.102385
H	 0.7136552381	-0.5815793438	-0.4293320735	 0.10964
H	-0.1924003409	 0.1958654089	 2.0928901512	 0.28537
H	-2.5550764025	 0.8409832701	 0.7010129422	 0.295481
H	-2.994974995	-0.9399696734	-1.3414258716	 0.132111
H	-1.3097740529	-1.0905376537	-2.0498717691	 0.14367
H	-2.3980018645	-2.4581977323	 0.5305152561	 0.146805
70.9549	106.4575	152.2131	213.6773	241.7779	266.382	291.1788	311.2779	364.8315	409.1804	434.9385	471.2704	533.9216	564.1673	633.5383	725.8378	805.561	885.0871	916.2179	924.5326	952.2597	1029.7462	1054.1007	1078.4387	1097.9393	1113.583	1121.0353	1221.2857	1279.5291	1309.7524	1320.9424	1358.5454	1392.7557	1398.2929	1437.2235	1476.2798	1492.2245	1499.5301	2356.1119	3029.1779	3060.7432	3097.965	3128.2279	3140.9692	3181.3205	3236.2975	3776.6442	3795.9536
CC(O)C1(O)CC1C#N	C[C@@H](O)[C@@]1(O)C[C@H]1C#N	
InChI=1S/C6H9NO2/c1-4(8)6(9)2-5(6)3-7/h4-5,8-9H,2H2,1H3	InChI=1S/C6H9NO2/c1-4(8)6(9)2-5(6)3-7/h4-5,8-9H,2H2,1H3/t4-,5+,6+/m1/s1
