20
gdb 16699	3.50439	1.81574	1.59236	1.5712	74.47	-0.2313	0.097	0.3283	921.5576	0.178091	-348.989284	-348.981778	-348.980834	-349.020517	29.941	
C	-0.1257999885	 1.5870803508	-0.020652965	-0.43711
C	 0.0111075063	 0.0698188285	-0.0199844135	 0.04217
C	 1.1437283785	-0.5955639163	-0.8519031165	 0.104428
C	 2.1199205602	-0.2544485402	 0.2983850845	-0.251973
C	 0.8447060253	-0.5921411451	 1.1368520129	-0.082456
C	 0.7060146686	-2.0838156582	 0.7781054484	 0.153938
C	-0.5948855877	-2.7875760971	 1.1290834094	-0.414541
O	 0.8902521065	-1.9987446682	-0.6640716945	-0.301883
H	 0.8167699414	 2.1104022308	 0.1590953797	 0.117822
H	-0.5187986392	 1.9364206658	-0.9819038333	 0.118476
H	-0.8303809704	 1.9064507637	 0.7551626403	 0.118203
H	-0.968465635	-0.3799554501	-0.2052309836	 0.070734
H	 1.3327300941	-0.3934700765	-1.9060407318	 0.072622
H	 2.991512264	-0.9040492915	 0.4112559056	 0.097463
H	 2.4171028865	 0.7919451335	 0.3453567156	 0.101534
H	 0.732099612	-0.3114691827	 2.1845546162	 0.064988
H	 1.54220578	-2.6588368063	 1.2008297119	 0.068798
H	-1.4723499325	-2.2195918881	 0.8091975539	 0.118786
H	-0.630827865	-3.7661007659	 0.6410005354	 0.127797
H	-0.658863185	-2.9457070367	 2.2112854644	 0.110204
176.8552	191.817	196.666	260.7243	285.4721	336.3491	488.9395	499.1836	533.0844	645.4534	792.0985	812.0279	833.1691	847.2383	867.3709	903.4723	959.2285	997.1676	1017.3684	1031.9663	1047.589	1069.3825	1104.1132	1121.1148	1122.7586	1137.909	1155.8631	1217.9379	1247.8856	1258.6222	1267.3582	1288.9462	1333.7684	1391.1218	1398.3914	1411.2773	1415.2905	1487.5143	1492.2864	1495.2031	1497.2225	1511.7631	2994.3248	3033.0269	3037.9493	3066.2669	3074.5345	3089.3523	3106.2367	3112.7324	3113.5973	3121.0193	3124.6801	3150.336
CC1C2CC1C(C)O2	C[C@H]1[C@H]2C[C@@H]1[C@@H](C)O2	
InChI=1S/C7H12O/c1-4-6-3-7(4)8-5(6)2/h4-7H,3H2,1-2H3	InChI=1S/C7H12O/c1-4-6-3-7(4)8-5(6)2/h4-7H,3H2,1-2H3/t4-,5-,6+,7-/m1/s1
