18
gdb 73107	2.76266	1.59511	1.29163	4.3804	72.72	-0.2493	0.0595	0.3088	1038.5643	0.148047	-439.108557	-439.10059	-439.099646	-439.141867	30.433	
C	-0.1551969739	 1.5487708529	 0.1364252941	-0.460851
C	 0.0514502058	 0.0548126523	 0.0344942191	 0.384313
C	-1.1767909654	-0.8873901654	 0.1937044745	-0.280958
C	-0.4193644356	-1.6831193814	 1.3023507651	-0.250728
C	 0.790513802	-0.7258529846	 1.1558909506	 0.040842
O	 1.9309501167	-1.2882679134	 0.517966962	-0.261443
C	 1.8845013109	-1.0302357025	-0.8252104813	 0.471375
N	 2.6975053274	-1.4339908495	-1.6946681002	-0.57388
O	 0.823173482	-0.2489025646	-1.1348605884	-0.263616
H	 0.8058735177	 2.0711504794	 0.157236287	 0.13439
H	-0.7272025936	 1.9137252414	-0.7220842218	 0.140035
H	-0.708944696	 1.7965925218	 1.0471355823	 0.120797
H	-2.0796281493	-0.3781547848	 0.537705711	 0.110649
H	-1.4094653494	-1.4446877002	-0.7147921147	 0.126039
H	-0.890027345	-1.6610974255	 2.2872881864	 0.113149
H	-0.1742245939	-2.7171096034	 1.0536535774	 0.124631
H	 1.116584511	-0.1855987625	 2.0467299678	 0.095308
H	 3.4184837485	-2.0028459401	-1.2576212309	 0.229947
33.3204	103.169	217.6797	254.8196	312.2874	378.1148	412.8231	489.5009	600.0003	675.4579	700.2285	715.2581	750.288	800.421	827.0362	892.697	906.6394	921.5348	949.6809	978.2014	992.5794	1056.8742	1074.6834	1139.8858	1184.4411	1194.1618	1202.4012	1225.0953	1244.0302	1275.8155	1303.386	1329.8127	1385.8333	1411.6628	1467.4414	1482.7939	1483.7399	1490.2554	1795.8131	3039.5251	3074.3578	3078.6624	3093.9849	3114.8299	3117.1952	3126.1073	3142.7154	3537.864
CC12CCC1OC(=N)O2	C[C@]12CC[C@H]1O[C]([NH])O2	
InChI=1S/C6H9NO2/c1-6-3-2-4(6)8-5(7)9-6/h4,7H,2-3H2,1H3	InChI=1S/C6H9NO2/c1-6-3-2-4(6)8-5(7)9-6/h4,7H,2-3H2,1H3/t4-,6+/m1/s1
