21
gdb 82244	2.35617	1.89966	1.37371	1.3977	80.07	-0.25	0.0648	0.3148	1019.0173	0.185227	-387.070767	-387.063133	-387.062189	-387.102579	31.474	
O	 0.240419378	 1.0919684382	 0.7348333081	-0.428774
C	 0.0562840431	-0.1737173119	 0.1056238737	 0.087598
C	-1.4302395116	-0.469623711	-0.0280192293	-0.033768
C	-2.2421976804	 0.4675406859	-0.8826090229	-0.28654
C	-1.7437081778	-0.8315445471	-1.4665662104	-0.049531
C	-0.4549014212	-0.8225685868	-2.2828879922	-0.018798
C	-0.2005445671	 0.3693614459	-3.2563364243	-0.227987
C	 0.7354359926	 1.0258978627	-2.1999221512	-0.240858
C	 0.6482872166	-0.2646168024	-1.3298469852	-0.052937
H	 1.187064909	 1.2354977822	 0.8353739044	 0.280179
H	 0.5095463998	-0.9591616399	 0.7297523391	 0.060537
H	-1.9211357415	-0.9671931359	 0.8007775752	 0.079858
H	-3.3027433625	 0.5362923841	-0.6655777044	 0.106684
H	-1.8001462984	 1.4063383126	-1.1931528098	 0.123762
H	-2.48293511	-1.5930141402	-1.6909678859	 0.077425
H	-0.2737188006	-1.8121473011	-2.7099078696	 0.06181
H	 0.3285344349	 0.0691820622	-4.1642500147	 0.094567
H	-1.0843071639	 0.9414932233	-3.5489940464	 0.099583
H	 1.7367960522	 1.2812133192	-2.5555672538	 0.089769
H	 0.3203727372	 1.904065743	-1.7013038888	 0.116381
H	 1.5808198118	-0.8346627528	-1.3323847914	 0.061041
102.2079	182.562	238.5193	273.6413	301.3271	426.9987	467.0086	521.4967	616.4589	683.9629	710.723	741.0893	786.2805	811.2043	832.2417	871.567	912.1694	951.2463	966.0071	970.767	998.0787	1024.2506	1036.2225	1057.0602	1090.5153	1102.4611	1108.5705	1114.6082	1139.7074	1193.1941	1204.5234	1226.8915	1245.7727	1252.8139	1264.4651	1271.611	1312.1055	1329.3724	1347.541	1362.3975	1394.8397	1423.7595	1479.6793	1490.8258	1504.8358	2971.8066	3056.0492	3061.2166	3063.5924	3075.6907	3103.4493	3122.2158	3140.0821	3159.0624	3171.6397	3223.9486	3812.7717
OC1C2CC2C2CCC12	O[C@H]1[C@H]2C[C@H]2[C@H]2CC[C@@H]12	
InChI=1S/C8H12O/c9-8-5-2-1-4(5)6-3-7(6)8/h4-9H,1-3H2	InChI=1S/C8H12O/c9-8-5-2-1-4(5)6-3-7(6)8/h4-9H,1-3H2/t4-,5+,6-,7-,8+/m0/s1
