19
gdb 31718	5.47445	0.84962	0.7782	1.0039	80.17	-0.1909	0.0193	0.2102	1527.0486	0.159618	-419.2455	-419.236136	-419.235192	-419.280502	33.604	
C	 0.0866168277	 1.4483524766	 0.2561050716	-0.377974
C	-0.0494818443	-0.0250858767	-0.1643268745	-0.287983
C	-1.4622585357	-0.4998217064	-0.1782132068	 0.396663
N	-2.1623712728	-0.8965554021	-1.1981436591	-0.371133
C	-3.4075867977	-1.2160960431	-0.6712311104	 0.294443
N	-4.4235252701	-1.6360818203	-1.5049908977	-0.374969
C	-5.5734462388	-2.2846607558	-0.9073791754	-0.328065
C	-3.3913070939	-0.9985674531	 0.67252372	-0.143332
O	-2.1315188055	-0.5241224261	 0.9919836871	-0.184079
H	 1.1385722373	 1.7477703446	 0.2637808018	 0.116836
H	-0.4502931161	 2.1028799174	-0.4367481429	 0.129564
H	-0.3216875037	 1.6068694456	 1.2578472946	 0.133102
H	 0.3495491464	-0.1785395303	-1.1697142704	 0.131925
H	 0.5330727959	-0.6544127111	 0.519688315	 0.121032
H	-4.067956276	-2.0717698933	-2.3434374627	 0.24411
H	-6.2604369124	-2.600414923	-1.6953803168	 0.127049
H	-5.3123449514	-3.1611723493	-0.2921689501	 0.111807
H	-6.1076650452	-1.5733820833	-0.2668272647	 0.131935
H	-4.0919322937	-1.0966159804	 1.4804099615	 0.129069
35.6237	82.0573	158.4388	161.1562	194.7188	223.4207	315.4498	327.1609	391.5444	493.41	538.5648	621.6191	668.6726	698.4179	740.0917	755.8574	795.7414	956.8719	986.2835	1000.5613	1075.1699	1093.2189	1100.9937	1131.3343	1157.5401	1171.7691	1243.7889	1283.188	1303.6766	1345.7514	1378.5643	1410.3386	1459.2898	1473.7695	1480.5785	1497.0885	1497.9786	1507.1258	1523.0838	1617.1198	1670.4196	2972.1865	3036.3178	3044.4317	3056.6624	3104.1732	3116.8161	3122.3256	3127.9143	3311.8647	3604.1125
CCC1=NC(NC)=CO1	CCc1nc(NC)co1	
InChI=1S/C6H10N2O/c1-3-6-8-5(7-2)4-9-6/h4,7H,3H2,1-2H3	InChI=1S/C6H10N2O/c1-3-6-8-5(7-2)4-9-6/h4,7H,3H2,1-2H3
