21
gdb 81025	2.25731	1.72699	1.52712	1.8622	77.07	-0.2396	0.0805	0.3201	1019.6706	0.184202	-424.220643	-424.212606	-424.211662	-424.252442	33.014	
C	-0.0024049691	 1.5629963165	 0.0401507579	-0.485714
C	 0.0075367741	 0.0476104318	-0.0288784944	 0.273192
C	 0.2682317374	-0.6712639179	-1.390911547	-0.303433
C	-0.6498802527	-1.7995982282	-0.8635342492	 0.060271
O	 0.0015502979	-2.6861391593	 0.0526935095	-0.293674
C	 1.1286822701	-2.0906876968	 0.7068856398	-0.08922
C	 0.8933428592	-0.6071079861	 1.0493992535	-0.267263
C	-1.3689817137	-0.7188141864	-0.0201148305	 0.137412
O	-1.9523814373	-1.1228647736	 1.1837934608	-0.446029
H	 0.9967072876	 1.9809742956	-0.1303657216	 0.111502
H	-0.6763824429	 1.9866751337	-0.7126649771	 0.109468
H	-0.3426031047	 1.9063339008	 1.023924981	 0.124253
H	-0.2139677753	-0.1502087328	-2.2226345406	 0.103023
H	 1.2932989759	-0.9167246145	-1.6751238193	 0.103788
H	-1.211960597	-2.4274088487	-1.5574628189	 0.077005
H	 1.3121045684	-2.6930810312	 1.6009693188	 0.109636
H	 2.0105501729	-2.1910610874	 0.0604680794	 0.103233
H	 1.8615424867	-0.0977753827	 1.1190965878	 0.095379
H	 0.3958184029	-0.5019158821	 2.0196363893	 0.113817
H	-2.1150098901	-0.1666685176	-0.6018009842	 0.076033
H	-1.5402879804	-1.9719369632	 1.3975748048	 0.287321
185.9189	201.2093	234.032	258.2312	301.2912	307.0874	417.2221	449.4716	486.7559	507.3826	583.8813	614.6154	696.5674	797.6727	806.5122	822.0971	863.7446	893.4106	942.6902	966.0833	977.6772	1014.1748	1048.6537	1053.3552	1123.3438	1148.4082	1161.6867	1203.1921	1213.9704	1225.8311	1253.9125	1256.9281	1275.4622	1287.9612	1321.207	1357.5171	1379.4871	1407.2636	1411.1703	1431.3336	1484.0253	1488.406	1492.556	1495.4853	1529.6125	3011.9614	3019.6434	3034.8556	3051.9605	3066.2661	3074.0248	3085.4846	3089.9146	3091.4602	3095.2113	3119.9555	3736.2813
CC12CC(OCC1)C2O	C[C@@]12C[C@@H](OCC1)[C@H]2O	
InChI=1S/C7H12O2/c1-7-2-3-9-5(4-7)6(7)8/h5-6,8H,2-4H2,1H3	InChI=1S/C7H12O2/c1-7-2-3-9-5(4-7)6(7)8/h5-6,8H,2-4H2,1H3/t5-,6-,7+/m1/s1
