18
gdb 15008	4.39988	1.41794	1.15056	1.4809	64.13	-0.2456	0.0793	0.3249	1045.0296	0.154648	-422.060225	-422.052364	-422.05142	-422.09284	28.571	
C	 0.0201786422	 1.3723254157	 0.0736263418	-0.238719
O	-0.0638226218	-0.02981534	-0.0710408344	-0.243971
C	 0.6271716615	-0.5507283364	-1.1867998583	 0.104714
C	 2.1314178295	-0.7279090969	-0.9153437283	-0.110332
O	 2.7398759089	-1.4418015382	-1.9822527594	-0.232239
C	 2.1222701269	-2.6874747533	-2.1728382265	 0.020314
O	 0.7671974834	-2.5740678666	-2.5150923665	-0.234263
C	 0.0288721494	-1.9282804119	-1.4882499882	-0.116504
H	 1.0445393699	 1.7161026169	 0.2761554991	 0.111022
H	-0.3482953363	 1.8929791559	-0.8231618319	 0.110827
H	-0.6099793747	 1.6442222013	 0.9237550307	 0.131396
H	 0.4965544859	 0.09495472	-2.0686777234	 0.080057
H	 2.6544847139	 0.2284722713	-0.8398619982	 0.109677
H	 2.2531637392	-1.268128336	 0.0385380889	 0.096409
H	 2.6259708134	-3.169065325	-3.0129010403	 0.119276
H	 2.2270336736	-3.2996292353	-1.2557518936	 0.07597
H	 0.0361750878	-2.5279619503	-0.5630020971	 0.099002
H	-1.0031868027	-1.8413278715	-1.8345272944	 0.117364
64.9284	131.8387	172.3419	244.9346	270.4555	359.2454	420.9197	452.088	464.665	506.4732	666.0517	904.4758	914.745	960.6681	969.3499	1019.6915	1072.9497	1099.1124	1122.0704	1152.8223	1181.0419	1185.7959	1213.8395	1222.8276	1233.9455	1304.2984	1328.0786	1331.7102	1356.3491	1380.3777	1423.2878	1441.4704	1480.7087	1492.8334	1494.9206	1498.8925	1509.3822	1512.0201	2915.5886	2971.0737	2977.2692	2983.9743	2999.098	3034.1767	3097.7605	3107.5575	3116.6831	3117.9011
COC1COCOC1	COC1COCOC1	
InChI=1S/C5H10O3/c1-6-5-2-7-4-8-3-5/h5H,2-4H2,1H3	InChI=1S/C5H10O3/c1-6-5-2-7-4-8-3-5/h5H,2-4H2,1H3
