17
gdb 92759	3.59484	1.12714	0.91465	3.2901	70.6	-0.2534	-0.0326	0.2208	1270.9113	0.136208	-455.201782	-455.192843	-455.191898	-455.236413	32.064	
C	-0.3429618854	 1.4754213892	-0.0235297111	-0.397545
C	 0.0817238788	 0.0172405438	 0.0199523181	 0.099633
C	 1.0070186326	-0.4361488744	-1.1459983596	-0.204596
N	 2.273665384	-0.8085375869	-0.5008196256	-0.327402
C	 2.0937017798	-0.6462406735	 0.7495487605	 0.335409
O	 0.9058012997	-0.2092197094	 1.200902566	-0.245417
C	 3.1476392577	-0.9151418405	 1.8033695808	 0.333254
N	 4.3049474535	-1.3630343255	 1.2575214668	-0.52529
O	 2.9447478966	-0.7400652438	 2.9858733526	-0.344508
H	 0.5304803974	 2.1282596449	-0.1177299475	 0.130557
H	-0.9971346725	 1.6474058461	-0.8847175895	 0.123296
H	-0.8862915885	 1.7504697445	 0.884078916	 0.138252
H	-0.7927227148	-0.6321085665	 0.1254169706	 0.099737
H	 0.6047543311	-1.2924568308	-1.697496695	 0.122069
H	 1.17838375	 0.3671224344	-1.8721386256	 0.118306
H	 4.3756205817	-1.4712687768	 0.2589227735	 0.278055
H	 5.0811824684	-1.5713218248	 1.8615241989	 0.26619
41.9289	60.6289	168.0588	189.2745	244.3831	259.7982	334.3178	375.839	442.2079	500.9152	542.7254	643.7778	656.1273	720.9408	815.6974	836.717	907.1338	933.5114	964.0093	1021.231	1069.2618	1101.0138	1119.5177	1139.3964	1224.1617	1230.7881	1312.5241	1341.2889	1377.9006	1410.3721	1423.9987	1484.788	1495.053	1501.0068	1596.3915	1703.432	1815.9054	3034.1778	3040.107	3054.8644	3074.422	3112.6848	3126.1233	3597.1028	3742.9448
CC1CN=C(O1)C(N)=O	C[C@H]1CN=C(O1)C(=O)N	
InChI=1S/C5H8N2O2/c1-3-2-7-5(9-3)4(6)8/h3H,2H2,1H3,(H2,6,8)	InChI=1S/C5H8N2O2/c1-3-2-7-5(9-3)4(6)8/h3H,2H2,1H3,(H2,6,8)/t3-/m0/s1
