18
gdb 11660	3.06681	1.89294	1.51585	2.8723	72.1	-0.2353	0.0152	0.2505	917.924	0.153922	-347.781735	-347.774084	-347.773139	-347.81385	28.918	
C	-0.0518872641	 1.5392995955	 0.0352120842	-0.388373
C	 0.0307890779	 0.0079689859	-0.0198806689	-0.31662
C	 0.7205200429	-0.4899162725	-1.2608837005	 0.212045
C	 2.1928862346	-0.2170061835	-1.7558167982	-0.264925
C	 1.6116941165	-1.1392938192	-2.8789413187	-0.171634
C	 0.9782560505	-1.9743100489	-1.7159501684	-0.281179
C	 0.3551411924	-0.2685293207	-2.7416622434	 0.436013
O	-0.4659754739	 0.2849604202	-3.4078521044	-0.338678
H	 0.9460792802	 1.9897247213	 0.0540814372	 0.117036
H	-0.5812569919	 1.9305922792	-0.8385693644	 0.14307
H	-0.5834276748	 1.8698797583	 0.9321547804	 0.114852
H	 0.5502800336	-0.3745877113	 0.8679398242	 0.101596
H	-0.9807323603	-0.4165587114	 0.0093454479	 0.110653
H	 2.4594428241	 0.8062783479	-2.0269323225	 0.112165
H	 2.9633621058	-0.6899607186	-1.1411192399	 0.104488
H	 2.1168898056	-1.5074995308	-3.7682335251	 0.093924
H	 1.7055839116	-2.5103022602	-1.100446854	 0.10469
H	 0.1075488294	-2.5915271211	-1.9472583558	 0.110879
68.8189	152.6774	193.2297	207.4975	277.6913	395.8693	471.8349	519.6591	647.019	707.5062	768.5666	782.2953	803.2688	818.6558	914.5755	923.3176	971.6019	995.817	1009.4854	1037.1041	1063.5019	1072.8332	1088.1458	1147.1778	1178.4492	1196.6761	1200.9627	1225.1211	1302.3015	1329.1702	1385.0713	1412.094	1481.9662	1495.1273	1500.267	1509.7843	1532.4763	1906.5946	3020.8029	3039.062	3052.9787	3057.6304	3058.3056	3107.0738	3118.0097	3129.0966	3131.2818	3155.3092
CCC12CC(C1)C2=O	CC[C@@]12C[C@@H](C1)C2=O	
InChI=1S/C7H10O/c1-2-7-3-5(4-7)6(7)8/h5H,2-4H2,1H3	InChI=1S/C7H10O/c1-2-7-3-5(4-7)6(7)8/h5H,2-4H2,1H3/t5-,7+
