21
gdb 69371	3.39878	1.14354	1.02516	1.3212	82.73	-0.2464	0.0943	0.3407	1258.7484	0.182313	-387.042429	-387.03388	-387.032936	-387.075683	33.173	
C	 0.0195842592	 1.5187311042	-0.1184955593	-0.499281
C	 0.0660050893	 0.02098632	-0.0295403347	 0.387666
C	-0.8121801599	-0.7820984161	 0.8911081239	-0.340225
C	 0.6832244432	-0.8896435568	 1.0351895995	-0.093143
C	 1.2416813933	-1.8254965721	-0.0497554395	-0.018902
C	 0.6136712888	-0.8937272406	-1.1373214817	-0.321577
C	 2.7462911827	-1.9377061461	-0.070263833	 0.065707
C	 3.5334839594	-2.0584873099	-1.3021729135	-0.186542
O	 3.5035369482	-0.8306683071	-0.5689782203	-0.230023
H	 0.9813701543	 1.9245487472	-0.4517130243	 0.125403
H	-0.7475608358	 1.8520836024	-0.82859304	 0.115654
H	-0.2155741584	 1.9662660408	 0.8530258921	 0.114252
H	-1.3125533121	-0.2111016456	 1.6677042051	 0.106516
H	-1.3902640675	-1.6279455842	 0.5219762542	 0.097097
H	 1.195936413	-0.62195426	 1.9528343336	 0.082376
H	 0.8317888595	-2.8438302532	-0.0090914738	 0.070693
H	-0.1227421614	-1.3428718601	-1.8119241528	 0.085573
H	 1.3897082508	-0.395602573	-1.7225788984	 0.119965
H	 3.1723295416	-2.378011836	 0.8344733377	 0.089671
H	 4.4852809276	-2.5874494389	-1.2892140854	 0.115238
H	 3.0287742443	-2.0355597949	-2.2671338594	 0.113882
76.3448	104.9471	189.1792	223.007	271.7856	309.4138	357.6129	414.1281	414.6905	561.5932	630.5652	728.3183	777.3221	818.3421	851.5596	879.6692	907.3907	939.0121	959.1564	961.3147	1006.0743	1017.8663	1052.1461	1064.0986	1085.981	1091.8509	1111.9191	1124.771	1162.2817	1173.7713	1180.4574	1238.2898	1247.9927	1265.0412	1291.4945	1293.0772	1361.331	1396.7197	1422.7242	1430.8827	1471.3451	1486.4932	1497.9029	1505.3553	1529.7697	3009.878	3018.3612	3043.7729	3077.7534	3079.7443	3085.6187	3093.3431	3094.9469	3113.246	3166.5446	3169.6741	3188.4248
CC12CC1C(C2)C1CO1	C[C@]12C[C@H]1[C@@H](C2)[C@H]1CO1	
InChI=1S/C8H12O/c1-8-2-5(6(8)3-8)7-4-9-7/h5-7H,2-4H2,1H3	InChI=1S/C8H12O/c1-8-2-5(6(8)3-8)7-4-9-7/h5-7H,2-4H2,1H3/t5-,6+,7-,8+/m1/s1
