14
gdb 57172	3.12593	1.20039	0.87022	7.7722	73.65	-0.2122	-0.0585	0.1538	1223.2273	0.099429	-470.041313	-470.031883	-470.030939	-470.075378	34.012	
N	-0.1286962588	 1.2133243888	-0.204399343	-0.549823
C	-0.0633253538	-0.1462595808	-0.2071073496	 0.363446
N	 1.084083855	-0.7488965866	-0.5761810294	-0.561262
H	 1.9432033484	-0.2253393046	-0.576918275	 0.259366
H	 1.0968317054	-1.7589528143	-0.427383385	 0.300369
C	-1.1868619906	-0.8894891103	 0.1713882458	 0.119221
O	-2.365331113	-0.1726441237	 0.3650018009	-0.45899
C	-1.1438902127	-2.3004658799	 0.2739456719	 0.203783
O	-0.1624732452	-3.0335697404	 0.0669589875	-0.419641
C	-2.4111480883	-2.9171680226	 0.7219059903	 0.225123
N	-3.3846376582	-3.4186188181	 1.0946436164	-0.334321
H	 0.4927832837	 1.7230775043	-0.8117701972	 0.264046
H	-1.0639087017	 1.5821397781	-0.1151513394	 0.281056
H	-2.6725449001	-0.2958871099	 1.2700382857	 0.307627
73.7599	120.7127	147.0012	213.194	259.0257	294.3552	312.6595	337.7751	363.9764	409.3769	426.943	461.0859	545.3151	572.5789	629.2189	697.1804	722.883	734.3258	773.7701	966.6308	1082.7836	1110.0322	1202.4563	1327.3722	1382.6272	1473.9028	1551.6743	1637.3595	1662.8722	1675.4933	2334.2757	3389.1339	3581.681	3679.233	3698.3528	3793.0819
NC(=[NH2+])[C-](O)C(=O)C#N	NC(=[NH2])[C](O)C(=O)C#N	
InChI=1S/C4H4N3O2/c5-1-2(8)3(9)4(6)7/h9H,(H3,6,7)/q-1/p+1	InChI=1S/C4H5N3O2/c5-1-2(8)3(9)4(6)7/h9H,6-7H2
