15
gdb 34457	3.82352	1.51604	1.28302	2.2159	71.69	-0.2194	0.0218	0.2412	964.7422	0.112082	-420.533941	-420.527041	-420.526097	-420.56507	27.669	
C	 0.0531842243	-1.1155761704	 0.0519865153	-0.373521
C	-0.0088196034	 0.0847067947	 0.0148234697	 0.204594
C	-0.0432318684	 1.5104223926	-0.0234358634	 0.297913
O	-1.1112734328	 2.1274883051	 0.667478855	-0.309286
C	-1.3444868187	 3.4016990104	 0.0549287458	-0.084544
C	-0.067535562	 3.6703192907	-0.7222238028	 0.024125
O	 1.0280664069	 3.6560742915	 0.2517868114	-0.299804
C	 1.2801188276	 2.2995285202	-0.0826188774	 0.021152
C	 0.3530778895	 2.2857663615	-1.263254319	-0.236193
H	 0.1008171676	-2.1757728272	 0.0870785403	 0.191262
H	-2.2256900341	 3.3647875803	-0.6040221679	 0.100076
H	-1.5079415229	 4.1407403378	 0.8441859857	 0.126452
H	-0.0444878768	 4.5478962712	-1.3681921683	 0.099997
H	 2.2624720673	 1.8819707958	 0.1021076852	 0.121357
H	 0.417108536	 1.9226194058	-2.2790106796	 0.11642
138.6504	153.9003	267.8051	400.3762	449.3143	482.9	520.0374	571.397	592.3418	691.6465	710.1693	747.5158	791.9332	849.9015	860.6173	908.9807	918.8111	951.7242	1011.5344	1034.5065	1038.3463	1049.3007	1095.7673	1152.521	1182.954	1206.9352	1228.0428	1278.1295	1300.3003	1371.6758	1382.6463	1498.0498	2240.2783	2990.4264	3094.3139	3122.4878	3192.6876	3216.349	3503.1598
C#CC12OCC3OC1C23	C#C[C@@]12OC[C@H]3O[C@@H]1[C@@H]23	
InChI=1S/C7H6O2/c1-2-7-5-4(3-8-7)9-6(5)7/h1,4-6H,3H2	InChI=1S/C7H6O2/c1-2-7-5-4(3-8-7)9-6(5)7/h1,4-6H,3H2/t4-,5+,6-,7+/m1/s1
