17
gdb 45224	3.10819	1.81086	1.4329	4.4522	70.28	-0.2589	0.0103	0.2692	919.5674	0.138993	-421.84868	-421.842279	-421.841335	-421.879482	26.154	
O	-0.0081292914	-0.0060100385	-0.3384916805	-0.340446
C	 0.0234165044	 1.1611475803	-0.0780514166	 0.428741
O	-1.1076250038	 1.8702018738	 0.219982679	-0.227402
C	-0.8060371941	 3.2352439941	 0.5223809365	 0.091631
C	-0.4197116625	 3.4986584601	 2.0050095586	-0.252047
C	 1.0761144053	 3.6010201402	 1.6048574438	-0.033108
C	 1.7981205883	 2.2352049954	 1.4625047634	-0.241722
C	 1.2320288242	 2.0786135352	 0.0059462105	-0.175894
C	 0.6629863731	 3.5116436441	 0.0919148479	-0.063723
H	-1.6081810202	 3.8457593779	 0.1083697472	 0.097687
H	-0.8189032133	 4.4536114179	 2.3569056812	 0.111227
H	-0.7011701529	 2.7153076796	 2.7137453183	 0.114333
H	 1.6505606084	 4.4228340517	 2.0305193033	 0.07616
H	 2.8844073902	 2.3450669636	 1.4444898495	 0.116561
H	 1.5396663941	 1.4513249961	 2.179839828	 0.116448
H	 1.9622974408	 1.8235923429	-0.75953242	 0.105346
H	 0.8798979295	 4.2483916857	-0.6786138302	 0.076206
112.6773	216.1157	322.4403	396.5489	453.7936	600.3011	632.2632	686.1867	725.0605	755.8908	806.8757	834.8351	863.6332	902.198	930.3819	944.8739	956.0853	973.8431	1017.1419	1049.309	1076.8542	1110.4711	1140.9532	1158.6355	1179.0934	1197.24	1219.6123	1248.4739	1254.1079	1271.5136	1294.5682	1305.9744	1321.4484	1372.5994	1466.3688	1486.8499	1878.9863	3058.8355	3060.8947	3107.3558	3110.6167	3116.4618	3121.1024	3130.5503	3140.8119
O=C1OC2CC3CC1C23	O=C1O[C@H]2C[C@H]3C[C@@H]1[C@@H]23	
InChI=1S/C7H8O2/c8-7-4-1-3-2-5(9-7)6(3)4/h3-6H,1-2H2	InChI=1S/C7H8O2/c8-7-4-1-3-2-5(9-7)6(3)4/h3-6H,1-2H2/t3-,4-,5+,6+/m1/s1
