16
gdb 81323	3.93355	1.13392	1.0506	5.1022	78.05	-0.2487	-0.0477	0.201	1141.9161	0.125807	-400.731444	-400.724056	-400.723112	-400.763243	28.925	
O	-0.0058339954	 1.3687990608	-0.1204388475	-0.434023
C	 0.0144605051	-0.0243005181	-0.0104768629	 0.161057
C	 0.0290077443	-0.6247321119	 1.4714143409	-0.123914
C	-1.4781839758	-0.1977917982	 1.5198831866	-0.219729
C	-1.4296611312	-0.6361720996	 0.0210156366	-0.14597
C	-1.0447921841	-2.1146034441	 0.1687692891	 0.236628
C	-0.0904584988	-2.0927099208	 1.1219403826	-0.184887
C	-1.5570796736	-3.1958514349	-0.5780192279	 0.162291
N	-1.9981138733	-4.0671944365	-1.2030794885	-0.351355
H	 0.9011134812	 1.6883409553	-0.1540722264	 0.292848
H	 0.7192089053	-0.4870764198	-0.712473619	 0.080169
H	 0.7577161091	-0.3169842772	 2.2198205115	 0.073505
H	-2.1360642466	-0.7583888804	 2.1868619036	 0.104752
H	-1.6047285914	 0.8785881818	 1.6384384813	 0.12568
H	-2.1875130699	-0.3639451438	-0.7104656393	 0.091162
H	 0.4943219951	-2.9135688323	 1.5112177391	 0.131787
114.2733	155.8726	250.2986	304.4521	333.2038	438.7388	468.2421	493.3333	577.6472	590.0827	629.7094	787.5622	811.3991	866.2059	873.3725	891.5395	923.4091	956.4221	998.4967	1046.8071	1081.9545	1108.9414	1119.8676	1171.2277	1195.7793	1222.7197	1230.0691	1244.9065	1254.2383	1284.0828	1310.3356	1422.6035	1492.8298	1627.5043	2332.3315	3031.503	3079.7733	3131.9037	3148.7722	3153.7002	3241.7868	3824.7724
OC1C2CC1C(=C2)C#N	O[C@H]1[C@H]2C[C@@H]1C(=C2)C#N	
InChI=1S/C7H7NO/c8-3-5-1-4-2-6(5)7(4)9/h1,4,6-7,9H,2H2	InChI=1S/C7H7NO/c8-3-5-1-4-2-6(5)7(4)9/h1,4,6-7,9H,2H2/t4-,6-,7+/m1/s1
