17
gdb 23862	3.38703	1.25475	1.13104	2.0521	57.35	-0.3335	0.0783	0.4117	1094.7261	0.137297	-495.392111	-495.383329	-495.382385	-495.426141	31.617	
C	 0.4363981996	 1.2693217014	-0.3192730823	-0.39148
C	 0.1008735781	-0.2049804307	-0.050618404	 0.031333
C	 0.8367274307	-0.7095532055	 1.1985501872	-0.396115
C	-1.4103246414	-0.4608116393	 0.1053211232	-0.328326
C	-2.2294002943	-0.3041721873	-1.1603066617	 0.282564
F	-1.7307290277	-1.0376302486	-2.170887314	-0.085114
F	-3.495926872	-0.7083252745	-0.962982454	-0.079435
F	-2.2902499838	 0.9692371093	-1.5902297015	-0.081015
H	 1.5193601871	 1.402005292	-0.4070480409	 0.112988
H	-0.0252042426	 1.6367342612	-1.237296897	 0.130931
H	 0.0909759457	 1.9036460809	 0.5060253641	 0.11261
H	 0.442398222	-0.7978182363	-0.9081368035	 0.093283
H	 0.5138067666	-0.1635256881	 2.0930140937	 0.115857
H	 0.6526931481	-1.7748873306	 1.3724004486	 0.113795
H	 1.9168893031	-0.5668995375	 1.0962841438	 0.117384
H	-1.5802762886	-1.4873950931	 0.4460078019	 0.1258
H	-1.8451081006	 0.2054265266	 0.8587694862	 0.124938
37.0858	107.7788	170.5696	230.916	249.4133	298.6022	319.8972	366.8547	418.7431	434.9233	537.8653	549.8186	663.67	825.9662	850.6541	890.6354	934.5026	969.1568	971.8784	1061.9755	1115.8647	1188.7583	1197.4983	1209.9474	1271.3432	1302.7021	1338.3761	1374.9341	1398.0498	1404.5213	1427.4042	1470.5201	1490.0243	1494.7319	1506.0238	1513.1942	3026.0444	3029.9574	3036.0856	3051.2464	3091.2312	3094.0105	3100.807	3105.7224	3136.6832
CC(C)CC(F)(F)F	CC(C)CC(F)(F)F	
InChI=1S/C5H9F3/c1-4(2)3-5(6,7)8/h4H,3H2,1-2H3	InChI=1S/C5H9F3/c1-4(2)3-5(6,7)8/h4H,3H2,1-2H3
