16
gdb 31358	3.90667	1.14606	0.89424	5.8485	77.5	-0.215	-0.0167	0.1983	1250.7401	0.125271	-437.931141	-437.922859	-437.921915	-437.964417	30.27	
C	-0.0680406363	 1.491724652	 0.1138029767	-0.326195
N	 0.1868641545	 0.0685328239	-0.0473766828	-0.361339
C	 0.6741893911	-0.7178292339	 0.9586828406	 0.486764
C	 0.6167945744	-2.0768891339	 1.0094669277	-0.397054
C	 1.2258309433	-2.825640446	 2.091392754	 0.390363
O	 1.2105508515	-4.0473244176	 2.1872432946	-0.396959
C	 1.8748601273	-1.9578028834	 3.0960100202	-0.262569
C	 1.8648971255	-0.6290158841	 2.9666960853	 0.059639
O	 1.2779272148	 0.0217784496	 1.9204178975	-0.226277
H	 0.8450421935	 2.0060430836	 0.4185991515	 0.152651
H	-0.3799791658	 1.8930857454	-0.8521964772	 0.135144
H	-0.8502085957	 1.709164439	 0.8540700419	 0.129735
H	-0.4081018525	-0.4213141774	-0.6954982193	 0.259174
H	 0.1112636513	-2.6225786639	 0.221792554	 0.096487
H	 2.3569765916	-2.4192425081	 3.9487234119	 0.12072
H	 2.3061948414	 0.0827419847	 3.6523593435	 0.139717
71.884	120.1529	166.9892	193.2536	219.3219	375.415	401.9304	466.7342	484.1983	514.0933	634.3395	685.2892	728.4316	767.8602	820.8801	857.8521	911.555	945.4161	955.0699	1054.6388	1068.2232	1148.9559	1170.6086	1222.3358	1270.0794	1310.8087	1407.2252	1419.6707	1467.3652	1487.1456	1490.8162	1521.6694	1633.6319	1702.8765	1742.4741	3010.8033	3103.1305	3142.9318	3202.4783	3211.2746	3231.9417	3645.7423
CNC1=CC(=O)C=CO1	CNc1cc(=O)cco1	
InChI=1S/C6H7NO2/c1-7-6-4-5(8)2-3-9-6/h2-4,7H,1H3	InChI=1S/C6H7NO2/c1-7-6-4-5(8)2-3-9-6/h2-4,7H,1H3
