19
gdb 69891	2.85842	1.51247	1.14578	3.3274	81.42	-0.2181	-0.0204	0.1977	1099.9366	0.158131	-385.839339	-385.831089	-385.830144	-385.871751	32.417	
C	-0.0394952188	 1.5472873883	 0.1686286562	-0.499046
C	-0.0372947043	 0.0505998349	 0.0518692736	 0.28946
C	-0.8568042527	-0.8539172816	 0.9290914729	-0.357098
C	 0.6479053284	-0.9763344684	 0.9452639343	-0.106328
C	 1.2361685001	-1.6934769053	-0.2862045587	-0.066026
C	 0.2479987159	-2.1663932109	-1.2782768709	-0.34811
C	 0.5098585862	-0.6690617676	-1.2225688195	 0.17224
C	 1.1614137057	-0.0124254833	-2.3567527539	 0.055366
O	 1.7237161077	-0.5955122095	-3.2619490523	-0.292678
H	 0.9337437867	 1.9777027441	-0.0946968475	 0.123982
H	-0.7899985346	 2.0004302914	-0.4909508051	 0.125883
H	-0.2707713587	 1.8518260611	 1.19401262	 0.120699
H	-1.258530509	-0.3592242851	 1.8088990141	 0.116337
H	-1.5078108219	-1.6314370835	 0.5459047276	 0.114953
H	 1.2288607521	-0.7948540547	 1.8402713606	 0.095674
H	 2.2895008866	-1.9266863318	-0.3737374236	 0.117714
H	 0.677460231	-2.6065629193	-2.1723611432	 0.149948
H	-0.716413885	-2.5679193065	-0.9925012838	 0.122178
H	 1.1237022445	 1.0988633576	-2.3416047408	 0.064854
117.4143	159.6438	189.7055	243.9635	277.3793	312.7234	380.4663	447.8763	473.0787	524.3899	590.2626	716.4133	732.0442	770.9762	852.1828	870.0404	906.8381	917.1503	940.7464	968.2351	1000.1365	1005.9414	1050.6546	1054.717	1077.139	1089.7447	1103.079	1120.0248	1169.4618	1262.6538	1266.2689	1304.3655	1335.5194	1390.1832	1420.6181	1441.1695	1476.1006	1484.3521	1501.1764	1514.2725	1771.3309	2886.2189	3019.2163	3075.1853	3100.1916	3126.364	3143.9188	3190.8774	3204.2638	3205.5769	3229.2916
CC12CC1C1CC21C=O	C[C@]12C[C@H]1[C@H]1C[C@@]21C=O	
InChI=1S/C8H10O/c1-7-2-5(7)6-3-8(6,7)4-9/h4-6H,2-3H2,1H3	InChI=1S/C8H10O/c1-7-2-5(7)6-3-8(6,7)4-9/h4-6H,2-3H2,1H3/t5-,6+,7-,8-/m0/s1
