15
gdb 127278	6.35368	0.82673	0.75803	4.4008	70.69	-0.2472	-0.0073	0.2399	1435.8058	0.112603	-453.976108	-453.967672	-453.966728	-454.010715	28.842	
C	-0.2493823709	 1.3757042804	-0.0595536022	-0.323065
N	 0.0016032484	-0.0506115777	-0.0125583138	 0.063274
C	 0.2046155577	-0.8877256212	-1.0589219935	-0.127067
C	 0.3252837154	-2.1491879188	-0.5120404071	 0.217254
O	 0.6104557541	-3.2990612673	-1.2129629884	-0.218408
C	-0.2631987111	-4.337376217	-1.0937444073	 0.152369
O	-0.0658644973	-5.3913776456	-1.6106504	-0.257704
C	 0.1778704103	-1.9752028902	 0.8772655846	-0.083246
N	-0.028526691	-0.6920988981	 1.1693717111	-0.252142
H	 0.3243935513	 1.8225049633	-0.8742029652	 0.144921
H	-1.3132664018	 1.5860606027	-0.2102274895	 0.148109
H	 0.0683087598	 1.804931996	 0.8906230616	 0.16563
H	 0.2613890356	-0.5448945057	-2.0787905102	 0.147708
H	-1.1418992075	-4.0725623063	-0.4785713821	 0.094843
H	 0.2298819669	-2.7155845944	 1.661211162	 0.127524
44.58	58.5938	123.2078	147.1091	206.7319	308.4014	403.3765	454.6037	483.4492	647.04	673.6161	711.7348	790.2691	833.5714	866.0825	997.7063	1040.497	1047.2041	1076.8239	1124.4599	1149.0567	1195.9138	1214.0556	1347.8321	1397.84	1411.998	1424.053	1445.3249	1477.4249	1489.2354	1518.5326	1605.8828	1876.4589	2982.5894	3045.8949	3118.8588	3162.125	3251.9993	3272.8402
CN1C=C(OC=O)C=N1	Cn1cc(OC=O)cn1	
InChI=1S/C5H6N2O2/c1-7-3-5(2-6-7)9-4-8/h2-4H,1H3	InChI=1S/C5H6N2O2/c1-7-3-5(2-6-7)9-4-8/h2-4H,1H3
