17
gdb 25619	3.33364	0.99343	0.77272	0.8807	91.8	-0.2003	-0.0065	0.1938	1469.8549	0.134769	-384.710185	-384.700846	-384.699901	-384.747066	32.474	
C	-0.1395841957	 1.4569987993	-0.0197327322	-0.510801
C	-0.0465093965	 0.0063567289	-0.0160907173	 0.208072
C	 0.0266789556	-1.1992411127	-0.0130541176	-0.079471
C	 0.1314705193	-2.6001139367	-0.0097845686	 0.140483
C	 1.2182794081	-3.4399329265	-0.0103133369	 0.127937
C	 2.6575900397	-3.0355778808	-0.0146656212	-0.520771
C	 0.6826705711	-4.7679640177	-0.00575465	-0.245459
C	-0.6701117686	-4.6391812463	-0.0026681007	-0.035349
O	-1.0310542647	-3.3356321381	-0.0051224303	-0.180591
H	 0.8569484922	 1.9119973205	-0.0288986195	 0.152587
H	-0.6782219718	 1.8218550288	-0.9017795056	 0.152277
H	-0.6644657854	 1.8273248858	 0.8683155733	 0.152229
H	 3.1836712347	-3.4176347116	 0.8677425149	 0.130356
H	 3.18076493	-3.4264666655	-0.8949042381	 0.130306
H	 2.7531587918	-1.9470349828	-0.0201973552	 0.135559
H	 1.239922428	-5.692285901	-0.0048676313	 0.110997
H	-1.4817907378	-5.3484426237	 0.0010942861	 0.131639
6.8467	84.2606	99.7922	113.0117	240.033	257.6202	285.5134	352.057	466.9342	481.1945	545.1038	615.2705	669.7325	701.0751	758.5858	824.2978	905.2628	976.9038	997.6402	1049.7715	1050.8907	1062.6663	1070.8826	1113.8279	1195.1658	1282.0614	1290.5236	1411.5941	1412.2535	1446.5426	1472.466	1477.712	1485.0482	1490.9958	1528.0685	1636.9312	2349.324	3023.9229	3028.7521	3078.1159	3081.6383	3089.4851	3120.0031	3248.1591	3278.8683
CC#CC1=C(C)C=CO1	CC#Cc1c(C)cco1	
InChI=1S/C8H8O/c1-3-4-8-7(2)5-6-9-8/h5-6H,1-2H3	InChI=1S/C8H8O/c1-3-4-8-7(2)5-6-9-8/h5-6H,1-2H3
