20
gdb 88292	3.83465	0.96207	0.91274	1.7246	83.43	-0.2255	-0.0274	0.1981	1377.7039	0.170155	-403.122815	-403.113651	-403.112707	-403.157491	33.825	
C	-0.8354443146	 0.9369332011	 0.424468167	-0.325276
N	 0.0022195276	-0.2403337355	 0.2049152452	-0.082138
C	 1.2221399423	-0.0874186776	-0.5453895107	-0.235081
C	 1.2855933833	-0.3897285783	 0.9251236248	-0.113955
C	 1.8121458307	 0.6720327518	 1.8442672333	 0.391382
O	 1.7850247861	 1.8575281953	 1.5561633949	-0.361485
C	 2.3688765392	 0.2022475715	 3.1444995742	-0.114399
C	 3.538391234	 0.988546386	 3.724301698	-0.247963
C	 2.1947151751	 1.1222259301	 4.3477065789	-0.247609
H	-0.2770696228	 1.871014697	 0.5497081133	 0.146051
H	-1.503743954	 1.028464241	-0.4374258773	 0.122192
H	-1.4515839966	 0.7704581888	 1.3136498954	 0.119846
H	 1.4563284477	-0.8773653047	-1.2549300216	 0.117201
H	 1.5319944967	 0.9174285995	-0.8271461031	 0.13276
H	 1.4727699201	-1.4119639842	 1.243728204	 0.090589
H	 2.3458923547	-0.8653499456	 3.327992959	 0.091059
H	 4.3052733018	 0.4211736377	 4.2387596144	 0.119017
H	 3.8900508017	 1.8128226272	 3.1145596374	 0.139206
H	 1.6440711651	 2.0358220377	 4.1560430259	 0.139129
H	 2.0069446221	 0.6488387012	 5.3043598071	 0.119474
45.4009	63.6045	173.188	184.4199	244.0501	263.6061	290.9307	332.5331	393.7324	418.8898	661.6295	716.4492	758.3444	792.4695	820.6775	826.7372	852.8981	909.7766	919.0939	1004.2437	1029.6045	1053.7805	1078.2469	1095.3426	1103.317	1112.0725	1124.1375	1127.9426	1141.0145	1170.3485	1211.244	1214.7441	1224.1773	1331.8355	1375.3046	1418.9347	1442.6411	1452.5381	1483.0774	1485.572	1492.1453	1510.1297	1752.4996	3026.2436	3093.213	3099.493	3104.6419	3136.678	3141.5897	3143.4545	3180.5335	3186.2416	3229.7301	3244.4128
CN1CC1C(=O)C1CC1	CN1C[C@H]1C(=O)C1CC1	
InChI=1S/C7H11NO/c1-8-4-6(8)7(9)5-2-3-5/h5-6H,2-4H2,1H3	InChI=1S/C7H11NO/c1-8-4-6(8)7(9)5-2-3-5/h5-6H,2-4H2,1H3/t6-,8?/m0/s1
