18
gdb 18037	3.75134	2.14903	1.55822	1.0807	73.2	-0.2391	0.0204	0.2595	847.1742	0.156209	-347.797233	-347.790619	-347.789675	-347.827842	26.437	
C	-0.0227395472	 1.5508005872	 0.0869340044	-0.234769
C	 1.515086804	 1.5931436838	-0.1402910187	-0.235977
C	 1.4362593482	 0.102754706	-0.6171870328	-0.036815
C	 2.4211550722	-0.9160506955	-0.1458373752	-0.081703
C	 2.0851852336	-1.7983792007	 0.7932713506	-0.076246
C	 0.7411542618	-1.7490342527	 1.4731270862	-0.120075
O	 0.1169917277	-0.481425346	 1.3731617601	-0.266925
C	 0.0352522451	 0.0090472614	 0.0469686581	 0.115151
H	-0.4138384407	 1.9771072713	 1.0124613388	 0.109715
H	-0.579929541	 1.9560582701	-0.7618835604	 0.099567
H	 1.8986073317	 2.323980806	-0.8553323484	 0.095113
H	 2.0675532044	 1.6863318422	 0.7967165627	 0.112019
H	 1.3421047099	 0.0693084147	-1.7088906577	 0.077152
H	 3.4085714961	-0.9336901291	-0.601243069	 0.08785
H	 2.7711728814	-2.5775774364	 1.1141502012	 0.091068
H	 0.0806135573	-2.542208981	 1.0763191716	 0.095505
H	 0.8515757498	-1.9414637008	 2.5463939836	 0.114406
H	-0.7473494543	-0.5262599005	-0.5106364753	 0.054965
120.8847	195.0503	262.9744	357.9631	458.1747	489.4153	533.6368	672.8012	709.011	753.3617	825.363	844.0194	898.0053	926.5849	946.6936	959.3937	988.6989	1001.0279	1049.5039	1075.7467	1083.406	1114.5359	1135.7516	1197.7837	1214.168	1249.8318	1256.5207	1267.8925	1282.6569	1292.3475	1343.156	1358.4123	1402.7168	1413.1512	1468.1321	1487.6354	1490.3577	1715.976	2934.2672	2986.6379	3037.3121	3056.1885	3066.116	3072.2477	3119.0617	3134.5161	3145.7165	3173.1312
C1CC2C=CCOC12	C1C[C@H]2C=CCO[C@@H]12	
InChI=1S/C7H10O/c1-2-6-3-4-7(6)8-5-1/h1-2,6-7H,3-5H2	InChI=1S/C7H10O/c1-2-6-3-4-7(6)8-5-1/h1-2,6-7H,3-5H2/t6-,7+/m1/s1
