17
gdb 6692	6.96363	0.75052	0.7114	4.1372	72.3	-0.2742	-0.0226	0.2515	1569.6437	0.139054	-401.026321	-401.017093	-401.016149	-401.060834	31.661	
C	 0.010862474	 1.526766299	-0.0376783119	-0.370616
C	 0.0016046632	-0.0058274323	-0.0385453019	 0.050327
C	-1.4262701529	-0.5627385226	-0.0373969487	-0.370604
N	 0.6859288402	-0.4766694548	-1.2398676142	-0.189272
C	 1.7087265217	-1.1807822303	-1.0949951947	 0.121427
O	 2.377548564	-1.6412860045	-2.202080418	-0.156193
C	 3.4887015038	-2.4035848162	-2.0079987133	 0.183878
O	 4.1226407173	-2.8396507813	-2.9152985752	-0.253694
H	 1.0342577332	 1.9127490825	-0.0239567062	 0.116129
H	-0.4842555999	 1.9095392633	-0.9350264538	 0.132175
H	-0.5142603863	 1.9104424514	 0.8424544938	 0.114828
H	 0.5173309931	-0.3604225281	 0.871851734	 0.062198
H	-1.9608835441	-0.2375964745	-0.9348162915	 0.13218
H	-1.420605768	-1.6564828278	-0.0233185981	 0.116129
H	-1.9723418829	-0.2093220481	 0.8426585201	 0.114831
H	 2.1551301298	-1.4880985604	-0.1394950293	 0.100344
H	 3.7217158338	-2.5623132053	-0.939406731	 0.095935
55.1572	114.8472	129.12	132.5255	216.9929	251.9633	267.1935	296.3247	348.8708	440.6101	475.032	564.8527	701.2422	859.0043	932.1952	957.8488	964.4798	974.3077	1037.8467	1133.0727	1134.9521	1157.2643	1190.6619	1207.7148	1353.6925	1359.4188	1396.6388	1404.4663	1417.0582	1446.4476	1480.8334	1487.3907	1494.453	1511.7687	1766.8693	1893.0341	2935.2151	2974.1145	3025.7532	3038.2018	3042.0836	3112.3397	3115.2341	3116.9261	3121.695
CC(C)N=COC=O	CC(C)N=COC=O	
InChI=1S/C5H9NO2/c1-5(2)6-3-8-4-7/h3-5H,1-2H3	InChI=1S/C5H9NO2/c1-5(2)6-3-8-4-7/h3-5H,1-2H3
