19
gdb 52719	3.17718	0.64955	0.55646	4.572	86.61	-0.2448	0.0165	0.2612	1961.8841	0.156882	-382.046886	-382.035929	-382.034985	-382.085289	37.003	
C	-0.0568626067	 1.479137015	-0.0459583093	-0.50061
C	-0.0189553182	 0.024072539	-0.0200549711	 0.132586
C	 0.0298638123	-1.1782832202	 0.0083586786	 0.023699
C	 0.0449527515	-2.6416320916	 0.0210383098	-0.128173
C	-1.3976320784	-3.195512411	 0.0488940426	-0.392009
N	 0.8769895488	-3.1152114197	-1.098226249	-0.289556
C	 1.0798857882	-4.5565363506	-1.1380722119	-0.274414
C	 2.0406844374	-4.9142845726	-2.1871129321	 0.265153
N	 2.7761871929	-5.2069772378	-3.0280639184	-0.298425
H	 0.7279073419	 1.8823542091	-0.6951033793	 0.154471
H	-1.0190632149	 1.8483722506	-0.4171431579	 0.148868
H	 0.095357456	 1.8961632682	 0.9555171516	 0.151612
H	 0.553731228	-2.9770327231	 0.9371380936	 0.111296
H	-1.9370952155	-2.9007301146	-0.8566702409	 0.123556
H	-1.404128696	-4.2872319724	 0.1218103824	 0.115664
H	-1.938970783	-2.7971961673	 0.9112244872	 0.132818
H	 0.4979813915	-2.781132788	-1.9783236056	 0.232497
H	 1.4929892277	-4.875870012	-0.1725219264	 0.155229
H	 0.1714668964	-5.161288681	-1.3030011139	 0.13574
20.5461	58.3295	66.378	84.7236	145.3364	169.3214	250.4954	269.9367	305.5024	337.4867	386.0361	400.9387	471.9264	530.5052	595.3157	716.469	761.5325	891.6983	946.6653	988.9437	1028.0562	1051.0519	1053.2653	1067.381	1126.2399	1141.9415	1189.5671	1247.9672	1331.4991	1336.3559	1394.0459	1405.4017	1414.2434	1477.1421	1478.2458	1483.4396	1488.2723	1493.2648	1503.1172	2368.1104	2375.654	2954.9996	2994.916	3029.4571	3040.0813	3044.4343	3090.8085	3092.369	3113.9414	3120.5776	3529.3542
CC#CC(C)NCC#N	CC#C[C@@H](C)NCC#N	
InChI=1S/C7H10N2/c1-3-4-7(2)9-6-5-8/h7,9H,6H2,1-2H3	InChI=1S/C7H10N2/c1-3-4-7(2)9-6-5-8/h7,9H,6H2,1-2H3/t7-/m1/s1
