18
gdb 77436	2.3474	1.50146	1.23401	4.4554	73.48	-0.2325	0.0147	0.2472	1092.2598	0.145653	-439.084833	-439.075516	-439.074571	-439.118342	34.598	
C	 0.0620776751	 1.5884856916	 0.0716019738	-0.492494
C	 0.1085177069	 0.0941660778	 0.0435050364	 0.27734
N	 0.7337423684	-0.6451279333	-1.0621502792	-0.396114
C	 1.2553619075	-1.6303845759	-0.1988947733	 0.385723
O	 1.8662170008	-2.6389690497	-0.4166348492	-0.348922
C	 0.7174156754	-0.9124476602	 1.028196006	 0.072468
C	 1.3669318254	-0.774310686	 2.3712009734	-0.507182
C	-0.8027793425	-0.8385582402	 0.8034464169	 0.000175
O	-1.4842884361	-0.3357229356	 1.9107935355	-0.417515
H	 1.0590611621	 2.0156466095	-0.0715330173	 0.135975
H	-0.5877779281	 1.9803612329	-0.7202674392	 0.120779
H	-0.332293707	 1.9296202595	 1.0322226014	 0.13527
H	 0.2636773301	-0.8732361614	-1.932926669	 0.234513
H	 2.3135340121	-0.2290766053	 2.3027871176	 0.126901
H	 0.709362513	-0.2511921918	 3.0686515453	 0.142698
H	 1.5825975833	-1.7650288707	 2.7848340905	 0.141029
H	-1.309769361	-1.6486301686	 0.2734251633	 0.092807
H	-2.3125803154	 0.0502723272	 1.6065377072	 0.29655
139.5982	145.8813	160.7765	197.8882	216.4283	239.929	260.4614	295.0379	327.2233	439.1665	510.772	582.6036	595.4953	667.1712	680.3888	718.8542	781.8347	852.7107	896.2833	962.7674	1050.0114	1076.8934	1098.0778	1117.6301	1141.2993	1187.433	1225.5022	1261.2215	1312.6389	1346.9472	1366.2217	1410.2457	1421.737	1457.8568	1486.6463	1492.6992	1493.8439	1502.702	1892.4664	3029.7815	3040.4742	3067.1308	3092.7398	3099.7604	3125.5274	3131.0396	3524.3999	3809.9141
CC12NC(=O)C1(C)C2O	C[C@@]12NC(=O)[C@]1(C)[C@H]2O	
InChI=1S/C6H9NO2/c1-5-3(8)6(5,2)7-4(5)9/h3,8H,1-2H3,(H,7,9)	InChI=1S/C6H9NO2/c1-5-3(8)6(5,2)7-4(5)9/h3,8H,1-2H3,(H,7,9)/t3-,5+,6+/m1/s1
