14
gdb 76368	2.09398	1.46576	1.19768	4.6976	70.06	-0.2539	0.0067	0.2606	1078.0027	0.097564	-436.628187	-436.618915	-436.617971	-436.6621	33.368	
O	 0.0843500142	 1.3592991781	 0.0026993802	-0.409982
C	 0.0355417604	-0.0110998903	 0.0138963038	 0.086825
C	-0.4214115842	-0.7246322899	 1.2412191031	 0.004761
O	-0.8608313009	 0.0695938587	 2.2958699854	-0.412605
C	-1.3669985666	-0.7321088955	 0.0167921683	-0.114763
C	-2.536538471	 0.0946543233	 0.0373086111	 0.269436
C	-3.5019909794	 0.8095916675	 0.0394235202	-0.41523
C	-1.4489770624	-1.9744380072	-0.7047136042	 0.238006
N	-1.4660757438	-2.9778523177	-1.2804575595	-0.338275
H	-0.4896890245	 1.6772820534	 0.7139084945	 0.299859
H	 0.7863138617	-0.4570164113	-0.6280602683	 0.147658
H	 0.0109384696	-1.6875913848	 1.5052665268	 0.129733
H	-0.0976259723	 0.276176593	 2.8485822544	 0.30738
H	-4.3666171909	 1.4264884425	 0.0438450041	 0.207198
110.6616	119.802	135.5261	157.1935	183.1527	231.1561	336.5382	368.3559	444.857	476.2654	489.5043	581.9496	596.4021	626.3742	645.495	676.8681	686.7093	797.8023	861.547	1015.3389	1069.6029	1108.6221	1159.4975	1213.0392	1257.3903	1295.0615	1340.4599	1408.7544	1464.0024	2244.0322	2350.025	3130.1285	3192.9226	3501.1813	3754.9895	3794.4693
OC1C(O)C1(C#C)C#N	O[C@H]1[C@@H](O)[C@]1(C#C)C#N	
InChI=1S/C6H5NO2/c1-2-6(3-7)4(8)5(6)9/h1,4-5,8-9H	InChI=1S/C6H5NO2/c1-2-6(3-7)4(8)5(6)9/h1,4-5,8-9H/t4-,5+,6+
