19
gdb 68413	2.56238	1.86186	1.41949	2.9452	74.28	-0.2406	0.0844	0.3251	979.6072	0.15917	-422.989778	-422.982089	-422.981145	-423.021503	30.986	
C	-0.063787836	 1.5091147815	 0.0155292656	-0.515397
C	 0.047873976	 0.0146898013	-0.039310259	 0.328259
C	 0.4433729247	-0.8190838878	-1.2872708182	-0.277489
C	-0.4283795674	-1.8328031331	-0.515693077	 0.070803
C	 0.4152140616	-2.1824187939	 0.7295390216	-0.322467
C	 0.7895579182	-0.7318901847	 1.0798767042	 0.466038
C	 1.9788447661	-0.2652904661	 1.7914268528	-0.283212
O	 0.6838120345	-0.2555244105	 2.4128202606	-0.282253
O	-1.2333281603	-0.7155550217	-0.0293219338	-0.327786
H	 0.9132346478	 1.9727390586	-0.1554493744	 0.121329
H	-0.7549073883	 1.8703860365	-0.7497617578	 0.129801
H	-0.4252403727	 1.8209948744	 0.9994983338	 0.148078
H	-0.0504835843	-0.4506575321	-2.187335091	 0.1114
H	 1.4984318165	-1.043952432	-1.4682717502	 0.093952
H	-1.0049631716	-2.6203443908	-0.9992230381	 0.083083
H	-0.1906141119	-2.6349808183	 1.5173930113	 0.126667
H	 1.2750507844	-2.8236731968	 0.516826316	 0.102769
H	 2.6841854909	-0.9908570872	 2.1951325289	 0.114604
H	 2.4000172418	 0.7170342929	 1.580104465	 0.111824
127.6179	188.8721	229.2225	264.67	330.9674	395.8999	411.309	462.2011	536.8991	603.2886	636.8927	755.3353	825.7119	834.0047	848.7129	866.7395	896.9482	928.0288	945.234	983.7453	1004.3236	1023.9575	1074.0602	1114.0239	1121.9135	1143.4415	1152.9653	1172.0401	1201.1739	1218.6536	1268.7577	1288.7804	1299.8163	1347.7443	1414.2588	1428.8349	1471.904	1482.7665	1489.0412	1495.088	1537.3654	3044.488	3059.117	3065.1968	3078.5278	3114.3351	3122.2148	3129.0927	3129.8159	3139.1428	3162.5098
CC12CC(CC11CO1)O2	C[C@@]12C[C@@H](C[C@]31CO3)O2	
InChI=1S/C7H10O2/c1-6-2-5(9-6)3-7(6)4-8-7/h5H,2-4H2,1H3	InChI=1S/C7H10O2/c1-6-2-5(9-6)3-7(6)4-8-7/h5H,2-4H2,1H3/t5-,6+,7+/m0/s1
