21
gdb 56175	3.05849	0.98919	0.87691	3.4534	79.4	-0.2407	0.0579	0.2986	1412.7043	0.182466	-420.441955	-420.43195	-420.431006	-420.477267	37.453	
C	 0.1558037737	 1.5439765817	 0.0559359671	-0.4709
C	-0.1301330049	 0.0654572924	-0.120122431	 0.377076
C	-1.3627228679	-0.2630370814	-0.9503737781	-0.237076
N	-2.6309316459	 0.1321555702	-0.3496570316	-0.334892
C	-3.3282504168	-0.7396244801	 0.4546591053	 0.455894
N	-4.425127446	-0.1634543955	 1.0908751577	-0.561255
O	-3.0216327209	-1.9081913187	 0.6161260367	-0.394242
C	 1.0412384924	-0.8789180245	-0.2555279105	-0.309737
C	 0.2127349645	-0.8774035142	 1.0079148005	-0.297541
H	 1.0643681701	 1.7038444165	 0.6443144837	 0.118378
H	 0.2944314061	 2.043282832	-0.9113356748	 0.110814
H	-0.6611446395	 2.0539097128	 0.5819662098	 0.105427
H	-1.2867835669	 0.2183322472	-1.9340713685	 0.095934
H	-1.4284850617	-1.3409574496	-1.1096203603	 0.136304
H	-2.7963575311	 1.1175010093	-0.2206295227	 0.237513
H	-4.9108272327	 0.5728732921	 0.5999064417	 0.244926
H	-5.040864014	-0.8600252348	 1.4832348119	 0.259062
H	 0.9455925693	-1.7250044103	-0.9284076497	 0.110752
H	 2.0403133746	-0.4572836286	-0.2156590039	 0.104669
H	 0.6569989735	-0.4546592829	 1.9032427304	 0.102427
H	-0.4598685657	-1.7083007735	 1.1851818462	 0.146468
49.9652	78.5697	87.2896	212.502	246.5279	251.5208	317.2296	355.0367	363.1155	378.7221	417.9492	471.2608	552.4139	567.7777	664.4786	721.3953	780.906	792.7429	859.9042	881.0297	932.2251	954.5211	968.0045	1004.9179	1051.2022	1076.1831	1083.7487	1101.2999	1126.7437	1145.1662	1192.1215	1261.0678	1316.8062	1330.2408	1369.2249	1401.7489	1422.3529	1465.9647	1474.0014	1493.8361	1499.5427	1510.48	1542.5777	1626.3835	1793.026	3013.7521	3022.6534	3068.2043	3098.8464	3118.5233	3125.7885	3135.0796	3205.8475	3228.8593	3569.0669	3630.9292	3682.1238
CC1(CNC(N)=O)CC1	CC1(CNC(=O)N)CC1	
InChI=1S/C6H12N2O/c1-6(2-3-6)4-8-5(7)9/h2-4H2,1H3,(H3,7,8,9)	InChI=1S/C6H12N2O/c1-6(2-3-6)4-8-5(7)9/h2-4H2,1H3,(H3,7,8,9)
