18
gdb 31726	6.15644	0.85235	0.76208	1.0215	77.64	-0.1736	0.0495	0.2231	1496.5221	0.147169	-439.090058	-439.080781	-439.079837	-439.124551	33.385	
C	-0.123495767	 1.4266801888	 0.1645931875	-0.32844
N	-0.0450851889	 0.0346882144	-0.2646188351	-0.387467
C	-1.156243833	-0.7732547101	-0.126542069	 0.476973
C	-1.302251576	-2.1210988654	 0.0382238821	-0.462281
C	-2.7187068703	-2.3500914835	 0.0102122207	 0.369356
O	-3.2548743858	-3.5838396475	 0.1426489252	-0.258278
C	-4.6687932697	-3.6268642486	 0.0999016883	-0.246867
C	-3.3299651594	-1.1446196571	-0.1564598611	-0.202201
O	-2.3538746093	-0.16178497	-0.2412561747	-0.192413
H	 0.8252661834	 1.9153822746	-0.0680902744	 0.123997
H	-0.9141366092	 1.9340931141	-0.3911217131	 0.151676
H	-0.3301840526	 1.5458899832	 1.238815594	 0.115735
H	 0.7967961336	-0.4355328404	 0.0333496561	 0.244035
H	-0.530110801	-2.8619426205	 0.1620485944	 0.099864
H	-4.9575194316	-4.6728290538	 0.2139408921	 0.131779
H	-5.1069924455	-3.0345521163	 0.9147790933	 0.119791
H	-5.0465150337	-3.2441127096	-0.8580019094	 0.12095
H	-4.345758974	-0.8031613022	-0.2187809871	 0.123792
53.4548	89.223	149.0252	173.7517	209.3578	241.48	279.0133	366.7272	389.8741	503.9063	558.9918	595.9765	647.2112	666.3242	696.6378	732.1617	753.1104	948.206	998.91	1054.6978	1078.3593	1122.309	1150.8663	1161.2915	1182.1902	1209.9811	1216.2964	1268.1052	1359.2324	1423.4153	1450.3232	1474.3956	1482.7158	1488.9593	1496.2795	1510.5144	1516.7832	1630.6236	1668.7636	2991.023	2997.8313	3052.8758	3096.029	3135.3137	3138.6993	3268.8753	3311.1537	3608.4973
CNC1=CC(OC)=CO1	CNc1cc(OC)co1	
InChI=1S/C6H9NO2/c1-7-6-3-5(8-2)4-9-6/h3-4,7H,1-2H3	InChI=1S/C6H9NO2/c1-7-6-3-5(8-2)4-9-6/h3-4,7H,1-2H3
