19
gdb 127080	2.59949	1.33239	1.06836	2.6886	78.78	-0.1995	0.0386	0.2382	1200.8575	0.16071	-415.385876	-415.376567	-415.375622	-415.420219	34.312	
C	 0.0383093255	 1.475605505	-0.0022351682	-0.323496
N	-0.0216377467	 0.0178776126	 0.0502641614	-0.180801
C	 0.8520547452	-0.5311541812	 1.0850659534	-0.325168
C	-1.3416992216	-0.5066126426	 0.0730591788	 0.136687
C	-1.8403852857	-1.3597993372	-0.9002836249	 0.32143
N	-1.1906983444	-1.9218866591	-1.9959191054	-0.606451
N	-3.1158099031	-1.6386669953	-0.5460636324	-0.25463
N	-3.5008879795	-1.0134773286	 0.6027748341	-0.243384
C	-2.4235103484	-0.3376127938	 0.9773224787	-0.06216
H	 1.0694472607	 1.7930917128	-0.1937683622	 0.112314
H	-0.593741583	 1.8395182118	-0.8159825252	 0.120741
H	-0.2939250894	 1.9606376167	 0.9329156583	 0.09911
H	 0.5783360205	-0.2027995793	 2.1034807324	 0.098873
H	 0.8105599685	-1.6226203752	 1.0579546596	 0.12582
H	 1.8852128724	-0.2176980794	 0.8971421002	 0.111091
H	-0.2776099004	-1.4863914722	-2.0839916245	 0.253182
H	-1.6993266861	-1.8225512374	-2.8671175846	 0.246411
H	-3.7580793391	-2.2640553796	-1.0007484898	 0.266904
H	-2.4593936456	 0.260180002	 1.8771838004	 0.103528
36.9468	151.9484	152.6114	227.6574	243.7082	271.1954	289.366	296.161	374.4551	441.2938	471.1229	508.3308	607.447	677.0501	729.8727	739.6813	831.7852	891.3846	929.8702	971.3818	1057.3842	1089.481	1112.1106	1119.3717	1184.3225	1201.3325	1204.4425	1233.1823	1295.4226	1352.8913	1399.2558	1440.0104	1451.8399	1470.0969	1480.0025	1496.0154	1499.3029	1516.7282	1561.5075	1623.2704	1661.2001	2946.6818	2952.6948	3054.238	3056.7787	3113.4769	3116.7256	3234.8634	3503.7165	3592.5197	3679.4035
CN(C)C1=C(N)NN=C1	CN(C)c1c(N)[nH]nc1	
InChI=1S/C5H10N4/c1-9(2)4-3-7-8-5(4)6/h3H,1-2H3,(H3,6,7,8)	InChI=1S/C5H10N4/c1-9(2)4-3-7-8-5(4)6/h3H,1-2H3,(H3,6,7,8)
