16
gdb 124677	3.86154	1.03953	1.00645	2.4846	71.19	-0.2658	-0.0504	0.2154	1207.8576	0.123875	-434.071901	-434.063519	-434.062575	-434.106216	29.383	
C	 0.1054471073	 1.4834243431	 0.1677433092	-0.39897
C	-0.0642288341	-0.0245897687	 0.0025681926	-0.05299
C	 0.7843567598	-0.8350865629	 0.9885449878	 0.14445
O	 1.6927404379	-0.3737025128	 1.6239185987	-0.226093
N	-1.4486178148	-0.4675194791	 0.0858255174	 0.055929
C	-2.3306314635	-0.3563169	 1.111012773	-0.103109
C	-3.4671655715	-0.9708897536	 0.6453520262	-0.062743
N	-3.2317093805	-1.4242557318	-0.6165293667	-0.186845
N	-2.0121497942	-1.123800398	-0.9541788634	-0.138664
H	 1.1636242398	 1.7385052371	 0.0868035804	 0.151488
H	-0.4554262873	 2.0158140564	-0.603163131	 0.140024
H	-0.2390557671	 1.8159420786	 1.1505666987	 0.133943
H	 0.2529417956	-0.3362111666	-1.0012713861	 0.14872
H	 0.4927777197	-1.9055741016	 1.0586490036	 0.108579
H	-2.0875366014	 0.1336107344	 2.0388123422	 0.15466
H	-4.4188264156	-1.1105111345	 1.1316094274	 0.131622
41.7638	70.3091	126.0751	194.6398	244.9462	253.6972	389.1333	408.3492	585.3994	665.5368	717.2325	725.1253	786.3873	854.5996	865.0751	931.3907	957.7127	1019.9499	1065.3233	1077.5114	1113.3699	1134.9589	1143.9722	1199.7459	1289.0653	1316.0418	1331.8849	1357.4318	1403.1378	1419.2021	1484.0222	1490.2192	1495.2266	1521.5152	1840.8988	2906.64	3043.4466	3059.8247	3133.7201	3149.4683	3269.9394	3290.9271
CC(C=O)N1C=CN=N1	C[C@@H](C=O)n1ccnn1	
InChI=1S/C5H7N3O/c1-5(4-9)8-3-2-6-7-8/h2-5H,1H3	InChI=1S/C5H7N3O/c1-5(4-9)8-3-2-6-7-8/h2-5H,1H3/t5-/m0/s1
