21
gdb 114134	4.75735	0.82302	0.77002	2.0483	78.6	-0.2431	0.0679	0.311	1509.0607	0.182188	-424.182935	-424.173449	-424.172505	-424.217392	35.543	
O	 0.0904047709	 1.3176969381	 0.4358075871	-0.421048
C	 0.1186051132	-0.0875640558	 0.2215899871	-0.08495
C	-1.2766362226	-0.6779397479	 0.0731279184	 0.018009
C	-2.1106739317	-0.3411865274	-1.215220063	-0.345486
C	-2.2917626718	-1.8473132243	-1.4687072516	 0.358027
C	-3.5881676254	-2.4639150567	-1.927109858	-0.193441
O	-3.5807976522	-3.8827608735	-1.9080702369	-0.408986
C	-0.9465330004	-2.4885758219	-1.6473569833	-0.341848
C	-1.4261324644	-2.1711472308	-0.2497575887	-0.115758
H	-0.3146677407	 1.7207164666	-0.3389154762	 0.282978
H	 0.742285012	-0.3425140875	-0.6494319559	 0.082983
H	 0.610602133	-0.5132430366	 1.1034200563	 0.109638
H	-1.8552386888	-0.4125794398	 0.9628553836	 0.083298
H	-3.0448508184	 0.1780443544	-0.9865363754	 0.10694
H	-1.5947173208	 0.2104820943	-2.0113548574	 0.085019
H	-4.3991974699	-2.1618905169	-1.2531333541	 0.111032
H	-3.8483527232	-2.0791833875	-2.9277403583	 0.0891
H	-3.034004398	-4.1817963426	-2.6408974953	 0.28591
H	-0.9636296845	-3.5489979239	-1.878003972	 0.104074
H	-0.1235563532	-1.9479218309	-2.1084973485	 0.102513
H	-1.5613030732	-2.9609848094	 0.4795495721	 0.091996
68.6298	109.0171	121.0457	164.6233	230.0011	291.3713	302.4998	316.2839	387.9864	430.0189	444.7269	521.9443	654.3111	706.0805	813.3465	834.1268	883.7303	914.3004	964.2629	976.0192	987.4189	1031.0345	1045.4068	1056.6827	1077.6646	1083.1836	1096.0788	1116.0731	1149.0437	1204.5702	1215.2565	1231.563	1251.1675	1277.7595	1283.1834	1343.525	1390.7718	1392.1447	1399.6549	1417.2171	1426.6085	1480.0768	1497.7022	1501.965	1511.1966	2960.9606	2984.2558	3021.0908	3047.3534	3057.5712	3070.1257	3095.7055	3111.1764	3181.6801	3199.6302	3814.6971	3825.5659
OCC1CC2(CO)CC12	OC[C@H]1C[C@@]2(CO)C[C@@H]12	
InChI=1S/C7H12O2/c8-3-5-1-7(4-9)2-6(5)7/h5-6,8-9H,1-4H2	InChI=1S/C7H12O2/c8-3-5-1-7(4-9)2-6(5)7/h5-6,8-9H,1-4H2/t5-,6+,7+/m1/s1
