20
gdb 71795	3.678	1.71146	1.54635	1.5881	81.27	-0.2282	0.0997	0.3278	943.6611	0.174429	-365.997535	-365.990928	-365.989984	-366.027997	28.47	
C	-0.0414955225	 1.4617626488	 0.0857098207	-0.492602
C	 0.0450466004	-0.0303239684	-0.0766183127	 0.337808
C	-0.3911915755	-0.7350509093	-1.3498642794	-0.30269
C	-0.2034284173	-2.156090085	-0.8537832361	-0.039531
C	 1.1566026159	-2.2572419938	-0.0702061164	-0.071811
C	 0.4078839936	-3.1449984807	 0.9693809321	-0.22536
C	-0.7670991335	-2.2107697515	 0.5992731267	 0.001934
N	-0.3265933984	-0.8686863396	 1.1053391825	-0.166569
C	 1.0779822049	-0.8774295288	 0.586959646	-0.084603
H	 0.584978956	 1.9726418756	-0.6539238285	 0.114689
H	-1.0716311768	 1.8110569719	-0.0456314256	 0.119688
H	 0.2890201443	 1.7620045748	 1.0833515553	 0.128584
H	-1.4302302791	-0.5096836508	-1.6176978053	 0.099248
H	 0.2496769782	-0.4817907721	-2.2018791626	 0.10005
H	-0.44308609	-2.9910512163	-1.5089761559	 0.070341
H	 2.0917745296	-2.5562150185	-0.5427491708	 0.06389
H	 0.2567415979	-4.1699822186	 0.6209104885	 0.095997
H	 0.7557948902	-3.1381633966	 2.0053768793	 0.100736
H	-1.8073680559	-2.4313385167	 0.8369714018	 0.066421
H	 1.8582991581	-0.4844325344	 1.2300336803	 0.083778
186.4012	245.8703	279.7836	375.0421	441.4654	516.8403	572.1585	682.0763	697.3284	735.2523	796.5539	840.0178	845.8875	879.3001	890.0971	899.9059	934.7319	947.2646	992.1533	998.4929	1008.9431	1027.0512	1055.335	1058.9026	1074.3798	1104.3077	1110.7854	1163.126	1203.1694	1215.2428	1231.8864	1240.9415	1258.7332	1277.3893	1286.0462	1295.487	1330.9912	1400.4223	1422.7506	1485.2159	1489.65	1494.2462	1494.7192	3030.6744	3036.0325	3059.7656	3078.7498	3091.924	3117.5232	3117.8888	3118.8887	3120.6871	3142.8063	3164.3072
CC12CC3C4CC3N1C24	C[C@]12C[C@H]3[C@@H]4C[C@H]3N1[C@H]24	
InChI=1S/C8H11N/c1-8-3-5-4-2-6(5)9(8)7(4)8/h4-7H,2-3H2,1H3	InChI=1S/C8H11N/c1-8-3-5-4-2-6(5)9(8)7(4)8/h4-7H,2-3H2,1H3/t4-,5-,6+,7-,8+,9?/m0/s1
