16
gdb 69931	3.57511	1.64339	1.42376	2.6767	67.52	-0.2495	0.0195	0.269	929.4265	0.125059	-437.858774	-437.851819	-437.850875	-437.889946	27.265	
C	-0.1019436374	 1.5180223196	 0.0531505037	-0.509811
C	 0.136431968	 0.0459195593	-0.0043124607	 0.425248
O	-0.7484244943	-0.8232134006	 0.7030030316	-0.262786
C	 0.6455452788	-0.9404428465	 0.9852842514	-0.082177
C	 1.2603755701	-1.8116077892	-0.1254933985	 0.048899
O	 0.5588760128	-3.0244926817	-0.4329020321	-0.222512
C	-0.2695214608	-2.6963262994	-1.4665361257	 0.131759
N	-0.2302711939	-1.5385726938	-1.988387602	-0.25884
C	 0.7262288427	-0.7924399897	-1.1827503511	-0.116368
H	 0.7849741853	 2.067562639	-0.2777054815	 0.127531
H	-0.9348701071	 1.7955644053	-0.6015760111	 0.146836
H	-0.34937422	 1.8262683177	 1.0723811494	 0.137136
H	 0.9585484145	-0.8267028109	 2.017514088	 0.109006
H	 2.3300359441	-2.0082438918	-0.0498900015	 0.097461
H	-0.9079416641	-3.5106783236	-1.7901219615	 0.142399
H	 1.4584683413	-0.2504818035	-1.7848146683	 0.086219
154.9315	192.7017	237.0913	249.1725	338.682	473.6769	537.0283	571.7772	672.2116	742.1667	815.2607	828.4872	859.6558	888.1032	904.1366	923.2966	966.5694	1005.3321	1028.0348	1031.0408	1057.0918	1089.7983	1103.316	1188.9402	1189.471	1248.687	1253.5671	1294.5665	1320.3873	1348.6537	1404.0794	1457.6697	1480.737	1493.6133	1673.0415	3038.7917	3091.4997	3104.1936	3115.4943	3122.9866	3178.6788	3219.8302
CC12OC1C1OC=NC21	C[C@]12O[C@H]1[C@H]1OC=N[C@@H]21	
InChI=1S/C6H7NO2/c1-6-4-3(5(6)9-6)8-2-7-4/h2-5H,1H3	InChI=1S/C6H7NO2/c1-6-4-3(5(6)9-6)8-2-7-4/h2-5H,1H3/t3-,4+,5-,6+/m0/s1
