16
gdb 19762	3.2063	2.98124	2.48393	1.3462	66.9	-0.2248	0.0152	0.24	663.2166	0.134368	-346.605677	-346.600396	-346.599452	-346.634588	23.065	
C	-0.0055040186	 1.5694339677	 0.0089084997	-0.231026
C	 1.4810430018	 1.8650728841	 0.0162053993	-0.118832
C	 2.1044764929	 0.6346355876	 0.5886001159	 0.100655
O	 1.1177369574	-0.3134884271	 0.8661391996	-0.255325
C	 0.0240262446	 0.0176480974	-0.0349359167	 0.012112
C	 0.4188160692	-0.4303864021	-1.4164471133	-0.093229
C	 1.592321489	 0.0586498911	-1.8357082147	-0.041753
C	 2.3128793622	 0.9451045947	-0.9041250178	-0.132067
H	-0.4613242894	 1.9258655943	 0.9380744041	 0.105921
H	-0.5485298483	 1.985624136	-0.8428809601	 0.10787
H	 1.8485081961	 2.8623498618	 0.2200254871	 0.091861
H	 2.9386460748	 0.5956608917	 1.2766041156	 0.105451
H	-0.871773198	-0.4660904914	 0.352874553	 0.080157
H	-0.1921466905	-1.118987435	-1.9873082161	 0.089962
H	 2.041388473	-0.2035570073	-2.78797553	 0.093717
H	 3.2884666039	 1.3189963264	-1.1915092657	 0.084525
348.507	376.1271	433.4188	563.77	598.751	684.2885	695.4956	745.5216	770.9147	791.4747	845.2914	873.3914	912.6946	937.4023	951.3718	961.7087	985.1163	1007.4615	1059.3529	1060.8754	1080.4912	1090.0419	1137.8463	1151.5664	1185.7605	1239.7191	1278.8076	1312.0367	1331.1407	1359.9074	1393.551	1411.6511	1480.739	1670.6531	3054.4404	3110.061	3123.0231	3171.131	3183.5093	3195.9208	3205.9927	3209.6555
C1C2C3OC1C=CC23	C1[C@H]2[C@H]3O[C@@H]1C=C[C@@H]23	
InChI=1S/C7H8O/c1-2-5-6-3-4(1)8-7(5)6/h1-2,4-7H,3H2	InChI=1S/C7H8O/c1-2-5-6-3-4(1)8-7(5)6/h1-2,4-7H,3H2/t4-,5+,6-,7+/m1/s1
