20
gdb 58734	2.95898	1.40672	1.21172	2.2043	77.99	-0.2365	0.0629	0.2994	1111.2658	0.171115	-403.080317	-403.071893	-403.070949	-403.113467	32.597	
C	 0.0564851204	 1.4798242794	-0.2291294414	-0.414739
C	 0.0016411206	-0.0081863528	 0.1212624048	-0.047984
O	 0.7236129619	-0.2941285931	 1.3193392413	-0.421541
C	-1.4000261798	-0.5283188034	 0.2010877577	 0.386938
C	-2.007698227	-1.8714458817	 0.0630007294	-0.095422
C	-2.9070014968	-1.665927542	 1.2788984159	-0.238536
C	-2.7024402982	-0.1472040178	 1.0334312448	-0.146418
C	-3.3551863984	 0.0499992005	-0.3424779153	-0.146545
N	-2.2873351871	-0.7989345643	-0.9674312005	-0.19753
H	 1.0953102452	 1.8164184381	-0.2804123129	 0.125058
H	-0.424793641	 1.6678353367	-1.1933791237	 0.134705
H	-0.4612824402	 2.0780137338	 0.5311634391	 0.105723
H	 0.5131364616	-0.5806351457	-0.6617638469	 0.102383
H	 0.3626881434	 0.2655429826	 2.0157519325	 0.278074
H	-1.5672154314	-2.7844099421	-0.3156915721	 0.100983
H	-3.9343102557	-2.0461770503	 1.2561466822	 0.094029
H	-2.4028963956	-2.0060550321	 2.1868285134	 0.110695
H	-2.8052573232	 0.5717706693	 1.8449285508	 0.068507
H	-4.382359432	-0.307586534	-0.4837420871	 0.094892
H	-3.2603251668	 1.0654058091	-0.735415892	 0.10673
61.1315	122.5553	169.6479	258.2865	267.7198	321.3939	364.5955	439.31	494.5659	513.5336	613.921	724.838	751.7688	832.1755	864.7814	911.7741	924.8018	936.2252	969.5739	982.0526	995.4558	1009.2014	1037.4837	1070.4619	1079.6331	1102.6941	1126.9457	1148.2579	1178.7828	1193.0001	1226.7517	1255.4985	1277.4242	1287.2795	1315.3143	1335.6821	1397.6209	1403.4449	1444.3085	1490.6753	1493.8156	1497.0229	1514.9859	3025.9507	3029.1212	3041.212	3046.4674	3099.2466	3099.6943	3107.5495	3123.8469	3124.4048	3205.5677	3801.2723
CC(O)C12C3CC1CN23	C[C@@H](O)[C@@]12[C@H]3C[C@@H]1CN23	
InChI=1S/C7H11NO/c1-4(9)7-5-2-6(7)8(7)3-5/h4-6,9H,2-3H2,1H3	InChI=1S/C7H11NO/c1-4(9)7-5-2-6(7)8(7)3-5/h4-6,9H,2-3H2,1H3/t4-,5-,6-,7+,8?/m1/s1
