18
gdb 22195	1.98831	1.22992	0.84705	8.2679	83.81	-0.1509	0.0072	0.1581	1372.1477	0.145805	-435.173912	-435.16382	-435.162876	-435.209528	35.122	
C	 0.7791498765	 1.3710654649	-0.2023413209	-0.345904
N	 0.8947796172	-0.1038196305	-0.2853008328	-0.264229
H	 1.87798257	-0.4006519143	-0.3555282309	 0.318191
H	 0.5062197177	-0.56372387	 0.5392600118	 0.297312
C	 0.1275153988	-0.8226399804	-1.535992313	-0.272382
C	 0.2824389743	-2.260292351	-1.4796413972	 0.206913
C	 1.5260060563	-2.9891124063	-1.9570222915	-0.419717
C	 2.7097928935	-2.2885241963	-1.4813087405	 0.251909
N	 3.5412853799	-1.60032527	-1.0514946789	-0.373811
N	-0.6688341605	-2.9219986224	-0.801094251	-0.082151
O	-0.525803706	-4.1585674458	-0.631952601	-0.42081
H	 1.2113672252	 1.8047215634	-1.1053806844	 0.175009
H	-0.2764725626	 1.6405437975	-0.1385506185	 0.170295
H	 1.3117020739	 1.7476324157	 0.6729793338	 0.168526
H	-0.9110281813	-0.5252059119	-1.3798893003	 0.143241
H	 0.5703460609	-0.3089686389	-2.3934173837	 0.131353
H	 1.4296158839	-3.9905320625	-1.5042314516	 0.176763
H	 1.5938051625	-3.1157461511	-3.0456915195	 0.139488
75.1263	78.7604	102.2403	142.8006	183.3743	219.5692	251.025	292.4545	316.5698	355.6725	400.7039	442.4926	566.8376	593.0065	732.8131	779.927	841.2396	923.5092	935.9993	962.9487	1003.7375	1082.0511	1133.1314	1164.5523	1254.0643	1272.9059	1295.3526	1331.0461	1355.4147	1378.036	1383.4141	1431.7348	1453.0715	1454.8682	1468.8796	1494.8627	1501.3855	1651.0312	2297.7778	2975.0314	3029.4946	3062.2993	3067.3994	3139.0783	3153.2333	3161.3521	3327.0571	3481.8363
C[NH2+]CC(CC#N)=N[O-]	C[NH2]CC(=N[O])CC#N	
InChI=1S/C5H9N3O/c1-7-4-5(8-9)2-3-6/h7,9H,2,4H2,1H3	InChI=1S/C5H9N3O/c1-7-4-5(8-9)2-3-6/h2,4,7H2,1H3
