16
gdb 54162	2.25804	1.46908	1.12438	6.0351	70.68	-0.2571	-0.0368	0.2203	1119.1535	0.121191	-437.901664	-437.892293	-437.891348	-437.936105	33.65	
C	-0.029386455	 1.4307790971	 0.3308443289	-0.477863
C	 0.0254700721	-0.017004795	-0.1014556929	 0.326338
O	 1.0374309281	-0.5553768792	-0.4882916427	-0.296487
C	-1.2695453063	-0.7993401555	-0.0189823525	 0.263998
O	-2.4354517614	-0.0738733215	 0.2289709185	-0.454368
C	-1.3543176267	-2.0908223503	-0.7878340668	-0.334864
C	-1.2352075541	-2.1444385279	 0.7190374379	-0.194654
C	-0.0527308751	-2.6381271833	 1.3666035055	 0.315268
N	 0.8672068133	-3.0621281512	 1.9240504794	-0.337383
H	 0.9764478179	 1.8499457243	 0.3067432741	 0.148777
H	-0.6845218607	 2.005080975	-0.3334946823	 0.1346
H	-0.4582932193	 1.5148381043	 1.33413824	 0.157113
H	-2.7707004259	 0.2626427775	-0.6096389377	 0.295865
H	-2.3167317566	-2.3598237868	-1.2066596695	 0.133584
H	-0.473650026	-2.3566643257	-1.359572454	 0.167408
H	-2.1548768343	-2.3365840618	 1.2615594539	 0.152668
53.9676	115.0662	136.1804	147.102	243.6097	270.0765	293.4137	339.1468	380.2977	450.0357	511.9585	534.6975	565.2493	645.8882	658.7536	791.3734	863.9894	897.3547	957.4323	969.2546	1045.9527	1069.0612	1083.8939	1125.817	1161.8432	1238.628	1315.8426	1334.4646	1377.8095	1387.6217	1452.8714	1454.7376	1468.5834	1802.6245	2360.9769	3044.6995	3105.8515	3148.9916	3162.6586	3176.2815	3254.608	3797.9797
CC(=O)C1(O)CC1C#N	CC(=O)[C@@]1(O)C[C@H]1C#N	
InChI=1S/C6H7NO2/c1-4(8)6(9)2-5(6)3-7/h5,9H,2H2,1H3	InChI=1S/C6H7NO2/c1-4(8)6(9)2-5(6)3-7/h5,9H,2H2,1H3/t5-,6-/m0/s1
