18
gdb 75591	2.41954	1.68434	1.08034	2.007	77.81	-0.2248	-0.0217	0.2031	1115.5547	0.150222	-435.282169	-435.273992	-435.273048	-435.315083	31.513	
N	 0.1769313494	 0.8591616609	 1.1054082227	-0.517593
C	 0.0672111581	-0.2487198927	 0.2908079443	 0.291633
N	-1.074180423	-0.7992268558	 0.1562770339	-0.316993
C	-1.4330787984	-1.9860377909	-0.5723394323	-0.145022
C	-0.3614504552	-2.7481427935	-1.3575650412	-0.233244
C	 0.902120019	-2.9481375509	-0.5344681293	-0.077017
O	 1.7921224898	-1.8320815191	-0.6560847757	-0.25112
C	 1.4309747358	-0.5788235399	-0.316044057	 0.342505
N	 2.2417982113	 0.3876951417	-0.4788661164	-0.520478
H	 0.9568697573	 1.4640677996	 0.892232635	 0.270607
H	-0.7050971533	 1.3009814391	 1.3154807126	 0.247255
H	-1.8792045054	-2.6793320262	 0.157664914	 0.108729
H	-2.2588696305	-1.7228702395	-1.2477446227	 0.111058
H	-0.7696779439	-3.7214993241	-1.6541413624	 0.104897
H	-0.0868819664	-2.2246446285	-2.2808749551	 0.117072
H	 0.6683991479	-3.1273174149	 0.5227415682	 0.121238
H	 1.4950110754	-3.7894568323	-0.8995489813	 0.121275
H	 3.1144757919	 0.0510109671	-0.8892076476	 0.225198
65.9478	110.005	223.722	276.613	346.0434	373.4303	401.5073	423.4342	500.6341	561.9116	568.6991	600.3598	659.1909	701.6821	786.5847	833.6233	889.1298	902.4716	918.44	991.1893	1032.1449	1067.7807	1120.1682	1173.1425	1214.8682	1244.3777	1278.7428	1291.1383	1313.9055	1361.8276	1383.2001	1404.7976	1433.8027	1474.0759	1484.9704	1509.5816	1594.5279	1695.5947	1750.4861	2984.5412	3016.9809	3029.6455	3036.4927	3077.8456	3107.9404	3472.5487	3561.5688	3688.4601
NC1=NCCCOC1=N	NC1=NCCCO[C]1[NH]	
InChI=1S/C5H9N3O/c6-4-5(7)9-3-1-2-8-4/h7H,1-3H2,(H2,6,8)	InChI=1S/C5H9N3O/c6-4-5(7)9-3-1-2-8-4/h7H,1-3H2,(H2,6,8)
