23
gdb 58583	2.3428	1.44799	1.21686	1.2291	80.58	-0.2524	0.0774	0.3298	1181.2786	0.204794	-425.437509	-425.427639	-425.426694	-425.471942	37.236	
C	-0.0091638606	 1.5713981025	 0.0710975972	-0.403547
C	-0.0370764544	 0.0360466922	 0.003759205	 0.01115
C	-1.4912214455	-0.4544977706	 0.0822128972	-0.399379
C	 0.7010548546	-0.5123512987	-1.2468469008	 0.382644
C	 2.1402097927	-0.0023404815	-1.3569052426	-0.444571
C	 0.6496003889	-2.064871845	-1.3360926984	-0.168358
O	-0.3991079913	-2.335462888	-2.2530766703	-0.234346
C	-0.3417097612	-1.2678160601	-3.1633178263	 0.01746
O	-0.0356534816	-0.1093009547	-2.4227178384	-0.296872
H	 1.0006659628	 1.9675857357	 0.20536972	 0.109954
H	-0.4261544627	 2.0001283521	-0.8456797581	 0.132172
H	-0.6134075615	 1.9242954302	 0.9127030033	 0.107954
H	 0.5091395436	-0.3563326562	 0.8739364291	 0.067408
H	-2.0749170134	-0.0427574827	-0.74582945	 0.12606
H	-1.5767405249	-1.542794704	 0.0356147159	 0.120884
H	-1.94898296	-0.1206581593	 1.0186666245	 0.104154
H	 2.7226667473	-0.2821709496	-0.471701885	 0.113951
H	 2.6290456418	-0.4341394039	-2.2351466265	 0.114516
H	 2.1686651766	 1.0838046208	-1.4581812705	 0.131545
H	 1.6045018306	-2.4639041874	-1.710539797	 0.091949
H	 0.4144452138	-2.5509728737	-0.3874074704	 0.11776
H	 0.4353381291	-1.451631057	-3.929399645	 0.080554
H	-1.3190007745	-1.1528461612	-3.6419630631	 0.116955
68.2352	95.8357	190.8533	207.9751	213.907	234.1908	261.6343	311.3879	353.7499	376.9883	392.4746	449.5801	546.5776	614.7938	733.9378	764.2158	852.392	900.319	929.9081	942.8989	970.189	979.9286	996.5426	1040.5435	1057.3559	1104.2958	1113.2269	1164.2857	1173.9973	1192.7823	1202.5234	1225.4996	1249.497	1282.4059	1344.5817	1352.7763	1368.7533	1398.2781	1407.677	1421.1501	1432.3328	1483.3874	1485.6508	1492.8316	1498.7521	1507.012	1517.1966	1524.7704	1545.1735	2921.2475	2989.0456	2999.3384	3038.1367	3039.8182	3045.6054	3079.6806	3104.0296	3104.4988	3109.5192	3111.3341	3116.3645	3124.4365	3136.0351
CC(C)C1(C)COCO1	CC(C)[C@@]1(C)COCO1	
InChI=1S/C7H14O2/c1-6(2)7(3)4-8-5-9-7/h6H,4-5H2,1-3H3	InChI=1S/C7H14O2/c1-6(2)7(3)4-8-5-9-7/h6H,4-5H2,1-3H3/t7-/m1/s1
