20
gdb 9749	3.66527	1.5623	1.48805	0.9897	75.57	-0.2374	0.0279	0.2653	972.6219	0.176537	-349.010128	-349.001798	-349.000854	-349.042547	31.883	
C	-0.0319590091	 1.5327810234	 0.2549546261	-0.247378
O	 0.0397303227	 0.1270071437	 0.1865493867	-0.286935
C	-1.1811911957	-0.5632109081	-0.0726767965	 0.422904
C	-2.2356933147	-0.287018129	 1.0068519806	-0.440806
C	-1.7603425715	-0.2710763858	-1.4962540315	-0.307418
C	-2.1268095822	-1.6369451171	-2.0189685234	-0.060209
C	-1.6232506493	-2.6131084057	-1.2655773815	-0.063697
C	-0.8309366888	-2.0773289175	-0.1026589874	-0.304412
H	 0.9964756406	 1.8950442134	 0.3339544062	 0.124353
H	-0.4864449413	 1.9743316811	-0.644237264	 0.103218
H	-0.5904820762	 1.8877610516	 1.1325440278	 0.106102
H	-2.585217391	 0.7496607461	 0.9869635073	 0.111507
H	-3.1049782996	-0.9311772527	 0.8419111712	 0.123498
H	-1.8294775514	-0.5001291448	 2.0005936704	 0.118194
H	-2.6110859731	 0.4204052621	-1.4724518596	 0.095511
H	-0.9902144416	 0.1947186909	-2.1260304379	 0.111679
H	-2.7071289774	-1.7778885343	-2.924464407	 0.088826
H	-1.7306164279	-3.6744996754	-1.4606652908	 0.089884
H	 0.248530176	-2.192669297	-0.2614485605	 0.11821
H	-1.0650967885	-2.570849975	 0.8478756338	 0.096971
89.6899	114.3606	201.0665	244.6573	306.841	336.0058	358.564	402.7521	430.5954	466.9549	603.9448	693.3006	767.7943	776.4485	901.9362	911.7761	934.9447	964.1945	978.2206	988.7411	993.8091	1093.8248	1107.3323	1131.9693	1150.4674	1177.8304	1184.1541	1201.2177	1237.8002	1275.3884	1296.7573	1343.5628	1371.7591	1400.4796	1474.8691	1477.6274	1480.9454	1489.7188	1494.2591	1508.8794	1513.0091	1690.1415	2987.876	3013.9496	3026.7779	3033.8212	3039.3223	3050.714	3059.48	3105.6454	3109.2479	3112.453	3178.6651	3204.3011
COC1(C)CC=CC1	CO[C@@]1(C)CC=CC1	
InChI=1S/C7H12O/c1-7(8-2)5-3-4-6-7/h3-4H,5-6H2,1-2H3	InChI=1S/C7H12O/c1-7(8-2)5-3-4-6-7/h3-4H,5-6H2,1-2H3
