15
gdb 125809	2.43837	1.81103	1.04689	2.5075	73.84	-0.2208	-0.0588	0.162	1077.2856	0.112446	-453.94865	-453.940531	-453.939587	-453.981122	30.611	
C	-0.031999264	 1.4631992849	 0.0667791897	-0.458306
C	-0.0200001803	-0.0345470505	 0.0079714694	 0.241483
N	-0.0196763002	-0.5708665413	-1.1746712766	-0.129982
O	-0.0005328801	-1.9409710866	-1.2545201514	-0.224261
C	 0.0043551924	-2.7103110875	-0.1468614664	 0.017551
C	-0.0017335863	-2.2241566732	 1.1196784515	 0.13684
N	-0.0520618424	-2.9686831655	 2.278994911	-0.5866
C	 0.0012114157	-0.778372287	 1.2745252852	 0.289544
O	 0.0303120055	-0.2305042429	 2.3744592433	-0.388506
H	 0.8416032433	 1.8225115117	 0.619261936	 0.149891
H	-0.0346703837	 1.883896874	-0.9391733811	 0.141354
H	-0.9122255091	 1.8094889583	 0.6172773878	 0.150237
H	 0.0126836421	-3.761083599	-0.4128484991	 0.138314
H	 0.3730657779	-3.8825619368	 2.2662516457	 0.2532
H	 0.1849643794	-2.4080184687	 3.0881804051	 0.269241
103.4128	141.878	247.6642	271.8642	305.5663	311.114	370.5115	449.7511	473.1245	523.328	540.7023	575.6658	615.6587	679.7953	800.7543	860.306	867.2202	927.8099	1004.7951	1050.3525	1055.8306	1135.6695	1211.6013	1335.4087	1349.2253	1408.6903	1463.1363	1467.582	1468.2923	1601.2772	1613.7175	1678.1895	1716.5938	3050.0356	3107.7393	3155.3367	3202.6247	3546.3438	3669.4949
CC1=NOC=C(N)C1=O	Cc1nocc(N)c1=O	
InChI=1S/C5H6N2O2/c1-3-5(8)4(6)2-9-7-3/h2H,6H2,1H3	InChI=1S/C5H6N2O2/c1-3-5(8)4(6)2-9-7-3/h2H,6H2,1H3
