22
gdb 112978	4.85388	0.78932	0.74946	1.5658	85.21	-0.21	0.0851	0.2951	1612.4919	0.193231	-404.292422	-404.282971	-404.282027	-404.327339	34.825	
C	 0.2824698524	 1.2920358233	 0.1859332006	-0.237124
O	-0.2297678273	 0.0415450194	-0.2129969131	-0.241862
C	 0.501916329	-0.5512369529	-1.2545996417	 0.132673
C	 1.8026551268	-1.293457064	-0.830737032	-0.201235
N	 1.0494010705	-2.5644167063	-0.8464145843	-0.065883
C	-0.0618768709	-1.9442120478	-1.5988473308	-0.193414
C	 1.6717197667	-3.7366830873	-1.3587504725	 0.058158
C	 2.4349510951	-4.6105868709	-0.3970084739	-0.274775
C	 1.1092619512	-5.0736367973	-0.9502140059	-0.275142
H	 1.3072103475	 1.2157825269	 0.579509863	 0.10673
H	 0.2880217152	 2.012913402	-0.6474665025	 0.10258
H	-0.3683568972	 1.6716279808	 0.9771747371	 0.128423
H	 0.6133309182	 0.1508090328	-2.0920136499	 0.065442
H	 2.5873416841	-1.2338638696	-1.6017934277	 0.08169
H	 2.2355801289	-1.0282061342	 0.1400972749	 0.103108
H	-1.0615739227	-2.158137228	-1.2084141742	 0.1118
H	-0.0384227364	-2.1532388794	-2.6795767446	 0.083582
H	 2.073089364	-3.669695793	-2.3778458192	 0.059737
H	 3.3409686186	-5.0913012282	-0.7484461714	 0.108552
H	 2.4567841119	-4.2904153598	 0.6379507894	 0.118524
H	 0.2582027407	-5.0600108734	-0.2795999239	 0.119602
H	 1.1030456536	-5.8726608531	-1.6830618573	 0.108832
57.5047	83.1766	116.5888	158.2999	203.0805	234.6678	280.0788	323.2069	431.3963	443.0091	488.39	651.1664	782.1281	824.8889	830.8596	858.2561	890.405	931.4752	956.8656	997.9486	1023.2356	1052.7326	1072.4178	1082.7863	1104.1291	1114.7424	1131.0515	1134.8441	1155.8125	1184.2034	1186.5438	1195.9228	1219.2288	1248.1563	1268.6545	1283.3478	1286.1643	1341.9413	1392.5417	1407.0543	1456.2582	1482.6064	1485.4058	1489.3803	1495.2149	1509.9793	1513.656	2971.198	2972.7501	2981.6184	3008.0474	3013.2199	3020.5192	3057.7326	3075.6281	3115.5663	3138.2479	3143.1684	3222.9172	3236.6097
COC1CN(C1)C1CC1	CO[C@H]1CN(C1)C1CC1	
InChI=1S/C7H13NO/c1-9-7-4-8(5-7)6-2-3-6/h6-7H,2-5H2,1H3	InChI=1S/C7H13NO/c1-9-7-4-8(5-7)6-2-3-6/h6-7H,2-5H2,1H3
