22
gdb 112011	2.48874	1.40032	1.08146	1.5362	87.17	-0.2251	0.0156	0.2407	1235.4956	0.194585	-367.204931	-367.195885	-367.194941	-367.238449	35.125	
C	-0.0907583222	 1.5692412422	 0.0488926276	-0.389593
C	-0.0699943153	 0.0424761039	-0.0684581984	-0.172018
C	 0.7531159466	-0.4860475346	-1.2589645825	-0.067445
C	 2.243752458	-0.1994421102	-1.1859059726	-0.08749
C	 2.9866807181	-1.3030082784	-1.2938661155	-0.057897
C	 2.1154131259	-2.5071051155	-1.4115249788	-0.142332
N	 1.2576114252	-2.7071679102	-0.2008844655	-0.366877
C	 0.709495859	-2.0202606273	-1.3947252442	 0.312482
C	-0.412858089	-2.6562546984	-2.1725218562	-0.494441
H	 0.9094180485	 1.9760205705	 0.2297699737	 0.117089
H	-0.478058648	 2.0358554995	-0.8643548979	 0.109295
H	-0.728407437	 1.8885333078	 0.8793095144	 0.111581
H	 0.3247321936	-0.4070976475	 0.8477472437	 0.120671
H	-1.1005915039	-0.3213558395	-0.1749435758	 0.087446
H	 0.3394463971	-0.0374796752	-2.1765841711	 0.068981
H	 2.634868875	 0.8013522964	-1.0412770653	 0.094983
H	 4.0690331604	-1.3469767399	-1.2676615757	 0.094908
H	 2.4238288617	-3.3825003082	-1.9744916391	 0.082835
H	 0.9133610438	-3.6674069429	-0.208475586	 0.218392
H	-1.3778427459	-2.5044329369	-1.6737393284	 0.124718
H	-0.4895287516	-2.2277441982	-3.177923504	 0.123566
H	-0.25942091	-3.7355692672	-2.2791795823	 0.111147
79.7893	131.6673	171.6733	204.8719	241.107	273.2934	301.6773	338.8719	456.2542	490.6997	556.9645	596.4827	719.4099	758.8183	764.1527	821.2424	857.2624	873.0505	914.637	950.1443	950.2154	969.4606	988.9084	1041.2012	1050.7011	1066.6037	1108.9002	1115.7824	1131.2485	1143.7264	1171.7268	1258.6457	1269.6357	1284.8907	1335.3806	1346.959	1366.6183	1382.1887	1412.0017	1414.3521	1437.4071	1485.0085	1489.5714	1499.8128	1501.7446	1507.7882	1665.9788	2971.4622	3018.5611	3020.9764	3029.3458	3078.6739	3081.4314	3094.0626	3099.7737	3103.2972	3158.6903	3188.0095	3212.9871	3457.1452
CCC1C=CC2NC12C	CC[C@H]1C=C[C@H]2N[C@@]12C	
InChI=1S/C8H13N/c1-3-6-4-5-7-8(6,2)9-7/h4-7,9H,3H2,1-2H3	InChI=1S/C8H13N/c1-3-6-4-5-7-8(6,2)9-7/h4-7,9H,3H2,1-2H3/t6-,7+,8-/m0/s1
