19
gdb 23467	2.97887	1.31312	1.01454	1.5089	79.59	-0.2293	0.0125	0.2418	1187.7774	0.161714	-419.160062	-419.152088	-419.151144	-419.192561	31.49	
O	-0.0170307311	 1.3199102213	 0.1397471527	-0.39699
N	 0.0498364057	-0.0833543953	 0.1096481667	-0.228071
C	-1.1015637691	-0.6293204475	 0.0005166489	 0.435194
C	-2.4414095742	 0.0561712119	-0.0513095963	-0.313165
C	-3.377760693	-0.5739464445	 0.9995272688	-0.205986
C	-3.6277746346	-2.071934795	 0.7507502131	-0.200246
C	-2.3685865301	-2.8374821694	 0.3571955123	-0.031799
N	-1.9746369991	-2.7293267235	-1.0545790941	-0.33836
C	-1.113669196	-2.1124304868	-0.0167661953	-0.111578
H	 0.9102100223	 1.5596279703	 0.2364016217	 0.304665
H	-2.3197096415	 1.1250349195	 0.1220671093	 0.130266
H	-2.8664845931	-0.0806891901	-1.0530734156	 0.13035
H	-2.9269980333	-0.4383848539	 1.9904449428	 0.105632
H	-4.3318784	-0.0370789375	 1.0144375393	 0.098407
H	-4.0603868251	-2.5221485596	 1.6506722417	 0.096892
H	-4.3628188581	-2.1985804708	-0.0522864632	 0.112302
H	-2.2345245191	-3.8066850685	 0.8326379	 0.087153
H	-1.5464307036	-3.5933554753	-1.3760543293	 0.234364
H	-0.1555171569	-2.5748609854	 0.1996719965	 0.09097
76.349	176.2919	215.858	281.7661	340.9829	365.3606	417.3105	430.8207	455.7078	558.46	614.2511	701.0423	761.6472	772.1066	843.3525	882.3403	909.1611	921.238	930.841	971.6406	999.8259	1054.8131	1063.5332	1116.1296	1153.2722	1163.19	1193.6993	1228.9999	1257.5599	1284.3648	1292.723	1350.4441	1363.6468	1374.9312	1381.6377	1421.715	1456.8369	1475.1221	1482.1673	1496.752	1729.8174	3028.1841	3035.5819	3043.963	3070.3208	3083.5002	3126.7447	3137.6677	3160.1854	3505.1545	3825.1936
ON=C1CCCC2NC12	ON=C1CCC[C@H]2N[C@@H]12	
InChI=1S/C6H10N2O/c9-8-5-3-1-2-4-6(5)7-4/h4,6-7,9H,1-3H2	InChI=1S/C6H10N2O/c9-8-5-3-1-2-4-6(5)7-4/h4,6-7,9H,1-3H2/t4-,6-/m1/s1
