15
gdb 9736	3.92551	1.55976	1.50446	2.2713	61.26	-0.266	0.0111	0.2771	879.7496	0.118971	-399.807709	-399.800004	-399.79906	-399.840419	27.664	
O	-0.213846947	 1.3865463566	-0.1831327338	-0.453351
C	-0.0065732855	-0.0068416968	-0.0112618287	 0.203067
C	-1.3952621624	-0.6653900911	-0.079686473	-0.242538
C	-1.6052087794	-0.732725019	-1.5936972449	-0.080201
O	-0.3211184916	-1.0323847096	-2.141790162	-0.258272
C	 0.6978287558	-0.6508543597	-1.2354205464	-0.08844
C	 0.7179679979	-0.2689585096	 1.2446624053	 0.232885
N	 1.3109559189	-0.4521851298	 2.2195297948	-0.332544
H	 0.6440112642	 1.8201849679	-0.2563329511	 0.294923
H	-1.355084383	-1.6663718296	 0.3569060293	 0.13102
H	-2.1381977129	-0.0674032853	 0.4494921552	 0.136075
H	-2.2986668379	-1.5216671102	-1.8971632678	 0.116494
H	-1.9708706662	 0.2281576175	-1.9787540173	 0.114956
H	 1.3763906876	 0.075892175	-1.7014996012	 0.106007
H	 1.2835914215	-1.5305350764	-0.9395661586	 0.11992
37.3822	152.3002	166.5988	222.1324	319.893	382.8106	401.1612	497.1501	556.6972	594.5865	670.224	793.5229	864.0076	921.5299	953.2268	974.3126	1023.0114	1062.1232	1080.8231	1142.0003	1176.6661	1197.3402	1247.6069	1267.8542	1317.7358	1352.6086	1372.555	1411.2455	1474.5277	1508.417	1524.6442	2354.1363	3008.8247	3022.0292	3049.4875	3078.0436	3094.7132	3144.4234	3803.8456
OC1(CCOC1)C#N	O[C@]1(CCOC1)C#N	
InChI=1S/C5H7NO2/c6-3-5(7)1-2-8-4-5/h7H,1-2,4H2	InChI=1S/C5H7NO2/c6-3-5(7)1-2-8-4-5/h7H,1-2,4H2/t5-/m1/s1
