21
gdb 105269	2.53073	1.26925	1.07491	2.2248	79.58	-0.2241	0.0717	0.2958	1239.8758	0.180501	-424.170398	-424.160751	-424.159807	-424.204775	36.438	
C	-0.4694324743	 1.2384725279	-0.0293931078	-0.243372
O	 0.1523499843	-0.0285758299	 0.0146257462	-0.289492
C	 0.655419071	-0.5858732262	-1.1655095144	 0.401846
C	 0.570967927	 0.1216104448	-2.5055067689	-0.41381
C	 1.9055198525	-0.0173421037	-1.7905383407	 0.05311
O	 2.4520082429	 1.108819508	-1.1686520213	-0.419449
C	 0.4997748514	-2.0797106359	-1.1494658035	-0.026211
C	 0.5489672889	-2.8467014155	 0.1469437244	-0.268585
C	-0.7532972664	-2.7179627539	-0.6059033264	-0.272575
H	 0.2302939354	 2.0286374898	-0.3237320596	 0.121267
H	-1.3352569412	 1.2471617737	-0.7058741877	 0.105975
H	-0.8186304806	 1.4363382784	 0.9872834364	 0.123209
H	 0.3696250319	-0.47612256	-3.3887972356	 0.111622
H	 0.1566145173	 1.1226323882	-2.5355997727	 0.115944
H	 2.6357504399	-0.7214571328	-2.1909978699	 0.083199
H	 2.8079125381	 1.6832049451	-1.8553141778	 0.287125
H	 0.9515421202	-2.5634767565	-2.0107891634	 0.076143
H	 1.0537015091	-3.8064993903	 0.1523291357	 0.10333
H	 0.6515369231	-2.2699414198	 1.0578840236	 0.130137
H	-1.5003789782	-2.0566541382	-0.183300859	 0.117284
H	-1.1496203822	-3.5880641232	-1.1176184277	 0.103304
76.3754	86.8156	171.1101	188.0368	209.873	258.4198	293.2385	313.9583	363.097	372.7347	473.1055	533.9431	607.6846	673.11	787.1691	800.9951	823.7014	867.1045	887.1518	951.397	959.5447	997.3923	1027.6084	1063.6683	1077.2853	1085.0277	1090.3211	1134.0791	1144.3801	1158.9846	1176.87	1201.45	1216.9801	1226.3692	1257.4629	1271.626	1324.1213	1402.749	1431.5885	1457.9204	1476.0184	1479.327	1491.4395	1506.6229	1518.9396	3000.5158	3071.5525	3089.9197	3114.4107	3131.4864	3137.6726	3140.0756	3147.9056	3223.2046	3223.9915	3237.5747	3795.5423
COC1(CC1O)C1CC1	CO[C@]1(C[C@H]1O)C1CC1	
InChI=1S/C7H12O2/c1-9-7(4-6(7)8)5-2-3-5/h5-6,8H,2-4H2,1H3	InChI=1S/C7H12O2/c1-9-7(4-6(7)8)5-2-3-5/h5-6,8H,2-4H2,1H3/t6-,7-/m1/s1
