17
gdb 44475	3.83067	1.61863	1.4955	2.8993	72.23	-0.2455	0.0254	0.2708	907.7478	0.1408	-417.994478	-417.988448	-417.987503	-418.024699	25.654	
N	-0.0733734923	 1.2505437129	 0.1747102191	-0.555989
C	-0.0145091785	 0.0087308439	-0.0230594319	 0.422808
O	 1.1534005788	-0.7208216064	-0.1874059053	-0.256936
C	 0.7543650188	-2.0337893224	-0.567177305	 0.102315
C	-0.0082346292	-2.9329338506	 0.4779815678	-0.06375
C	-0.9072416025	-1.9096862394	 1.1836899221	-0.202017
C	-1.1483742461	-0.9860093051	-0.0657021443	-0.112426
C	-0.6631661382	-1.9864293214	-1.1607511046	-0.051109
N	-0.9494851012	-3.3575755859	-0.6243667746	-0.328041
H	 0.8637790893	 1.6571559788	 0.1954648238	 0.223432
H	 1.5466315251	-2.5213524269	-1.1336991097	 0.094962
H	 0.4727093381	-3.7112098225	 1.0687120595	 0.077272
H	-1.827541192	-2.3829595578	 1.5279403534	 0.121338
H	-0.4312609547	-1.3811095233	 2.0113453892	 0.11912
H	-2.133563474	-0.5401149082	-0.1603882031	 0.101697
H	-0.8882316055	-1.7644564319	-2.2028433273	 0.08771
H	-0.456158206	-4.0193080838	-1.2263180792	 0.219615
153.1175	321.7221	373.612	446.9511	513.4213	545.26	684.3226	717.6729	766.6785	813.4753	832.3514	853.8291	886.2988	894.4016	909.2508	917.294	957.6582	967.9772	992.6788	1025.6115	1031.4639	1061.9978	1089.6089	1118.5624	1155.4359	1190.5972	1199.3507	1213.988	1254.7912	1256.6967	1283.7563	1317.9362	1328.3794	1357.9711	1373.8869	1488.7863	1795.5021	3083.84	3128.3845	3132.1122	3140.6862	3141.5611	3173.684	3441.3844	3469.9587
N=C1OC2C3CC1C2N3	[NH][C]1O[C@H]2[C@H]3C[C@@H]1[C@@H]2N3	
InChI=1S/C6H8N2O/c7-6-2-1-3-5(9-6)4(2)8-3/h2-5,7-8H,1H2	InChI=1S/C6H8N2O/c7-6-2-1-3-5(9-6)4(2)8-3/h2-5,7-8H,1H2/t2-,3-,4+,5+/m1/s1
