18
gdb 74302	2.77328	1.22873	1.15379	2.1017	74.06	-0.2424	-0.0293	0.2131	1174.0239	0.145753	-439.126071	-439.116814	-439.11587	-439.160574	33.026	
C	-0.0753000445	 1.56682812	-0.219730855	-0.47568
C	-0.1153693743	 0.0811559886	-0.1129020948	 0.408904
N	-1.1616166067	-0.64731488	-0.1372327243	-0.349935
C	-0.7047223151	-2.0424720981	 0.025872559	 0.173514
C	-1.2473637918	-2.9307994473	-1.1009614801	-0.440558
C	 0.8381230216	-1.9391310782	 0.0676864699	-0.160356
O	 1.094630474	-0.5180949859	 0.01814609	-0.250198
C	-1.2903288589	-2.530909069	 1.3548109687	 0.147303
O	-0.6530354602	-3.0066256657	 2.2576446134	-0.252956
H	 0.5233950599	 1.8675417034	-1.0850023376	 0.148147
H	-1.0873909057	 1.9570621457	-0.3185005405	 0.153723
H	 0.3998917791	 1.9940863071	 0.6687287447	 0.151353
H	-0.9290628785	-2.5342001586	-2.0692867993	 0.129911
H	-0.8793331386	-3.9573474613	-1.0020355768	 0.127368
H	-2.3409955206	-2.9477812799	-1.0863190773	 0.133947
H	 1.2525919165	-2.3455809937	 0.9925969034	 0.145042
H	 1.3226052608	-2.4062679564	-0.794424414	 0.113155
H	-2.3912892468	-2.3970895307	 1.4202372505	 0.097315
57.8324	87.7707	137.1131	172.3173	212.735	261.8404	299.0807	309.918	381.3353	415.9019	535.841	633.4898	655.0253	692.3701	835.1415	887.4608	925.4593	948.7763	982.7658	1000.1946	1021.8599	1060.2478	1066.9672	1162.2968	1176.8906	1206.8908	1254.7932	1311.0699	1377.7134	1395.2412	1412.0643	1415.6333	1474.4134	1475.1347	1485.2976	1491.6425	1519.5155	1717.8314	1831.1709	2909.695	3035.9523	3052.9224	3059.3264	3111.2449	3112.8815	3117.9235	3120.9621	3168.3123
CC1=NC(C)(CO1)C=O	CC1=N[C@@](C)(CO1)C=O	
InChI=1S/C6H9NO2/c1-5-7-6(2,3-8)4-9-5/h3H,4H2,1-2H3	InChI=1S/C6H9NO2/c1-5-7-6(2,3-8)4-9-5/h3H,4H2,1-2H3/t6-/m1/s1
