20
gdb 63272	2.10448	1.62057	1.25231	4.2307	79.98	-0.2325	-0.0262	0.2063	1116.9168	0.168969	-403.134904	-403.12568	-403.124735	-403.168733	35.173	
C	-0.4166109925	 1.5012608044	 0.1414115768	-0.449933
C	-0.0174149984	 0.0332311793	 0.0091294713	 0.220395
C	-1.1980587665	-0.8306058269	-0.4426786638	-0.444108
C	 1.2764086955	-0.2236853879	-0.8443593267	-0.415213
C	 1.9038069978	-0.9491104779	 0.3627212146	 0.374036
O	 2.9206923033	-1.5552587517	 0.5394140963	-0.302502
C	 0.727966592	-0.5740661279	 1.2346932241	 0.202461
C	 0.7919088856	-0.0635006246	 2.6339362256	-0.291405
N	 0.2109676188	-1.3763096596	 2.3463145518	-0.354675
H	 0.4292433947	 2.1181800303	 0.4604170157	 0.118248
H	-0.7795730789	 1.8941455583	-0.814872543	 0.120153
H	-1.2222101836	 1.6312068254	 0.8736739021	 0.112365
H	-1.5725973782	-0.4966026154	-1.4161984509	 0.121151
H	-0.9133309794	-1.8838530938	-0.5326700551	 0.127403
H	-2.0317550864	-0.7689491486	 0.2670312218	 0.109944
H	 1.1509970086	-0.8435140859	-1.7363960027	 0.12899
H	 1.8228772177	 0.6828490862	-1.1226486954	 0.128225
H	 1.7422803634	-0.0900001498	 3.1598336412	 0.138492
H	 0.137083598	 0.7639353356	 2.8961357817	 0.119761
H	-0.8063103115	-1.3199965394	 2.3544025946	 0.236212
45.3171	168.2379	210.6315	219.1992	240.4497	263.2606	307.0911	329.8565	336.7851	443.3608	529.3659	541.7511	592.1313	627.1842	776.1863	798.8442	849.5651	907.424	937.3596	957.6035	977.5758	982.901	1002.9539	1028.5407	1054.6936	1091.4755	1123.6584	1174.5899	1203.6259	1215.0755	1254.4295	1272.4569	1307.5695	1381.4706	1402.8625	1420.0854	1443.0939	1481.9895	1489.3088	1501.078	1505.2028	1508.2627	1889.7509	3021.1686	3025.8986	3056.1657	3084.2694	3088.7393	3100.7977	3103.4842	3105.9481	3111.5988	3196.5594	3480.0376
CC1(C)CC(=O)C11CN1	CC1(C)CC(=O)[C@]21CN2	
InChI=1S/C7H11NO/c1-6(2)3-5(9)7(6)4-8-7/h8H,3-4H2,1-2H3	InChI=1S/C7H11NO/c1-6(2)3-5(9)7(6)4-8-7/h8H,3-4H2,1-2H3/t7-/m0/s1
