25
gdb 58228	2.33181	1.20715	1.01267	1.2619	88.44	-0.2357	0.0659	0.3016	1361.973	0.225637	-389.48283	-389.471515	-389.470571	-389.51899	42.32	
C	-0.0031663139	 1.5505091513	 0.1111644141	-0.401759
C	-0.0024299259	 0.0137850245	 0.0785260648	 0.054411
C	 0.700733649	-0.5270522441	 1.3325329781	-0.396103
C	-1.4343776704	-0.5580590196	-0.1048751923	-0.000445
C	-2.0726736369	-0.1106032934	-1.4319953916	-0.406212
C	-1.4713679233	-2.0789761524	-0.0167243949	 0.445996
O	-0.5674929652	-2.6306769013	-0.9468205627	-0.480692
C	-1.692113506	-2.7832695174	 1.2957308518	-0.333734
C	-2.7813769597	-2.7774052991	 0.2342050038	-0.346745
H	 1.012537764	 1.930096527	 0.2639553471	 0.107466
H	-0.3796969051	 1.9911290554	-0.8152853153	 0.113084
H	-0.6210921047	 1.925992587	 0.9366858094	 0.105766
H	 0.5826213968	-0.3089665783	-0.7919134612	 0.087549
H	 0.137629642	-0.2843130291	 2.2422822458	 0.100656
H	 0.8279291521	-1.6104413287	 1.2907582774	 0.124356
H	 1.693786	-0.0763287307	 1.4340399436	 0.101849
H	-2.0544052845	-0.1827833485	 0.7220766423	 0.062506
H	-3.0726423837	-0.5409163117	-1.5430877612	 0.108004
H	-2.1722599918	 0.9754385115	-1.4934078685	 0.109315
H	-1.4688353896	-0.4503558497	-2.2787860597	 0.127023
H	-0.6924568683	-3.5837285719	-0.9754795699	 0.27948
H	-1.1558568797	-3.7129237317	 1.462727046	 0.104351
H	-1.8429987219	-2.1944528804	 2.1939605637	 0.11618
H	-3.6704822738	-2.1797810115	 0.4081566742	 0.115021
H	-2.9734563595	-3.7039271172	-0.2995315248	 0.102677
47.92	90.2176	122.991	170.3455	188.9161	204.1657	230.8765	256.5821	286.6395	313.8941	348.8868	400.407	407.5318	437.3564	502.3845	553.2092	737.6506	762.9445	802.2501	878.2872	896.1994	928.2365	936.3931	951.2983	967.7687	979.6842	984.9584	1036.4424	1052.9858	1064.2879	1088.1736	1141.2476	1179.0671	1184.9351	1187.98	1198.8944	1263.3035	1308.0391	1342.3961	1354.0616	1376.2295	1398.286	1406.2046	1421.486	1431.3053	1459.8247	1486.0383	1489.6588	1498.4495	1500.6943	1503.2291	1507.3153	1518.6915	3000.336	3023.1435	3024.2646	3034.7012	3044.9203	3082.7246	3091.1823	3107.7478	3112.5394	3116.6814	3123.1618	3126.7899	3128.1615	3196.1542	3212.6969	3830.562
CC(C)C(C)C1(O)CC1	CC(C)[C@@H](C)C1(O)CC1	
InChI=1S/C8H16O/c1-6(2)7(3)8(9)4-5-8/h6-7,9H,4-5H2,1-3H3	InChI=1S/C8H16O/c1-6(2)7(3)8(9)4-5-8/h6-7,9H,4-5H2,1-3H3/t7-/m1/s1
