17
gdb 107362	3.22336	1.30211	1.05271	5.0841	68.09	-0.2788	0.0389	0.3177	1154.2427	0.135515	-459.001935	-458.993935	-458.99299	-459.034782	30.08	
C	 0.012070296	 1.5207033499	 0.243783639	-0.379167
C	-0.0231004053	 0.0401802209	-0.154080864	-0.271016
C	-1.3993644879	-0.5569080782	-0.0671853867	 0.40976
C	-2.0440642826	-1.0732314949	 1.2007761882	-0.377795
C	-1.7836038696	-1.9989209453	 0.0350962968	 0.007873
O	-2.8561069667	-2.1848336014	-0.8625474371	-0.243158
C	-3.1553923127	-0.9951243197	-1.4627255144	 0.482408
O	-4.0279146836	-0.8334542918	-2.2514189181	-0.364616
O	-2.3200948963	-0.0181918551	-1.0084655994	-0.280737
H	 1.0265378121	 1.9196632192	 0.1583754363	 0.119412
H	-0.6418055595	 2.1112636079	-0.403533839	 0.14353
H	-0.3215622473	 1.6593255398	 1.27706257	 0.121936
H	 0.3472470239	-0.084684702	-1.1784532768	 0.119513
H	 0.6397158467	-0.5430347578	 0.4956116178	 0.107489
H	-1.3966829753	-1.1881776065	 2.0634381226	 0.132318
H	-3.0701920197	-0.79742548	 1.4189497702	 0.142826
H	-1.1058817723	-2.8416078251	 0.0763304248	 0.129424
83.3516	135.3086	161.9477	206.7427	287.7787	353.9784	407.834	471.5418	516.6411	649.7059	725.9278	762.7819	773.6799	801.4211	859.696	882.1952	927.1358	982.7021	991.4841	1012.4557	1030.0515	1058.0016	1088.5771	1128.5305	1135.0704	1149.4834	1245.7332	1275.1621	1335.5194	1368.922	1410.8394	1415.2962	1474.4467	1476.7484	1496.9676	1509.4054	1932.7211	3035.1757	3044.3274	3072.9516	3114.3312	3124.9009	3134.8049	3201.5848	3230.5413
CCC12CC1OC(=O)O2	CC[C@]12C[C@H]1OC(=O)O2	
InChI=1S/C6H8O3/c1-2-6-3-4(6)8-5(7)9-6/h4H,2-3H2,1H3	InChI=1S/C6H8O3/c1-2-6-3-4(6)8-5(7)9-6/h4H,2-3H2,1H3/t4-,6+/m1/s1
