18
gdb 57689	2.94647	0.90383	0.81903	4.6339	79.22	-0.2707	0.0088	0.2795	1455.3082	0.143124	-401.912013	-401.901554	-401.90061	-401.948789	37.142	
C	 0.064473244	 1.5856950355	 0.003762185	-0.423298
C	 0.0172102936	 0.0466471251	 0.0727190772	 0.228064
C	 0.8430885913	-0.4940551493	 1.2564514783	-0.423297
O	-1.3214301188	-0.4569720662	 0.0686300325	-0.284172
C	-2.1436476653	-0.0991196287	 1.1735276548	-0.234691
C	-3.456463563	-0.7016103772	 0.9900939849	 0.292894
C	-4.5482216389	-1.1849898708	 0.8668649251	-0.406921
C	 0.5932653668	-0.4923258785	-1.1801389572	 0.284917
N	 1.0864225976	-0.8892930666	-2.1457126893	-0.333764
H	 1.0879201023	 1.9224662991	-0.1787012908	 0.142928
H	-0.5726320137	 1.9459673022	-0.8069865528	 0.148784
H	-0.2705210353	 2.0254057336	 0.9468071277	 0.12746
H	 0.5066986478	-0.0504577323	 2.1971753235	 0.127457
H	 0.7475440962	-1.580428286	 1.3170838768	 0.148786
H	 1.8981836294	-0.2418438006	 1.12486235	 0.142929
H	-1.7117822504	-0.4511630581	 2.1215341733	 0.127819
H	-2.252665949	 0.9923001091	 1.2515043668	 0.127825
H	-5.5117134748	-1.6164584603	 0.7501008043	 0.206281
14.2789	89.8068	101.0859	186.4601	194.6298	248.873	259.4884	277.6904	328.3737	353.4926	394.57	443.8521	466.6988	584.1596	606.7202	616.7144	682.9619	732.9087	871.6525	922.4876	959.9985	992.8293	1016.8297	1036.4579	1081.6771	1178.0918	1192.8587	1258.8239	1259.62	1395.9275	1404.6029	1422.1774	1478.4498	1485.7903	1496.1768	1499.7521	1509.6914	2251.0657	2366.9669	2992.3068	3018.9713	3051.5806	3055.363	3125.3971	3130.8872	3138.9446	3140.4263	3505.4171
CC(C)(OCC#C)C#N	CC(C)(OCC#C)C#N	
InChI=1S/C7H9NO/c1-4-5-9-7(2,3)6-8/h1H,5H2,2-3H3	InChI=1S/C7H9NO/c1-4-5-9-7(2,3)6-8/h1H,5H2,2-3H3
