16
gdb 29482	3.32608	1.64012	1.10599	2.0206	78.02	-0.1833	0.0254	0.2087	1047.781	0.127793	-396.984431	-396.97694	-396.975996	-397.016102	28.947	
C	-0.0180282438	 1.5554776309	-0.0197517655	-0.516067
C	-0.0063444232	 0.0590131157	 0.023332319	 0.11331
C	-0.0285014686	-0.7988776781	-1.063676852	-0.144453
N	-0.0082732986	-2.1237605207	-0.6544348921	-0.398553
C	 0.0273713345	-2.1274215385	 0.715417232	 0.352141
C	 0.0292541197	-0.8120432445	 1.150189981	 0.252126
N	 0.0660757479	-0.9254830104	 2.5288620496	-0.41619
C	 0.0829059414	-2.2754456875	 2.8069613717	-0.010977
N	 0.0603200659	-3.0387851423	 1.7288534574	-0.358909
H	 0.8741926055	 1.9877262967	 0.450421112	 0.119956
H	-0.0494383469	 1.9143516232	-1.0525149799	 0.123668
H	-0.8885790829	 1.9752900028	 0.4997029057	 0.119901
H	-0.0576963565	-0.5537079414	-2.114055536	 0.114945
H	-0.0184145551	-2.9257176445	-1.2580629316	 0.26309
H	 0.0783583935	-0.1874587849	 3.2103984757	 0.261719
H	 0.1119725769	-2.6394206465	 3.8230637528	 0.124294
135.9897	177.0388	239.3938	245.796	317.0032	393.9722	437.1998	524.6174	598.7081	608.394	640.3911	702.5709	712.7917	757.5076	785.4498	812.1691	961.6651	998.2077	1064.8112	1074.841	1104.2217	1122.8883	1203.4008	1270.0404	1300.1516	1360.667	1386.4094	1421.2983	1467.6147	1482.3913	1485.577	1508.2719	1533.124	1569.5607	1625.3381	3015.257	3058.2758	3103.9335	3253.0428	3253.8716	3684.0522	3696.7723
CC1=CNC2=C1NC=N2	Cc1c[nH]c2c1[nH]cn2	
InChI=1S/C6H7N3/c1-4-2-7-6-5(4)8-3-9-6/h2-3,7H,1H3,(H,8,9)	InChI=1S/C6H7N3/c1-4-2-7-6-5(4)8-3-9-6/h2-3,7H,1H3,(H,8,9)
