27
gdb 118462	2.0693	0.85866	0.73515	1.2894	92.42	-0.2609	0.076	0.3368	1750.0721	0.249741	-390.694111	-390.681983	-390.681039	-390.731657	44.054	
C	 1.7391485078	 0.873179221	 0.1962789428	-0.395328
C	 1.489858253	-0.5423315012	-0.3370991416	-0.178599
C	 1.1776656089	-0.6811045842	-1.8441630571	 0.020707
C	 1.1615334334	-2.1801327014	-2.2219616871	-0.186251
C	 1.4940983789	-2.4569197106	-3.6838772937	-0.081176
O	 1.4021989719	-3.859782705	-3.8912254101	-0.420741
C	-0.1241577661	 0.0238521134	-2.340340608	 0.055353
C	-1.3189044649	-0.1494404489	-1.3896241026	-0.39667
C	 0.0823603285	 1.5031025116	-2.7038521061	-0.405202
H	 2.4931423644	 1.3973750065	-0.4015523908	 0.111801
H	 0.8341174016	 1.4865868785	 0.2005427707	 0.120854
H	 2.1060602824	 0.8314589438	 1.2272211485	 0.10989
H	 2.3888373726	-1.1398294435	-0.1409057755	 0.092459
H	 0.6914663147	-1.0178650301	 0.2464905931	 0.09757
H	 2.0173213911	-0.2177111844	-2.3850906435	 0.059605
H	 1.8873978873	-2.7305910324	-1.6128292719	 0.097154
H	 0.1814768475	-2.6202653562	-2.0003488079	 0.104061
H	 0.8040156283	-1.9161432121	-4.3507035935	 0.085432
H	 2.5101480491	-2.0886090708	-3.9036722853	 0.081879
H	 1.6066496709	-4.0408226289	-4.8131488342	 0.283877
H	-0.3995954073	-0.4779873695	-3.2773664019	 0.07252
H	-1.1821614117	 0.4062685098	-0.456331847	 0.11651
H	-2.2359058259	 0.2225541404	-1.8585656514	 0.108386
H	-1.4863907345	-1.1997761998	-1.1302610889	 0.11538
H	 0.8958433318	 1.6215144281	-3.4278359237	 0.106306
H	-0.8257292461	 1.9188784632	-3.1545390481	 0.106424
H	 0.3244081824	 2.1163086628	-1.8318095453	 0.117796
62.967	74.0986	87.9486	122.0382	170.0456	199.7348	233.861	242.6448	253.32	264.6238	286.7792	319.1677	334.2667	365.1936	415.2294	523.2145	580.6659	717.8243	776.819	829.3317	886.4918	921.1154	941.8559	964.607	994.5566	1034.6399	1049.5424	1050.826	1063.8616	1073.8535	1127.4432	1167.3108	1175.8761	1207.4427	1227.2943	1245.0844	1287.1696	1306.8868	1316.5722	1347.3009	1353.1801	1368.8626	1384.9491	1399.3761	1406.6849	1410.2152	1422.5401	1462.6743	1479.883	1487.5659	1492.5221	1494.6848	1499.5942	1504.0729	1511.0871	1514.2143	1526.7933	2958.5168	2979.036	2986.869	3010.4292	3020.9867	3029.6351	3031.9671	3033.8175	3036.1081	3052.8965	3073.5007	3090.3633	3094.8266	3097.0376	3101.2063	3108.5916	3119.87	3829.6309
CCC(CCO)C(C)C	CC[C@@H](CCO)C(C)C	
InChI=1S/C8H18O/c1-4-8(5-6-9)7(2)3/h7-9H,4-6H2,1-3H3	InChI=1S/C8H18O/c1-4-8(5-6-9)7(2)3/h7-9H,4-6H2,1-3H3/t8-/m0/s1
