15
gdb 34704	4.22974	1.54225	1.46804	4.3195	71.16	-0.244	0.0101	0.2542	891.3316	0.114827	-379.582107	-379.575965	-379.57502	-379.612675	24.843	
N	 0.0001715237	-1.2228414953	-0.0598874727	-0.326152
C	-0.0153864372	-0.0672096929	-0.034001891	 0.29929
C	-0.0328031935	 1.3866516381	 0.0297774332	-0.137318
C	-0.2688787723	 2.0994103747	 1.3849643208	-0.090805
C	 0.9138665496	 1.6734380186	 2.2832862114	-0.079186
C	 1.7267550082	 2.9261199567	 1.9848346451	-0.11726
C	 2.0143373886	 1.6674327766	 1.2215967452	-0.017964
N	 1.3098442099	 2.0947905646	-0.0307388415	-0.160479
C	 0.7068335696	 3.2050413065	 0.8612001918	-0.010011
H	-0.6685313953	 1.7891155569	-0.7645996078	 0.129201
H	-1.2536068525	 2.2670732823	 1.816892882	 0.088836
H	 0.9178747746	 1.0370385145	 3.1560943016	 0.109709
H	 2.3513180045	 3.555901772	 2.6014175218	 0.107159
H	 2.8720427999	 1.0097319974	 1.2198796314	 0.112523
H	 0.428516082	 4.1485326394	 0.3977315186	 0.092455
124.1269	159.8098	376.4657	460.8718	529.2077	653.2802	738.1261	781.4808	798.8633	805.8983	816.6233	837.2518	860.0405	873.1294	886.3829	954.6966	962.9086	995.3833	1025.4104	1040.2002	1042.4123	1053.2612	1078.197	1135.17	1169.6148	1185.2297	1206.0622	1221.787	1250.1827	1285.7741	1345.8293	1363.3113	2355.1321	3076.4172	3136.7047	3148.0386	3214.8311	3220.7614	3234.1426
N#CC1C2C3C4C3N1C24	N#C[C@H]1[C@H]2[C@@H]3[C@H]4[C@@H]3N1[C@@H]24	
InChI=1S/C7H6N2/c8-1-2-3-4-5-6(3)9(2)7(4)5/h2-7H	InChI=1S/C7H6N2/c8-1-2-3-4-5-6(3)9(2)7(4)5/h2-7H/t2-,3-,4+,5+,6-,7+/m0/s1
