21
gdb 91295	2.48036	1.51744	1.11993	0.7652	87.67	-0.2471	0.0482	0.2952	1160.7949	0.182373	-349.895244	-349.886487	-349.885543	-349.928935	34.32	
C	 0.2939393749	 1.3308686847	-0.7021744564	-0.404389
C	-0.042726475	 0.031231441	 0.0168732289	 0.037434
C	 0.2129085439	-1.3098491287	-0.7468903109	-0.251569
C	 1.102382764	-1.8060965327	 0.4164222084	-0.010005
C	 2.5979233589	-1.3963814844	 0.3020406857	-0.254548
C	 2.3503987067	-0.2233984904	 1.3108817617	-0.157122
C	 2.9434994119	 1.0781497619	 1.0731093382	 0.313551
C	 3.4771326189	 2.1429482026	 0.9001335668	-0.454979
C	 0.812207192	-0.4892699366	 1.2225521338	-0.066686
H	 1.3136011456	 1.331893316	-1.0952210651	 0.124983
H	-0.3911520308	 1.4749261227	-1.5458736522	 0.104829
H	 0.1982211	 2.1962283068	-0.0387997694	 0.117683
H	-1.0865874362	 0.080138518	 0.3443540426	 0.074592
H	-0.6921742202	-1.9019215847	-0.9061163911	 0.09582
H	 0.7279152526	-1.2124767899	-1.708470463	 0.092985
H	 0.9070227435	-2.7992117285	 0.8222998158	 0.063297
H	 3.3300594897	-2.13219648	 0.6413422972	 0.105121
H	 2.8840181732	-1.0621147363	-0.6984313887	 0.106791
H	 2.6672685234	-0.5573503745	 2.3060308538	 0.106032
H	 3.9307743303	 3.0889189564	 0.7373961726	 0.191201
H	 0.2958102327	-0.4728406631	 2.1837543915	 0.064981
35.6881	131.2502	178.9276	241.7521	258.9967	320.3075	379.0894	407.1486	497.7217	546.0827	608.6415	626.1956	632.7613	688.8221	744.9286	812.4509	843.7967	871.8578	898.9871	923.7795	968.666	1000.0138	1015.9813	1059.6614	1069.1488	1116.2932	1123.7545	1145.4467	1160.8651	1191.8826	1225.6324	1232.1909	1254.4554	1278.5562	1294.6681	1298.6496	1331.1857	1346.3715	1369.6862	1416.2648	1479.641	1490.6165	1494.9009	1497.5001	2225.8884	3027.8938	3030.0903	3036.9376	3043.1702	3061.7202	3085.0609	3091.4001	3094.6912	3101.9522	3117.9165	3120.9485	3503.7373
CC1CC2CC(C#C)C12	C[C@H]1C[C@H]2C[C@@H](C#C)[C@@H]12	
InChI=1S/C9H12/c1-3-7-5-8-4-6(2)9(7)8/h1,6-9H,4-5H2,2H3	InChI=1S/C9H12/c1-3-7-5-8-4-6(2)9(7)8/h1,6-9H,4-5H2,2H3/t6-,7+,8-,9+/m0/s1
