22
gdb 88763	3.72763	1.05501	0.92363	1.4759	86.56	-0.2181	0.0823	0.3004	1346.0495	0.19488	-367.14466	-367.136031	-367.135087	-367.178216	33.584	
C	 2.8975777048	-0.6664200263	 0.3910782759	-0.311222
N	 1.6056091659	-1.3286778515	 0.4924458146	-0.086811
C	 1.4555429463	-2.3725132162	 1.4980921265	-0.263169
C	 0.7345479533	-1.0728887038	 1.6456634343	 0.008152
C	 1.0790167983	-0.1116987616	 2.7566451664	 0.005298
C	 0.7673523358	 1.4206819113	 2.5810943766	-0.263528
C	-0.0559422145	 1.38592427	 3.8745566409	-0.03597
C	-1.1892932403	 0.4131133188	 3.7279583917	-0.276121
C	 0.1903834986	-0.118352611	 4.0137071456	-0.067177
H	 3.4552841206	-0.5873192534	 1.3374431024	 0.09805
H	 3.5202945456	-1.2266011907	-0.3142449006	 0.121427
H	 2.7590453692	 0.342835389	-0.0103820555	 0.122465
H	 0.933678052	-3.2734503254	 1.184577364	 0.110587
H	 2.2909600662	-2.5484798113	 2.1768517249	 0.099
H	-0.3172649736	-1.0558547979	 1.3624039497	 0.083831
H	 2.1238443814	-0.2337382473	 3.0511039205	 0.072428
H	 1.6681330558	 2.0351302756	 2.6411577814	 0.101774
H	 0.2139167335	 1.702137449	 1.6785825344	 0.09767
H	-0.0494611017	 2.1482317475	 4.6437384751	 0.083498
H	-1.87498537	 0.3633540536	 4.5678907528	 0.109892
H	-1.6669898381	 0.2657422604	 2.7623346216	 0.10773
H	 0.3925377309	-0.6983591688	 4.9066598467	 0.082198
55.2008	129.3247	154.3636	212.8694	236.059	333.614	374.8344	409.7304	458.3158	524.7037	689.5218	743.6319	780.4113	802.8339	824.7896	891.6522	913.0273	950.1488	954.2879	986.2463	1012.3552	1026.2853	1030.8511	1053.9832	1063.5191	1085.4704	1102.634	1122.2307	1131.45	1141.6821	1164.0779	1187.8019	1204.0374	1223.7657	1240.5491	1261.4447	1298.7978	1306.6783	1341.236	1365.6097	1438.5201	1451.662	1482.5841	1490.9512	1498.0008	1502.0053	1511.8298	2975.8285	3043.5915	3061.8162	3072.8791	3077.7626	3097.6023	3103.2061	3107.7802	3113.6721	3164.7257	3171.905	3185.1234	3200.8475
CN1CC1C1CC2CC12	CN1C[C@H]1[C@H]1C[C@H]2C[C@@H]12	
InChI=1S/C8H13N/c1-9-4-8(9)7-3-5-2-6(5)7/h5-8H,2-4H2,1H3	InChI=1S/C8H13N/c1-9-4-8(9)7-3-5-2-6(5)7/h5-8H,2-4H2,1H3/t5-,6-,7+,8+,9?/m1/s1
