19
gdb 99381	4.34308	0.62822	0.59734	5.5547	74.6	-0.2367	-0.0204	0.2164	1867.109	0.157001	-456.368457	-456.357662	-456.356718	-456.406606	35.885	
C	-0.0010553322	 1.0319656753	 0.8445839713	-0.334092
N	-0.1462536021	-0.1627213431	 0.0331100003	-0.309145
C	-1.3478723849	-0.752709945	-0.2062733069	 0.407845
O	-2.4039046315	-0.3529395709	 0.2553982409	-0.378161
C	-1.3087385491	-1.9654798588	-1.1568694673	-0.284237
N	-2.4911947104	-2.8010201754	-1.0747861109	-0.283218
C	-2.5703124991	-3.5992656167	 0.1435812889	-0.229883
C	-3.681692496	-4.6305409125	 0.0360472514	 0.150162
O	-4.2278226465	-5.1406291667	 0.9784614582	-0.238676
H	 0.6371808372	 0.8466712786	 1.7153394191	 0.12942
H	 0.4258925757	 1.8580559606	 0.265400824	 0.128556
H	-0.9973862152	 1.3131640049	 1.1868627835	 0.17441
H	 0.677732928	-0.5674006809	-0.3808268044	 0.247874
H	-1.216376586	-1.5744911889	-2.1794583341	 0.130485
H	-0.4159370527	-2.5751069217	-0.9717126121	 0.109735
H	-3.2938951537	-2.1763690911	-1.0986375138	 0.235127
H	-1.6347573078	-4.1708664599	 0.2438811137	 0.126834
H	-2.7011227877	-3.0268645652	 1.0734043006	 0.133047
H	-3.9417746061	-4.8939729225	-1.0145663123	 0.083916
37.4939	53.6119	70.8613	84.1916	93.4286	147.189	215.4488	239.245	294.4079	366.7174	449.174	507.5342	521.8852	607.2432	681.6444	726.9958	832.504	896.1401	965.8725	1013.2458	1056.4127	1073.9594	1130.1249	1154.3149	1170.5155	1183.1428	1219.24	1247.9582	1303.129	1340.4548	1366.0263	1404.5833	1439.558	1460.3726	1469.1247	1493.9445	1499.4919	1527.1269	1563.6241	1776.2467	1840.3686	2880.1333	2993.0365	3014.4505	3030.6695	3032.6851	3061.5457	3084.0352	3156.807	3498.2406	3639.3135
CNC(=O)CNCC=O	CNC(=O)CNCC=O	
InChI=1S/C5H10N2O2/c1-6-5(9)4-7-2-3-8/h3,7H,2,4H2,1H3,(H,6,9)	InChI=1S/C5H10N2O2/c1-6-5(9)4-7-2-3-8/h3,7H,2,4H2,1H3,(H,6,9)
