21
gdb 116133	2.48128	1.17429	0.84156	2.0463	82.27	-0.2327	0.0269	0.2595	1399.8595	0.182404	-424.230101	-424.220684	-424.21974	-424.264303	35.052	
C	 0.0769879318	 1.5354622816	-0.0155339705	-0.476184
C	-0.0259991814	 0.0368475131	 0.0234193844	 0.263312
C	-1.1806494838	-0.6289219272	-0.01465995	-0.145281
C	-1.2526084138	-2.1349641424	-0.0358922897	-0.041237
C	-2.3139538121	-2.633285756	-1.0188131803	-0.08998
O	-3.5815818837	-2.193046142	-0.5537203509	-0.419371
C	 0.1276060175	-2.7039468998	-0.3816024281	-0.104453
O	 1.1418540486	-2.0899115816	 0.3900715074	-0.247474
C	 1.2827742478	-0.7130336971	 0.1054920485	-0.148427
H	 0.6912855194	 1.8713796156	-0.8614820486	 0.121894
H	-0.9081227483	 1.9997078609	-0.1083831256	 0.125085
H	 0.5558527391	 1.9273364932	 0.8912507376	 0.123621
H	-2.1271876432	-0.0965117018	-0.0517343965	 0.093137
H	-1.5485111854	-2.5022580139	 0.957469967	 0.096642
H	-2.0990859463	-2.2379959649	-2.0246712994	 0.086685
H	-2.2752295709	-3.733630467	-1.0784517473	 0.085038
H	-4.241934803	-2.4223021308	-1.2137445595	 0.287895
H	 0.1840832314	-3.7746555185	-0.163349386	 0.105475
H	 0.3279439454	-2.5657843671	-1.4590140612	 0.08139
H	 1.8486120731	-0.5678617392	-0.8351984679	 0.090312
H	 1.9051282377	-0.3009051551	 0.9098575566	 0.111919
91.6219	116.9052	149.6548	189.7827	206.0257	256.8371	288.4279	331.1876	385.0792	407.0316	465.4259	515.2811	544.4902	627.6317	860.6948	873.0047	892.9328	954.2696	968.5307	1006.4548	1013.8652	1055.0268	1083.0462	1088.6936	1099.6887	1140.9268	1148.564	1198.5959	1231.1978	1249.3624	1260.0102	1310.6723	1316.7824	1335.9063	1371.6932	1396.474	1412.2418	1425.1884	1455.1552	1479.2971	1485.1512	1491.189	1499.1036	1519.5436	1743.1284	2918.079	2947.5497	2959.6042	2986.8049	3009.7435	3013.0133	3040.7073	3057.768	3078.9956	3113.5174	3165.8816	3832.597
CC1=CC(CO)COC1	CC1=C[C@@H](CO)COC1	
InChI=1S/C7H12O2/c1-6-2-7(3-8)5-9-4-6/h2,7-8H,3-5H2,1H3	InChI=1S/C7H12O2/c1-6-2-7(3-8)5-9-4-6/h2,7-8H,3-5H2,1H3/t7-/m0/s1
