20
gdb 114710	2.55114	1.42964	1.16063	3.2993	78.62	-0.2286	-0.0187	0.2098	1153.208	0.171994	-403.157775	-403.149221	-403.148277	-403.191211	32.537	
C	 0.2005870453	 1.2468631172	-0.4817839154	-0.38706
C	 0.2863054422	-0.2271382935	-0.0771866006	-0.188239
C	 0.6692275273	-0.4458556206	 1.4047713772	-0.102596
C	 0.6204134705	-1.9298438895	 1.8622305551	-0.24617
C	 2.0711206079	-2.3872283249	 1.9539017822	-0.032137
N	 2.8117636681	-2.143975763	 0.7120946267	-0.327298
C	 2.9734584082	-1.206387056	 1.8674859145	-0.158556
C	 2.1106683462	 0.0129211051	 1.7020030894	 0.449074
O	 2.476726869	 1.1539722876	 1.8436948545	-0.33727
H	 1.1483055485	 1.764912862	-0.3149399896	 0.141322
H	-0.0602868651	 1.3413702054	-1.5405451332	 0.107577
H	-0.5656776952	 1.7717521908	 0.0997810422	 0.110504
H	-0.6861429452	-0.7086515347	-0.2411206919	 0.092619
H	 1.0058403914	-0.7588832251	-0.7077953527	 0.127471
H	 0.0063724733	 0.1715440894	 2.0204499978	 0.096276
H	 0.1543208587	-2.0128923635	 2.8496768295	 0.10506
H	 0.0479960689	-2.5575987653	 1.1719883338	 0.109588
H	 2.3327331043	-3.2448937371	 2.5653136376	 0.095318
H	 3.6376602327	-2.7383327447	 0.6843538819	 0.241069
H	 3.9325092931	-1.1256266797	 2.364736501	 0.10345
65.1596	107.8465	182.6532	194.185	244.889	324.9169	371.5793	390.8595	455.0625	568.6282	674.3383	706.7824	761.7959	798.9637	843.3059	861.3383	879.862	900.0256	934.9211	977.1459	1012.5444	1020.2474	1065.7609	1099.3002	1123.0536	1128.8986	1155.7744	1186.3564	1226.5857	1249.002	1256.9383	1283.2579	1324.0879	1352.275	1357.5478	1369.2084	1408.7145	1416.5029	1485.2494	1494.5534	1497.7399	1508.6415	1830.3454	3023.7164	3035.531	3041.8229	3052.9227	3080.6826	3088.2618	3102.0344	3124.6447	3162.9027	3193.6166	3493.5357
CCC1CC2NC2C1=O	CC[C@H]1C[C@H]2N[C@H]2C1=O	
InChI=1S/C7H11NO/c1-2-4-3-5-6(8-5)7(4)9/h4-6,8H,2-3H2,1H3	InChI=1S/C7H11NO/c1-2-4-3-5-6(8-5)7(4)9/h4-6,8H,2-3H2,1H3/t4-,5+,6+/m0/s1
