18
gdb 69857	2.26201	2.14933	1.54632	2.1228	70.4	-0.2176	0.0542	0.2718	917.927	0.148208	-439.003543	-438.996001	-438.995056	-439.034847	31.218	
O	-0.0161450845	 1.3249182214	 0.1573619913	-0.476004
C	 0.0398433636	-0.0557651309	 0.026994658	 0.405059
C	-0.3517830321	-0.7710246378	-1.2438521576	-0.386972
C	-1.1647968329	-0.9440619559	 0.0279360108	-0.061108
N	-0.8340209729	-1.9968932298	 1.0482697722	-0.145529
C	 0.6219134862	-2.3017998028	 0.7455209373	-0.250094
C	 0.8636720266	-0.8156689279	 1.0892711881	 0.300305
O	 2.0946012246	-0.2108232268	 1.3271112383	-0.494612
C	-0.2852281389	-1.0717294174	 2.1318120408	-0.234474
H	 0.8917192701	 1.6483185454	 0.1090188386	 0.290676
H	-0.844864586	-0.1242704773	-1.9637851724	 0.121628
H	 0.231528539	-1.5622900391	-1.6996424966	 0.114995
H	-2.1860017176	-0.5856109369	 0.0650709421	 0.106218
H	 1.0049707107	-2.9865322811	 1.506704397	 0.099968
H	 0.8444906291	-2.6999740975	-0.2431210591	 0.109558
H	 2.5168045756	-0.6385543265	 2.0785561751	 0.287219
H	-0.9353705054	-0.2368054312	 2.3999263772	 0.119314
H	 0.0103450849	-1.645756148	 3.0151489789	 0.09385
173.6762	202.9809	262.4421	329.2633	347.4838	383.0287	435.608	479.2127	537.0507	578.8215	618.6685	626.3132	725.0189	792.3382	835.5269	870.0141	893.439	946.7154	960.6105	984.4271	1002.6343	1027.4081	1063.1509	1069.8814	1089.1194	1108.6802	1123.7842	1195.8354	1199.0805	1213.8344	1219.0101	1262.1628	1296.5178	1321.4111	1386.4123	1414.8553	1487.3346	1503.1941	1544.7846	3054.4493	3071.6247	3128.3165	3132.0196	3144.994	3191.6542	3213.012	3782.9665	3824.8337
OC12CC1N1CC2(O)C1	O[C@]12C[C@H]1N1C[C@]2(O)C1	
InChI=1S/C6H9NO2/c8-5-2-7(3-5)4-1-6(4,5)9/h4,8-9H,1-3H2	InChI=1S/C6H9NO2/c8-5-2-7(3-5)4-1-6(4,5)9/h4,8-9H,1-3H2/t4-,6-/m1/s1
