17
gdb 97049	4.3932	1.05578	0.88811	0.6485	73.07	-0.2271	-0.0371	0.19	1281.3937	0.136107	-455.167924	-455.159248	-455.158304	-455.201994	31.147	
C	-0.080717675	 1.4409571926	 0.1489457542	-0.324992
N	-0.1270352965	 0.0024023768	-0.0368456087	-0.352846
C	 0.6569470091	-0.5514367688	-0.8573435174	 0.468431
N	 0.5572993542	-1.898585561	-1.1799950531	-0.363537
C	 1.7889689511	-2.63891103	-1.4190636589	-0.282379
C	 2.585137624	-1.9376696326	-2.5128764104	 0.390758
O	 3.4615753854	-2.4624178586	-3.1485446407	-0.288888
C	 2.1463133388	-0.492876582	-2.7243388582	-0.1875
O	 1.6684278477	 0.0969636908	-1.5158561587	-0.251679
H	 0.4194091416	 1.6824440902	 1.0957006054	 0.120354
H	 0.439609625	 1.9788018315	-0.6526203365	 0.114322
H	-1.1038026054	 1.8247138562	 0.2244066517	 0.117979
H	-0.1302539099	-2.35841313	-0.6001227873	 0.257778
H	 2.4360703656	-2.7246353596	-0.5293502682	 0.13879
H	 1.555360861	-3.6530252015	-1.7521256589	 0.148732
H	 2.9916931778	 0.1098509262	-3.0590722489	 0.150686
H	 1.3691234458	-0.4734018101	-3.5016762054	 0.143991
53.3161	89.1148	133.0234	188.9447	238.9803	277.1394	391.8822	413.7815	448.6053	538.0545	584.4567	627.0738	737.8757	739.9554	767.6963	818.1303	947.5041	1036.9712	1049.9191	1070.3157	1119.63	1134.7181	1165.3782	1208.3915	1229.3404	1248.9258	1300.3103	1346.7475	1385.4778	1442.3885	1450.1859	1465.8001	1483.0025	1495.2691	1501.7093	1791.8421	1847.9249	2963.8162	3008.9128	3013.9024	3062.6959	3082.3411	3103.1599	3131.413	3607.8649
CN=C1NCC(=O)CO1	CN=C1NCC(=O)CO1	
InChI=1S/C5H8N2O2/c1-6-5-7-2-4(8)3-9-5/h2-3H2,1H3,(H,6,7)	InChI=1S/C5H8N2O2/c1-6-5-7-2-4(8)3-9-5/h2-3H2,1H3,(H,6,7)
