16
gdb 130118	5.81712	0.94827	0.86247	1.9046	73.34	-0.2023	0.017	0.2193	1306.5729	0.126448	-434.061237	-434.053296	-434.052352	-434.093971	29.824	
N	-0.1456358276	 1.4045933735	-0.0017158453	-0.590615
C	 0.055544146	 0.0245267295	 0.0238836872	 0.385991
N	-0.9565900829	-0.8067891883	 0.2575409933	-0.306021
N	-0.3731816333	-2.0310071137	 0.3129572368	-0.262317
C	 0.9582253026	-1.9946086276	 0.0788718844	 0.419527
C	 1.2877731688	-0.66626256	-0.1086588741	-0.416051
C	 1.7673540397	-3.2273440503	 0.0926877582	-0.044748
C	 1.7814567842	-4.1393176911	 1.2529671745	-0.172613
O	 1.0205960447	-4.4518268716	 0.0846707069	-0.241321
H	 0.3969368869	 1.8742582312	-0.713906647	 0.24437
H	-1.1273624675	 1.6317783099	-0.0977800676	 0.249699
H	-0.9382434961	-2.8609806239	 0.3709008243	 0.276698
H	 2.2677896798	-0.2528588528	-0.2841232807	 0.096696
H	 2.6414787609	-3.221822061	-0.5568510243	 0.111235
H	 2.6489276553	-4.7739786862	 1.427518604	 0.124247
H	 1.1994021185	-3.8776852476	 2.1344628294	 0.125223
73.3326	139.562	164.1645	258.3096	301.7313	345.3018	409.9622	473.3458	543.9667	641.3266	677.2812	699.6602	746.2746	762.5973	796.123	851.1552	897.2924	988.851	1001.1312	1055.9299	1092.643	1098.6015	1147.8605	1168.85	1177.9248	1211.759	1266.4622	1321.0912	1373.4888	1461.2606	1508.4762	1523.1619	1538.889	1617.9921	1649.4905	3088.3431	3123.9698	3183.3264	3261.5944	3542.3223	3638.2214	3681.2221
NC1=NNC(=C1)C1CO1	Nc1n[nH]c(c1)[C@H]1CO1	
InChI=1S/C5H7N3O/c6-5-1-3(7-8-5)4-2-9-4/h1,4H,2H2,(H3,6,7,8)	InChI=1S/C5H7N3O/c6-5-1-3(7-8-5)4-2-9-4/h1,4H,2H2,(H3,6,7,8)/t4-/m1/s1
