21
gdb 120790	4.55779	0.6218	0.59009	4.6879	84.7	-0.2624	0.0377	0.3002	1923.607	0.182192	-383.268725	-383.258607	-383.257663	-383.305226	35.882	
C	 0.1230604049	 1.5130014838	 0.2999900141	-0.383903
C	-0.0431088412	-0.0082346135	 0.2866804851	-0.161482
C	-1.348731853	-0.4640824012	-0.3792778706	-0.181119
C	-1.4944346372	-1.9695959468	-0.3723516408	-0.023591
N	-1.9776511093	-2.5961927262	 0.870571515	-0.325995
C	-2.784393349	-2.7126674531	-0.3477583985	-0.024865
C	-4.1457077493	-2.031266169	-0.3310069799	-0.343352
C	-5.1841507328	-2.908382849	 0.2112235054	 0.259852
N	-5.9941514574	-3.6183988828	 0.6293622315	-0.305372
H	 1.0598552628	 1.8064399711	 0.78339255	 0.115195
H	 0.1310427399	 1.9216219045	-0.7167651645	 0.113605
H	-0.696862396	 1.9955440891	 0.8433723126	 0.117302
H	 0.8080607095	-0.4668529678	-0.2341741102	 0.092797
H	-0.0223503931	-0.3958212558	 1.3121691172	 0.113571
H	-2.1950204717	-0.0054545974	 0.143440779	 0.099786
H	-1.3814369674	-0.1039271657	-1.4167347911	 0.096498
H	-0.6894128946	-2.4866179006	-0.8964282008	 0.087529
H	-1.4896664331	-3.4639514518	 1.070838657	 0.238936
H	-2.7933264646	-3.6745437386	-0.8570958685	 0.102735
H	-4.1043395466	-1.1240710886	 0.2770986765	 0.160874
H	-4.4362697708	-1.7367294308	-1.3465037384	 0.150997
38.5552	75.0994	78.9393	108.3982	157.6714	236.6865	250.8966	317.3731	373.0809	386.343	472.0818	496.4758	565.9756	742.7923	804.9602	849.6215	859.9112	900.9404	912.076	943.516	963.8803	1000.9573	1032.8183	1056.3355	1075.0588	1123.5312	1157.2076	1196.7328	1238.7701	1265.0488	1269.6579	1282.4404	1303.2563	1317.0282	1331.4186	1386.0717	1413.1372	1419.6339	1451.9527	1472.8357	1483.4576	1492.3776	1501.4425	1509.0663	2362.9544	3015.5073	3019.9282	3030.3864	3047.3584	3054.7911	3072.8867	3096.1347	3099.7624	3104.3836	3105.8965	3128.272	3519.1928
CCCC1NC1CC#N	CCC[C@H]1N[C@H]1CC#N	
InChI=1S/C7H12N2/c1-2-3-6-7(9-6)4-5-8/h6-7,9H,2-4H2,1H3	InChI=1S/C7H12N2/c1-2-3-6-7(9-6)4-5-8/h6-7,9H,2-4H2,1H3/t6-,7+/m1/s1
