17
gdb 80070	2.93992	1.88558	1.66931	0.4281	70.57	-0.241	-0.01	0.231	865.5971	0.138381	-421.779391	-421.773044	-421.7721	-421.809692	27.208	
O	 0.169850335	 1.4295412004	-0.159099917	-0.438968
C	 0.0131520535	 0.0507656111	-0.0094308054	 0.173333
C	 0.2307415926	-0.6497347853	 1.391931169	-0.206072
C	-0.3858442865	 0.2532519386	 2.4182620772	-0.051476
C	-1.6881269191	 0.5066705093	 2.2322618691	-0.108315
C	-2.3108263168	-0.3679668708	 1.1742358834	 0.04859
O	-2.0698826592	-1.7486153602	 1.6395560662	-0.288749
C	-0.8636396305	-1.7278481425	 0.8925372065	 0.12848
C	-1.3590160799	-0.6261226537	-0.067802583	-0.155033
H	-0.338158739	 1.8475404048	 0.547759771	 0.276823
H	 0.6684108986	-0.417403837	-0.7507535379	 0.09584
H	 1.2334722239	-0.9990732883	 1.6344392238	 0.068985
H	 0.207592367	 0.6897847429	 3.2143030406	 0.106303
H	-2.2888876509	 1.1540645921	 2.8604430263	 0.102714
H	-3.3676599262	-0.1907272949	 0.9748948753	 0.082558
H	-0.4879523712	-2.7174597104	 0.6316404833	 0.087172
H	-1.8707431212	-0.8096546261	-1.0124478983	 0.077815
186.8475	269.126	403.7587	422.4747	462.5206	514.9621	573.7271	628.2795	692.172	701.6275	758.8868	769.63	796.7397	826.2743	859.3769	923.2951	950.9165	961.2239	1021.3895	1025.9419	1041.9662	1066.1104	1093.1548	1097.3913	1141.9525	1171.0048	1186.6452	1232.0064	1234.9155	1278.0734	1297.1567	1311.8679	1334.4808	1342.8232	1388.2836	1445.2425	1655.2049	3067.1311	3106.3216	3111.3	3117.4879	3123.9997	3179.1132	3204.5859	3764.7874
OC1C2C=CC3OC2C13	O[C@H]1[C@H]2C=C[C@@H]3O[C@H]2[C@H]13	
InChI=1S/C7H8O2/c8-6-3-1-2-4-5(6)7(3)9-4/h1-8H	InChI=1S/C7H8O2/c8-6-3-1-2-4-5(6)7(3)9-4/h1-8H/t3-,4+,5+,6+,7-/m1/s1
