18
gdb 67833	2.61908	2.11969	1.65736	1.4506	74.91	-0.2489	0.0075	0.2564	886.5886	0.149132	-401.872347	-401.865496	-401.864552	-401.90305	28.68	
C	-0.162461085	 1.5522078929	-0.1203133392	-0.46628
C	-0.0159047541	 0.0378989013	-0.0133813715	 0.344252
N	-1.3711113678	-0.5121458094	 0.302623935	-0.331271
C	-1.2754950805	-0.8225021699	 1.5390059349	 0.07417
O	-0.0489106683	-0.8011308882	 2.1915039792	-0.291457
C	 0.791089996	-0.6881711812	 1.0489350315	 0.374598
C	 2.0991646829	-0.0952408681	 0.484936358	-0.31677
C	 1.2207496041	-0.6294872307	-0.7445705103	-0.144141
C	 0.9747824912	-1.9016438763	 0.0881245121	-0.281513
H	 0.7396694574	 2.0450958783	-0.4891950004	 0.114789
H	-0.9732486423	 1.7672654292	-0.8225850182	 0.137452
H	-0.4393176463	 1.9993245054	 0.8406481842	 0.123896
H	-2.0982840381	-1.1316507337	 2.1743655913	 0.137449
H	 2.2533181877	 0.9786854252	 0.5732891483	 0.1146
H	 3.0184539667	-0.6546957091	 0.6689509419	 0.107684
H	 1.5125182789	-0.5667498295	-1.7921659735	 0.089693
H	 1.8433733992	-2.5346200562	 0.2793674159	 0.094047
H	 0.0860614082	-2.4804732102	-0.1565589192	 0.118804
177.1443	226.5046	317.8014	334.4082	391.2537	477.6259	529.8836	552.0299	600.5464	645.9687	756.3363	776.7301	831.3652	854.4033	890.3379	917.9732	943.5732	951.0956	986.8244	994.5263	1007.0268	1058.4201	1073.0673	1118.4678	1128.9349	1138.8321	1169.8062	1173.3256	1213.9858	1225.8718	1258.7528	1290.4577	1321.8039	1407.7516	1485.2369	1490.1183	1504.5044	1538.7089	1609.1258	3039.3075	3078.3761	3083.1177	3104.2634	3123.0103	3125.203	3161.0687	3162.3111	3213.999
CC12N=COC11CC2C1	C[C@]12[N][CH]O[C@@]31C[C@H]2C3	
InChI=1S/C7H9NO/c1-6-5-2-7(6,3-5)9-4-8-6/h4-5H,2-3H2,1H3	InChI=1S/C7H9NO/c1-6-5-2-7(6,3-5)9-4-8-6/h4-5H,2-3H2,1H3/t5-,6-,7-/m1/s1
