17
gdb 23366	2.57801	1.29417	0.92419	3.2315	73.46	-0.2475	-0.0376	0.2099	1244.1443	0.135323	-455.124597	-455.115343	-455.114399	-455.159029	34.082	
N	-0.218555801	 1.1869640824	 1.0377126477	-0.533899
C	 0.0209977322	-0.0827988659	 0.6304898609	 0.386123
O	 1.0170293631	-0.7136233356	 0.9389023625	-0.361493
C	-1.0533384538	-0.6961405214	-0.2595746764	 0.24676
N	-2.0422054025	 0.0850306899	-0.4978404854	-0.216124
O	-3.0250115307	-0.4772048069	-1.312328177	-0.386018
C	-0.7862805113	-2.0790646162	-0.7008209681	-0.070782
C	-1.8613610202	-3.144536817	-0.8618753201	-0.267213
C	-1.1561940153	-2.6217441764	-2.0740191217	-0.267238
H	 0.4586099805	 1.6372236417	 1.6283592068	 0.261457
H	-1.0593960004	 1.6587448192	 0.7532159259	 0.268391
H	-3.67203282	 0.2330602178	-1.3822350251	 0.310703
H	 0.1576972405	-2.4256183533	-0.3011053599	 0.126922
H	-1.6085727726	-4.1319032712	-0.4921240363	 0.117356
H	-2.8906763475	-2.8487642835	-0.7154777896	 0.133847
H	-1.7141047701	-1.9765858942	-2.7380147212	 0.133853
H	-0.408257521	-3.2421559192	-2.5548339432	 0.117355
44.2591	93.4106	210.0234	213.5739	240.1132	249.4434	278.4915	344.8612	424.7639	425.1715	477.8933	570.544	634.8768	649.2405	749.6139	789.8291	813.5758	837.3832	912.7232	921.3173	1003.6623	1060.9894	1089.8582	1090.5143	1113.3457	1128.8736	1161.6513	1208.7992	1232.3272	1359.3356	1392.3633	1439.1427	1464.2226	1495.0321	1588.529	1713.6438	1786.3472	3149.9392	3153.9716	3203.4029	3246.6249	3258.4467	3609.7443	3752.8765	3815.3833
NC(=O)C(=NO)C1CC1	NC(=O)C(=NO)C1CC1	
InChI=1S/C5H8N2O2/c6-5(8)4(7-9)3-1-2-3/h3,9H,1-2H2,(H2,6,8)	InChI=1S/C5H8N2O2/c6-5(8)4(7-9)3-1-2-3/h3,9H,1-2H2,(H2,6,8)
