15
gdb 10455	3.00473	1.65953	1.20807	3.2869	70.04	-0.2549	0.0164	0.2713	998.6865	0.116412	-362.604036	-362.595819	-362.594875	-362.637056	29.779	
N	-0.1922039763	 1.2805807655	 0.0633074258	-0.436038
C	-0.1161087967	 0.0264390142	 0.1602694163	 0.114851
O	-1.1385417263	-0.737947821	-0.2981261103	-0.215997
C	-1.0063023412	-2.1331607147	-0.1053032254	 0.238157
C	-1.4022167574	-2.674683973	 1.2577617312	-0.315703
C	-2.325998602	-2.8357111405	 0.0798367836	-0.309164
C	 0.0505385319	-2.7628245814	-0.8503735686	 0.318247
C	 0.9443582412	-3.2764588578	-1.4693753095	-0.487544
H	 0.6488383326	 1.7090298699	 0.4446242541	 0.231278
H	 0.7104451645	-0.5561527443	 0.5829468854	 0.10339
H	-0.8693909457	-3.5420659737	 1.6284196491	 0.134495
H	-1.6635635329	-1.9323747409	 2.0031231889	 0.137412
H	-3.199302923	-2.196224205	 0.0317637987	 0.145017
H	-2.4366201053	-3.814743902	-0.3692373838	 0.136349
H	 1.7274414267	-3.7308822054	-2.0247413955	 0.20525
72.6038	94.0848	153.6212	197.2254	226.5648	359.5356	413.9732	503.5518	553.3313	576.7406	598.262	688.3336	745.9703	779.8141	822.2743	906.6723	926.0307	967.298	981.4729	1043.8468	1061.2878	1088.5109	1092.295	1194.4546	1256.3922	1276.4084	1318.6437	1421.1618	1451.7957	1484.8778	1747.5275	2235.3224	3058.0136	3144.9904	3152.002	3235.7115	3250.6053	3500.6838	3517.0899
N=COC1(CC1)C#C	[NH][CH]OC1(CC1)C#C	
InChI=1S/C6H7NO/c1-2-6(3-4-6)8-5-7/h1,5,7H,3-4H2	InChI=1S/C6H7NO/c1-2-6(3-4-6)8-5-7/h1,5,7H,3-4H2
