15
gdb 31898	4.04729	1.01998	0.82124	5.942	79.25	-0.21	-0.0155	0.1945	1324.6439	0.114839	-413.042682	-413.034285	-413.033341	-413.07605	30.045	
C	 0.1082055657	 1.395586655	 0.1013580727	-0.346856
N	-0.155744651	-0.0111881266	-0.1289571997	-0.379224
C	 0.5247583101	-0.7196950558	-1.0773556543	 0.483768
N	 0.5986549792	-2.0435230949	-1.1152150101	-0.338399
C	 1.3147317205	-2.333167529	-2.2388096259	-0.155293
C	 1.6944989048	-1.1870599478	-2.9005011534	 0.191601
N	 1.1735409916	-0.142630338	-2.1229367284	-0.385842
C	 2.434679503	-0.9655554395	-4.0728256395	 0.189857
N	 3.044640356	-0.7665134876	-5.040377314	-0.353735
H	 1.1623188185	 1.6094534404	 0.3326763911	 0.130789
H	-0.1830153565	 1.9898679657	-0.7731134349	 0.135957
H	-0.5048196804	 1.7360168763	 0.9371810592	 0.148719
H	-0.3887625966	-0.5744222375	 0.6740797364	 0.265576
H	 1.5341771723	-3.3499368474	-2.526246163	 0.13499
H	 1.2521338428	 0.8372940268	-2.3344863962	 0.278093
94.8853	120.6722	136.0436	173.7794	230.8341	305.2037	431.775	442.8528	511.9447	520.8613	557.8099	591.1543	649.5055	740.9733	749.0331	882.6569	1000.2679	1024.5204	1092.9971	1152.6243	1170.8766	1219.2229	1243.8455	1321.2913	1357.1593	1385.4525	1465.2607	1489.6066	1511.2856	1524.2265	1577.1772	1651.9567	2325.1039	2992.999	3055.868	3135.7957	3259.9677	3634.9707	3676.0037
CNC1=NC=C(N1)C#N	CNc1ncc([nH]1)C#N	
InChI=1S/C5H6N4/c1-7-5-8-3-4(2-6)9-5/h3H,1H3,(H2,7,8,9)	InChI=1S/C5H6N4/c1-7-5-8-3-4(2-6)9-5/h3H,1H3,(H2,7,8,9)
