19
gdb 96017	2.7224	1.5256	1.21612	1.513	70.46	-0.2523	0.0749	0.3272	1071.6894	0.159969	-460.137992	-460.129715	-460.128771	-460.172008	31.253	
O	-0.044040697	 1.4957977058	 0.1864789518	-0.443443
C	 0.0542138193	 0.0910368381	 0.0476280143	 0.101001
C	 0.5195674484	-0.6125283992	 1.3369216482	-0.238527
C	-0.8066288951	-0.9444939652	 2.0159567929	-0.088036
O	-1.67123736	-1.3270122716	 0.9452682227	-0.272659
C	-1.3096751353	-0.61914154	-0.239917539	 0.047902
C	-2.4029534799	 0.3486568228	-0.6477760898	 0.063615
C	-3.7552696645	 0.2522049489	-0.0895382392	-0.174656
O	-2.8389451516	 1.2546435837	 0.3755817182	-0.25701
H	-0.839474507	 1.7038548345	 0.691573748	 0.303611
H	 0.7563426916	-0.0683663467	-0.7746872531	 0.087839
H	 1.0559300083	-1.5360523059	 1.0948954572	 0.104743
H	 1.1747863259	 0.0364473269	 1.9209052453	 0.113744
H	-0.7546147369	-1.7821750812	 2.7163175284	 0.109611
H	-1.2155720927	-0.0723977022	 2.5472776252	 0.100598
H	-1.1902523096	-1.3567722189	-1.0457632529	 0.085286
H	-2.2671221845	 0.8102662445	-1.62582528	 0.103362
H	-4.5996679873	 0.6373245348	-0.6582308173	 0.116228
H	-3.9674834122	-0.5389284589	 0.6230972192	 0.13679
21.4317	120.1142	187.2068	215.4038	262.7708	358.7179	408.6185	446.5863	490.5971	610.2478	648.5293	756.6828	811.6214	843.2592	857.9961	896.8304	919.6339	934.332	971.0759	1019.7076	1040.3335	1048.4702	1098.6665	1122.8819	1143.1285	1159.4399	1172.8411	1207.9256	1222.0604	1271.1494	1288.0804	1296.2773	1314.6969	1346.7694	1362.0481	1389.8935	1426.1826	1448.7007	1475.0623	1511.7497	1524.8076	2996.2976	3007.5606	3052.3323	3081.023	3093.1449	3101.5638	3118.3699	3125.5627	3207.0144	3782.7419
OC1CCOC1C1CO1	O[C@H]1CCO[C@H]1[C@H]1CO1	
InChI=1S/C6H10O3/c7-4-1-2-8-6(4)5-3-9-5/h4-7H,1-3H2	InChI=1S/C6H10O3/c7-4-1-2-8-6(4)5-3-9-5/h4-7H,1-3H2/t4-,5+,6+/m0/s1
