20
gdb 120116	2.85455	1.04228	0.90534	2.309	80.22	-0.2287	-0.0207	0.208	1384.0117	0.169743	-403.119974	-403.110942	-403.109998	-403.154802	33.395	
C	 0.0583149342	 1.4968756082	 0.1415595403	-0.383768
C	 0.3587000417	 0.0029701982	-0.0005622647	-0.164146
C	 0.4728751136	-0.4343910655	-1.4609610721	-0.136025
N	 0.7022323277	-1.8795989586	-1.5373201073	-0.077802
C	 1.2085121882	-2.5580639815	-2.6929084864	-0.039972
C	 2.2353811782	-1.7219040991	-3.4786475242	-0.37927
C	 3.0678204473	-1.6775246848	-2.1667405511	 0.405458
O	 4.1793536133	-1.3113237793	-1.9151832095	-0.305012
C	 2.0288314616	-2.476826212	-1.401821639	-0.177636
H	 0.8457085003	 2.1077287563	-0.3137181583	 0.119273
H	-0.8881539905	 1.7614643951	-0.3431916012	 0.115091
H	-0.0166786912	 1.7847416132	 1.194197107	 0.117931
H	 1.296489303	-0.2377236497	 0.5154013157	 0.108002
H	-0.4237064603	-0.5924578443	 0.482988003	 0.10859
H	-0.4712997961	-0.2388313588	-1.9840496227	 0.106257
H	 1.2471095806	 0.1663949249	-1.9612924173	 0.100337
H	 0.6774296801	-3.4251605638	-3.0689407404	 0.110762
H	 2.7816708476	-2.2947416864	-4.2342727172	 0.134418
H	 1.8947374286	-0.7826516204	-3.9200343521	 0.126292
H	 2.2048908321	-3.1977775417	-0.6111188725	 0.111221
40.2156	76.7622	125.0576	151.5675	245.1597	284.0612	336.0095	433.0711	444.953	495.386	602.6133	663.5712	752.0553	758.4832	837.2164	850.5463	899.496	910.7632	919.7237	970.4461	991.1541	1003.1537	1046.9218	1053.5897	1090.4904	1124.6161	1142.2996	1179.907	1197.8828	1235.031	1273.1846	1278.2493	1320.5237	1332.2994	1357.8576	1404.3545	1416.5326	1458.9275	1488.5586	1498.5296	1502.1491	1513.5606	1882.4814	2987.9222	3030.2915	3032.6738	3047.9994	3064.569	3072.1427	3099.7973	3107.7894	3117.2846	3174.6077	3184.114
CCCN1C2CC(=O)C12	CCCN1[C@H]2CC(=O)[C@@H]12	
InChI=1S/C7H11NO/c1-2-3-8-5-4-6(9)7(5)8/h5,7H,2-4H2,1H3	InChI=1S/C7H11NO/c1-2-3-8-5-4-6(9)7(5)8/h5,7H,2-4H2,1H3/t5-,7-,8?/m0/s1
