17
gdb 18134	3.30864	1.95056	1.53678	1.6699	73.7	-0.229	0.0311	0.26	875.6619	0.14167	-326.641446	-326.633832	-326.632888	-326.672901	29.474	
C	-0.4153068698	 1.4380167518	-0.0829001352	-0.421396
C	-0.0294809911	-0.0230272995	-0.0778668591	 0.033116
C	 0.6231731025	-0.7605684563	-1.1768777801	-0.043068
C	 1.6600196371	 0.0826255758	-1.9139216845	-0.281598
C	 2.3719072511	 0.2454600349	-0.5365811543	-0.136563
C	 2.6893909579	 1.5596931394	-0.0098877974	 0.357557
C	 2.998581352	 2.6400366639	 0.419310444	-0.46609
N	 1.3185640162	-0.5881489036	 0.1771728848	-0.165167
H	 0.2187491177	 2.0543859744	-0.7205653578	 0.132649
H	-1.4480029334	 1.531144853	-0.4372624438	 0.116339
H	-0.3679729875	 1.8526642621	 0.9286674578	 0.132054
H	-0.7422618775	-0.6352424953	 0.4734527907	 0.098222
H	 0.2818424871	-1.7357194384	-1.5100682246	 0.09476
H	 2.2633354222	-0.4795795538	-2.6276084132	 0.116252
H	 1.2949074786	 0.9911638799	-2.3987553282	 0.114086
H	 3.2840705386	-0.3585213484	-0.5189287388	 0.119321
H	 3.2594798582	 3.5950184301	 0.8038311795	 0.199527
132.2147	149.9303	212.3383	268.6191	275.4679	382.251	481.5655	498.5164	595.7812	618.6033	652.9973	699.8373	739.7396	769.8386	830.7877	906.4279	960.9047	980.7333	986.6134	1062.9195	1082.6411	1083.4695	1111.3547	1152.5201	1165.5576	1248.2187	1260.0952	1274.7245	1347.8707	1363.6931	1415.3458	1441.6788	1485.1831	1495.6758	1505.3999	2228.3167	3040.7286	3056.0114	3071.1983	3100.7207	3113.1014	3128.8896	3146.3107	3159.0778	3501.943
CC1C2CC(C#C)N12	C[C@H]1[C@H]2C[C@@H](C#C)N12	
InChI=1S/C7H9N/c1-3-6-4-7-5(2)8(6)7/h1,5-7H,4H2,2H3	InChI=1S/C7H9N/c1-3-6-4-7-5(2)8(6)7/h1,5-7H,4H2,2H3/t5-,6+,7+,8?/m0/s1
