23
gdb 113543	2.79684	1.00776	0.92113	1.5106	86.61	-0.2495	0.0762	0.3258	1434.3611	0.20496	-388.271368	-388.26158	-388.260636	-388.306138	37.164	
C	-0.0302149121	 1.5084707124	-0.2532759632	-0.3704
C	-0.0671187585	 0.0728466112	 0.2841756362	-0.197346
C	-1.4359405677	-0.5631957991	 0.1595237578	-0.047653
C	-1.8584605745	-1.238391377	-1.1278918021	-0.367043
C	-1.6259939533	-2.0571848121	 0.1053379308	 0.295199
C	-0.5730086546	-3.1339944559	 0.4060802716	-0.308263
C	-1.4867174038	-3.6392510087	 1.5617749634	-0.253815
C	-2.6598016305	-2.8142995388	 0.9581730032	 0.088069
O	-3.520123094	-2.0970970418	 1.8076693884	-0.42803
H	 0.9684098819	 1.9453133833	-0.1535495772	 0.109277
H	-0.3087900702	 1.5372537183	-1.3116947582	 0.119831
H	-0.7315907924	 2.151373907	 0.2898682379	 0.113707
H	 0.6672824445	-0.5377241215	-0.2554273291	 0.096322
H	 0.2496935058	 0.068592904	 1.3362834221	 0.089777
H	-2.2312078646	-0.0239513341	 0.6734100171	 0.079001
H	-2.8799720173	-1.1090315597	-1.4729952112	 0.111541
H	-1.1214306198	-1.3043551965	-1.9240863557	 0.105084
H	-0.4751064794	-3.8646478757	-0.4025369336	 0.103616
H	 0.4270472128	-2.7942351822	 0.6861649681	 0.102088
H	-1.629980383	-4.7164531632	 1.6706021145	 0.100244
H	-1.1809141482	-3.2273601814	 2.5293121465	 0.093629
H	-3.3160758835	-3.4367134821	 0.3404088163	 0.089148
H	-2.9726413776	-1.5410034066	 2.3730103163	 0.276018
72.4447	90.4326	137.4606	143.5366	216.6015	243.1624	288.1345	322.156	396.1077	421.8704	482.0202	527.4209	566.4088	712.4443	776.1601	778.4929	814.9504	867.8815	900.3856	931.5294	939.717	958.1779	975.7465	1042.8593	1050.9387	1065.4151	1095.378	1111.5983	1128.9722	1138.8337	1181.1088	1193.6519	1223.5833	1236.0349	1261.6491	1276.9494	1291.9942	1312.0863	1327.057	1358.8627	1407.9196	1429.0609	1433.7209	1475.0611	1484.1607	1492.8211	1496.8095	1498.7233	1507.3257	3010.1538	3031.7952	3046.1551	3048.2411	3052.9452	3055.6395	3097.4656	3098.8922	3105.5126	3111.4878	3111.9124	3115.3684	3195.8806	3799.7726
CCC1CC11CCC1O	CC[C@H]1C[C@]21CC[C@H]2O	
InChI=1S/C8H14O/c1-2-6-5-8(6)4-3-7(8)9/h6-7,9H,2-5H2,1H3	InChI=1S/C8H14O/c1-2-6-5-8(6)4-3-7(8)9/h6-7,9H,2-5H2,1H3/t6-,7+,8-/m0/s1
