20
gdb 14859	2.81525	1.4858	1.07276	2.9231	75.65	-0.243	-0.0197	0.2233	1149.917	0.176131	-349.008642	-348.99983	-348.998885	-349.042643	31.835	
C	-0.0102547168	 1.5472732424	 0.0306382283	-0.384932
C	-0.0808290653	 0.0169505966	-0.0070977955	-0.202768
C	 0.6885737194	-0.57350098	-1.1839355397	 0.052237
C	 2.2418350279	-0.5262885194	-1.2014325163	-0.228776
C	 2.2468052559	-1.9421876913	-1.8316032463	-0.241132
C	 0.7612164259	-2.1361163744	-1.3865938538	-0.120196
C	 0.6397608251	-2.9215185913	-0.1100407154	 0.170526
O	-0.2206763675	-3.7339497502	 0.1196968399	-0.261237
H	 1.0251791206	 1.8956833656	 0.1106974189	 0.119322
H	-0.4372991933	 1.9850783929	-0.878525423	 0.116041
H	-0.5626758266	 1.9487983025	 0.885360873	 0.11694
H	 0.3097264248	-0.3874693969	 0.9355269799	 0.097038
H	-1.1287176725	-0.3044427439	-0.064654898	 0.108108
H	 0.3025624771	-0.1427354421	-2.1153541575	 0.08086
H	 2.7195180036	 0.2792244375	-1.7635866827	 0.102015
H	 2.6554854057	-0.5289648886	-0.1874592441	 0.103815
H	 2.328553244	-1.9168989258	-2.9204544274	 0.113708
H	 2.9742512486	-2.6625756436	-1.4477681997	 0.106001
H	 0.0636349076	-2.5569703405	-2.1133829277	 0.085954
H	 1.432046116	-2.7086161392	 0.6472711272	 0.066474
57.3672	93.0416	116.3085	172.2064	221.5394	281.5113	317.6536	392.3114	449.1178	460.1898	673.877	746.2497	791.7139	869.3332	880.952	928.6688	944.764	952.8701	995.4384	1012.2152	1023.3539	1081.9469	1132.3037	1144.3945	1182.9266	1215.8028	1243.1027	1256.5028	1267.6082	1276.9093	1296.0434	1331.2444	1345.7277	1394.9735	1412.0438	1439.6315	1482.2951	1485.8269	1499.9531	1501.3786	1507.2154	1824.8192	2840.8378	3019.7545	3029.7944	3032.6141	3049.6858	3055.2375	3061.9327	3093.4905	3098.1596	3101.1818	3106.3336	3120.2587
CCC1CCC1C=O	CC[C@H]1CC[C@H]1C=O	
InChI=1S/C7H12O/c1-2-6-3-4-7(6)5-8/h5-7H,2-4H2,1H3	InChI=1S/C7H12O/c1-2-6-3-4-7(6)5-8/h5-7H,2-4H2,1H3/t6-,7-/m0/s1
