23
gdb 123046	6.47141	0.52078	0.506	2.3205	83.63	-0.2455	0.0729	0.3183	2243.9636	0.204283	-425.399048	-425.388589	-425.387644	-425.436287	36.403	
C	-0.0331095258	 1.5272622146	 0.0379409974	-0.379707
C	-0.160359818	 0.0131136887	-0.1497153703	-0.166218
C	 0.8431091316	-0.5473408461	-1.1626918537	-0.179298
C	 0.7151863024	-2.0522288087	-1.3492337289	-0.065913
O	 1.6807198911	-2.4771228097	-2.2961510473	-0.251926
C	 1.6774007222	-3.8561383074	-2.5226757449	 0.095036
C	 0.6270759339	-4.4345474398	-3.5059794958	-0.093947
O	 1.6693726638	-4.9650586855	-4.3504886424	-0.273342
C	 2.6960439208	-4.3035490993	-3.5815390166	-0.099952
H	 0.9663783821	 1.798579225	 0.3950964646	 0.116274
H	-0.2014162274	 2.0579266597	-0.9055518191	 0.116489
H	-0.7601310328	 1.9013306398	 0.765293408	 0.112643
H	-0.0215626591	-0.4879602116	 0.817496823	 0.09681
H	-1.1809802194	-0.2305406553	-0.4734513451	 0.097005
H	 0.7061291461	-0.0614623619	-2.1365521469	 0.105748
H	 1.8678685326	-0.3208675365	-0.8434752167	 0.105144
H	 0.8723685244	-2.5762913654	-0.3907017274	 0.087041
H	-0.3003528631	-2.3096299021	-1.6940195633	 0.089265
H	 1.7375465823	-4.4090606098	-1.5742578755	 0.07346
H	-0.0393523358	-5.2212574602	-3.1342655331	 0.10068
H	 0.0374434563	-3.6568167991	-4.0100674779	 0.100645
H	 3.1411609563	-3.4554069263	-4.1168554199	 0.1103
H	 3.4837302053	-4.9945823034	-3.2623314283	 0.103764
43.1081	62.5851	75.534	104.674	130.9121	146.7498	238.7038	253.939	295.9749	388.8996	474.3753	485.7599	741.8698	745.8037	816.0307	871.8159	886.7989	913.2727	954.5981	983.4741	1017.0858	1030.2518	1047.3523	1065.2208	1076.1276	1124.8849	1151.7221	1157.1602	1165.649	1194.9279	1215.5655	1253.1656	1277.2887	1295.147	1301.9262	1314.5651	1325.407	1347.1799	1386.2722	1401.0205	1414.8079	1450.178	1487.8997	1496.0001	1499.3645	1500.8525	1510.0432	1525.4949	1528.3126	2951.9496	2980.23	2997.4507	3006.1352	3013.8043	3023.8837	3029.5543	3033.4782	3039.9831	3064.0827	3074.8262	3075.0928	3099.4451	3104.0128
CCCCOC1COC1	CCCCOC1COC1	
InChI=1S/C7H14O2/c1-2-3-4-9-7-5-8-6-7/h7H,2-6H2,1H3	InChI=1S/C7H14O2/c1-2-3-4-9-7-5-8-6-7/h7H,2-6H2,1H3
