21
gdb 117362	5.3451	0.65418	0.61774	1.6341	80.87	-0.2649	0.0184	0.2833	1893.284	0.180133	-424.253874	-424.243566	-424.242622	-424.291821	36.022	
C	 0.0389602781	 1.5566041687	-0.1418615409	-0.386545
C	-0.0668604975	 0.0304529873	-0.103729581	-0.155888
C	 0.8283099771	-0.6435763468	-1.1437671955	-0.311907
C	 0.742104436	-2.1553200606	-1.1130138589	 0.442972
O	 0.062147248	-2.8068141691	-0.3622166181	-0.353066
O	 1.558667738	-2.6935855446	-2.0519032069	-0.252923
C	 1.5707918924	-4.1075103052	-2.1368134446	 0.152743
C	 0.9086348505	-4.7408378269	-3.3228433873	-0.279697
C	 2.4215914678	-4.6703015616	-3.226036955	-0.298844
H	 1.0633436653	 1.8912104858	 0.057382868	 0.113822
H	-0.2519809156	 1.9532941511	-1.1211803349	 0.113492
H	-0.611811011	 2.0152845545	 0.6085631335	 0.116075
H	 0.1990800087	-0.3423427411	 0.8910901037	 0.113514
H	-1.1038366551	-0.2807328772	-0.2692254132	 0.112947
H	 0.5760911714	-0.3134464449	-2.1595993056	 0.127384
H	 1.8803809009	-0.3648059333	-1.0032852221	 0.129484
H	 1.5121579414	-4.5931787871	-1.1711609208	 0.122324
H	 0.4124660061	-5.6946200818	-3.1840397831	 0.122895
H	 0.4292109621	-4.0747534683	-4.030955349	 0.123293
H	 2.9249630102	-3.9584895071	-3.8702242539	 0.127017
H	 2.9814440053	-5.5763435119	-3.0241118545	 0.120908
20.6792	35.2089	60.7779	110.4634	125.8352	232.1505	243.6647	305.2223	362.7951	405.8886	443.4166	585.8917	708.265	747.0695	753.3719	816.9455	836.3424	883.2554	901.0935	922.3995	977.5295	1006.4908	1052.197	1056.5981	1074.2099	1114.7639	1121.3729	1125.8217	1177.0381	1191.761	1198.8128	1240.8508	1248.6473	1321.3884	1327.4669	1387.6743	1407.5011	1414.4446	1455.7722	1457.7681	1488.3704	1498.9652	1500.1072	1508.8881	1821.602	3028.1445	3031.621	3050.3389	3057.7404	3077.9277	3101.5103	3105.1814	3140.2396	3143.1657	3195.5742	3223.4916	3237.7506
CCCC(=O)OC1CC1	CCCC(=O)OC1CC1	
InChI=1S/C7H12O2/c1-2-3-7(8)9-6-4-5-6/h6H,2-5H2,1H3	InChI=1S/C7H12O2/c1-2-3-7(8)9-6-4-5-6/h6H,2-5H2,1H3
