21
gdb 67888	2.64781	1.87009	1.38524	0.3659	87.01	-0.2205	0.0256	0.2461	1019.4898	0.184982	-349.947601	-349.940177	-349.939233	-349.978757	31.332	
C	-0.0012702106	 1.4447521593	 0.0661765466	-0.480878
C	 0.0092618195	-0.072598679	 0.0130488695	 0.32965
C	 1.1053965512	-0.6642319601	-0.8059892106	-0.110129
C	 0.9843839705	-1.8173719026	-1.4657903191	-0.084672
C	-0.2602779605	-2.6663991204	-1.3771979302	-0.269906
C	-1.1141712201	-2.2629341252	-0.1736077712	-0.038634
C	-0.3701773278	-2.2723246901	 1.2096162933	-0.254848
C	-0.5156135736	-0.7532848609	 1.2803109678	-0.093927
C	-1.336550827	-0.7431101533	-0.0051206208	-0.118454
H	 0.92842077	 1.8306507231	 0.5006338705	 0.115231
H	-0.10294165	 1.8740843253	-0.9367545635	 0.118779
H	-0.832416305	 1.8151529631	 0.6746306037	 0.113581
H	 2.0293964925	-0.0933361007	-0.8712539505	 0.075308
H	 1.8049270694	-2.1845891029	-2.0767785334	 0.082546
H	-0.8415614435	-2.5935794178	-2.3090915879	 0.103086
H	 0.0217908418	-3.7244681065	-1.2885942528	 0.101156
H	-2.0444253135	-2.8345896624	-0.1432614898	 0.067388
H	-0.953819423	-2.7788987671	 1.9821504402	 0.097835
H	 0.6484775729	-2.6730065954	 1.2135067368	 0.095527
H	-0.664086068	-0.1722935139	 2.1839880088	 0.077073
H	-2.2458080654	-0.2022056623	-0.2419991175	 0.074289
185.3182	228.2676	268.7612	284.5778	335.2227	362.3607	494.8927	504.2816	526.5784	647.0207	693.6441	748.9446	807.2857	830.9654	845.859	876.4053	897.5912	906.6408	967.7146	976.3711	996.8369	1007.4203	1036.266	1045.4388	1069.4002	1075.944	1103.6333	1114.5094	1177.5579	1189.9589	1211.8194	1253.1524	1265.1526	1278.1834	1294.9571	1322.7996	1373.2916	1402.3122	1415.4842	1426.6945	1470.3635	1481.6576	1492.0972	1504.0197	1710.2223	2992.0406	3023.1159	3026.131	3047.4097	3075.3385	3083.6879	3099.3065	3103.5646	3138.1058	3161.7176	3165.1779	3174.1715
CC12C=CCC3CC1C23	C[C@@]12C=CC[C@H]3C[C@@H]1[C@@H]23	
InChI=1S/C9H12/c1-9-4-2-3-6-5-7(9)8(6)9/h2,4,6-8H,3,5H2,1H3	InChI=1S/C9H12/c1-9-4-2-3-6-5-7(9)8(6)9/h2,4,6-8H,3,5H2,1H3/t6-,7+,8-,9+/m0/s1
