20
gdb 85067	2.41148	1.55455	1.06956	4.9279	75.57	-0.2418	0.0594	0.3012	1178.9104	0.170758	-440.350406	-440.340981	-440.340037	-440.384556	34.454	
C	-0.3713708236	 1.4735796416	-0.0680928646	-0.413067
C	 0.1427341873	 0.0490945485	 0.0037369418	 0.122157
O	 1.1192151721	-0.1619093049	-1.0346525895	-0.260053
C	 2.0303352933	-1.0905792634	-0.6134793921	 0.47764
O	 2.865110991	-1.5766622649	-1.3297432184	-0.410116
N	 1.8099221099	-1.3439302454	 0.7191218149	-0.123742
C	 2.6937239404	-2.1940678171	 1.4820796943	-0.344116
C	 0.8697684033	-0.3968616311	 1.3002853999	-0.01393
C	 1.5579371883	 0.7181100304	 2.0968389567	-0.406578
H	 0.4333600604	 2.1980532692	 0.0763701302	 0.133644
H	-0.8213798478	 1.6534840945	-1.0477226141	 0.13849
H	-1.1377915981	 1.6411579552	 0.6951982166	 0.121973
H	-0.6839773765	-0.6495265291	-0.183494028	 0.093425
H	 3.2915428487	-2.76594827	 0.7707080074	 0.168596
H	 3.3732499391	-1.6215112844	 2.126249199	 0.12323
H	 2.1194922395	-2.8846442009	 2.1100503938	 0.122337
H	 0.1626091167	-0.9201841589	 1.9556878887	 0.086426
H	 2.2561924555	 1.2803646854	 1.4695080724	 0.135282
H	 0.8213811956	 1.4139051268	 2.5086937938	 0.124133
H	 2.1189704648	 0.2985666885	 2.9368197673	 0.12427
79.6254	115.0303	150.3584	174.3621	229.9781	259.9289	274.709	287.3078	333.3564	422.0407	479.6805	550.25	666.7306	679.7726	754.5029	772.9128	820.5966	911.4568	980.2894	1016.5981	1034.4542	1090.0996	1111.5619	1127.7753	1158.1745	1164.9486	1200.6268	1260.4346	1299.6796	1358.9403	1384.9471	1387.4269	1412.6486	1416.7933	1425.3855	1452.1673	1480.3309	1489.7532	1490.4515	1504.9655	1506.0251	1524.1954	1868.7508	3006.5141	3014.3805	3029.0673	3043.3802	3048.9426	3067.8382	3115.1337	3118.5277	3122.1819	3133.0522	3145.2752
CC1OC(=O)N(C)C1C	C[C@H]1OC(=O)N(C)[C@H]1C	
InChI=1S/C6H11NO2/c1-4-5(2)9-6(8)7(4)3/h4-5H,1-3H3	InChI=1S/C6H11NO2/c1-4-5(2)9-6(8)7(4)3/h4-5H,1-3H3/t4-,5+/m0/s1
