23
gdb 40761	2.63774	1.27306	0.97212	0.1652	90.1	-0.2546	0.085	0.3396	1312.2632	0.206216	-351.118153	-351.109263	-351.108319	-351.152153	34.775	
C	-0.2854951352	 1.4032943694	-0.287806428	-0.276943
C	 1.1659783603	 1.2465136307	 0.0893902384	-0.27353
C	 0.266311498	 0.0332071583	 0.0232013651	 0.019765
C	-0.145748801	-0.688054263	 1.2762070492	-0.043138
C	-1.3645097007	-1.6613934414	 1.2110148176	-0.236999
C	-0.5742999414	-2.686486457	 2.0745874922	-0.303228
C	 0.6968905277	-1.8779793261	 1.7856655042	 0.369646
C	 1.9367643883	-2.4177271815	 1.1302491428	-0.317211
C	 1.9915935858	-1.8633404702	 2.5371306017	-0.330755
H	-0.9517581401	 1.8566890025	 0.439106189	 0.109433
H	-0.5268923418	 1.6410802484	-1.3178968611	 0.10886
H	 1.9163106577	 1.3777966971	-0.6825317556	 0.108912
H	 1.4740602911	 1.5958131106	 1.0696308014	 0.109778
H	 0.4174144507	-0.618962593	-0.8338030606	 0.077811
H	-0.287817156	 0.042821879	 2.0833296593	 0.05944
H	-2.3141689121	-1.2961653826	 1.6082572761	 0.093875
H	-1.5298604358	-2.0247600843	 0.1925334044	 0.099056
H	-0.8631189357	-2.654352071	 3.1304370121	 0.097572
H	-0.5873250265	-3.7287243264	 1.7435357419	 0.095304
H	 2.0186609251	-3.4925457348	 0.9995974424	 0.105292
H	 2.3969236725	-1.8346399945	 0.339118281	 0.112828
H	 2.486812695	-0.9085529506	 2.6863662177	 0.107855
H	 2.114265944	-2.5615064994	 3.3597321689	 0.106378
66.3128	71.8298	142.7813	203.2116	264.9466	287.39	349.718	403.9644	468.6752	557.4641	702.6342	760.1233	778.9484	799.9518	826.527	860.4802	889.3662	897.7223	912.5371	916.8008	939.0408	976.5641	989.4222	1012.2537	1047.6877	1054.795	1071.4746	1075.6691	1078.2911	1122.7233	1139.0457	1188.0149	1193.7062	1198.4068	1205.4575	1224.2254	1235.7629	1254.4859	1271.7058	1279.7344	1314.5768	1370.864	1429.7601	1459.8316	1469.0859	1478.2998	1496.172	1501.8795	1505.409	3011.9674	3041.6477	3056.6229	3088.5547	3113.155	3116.9709	3121.866	3127.3164	3130.0284	3134.3774	3194.7913	3204.8056	3210.5666	3220.1686
C1CC1C1CCC11CC1	C1CC1[C@H]1CCC21CC2	
InChI=1S/C9H14/c1-2-7(1)8-3-4-9(8)5-6-9/h7-8H,1-6H2	InChI=1S/C9H14/c1-2-7(1)8-3-4-9(8)5-6-9/h7-8H,1-6H2/t8-/m1/s1
