14
gdb 66757	2.88423	2.07432	1.50814	2.2916	63.09	-0.243	-0.0265	0.2165	843.3546	0.101183	-436.597948	-436.591451	-436.590507	-436.628683	25.948	
O	-0.0612209025	 1.3883799289	-0.0011444277	-0.467548
C	-0.016032484	 0.0193293799	-0.0500551508	 0.282415
C	 1.0253335089	-0.8088588355	 0.7336145088	-0.149394
C	 0.6651630753	-2.2084808051	 0.3370304608	-0.029362
C	-0.5217152882	-1.982088384	-0.6145061646	-0.214609
C	 0.4549377001	-0.9273692961	-1.2418561724	-0.075677
N	 1.6766783194	-1.4426773803	-0.4580292663	-0.171871
C	-1.322962477	-0.8083638906	-0.0023428835	 0.405172
O	-2.4712637113	-0.5722177356	 0.2120979729	-0.307013
H	 0.8373555586	 1.7362122943	 0.0304597469	 0.296234
H	 1.5700072784	-0.5365564083	 1.6302518848	 0.109567
H	 0.9198315997	-3.0942712971	 0.9057287033	 0.113231
H	-0.9805139735	-2.8111572725	-1.1428011314	 0.103687
H	 0.5150022462	-0.657633178	-2.2923810608	 0.105169
130.7545	241.0118	286.1711	348.5662	394.0871	549.7964	591.8711	690.1798	740.6939	755.5545	800.2689	808.4536	861.0013	865.4355	885.754	929.5514	936.9516	970.5889	1003.7263	1028.9817	1053.6549	1115.7279	1130.7968	1165.0158	1183.8935	1204.7322	1259.2738	1314.9564	1323.005	1418.5643	1905.2763	3164.0864	3179.8247	3183.2011	3195.7271	3796.9189
OC12C3C4C(C1N34)C2=O	O[C@]12[C@H]3[C@H]4[C@H]([C@@H]1N34)C2=O	
InChI=1S/C6H5NO2/c8-5-1-2-4-6(5,9)3(1)7(2)4/h1-4,9H	InChI=1S/C6H5NO2/c8-5-1-2-4-6(5,9)3(1)7(2)4/h1-4,9H/t1-,2-,3+,4-,6+,7?/m1/s1
