18
gdb 110227	2.17951	1.56581	1.08552	3.9926	72.29	-0.2501	-0.0158	0.2342	1150.0893	0.1461	-439.06537	-439.056415	-439.055471	-439.099249	33.189	
C	-0.0991655351	 1.5538641004	 0.0601138624	-0.486358
C	 0.0759636447	 0.070425094	-0.0696684317	 0.313013
C	-0.8321422895	-0.8197334267	-0.9279063392	-0.439505
C	-0.8587146043	-1.7511922887	 0.2897198446	 0.402311
O	-1.3573413673	-2.8016449796	 0.554428664	-0.305909
N	-0.099568086	-0.8684224177	 1.1535519273	-0.232511
C	 1.2329460834	-0.6628395822	 0.4715796078	-0.065629
C	 1.976797676	-1.8242568031	-0.1541983056	-0.093558
O	 2.48669168	-2.697102628	 0.835194232	-0.415314
H	 0.275551165	 2.0642940846	-0.834441686	 0.131988
H	-1.1557160051	 1.8149048138	 0.179080367	 0.132415
H	 0.4486916318	 1.9379203049	 0.924694313	 0.138606
H	-1.8149113464	-0.3712161921	-1.0998779815	 0.142806
H	-0.4547486816	-1.2188796638	-1.8719642623	 0.134774
H	 1.8720440429	-0.0772508746	 1.1298225665	 0.117803
H	 1.3534126405	-2.3613115756	-0.8822759232	 0.104573
H	 2.8460918929	-1.435873974	-0.6960883053	 0.119289
H	 1.7365260183	-3.0411427815	 1.3340578804	 0.301207
57.2732	126.101	159.0271	192.2909	236.2714	297.0471	303.9197	376.4343	470.8758	494.3047	502.453	602.383	620.8799	633.3434	748.863	834.7341	911.8018	949.1658	962.9418	1025.9351	1039.3193	1067.7177	1072.6674	1109.7971	1137.3909	1154.8381	1216.2899	1222.9566	1297.2839	1323.1901	1376.3606	1417.2542	1419.7304	1453.1007	1473.6068	1485.5737	1493.1628	1502.4554	1906.9553	3011.5328	3033.9381	3067.1149	3071.6648	3097.3084	3119.0143	3120.0269	3135.7718	3798.5369
CC12CC(=O)N1C2CO	C[C@]12CC(=O)N1[C@H]2CO	
InChI=1S/C6H9NO2/c1-6-2-5(9)7(6)4(6)3-8/h4,8H,2-3H2,1H3	InChI=1S/C6H9NO2/c1-6-2-5(9)7(6)4(6)3-8/h4,8H,2-3H2,1H3/t4-,6+,7?/m0/s1
