19
gdb 84438	2.55571	1.63998	1.24856	1.895	75.98	-0.2291	0.0123	0.2415	1061.2486	0.157781	-423.01473	-423.005932	-423.004988	-423.047329	34.732	
C	-0.1560304043	 1.6029775102	-0.0105630268	-0.40063
C	 0.0198956063	 0.0785112666	-0.008405967	-0.08904
C	 0.8024092066	-0.4672525451	-1.1928002349	-0.076532
C	 1.7948488338	-1.2846269547	-0.8317627036	-0.156071
C	 1.8886524033	-1.3801732161	 0.6564957835	 0.263738
O	 2.0751070877	-2.6166084924	 1.2832906284	-0.477234
C	 2.2494900215	-0.0911300024	 1.3794863294	-0.404527
C	 0.7948306352	-0.4828572349	 1.1844544127	 0.387964
O	 0.0642545759	-0.8673557962	 2.304602834	-0.488607
H	 0.8111591949	 2.1153802664	-0.0034436647	 0.115616
H	-0.7035289919	 1.9327189175	-0.8996967312	 0.110441
H	-0.7184987875	 1.9250747964	 0.870842023	 0.128121
H	-0.9807902605	-0.3765429141	 0.0097306234	 0.092485
H	 0.5690200761	-0.1792827152	-2.2123673576	 0.096101
H	 2.4775000648	-1.7988253406	-1.4990704293	 0.096015
H	 2.9903470124	-2.6837331828	 1.5728316243	 0.290928
H	 2.590380623	-0.1933117264	 2.4056977929	 0.11055
H	 2.7018512607	 0.7148526694	 0.8113989347	 0.112294
H	 0.2996764819	-1.7887732656	 2.480535489	 0.288389
130.7911	196.6788	215.837	227.8953	255.8841	290.9331	324.9744	350.3138	422.5406	452.9098	507.5412	574.5748	592.7061	696.3232	743.0364	758.8962	818.8893	866.0539	903.3985	922.8035	947.7988	966.3429	1013.8061	1043.4841	1082.8746	1092.2858	1116.7414	1169.1189	1202.4588	1224.285	1277.8201	1317.6599	1326.8179	1359.1987	1391.1861	1403.2687	1415.9602	1464.8942	1497.781	1498.7635	1660.4259	3005.5245	3034.9635	3101.985	3111.54	3118.2961	3179.9872	3204.6451	3214.8552	3744.297	3815.8831
CC1C=CC2(O)CC12O	C[C@H]1C=C[C@@]2(O)C[C@@]12O	
InChI=1S/C7H10O2/c1-5-2-3-6(8)4-7(5,6)9/h2-3,5,8-9H,4H2,1H3	InChI=1S/C7H10O2/c1-5-2-3-6(8)4-7(5,6)9/h2-3,5,8-9H,4H2,1H3/t5-,6+,7+/m0/s1
