21
gdb 116516	2.9212	1.16203	0.90845	2.0882	75.18	-0.2504	0.0806	0.331	1311.0616	0.183791	-461.35096	-461.342132	-461.341188	-461.384536	33.613	
O	 0.0614085719	 1.4141078267	 0.1947293245	-0.426565
C	 0.0578646162	 0.0193425745	-0.013037601	-0.06507
C	-1.3657436878	-0.5352995834	-0.0651634796	 0.102948
C	-1.388105206	-2.0642107305	-0.1813988852	-0.244717
C	-2.7188991023	-2.6496074653	-0.6952215044	-0.082813
O	-3.8740553929	-1.8856638377	-0.3918360449	-0.244427
C	-4.0157753628	-1.4770919891	 0.9562661515	-0.088923
C	-3.3801116552	-0.107911765	 1.1924747264	-0.07286
O	-1.9655614986	-0.1104006886	 1.1643517216	-0.276119
H	-0.555897588	 1.5601334092	 0.9225961955	 0.285392
H	 0.5613472037	-0.171170627	-0.9665095712	 0.105384
H	 0.6183991997	-0.5103572253	 0.775866514	 0.085711
H	-1.898811185	-0.0679522613	-0.9065138757	 0.084808
H	-0.5883312048	-2.3984879966	-0.854366529	 0.103878
H	-1.1459737655	-2.4607873718	 0.8103057122	 0.113611
H	-2.7090543913	-2.7009375151	-1.7885530937	 0.113432
H	-2.8324630947	-3.6792756449	-0.3202466311	 0.092905
H	-5.0925122065	-1.3981455774	 1.1507998116	 0.108483
H	-3.6020522316	-2.2211219346	 1.6526426048	 0.098442
H	-3.7795040713	 0.5876901653	 0.4378071207	 0.102105
H	-3.6586524972	 0.2622317677	 2.1856229729	 0.104394
93.6077	107.6207	183.5917	196.3512	238.4616	314.749	352.539	381.0137	447.7122	475.9223	484.4902	564.7964	607.0894	785.4612	823.4715	869.4061	911.4831	934.2126	973.527	1028.7773	1065.4088	1081.3333	1096.459	1123.0049	1132.3494	1152.3022	1173.3985	1230.0992	1253.1178	1270.8829	1288.1478	1313.2583	1331.9063	1368.8962	1388.8205	1390.2419	1398.0068	1418.2356	1422.6107	1445.0285	1470.8564	1483.0973	1489.5713	1501.5374	1507.8901	2964.3341	2977.7174	2986.8944	3000.6258	3003.1941	3032.3559	3059.7215	3064.8771	3072.0623	3076.1122	3087.6478	3778.8109
OCC1CCOCCO1	OC[C@H]1CCOCCO1	
InChI=1S/C6H12O3/c7-5-6-1-2-8-3-4-9-6/h6-7H,1-5H2	InChI=1S/C6H12O3/c7-5-6-1-2-8-3-4-9-6/h6-7H,1-5H2/t6-/m1/s1
