18
gdb 20159	3.59855	2.68204	2.01342	0.7104	76.87	-0.2145	0.0035	0.218	736.7762	0.156726	-310.619263	-310.61346	-310.612516	-310.648621	25.033	
C	-0.0375639113	 1.5421754632	-0.0542838822	-0.240039
C	 1.5289150129	 1.6105222116	 0.0879662549	-0.023775
C	 2.1335867544	 1.764090146	 1.5368587392	-0.292008
C	 1.505168595	 0.3992941035	 1.7601108795	 0.16723
C	 0.3867775567	 0.0295515821	 2.390530856	-0.154461
C	-0.577882263	-0.6214962647	 1.396563092	-0.251834
C	-0.0439676481	-0.0385418932	 0.0632159	-0.019939
C	 1.4806557994	 0.063755367	 0.2722156458	-0.059026
H	-0.6181088251	 2.0832803973	 0.6973868318	 0.09773
H	-0.3594139984	 1.8791866655	-1.0423792506	 0.101518
H	 2.0642971289	 2.1092017172	-0.7232074759	 0.066162
H	 3.2274394633	 1.7755453827	 1.468116641	 0.104603
H	 1.799142456	 2.5803530116	 2.1829881991	 0.100931
H	 0.064885387	 0.390649773	 3.361587324	 0.087025
H	-0.5694989556	-1.721207986	 1.3934688129	 0.099342
H	-1.6106124854	-0.3172015328	 1.6064701679	 0.099837
H	-0.4172847374	-0.5425342544	-0.8324997543	 0.054804
H	 2.2128776907	-0.6314322196	-0.1412451714	 0.0619
263.9949	316.3345	348.6179	379.8106	578.5409	659.2376	687.3194	747.716	789.6132	803.7382	847.51	850.4835	881.4524	911.3654	925.1465	940.5801	961.886	994.2185	1011.7149	1039.984	1060.3641	1096.7631	1121.7352	1141.8331	1164.4963	1204.5792	1219.0188	1223.0787	1247.4188	1270.6607	1281.4821	1297.2196	1306.6213	1333.0309	1468.4308	1478.4656	1482.2664	1677.0125	2999.2113	3034.0433	3050.7335	3058.5684	3068.3341	3076.3539	3097.3991	3098.4108	3115.2396	3182.8433
C1C2CC3=CCC1C23	C1[C@H]2C[C]3[CH]C[C@@H]1[C@@H]23	
InChI=1S/C8H10/c1-2-6-4-7-3-5(1)8(6)7/h1,6-8H,2-4H2	InChI=1S/C8H10/c1-2-6-4-7-3-5(1)8(6)7/h1,6-8H,2-4H2/t6-,7+,8-/m0/s1
