19
gdb 12062	3.93682	1.6175	1.46276	0.6568	70.71	-0.2296	0.0716	0.3011	934.1636	0.164997	-365.012368	-365.004212	-365.003268	-365.044378	31.306	
C	-0.1278949625	 1.645165627	 0.0511263967	-0.454587
C	 0.0151580149	 0.131594566	-0.0025004632	 0.35003
C	-1.348322419	-0.5340759522	-0.1638894633	-0.115394
O	-1.8742965357	-0.162602717	-1.4308024476	-0.429286
C	 1.074017348	-0.4904911442	-0.9635716434	-0.300029
C	 1.6967485378	-1.1208267641	 0.2777923344	-0.012296
C	 2.0601963155	-0.095634132	 1.2717867229	-0.243391
N	 0.6520737781	-0.5267523518	 1.2117088927	-0.168919
H	 0.8362257577	 2.1596730664	 0.0603126451	 0.109115
H	-0.6863564585	 1.987877116	-0.8242071837	 0.139845
H	-0.6815928958	 1.940413795	 0.9495106139	 0.119207
H	-1.2242941182	-1.6238715629	-0.0813634745	 0.089559
H	-2.0028273076	-0.2114350629	 0.6604980595	 0.091618
H	-2.7413376561	-0.5658840636	-1.5264948264	 0.29011
H	 0.6331769684	-1.1993693384	-1.6653818147	 0.116304
H	 1.7144319253	 0.2004541891	-1.5197814318	 0.098624
H	 2.0104459996	-2.155660064	 0.3717770734	 0.090163
H	 2.5506340661	-0.4256686374	 2.1827175289	 0.118746
H	 2.3420440222	 0.9031195609	 0.9493282813	 0.110579
114.171	176.7056	206.5347	230.9927	242.5953	305.3489	370.4549	407.5651	441.2064	519.6616	662.1946	759.4735	767.8594	833.643	860.8418	918.829	960.6414	977.5706	988.7313	1014.603	1062.1849	1076.7734	1108.0048	1116.9117	1137.2924	1150.5052	1193.8491	1226.076	1236.1899	1262.6496	1289.0911	1320.0397	1365.2131	1403.5301	1453.5167	1487.3314	1489.5738	1496.3024	1511.0711	1522.0919	2980.1108	3016.3724	3037.883	3056.9438	3106.1784	3114.0457	3123.4289	3125.7005	3159.0761	3197.746	3840.1576
CC1(CO)CC2CN12	C[C@@]1(CO)C[C@H]2CN12	
InChI=1S/C6H11NO/c1-6(4-8)2-5-3-7(5)6/h5,8H,2-4H2,1H3	InChI=1S/C6H11NO/c1-6(4-8)2-5-3-7(5)6/h5,8H,2-4H2,1H3/t5-,6-,7?/m0/s1
