23
gdb 103065	2.04711	1.28904	1.09982	2.6594	82.04	-0.2438	0.0678	0.3116	1283.5256	0.202394	-425.409709	-425.398519	-425.397574	-425.445008	41.628	
C	 0.0063635429	 1.5197349327	-0.0541585997	-0.457014
C	 0.0030702014	 0.0026424764	 0.0404673066	 0.212981
C	-1.2106199687	-0.6168956399	-0.6370543155	-0.456332
C	 1.3317580693	-0.7256841496	-0.0550974573	-0.002268
O	 2.5370151155	-0.0282708144	-0.1929838523	-0.419577
C	 0.6268428878	-0.6490255306	 1.2838248353	 0.224282
C	 1.214652774	 0.2301990367	 2.3785839837	-0.46683
C	 0.0517464042	-1.9473524877	 1.833312025	-0.124787
O	 1.020575953	-2.7106071111	 2.5425339547	-0.415803
H	 0.9469785989	 1.9570476436	 0.2811458468	 0.128753
H	-0.1572694986	 1.8336601732	-1.0924373385	 0.106189
H	-0.8029115457	 1.9529851024	 0.5445320149	 0.117922
H	-1.3157164558	-0.2203068831	-1.6540242483	 0.110659
H	-1.147339161	-1.7040599948	-0.7191491793	 0.116977
H	-2.1348832991	-0.3781327369	-0.0974379122	 0.118155
H	 1.3188879343	-1.6929935935	-0.5643666423	 0.071818
H	 2.5774803311	 0.3278912621	-1.0868140338	 0.28899
H	 1.9577317124	 0.9277873439	 1.9927138641	 0.133409
H	 0.4308254264	 0.7997807161	 2.8905926018	 0.108364
H	 1.704971027	-0.4065996835	 3.119698532	 0.131014
H	-0.7375960087	-1.7323465487	 2.5630883404	 0.108156
H	-0.3990654859	-2.5513224488	 1.0353790446	 0.08173
H	 1.7659381854	-2.8483121344	 1.9474648895	 0.283214
94.6756	138.4793	159.4692	170.2315	177.3264	204.8717	241.0265	265.8853	299.0383	310.5639	330.6168	337.8564	381.9333	390.3172	488.6249	544.8484	567.1905	703.6674	728.5638	861.4078	939.3958	950.9444	969.6072	1006.5928	1017.9683	1051.0432	1056.2665	1096.0179	1136.9029	1159.5679	1170.4467	1208.2944	1252.7831	1283.2689	1311.3218	1344.8586	1374.1979	1403.9856	1407.37	1418.0761	1427.5866	1455.0769	1482.3824	1490.9447	1492.0253	1502.4395	1505.9657	1512.1649	1524.3811	3010.2184	3022.6908	3027.6901	3039.4121	3055.982	3062.1089	3075.3978	3078.9547	3106.6407	3116.3373	3140.2615	3151.2156	3801.4492	3804.0055
CC1(C)C(O)C1(C)CO	CC1(C)[C@@H](O)[C@]1(C)CO	
InChI=1S/C7H14O2/c1-6(2)5(9)7(6,3)4-8/h5,8-9H,4H2,1-3H3	InChI=1S/C7H14O2/c1-6(2)5(9)7(6,3)4-8/h5,8-9H,4H2,1-3H3/t5-,7+/m1/s1
