23
gdb 86316	1.82251	1.63036	1.09646	2.4048	86.13	-0.2359	-0.0143	0.2216	1261.3331	0.204005	-388.312529	-388.302268	-388.301324	-388.348174	38.027	
C	-0.8513140709	 1.0420682208	-1.0890709924	-0.42626
C	 0.1409543836	-0.0594033174	-0.7485604471	 0.052381
C	 1.6253238695	 0.0984071932	-1.1642321318	-0.241124
C	 2.0400676584	-0.6133668377	 0.1481766964	 0.05238
C	 3.3020366221	-0.1694363945	 0.8721402802	-0.426258
C	 0.6115458914	-0.2960370212	 0.7391059573	-0.158141
C	 0.5552155179	 0.9359760693	 1.6195106088	 0.405892
C	-0.1273206349	 0.776281388	 2.9661946642	-0.483988
O	 1.0282353713	 2.0007767611	 1.2755354352	-0.324273
H	-0.5044706954	 2.0149019182	-0.7323406885	 0.142505
H	-0.9833880088	 1.1067973571	-2.1749781949	 0.112477
H	-1.8366188451	 0.8463475173	-0.6496498353	 0.105494
H	-0.2400816162	-1.0189343093	-1.1158147693	 0.07437
H	 1.9411761511	-0.3500978903	-2.1102143334	 0.086408
H	 1.9234966716	 1.150128657	-1.1459931455	 0.119051
H	 2.0788202667	-1.6953586667	-0.0208387131	 0.074367
H	 3.2948462392	 0.906655084	 1.0617248471	 0.142508
H	 3.4186767203	-0.6865902415	 1.83191502	 0.105493
H	 4.1847921275	-0.4007287092	 0.2654487415	 0.112473
H	 0.1269314186	-1.1333525398	 1.2481946422	 0.059408
H	 0.3732988134	-0.0033282659	 3.5525963972	 0.138595
H	-0.1101838242	 1.7198564443	 3.5129626723	 0.137644
H	-1.163272207	 0.4450627431	 2.826975339	 0.1386
26.7544	103.4047	158.8707	175.0003	189.2381	226.4909	245.0306	285.4038	351.8397	352.8925	426.229	431.0909	540.0495	620.4869	643.0544	752.4383	792.4127	883.9869	891.8004	901.4391	934.1929	970.1691	991.9829	1023.4604	1047.1298	1111.0672	1121.7183	1140.4914	1161.8716	1171.1581	1194.1426	1253.5356	1260.7396	1277.9576	1284.9576	1356.995	1371.1469	1381.5625	1399.211	1410.7224	1416.9053	1461.1746	1474.519	1486.4178	1492.857	1494.8659	1508.7791	1510.3512	1785.748	3026.5119	3026.9569	3029.918	3036.4299	3037.0457	3054.7511	3068.1702	3085.3233	3085.4684	3089.3339	3113.1933	3124.7904	3125.8906	3150.0968
CC1CC(C)C1C(C)=O	C[C@H]1C[C@@H](C)[C@H]1C(=O)C	
InChI=1S/C8H14O/c1-5-4-6(2)8(5)7(3)9/h5-6,8H,4H2,1-3H3	InChI=1S/C8H14O/c1-5-4-6(2)8(5)7(3)9/h5-6,8H,4H2,1-3H3/t5-,6+,8-
