18
gdb 34405	2.60905	1.54262	1.27199	3.2657	75.53	-0.2732	0.0233	0.2966	1043.686	0.149953	-401.960337	-401.952666	-401.951722	-401.992891	29.335	
N	-0.0503768374	-1.1207546944	-0.3011639595	-0.346771
C	-0.036035785	 0.0254157195	-0.1445744218	 0.205945
C	-0.022364898	 1.4607566428	 0.0486495247	 0.175826
C	-0.3971963944	 2.3268785399	-1.2006529073	-0.270189
C	 0.9790476285	 3.0398014701	-1.13556981	-0.217263
C	 1.3827587115	 2.1933509373	 0.1018597576	-0.079463
C	 1.3342209926	 2.9202204599	 1.4465131184	-0.097585
O	-0.0503145892	 3.119729428	 1.7169482328	-0.249876
C	-0.6922253843	 1.9067772717	 1.3695870658	-0.147432
H	-0.5660740772	 1.7391698576	-2.1036687724	 0.126821
H	-1.2634459166	 2.9690384279	-1.0283573736	 0.118989
H	 1.610228172	 2.8744673595	-2.0104368917	 0.11446
H	 0.9274042626	 4.1137052172	-0.9414893112	 0.113442
H	 2.2644503788	 1.5640156952	-0.0170771927	 0.097326
H	 1.7972800118	 2.3066565206	 2.2356952684	 0.101304
H	 1.8169181508	 3.9010045338	 1.4329070872	 0.118526
H	-1.7621891222	 2.1009124786	 1.2639090235	 0.125633
H	-0.5406573741	 1.1396242049	 2.1443956617	 0.110307
61.7677	154.0423	173.7368	236.8633	348.914	381.0183	504.9254	535.1677	556.4833	610.6428	697.0912	757.9448	817.7486	863.4285	900.5999	931.1839	947.6025	971.2953	1019.1883	1036.6395	1069.8768	1108.1589	1138.2457	1144.4974	1181.5504	1222.0899	1227.544	1263.88	1276.9806	1283.6063	1292.5709	1327.3606	1359.9828	1397.8927	1472.1251	1491.4739	1499.0806	1512.6932	2347.9793	2980.8745	2991.1486	3069.7302	3077.7338	3096.5788	3104.5505	3112.8422	3123.2489	3141.0114
N#CC12CCC1COC2	N#C[C@]12CC[C@H]1COC2	
InChI=1S/C7H9NO/c8-4-7-2-1-6(7)3-9-5-7/h6H,1-3,5H2	InChI=1S/C7H9NO/c8-4-7-2-1-6(7)3-9-5-7/h6H,1-3,5H2/t6-,7-/m0/s1
