12
gdb 123308	2.00149	1.90546	0.97615	2.5955	76.87	-0.2522	-0.045	0.2072	1099.3349	0.076009	-398.274594	-398.26697	-398.266026	-398.306861	28.448	
C	 0.0690852752	-1.1875031103	-0.0047101416	-0.392334
C	 0.0255720354	 0.0147855339	 0.0025442096	 0.174174
C	-0.0107491506	 1.4237530425	 0.0110441691	-0.068829
C	-1.0909633673	 2.2565700694	 0.0295852368	-0.009479
O	-0.7018670797	 3.5341542368	 0.0318869378	-0.153481
N	 0.682103407	 3.599827421	 0.0145905813	-0.205868
C	 1.0974756164	 2.348074552	 0.0021873821	 0.209986
C	 2.4759521345	 2.0289830649	-0.0172131448	 0.250171
C	 3.6385636924	 1.7247517422	-0.0338280071	-0.375902
H	 0.1084433073	-2.2487297272	-0.0109557463	 0.194794
H	-2.1539656582	 2.0751730728	 0.0421185962	 0.171874
H	 4.6682350476	 1.463753722	-0.0487850629	 0.204894
100.8285	156.1895	190.4654	196.4143	423.6231	444.6152	515.0212	517.9857	585.5235	610.7867	623.6099	638.3647	655.5739	670.6259	679.1711	763.4235	847.9589	924.3512	947.2548	1158.1154	1191.0288	1292.2292	1372.9685	1479.6854	1607.1418	2243.4486	2250.1406	3275.0174	3500.9135	3501.6024
C#CC1=CON=C1C#C	C#Cc1conc1C#C	
InChI=1S/C7H3NO/c1-3-6-5-9-8-7(6)4-2/h1-2,5H	InChI=1S/C7H3NO/c1-3-6-5-9-8-7(6)4-2/h1-2,5H
