14
gdb 29331	3.39106	1.28746	0.93317	1.713	77.03	-0.1914	0.0019	0.1933	1158.4736	0.099434	-436.681825	-436.672875	-436.671931	-436.714968	33.121	
O	 0.0971029287	 1.3823354376	-0.077259243	-0.459094
C	 0.0629600521	 0.0210716309	-0.0503477805	 0.28786
C	-0.0349260573	-0.8126095825	-1.1461412744	-0.177954
N	-0.0384169805	-2.1052935327	-0.6920455319	-0.344804
C	 0.0565823702	-2.1267989807	 0.6898986891	 0.118859
C	 0.0798725233	-3.2862007674	 1.4762709127	 0.214016
C	 0.1030671352	-4.259792885	 2.1913390435	-0.462117
C	 0.120535275	-0.7989445363	 1.098387676	 0.087297
O	 0.2213635261	-0.2921689101	 2.3567633753	-0.46302
H	 0.1708573291	 1.6874624355	 0.8337554915	 0.3058
H	-0.1010034498	-0.574855629	-2.194087523	 0.129829
H	-0.0993419162	-2.9266476237	-1.2651136838	 0.269008
H	 0.1225699501	-5.120341777	 2.8126331553	 0.190246
H	 0.245099474	-1.0253896698	 2.9825598531	 0.304074
112.1428	120.9227	221.615	248.1972	256.5432	272.3773	310.1683	383.0408	400.6406	412.5551	481.3071	516.3326	597.2773	619.5276	691.2678	696.6107	724.3273	731.2798	775.3161	1012.5101	1103.8809	1179.1356	1236.8743	1282.0595	1314.2244	1383.493	1479.9975	1514.0154	1591.5538	1662.9391	2208.5783	3280.1829	3499.9443	3705.6177	3802.5584	3817.2894
OC1=CNC(C#C)=C1O	Oc1c[nH]c(C#C)c1O	
InChI=1S/C6H5NO2/c1-2-4-6(9)5(8)3-7-4/h1,3,7-9H	InChI=1S/C6H5NO2/c1-2-4-6(9)5(8)3-7-4/h1,3,7-9H
