16
gdb 12150	3.71784	1.45057	1.12643	2.061	71.92	-0.2428	-0.0235	0.2193	1040.8755	0.127837	-346.583868	-346.57553	-346.574585	-346.616809	30.471	
C	 0.04902702	 1.6596263792	 0.0199302046	-0.414025
C	 0.1048471511	 0.1408256789	-0.0135461392	-0.088911
C	 0.7648049268	-0.6011107092	-1.2386815841	-0.194127
C	 1.5284687828	-1.5478527399	-0.2463315958	-0.353571
C	 1.126532754	-0.5834291307	 0.8787629332	 0.381745
O	 1.5258615097	-0.3900079682	 1.9898451014	-0.292686
C	-0.1177502789	-1.2074792762	-2.2118618981	 0.306387
C	-0.8661837368	-1.717360077	-3.0033245247	-0.4425
H	 1.0316344655	 2.0956915004	-0.1875711253	 0.122646
H	-0.6590934845	 2.0443169525	-0.7202122591	 0.129439
H	-0.2661643307	 2.0054032176	 1.0087394859	 0.139829
H	-0.8865548557	-0.2907518588	 0.1724505509	 0.116425
H	 1.4737754574	 0.0699403612	-1.7348481135	 0.111027
H	 1.0388804315	-2.520537002	-0.1411087031	 0.143527
H	 2.597073857	-1.7014085324	-0.409379836	 0.136177
H	-1.5216171092	-2.1662141554	-3.7079066672	 0.198617
63.2387	131.2981	181.0483	197.1011	204.9958	318.3533	416.8333	458.3361	509.8615	583.9201	623.2204	623.386	641.2866	755.4643	762.9513	876.6287	916.5716	1012.3601	1039.3141	1054.8561	1097.9271	1133.229	1156.9467	1201.8646	1223.7062	1233.3628	1319.6496	1357.2642	1406.9092	1439.815	1492.3803	1494.1696	1893.6392	2235.7729	3037.8593	3038.8726	3053.9508	3068.3517	3107.7274	3115.6783	3130.1703	3503.8875
CC1C(CC1=O)C#C	C[C@H]1[C@@H](CC1=O)C#C	
InChI=1S/C7H8O/c1-3-6-4-7(8)5(6)2/h1,5-6H,4H2,2H3	InChI=1S/C7H8O/c1-3-6-4-7(8)5(6)2/h1,5-6H,4H2,2H3/t5-,6+/m0/s1
