21
gdb 68884	2.34059	1.75231	1.32972	1.8377	81.8	-0.2359	0.0838	0.3197	1074.6967	0.181749	-387.059444	-387.050799	-387.049855	-387.092204	33.865	
C	 0.1101945628	 1.5366624673	-0.0502548999	-0.505599
C	-0.0668638396	 0.0654994565	 0.1467043375	 0.353708
O	 1.0193948828	-0.7969135558	-0.2367458815	-0.33718
C	 0.5197080719	-0.9025756792	 1.1086000307	 0.35371
C	 1.499564854	-0.7562744413	 2.2279513861	-0.505584
C	-0.7141437843	-1.8051266403	 1.0304839669	-0.09929
C	-1.8273589821	-1.4414976484	 2.0515087629	-0.234557
C	-2.4417658723	-0.4276881665	 1.04363948	-0.234552
C	-1.3404122265	-0.7714409888	 0.0030688874	-0.099266
H	 1.0807495352	 1.8660261963	 0.3307476107	 0.130006
H	 0.063308122	 1.7907335566	-1.1155394409	 0.130423
H	-0.6757935196	 2.1000001532	 0.4629364652	 0.123796
H	 2.1419816999	 0.114548194	 2.0711451299	 0.130002
H	 0.9862590289	-0.643077014	 3.1882603256	 0.123793
H	 2.1430045618	-1.6412390904	 2.2943279535	 0.130427
H	-0.5439412116	-2.8595431844	 0.8069217895	 0.070181
H	-2.4911030562	-2.2791492509	 2.2764176231	 0.104157
H	-1.478213755	-1.0281091214	 3.0021646244	 0.095745
H	-3.4445383216	-0.7058871059	 0.7121941953	 0.10415
H	-2.4751921742	 0.6167625045	 1.3669668634	 0.095738
H	-1.6513796464	-1.031479061	-1.0100616998	 0.070193
113.7156	187.5212	195.4705	195.6794	209.5252	227.3157	383.54	415.5307	474.5614	524.0061	579.7158	664.9691	704.6355	752.7014	808.3784	832.9675	837.5007	861.3977	953.4866	962.6831	972.4518	1003.5532	1027.2934	1075.5796	1086.056	1127.5961	1143.3413	1158.5299	1176.4231	1233.4002	1239.7002	1242.545	1252.1385	1280.7398	1311.2239	1319.5921	1409.9012	1411.7417	1469.8884	1474.9225	1479.5937	1490.2072	1490.8774	1498.939	1511.7646	3031.7542	3033.1943	3053.5939	3060.3392	3088.3676	3093.1223	3093.8547	3099.9295	3100.2763	3115.2568	3116.9171	3118.5143
CC12OC1(C)C1CCC21	C[C@@]12O[C@]1(C)[C@H]1CC[C@@H]21	
InChI=1S/C8H12O/c1-7-5-3-4-6(5)8(7,2)9-7/h5-6H,3-4H2,1-2H3	InChI=1S/C8H12O/c1-7-5-3-4-6(5)8(7,2)9-7/h5-6H,3-4H2,1-2H3/t5-,6+,7+,8-
