18
gdb 126937	6.47026	0.80259	0.72766	3.1185	77.05	-0.2265	0.0176	0.2441	1582.21	0.147619	-435.288931	-435.279672	-435.278728	-435.323795	32.72	
C	 0.0802734548	 1.4712602473	-0.0652858841	-0.397199
C	-0.1683328951	-0.0214973801	 0.1215907184	-0.128509
N	 0.6011381198	-0.5304639249	 1.2512490369	-0.407256
C	 0.8336796519	-1.8434528212	 1.45680504	 0.544216
N	 1.3110038557	-2.4030765042	 2.5405604724	-0.41962
C	 1.3796485882	-3.7215705612	 2.1599467489	 0.370508
C	 1.8776388943	-4.7984609383	 3.0617362048	-0.48659
N	 0.9756940339	-3.9825833499	 0.9439439296	-0.197971
O	 0.5946846732	-2.6966129396	 0.4548728865	-0.222428
H	 1.139002517	 1.6715178925	-0.2521813924	 0.135565
H	-0.5000449052	 1.8468601778	-0.9121356632	 0.131349
H	-0.2241452669	 2.0383460526	 0.8218358155	 0.121437
H	-1.2427580309	-0.2135794965	 0.2573467296	 0.115297
H	 0.1431372369	-0.5751053711	-0.767871202	 0.144628
H	 0.6426530214	 0.0308230023	 2.0879149508	 0.262419
H	 1.268163192	-4.8434277257	 3.9693418475	 0.143786
H	 1.8422063466	-5.7642299692	 2.5556474592	 0.145865
H	 2.9067527124	-4.5887633804	 3.3685479117	 0.144502
45.1811	79.8161	136.1919	143.5656	205.8926	262.3505	311.5713	341.2347	359.8597	465.3935	517.2069	667.8815	676.0295	771.5852	783.2399	815.93	892.2091	933.1638	997.8598	1041.5668	1050.979	1069.8732	1083.2827	1150.5011	1185.5608	1299.0148	1350.197	1375.8436	1399.9817	1418.5226	1437.6628	1469.0917	1474.0693	1475.5493	1494.9218	1499.5567	1524.9077	1597.4423	1680.6809	2999.0178	3038.1802	3050.7191	3090.8639	3110.4322	3112.6381	3127.4384	3149.6533	3632.861
CCNC1=NC(C)=NO1	CCNc1nc(C)no1	
InChI=1S/C5H9N3O/c1-3-6-5-7-4(2)8-9-5/h3H2,1-2H3,(H,6,7,8)	InChI=1S/C5H9N3O/c1-3-6-5-7-4(2)8-9-5/h3H2,1-2H3,(H,6,7,8)
