20
gdb 102222	2.44956	1.06651	0.79513	4.0314	80.71	-0.2375	0.0054	0.2429	1472.7028	0.169927	-436.526009	-436.51529	-436.514345	-436.563004	37.556	
C	-0.0321768169	 0.5223315416	 1.8040507818	-0.373489
C	 0.0808127888	-0.1813158507	 0.4406039292	-0.297364
C	-1.2553295908	-0.7361742489	-0.0320399361	 0.425994
N	-1.4634211753	-2.0409988486	 0.3920402377	-0.388483
C	-2.5688295491	-2.9137909343	 0.2519817233	 0.450357
N	-3.6176147437	-2.4016977397	-0.4263531357	-0.545574
O	-2.5024525963	-4.0283710319	 0.7364485257	-0.406557
N	-2.1514394913	-0.1264436873	-0.7097582374	-0.301791
C	-1.9994107255	 1.2428493366	-1.1449599308	-0.334646
H	 0.9470103636	 0.8808656442	 2.1338324285	 0.124382
H	-0.7080443313	 1.3803498491	 1.7493439727	 0.133064
H	-0.4198219756	-0.1591359697	 2.5671207622	 0.132068
H	 0.4768849545	 0.5103511242	-0.306052237	 0.126511
H	 0.8018736781	-1.0031983344	 0.5063674252	 0.111742
H	-0.7206523664	-2.491443855	 0.9020500245	 0.254822
H	-3.5431596555	-1.4596595475	-0.8015960386	 0.269943
H	-4.415323386	-2.9974623562	-0.5575746976	 0.257873
H	-2.1690849537	 1.2999884663	-2.2266702112	 0.127883
H	-2.7712281234	 1.8643506739	-0.6735846885	 0.127867
H	-1.0267360541	 1.7046200584	-0.9323864378	 0.105399
42.2901	56.3865	79.7221	99.6818	193.1092	216.7276	233.0353	253.3697	325.9329	354.9611	395.3246	422.8284	566.6938	569.3575	633.3379	695.5069	736.7986	781.9955	795.3847	841.3327	928.7566	998.5327	1075.4192	1084.4963	1107.8915	1135.3191	1152.2919	1173.3309	1249.4503	1307.0903	1346.4921	1375.354	1410.5995	1446.1983	1481.7969	1488.1477	1495.56	1497.2651	1504.9382	1521.1899	1591.6225	1733.0737	1823.0629	3004.3094	3044.1205	3051.8673	3060.129	3068.1656	3097.1197	3118.4618	3122.5534	3433.4389	3650.6068	3717.0625
CCC(NC(N)=O)=NC	CCC(=NC)NC(=O)N	
InChI=1S/C5H11N3O/c1-3-4(7-2)8-5(6)9/h3H2,1-2H3,(H3,6,7,8,9)	InChI=1S/C5H11N3O/c1-3-4(7-2)8-5(6)9/h3H2,1-2H3,(H3,6,7,8,9)
