21
gdb 89576	4.31307	0.99219	0.94244	1.4781	84.48	-0.233	0.0229	0.2559	1317.833	0.183568	-387.09101	-387.08265	-387.081706	-387.124017	33.146	
O	 1.1055138702	 0.334562935	-0.6251085937	-0.435141
C	 0.1372989598	-0.3585115624	 0.1200436405	 0.177637
C	-0.0176597888	-0.0926050309	 1.6385871004	-0.321974
C	-1.5646645158	-0.2981215104	 1.4722551593	 0.348516
C	-1.3671946947	-0.0285349371	-0.0520671554	-0.33131
C	-2.0810864318	-1.7191474506	 1.8301337329	-0.281411
C	-2.873968015	-1.5627865997	 3.1533305357	-0.263925
C	-3.1693709717	-0.0822410566	 3.1945411456	-0.072887
C	-2.4668000477	 0.5890874485	 2.2836562801	-0.138384
H	 0.9714222174	 1.2772914444	-0.4803039966	 0.274127
H	 0.3278685966	-1.4183033036	-0.0735181661	 0.093274
H	 0.5137163535	-0.7364922447	 2.3445156846	 0.099314
H	 0.2162128503	 0.9528921037	 1.8726125426	 0.085726
H	-1.5036874791	 1.0348568913	-0.2845535151	 0.08538
H	-1.9552894971	-0.6197239371	-0.7594545571	 0.097908
H	-2.761078055	-2.0590653827	 1.0415453367	 0.102795
H	-1.2773368647	-2.4573303636	 1.9025529069	 0.096648
H	-3.7783437941	-2.1814724741	 3.1725683998	 0.102984
H	-2.2810551854	-1.8631172853	 4.0286538708	 0.106413
H	-3.8470901058	 0.3613746854	 3.9159122727	 0.09132
H	-2.4807197712	 1.6659683405	 2.1456326355	 0.08299
83.0831	88.0265	221.2649	264.3982	323.0941	331.2166	389.5657	418.4952	471.6392	510.936	654.0797	713.5869	760.7374	789.5844	828.0718	851.035	885.8194	923.1333	935.2943	958.2274	974.5877	1001.6296	1014.8845	1043.9602	1079.9216	1095.0182	1096.39	1123.7201	1178.0771	1191.779	1213.6704	1235.1449	1266.2169	1277.6666	1278.3389	1311.6236	1322.5771	1336.3365	1388.2947	1437.6024	1465.2807	1481.0992	1492.1311	1500.1203	1681.8919	3009.1226	3026.9948	3034.7263	3039.6362	3055.5451	3066.0831	3088.5579	3094.6013	3100.73	3169.3846	3198.7362	3803.8574
OC1CC2(C1)CCC=C2	O[C@H]1C[C@@]2(C1)CCC=C2	
InChI=1S/C8H12O/c9-7-5-8(6-7)3-1-2-4-8/h1,3,7,9H,2,4-6H2	InChI=1S/C8H12O/c9-7-5-8(6-7)3-1-2-4-8/h1,3,7,9H,2,4-6H2/t7-,8-
