19
gdb 102128	2.34564	1.30908	0.90541	2.7748	71.59	-0.2402	0.0172	0.2574	1306.5815	0.160321	-456.388451	-456.379312	-456.378368	-456.422888	33.665	
C	-0.4564611826	 1.5694201257	 0.2329254182	-0.388282
C	 0.0380013365	 0.1229490771	 0.1533618025	-0.194831
C	 0.6268370548	-0.2439018901	-1.2069169364	-0.114579
N	 1.8771176757	 0.4450668363	-1.5391372034	-0.312774
H	 2.3667815028	 0.739524894	-0.699590097	 0.225284
C	 2.7001503504	-0.4987090534	-2.2621936896	 0.157292
N	 4.0750698888	-0.3656644145	-1.9444670342	-0.500599
C	 0.9738106975	-1.7324782829	-1.3219312482	 0.417332
O	 0.3231267768	-2.6688552497	-0.9504284158	-0.351951
O	 2.1735704703	-1.8442649766	-1.9317817736	-0.244871
H	 0.3504025039	 2.2835427399	 0.0406468962	 0.12547
H	-1.2429201063	 1.7553333319	-0.5062612299	 0.122668
H	-0.8688140686	 1.7859478756	 1.2227332627	 0.119072
H	 0.7937764066	-0.064725811	 0.9283441	 0.095716
H	-0.7801703778	-0.5771287701	 0.3496215792	 0.133578
H	-0.123974704	-0.0316332135	-1.9842752414	 0.112687
H	 2.5682156732	-0.3989068178	-3.3454252443	 0.109797
H	 4.2595110629	-0.7054850119	-1.0049212341	 0.237542
H	 4.6528735289	-0.8949026488	-2.586634931	 0.251449
61.4465	98.1908	122.1203	168.6123	227.4611	302.383	316.6215	367.8313	405.5142	513.6527	560.7572	589.5439	690.1963	700.4705	737.7125	788.5952	821.4369	872.7484	912.0091	948.4282	999.7474	1020.7777	1083.5748	1143.3849	1168.8639	1187.4126	1233.4996	1247.7947	1294.767	1299.6707	1337.7933	1369.6946	1384.5324	1417.0454	1433.5017	1478.0042	1490.8582	1499.541	1506.2464	1668.3248	1871.2312	2984.4436	3021.7047	3037.9037	3051.4741	3082.0252	3107.4383	3112.9946	3511.0507	3519.3452	3602.2931
CCC([NH+]=CN)C([O-])=O	CC[C@H]1N[C@@H](N)OC1=O	
InChI=1S/C5H10N2O2/c1-2-4(5(8)9)7-3-6/h3-4H,2H2,1H3,(H2,6,7)(H,8,9)	InChI=1S/C5H10N2O2/c1-2-3-4(8)9-5(6)7-3/h3,5,7H,2,6H2,1H3/t3-,5-/m1/s1
