19
gdb 64167	2.20091	1.47495	1.35624	2.3823	75.74	-0.2399	0.0118	0.2517	1086.1453	0.157288	-419.198864	-419.18922	-419.188275	-419.232652	36.281	
C	-0.4067348315	 1.4992066428	 0.2676029344	-0.416104
C	 0.0385780948	 0.0632112464	 0.0269199801	 0.274571
C	-1.1022208937	-0.7974541907	-0.5188547898	-0.451044
N	 1.2947484729	-0.0371861755	-0.7768531218	-0.342131
C	 1.8861130816	-1.0097480662	 0.1628898629	-0.219814
C	 0.8151507134	-0.6199483136	 1.2238383728	 0.23655
O	 1.2365263117	 0.3451977154	 2.1597669111	-0.45662
C	 0.15056825	-1.7352697247	 1.907150601	 0.229448
N	-0.3446408519	-2.6182993538	 2.465895382	-0.348778
H	 0.4142288859	 2.0990828542	 0.6589137386	 0.140793
H	-0.7361742816	 1.936487667	-0.6810588834	 0.113208
H	-1.2435825738	 1.541065723	 0.9719267919	 0.119545
H	-1.4377677475	-0.3887203347	-1.4782661836	 0.119513
H	-0.7924083837	-1.8347185133	-0.6788503215	 0.125197
H	-1.9592906192	-0.8053799036	 0.1614166107	 0.138047
H	 1.1569110828	-0.3919067585	-1.71729636	 0.217912
H	 1.8238059919	-2.0626468975	-0.1379294025	 0.112744
H	 2.9141380631	-0.7808501123	 0.463946947	 0.112304
H	 1.8238294949	-0.0798851245	 2.79508254	 0.29466
84.3422	141.1769	184.8953	199.8365	259.0694	265.1439	273.9025	329.3168	349.3425	375.3156	400.7011	465.9421	539.7386	569.306	628.5601	668.2878	754.0714	910.6908	929.6074	942.4311	961.7761	989.6409	1004.5612	1025.3226	1111.4068	1148.1697	1183.0829	1202.6897	1230.344	1260.6783	1320.4822	1356.2315	1377.9286	1402.5577	1419.9135	1476.7102	1478.1696	1498.44	1500.3016	1504.4185	2346.1556	3019.3041	3032.306	3041.9605	3070.6813	3100.9392	3106.5228	3112.6324	3156.247	3526.0048	3804.0661
CC1(C)NCC1(O)C#N	CC1(C)NC[C@]1(O)C#N	
InChI=1S/C6H10N2O/c1-5(2)6(9,3-7)4-8-5/h8-9H,4H2,1-2H3	InChI=1S/C6H10N2O/c1-5(2)6(9,3-7)4-8-5/h8-9H,4H2,1-2H3/t6-/m1/s1
