17
gdb 128774	3.56441	1.08175	0.85486	4.3278	72.49	-0.2091	0.0142	0.2233	1320.5665	0.136113	-455.128374	-455.119594	-455.11865	-455.162313	31.702	
C	 0.0380347765	 1.3732803355	 0.9588966716	-0.22707
O	 0.0281219042	-0.0259066761	 1.1361783741	-0.24382
C	 0.852556927	-0.7043622499	 0.1940232546	-0.211494
C	 0.8333394473	-2.1628488156	 0.5022668751	 0.07183
C	 0.8214410883	-2.7451168491	 1.7465568095	 0.422313
N	 0.8455089876	-2.1989471747	 3.0013726458	-0.596852
O	 0.8205770969	-4.077141907	 1.6458994184	-0.216848
N	 0.8382693845	-4.4352451118	 0.2749613814	-0.171338
C	 0.8389517181	-3.2878964018	-0.3577828573	-0.042404
H	-0.3475033947	 1.656077406	-0.0323855203	 0.112692
H	-0.609330256	 1.8050397504	 1.7256182269	 0.130019
H	 1.0506699131	 1.7919311846	 1.0667803685	 0.110586
H	 0.4896115507	-0.5236897055	-0.8305777893	 0.103114
H	 1.8738142143	-0.2867136636	 0.2474091608	 0.101971
H	 0.4674327023	-1.2607812595	 3.013644915	 0.271012
H	 0.490088238	-2.799840604	 3.7311841902	 0.263317
H	 0.845884882	-3.2975435581	-1.440158685	 0.122972
68.5066	97.6572	136.3362	227.6543	245.7769	280.0399	328.7861	363.3096	400.7839	444.3341	620.9821	633.7643	723.8984	738.7457	786.6122	888.3244	915.9458	948.3622	973.112	1028.6567	1079.7096	1138.1365	1181.5558	1201.9598	1219.3669	1252.7064	1275.3592	1346.0117	1395.1675	1454.5705	1481.811	1485.5538	1504.2385	1524.257	1552.223	1625.4185	1688.2933	2939.1799	2977.1235	2985.3032	3025.7204	3118.6109	3226.8515	3552.2284	3663.7901
COCC1=C(N)ON=C1	COCc1c(N)onc1	
InChI=1S/C5H8N2O2/c1-8-3-4-2-7-9-5(4)6/h2H,3,6H2,1H3	InChI=1S/C5H8N2O2/c1-8-3-4-2-7-9-5(4)6/h2H,3,6H2,1H3
