18
gdb 8012	2.99746	1.83264	1.59961	2.7062	62.62	-0.2486	0.0448	0.2934	881.5273	0.154758	-422.082871	-422.075049	-422.074104	-422.114719	30.743	
O	-0.4774520201	 1.2479727252	 0.6955833276	-0.447315
C	-0.0372206959	 0.0711124465	 0.0344019435	 0.148971
C	 0.882568315	-0.8090962974	 0.9260758735	-0.269902
C	 0.0396032838	-2.0446521732	 1.3646819584	 0.163198
O	 0.1684786158	-2.4208754266	 2.7153691257	-0.445722
C	-1.4074786555	-1.6795072581	 0.9687718697	 0.04548
O	-1.9038800704	-0.8612589641	 2.0488236996	-0.448825
C	-1.2237524033	-0.8617696749	-0.3090500567	-0.26121
H	-0.9860607044	 0.9460664174	 1.4596696845	 0.275701
H	 0.4763992726	 0.4216468606	-0.864264591	 0.079024
H	 1.78556804	-1.1228814054	 0.3954188907	 0.100549
H	 1.2042648399	-0.2365466596	 1.7995441636	 0.113621
H	 0.3375763089	-2.9193578849	 0.7763327995	 0.087285
H	-0.4097351695	-1.8286831646	 3.2127928105	 0.28615
H	-2.0438392904	-2.56421133	 0.8557942642	 0.073722
H	-2.8514719109	-0.7431144081	 1.9343101126	 0.297463
H	-2.1121715992	-0.2964974219	-0.605203516	 0.099309
H	-0.9616403363	-1.5384043408	-1.1322100499	 0.1025
77.9436	191.8556	266.877	282.935	358.9389	383.7088	406.4028	417.617	440.6759	546.7697	565.745	680.6838	769.7574	819.9132	821.959	847.793	952.2307	966.6255	994.6544	1011.9725	1052.0301	1090.6512	1127.3652	1152.203	1172.8076	1207.7312	1236.3654	1275.4401	1303.0629	1321.3605	1342.3268	1350.0927	1363.4445	1410.9621	1449.2502	1463.063	1471.3417	1485.5055	3031.9624	3040.8259	3054.4056	3063.1901	3081.3677	3094.4716	3113.3267	3757.069	3777.4467	3836.7361
OC1CC(O)C(O)C1	O[C@H]1C[C@@H](O)[C@@H](O)C1	
InChI=1S/C5H10O3/c6-3-1-4(7)5(8)2-3/h3-8H,1-2H2	InChI=1S/C5H10O3/c6-3-1-4(7)5(8)2-3/h3-8H,1-2H2/t3-,4+,5-
