15
gdb 46126	3.23984	1.12276	0.91302	4.932	65.45	-0.2788	0.0104	0.2892	1216.4922	0.114333	-454.009593	-454.001649	-454.000704	-454.043019	28.501	
O	-0.120904169	 0.021483239	 0.2312321606	-0.376629
C	-0.0964103083	 1.210309472	 0.1060234649	 0.479456
N	-1.1229036231	 2.0569943903	-0.2661566479	-0.360386
C	-0.7932337009	 3.4423986928	-0.0215599354	-0.003244
C	-1.3317434199	 3.9740429796	 1.3326075768	-0.352125
C	-2.7864214971	 3.8778550182	 1.4033332942	 0.256266
N	-3.9373671024	 3.7746592122	 1.4139668094	-0.295358
C	 0.7466323323	 3.3334696034	-0.0376638303	-0.102948
O	 1.0238784837	 1.9766708117	 0.3153345518	-0.236349
H	-2.0693855381	 1.7123136626	-0.2227696703	 0.278779
H	-1.1562949915	 4.0883940284	-0.8257483739	 0.119503
H	-0.893300839	 3.3977497901	 2.1552104874	 0.171207
H	-1.0333138599	 5.0201195408	 1.4649583058	 0.159609
H	 1.1448751564	 3.5370941842	-1.0372257577	 0.13178
H	 1.2350994671	 3.9912000946	 0.6849296346	 0.130439
59.562	114.2275	131.2367	186.9064	321.8942	393.0913	406.9178	500.3659	523.4304	559.8803	711.7101	757.0009	771.2697	845.8979	918.6866	940.6751	954.3649	1007.6145	1070.2521	1097.7604	1131.2768	1200.6828	1228.561	1254.4175	1277.1114	1334.9006	1387.5465	1419.6989	1422.2886	1462.2055	1516.625	1906.0445	2362.3136	3044.2456	3048.9354	3069.1587	3093.8699	3109.8147	3643.9992
O=C1NC(CC#N)CO1	O=C1N[C@@H](CC#N)CO1	
InChI=1S/C5H6N2O2/c6-2-1-4-3-9-5(8)7-4/h4H,1,3H2,(H,7,8)	InChI=1S/C5H6N2O2/c6-2-1-4-3-9-5(8)7-4/h4H,1,3H2,(H,7,8)/t4-/m0/s1
