17
gdb 70031	3.40264	1.58201	1.38546	2.4055	66.98	-0.2325	0.0674	0.2999	967.5348	0.136229	-458.920162	-458.912832	-458.911888	-458.951804	28.402	
C	-0.2008887149	 1.4647680705	 0.0729795698	-0.514607
C	 0.1270918167	 0.0127367805	-0.0357871297	 0.399528
O	-0.7753361981	-0.9412731165	 0.5372065302	-0.27863
C	 0.594344218	-0.9931304677	 0.9530021898	-0.092104
C	 1.3656860108	-1.7762626178	-0.1350184047	 0.058273
O	 0.8606659887	-3.011864806	-0.5740311452	-0.263796
C	-0.1283913748	-2.750915258	-1.5610224467	 0.038807
O	 0.1273442515	-1.466645298	-2.1163917346	-0.263304
C	 0.8737237035	-0.7348966331	-1.1779499792	-0.006653
H	 0.6799129669	 2.0792188023	-0.1393707709	 0.127048
H	-0.9824957255	 1.7374897401	-0.6446435171	 0.141231
H	-0.5614577554	 1.7022919479	 1.0773636672	 0.137288
H	 0.7953488047	-0.9021068003	 2.0147800618	 0.107287
H	 2.4416245645	-1.8520400384	 0.0354860903	 0.094235
H	-0.0324084106	-3.4988820137	-2.35644298	 0.107818
H	-1.1280432075	-2.7791325327	-1.1141912264	 0.114956
H	 1.6308965514	-0.135832719	-1.6893297544	 0.092623
127.7526	195.4274	231.7517	239.18	267.0809	342.3969	520.6203	565.3233	653.8229	717.23	738.1447	814.9455	831.0173	884.6974	896.1541	926.4835	947.779	994.1262	1016.3992	1053.9305	1076.7458	1110.7	1131.2481	1168.2485	1194.639	1200.9314	1217.2726	1253.5964	1269.2081	1329.1363	1342.1655	1405.0128	1438.9819	1456.2637	1481.0659	1493.3546	1541.103	3027.5241	3036.2662	3076.0836	3084.7213	3096.1922	3100.1722	3121.1524	3181.4659
CC12OC1C1OCOC21	C[C@]12O[C@H]1[C@H]1OCO[C@@H]21	
InChI=1S/C6H8O3/c1-6-4-3(5(6)9-6)7-2-8-4/h3-5H,2H2,1H3	InChI=1S/C6H8O3/c1-6-4-3(5(6)9-6)7-2-8-4/h3-5H,2H2,1H3/t3-,4+,5-,6+/m0/s1
