18
gdb 51478	3.66245	1.06777	1.0367	3.5123	73.99	-0.2372	0.0323	0.2695	1209.9156	0.149675	-439.097888	-439.090032	-439.089088	-439.131021	29.552	
O	-0.080508694	-0.080324523	 0.1987298976	-0.330004
C	-0.0257306579	 1.1237621049	 0.0555840446	 0.152642
N	 1.113836352	 1.8494064725	-0.0938785872	-0.293181
C	 2.4126976905	 1.2445756375	-0.0977077664	 0.04779
C	 3.527772796	 1.7373796073	-0.9861266185	-0.107967
C	 3.3778477509	 3.14059461	-1.5423898282	-0.107818
O	 2.9454509179	 3.9486028726	-0.4426082005	-0.268118
C	 3.5091736222	 3.4080305524	 0.7571251842	-0.107821
C	 3.6139730763	 1.9129399651	 0.5233884551	-0.107965
H	-0.9243708657	 1.7713519602	 0.031596701	 0.073361
H	 1.061429156	 2.8509528603	-0.2073287597	 0.264517
H	 2.3260966598	 0.1732285579	 0.0318405421	 0.138957
H	 4.1434712638	 1.0265156243	-1.5247690102	 0.100073
H	 4.3393563393	 3.4973684867	-1.9416469715	 0.105748
H	 2.6201007726	 3.2376942336	-2.3267673295	 0.116982
H	 4.5047064707	 3.834080125	 0.9535675119	 0.105749
H	 2.8431377912	 3.6918886846	 1.578512896	 0.116982
H	 4.2955023385	 1.3361543281	 1.1377044393	 0.100073
44.6223	155.255	193.8048	232.6893	265.0191	278.1117	494.2545	504.9887	645.3106	708.407	721.0782	753.9568	768.0121	841.8624	913.4089	930.7258	974.6892	987.6723	1012.1042	1029.2606	1058.0981	1085.6712	1107.077	1118.7082	1124.3096	1167.0033	1219.9673	1244.7914	1256.4273	1319.0146	1338.3742	1354.0507	1354.8026	1429.529	1435.0359	1511.2695	1521.1078	1541.9489	1800.5211	2938.2814	2990.5247	2995.4734	3072.0315	3074.4507	3177.2956	3184.6416	3208.8444	3615.0374
O=CNC1C2COCC12	O=CN[C@H]1[C@H]2COC[C@@H]12	
InChI=1S/C6H9NO2/c8-3-7-6-4-1-9-2-5(4)6/h3-6H,1-2H2,(H,7,8)	InChI=1S/C6H9NO2/c8-3-7-6-4-1-9-2-5(4)6/h3-6H,1-2H2,(H,7,8)/t4-,5+,6-
