16
gdb 126892	4.13291	1.09605	0.93134	0.3465	78.01	-0.2524	-0.0927	0.1597	1251.4834	0.124146	-434.034869	-434.026631	-434.025686	-434.068722	29.467	
C	 0.1056730805	 1.3327903488	-0.2526342274	-0.373055
C	-0.0364987656	-0.139671283	 0.1567521549	-0.145092
N	-1.425186867	-0.5794794294	 0.0790069351	-0.303745
C	-1.8898609438	-1.011399923	-1.0162799228	 0.403654
O	-1.1362110181	-1.0856715971	-2.1758006056	-0.289076
N	-1.6672395428	-1.6480127781	-3.3441903773	-0.063064
C	-2.8899523958	-2.0308894767	-3.2827608729	 0.105108
N	-3.773901507	-1.9575895953	-2.2063230404	-0.242849
C	-3.2712974206	-1.464454379	-1.1330646947	-0.003574
H	 1.1378357795	 1.6657586362	-0.1079045035	 0.119065
H	-0.1545127232	 1.4700332368	-1.3058358202	 0.131165
H	-0.5504107771	 1.9655938598	 0.3516699507	 0.127647
H	 0.6189504898	-0.7591997239	-0.468529297	 0.116162
H	 0.2804318434	-0.258569617	 1.1975218237	 0.108507
H	-3.275506619	-2.4623820917	-4.2003260164	 0.152884
H	-3.8836213631	-1.3704359874	-0.2386146363	 0.156264
47.3811	80.1333	142.7727	192.4212	274.1542	316.3859	397.8526	478.0878	560.619	592.8	638.9192	725.5567	771.8621	818.9751	902.8169	909.3336	932.2628	988.1374	999.3001	1043.967	1093.0651	1118.1143	1171.4196	1254.5527	1306.4391	1349.7731	1360.265	1369.3496	1400.6425	1490.6612	1497.5083	1516.2856	1597.3604	1677.8349	1727.0976	3021.595	3043.2627	3072.3431	3117.5089	3124.6532	3166.8026	3203.6908
CCN=C1ON=CN=C1	CCN=c1oncnc1	
InChI=1S/C5H7N3O/c1-2-7-5-3-6-4-8-9-5/h3-4H,2H2,1H3	InChI=1S/C5H7N3O/c1-2-7-5-3-6-4-8-9-5/h3-4H,2H2,1H3
