20
gdb 79181	2.52204	1.8458	1.45828	1.9637	76.35	-0.2306	0.0556	0.2862	981.6526	0.173002	-403.113156	-403.105331	-403.104387	-403.145099	31.356	
C	-0.2575437093	 1.583530146	-0.0060315041	-0.390484
C	 0.0114666946	 0.0754445049	-0.0139764499	-0.061273
C	 0.7692227327	-0.4291080842	-1.2332565919	-0.021565
C	 2.2025146111	-0.1021723254	-1.453888408	-0.041503
C	 2.9326839947	 0.2945881318	-0.1783387235	-0.249321
C	 2.1908417867	-0.8925304701	 0.4805736903	-0.002772
C	 0.8969684102	-0.4604523936	 1.1664937897	 0.104718
O	 1.2069824963	 0.477149719	 2.1825106936	-0.424839
N	 1.7882663659	-1.4494945714	-0.8832946075	-0.168417
H	 0.6649024506	 2.1654314609	-0.0580514746	 0.131366
H	-0.8799981789	 1.8595428145	-0.8635515838	 0.113445
H	-0.792977542	 1.8896535574	 0.8988152539	 0.099487
H	-0.9567001277	-0.4391139765	 0.0136905333	 0.074109
H	 0.2002848102	-0.6775785626	-2.1251778864	 0.08678
H	 2.6079758762	-0.0242814258	-2.4588699359	 0.087944
H	 4.0030388089	 0.0952788075	-0.2639141513	 0.109006
H	 2.7866809949	 1.2921421917	 0.2411080841	 0.1149
H	 2.7912819415	-1.5886269023	 1.0648201646	 0.078752
H	 0.4115536134	-1.3458276045	 1.6020717603	 0.072889
H	 0.4079424799	 0.6539720627	 2.6877066669	 0.286777
104.2875	201.9536	228.2943	264.6488	273.3668	306.3997	445.9852	495.3059	540.322	633.3452	678.5506	761.0754	778.68	796.2632	835.3938	848.2881	942.6293	951.3001	980.5319	1011.9137	1026.0399	1055.8419	1075.6404	1082.9876	1097.2069	1133.92	1145.653	1154.9454	1195.2093	1209.2432	1257.0681	1266.8599	1292.5655	1320.9121	1347.9698	1360.6528	1380.1465	1405.6542	1423.325	1430.6676	1491.2558	1493.7585	1507.3054	2987.2649	3025.4806	3039.3834	3068.573	3096.4578	3114.0828	3122.8575	3130.0972	3140.5178	3152.9242	3828.1543
CC1C2C3CC(C1O)N23	C[C@H]1[C@H]2[C@H]3C[C@@H]([C@H]1O)N23	
InChI=1S/C7H11NO/c1-3-6-4-2-5(7(3)9)8(4)6/h3-7,9H,2H2,1H3	InChI=1S/C7H11NO/c1-3-6-4-2-5(7(3)9)8(4)6/h3-7,9H,2H2,1H3/t3-,4+,5-,6-,7-,8?/m0/s1
