14
gdb 12154	3.56943	1.567	1.21563	3.0243	64.27	-0.2899	-0.0136	0.2763	967.6324	0.106938	-378.731942	-378.724342	-378.723397	-378.764178	27.069	
C	-0.1773085373	 1.4445846134	-0.0266014797	-0.412733
C	 0.0342684346	-0.0591043989	 0.0690500139	-0.147833
C	 0.9143974743	-0.7520702637	-1.0156423672	-0.019222
O	 1.8383549793	-1.2089706875	 0.0159527611	-0.255575
C	 1.1174240128	-0.5558147376	 1.0086993102	 0.449561
N	 1.3442392052	-0.4300829793	 2.2300952449	-0.531923
C	 0.3186760109	-1.8538552551	-1.7621787142	 0.284152
N	-0.1754754244	-2.7085862151	-2.3620482455	-0.307743
H	 0.7658441031	 1.968297979	-0.2096257895	 0.131918
H	-0.875087282	 1.6912761084	-0.8320751544	 0.134883
H	-0.5913701567	 1.8179418459	 0.9135737434	 0.155113
H	-0.9114665766	-0.5836551452	 0.2257967802	 0.137519
H	 1.4162280057	-0.0628656028	-1.7011160102	 0.141506
H	 2.2018679811	-0.9034596215	 2.5171660771	 0.240378
78.6626	147.5998	207.9546	218.7067	229.1385	339.8665	433.5586	507.3842	567.9072	648.1614	728.7871	819.9773	865.694	870.9458	945.9012	999.1445	1039.4112	1075.1548	1102.9757	1126.9837	1196.5826	1244.1531	1276.5819	1344.2013	1372.9651	1412.4115	1493.3995	1495.9502	1842.8542	2363.6644	3044.5719	3074.549	3089.3513	3118.9359	3127.3651	3489.0198
CC1C(OC1=N)C#N	C[C@H]1[C@@H](O[C]1[NH])C#N	
InChI=1S/C5H6N2O/c1-3-4(2-6)8-5(3)7/h3-4,7H,1H3	InChI=1S/C5H6N2O/c1-3-4(2-6)8-5(3)7/h3-4,7H,1H3/t3-,4-/m0/s1
