25
gdb 100789	2.98962	0.95656	0.77222	1.0528	89.7	-0.2462	0.0885	0.3347	1578.3727	0.226518	-389.474881	-389.463807	-389.462863	-389.511381	40.605	
C	 0.0958660773	 1.3462244586	 0.134518454	-0.236385
O	-0.0691640703	-0.0367895851	-0.0610970628	-0.247543
C	 0.6436781351	-0.5807174208	-1.1700733017	 0.143205
C	 2.1237671174	-0.7633707085	-0.8249550091	-0.40395
C	-0.076614834	-1.8901709551	-1.552306607	-0.003048
C	-1.5549626769	-1.6207905818	-1.8742046475	-0.397053
C	 0.6006881954	-2.5993397319	-2.7140299872	 0.035762
C	 1.683329088	-3.629831494	-2.5068586981	-0.272036
C	 0.3166078472	-4.0568064326	-2.9791714664	-0.281068
H	 1.1248871109	 1.6199866037	 0.4109705022	 0.104326
H	-0.1811675417	 1.9210910476	-0.7635994154	 0.10122
H	-0.5669547466	 1.6368634066	 0.9540469313	 0.124203
H	 0.5582987098	 0.1175837073	-2.0226690065	 0.055677
H	 2.2360592747	-1.4674068523	 0.0057412276	 0.117364
H	 2.6835821035	-1.145097169	-1.6815347772	 0.124313
H	 2.5764102064	 0.1870039278	-0.5274130466	 0.1099
H	-0.0282837595	-2.5473278164	-0.6719583784	 0.072278
H	-2.0814719547	-2.5563018516	-2.0841103678	 0.108145
H	-2.0480207298	-1.1163929127	-1.041797399	 0.127458
H	-1.6482845937	-0.9830481312	-2.7620168558	 0.102181
H	 0.7062009972	-1.9804498931	-3.6038440471	 0.076037
H	 2.5085036958	-3.6655522884	-3.2102123256	 0.107952
H	 1.9625451021	-3.8732774223	-1.4871587095	 0.111855
H	-0.3180631944	-4.5828341272	-2.2729664085	 0.110963
H	 0.2024628406	-4.3860208176	-4.006009878	 0.108245
51.9765	67.3096	98.8224	151.7902	192.7448	214.1448	227.9052	248.1828	283.2159	319.2761	352.9567	382.3625	453.7489	514.3392	516.5576	767.5094	820.3205	822.9957	834.3287	895.0676	929.9066	954.2075	979.0878	1010.7786	1035.2567	1060.9014	1079.8076	1101.746	1130.5377	1141.7938	1143.1358	1180.9938	1190.0739	1198.3571	1199.644	1226.5069	1233.5034	1286.8297	1322.9364	1369.522	1383.313	1399.3551	1404.7981	1418.2743	1470.0409	1477.6678	1482.791	1491.7398	1493.9394	1501.5534	1504.8058	1508.8445	1512.4236	2934.2459	2973.0425	3005.2243	3019.5225	3031.2907	3044.5419	3097.2344	3105.1627	3109.8778	3115.7898	3127.4354	3130.4725	3132.7736	3138.6128	3204.4514	3219.6914
COC(C)C(C)C1CC1	CO[C@@H](C)[C@@H](C)C1CC1	
InChI=1S/C8H16O/c1-6(7(2)9-3)8-4-5-8/h6-8H,4-5H2,1-3H3	InChI=1S/C8H16O/c1-6(7(2)9-3)8-4-5-8/h6-8H,4-5H2,1-3H3/t6-,7+/m1/s1
