14
gdb 77792	2.66593	1.45872	1.11511	2.2333	72.52	-0.2579	-0.0141	0.2438	1071.1604	0.098865	-436.609826	-436.601856	-436.600911	-436.64225	30.454	
O	 0.0556550873	 1.4194508245	 0.0697373955	-0.415707
C	 0.0234425676	 0.0417531447	 0.0845402839	 0.08175
C	-0.3616748797	-0.820296126	 1.2949147293	-0.308712
C	-1.5276047565	-0.1869537099	 1.9639704465	 0.443534
N	-1.8397783962	 0.0780764356	 3.1444484086	-0.545935
O	-2.2520376359	 0.0108771691	 0.775459051	-0.316475
C	-1.2455548659	-0.7444179759	 0.0244950009	 0.202052
C	-1.6703577825	-1.7118911623	-0.9157090584	 0.216742
C	-2.0127470554	-2.5267693082	-1.7312392683	-0.380077
H	-0.829950972	 1.7370489606	 0.2905074437	 0.305538
H	 0.8496533431	-0.3793752549	-0.4801586623	 0.13899
H	 0.2539915765	-1.6196389164	 1.680634918	 0.136984
H	-2.7650705535	 0.505380527	 3.205104774	 0.237579
H	-2.3190610669	-3.248488948	-2.4481880024	 0.203736
105.5258	153.9999	161.3133	246.0506	370.8366	390.9807	414.2141	484.3321	507.3801	527.7203	596.6673	686.6642	699.8316	710.2212	722.6083	834.8843	868.7428	909.3989	929.6466	958.6119	993.0029	1045.4567	1096.8302	1163.6273	1186.8296	1248.7631	1312.0333	1360.5819	1464.5626	1841.7104	2238.7415	3175.0607	3233.3719	3486.5711	3498.2105	3771.5242
OC1C2C(=N)OC12C#C	O[C@H]1[C@H]2[C]([NH])O[C@@]12C#C	
InChI=1S/C6H5NO2/c1-2-6-3(4(6)8)5(7)9-6/h1,3-4,7-8H	InChI=1S/C6H5NO2/c1-2-6-3(4(6)8)5(7)9-6/h1,3-4,7-8H/t3-,4-,6+/m0/s1
