21
gdb 61616	3.3259	0.82018	0.7185	1.3182	85.27	-0.2559	0.0348	0.2907	1622.0655	0.179763	-387.038675	-387.02826	-387.027316	-387.074702	38.26	
C	 0.0076452147	 1.530887474	-0.2224740042	-0.403341
C	 0.0111369771	 0.0310850629	-0.0167313397	-0.020978
C	 1.2915244259	-0.7651715474	-0.0713298356	-0.272609
C	 0.5494865842	-0.631604396	 1.2356352465	 0.0189
C	 1.1243684637	 0.1481203538	 2.3980836966	-0.222365
C	 2.0346721499	-0.7162346466	 3.2993434107	-0.060452
O	 3.1434105139	-1.2659989315	 2.5945491307	-0.409319
C	 2.470894397	 0.0389942579	 4.4791269272	 0.295737
C	 2.853307561	 0.6940826865	 5.4121527172	-0.44177
H	 0.9184192155	 2.0004621384	 0.1602311472	 0.113621
H	-0.0575011137	 1.773030176	-1.2890607296	 0.116728
H	-0.8451150891	 2.004604702	 0.2772494609	 0.115375
H	-0.8599563241	-0.4629539133	-0.4406116547	 0.081307
H	 1.3018047179	-1.7265717891	-0.5727190612	 0.108917
H	 2.2188937504	-0.2093525431	-0.1705425035	 0.099423
H	 0.0011435501	-1.5176427968	 1.5501625594	 0.078688
H	 1.7074420134	 1.0083607709	 2.0499097271	 0.095345
H	 0.3200023893	 0.5533930242	 3.0251031881	 0.108948
H	 1.461184945	-1.5912028106	 3.6312372448	 0.116924
H	 3.7627505008	-0.5474105766	 2.4251310471	 0.28308
H	 3.1872067672	 1.2538900344	 6.250699525	 0.197844
36.3831	89.302	99.2393	172.5752	196.5202	220.9595	245.7935	297.6614	309.4891	385.3656	439.7121	471.5461	566.6548	574.139	632.6938	670.7954	762.2908	825.3355	834.9899	875.283	902.9224	939.606	970.5903	1009.851	1056.9101	1084.7136	1090.9278	1110.8003	1137.1168	1149.765	1197.8506	1228.2083	1249.8964	1276.3631	1322.5104	1355.6246	1394.2314	1416.7284	1422.6352	1433.7398	1474.8562	1493.872	1495.24	1507.3369	2230.5291	3024.9615	3029.8942	3031.756	3070.4547	3085.4781	3103.0427	3118.082	3128.4194	3135.3018	3211.0888	3503.0054	3805.6302
CC1CC1CC(O)C#C	C[C@H]1C[C@H]1C[C@@H](O)C#C	
InChI=1S/C8H12O/c1-3-8(9)5-7-4-6(7)2/h1,6-9H,4-5H2,2H3	InChI=1S/C8H12O/c1-3-8(9)5-7-4-6(7)2/h1,6-9H,4-5H2,2H3/t6-,7-,8-/m0/s1
