21
gdb 112038	2.26126	1.37311	1.06536	2.1847	79.47	-0.2349	0.0265	0.2615	1221.7806	0.181407	-424.230416	-424.220903	-424.219959	-424.264248	36.654	
C	-0.0320081559	 1.5734531462	-0.1253919864	-0.43588
C	 0.0268146972	 0.0448317979	-0.0081436435	 0.348385
O	-1.2946579513	-0.4880904804	 0.0487769609	-0.479484
C	 0.8781495207	-0.5429267423	-1.1769149752	-0.312322
C	 2.2394433872	-0.7367810508	-0.5563602122	-0.081076
C	 2.182908555	-0.681979266	 0.7734070247	-0.065445
C	 0.7746665871	-0.4487675538	 1.2662507368	-0.013209
C	 0.6648170225	 0.4349932562	 2.50461263	-0.117543
O	 1.2866344804	-0.2706668167	 3.5724420408	-0.425764
H	 0.9718585511	 2.0084714098	-0.139155499	 0.126029
H	-0.5250926695	 1.8551200875	-1.0640233132	 0.101238
H	-0.5987430903	 2.0165714797	 0.6976374647	 0.121504
H	-1.7971133126	-0.1167221526	-0.6841279547	 0.272812
H	 0.443994249	-1.5009169377	-1.4939244046	 0.110384
H	 0.8869746262	 0.1124811243	-2.0567422212	 0.089398
H	 3.1309156439	-0.9337869193	-1.1417623533	 0.089332
H	 3.0103720164	-0.8245034893	 1.4577905273	 0.102916
H	 0.322709361	-1.41210771	 1.543129025	 0.104223
H	 1.1607833783	 1.4028451927	 2.3363995187	 0.08293
H	-0.396399047	 0.6307027701	 2.7228282743	 0.096051
H	 1.2637398705	 0.2883501546	 4.3543371701	 0.285523
81.6603	122.3867	192.0164	236.3407	274.9852	288.4577	294.4422	323.819	329.1164	360.6262	439.9346	511.836	529.1868	589.7016	722.5905	751.6412	801.9815	875.7983	925.3784	960.049	972.8306	980.3799	992.3386	1042.6503	1079.776	1095.2507	1108.6318	1125.198	1141.9729	1178.9814	1204.1739	1251.2015	1262.4003	1289.0547	1311.466	1339.1219	1369.191	1392.5723	1405.3893	1456.3892	1481.7809	1496.4376	1500.9587	1525.1615	1683.3063	2973.6372	2999.3004	3011.6579	3017.1582	3026.4398	3047.3506	3092.9174	3122.4305	3184.8975	3217.0365	3806.0578	3831.1288
CC1(O)CC=CC1CO	C[C@@]1(O)CC=C[C@H]1CO	
InChI=1S/C7H12O2/c1-7(9)4-2-3-6(7)5-8/h2-3,6,8-9H,4-5H2,1H3	InChI=1S/C7H12O2/c1-7(9)4-2-3-6(7)5-8/h2-3,6,8-9H,4-5H2,1H3/t6-,7+/m0/s1
