20
gdb 111579	3.24178	1.43861	1.31764	0.4666	77.56	-0.2099	0.0687	0.2786	1063.0502	0.172124	-403.076213	-403.068591	-403.067647	-403.108398	30.211	
C	 0.0920750961	 1.539915263	 0.4843942189	-0.378232
C	 0.0494531801	 0.112291329	-0.0719233184	-0.210716
C	-1.3084435079	-0.5456424613	 0.0901586998	 0.056097
C	-1.4932512958	-2.0478403859	-0.1960524843	 0.058446
O	-0.4863260926	-2.8509392403	 0.4701603826	-0.306927
C	-1.1863566076	-2.7572412811	 1.7355100119	 0.094841
C	-0.9314223976	-1.4039471178	 2.4128996111	-0.190855
N	-1.9003987024	-0.7071429681	 1.4859319163	-0.18687
C	-2.4020680512	-2.0908592558	 1.0504597085	-0.045975
H	 1.0830702253	 1.9842251057	 0.3515502936	 0.11156
H	-0.6351897154	 2.1827151073	-0.0231082916	 0.116152
H	-0.1478322438	 1.5572928265	 1.5517490013	 0.130287
H	 0.2870934407	 0.122829083	-1.1439630385	 0.098245
H	 0.8183813493	-0.5099192215	 0.3970342064	 0.112074
H	-2.0624954702	 0.0152515061	-0.4798166633	 0.080474
H	-1.7069575894	-2.4098078087	-1.2048408668	 0.075967
H	-1.1546786447	-3.6938963545	 2.2966952154	 0.080001
H	-1.3375270775	-1.3667240588	 3.4299375058	 0.109333
H	 0.0940819385	-1.0275696546	 2.4214929658	 0.113136
H	-3.4576285938	-2.3434384621	 1.1223419355	 0.082961
84.6964	146.2646	189.7525	256.1237	310.5465	409.2086	475.9496	544.918	693.7743	700.0801	757.6098	795.91	834.4696	836.2643	868.2338	874.3624	929.8995	963.3974	968.4239	997.7558	1005.9702	1012.1486	1072.3678	1077.169	1130.9844	1159.7792	1175.918	1185.1574	1199.98	1214.7856	1258.2136	1273.7957	1279.7901	1286.789	1303.9825	1334.0982	1348.4781	1400.4997	1413.6078	1473.195	1495.2382	1498.1529	1509.1972	3006.1549	3026.5434	3036.9251	3040.1456	3072.7274	3076.1367	3082.8139	3104.233	3108.9965	3112.7051	3139.2567
CCC1C2OC3CN1C23	CC[C@H]1[C@H]2O[C@H]3CN1[C@@H]23	
InChI=1S/C7H11NO/c1-2-4-7-6-5(9-7)3-8(4)6/h4-7H,2-3H2,1H3	InChI=1S/C7H11NO/c1-2-4-7-6-5(9-7)3-8(4)6/h4-7H,2-3H2,1H3/t4-,5-,6+,7+/m0/s1
