20
gdb 110669	3.56989	1.32413	1.15312	2.1535	78.07	-0.2326	0.0885	0.3211	1130.2603	0.172619	-403.097997	-403.090281	-403.089337	-403.130239	30.234	
C	-0.1952396647	 1.3071789361	-0.0969652057	-0.240462
O	 0.2670414763	-0.0148703546	 0.0658345582	-0.253376
C	 0.8149623716	-0.5670231108	-1.1060951762	 0.134446
C	 1.2620269499	-1.9986879005	-0.7959418207	-0.073909
C	 0.0603210382	-2.5618213696	-1.4832567187	-0.053792
C	-0.2455564921	-1.1627515586	-2.0965649204	-0.093569
C	 0.3393327417	-1.2373584001	-3.5090903207	-0.23003
C	 1.5939200879	-2.123617292	-3.2850190876	-0.157851
N	 1.3924777691	-2.832291951	-1.9991814432	-0.103206
H	 0.6121544102	 1.9809552669	-0.423929894	 0.105638
H	-1.0157007713	 1.3759524853	-0.8269708785	 0.105295
H	-0.5634415642	 1.6428100541	 0.8754046501	 0.128791
H	 1.552595287	 0.1279350476	-1.5419455461	 0.053231
H	 1.7800662659	-2.3071034613	 0.1055563725	 0.094701
H	-0.6171365421	-3.3651091932	-1.2210068588	 0.090733
H	-1.2500962695	-0.7506355134	-2.0075500966	 0.07524
H	-0.3630234638	-1.714089056	-4.2012918696	 0.101717
H	 0.590026985	-0.2506405412	-3.9120401661	 0.099135
H	 1.7139351246	-2.8730743075	-4.0722421305	 0.1088
H	 2.5186251803	-1.5400133603	-3.2428098876	 0.108469
105.6682	141.3332	186.3585	233.0432	300.0329	369.0581	433.1231	485.8111	647.3014	716.72	775.0596	827.5012	840.897	867.6072	886.5063	920.0863	929.5321	971.6742	997.6906	1008.5562	1019.0902	1044.6681	1077.1614	1096.477	1154.5741	1165.3733	1183.5814	1197.754	1212.295	1222.8731	1236.8545	1240.6955	1268.1441	1289.2311	1323.7592	1327.2406	1366.1411	1392.384	1480.8436	1488.4936	1489.2581	1509.3789	1511.9005	2951.8141	2976.7893	3022.6238	3040.0388	3054.9486	3079.9922	3100.6186	3115.7703	3124.9405	3171.2434	3190.3457
COC1C2C3C1CCN23	CO[C@H]1[C@H]2[C@H]3[C@@H]1CCN23	
InChI=1S/C7H11NO/c1-9-7-4-2-3-8-5(4)6(7)8/h4-7H,2-3H2,1H3	InChI=1S/C7H11NO/c1-9-7-4-2-3-8-5(4)6(7)8/h4-7H,2-3H2,1H3/t4-,5+,6+,7+,8?/m0/s1
