17
gdb 52288	4.04381	0.80359	0.70032	4.1977	70.54	-0.2399	-0.0367	0.2032	1553.9503	0.132255	-458.959378	-458.950022	-458.949077	-458.995437	31.962	
O	-0.2391009311	 0.3365638716	 0.6892197295	-0.235704
C	 0.1660034759	 1.0235089982	-0.2095219876	 0.140698
C	 1.2481634675	 2.0743480672	-0.0395930809	-0.164821
O	 1.5503004962	 2.5965974974	-1.3196662515	-0.259478
C	 2.5445510983	 3.5782760892	-1.3101319487	 0.055334
C	 2.8724907897	 4.222572848	-2.683681678	-0.273018
C	 2.8811948868	 5.6379835873	-2.0282692465	-0.340899
C	 2.1765504871	 5.0026242229	-0.8173744705	 0.370464
O	 1.4712952454	 5.4129380383	 0.0581287984	-0.291602
H	-0.2247612782	 0.948253814	-1.248319633	 0.096781
H	 0.887268861	 2.8576397479	 0.641444238	 0.158386
H	 2.1306892992	 1.6071770899	 0.4273937393	 0.123455
H	 3.4574848101	 3.2247423847	-0.7998744371	 0.091734
H	 3.791636011	 3.8909648525	-3.1656867755	 0.11789
H	 2.0316560591	 4.0942548866	-3.3680265655	 0.133273
H	 3.8844548564	 5.994534862	-1.7745135383	 0.137843
H	 2.3398815755	 6.4429295923	-2.5289563123	 0.139664
46.428	55.2197	83.6243	105.951	153.2494	213.4335	329.5573	343.3954	442.0976	550.4418	574.5384	685.0189	738.8919	745.8067	769.5284	917.9865	934.4171	1008.542	1040.1306	1054.7491	1077.6391	1113.6085	1120.4796	1183.3806	1195.5148	1228.0098	1237.8653	1253.0689	1263.0391	1337.518	1383.3269	1416.0052	1444.2408	1480.8752	1487.5703	1846.3773	1886.6895	2898.2874	2955.1951	2981.0292	3039.8695	3064.8796	3088.8335	3125.1563	3151.7466
O=CCOC1CCC1=O	O=CCO[C@H]1CCC1=O	
InChI=1S/C6H8O3/c7-3-4-9-6-2-1-5(6)8/h3,6H,1-2,4H2	InChI=1S/C6H8O3/c7-3-4-9-6-2-1-5(6)8/h3,6H,1-2,4H2/t6-/m0/s1
