13
gdb 129297	2.38486	1.95572	1.31099	3.9937	71.02	-0.2737	-0.1037	0.1699	938.1848	0.089307	-448.866112	-448.858725	-448.857781	-448.898855	26.771	
N	-0.1513635833	 1.3979414827	-0.0284914181	-0.460666
C	-0.0581828073	 0.1533547531	 0.0950051453	 0.379108
O	 1.1960122175	-0.4460539428	 0.2769545463	-0.260259
N	 1.4494429392	-1.6538890394	 0.8844663171	-0.042588
C	 0.5710412129	-2.2611098709	 1.598729648	 0.024284
C	-0.8399661472	-1.982881653	 1.8990038854	-0.017824
N	-1.6777270277	-1.3312168017	 1.1901743858	-0.224563
C	-1.2433357062	-0.7635057605	-0.0195201008	 0.288223
N	-1.809584545	-0.9301831716	-1.1394770551	-0.455411
H	 0.7563939536	 1.8512722628	 0.0978952329	 0.243579
H	 0.986857393	-3.1483498728	 2.0736855134	 0.148571
H	-1.2112804389	-2.4451269422	 2.8154504845	 0.141616
H	-2.6199213906	-1.5469339239	-1.0273981747	 0.235933
47.1888	88.6687	241.1071	300.6658	335.4732	405.3785	446.5399	544.6104	613.0547	680.8786	765.9195	793.5095	866.8772	882.7043	911.0448	925.9468	954.7288	966.2954	1000.0386	1013.4675	1063.5953	1230.4465	1333.8439	1371.3253	1418.7496	1620.7016	1700.0308	1720.7419	1781.8243	3116.6118	3152.9303	3437.4142	3468.7605
N=C1ON=CC=NC1=N	[NH][C]1ON=CC=N[C]1[NH]	
InChI=1S/C4H4N4O/c5-3-4(6)9-8-2-1-7-3/h1-2,5-6H	InChI=1S/C4H4N4O/c5-3-4(6)9-8-2-1-7-3/h1-2,5-6H
