21
gdb 86073	2.05121	1.79908	1.15563	1.5371	86.41	-0.2215	0.0206	0.2421	1147.5868	0.183056	-387.080237	-387.071647	-387.070703	-387.113082	33.798	
C	-0.0089912644	 1.4527147273	-0.0983871953	-0.497445
C	 0.0144186746	-0.034896167	 0.054177376	 0.111105
C	-1.0002742095	-0.8930742326	 0.1702269311	 0.237977
C	-2.4406082111	-1.1718785377	-0.2056971537	-0.326594
C	-1.9124114496	-2.5569296187	-0.743403085	-0.247617
C	-0.594846338	-2.336277143	 0.076345672	-0.049196
C	 0.8421722969	-2.2537566781	-0.5054112583	 0.093569
O	 0.8783720562	-2.3048390046	-1.9224944959	-0.42841
C	 1.3098368282	-0.858200794	 0.0216594619	-0.31835
H	 0.4844854119	 1.9485017466	 0.7478985921	 0.128273
H	 0.5298189198	 1.7739015763	-0.9993560242	 0.119961
H	-1.032365405	 1.8345965257	-0.1554419584	 0.122117
H	-3.1022056965	-1.3043881091	 0.6573784018	 0.11063
H	-2.9258256622	-0.4934217632	-0.9130866603	 0.104938
H	-2.5094087766	-3.4379570025	-0.4979748766	 0.100312
H	-1.7248710409	-2.5388187408	-1.8190871914	 0.107598
H	-0.6106970533	-2.8838091194	 1.0265909563	 0.071126
H	 1.4931105185	-3.0679200746	-0.1749831887	 0.077834
H	 0.388649856	-1.5397516384	-2.2466449626	 0.27705
H	 2.0678323811	-0.4337333209	-0.6472039983	 0.102271
H	 1.773095994	-0.9411999513	 1.0150633575	 0.102852
112.0305	147.4227	175.7981	208.1391	256.7884	317.5895	370.9378	389.543	455.755	520.1053	590.7122	652.1442	704.4531	738.2873	790.4484	848.4617	884.2794	892.4094	922.8274	956.8373	990.4619	1009.8011	1043.1263	1077.5793	1091.0255	1115.0308	1128.8344	1169.3676	1189.2936	1205.4998	1220.7252	1237.6401	1254.5948	1265.1065	1284.216	1321.078	1339.7881	1412.4395	1431.7999	1474.1417	1475.3605	1480.0979	1487.8032	1492.4463	1758.4784	3007.1348	3012.7937	3026.8679	3040.5694	3055.3559	3061.0897	3069.2782	3078.5095	3089.5065	3104.9353	3129.6791	3785.6713
CC1=C2CCC2C(O)C1	C[C]1[C]2CC[C@H]2[C@@H](O)C1	
InChI=1S/C8H12O/c1-5-4-8(9)7-3-2-6(5)7/h7-9H,2-4H2,1H3	InChI=1S/C8H12O/c1-5-4-8(9)7-3-2-6(5)7/h7-9H,2-4H2,1H3/t7-,8+/m1/s1
