21
gdb 100181	1.96957	1.4177	1.04211	3.7711	74.7	-0.2481	-0.031	0.217	1244.1579	0.178795	-461.368024	-461.357139	-461.356195	-461.403617	39.452	
C	-0.0878257675	 1.6318314742	-0.0798517354	-0.407281
C	-0.0227969436	 0.1090603776	-0.0015527519	 0.106755
O	 0.5855639242	-0.331437191	-1.2027551669	-0.446125
C	 0.7351185807	-0.4539380764	 1.2408634258	 0.126486
C	 2.2328609625	-0.0730694833	 1.2303499854	-0.424401
C	 0.0742118384	 0.0189583804	 2.55093306	-0.123385
O	 0.7554665548	-0.5765281822	 3.6472875012	-0.423254
C	 0.6811492752	-1.9806092234	 1.216259675	 0.149133
O	 0.3914115872	-2.6541658243	 0.2520222726	-0.287407
H	 0.9128037612	 2.0728629211	-0.08713877	 0.12516
H	-0.5809936969	 1.9089694269	-1.0150425436	 0.130559
H	-0.6579591697	 2.0637710828	 0.7468185544	 0.110569
H	-1.0551602906	-0.2764913953	 0.0558493423	 0.066316
H	 0.5227666822	-1.2972032326	-1.1851483621	 0.293107
H	 2.3571929818	 0.9913551017	 1.4515406023	 0.120877
H	 2.786635039	-0.6298207435	 1.9901741142	 0.131674
H	 2.6578424693	-0.2765948663	 0.2456289488	 0.141509
H	 0.133666388	 1.1147172199	 2.6055363557	 0.101147
H	-0.9929843733	-0.2567903316	 2.5506195298	 0.095371
H	 0.3236962958	-0.2985066607	 4.4599775865	 0.294165
H	 0.9527152015	-2.463497874	 2.1747363657	 0.119027
81.2589	93.6382	108.1573	190.367	203.1569	228.9942	239.662	254.4403	287.5555	316.2319	341.9216	364.831	387.9252	459.1258	580.8429	619.4149	638.8159	729.8328	894.1215	915.6323	934.3243	970.6714	985.9024	1053.122	1065.2367	1079.3078	1147.6832	1172.5093	1194.2776	1201.0203	1275.5505	1295.302	1319.6487	1376.5157	1393.2722	1399.8443	1416.9961	1450.6042	1453.5572	1487.9523	1489.8559	1496.0449	1505.8828	1524.7473	1796.9534	2948.9611	2955.9989	2969.5312	3018.1266	3045.3601	3051.7832	3113.6114	3124.3064	3125.9657	3142.2604	3727.3827	3836.1335
CC(O)C(C)(CO)C=O	C[C@@H](O)[C@@](C)(CO)C=O	
InChI=1S/C6H12O3/c1-5(9)6(2,3-7)4-8/h3,5,8-9H,4H2,1-2H3	InChI=1S/C6H12O3/c1-5(9)6(2,3-7)4-8/h3,5,8-9H,4H2,1-2H3/t5-,6-/m1/s1
