23
gdb 116905	4.28015	0.56632	0.5475	0.1523	97.87	-0.2242	0.0602	0.2843	2184.7989	0.203713	-351.131473	-351.120548	-351.119604	-351.170192	39.248	
C	-0.1081923265	 1.5785291406	 0.2305407289	-0.381196
C	-0.1562563196	 0.0581974741	 0.3941140478	-0.150454
C	-1.2401241084	-0.5946442661	-0.4882373607	-0.338967
C	-1.3064991917	-2.045682412	-0.351944604	 0.025895
C	-1.343315386	-3.2433544194	-0.2139821495	 0.062666
C	-1.3738095164	-4.678413594	-0.0858267184	 0.187885
C	-0.6080331544	-5.4397292357	-1.1583014446	-0.45539
C	-1.4030956855	-5.2601991869	 1.3206037082	-0.287135
C	-2.6418761456	-5.3099051526	 0.4714549463	-0.286959
H	 0.6661979882	 2.0209511264	 0.8644296831	 0.113242
H	 0.1091870558	 1.8602515968	-0.8059573275	 0.114732
H	-1.0646657384	 2.0384120136	 0.5037293587	 0.114544
H	 0.815774165	-0.3799922866	 0.1414528847	 0.107016
H	-0.3483203239	-0.2030178494	 1.4408800944	 0.105958
H	-2.2172421149	-0.1558552913	-0.2424485221	 0.121428
H	-1.0540505615	-0.3333652102	-1.5392523996	 0.122271
H	 0.4508834134	-5.1625076831	-1.1531760574	 0.123826
H	-0.6788542067	-6.5192147424	-0.9912214139	 0.109559
H	-1.0086183038	-5.2215698663	-2.1533386336	 0.124276
H	-0.8525916765	-6.1806622941	 1.4843396985	 0.112543
H	-1.3793356366	-4.5648731009	 2.1510281288	 0.120582
H	-3.4620675656	-4.6484963751	 0.7233289565	 0.121004
H	-2.9418996305	-6.2645296155	 0.0521972054	 0.112671
6.1529	66.7403	70.1883	125.0027	183.5627	229.9626	239.6987	272.7244	311.4634	328.3659	355.1576	447.1474	531.1431	548.4711	628.869	741.9048	785.895	838.3307	842.5015	871.0315	894.1376	940.1698	951.6884	1037.539	1044.2325	1072.4329	1075.9183	1088.3782	1108.8812	1116.2986	1121.0646	1193.4389	1259.009	1292.4838	1303.929	1321.1975	1350.0329	1382.8235	1412.1349	1413.4443	1464.2955	1471.9141	1486.6191	1491.5461	1495.8466	1498.8914	1503.1573	1508.7715	2357.7876	3003.8436	3028.2815	3029.6598	3031.7817	3039.6983	3071.1249	3098.3456	3102.4847	3103.8575	3104.6473	3133.2508	3137.9868	3218.8755	3233.4482
CCCC#CC1(C)CC1	CCCC#CC1(C)CC1	
InChI=1S/C9H14/c1-3-4-5-6-9(2)7-8-9/h3-4,7-8H2,1-2H3	InChI=1S/C9H14/c1-3-4-5-6-9(2)7-8-9/h3-4,7-8H2,1-2H3
