18
gdb 46492	4.0352	1.18816	1.02145	4.4636	80.64	-0.2368	-0.0302	0.2065	1174.268	0.149942	-401.984374	-401.976682	-401.975738	-402.016524	30.354	
O	-0.0052120476	-0.050075602	-0.3507476007	-0.381299
C	-0.0116440203	 1.1437381239	-0.101780712	 0.387113
N	-1.1731184026	 1.8315924252	 0.1746469417	-0.342177
C	-1.2501970159	 3.2843810512	 0.095125205	-0.253797
C	-0.0382301643	 3.9161940121	 0.756993352	 0.337143
C	-0.0345117405	 5.4173744761	 0.9374984222	-0.314599
C	-0.1657729719	 4.5339620702	 2.1439167235	-0.294848
C	 1.2226430466	 3.2167869426	 0.4296350224	-0.121204
C	 1.2299132229	 1.9514563064	-0.0035619824	-0.181983
H	-2.0110398119	 1.3003088564	-0.0134294024	 0.243965
H	-1.2991402312	 3.6212572763	-0.953862013	 0.107918
H	-2.1705219938	 3.6163303278	 0.5856438132	 0.109211
H	 0.9012651795	 5.9432238251	 0.7803247379	 0.120992
H	-0.9108513902	 5.96162343	 0.600153871	 0.119142
H	-1.1324193923	 4.4601764528	 2.6305079588	 0.123803
H	 0.6805277272	 4.4465798409	 2.8159890834	 0.123758
H	 2.1544487346	 3.7591277694	 0.5764100168	 0.103645
H	 2.1438953317	 1.4191042758	-0.2375611475	 0.113217
80.6559	181.1314	226.0387	279.8132	334.9769	393.274	431.0083	468.6814	569.9668	602.1922	680.4021	720.2429	778.3889	789.2229	830.4531	851.3687	926.4453	946.4869	963.4154	980.1616	1005.6971	1050.902	1068.4207	1084.9097	1092.6199	1162.6058	1190.4339	1241.8343	1296.0435	1315.1095	1352.6506	1386.6211	1424.823	1467.8791	1472.8793	1499.349	1513.8409	1678.6631	1780.5785	2959.8903	3068.3515	3128.0168	3135.7782	3148.5471	3208.599	3212.8474	3226.0763	3608.8065
O=C1NCC2(CC2)C=C1	O=C1NCC2(CC2)C=C1	
InChI=1S/C7H9NO/c9-6-1-2-7(3-4-7)5-8-6/h1-2H,3-5H2,(H,8,9)	InChI=1S/C7H9NO/c9-6-1-2-7(3-4-7)5-8-6/h1-2H,3-5H2,(H,8,9)
