15
gdb 27861	1.98866	1.88902	0.96921	8.0683	75.38	-0.1728	-0.0145	0.1583	1133.3651	0.114783	-450.177281	-450.169239	-450.168294	-450.209608	31.192	
N	 0.0394872015	 1.3732819299	 0.1325877721	-0.576087
C	 0.0128438864	 0.0150294963	 0.0415791445	 0.580966
N	-1.1282090478	-0.6516344261	 0.0231078836	-0.406796
H	-2.0181393483	-0.1766788513	 0.0611702023	 0.262227
C	-1.2490613336	-2.1437148652	-0.0089893872	 0.402484
O	-2.3987368567	-2.5493425865	-0.0136273899	-0.417819
C	-0.0086542305	-2.7854233663	-0.0295036587	-0.387108
C	 1.2379992746	-2.1129524843	-0.0167398581	 0.377703
N	 2.4660169677	-2.5037087121	-0.028650842	-0.610417
N	 1.1444415081	-0.673156954	 0.0150535408	-0.358883
H	 0.8966170983	 1.8471630245	-0.1036795724	 0.280994
H	-0.8013094121	 1.8757534313	-0.1011176836	 0.281758
H	-0.0112911971	-3.8661932579	-0.0553105459	 0.092034
H	 2.5069045941	-3.5202151523	-0.051672118	 0.211523
H	 2.0456851652	-0.217200396	 0.0428861625	 0.267422
140.6124	151.475	182.7436	296.4836	318.6547	376.61	398.3749	482.6397	519.1682	543.5947	579.5704	624.3445	636.528	657.1338	714.7075	732.3103	757.925	798.9546	862.2626	951.5059	1084.6772	1101.2408	1136.2218	1202.9228	1277.8009	1341.4369	1373.6413	1376.9896	1629.5771	1646.9359	1675.5343	1711.5903	1812.7089	3226.0468	3513.887	3600.7585	3610.7179	3624.8873	3710.8832
NC1=[NH+]C([O-])=CC(=N)N1	N[C]1NC(=O)C=C([NH])N1	
InChI=1S/C4H6N4O/c5-2-1-3(9)8-4(6)7-2/h1H,(H5,5,6,7,8,9)	InChI=1S/C4H6N4O/c5-2-1-3(9)8-4(6)7-2/h1,5H,(H4,6,7,8,9)
