23
gdb 121951	4.16554	0.60042	0.55211	2.7774	83.	-0.2586	0.0753	0.3339	2033.8422	0.203706	-425.405576	-425.394611	-425.393666	-425.442727	39.175	
O	-0.0481996774	 1.4340064452	 0.0045964545	-0.420668
C	 0.0141742981	 0.0165992538	 0.065116346	-0.07532
C	-1.4070925187	-0.5220957703	-0.0183391907	-0.165661
C	-1.4699287252	-2.0496973954	 0.0472803112	-0.203696
C	-2.8917544168	-2.6069597858	-0.1142986272	 0.105772
O	-3.4799843323	-2.1883585651	-1.3465768687	-0.430677
C	-2.9297188506	-4.1124983197	 0.044208937	 0.009383
C	-3.1553753124	-4.732141543	 1.4017516098	-0.26659
C	-4.2310162903	-4.8046295761	 0.3473938911	-0.271803
H	 0.8481326868	 1.776942112	 0.0629340527	 0.283683
H	 0.615732477	-0.3911143927	-0.764870873	 0.079177
H	 0.4884477446	-0.3206112738	 1.002232818	 0.079646
H	-1.9917541702	-0.0870387016	 0.8018338933	 0.101818
H	-1.8683080262	-0.1755330838	-0.948192929	 0.118721
H	-0.8358118652	-2.4851993772	-0.74064181	 0.079793
H	-1.0605556849	-2.4093267542	 1.0002537152	 0.098803
H	-3.5363428604	-2.1595073706	 0.6541617029	 0.080113
H	-3.0051797564	-2.6291429012	-2.0599773987	 0.273959
H	-2.241036535	-4.6429820936	-0.6123640965	 0.071413
H	-2.612279869	-5.636407623	 1.6530718007	 0.110572
H	-3.313222006	-4.0639856053	 2.2424842138	 0.111952
H	-5.1097163749	-4.1807157326	 0.4711725824	 0.119916
H	-4.4289859647	-5.761811496	-0.1219757848	 0.109695
52.8623	64.1234	91.4538	100.5864	145.8355	198.4866	241.5757	263.8934	268.2257	313.8696	331.9977	474.907	494.5643	536.6642	760.2848	771.7402	828.5297	839.6792	872.7614	926.299	945.2862	990.4361	1018.182	1046.9541	1057.4262	1075.8146	1077.8493	1095.9219	1116.8972	1133.7681	1150.695	1195.9185	1204.0646	1226.3567	1235.8422	1274.7746	1285.7108	1304.306	1318.6598	1346.8387	1390.0675	1409.2801	1431.525	1463.5843	1470.0749	1479.5324	1502.113	1506.0182	1528.9571	2950.9825	2974.7441	2990.6764	3023.8124	3037.2822	3046.8124	3095.6308	3111.5478	3128.9146	3135.8377	3207.2001	3222.8954	3798.6508	3830.5338
OCCCC(O)C1CC1	OCCC[C@@H](O)C1CC1	
InChI=1S/C7H14O2/c8-5-1-2-7(9)6-3-4-6/h6-9H,1-5H2	InChI=1S/C7H14O2/c8-5-1-2-7(9)6-3-4-6/h6-9H,1-5H2/t7-/m1/s1
