18
gdb 54559	3.06387	1.60182	1.20916	3.3631	76.82	-0.2368	0.0227	0.2595	1035.6747	0.148299	-401.90836	-401.900325	-401.899381	-401.941755	30.586	
N	 0.0862863438	 1.1171618047	-0.6557737647	-0.533216
C	-0.0457885021	 0.0309287466	 0.1590659768	 0.262596
O	 0.8353305424	-0.3325815313	 0.9186545342	-0.367448
C	-1.3636363494	-0.6805764825	 0.0460139259	 0.282948
C	-2.6016128986	-0.3972255704	-0.8345364138	-0.350374
C	-2.9855355408	-1.6467302307	-0.0196059977	-0.05752
C	-1.5374056615	-2.2426538408	-0.0852658239	-0.062658
C	-1.4720766458	-2.4626930713	 1.4388840809	-0.263403
C	-2.2478599953	-1.141852084	 1.2678206218	-0.062632
H	 0.9474751935	 1.6380310831	-0.6276246528	 0.259882
H	-0.6447135329	 1.4099137677	-1.2790502349	 0.263428
H	-3.1624653629	 0.5195218613	-0.6202459605	 0.093229
H	-2.4824965262	-0.5340586535	-1.9152773574	 0.093194
H	-3.9134742371	-2.2193005245	-0.0410298846	 0.074671
H	-1.1262147274	-2.8469956403	-0.8956481193	 0.075403
H	-2.0433108886	-3.3112315575	 1.8292646659	 0.085127
H	-0.4862382878	-2.3915540977	 1.8986506567	 0.131358
H	-2.6593815133	-0.4714883988	 2.0243158472	 0.075417
31.6832	115.9424	175.9682	200.8394	340.1227	399.8693	417.0935	487.4782	578.1769	650.7407	694.2952	768.1578	776.8282	864.9678	875.8741	892.2073	910.1223	925.3311	997.258	1008.2356	1031.4557	1035.9059	1070.0008	1101.6092	1115.1698	1131.8401	1156.2557	1166.5638	1187.5424	1188.8514	1240.7073	1243.8471	1267.0584	1305.8573	1386.4268	1500.5005	1510.5188	1610.6756	1778.2697	3025.4642	3049.3005	3082.0893	3097.7269	3098.4768	3112.3658	3141.154	3604.234	3744.702
NC(=O)C12CC3C1CC23	NC(=O)[C@@]12C[C@H]3[C@@H]1C[C@@H]23	
InChI=1S/C7H9NO/c8-6(9)7-2-3-4(7)1-5(3)7/h3-5H,1-2H2,(H2,8,9)	InChI=1S/C7H9NO/c8-6(9)7-2-3-4(7)1-5(3)7/h3-5H,1-2H2,(H2,8,9)/t3-,4-,5+,7-
