18
gdb 61176	3.49009	0.84319	0.77806	4.9496	78.5	-0.274	0.0198	0.2938	1484.6481	0.144347	-401.926471	-401.916027	-401.915083	-401.962407	36.969	
C	-0.1143745803	 1.6043906402	 0.088275769	-0.414749
C	-0.0334678587	 0.06879598	-0.0098020548	-0.147761
C	-1.3791417502	-0.5108161688	 0.0517312323	 0.272709
N	-2.4391531457	-0.9666403274	 0.112877737	-0.319505
C	 0.6919549366	-0.4409272244	-1.2936722949	 0.134987
O	 0.0814087835	 0.0530464408	-2.4646306747	-0.416787
C	 2.2060842333	-0.1388371993	-1.2400929835	-0.422306
C	 2.9285815475	-0.6782403498	-2.383982702	 0.304235
C	 3.5209863411	-1.1261791665	-3.3279555468	-0.418618
H	 0.8845787879	 2.0458339352	 0.1344601478	 0.127081
H	-0.6462687322	 2.0136844555	-0.7740792042	 0.143132
H	-0.6552313761	 1.9021896121	 0.9889929459	 0.146747
H	 0.5169028642	-0.3178605163	 0.8578862706	 0.12488
H	 0.5642530354	-1.5271217112	-1.3372475474	 0.124077
H	 0.4244922914	 0.9329435072	-2.6521674506	 0.289776
H	 2.3641367594	 0.9473106792	-1.1866134444	 0.130129
H	 2.6192558922	-0.5511814279	-0.3106768093	 0.139596
H	 4.0428905309	-1.5238263786	-4.1629557299	 0.202376
55.5698	61.8621	103.8507	175.4713	196.7767	221.9454	253.6089	272.5438	322.5645	341.3129	370.1587	444.8495	515.0598	585.7211	630.3705	648.6464	680.4051	811.3124	866.5531	916.6002	962.4214	1002.574	1027.3701	1094.1557	1113.7139	1134.1526	1192.2769	1284.4896	1289.2467	1340.6142	1347.9947	1379.2044	1409.8993	1426.1563	1468.7909	1496.3203	1507.1347	2244.8052	2360.1313	3012.4518	3030.9698	3047.1301	3055.1445	3072.5774	3129.5604	3135.8432	3505.5753	3815.2632
CC(C#N)C(O)CC#C	C[C@@H](C#N)[C@@H](O)CC#C	
InChI=1S/C7H9NO/c1-3-4-7(9)6(2)5-8/h1,6-7,9H,4H2,2H3	InChI=1S/C7H9NO/c1-3-4-7(9)6(2)5-8/h1,6-7,9H,4H2,2H3/t6-,7-/m0/s1
