17
gdb 10898	3.10547	2.0309	1.53592	3.8764	69.47	-0.2314	0.0163	0.2477	883.9343	0.141356	-363.863348	-363.855316	-363.854371	-363.895477	29.531	
C	 0.2407700075	 1.3465785212	 0.019001486	-0.352628
N	-0.2524141144	-0.0145764756	 0.0374438705	-0.135505
C	-0.1011804764	-0.9662217805	-0.9772070478	 0.423507
O	-0.0660771983	-0.8500100023	-2.1719828344	-0.366298
C	 0.0374702468	-2.0929847195	 0.0385610557	-0.284417
C	 1.2196465256	-1.7278317268	 0.9443659836	-0.325723
C	-0.0936663815	-1.0186419887	 1.1046428474	 0.370862
C	-0.9376045308	-0.9688255749	 2.3408512152	-0.484662
H	 1.2721023329	 1.4231927095	 0.3919929927	 0.117259
H	 0.2178164401	 1.6929997515	-1.0171427739	 0.157894
H	-0.396832928	 2.0029843416	 0.6195777669	 0.127811
H	-0.391561677	-3.0840611898	-0.0010159005	 0.115414
H	 1.4645056397	-2.4750692163	 1.6949157566	 0.122001
H	 2.0807245086	-1.2138874458	 0.5267181064	 0.124139
H	-0.6417739539	-0.1370790847	 2.9905180592	 0.127894
H	-1.9936758163	-0.8403788398	 2.0842441985	 0.13393
H	-0.8281147948	-1.8913876591	 2.9180997578	 0.128523
132.8164	144.894	166.129	200.5341	224.6057	288.6901	351.2954	476.505	500.3542	633.0626	706.1734	730.0456	778.8941	862.3466	912.8495	923.5351	970.5827	986.0958	1019.9871	1070.7466	1100.1347	1121.2063	1149.9305	1181.1506	1228.8842	1258.5284	1347.3302	1382.0476	1426.5714	1441.706	1479.6715	1484.5895	1491.381	1500.7917	1511.7119	1883.0036	3000.8079	3032.2176	3074.6284	3094.1062	3112.0376	3116.7636	3127.3626	3197.9132	3223.5632
CN1C(=O)C2CC12C	CN1C(=O)[C@H]2C[C@@]12C	
InChI=1S/C6H9NO/c1-6-3-4(6)5(8)7(6)2/h4H,3H2,1-2H3	InChI=1S/C6H9NO/c1-6-3-4(6)5(8)7(6)2/h4H,3H2,1-2H3/t4-,6-/m1/s1
