23
gdb 106277	2.6934	1.22092	1.00589	1.4056	86.45	-0.2433	0.0728	0.3161	1316.8248	0.204396	-388.25638	-388.246548	-388.245603	-388.290642	37.742	
C	-0.1201599996	 1.5060215254	 0.01841522	-0.380721
C	 0.0386045754	-0.017876399	 0.0687503835	-0.308602
C	 0.7824058119	-0.5167504603	 1.2818356314	 0.305257
C	 2.2693725434	-0.2642419221	 1.6810042812	-0.296002
C	 1.714202181	-1.1734650312	 2.8181512515	 0.282419
C	 2.4408031452	-1.695258044	 4.0281876347	-0.512308
C	 0.4427335402	-0.2648226674	 2.7890672528	-0.334193
C	 1.0574794497	-2.0047962632	 1.6698116336	 0.110189
O	 0.0116622808	-2.9062339814	 1.9169490813	-0.456124
H	 0.8537433275	 2.0065127866	 0.0029655693	 0.117466
H	-0.6684933014	 1.8157489875	-0.8764684469	 0.112264
H	-0.6691805217	 1.8759743947	 0.8908817247	 0.116562
H	-0.9506321748	-0.4942327503	 0.0461944096	 0.099085
H	 0.5615846714	-0.3656025706	-0.8320335869	 0.098774
H	 3.0361059432	-0.6988061638	 1.0309723577	 0.085271
H	 2.524691802	 0.7580457276	 1.9709945134	 0.090794
H	 2.7546130007	-0.8809104009	 4.69031228	 0.116609
H	 1.7992489022	-2.3703173531	 4.605571185	 0.119448
H	 3.3354782312	-2.256310372	 3.7366597008	 0.119696
H	 0.57382809	 0.757818826	 3.1547060002	 0.091665
H	-0.4948105771	-0.6749362108	 3.1827051264	 0.069098
H	 1.755997399	-2.5381407312	 1.0171056775	 0.073057
H	-0.6373965201	-2.4894712967	 2.4927282193	 0.280296
73.9866	137.4292	178.6761	184.8826	198.0908	241.3126	256.925	293.9759	348.9819	375.2539	508.805	538.1092	580.0544	635.0467	653.7075	741.7493	779.4152	830.5866	878.0837	932.8997	937.4112	969.4269	1004.3367	1013.5262	1043.3827	1072.2232	1085.9298	1112.3395	1138.6434	1150.8479	1168.6847	1183.1048	1188.5951	1220.6626	1277.1793	1301.8485	1307.3078	1340.3911	1381.7843	1409.3193	1411.622	1453.5744	1480.6297	1488.8186	1489.3079	1499.4917	1504.5048	1507.0329	1552.5693	3013.8993	3024.354	3027.0484	3033.3476	3041.2375	3044.7942	3065.9379	3088.3498	3092.5731	3093.9099	3101.3791	3104.48	3110.2069	3815.6182
CCC12CC(C)(C1)C2O	CC[C@@]12C[C@@](C)(C1)[C@H]2O	
InChI=1S/C8H14O/c1-3-8-4-7(2,5-8)6(8)9/h6,9H,3-5H2,1-2H3	InChI=1S/C8H14O/c1-3-8-4-7(2,5-8)6(8)9/h6,9H,3-5H2,1-2H3/t6-,7-,8+/m1/s1
