15
gdb 43590	3.28547	1.34893	1.09607	3.9938	71.33	-0.2397	0.0157	0.2554	1077.2499	0.113499	-416.777531	-416.769858	-416.768913	-416.809865	29.35	
O	 0.0616132789	-0.0507828708	-0.1709896862	-0.379971
C	 0.0503473265	 1.153880399	-0.0676811803	 0.462244
N	-1.0572246446	 1.9448239894	 0.1215588146	-0.317091
C	-0.8294975932	 3.3886807292	 0.1220335249	-0.170839
C	-1.3965662484	 4.0685040972	 1.2849816937	 0.345134
C	-1.8925191035	 4.6438144528	 2.2152524314	-0.445813
C	 0.7018077734	 3.4768710538	 0.023182436	-0.051757
N	 1.3780478785	 2.8346779137	 1.1522976655	-0.316803
C	 1.2282288762	 2.1023794257	-0.1336395995	-0.175568
H	-1.9489782986	 1.5414670536	 0.3600927341	 0.260725
H	-1.2600334029	 3.8371786076	-0.7858373543	 0.115409
H	-2.3167207907	 5.1450966116	 3.0501489206	 0.2042
H	 1.1375771996	 4.3412669207	-0.4625223531	 0.10986
H	 2.3298091383	 3.1900890352	 1.2166735095	 0.242918
H	 2.0954726405	 1.836850061	-0.7243355868	 0.117352
82.7291	128.2017	198.6292	279.7012	354.852	433.0298	468.8252	504.0746	547.2658	614.3585	635.1767	669.8035	739.8282	796.7207	828.4068	859.9242	884.7599	903.7835	952.9026	1025.9609	1056.3975	1086.2152	1125.6272	1162.6428	1246.1558	1254.7876	1307.6902	1351.2092	1372.3443	1406.5449	1427.3628	1839.4363	2242.6162	2987.461	3189.8145	3206.4565	3495.4622	3501.954	3651.0158
O=C1NC(C#C)C2NC12	O=C1N[C@@H](C#C)[C@H]2N[C@@H]12	
InChI=1S/C6H6N2O/c1-2-3-4-5(8-4)6(9)7-3/h1,3-5,8H,(H,7,9)	InChI=1S/C6H6N2O/c1-2-3-4-5(8-4)6(9)7-3/h1,3-5,8H,(H,7,9)/t3-,4+,5+/m0/s1
