16
gdb 65176	2.5675	1.36161	1.2291	5.1859	69.32	-0.2816	-0.0044	0.2772	1086.3717	0.122065	-437.847825	-437.839181	-437.838237	-437.881587	31.234	
C	 0.0693704235	 1.3802383704	-0.9726273972	-0.473787
C	-0.0252293437	 0.1169102114	-0.1479044552	 0.364586
C	 1.0811683392	-0.8538404951	-0.0885957581	-0.214909
O	 0.8184855582	 0.042967385	 0.9949653562	-0.253176
C	-1.4237862382	-0.4002526375	 0.0599274713	 0.001153
O	-1.6002622642	-1.4964338898	 0.9427071384	-0.225299
C	-2.1780074117	-0.2462487718	 1.3257194262	-0.10817
C	-1.6449324379	 0.4209988194	 2.4939250156	 0.321267
N	-1.3210364968	 0.9864458204	 3.447990535	-0.32686
H	 1.113725814	 1.6804990542	-1.0802314422	 0.141746
H	-0.3563496938	 1.2325159146	-1.9708415315	 0.126903
H	-0.4730962822	 2.198848335	-0.4880941992	 0.140664
H	 0.8649391266	-1.8993644485	 0.1187624946	 0.13377
H	 1.9934421903	-0.6547500542	-0.6484874644	 0.119492
H	-2.0249434556	-0.4495784467	-0.8504711651	 0.109943
H	-3.2656871677	-0.2167509868	 1.2758073956	 0.142678
49.8375	113.7856	186.4818	193.9698	250.7293	260.3467	335.0833	366.0366	453.0602	519.5841	577.0989	615.6813	731.5458	816.6721	858.0841	889.8186	926.8841	952.8541	988.2314	1025.6109	1083.7252	1112.8331	1135.5918	1146.3865	1176.3837	1240.3719	1280.174	1384.3647	1391.7517	1416.9802	1454.534	1484.5132	1496.834	1522.6213	2364.3493	3039.2575	3092.0159	3093.7022	3104.159	3125.6749	3133.9069	3188.6528
CC1(CO1)C1OC1C#N	C[C@]1(CO1)[C@H]1O[C@H]1C#N	
InChI=1S/C6H7NO2/c1-6(3-8-6)5-4(2-7)9-5/h4-5H,3H2,1H3	InChI=1S/C6H7NO2/c1-6(3-8-6)5-4(2-7)9-5/h4-5H,3H2,1H3/t4-,5-,6-/m0/s1
