20
gdb 7156	3.79988	0.88204	0.74876	0.821	81.79	-0.2403	0.0492	0.2894	1585.6839	0.173278	-348.978367	-348.967682	-348.966737	-349.016214	35.88	
C	-0.010004263	 1.4866372342	-0.1300334828	-0.383733
C	-0.0011204756	-0.0144898131	 0.1076714967	-0.029033
O	-1.3240176591	-0.4912560883	-0.0503611098	-0.254104
C	-1.4589777004	-1.9075595268	 0.0395275735	-0.039133
C	-1.480222007	-2.3878085378	 1.5005404167	-0.390954
C	-2.6837571969	-2.2934035527	-0.6615835606	 0.05589
C	-3.6929589363	-2.6385564733	-1.2190107617	 0.098699
C	-4.9129829899	-3.0423942099	-1.9025188351	-0.499455
H	 0.9989440085	 1.896073592	-0.0215886056	 0.112076
H	-0.3734885157	 1.71221741	-1.1363838635	 0.127937
H	-0.6661328061	 1.9841129616	 0.5897526605	 0.127285
H	 0.6695432843	-0.5155504946	-0.6110476564	 0.085348
H	 0.3849573928	-0.2349606304	 1.1156359245	 0.086459
H	-0.6015757147	-2.3782634408	-0.4722171468	 0.086902
H	-1.6011496792	-3.4738887718	 1.5401116194	 0.123401
H	-0.5479783087	-2.1279772906	 2.0099273079	 0.114603
H	-2.314945451	-1.9221969025	 2.0303241098	 0.131902
H	-4.6958272426	-3.6910529817	-2.7583764421	 0.147047
H	-5.5850339693	-3.5894819362	-1.2321607744	 0.146976
H	-5.4587912899	-2.1701632672	-2.2787879403	 0.151887
19.49	43.9974	69.4371	99.6544	146.8981	216.5909	238.8771	256.5407	296.5219	342.1717	376.0676	412.2731	536.9808	545.7265	755.9328	821.5109	850.127	946.6939	1008.9625	1051.873	1053.5889	1070.5235	1097.5511	1126.3668	1150.7195	1187.3992	1191.2295	1295.3052	1344.4168	1357.7175	1396.7837	1401.8058	1414.2231	1435.532	1477.439	1479.0359	1482.6624	1488.8797	1491.2351	1500.1668	1529.3199	2376.3202	2946.0691	2958.086	2987.284	3026.7249	3044.3099	3046.074	3086.8397	3088.8329	3118.0658	3119.1018	3122.7473	3131.4484
CCOC(C)C#CC	CCO[C@@H](C)C#CC	
InChI=1S/C7H12O/c1-4-6-7(3)8-5-2/h7H,5H2,1-3H3	InChI=1S/C7H12O/c1-4-6-7(3)8-5-2/h7H,5H2,1-3H3/t7-/m0/s1
