19
gdb 40941	3.31628	1.36119	1.21383	2.223	75.83	-0.2451	0.0153	0.2604	1082.1105	0.160246	-423.006745	-422.998948	-422.998003	-423.039335	30.032	
C	 0.0433972355	 1.5157665469	-0.1017277944	-0.127452
O	 1.3118270161	 1.5697746404	 0.5830010047	-0.274935
C	 1.4633177805	 0.1376576952	 0.5133823939	-0.119754
C	 0.0168047134	-0.0204226952	-0.0327002147	 0.347599
C	-0.9936272308	-0.6361028358	 0.9329423667	-0.306714
C	-0.9419931702	-2.1389021046	 0.8500856463	-0.072786
C	-0.390283172	-2.7515354114	-0.1940886821	-0.064123
C	 0.177983503	-1.9878684578	-1.3556069703	-0.130744
O	-0.1051899981	-0.5978754614	-1.3166748517	-0.298497
H	-0.7443340641	 2.0479156599	 0.4445294414	 0.098535
H	 0.1039365783	 1.891903643	-1.1301649956	 0.107755
H	 2.2365841754	-0.1599841138	-0.2070225105	 0.097924
H	 1.6826709886	-0.3040039083	 1.4920728195	 0.101145
H	-0.7879088846	-0.2933532305	 1.9540395112	 0.114187
H	-2.0008022005	-0.2723994517	 0.6840211393	 0.116438
H	-1.3637777699	-2.7121155474	 1.6708274002	 0.093614
H	-0.3244950702	-3.8348196484	-0.2485676909	 0.094474
H	 1.2680090185	-2.1585145169	-1.4185577152	 0.10187
H	-0.246468279	-2.3517690221	-2.2990993479	 0.121464
77.4292	114.1155	168.9348	274.3902	356.0819	389.7687	420.0918	466.6109	530.1508	652.4309	682.4473	815.9757	849.0252	885.5888	905.7152	934.9764	968.0346	984.0726	993.3217	1000.6576	1033.8483	1036.6062	1098.6257	1116.5888	1154.0774	1157.8862	1166.4985	1212.7665	1246.5516	1259.5053	1270.6886	1304.973	1357.3706	1384.4621	1399.9782	1410.4087	1469.2375	1489.4071	1499.795	1525.319	1727.2382	2940.6091	3007.1631	3007.5283	3021.4189	3047.799	3053.9707	3065.6678	3069.9084	3155.9034	3178.3282
C1OCC11CC=CCO1	C1OCC21CC=CCO2	
InChI=1S/C7H10O2/c1-2-4-9-7(3-1)5-8-6-7/h1-2H,3-6H2	InChI=1S/C7H10O2/c1-2-4-9-7(3-1)5-8-6-7/h1-2H,3-6H2
