22
gdb 98441	2.89798	1.06739	1.02598	3.3283	83.25	-0.2364	0.038	0.2744	1338.4437	0.193342	-404.377902	-404.367589	-404.366645	-404.413876	37.234	
C	 0.1743396085	 1.4681464835	 0.0132332934	-0.334606
N	-0.0816991586	 0.060448233	 0.2430574914	-0.311457
C	-1.1806101687	-0.5831651611	-0.2528723829	 0.341997
O	-2.0368286561	-0.0203785462	-0.914432515	-0.386564
C	-1.2412121735	-2.0769012785	 0.0542470065	 0.242168
C	-0.4067568474	-2.8362349054	-0.9857817934	-0.443971
C	-0.9482091643	-2.529356591	 1.5250908692	-0.277379
C	-2.2348165057	-3.3977405052	 1.4847609547	-0.217383
C	-2.6827096546	-2.6450869654	 0.2029942437	-0.247836
H	 1.1117953957	 1.6223295731	-0.5335131744	 0.122538
H	-0.6534120224	 1.8516993634	-0.5845580263	 0.170947
H	 0.2240158426	 2.0262143187	 0.9552092721	 0.122304
H	 0.5736500769	-0.4671095579	 0.795291131	 0.246231
H	 0.649410149	-2.5481715743	-0.9410448166	 0.107901
H	-0.46804215	-3.9167309048	-0.8175460807	 0.116228
H	-0.7738720964	-2.6282225188	-1.9958112417	 0.135016
H	-0.0007174262	-3.0488830153	 1.6989242381	 0.091623
H	-1.0282748943	-1.7027254514	 2.236937427	 0.102385
H	-2.0196178568	-4.4537321449	 1.3030283343	 0.103257
H	-2.8951713004	-3.3305423976	 2.3518409632	 0.101098
H	-3.4063298629	-1.8511990148	 0.3958990344	 0.118061
H	-3.0502394844	-3.2503624892	-0.6290410983	 0.097444
38.0722	87.5758	97.879	129.133	166.2174	253.7361	262.5626	293.3583	315.9451	338.0207	440.6714	482.2321	504.6454	696.8912	773.1451	782.8265	796.2288	859.3337	900.9518	931.2121	935.9663	947.3483	995.2432	1037.4453	1070.9094	1152.574	1162.5189	1175.5371	1183.481	1198.5344	1215.6962	1244.5257	1259.8675	1276.8301	1282.0636	1314.1673	1406.94	1437.2306	1477.1821	1484.1951	1489.9806	1492.3242	1500.4575	1501.2273	1508.8887	1557.6872	1768.7298	3023.812	3026.4188	3043.1657	3064.066	3072.1799	3074.0538	3091.7929	3094.0503	3105.1537	3112.2991	3131.1489	3151.9667	3649.0566
CNC(=O)C1(C)CCC1	CNC(=O)C1(C)CCC1	
InChI=1S/C7H13NO/c1-7(4-3-5-7)6(9)8-2/h3-5H2,1-2H3,(H,8,9)	InChI=1S/C7H13NO/c1-7(4-3-5-7)6(9)8-2/h3-5H2,1-2H3,(H,8,9)
