16
gdb 50304	3.34076	1.48284	1.12186	6.1963	71.99	-0.2491	-0.0136	0.2355	1057.239	0.126099	-434.073493	-434.065816	-434.064872	-434.106214	28.204	
N	 0.0459163259	 1.2851250093	 0.0549554576	-0.410608
C	-0.0541422979	 0.0223115915	 0.0635782917	 0.084
N	-1.258621444	-0.6729870663	-0.0139816402	-0.112524
C	-1.2687164072	-2.1323450437	-0.0256028208	-0.203688
C	-2.7536863074	-2.4504786053	 0.0216739753	-0.033114
C	-3.561218151	-1.9136879507	 1.1383117481	-0.251353
N	-3.5085996542	-1.1997991531	-0.1635323652	-0.153122
C	-2.551418543	-0.1198398656	-0.1217304253	 0.425115
O	-2.8395666831	 1.0377699618	-0.174944879	-0.318087
H	 1.0274662006	 1.5495585754	 0.124111693	 0.230556
H	 0.7881514882	-0.6785215178	 0.1345198844	 0.093196
H	-0.8223295163	-2.5242883154	-0.947861943	 0.128841
H	-0.7120856327	-2.5459278255	 0.8234653606	 0.12806
H	-3.1056086821	-3.3086756558	-0.5402097182	 0.115853
H	-4.5267033317	-2.351787903	 1.3680011187	 0.138698
H	-3.047348144	-1.4580219457	 1.9811495324	 0.138178
65.0993	123.3422	182.8754	227.3033	263.4639	367.8931	479.5744	492.4041	671.9618	686.9043	749.1696	789.7639	818.5551	830.2471	873.5408	938.9452	988.2222	1040.0282	1064.8453	1082.7569	1112.1368	1115.3504	1160.7294	1171.2781	1220.9822	1243.5627	1283.0122	1319.5669	1395.0757	1414.5683	1438.1654	1506.6881	1527.904	1725.2806	1880.2367	3016.7936	3028.717	3055.8953	3116.5368	3172.1241	3211.2516	3498.2582
N=CN1CC2CN2C1=O	[NH][CH]N1C[C@H]2CN2C1=O	
InChI=1S/C5H7N3O/c6-3-7-1-4-2-8(4)5(7)9/h3-4,6H,1-2H2	InChI=1S/C5H7N3O/c6-3-7-1-4-2-8(4)5(7)9/h3-4,6H,1-2H2/t4-,8?/m0/s1
