24
gdb 15904	2.51454	1.61996	1.25849	0.1033	84.59	-0.2724	0.0749	0.3473	1139.7279	0.22287	-314.272502	-314.262871	-314.261927	-314.306308	36.343	
C	 0.3741481314	 1.8414833531	 0.1150304746	-0.385472
C	 0.3575896963	 0.3216730125	-0.0896918088	-0.193397
C	 0.734350809	-0.4553604021	 1.1688069461	 0.040958
C	-0.273368079	-0.5971104396	 2.364968446	 0.017813
C	-1.7584379777	-0.3965454331	 2.0684247541	-0.406013
C	 0.1585241729	-2.0883675695	 2.4998686684	-0.239234
C	 0.8841984481	-2.0146606242	 1.1235828113	-0.000401
C	 0.1852255306	-2.755945887	-0.0144769753	-0.399773
H	 1.3699295759	 2.1865479493	 0.4156416558	 0.112129
H	 0.1015374676	 2.3710892164	-0.803411981	 0.109037
H	-0.3280172205	 2.1502533405	 0.8965345803	 0.118384
H	-0.629650208	 0.0118844084	-0.4516211958	 0.093269
H	 1.0648374252	 0.0616270375	-0.8887880475	 0.091204
H	 1.6696219325	-0.0319497465	 1.555654749	 0.061258
H	-0.0068288666	 0.0208539464	 3.2283276798	 0.061485
H	-2.0990152296	-1.0055591169	 1.2248479991	 0.11679
H	-2.357688443	-0.6859974592	 2.9391803587	 0.110998
H	-1.9935965996	 0.6482178741	 1.8384181527	 0.113858
H	 0.8392524074	-2.2663783709	 3.3365774487	 0.09198
H	-0.6598519373	-2.8130459906	 2.5667465728	 0.087482
H	 1.9284859495	-2.3427213708	 1.1563412177	 0.060911
H	-0.8755204657	-2.4963461804	-0.0907033673	 0.11528
H	 0.6493854477	-2.5394151699	-0.9828068026	 0.111676
H	 0.244651483	-3.8384336474	 0.1458671633	 0.109779
93.1928	110.1948	156.9362	200.6053	228.2366	231.1467	261.1869	287.1933	328.5533	375.4311	463.7792	492.9645	707.1327	738.4642	796.5166	821.6156	828.7379	904.6586	910.7358	955.8704	966.694	1025.3497	1032.019	1047.6992	1051.7979	1115.1121	1123.5165	1176.4828	1192.659	1194.9005	1236.2706	1270.3647	1274.1225	1288.7653	1300.3815	1340.3865	1364.5753	1376.8566	1394.8863	1404.0346	1410.6035	1412.636	1480.8417	1484.9378	1490.6299	1496.6963	1498.2986	1500.7093	1501.6841	1508.4854	3012.2377	3016.4323	3026.9826	3028.9085	3029.8191	3037.3108	3039.6847	3049.1267	3055.9427	3089.0298	3089.9723	3095.5209	3095.6886	3097.4802	3101.5987	3107.2455
CCC1C(C)CC1C	CC[C@H]1[C@@H](C)C[C@H]1C	
InChI=1S/C8H16/c1-4-8-6(2)5-7(8)3/h6-8H,4-5H2,1-3H3	InChI=1S/C8H16/c1-4-8-6(2)5-7(8)3/h6-8H,4-5H2,1-3H3/t6-,7+,8-
