17
gdb 76453	2.29442	1.3394	1.21761	2.3694	77.74	-0.2409	-0.0418	0.1992	1128.6886	0.132362	-421.791296	-421.781931	-421.780987	-421.82486	34.997	
C	 0.0644399691	 1.5469627176	 0.0522957281	-0.432767
C	 0.1281666449	 0.0376662269	 0.0410004003	-0.088757
C	 1.3592141895	-0.7243192896	-0.2405251009	 0.108639
O	 2.583267015	-0.1467404258	-0.4382209426	-0.409819
C	 0.7381575196	-0.7876801307	 1.231371753	-0.077311
C	 1.542938117	-0.1048719951	 2.2581586529	 0.107139
O	 2.2953707599	 0.8321272532	 2.042026906	-0.318758
C	 0.0448397252	-1.9708014169	 1.6399763191	 0.224182
C	-0.5389322106	-2.9679092121	 1.9770620231	-0.398643
H	 0.968777437	 2.0004863344	 0.4571226307	 0.15091
H	-0.0710982728	 1.9078911591	-0.9726684756	 0.133061
H	-0.7851688	 1.8932844391	 0.6479090255	 0.12955
H	-0.7816797806	-0.4468888719	-0.3023546374	 0.117507
H	 1.2711885247	-1.6648813472	-0.7746707172	 0.13377
H	 2.7324872874	 0.4995301765	 0.2775535303	 0.315611
H	 1.4528009596	-0.5274243122	 3.2768486103	 0.109246
H	-1.0515761449	-3.8483814254	 2.2761716145	 0.196442
130.3193	142.7365	163.7783	185.7333	210.0156	226.2306	272.2425	363.1206	399.2826	499.3764	519.2025	546.3572	569.7268	593.4672	603.3955	665.633	669.8539	742.9718	852.1995	973.0996	1003.9816	1033.1636	1057.4634	1107.197	1130.2664	1182.4779	1240.8499	1296.4474	1362.1033	1390.5937	1418.8791	1427.6265	1471.3457	1501.9749	1505.2317	1740.7839	2230.656	2954.8193	3047.5373	3106.9404	3145.4675	3160.9419	3176.1851	3502.0702	3576.501
CC1C(O)C1(C=O)C#C	C[C@H]1[C@@H](O)[C@]1(C=O)C#C	
InChI=1S/C7H8O2/c1-3-7(4-8)5(2)6(7)9/h1,4-6,9H,2H3	InChI=1S/C7H8O2/c1-3-7(4-8)5(2)6(7)9/h1,4-6,9H,2H3/t5-,6+,7-/m0/s1
