14
gdb 28386	3.28741	1.42254	0.99372	4.4438	72.21	-0.1922	-0.0353	0.1568	1099.4016	0.101771	-473.891499	-473.88387	-473.882926	-473.923336	29.593	
N	 0.0903445105	 1.350059138	 0.1865597735	-0.564644
C	-0.0753828203	-0.0118793248	 0.0667772512	 0.432145
C	-1.2462697523	-0.7018342062	 0.0312808215	-0.252631
C	-1.2009856566	-2.1245694877	-0.0095038425	-0.156619
C	-0.0064479483	-2.7732680295	-0.0185583264	 0.179026
O	 0.124497681	-4.121981761	-0.0585232708	-0.433372
C	 1.2314261826	-2.0298176595	 0.0076267802	 0.358615
O	 2.3361322139	-2.528431479	-0.0094956908	-0.386842
O	 1.1165809826	-0.6485473458	 0.0490532181	-0.236839
H	 0.9771047018	 1.6926725319	-0.1544929489	 0.268311
H	-0.6969134769	 1.9070133693	-0.1082286574	 0.264939
H	-2.1886362668	-0.1716858107	 0.0445005856	 0.100238
H	-2.1210562238	-2.6977276119	-0.0364982272	 0.120736
H	 1.0811202526	-4.2869351731	-0.0617180964	 0.306936
126.8191	188.1996	283.531	301.971	343.7597	373.2346	410.1266	473.4298	523.4011	539.451	559.5784	603.3676	683.9636	752.6571	766.4204	784.9998	792.744	930.487	1003.4793	1066.7675	1115.3066	1134.6776	1250.7118	1278.5845	1333.1461	1436.9901	1466.5331	1615.8745	1647.266	1706.8425	1794.7354	3197.1906	3223.6173	3573.9803	3684.8076	3703.5822
NC1=CC=C(O)C(=O)O1	Nc1ccc(O)c(=O)o1	
InChI=1S/C5H5NO3/c6-4-2-1-3(7)5(8)9-4/h1-2,7H,6H2	InChI=1S/C5H5NO3/c6-4-2-1-3(7)5(8)9-4/h1-2,7H,6H2
