17
gdb 44402	3.51651	1.50178	1.47081	2.9692	78.22	-0.2379	-0.0297	0.2082	948.1889	0.136781	-384.599544	-384.592881	-384.591937	-384.630358	27.92	
O	-0.0903357642	-0.0285818753	-0.1988035997	-0.289269
C	-0.0974678822	 1.1543060554	-0.0678204515	 0.316989
C	-1.2531446678	 2.2216862125	 0.2163453592	-0.392404
C	-0.1552139958	 2.9358523895	 1.0499705731	 0.027625
C	 0.8651584905	 4.1507139181	 1.0206880961	-0.133834
C	 1.9912653884	 3.0081817191	 1.1064638282	-0.302652
C	 0.9276588298	 2.2928324328	 0.1660229845	 0.106233
C	 0.9570905245	 3.2745097949	-1.0373457475	-0.132608
C	 0.9272817023	 4.478065711	-0.4666658765	-0.065834
H	-1.5408386324	 2.72783273	-0.7071249417	 0.136612
H	-2.1367408542	 1.8492066002	 0.7372615442	 0.121169
H	-0.1439724832	 2.4906528759	 2.0503700612	 0.091522
H	 0.8234785578	 4.9583181583	 1.7515331118	 0.074523
H	 2.9643836637	 3.2534599934	 0.6772779357	 0.109422
H	 2.0913479073	 2.5555678353	 2.0967404069	 0.111573
H	 1.0348492351	 2.98159892	-2.0745397562	 0.110771
H	 0.9705896804	 5.4634963488	-0.9076833081	 0.110163
109.0363	261.6181	315.3237	433.3665	474.6529	516.6651	538.3295	604.2618	654.451	677.5389	730.6964	779.3871	808.1654	837.9361	875.5142	912.6969	915.4012	940.2324	964.3586	995.8563	1043.841	1047.4653	1063.5433	1099.015	1116.2136	1128.4669	1160.2495	1175.7042	1193.6916	1204.8039	1250.9467	1308.9242	1387.1606	1445.5404	1489.3019	1624.1167	1887.7681	3048.662	3063.2979	3080.0891	3118.8019	3138.5397	3145.4875	3222.6887	3250.1824
O=C1CC2C3CC12C=C3	O=C1C[C@@H]2[C@H]3C[C@@]12C=C3	
InChI=1S/C8H8O/c9-7-3-6-5-1-2-8(6,7)4-5/h1-2,5-6H,3-4H2	InChI=1S/C8H8O/c9-7-3-6-5-1-2-8(6,7)4-5/h1-2,5-6H,3-4H2/t5-,6-,8-/m1/s1
