15
gdb 117024	3.81956	0.93114	0.7993	1.5242	70.35	-0.2656	-0.0955	0.1701	1411.049	0.10895	-457.763033	-457.753388	-457.752444	-457.799043	32.867	
C	 0.4523648439	 0.9069611655	 0.2504901214	-0.388972
C	-0.618387207	 0.1793265683	-0.5465629988	-0.059583
O	-0.0466961983	-0.5039185065	-1.6889963689	-0.226274
C	 0.4337029999	-1.7234114681	-1.4705040685	 0.38597
O	 0.4385414749	-2.3184227353	-0.4225489782	-0.3553
C	 1.010787561	-2.3261838928	-2.7704789525	 0.094241
O	 1.0561044496	-1.7090007078	-3.8062124543	-0.252
C	 1.4913808739	-3.6817762586	-2.6283100587	 0.315495
C	 1.9014428346	-4.8115224071	-2.5679913984	-0.406819
H	 1.1522237363	 0.1969042129	 0.6973695033	 0.14629
H	 1.0069582505	 1.6007056066	-0.3872060601	 0.135222
H	-0.0172203835	 1.47929265	 1.0566697714	 0.126924
H	-1.1445655316	-0.5530073093	 0.0701454577	 0.137092
H	-1.3378385372	 0.8746872083	-0.9832813044	 0.125469
H	 2.261581373	-5.8097096361	-2.5026456409	 0.222245
29.4462	68.1646	94.0758	130.3301	207.9787	237.8304	252.0711	332.3268	383.7624	449.0864	500.7832	534.1565	660.754	675.6563	726.2006	785.8653	837.8632	856.3787	872.9555	1017.7168	1104.2409	1117.9591	1198.4575	1302.5268	1332.518	1401.023	1421.1182	1485.8596	1488.9926	1506.8713	1779.5882	1809.5852	2217.1101	3048.2959	3075.1626	3119.112	3123.0093	3144.4765	3494.0713
CCOC(=O)C(=O)C#C	CCOC(=O)C(=O)C#C	
InChI=1S/C6H6O3/c1-3-5(7)6(8)9-4-2/h1H,4H2,2H3	InChI=1S/C6H6O3/c1-3-5(7)6(8)9-4-2/h1H,4H2,2H3
