21
gdb 82891	2.43148	1.9578	1.44957	1.626	81.54	-0.2349	0.0873	0.3223	1005.8075	0.183325	-387.05978	-387.051887	-387.050943	-387.091571	32.116	
C	-0.1132755848	 1.5998228119	-0.0555197663	-0.431263
C	 0.0361668839	 0.0890977077	 0.0147984	-0.02139
C	 1.1853285225	-0.6172980825	-0.7474873486	 0.052491
O	 2.3513686022	 0.0721572787	-0.2671749946	-0.268843
C	 2.2544956402	-0.3542455076	 1.1010714639	 0.03843
C	 2.4798710786	-1.8773781727	 0.9751046072	-0.253485
C	 1.109309948	-1.8150666828	 0.2875968256	-0.1054
C	 0.6826356565	-0.6170176709	 1.2262805554	 0.314434
C	 0.0423775654	-0.7407807195	 2.5842619514	-0.516221
H	 0.8549736487	 2.0891950009	 0.0742687149	 0.131121
H	-0.522450163	 1.9117116797	-1.0230527576	 0.111867
H	-0.7935324095	 1.9659437274	 0.721416805	 0.110007
H	-0.9123620322	-0.4183770069	-0.2015362758	 0.066486
H	 1.2198103561	-0.7359133719	-1.8297420611	 0.071438
H	 2.8235187247	 0.3000397296	 1.7605790723	 0.073576
H	 3.3612094173	-2.1943614647	 0.4124889392	 0.099229
H	 2.420631611	-2.4036498166	 1.931022317	 0.100135
H	 0.4747926467	-2.6709865494	 0.0628460474	 0.069041
H	 0.6257051901	-1.3810558256	 3.2552426185	 0.118244
H	-0.0476801478	 0.239790785	 3.0665947323	 0.122012
H	-0.9640676445	-1.1673992197	 2.5101508538	 0.118092
177.6599	190.9332	201.8748	213.55	281.6089	287.0275	471.8177	506.0707	557.5367	606.9395	689.1098	693.0633	786.4614	832.0204	842.9003	864.0968	907.5921	924.5923	936.7772	960.0081	993.9626	1021.8075	1040.2511	1071.5698	1086.6433	1110.3148	1119.0794	1157.8602	1162.6977	1180.4027	1208.8283	1234.2872	1246.2074	1258.7274	1274.1475	1305.8687	1347.2737	1392.8167	1405.283	1414.1082	1481.2072	1489.6887	1492.3399	1495.4195	1503.0727	3022.1057	3029.664	3036.1476	3062.4317	3083.4579	3088.829	3089.8583	3122.8927	3124.0189	3124.4632	3127.0628	3134.01
CC1C2OC3CC2C13C	C[C@H]1[C@H]2O[C@@H]3C[C@H]2[C@]13C	
InChI=1S/C8H12O/c1-4-7-5-3-6(9-7)8(4,5)2/h4-7H,3H2,1-2H3	InChI=1S/C8H12O/c1-4-7-5-3-6(9-7)8(4,5)2/h4-7H,3H2,1-2H3/t4-,5+,6+,7+,8-/m0/s1
