16
gdb 46862	2.59033	1.79871	1.17023	5.6413	69.81	-0.2393	-0.0687	0.1705	1016.5277	0.125263	-437.902986	-437.895532	-437.894588	-437.935167	28.387	
O	-0.0789692055	 0.1818503557	-0.8698598842	-0.27582
C	-0.0898358856	 1.1944907106	-0.2232235826	 0.332684
C	-1.3708396488	 1.9012169895	 0.2275595105	-0.310654
C	-1.0946255506	 2.8533652535	 1.4062288049	-0.261959
C	-0.0339658977	 3.8400258779	 0.9607299737	-0.008685
C	 1.3053026006	 3.9542254408	 1.6267541929	-0.255891
N	 1.151778461	 3.2261199184	 0.3758724544	-0.082679
C	 1.2365231478	 1.8411730534	 0.2751499902	 0.259476
O	 2.2174243229	 1.1878124672	 0.5260561824	-0.306946
H	-1.7555309754	 2.466387621	-0.632239675	 0.14046
H	-2.1179717168	 1.1371748344	 0.4606921898	 0.138596
H	-2.0068103997	 3.3673904062	 1.7213173878	 0.120389
H	-0.7352977859	 2.2787569632	 2.2687594332	 0.122134
H	-0.3978094575	 4.7064408795	 0.4099738286	 0.110056
H	 1.8616059333	 4.884547892	 1.5649677796	 0.137342
H	 1.4908211179	 3.3612875069	 2.5186134038	 0.141496
67.5021	163.2435	236.0743	304.1942	349.9547	413.9276	449.5853	474.7513	526.3478	598.2715	661.1652	752.9113	805.8924	905.5885	923.3352	935.3173	950.191	1008.4289	1072.7725	1078.7561	1128.307	1130.991	1166.072	1171.0417	1210.9479	1242.687	1329.5682	1341.1243	1365.7997	1420.6489	1452.6535	1489.1624	1509.3518	1807.4488	1836.6757	3028.698	3039.3168	3092.9434	3097.3368	3116.5248	3120.6444	3208.1456
O=C1CCC2CN2C1=O	O=C1CC[C@H]2CN2C1=O	
InChI=1S/C6H7NO2/c8-5-2-1-4-3-7(4)6(5)9/h4H,1-3H2	InChI=1S/C6H7NO2/c8-5-2-1-4-3-7(4)6(5)9/h4H,1-3H2/t4-,7?/m0/s1
