21
gdb 41749	3.45805	1.51583	1.38035	1.8418	80.68	-0.2282	0.0773	0.3054	1022.8907	0.187229	-387.085791	-387.079065	-387.078121	-387.116497	28.716	
C	 0.0177956051	 1.5541081442	-0.0271974377	-0.097798
O	 1.4495751224	 1.7709865577	-0.0408516409	-0.288267
C	 1.9408060186	 0.4254397616	 0.0085007241	 0.112776
C	 1.0749958187	-0.3321295756	-1.031327326	 0.00059
C	 1.3922712352	-1.824850863	-1.1686560065	-0.239987
C	 1.0533298474	-2.5803266804	 0.1261932159	-0.196178
C	 1.4018330534	-1.7287489232	 1.3572948979	-0.239985
C	 1.0830597219	-0.2506851849	 1.1093621569	 0.000586
C	-0.02944313	 0.0265038555	 0.0310983296	-0.093402
H	-0.4281069891	 2.0411160121	 0.8487418334	 0.096419
H	-0.4348350766	 1.9732844594	-0.934220625	 0.09642
H	 3.0317206278	 0.4263310018	 0.0043670496	 0.070916
H	 0.9946811732	 0.1634205983	-2.0037232486	 0.065094
H	 0.833021868	-2.2521216548	-2.0086370104	 0.096699
H	 2.455309308	-1.9411379724	-1.4191095478	 0.097521
H	-0.0228464729	-2.7874960285	 0.1381496037	 0.101555
H	 1.5543047082	-3.5527164047	 0.1612930314	 0.091501
H	 0.8491111837	-2.0908260747	 2.2315289928	 0.096698
H	 2.4667785941	-1.8259443134	 1.6077839994	 0.097521
H	 1.0099091193	 0.3173202333	 2.0418813127	 0.065093
H	-1.0123817563	-0.4455785882	 0.0527568856	 0.066226
206.7218	230.9918	315.7653	331.9225	361.9074	441.0516	539.6681	635.915	673.0431	789.2007	797.6083	838.1838	884.7563	919.0061	923.4132	935.75	949.2073	959.4339	977.9754	992.8803	1033.0841	1069.5109	1069.5714	1091.0983	1103.0199	1124.7785	1152.167	1193.6937	1210.5279	1219.8032	1239.4138	1240.0802	1262.922	1273.3328	1309.8039	1329.2114	1349.2814	1359.3847	1362.9061	1381.7322	1409.7944	1490.5455	1490.8133	1507.9903	1528.9812	3015.1696	3015.8836	3016.0631	3033.6053	3051.2334	3054.8097	3055.1758	3063.103	3066.2935	3082.2172	3108.5659	3114.1656
C1OC2C3CCCC2C13	C1O[C@@H]2[C@H]3CCC[C@@H]2[C@@H]13	
InChI=1S/C8H12O/c1-2-5-7-4-9-8(5)6(7)3-1/h5-8H,1-4H2	InChI=1S/C8H12O/c1-2-5-7-4-9-8(5)6(7)3-1/h5-8H,1-4H2/t5-,6+,7-,8+
