20
gdb 53570	4.2642	0.80508	0.77101	1.1015	87.96	-0.231	0.0559	0.2869	1580.2768	0.169994	-365.935224	-365.925829	-365.924885	-365.972165	33.727	
C	-0.070335675	 1.2474835976	-0.58956429	-0.496622
C	-0.0460297055	-0.1412686938	-0.1533972384	 0.061555
C	-0.0284758772	-1.2869464036	 0.2150807004	 0.092864
C	-0.0020319555	-2.6826893857	 0.6412746187	-0.317876
N	-1.2626839094	-3.3609033955	 0.3227483485	-0.069566
C	-1.6053649815	-3.782006404	-1.0151506396	-0.026482
C	-0.3990378958	-4.3101789426	-1.815995593	-0.244571
C	-0.1402987694	-5.3572397569	-0.6871916602	-0.247133
C	-1.3450147452	-4.786876244	 0.0878458151	-0.040716
H	 0.6658133908	 1.4337352087	-1.3794840729	 0.144874
H	-1.0554182418	 1.5197441744	-0.98446697	 0.149136
H	 0.1522824816	 1.9292512812	 0.2387818897	 0.147263
H	 0.8832024678	-3.1718198244	 0.2063226031	 0.115042
H	 0.1219070065	-2.7396747279	 1.7300688007	 0.129007
H	-2.5414975033	-3.4310249789	-1.4357311706	 0.091383
H	-0.6966323139	-4.7816037614	-2.7547867547	 0.105046
H	 0.3919976984	-3.5848082005	-2.0278256307	 0.108151
H	-0.3256639926	-6.3784258782	-1.0272259842	 0.106859
H	 0.8298987785	-5.3361477509	-0.1810033376	 0.100919
H	-2.0390681875	-5.3632221239	 0.6907831455	 0.090868
12.0458	31.1008	87.7419	185.9058	230.1131	271.8799	297.415	374.7869	391.9632	483.178	540.7105	738.0496	750.8023	789.2789	820.875	837.7541	905.98	945.1879	962.3103	978.8039	1008.9794	1046.0809	1049.5583	1054.1516	1058.0368	1100.0503	1131.2092	1170.2682	1215.9258	1219.7259	1249.2434	1260.2621	1275.2285	1282.3876	1360.2964	1398.2281	1414.9695	1473.965	1478.2948	1479.4626	1488.1259	1503.8255	2377.0818	2984.0073	3026.2169	3035.8938	3052.3273	3061.3584	3085.8254	3087.4452	3101.6862	3119.8015	3159.7633	3173.0495
CC#CCN1C2CCC12	CC#CCN1[C@H]2CC[C@@H]12	
InChI=1S/C8H11N/c1-2-3-6-9-7-4-5-8(7)9/h7-8H,4-6H2,1H3	InChI=1S/C8H11N/c1-2-3-6-9-7-4-5-8(7)9/h7-8H,4-6H2,1H3/t7-,8+,9?
