15
gdb 76594	3.59666	0.75974	0.73548	5.6477	77.19	-0.2485	-0.0551	0.1934	1538.0773	0.109571	-457.707478	-457.69803	-457.697086	-457.742898	32.632	
O	 0.1563146065	 1.3616977223	 0.0663036983	-0.414351
C	 0.0411032327	-0.0125228465	 0.0296552185	 0.105494
C	-0.462675242	-0.7288629435	 1.2414058375	 0.033329
O	-0.8791027336	 0.0803040615	 2.3012228131	-0.41371
C	-1.358428377	-0.6857333895	-0.0007840718	-0.328225
C	-2.5221930653	 0.1278540103	-0.0175460025	 0.140924
C	-3.5146518967	 0.8195458522	-0.0596764238	 0.039735
C	-4.6780699074	 1.6592408578	-0.0777247299	 0.016601
O	-5.6938382198	 1.4218044159	-0.6936342341	-0.23744
H	-0.3790653425	 1.66973329	 0.8108415234	 0.294011
H	 0.8027228287	-0.463548018	-0.5967563855	 0.126653
H	-0.0641639755	-1.703576668	 1.5167634809	 0.109875
H	-0.1106182545	 0.2557876601	 2.8570165435	 0.303154
H	-1.4217251839	-1.6177651421	-0.5546055422	 0.131065
H	-4.5783597797	 2.5777448974	 0.5372296447	 0.092886
55.6581	75.9984	94.1389	154.4168	202.4581	211.2801	251.1527	373.4972	380.4783	473.006	514.6308	610.4539	677.6965	683.4317	719.169	776.08	859.8391	971.4972	996.3688	1018.8795	1048.2177	1106.5493	1156.7995	1187.1531	1240.8295	1273.2246	1331.4671	1366.6009	1412.2561	1422.5558	1468.7352	1759.7927	2311.6426	2908.4529	3119.7106	3151.687	3180.2815	3754.3325	3795.6133
OC1C(O)C1C#CC=O	O[C@H]1[C@@H](O)[C@H]1C#CC=O	
InChI=1S/C6H6O3/c7-3-1-2-4-5(8)6(4)9/h3-6,8-9H	InChI=1S/C6H6O3/c7-3-1-2-4-5(8)6(4)9/h3-6,8-9H/t4-,5+,6-
