14
gdb 28996	3.06951	1.53144	1.0217	1.0825	82.26	-0.2276	-0.042	0.1857	1082.1917	0.102327	-399.589997	-399.582677	-399.581733	-399.621692	28.414	
O	 0.1188613667	 1.336354933	 0.0509561723	-0.404584
C	 0.0795021637	-0.0069449699	 0.0282979059	 0.368013
N	 0.0933797841	-0.5976991583	-1.157215512	-0.360768
C	 0.0546054721	-1.9344561841	-1.1964595714	-0.002295
C	 0.0007573053	-2.7283491561	-0.0590634844	-0.13059
C	-0.0133349147	-2.0965804903	 1.1805283655	-0.153563
C	 0.0260975346	-0.7022786513	 1.2592526778	 0.004498
C	 0.0134870594	-0.0157117177	 2.501851075	 0.249232
C	 0.0022315642	 0.5469740841	 3.5662487827	-0.401344
H	 0.1517644972	 1.6154224437	-0.8752164404	 0.299228
H	 0.0676412168	-2.3804401073	-2.1873306423	 0.1164
H	-0.0292818255	-3.8079917211	-0.1390431203	 0.104736
H	-0.0548271953	-2.6705438905	 2.0993203856	 0.117016
H	-0.0065358186	 1.0553142458	 4.4983065962	 0.194022
122.0858	142.3615	230.2671	382.5717	388.8776	474.6479	485.6439	564.3833	571.7146	577.8192	598.6777	601.3736	651.6737	740.0117	797.1407	824.7957	892.2495	973.6939	980.9607	1078.8624	1109.8839	1191.6268	1235.5418	1291.4829	1339.0557	1360.3103	1484.8876	1501.5705	1617.0634	1634.9659	2228.7338	3165.4507	3196.5063	3213.753	3503.5276	3762.1824
OC1=NC=CC=C1C#C	Oc1ncccc1C#C	
InChI=1S/C7H5NO/c1-2-6-4-3-5-8-7(6)9/h1,3-5H,(H,8,9)	InChI=1S/C7H5NO/c1-2-6-4-3-5-8-7(6)9/h1,3-5H,(H,8,9)
