16
gdb 128051	4.37055	1.07213	0.86566	0.7106	75.31	-0.2298	-0.0463	0.1835	1289.028	0.1249	-434.066949	-434.058169	-434.057224	-434.102069	30.516	
C	 0.0700311944	 1.3641515165	 0.0981649509	-0.309695
N	-0.0830158781	-0.074383949	 0.0626799383	-0.308849
C	-1.3152417384	-0.6535984635	 0.0440331794	 0.255451
N	-2.3819070352	 0.0616443907	-0.0072115467	-0.555013
C	-1.2970643336	-2.1339163	 0.0779647718	 0.43832
C	-2.2808240881	-3.0776785167	 0.0600207214	-0.349544
C	-1.5691693014	-4.3017791901	 0.1231989119	 0.035667
N	-0.2712739184	-4.1230416192	 0.1760339897	-0.1338
O	-0.0961426035	-2.7446552652	 0.1467663137	-0.233165
H	 1.1338570569	 1.6058532155	 0.060232145	 0.120897
H	-0.434940573	 1.8230468052	-0.7572561537	 0.147483
H	-0.3670628976	 1.7955662789	 1.0067965231	 0.13636
H	 0.7182941429	-0.6634053416	 0.2019823222	 0.265987
H	-3.2129838724	-0.5231617386	-0.0382098504	 0.215344
H	-3.3461421867	-2.930805229	 0.0102088829	 0.132822
H	-1.9584607479	-5.309961744	 0.1324372706	 0.141734
26.972	64.3648	113.0481	164.5526	210.9997	290.2071	318.9361	404.0181	469.7985	600.5819	642.6871	749.8568	778.2119	801.5999	826.0048	923.7112	929.166	949.6976	972.3214	1035.0247	1063.1949	1159.5318	1176.9558	1189.2321	1203.7537	1239.3123	1336.6809	1368.2998	1455.0502	1471.0869	1495.5308	1515.8323	1563.6151	1634.681	1687.0927	3028.4118	3086.533	3134.9452	3248.1463	3286.3429	3523.8173	3685.003
CNC(=N)C1=CC=NO1	CNC(=N)c1ccno1	
InChI=1S/C5H7N3O/c1-7-5(6)4-2-3-8-9-4/h2-3H,1H3,(H2,6,7)	InChI=1S/C5H7N3O/c1-7-5(6)4-2-3-8-9-4/h2-3H,1H3,(H2,6,7)
