20
gdb 14988	4.33836	1.38367	1.12404	1.0049	77.6	-0.2384	0.0236	0.262	1108.8999	0.178178	-349.012516	-349.004411	-349.003466	-349.045137	30.483	
C	-0.0845731407	 1.3920813171	 0.007637268	-0.239003
O	 0.0897388682	-0.0034649063	 0.0425551147	-0.246922
C	 0.6801711264	-0.5547021674	-1.133170815	 0.107732
C	 1.3175211443	-1.8874435569	-0.7401702693	-0.21996
C	 1.7307641802	-2.6830566786	-1.9829383167	-0.21469
C	 0.5131537051	-3.0086251172	-2.8616617517	-0.238153
C	-0.4218921829	-1.8344495665	-2.9879548945	-0.053276
C	-0.3420687296	-0.7404051158	-2.2316312486	-0.067609
H	 0.8711785014	 1.9179397374	-0.1488689244	 0.101358
H	-0.7832945947	 1.717345275	-0.7779423075	 0.104031
H	-0.4951667713	 1.6905306256	 0.9758334312	 0.125394
H	 1.4693906021	 0.1366642992	-1.4815904192	 0.065048
H	 2.1723544691	-1.7040946017	-0.0819181871	 0.094615
H	 0.5780508137	-2.4511637853	-0.1586162129	 0.108922
H	 2.4497862777	-2.0940337546	-2.567331897	 0.098948
H	 2.2464232121	-3.6039770483	-1.6915746424	 0.094389
H	 0.8364758076	-3.3370099262	-3.8577144476	 0.101142
H	-0.0398048725	-3.8618743481	-2.4403032774	 0.109729
H	-1.2035747748	-1.9092908444	-3.7413216202	 0.084211
H	-1.0468276312	 0.0737300631	-2.3807339225	 0.084092
80.9117	103.0032	182.8626	235.8381	294.0288	311.2014	382.1468	466.3963	482.8198	563.1608	672.4307	737.5283	821.3718	868.383	915.0672	935.9984	949.0118	1003.2183	1031.1793	1064.7344	1075.972	1108.3134	1141.1329	1152.9506	1182.2027	1206.6048	1233.8895	1251.1843	1272.9393	1339.2244	1347.4278	1370.0084	1378.0872	1383.3859	1423.4902	1475.1793	1479.0838	1490.3928	1491.5282	1498.3568	1510.2635	1720.8187	2924.9318	2970.5534	2996.1355	3015.9413	3020.0709	3037.6026	3040.035	3072.9806	3085.9584	3107.6704	3138.8304	3166.7604
COC1CCCC=C1	CO[C@H]1CCCC=C1	
InChI=1S/C7H12O/c1-8-7-5-3-2-4-6-7/h3,5,7H,2,4,6H2,1H3	InChI=1S/C7H12O/c1-8-7-5-3-2-4-6-7/h3,5,7H,2,4,6H2,1H3/t7-/m1/s1
