19
gdb 119943	2.27853	1.13256	0.92702	0.4713	78.61	-0.2469	0.0366	0.2835	1351.6374	0.155899	-422.957522	-422.947289	-422.946345	-422.993441	36.36	
C	 0.5335491783	 1.3857195411	-0.0829811835	-0.22388
O	 0.6906347945	-0.0103169252	-0.1511448709	-0.236363
C	-0.1209861171	-0.5993958804	-1.1465648457	-0.064105
C	 0.1078501293	-2.085094795	-1.1262122258	-0.088957
C	-0.1722078694	-2.9246090656	-2.3392226934	 0.091024
O	-0.6150824117	-2.3192771005	-3.5112175595	-0.422469
C	 1.2748496044	-2.7207141084	-1.8943167029	-0.254724
C	 2.1086998561	-1.939399837	-2.7545051737	 0.300747
C	 2.7590717254	-1.3113763171	-3.5510781574	-0.441415
H	 0.8080485946	 1.8757585779	-1.0307449052	 0.103998
H	-0.502840118	 1.6711602724	 0.1604299883	 0.101166
H	 1.194038606	 1.7515777926	 0.7070278068	 0.125395
H	-1.1862055648	-0.3888386262	-0.9484810493	 0.090925
H	 0.110983298	-0.1854315258	-2.1374857098	 0.098645
H	-0.0909437184	-2.5487074124	-0.164432084	 0.102273
H	-0.5955274213	-3.9148034473	-2.1864216595	 0.105155
H	 0.1576336689	-2.1138785735	-4.0545186301	 0.292492
H	 1.7639287418	-3.5623822983	-1.4143098411	 0.118452
H	 3.3664952534	-0.7413493613	-4.2098992535	 0.201643
44.5738	86.946	111.1466	135.2641	159.8044	221.2985	234.4064	283.9258	324.8479	390.8769	439.982	562.3483	596.1024	616.6906	650.6618	664.5284	771.7926	788.7356	913.7504	952.326	992.7561	1015.5896	1059.6035	1118.4698	1124.9302	1156.1681	1169.4359	1188.2624	1226.0664	1236.6627	1269.7745	1347.6063	1362.2354	1374.2447	1415.1736	1446.5032	1482.5949	1485.6237	1502.2467	1522.0907	2223.6267	2956.4027	2968.656	3009.0246	3026.8025	3112.4589	3128.7532	3152.5516	3162.8465	3501.7446	3742.897
COCC1C(O)C1C#C	COC[C@H]1[C@@H](O)[C@H]1C#C	
InChI=1S/C7H10O2/c1-3-5-6(4-9-2)7(5)8/h1,5-8H,4H2,2H3	InChI=1S/C7H10O2/c1-3-5-6(4-9-2)7(5)8/h1,5-8H,4H2,2H3/t5-,6+,7-/m0/s1
