18
gdb 85259	2.53794	1.58252	1.19158	5.4212	71.86	-0.2532	0.0047	0.2579	1083.125	0.14844	-439.107957	-439.0998	-439.098855	-439.140965	30.913	
C	 0.6647376774	 1.355664197	-0.0039835861	-0.397445
C	-0.1224939223	 0.0523169791	-0.0421711189	 0.117887
C	 0.2080988645	-0.853227474	-1.251702475	-0.346231
C	 1.259447798	-1.779825721	-0.6788250492	 0.159033
C	 1.832062723	-2.9733312806	-1.3391749821	-0.284895
N	 2.6783095653	-1.7946303777	-1.1045577607	-0.334709
C	 1.053247251	-1.7589503578	 0.8175066434	 0.44379
O	 1.5151939905	-2.4947295166	 1.639018657	-0.346576
O	 0.205384924	-0.7406343249	 1.1248360423	-0.239148
H	 1.738834672	 1.1640567107	-0.0961928987	 0.135384
H	 0.3557587478	 2.0093558531	-0.8260504883	 0.120148
H	 0.4894164132	 1.8781725324	 0.9397311271	 0.139423
H	-1.1939619276	 0.2568319698	 0.025430235	 0.09901
H	-0.6786399839	-1.4179165025	-1.5571143786	 0.12408
H	 0.5545140155	-0.277016273	-2.1138748584	 0.112316
H	 2.0795674439	-3.8333589274	-0.7243122429	 0.147657
H	 1.5031642548	-3.1941279555	-2.3515714925	 0.117162
H	 2.7629536829	-1.2585503212	-1.9662831233	 0.233113
62.4176	112.1365	243.7265	254.7465	267.8219	313.8384	365.8869	422.9192	490.3756	575.8155	694.5074	727.6588	745.194	821.7044	845.9057	885.6648	936.2214	961.0163	982.2982	984.2894	1043.7307	1054.3831	1104.337	1130.1865	1143.7775	1158.5578	1218.3522	1264.1257	1296.0921	1325.1362	1354.5501	1386.4833	1410.9515	1414.2889	1481.6958	1491.4068	1497.2861	1499.6596	1886.2001	3039.0021	3048.8044	3075.7334	3098.9285	3110.1814	3113.4916	3127.0389	3205.7755	3483.2895
CC1CC2(CN2)C(=O)O1	C[C@H]1C[C@]2(CN2)C(=O)O1	
InChI=1S/C6H9NO2/c1-4-2-6(3-7-6)5(8)9-4/h4,7H,2-3H2,1H3	InChI=1S/C6H9NO2/c1-4-2-6(3-7-6)5(8)9-4/h4,7H,2-3H2,1H3/t4-,6-/m0/s1
