17
gdb 31858	4.90601	1.03844	0.8625	2.0848	81.67	-0.1935	-0.0133	0.1802	1311.5769	0.137747	-418.065917	-418.057628	-418.056683	-418.098698	31.214	
C	-0.0425411157	 1.4031201115	 0.002669461	-0.227652
O	-0.0021250425	-0.0192389848	 0.0148635107	-0.269369
C	 0.6414406836	-0.6010770205	 1.0548667706	 0.436036
N	 1.1892591312	 0.1486202275	 1.99576694	-0.355046
C	 1.8137407178	-0.4638744284	 3.0096079385	-0.067478
C	 1.9289543391	-1.8466421254	 3.1348434017	 0.253905
N	 2.6556278774	-2.4377750699	 4.1798426147	-0.594654
C	 1.3379962805	-2.6209071676	 2.1225391912	-0.126099
C	 0.6865494566	-2.0026702541	 1.0744901749	-0.209439
H	 0.9649920998	 1.8296334265	-0.0274954888	 0.128801
H	-0.5933274152	 1.6734367826	-0.8999338748	 0.121501
H	-0.5530336521	 1.7945619034	 0.8882079441	 0.127791
H	 2.2506025298	 0.1872167072	 3.765459725	 0.091546
H	 2.7495102776	-1.8441221773	 4.9928925104	 0.245237
H	 2.3106068156	-3.3479441202	 4.4528187091	 0.244702
H	 1.398523855	-3.7046739179	 2.1656081295	 0.094394
H	 0.2170720915	-2.5679205824	 0.2787962622	 0.105825
93.5306	148.5494	196.1352	221.1854	235.4897	363.8594	373.1705	436.213	441.5438	540.6499	573.6068	651.1316	672.8641	771.647	783.0414	856.2214	866.2908	921.1268	967.2886	1024.7913	1066.378	1106.554	1152.7071	1179.3532	1203.9056	1296.6083	1311.561	1327.89	1344.6546	1448.0737	1472.0989	1477.93	1501.631	1535.992	1614.8138	1649.7637	1664.4651	3034.3858	3100.7252	3132.4125	3138.6533	3168.985	3209.3478	3546.8122	3640.0436
COC1=NC=C(N)C=C1	COc1ncc(N)cc1	
InChI=1S/C6H8N2O/c1-9-6-3-2-5(7)4-8-6/h2-4H,7H2,1H3	InChI=1S/C6H8N2O/c1-9-6-3-2-5(7)4-8-6/h2-4H,7H2,1H3
