22
gdb 58816	3.17797	1.26287	1.09249	1.6925	85.26	-0.2027	0.079	0.2816	1216.972	0.193706	-367.131347	-367.122529	-367.121585	-367.16453	35.152	
C	-0.0428153293	 1.5656729135	 0.2191536014	-0.382672
C	-0.0228159101	 0.0389604692	 0.0299846437	-0.078718
C	 0.8755775319	-0.6335012806	 1.0753418465	-0.400533
C	-1.4316236697	-0.5084811985	 0.0110253294	 0.39088
C	-2.2506000167	-0.9275208069	 1.2038445488	-0.344852
C	-1.9645654759	-1.934094399	 0.1133435112	-0.144291
C	-2.8311264558	-1.6874580087	-1.153706473	-0.050345
N	-3.763805488	-0.5590013666	-0.8936562829	-0.340852
C	-2.3433965933	-0.3010428922	-1.2472720482	-0.126341
H	 0.9665047774	 1.9848287833	 0.148525849	 0.105615
H	-0.6633896018	 2.055092502	-0.5385640782	 0.112012
H	-0.4514317081	 1.8273020688	 1.2013483046	 0.118382
H	 0.4148798765	-0.1677862091	-0.9591383174	 0.068208
H	 0.8834802442	-1.7220125995	 0.9597797849	 0.113427
H	 1.9063629082	-0.2785706698	 0.9769421452	 0.110844
H	 0.5459903903	-0.4023188729	 2.0939117973	 0.117904
H	-1.6808142225	-1.0921042629	 2.1126523334	 0.103662
H	-3.2542567326	-0.549698986	 1.3511153787	 0.137832
H	-1.4187236614	-2.8517248432	 0.2928415862	 0.085189
H	-3.0334369663	-2.4130432349	-1.9307572097	 0.090554
H	-4.3085434727	-0.4236635985	-1.7451881478	 0.226909
H	-2.0776136344	 0.2938273126	-2.1124601533	 0.087186
66.9013	147.0121	194.436	238.2167	260.1233	297.6274	339.349	419.6136	442.3229	456.8682	562.5771	646.6955	731.8895	793.1376	799.2981	840.6328	847.1334	890.2337	912.9272	922.0372	930.1117	952.6511	963.6052	980.346	1000.8454	1050.7362	1084.4536	1101.0066	1104.6497	1128.6449	1146.583	1165.2789	1199.9991	1225.8523	1281.9965	1298.0436	1348.5918	1351.9391	1373.6792	1392.0949	1397.2076	1418.8882	1470.507	1487.6184	1492.9569	1503.905	1512.0574	2977.8076	3027.4771	3033.107	3096.1292	3098.671	3102.0373	3103.5274	3141.1796	3182.4234	3188.2255	3201.2548	3231.4736	3470.4826
CC(C)C12CC1C1NC21	CC(C)[C@]12C[C@H]1[C@H]1N[C@@H]21	
InChI=1S/C8H13N/c1-4(2)8-3-5(8)6-7(8)9-6/h4-7,9H,3H2,1-2H3	InChI=1S/C8H13N/c1-4(2)8-3-5(8)6-7(8)9-6/h4-7,9H,3H2,1-2H3/t5-,6+,7+,8+/m0/s1
