21
gdb 104650	2.81822	1.13083	0.95079	1.7526	80.92	-0.2143	-0.0298	0.1845	1331.4683	0.180782	-420.371658	-420.36173	-420.360786	-420.406486	36.043	
C	 0.9433645118	-0.6446192984	-1.3768541403	-0.334704
N	 0.1516376128	-0.2169804945	-0.2205493354	-0.326889
C	 0.6681570291	-0.6413647109	 1.0639474902	 0.197488
C	-0.4074908334	-0.5448933884	 2.2012007393	-0.207654
N	-0.6580134904	-1.9867429781	 2.0780469644	-0.04973
C	-0.8670912044	-2.7604471028	 3.2785022104	-0.323744
C	 0.5892709255	-2.1757629169	 1.3239267583	-0.205933
C	 1.9694547941	 0.0308222659	 1.4688195399	 0.117175
O	 2.4317091396	 0.9916293508	 0.9071702081	-0.261557
H	 0.8868996466	-1.7324330301	-1.4847565442	 0.121743
H	 0.5044785675	-0.2072787569	-2.2778369779	 0.122909
H	 2.0028899652	-0.3537484244	-1.3349148569	 0.116218
H	 0.1222192735	 0.7988711374	-0.2162588268	 0.225381
H	 0.0220035095	-0.2498683287	 3.17363056	 0.084507
H	-1.2604599309	 0.1009078634	 1.9696115511	 0.117599
H	-1.7972225803	-2.4473322754	 3.7643039326	 0.124791
H	-0.9644229253	-3.8210581391	 3.0233700669	 0.124262
H	-0.0453317113	-2.6600132711	 4.0151164867	 0.086491
H	 0.5038243032	-2.8209606186	 0.4447961932	 0.11548
H	 1.4318893963	-2.5269619335	 1.9441102748	 0.084415
H	 2.4654002813	-0.4036509598	 2.3689322457	 0.071747
78.2706	104.7553	112.0144	186.1812	211.123	231.6778	285.6457	300.8403	312.633	347.6129	391.6753	432.3706	506.2674	716.2489	764.209	794.5498	883.4342	897.4125	931.021	976.2477	1013.6398	1056.8648	1076.802	1106.7509	1134.4942	1148.2858	1162.1038	1192.1418	1217.0885	1241.9809	1261.2386	1303.6989	1310.5706	1348.3474	1416.5166	1452.4319	1457.3665	1483.7565	1487.6786	1491.6515	1495.4997	1499.0023	1515.8332	1526.8075	1820.1844	2850.4648	2911.7452	2950.1716	2962.6054	2999.9672	3056.6017	3068.3904	3071.8025	3079.5126	3099.8011	3110.1642	3507.8926
CNC1(CN(C)C1)C=O	CNC1(CN(C)C1)C=O	
InChI=1S/C6H12N2O/c1-7-6(5-9)3-8(2)4-6/h5,7H,3-4H2,1-2H3	InChI=1S/C6H12N2O/c1-7-6(5-9)3-8(2)4-6/h5,7H,3-4H2,1-2H3
