20
gdb 20085	3.31555	1.4675	1.22427	0.5532	76.2	-0.2139	0.0789	0.2927	1075.5529	0.176693	-345.120281	-345.111392	-345.110448	-345.153984	32.35	
C	-0.1377308434	 1.576777506	 0.5827605434	-0.415327
C	 0.01694646	 0.1103933323	 0.2384668781	-0.01
C	 0.4155147746	-0.375022315	-1.1239431853	-0.035241
C	 0.7008532476	 0.5485537144	-2.2671634727	 0.015305
C	 1.0807348734	-0.0287427496	-3.5833803414	-0.247693
N	-0.2428397232	 0.5901045086	-3.4004287439	-0.324453
N	 1.3088708578	-0.5458804296	 0.0237105507	-0.109774
C	 2.5560676101	 0.2001074599	 0.1104008611	-0.310676
H	 0.4996941809	 2.2352459509	-0.0094928492	 0.12303
H	-1.1744123079	 1.8873475848	 0.4157789176	 0.127795
H	 0.0926489712	 1.7499306616	 1.6397692768	 0.122888
H	-0.6755983589	-0.522755534	 0.7945983254	 0.086763
H	-0.0163339735	-1.3187681902	-1.4687522608	 0.074826
H	 1.0956724993	 1.5280069651	-2.0180226937	 0.09112
H	 1.7516241052	 0.5118458426	-4.2450659343	 0.118693
H	 1.1456705491	-1.1116666264	-3.6578203607	 0.113494
H	-0.9467146307	-0.1361594081	-3.2817809635	 0.230026
H	 2.5149396527	 1.2492098678	-0.2135556528	 0.101047
H	 2.8993944556	 0.1848550131	 1.149905015	 0.122442
H	 3.3105140102	-0.3083478841	-0.4981796797	 0.125736
56.8445	118.6096	147.8852	175.178	195.9211	258.9542	305.4541	336.6401	470.9947	504.7398	563.8443	723.0626	780.8016	809.3984	867.0799	901.8394	958.3425	978.6545	995.6929	1045.5593	1077.3803	1104.8351	1132.4654	1139.8904	1154.6457	1165.825	1170.3194	1191.318	1237.5687	1253.6523	1296.488	1333.1974	1351.2772	1400.8931	1417.108	1450.4215	1466.8221	1484.4196	1494.1491	1503.915	1505.8742	1512.1254	3000.4213	3039.0252	3055.6095	3069.0297	3088.0805	3095.4353	3100.3684	3105.5272	3130.4862	3159.9751	3191.9499	3483.233
CC1C(C2CN2)N1C	C[C@H]1[C@@H]([C@H]2CN2)N1C	
InChI=1S/C6H12N2/c1-4-6(8(4)2)5-3-7-5/h4-7H,3H2,1-2H3	InChI=1S/C6H12N2/c1-4-6(8(4)2)5-3-7-5/h4-7H,3H2,1-2H3/t4-,5+,6-,8?/m0/s1
