21
gdb 69591	3.31143	1.30064	1.2187	1.5161	83.11	-0.2265	0.0903	0.3168	1146.1962	0.182833	-387.075193	-387.066949	-387.066005	-387.107478	33.261	
C	-0.0691731018	 1.4925551617	-0.0244096604	-0.487666
C	 0.0078362518	-0.0127659488	 0.0184457557	 0.329389
C	-0.8101376412	-0.8172832307	 0.9990882619	-0.342291
C	 0.6976841643	-0.7964152303	 1.1157720717	-0.171291
C	 1.4136919193	-1.9164771056	 0.4215523677	 0.471163
C	 2.899784397	-2.1297886317	 0.553127985	-0.339966
C	 1.9092884871	-3.1737013705	 1.0522732667	-0.335146
O	 0.8184237407	-2.0516295561	-0.8531116096	-0.297054
C	 0.3703637232	-0.7595778783	-1.259527519	-0.149033
H	 0.8558182372	 1.928024151	-0.4203012209	 0.117816
H	-0.8949008106	 1.8320798064	-0.6611598546	 0.119955
H	-0.234143608	 1.9085152617	 0.9741767147	 0.118362
H	-1.3712806742	-0.2613578659	 1.7428053476	 0.105371
H	-1.2825149714	-1.7345986977	 0.6619060326	 0.120999
H	 1.1747093585	-0.3059386866	 1.9562247365	 0.08564
H	 3.4438629252	-2.3611317197	-0.3557577736	 0.118561
H	 3.4527967833	-1.5477227261	 1.2835372009	 0.107183
H	 1.78043433	-3.2992164229	 2.121880773	 0.113703
H	 1.8134129608	-4.0848043798	 0.4722725524	 0.122657
H	-0.4689754347	-0.9089699965	-1.9474579828	 0.103916
H	 1.1656290735	-0.2142052035	-1.7942603655	 0.087734
112.8424	187.9355	205.396	231.077	313.6704	337.8971	369.6676	386.2656	477.6485	556.711	600.4286	731.4592	761.9106	768.867	854.2497	880.8855	887.0844	933.9933	949.5745	952.2893	966.6215	1001.8366	1037.1354	1047.791	1052.5233	1068.5538	1072.6529	1076.3276	1095.7794	1147.2253	1188.7537	1227.5658	1234.4248	1260.4465	1312.8051	1330.3701	1391.9785	1415.7358	1428.7405	1449.5452	1482.6093	1489.8631	1499.1839	1504.6884	1516.4307	2966.7472	3022.0296	3063.0416	3079.1906	3100.571	3125.7514	3126.8172	3134.3765	3179.9745	3213.751	3214.4532	3228.28
CC12CC1C1(CC1)OC2	C[C@]12C[C@H]1C1(CC1)OC2	
InChI=1S/C8H12O/c1-7-4-6(7)8(2-3-8)9-5-7/h6H,2-5H2,1H3	InChI=1S/C8H12O/c1-7-4-6(7)8(2-3-8)9-5-7/h6H,2-5H2,1H3/t6-,7-/m1/s1
