21
gdb 121165	3.07957	0.89051	0.75325	2.3194	79.07	-0.2558	0.0718	0.3276	1538.2246	0.181385	-424.18821	-424.178725	-424.177781	-424.223189	34.891	
O	 0.0233314667	 1.4537597455	-0.0252061728	-0.420828
C	 0.0486310708	 0.0350836795	 0.0157329407	-0.074614
C	-1.3886354554	-0.4615681587	-0.0868291683	-0.205166
C	-1.4977909503	-1.9790116869	-0.0470061106	-0.059888
C	-1.2271988151	-2.744280387	 1.2893864926	-0.237178
C	-2.4455438365	-3.6686234566	 0.9927434825	-0.321378
C	-2.8831186076	-2.6408745873	-0.0518848903	 0.446543
C	-4.1972200219	-2.0196599057	-0.2279470153	-0.264896
O	-3.6499880873	-2.9189749938	-1.2058281998	-0.275248
H	 0.9274728176	 1.7734591865	 0.0443980445	 0.285282
H	 0.6431522909	-0.3784749014	-0.8157364906	 0.085368
H	 0.5034123385	-0.3280199382	 0.9518420491	 0.087835
H	-1.9687980639	-0.0207126107	 0.7331906063	 0.101525
H	-1.8188250203	-0.0799171669	-1.0211703317	 0.112534
H	-0.9007000743	-2.4222934345	-0.8544726113	 0.082275
H	-0.2552230173	-3.2285100318	 1.3969495237	 0.102462
H	-1.4000522462	-2.1048403804	 2.1599705079	 0.105055
H	-2.1478385978	-4.6099490182	 0.5214354066	 0.115581
H	-3.1342811868	-3.8857273644	 1.8123605107	 0.105419
H	-5.0531813195	-2.4007550392	 0.3284691408	 0.111765
H	-4.2755539444	-0.9806300897	-0.5445643749	 0.117554
73.1108	88.1195	110.2713	119.0967	250.6643	266.1355	275.6142	337.5457	345.4203	460.8763	516.7676	554.0048	740.5713	784.9754	821.2701	848.572	892.1462	901.8537	931.4583	955.7489	988.4833	1024.9901	1075.0934	1093.1621	1116.6116	1131.4317	1155.5818	1168.6557	1170.4221	1215.5826	1224.8307	1236.8763	1252.5471	1274.4494	1276.6008	1312.6528	1326.2851	1388.431	1427.7295	1460.7505	1476.6358	1490.2584	1498.4196	1527.0876	1537.5611	2958.6492	2984.1999	3022.9692	3028.2851	3058.7481	3061.9149	3071.3848	3078.9425	3108.5602	3123.9249	3165.3009	3830.7248
OCCC1CCC11CO1	OCC[C@H]1CC[C@]21CO2	
InChI=1S/C7H12O2/c8-4-2-6-1-3-7(6)5-9-7/h6,8H,1-5H2	InChI=1S/C7H12O2/c8-4-2-6-1-3-7(6)5-9-7/h6,8H,1-5H2/t6-,7-/m1/s1
