15
gdb 44267	3.26253	1.45603	1.19467	3.3877	64.55	-0.26	-0.0506	0.2094	1007.4457	0.113706	-457.81522	-457.808105	-457.807161	-457.847222	26.772	
O	-0.3863518865	 0.3646864115	 0.7043587712	-0.312518
C	-0.128940145	 1.3990311628	 0.1837823328	 0.45913
O	-1.0019525839	 2.2697029165	-0.4324023059	-0.258528
C	 0.0907244589	 3.2003356592	-0.7691678633	 0.012258
C	 1.1013691299	 2.2794631546	-0.0580327747	-0.234999
C	 1.6005925386	 3.0275662454	 1.2021035986	-0.23969
C	 0.5372477854	 4.1104302709	 1.4804170663	-0.338686
C	-0.0192820549	 4.4621521613	 0.0994331479	 0.411785
O	-0.4192663255	 5.5302875024	-0.2764214047	-0.293864
H	 0.1365116372	 3.3855035051	-1.8408060928	 0.117892
H	 1.8897699446	 1.8080328273	-0.6435464387	 0.122062
H	 1.7516784349	 2.3435018776	 2.039914502	 0.137363
H	 2.5640457358	 3.4966395544	 0.9806852721	 0.124956
H	-0.2849242367	 3.7094369037	 2.0865487286	 0.15437
H	 0.9161582773	 4.9989612773	 1.9866361205	 0.138469
87.8107	125.9867	228.6523	241.8465	421.4635	473.7263	516.7737	572.1673	653.1199	733.0573	769.3475	787.5645	833.1137	883.579	898.0001	941.2833	962.9878	1043.8003	1050.3928	1100.8148	1135.4274	1169.2936	1180.0275	1240.0266	1247.3511	1280.1342	1295.045	1308.5288	1349.8828	1458.244	1495.3814	1858.2908	1944.5246	3044.0538	3061.2103	3113.4532	3128.1297	3132.3445	3144.4591
O=C1OC2C1CCC2=O	O=C1O[C@@H]2[C@H]1CCC2=O	
InChI=1S/C6H6O3/c7-4-2-1-3-5(4)9-6(3)8/h3,5H,1-2H2	InChI=1S/C6H6O3/c7-4-2-1-3-5(4)9-6(3)8/h3,5H,1-2H2/t3-,5-/m1/s1
