21
gdb 37308	3.08206	1.57783	1.28957	0.3766	86.39	-0.2339	0.0284	0.2623	1056.3963	0.186124	-349.940273	-349.933107	-349.932162	-349.971578	30.132	
C	 0.0108056319	 1.4869143031	-0.0647339237	-0.282209
C	 1.3220573412	 0.7593330878	 0.0636148859	-0.068553
C	-0.0037660529	-0.0050323834	 0.0904641979	-0.065141
C	 0.3626287951	-0.7018612059	-1.2350320332	-0.053061
C	-0.5081740467	-0.5444234391	-2.4410470355	-0.061893
C	-0.0193153076	-0.1128132566	-3.6053081441	-0.064556
C	 1.4237429217	 0.3016043226	-3.779315457	-0.254443
C	 1.9784850131	 0.9586373975	-2.4989186339	-0.225145
C	 1.7241183486	 0.0882091416	-1.2627584488	-0.003572
H	-0.2887862818	 2.0461560812	 0.8159537142	 0.107433
H	-0.2921511061	 1.9452666665	-1.0025958854	 0.110105
H	 1.9989200304	 0.9627852079	 0.885166476	 0.080591
H	-0.4912112056	-0.4905479646	 0.9275625365	 0.07933
H	 0.5518866175	-1.7663153596	-1.0522882783	 0.080228
H	-1.5568710682	-0.8213307124	-2.3502979391	 0.080464
H	-0.6685607169	-0.0476174608	-4.4750751087	 0.082428
H	 2.0352387708	-0.5727938004	-4.0475247937	 0.10571
H	 1.5160837237	 0.9957735206	-4.6220464665	 0.097064
H	 3.048336246	 1.1678255621	-2.6108395835	 0.087892
H	 1.4822334086	 1.9270237627	-2.3753987283	 0.101172
H	 2.5561039672	-0.6057048008	-1.1146076207	 0.066154
140.7317	143.1628	280.1689	348.5598	427.0769	449.0944	517.0551	546.5064	655.8197	722.7043	725.8574	776.5306	798.6199	813.0913	877.7918	927.3897	948.6149	970.5141	978.4914	996.9853	1010.5072	1021.4515	1033.127	1066.7373	1074.8035	1084.3793	1091.3786	1115.8741	1144.0842	1180.5613	1216.5806	1228.3763	1252.8654	1272.8695	1293.3304	1320.4985	1336.8195	1354.9863	1363.8241	1383.061	1416.7689	1482.0052	1489.3147	1501.2559	1706.4543	2997.7069	3024.2451	3034.2987	3054.6229	3059.7189	3080.6993	3113.0076	3135.4179	3161.8191	3170.4254	3179.4622	3200.7107
C1C2C1C1C=CCCC21	C1[C@H]2[C@@H]1[C@H]1C=CCC[C@@H]21	
InChI=1S/C9H12/c1-2-4-7-6(3-1)8-5-9(7)8/h1,3,6-9H,2,4-5H2	InChI=1S/C9H12/c1-2-4-7-6(3-1)8-5-9(7)8/h1,3,6-9H,2,4-5H2/t6-,7+,8-,9+/m0/s1
