16
gdb 54399	3.45026	1.45626	1.25504	2.5425	68.64	-0.2423	-0.0076	0.2347	1004.5851	0.124754	-437.86921	-437.861644	-437.8607	-437.901444	29.643	
N	 0.0702201487	 1.0561701524	 0.7492025823	-0.532064
C	 0.0129864877	 0.0515515545	-0.1609171973	 0.256932
O	 0.8920138352	-0.2262853216	-0.9547396659	-0.37118
C	-1.2631341554	-0.7507068287	-0.0897641126	 0.318105
C	-1.4307994843	-2.0327177035	 0.7965446836	-0.243457
C	-2.8947116562	-1.5346996693	 0.6167972247	 0.000234
O	-2.3719030763	-0.1602979372	 0.6814819077	-0.334777
C	-3.0984638298	-1.7157005982	-0.9002573264	-0.093976
C	-1.9734092901	-1.1859919799	-1.3825124022	-0.105425
H	 0.8610920185	 1.6784900782	 0.7409427699	 0.2634
H	-0.7363186856	 1.2642245321	 1.3146345945	 0.277662
H	-1.1423399949	-2.9935554392	 0.3695919806	 0.115929
H	-1.0516201754	-1.893528561	 1.8117270841	 0.110988
H	-3.7024288986	-1.7436519957	 1.3161263682	 0.087509
H	-3.9426858635	-2.1680457333	-1.3984663538	 0.116953
H	-1.5913945199	-1.0654203097	-2.3839047474	 0.133166
57.9385	182.0952	191.0153	309.6219	369.2236	424.9008	504.7992	540.3863	592.9216	625.4189	648.4796	713.7653	734.6877	769.1847	831.7584	875.7156	885.1131	912.0919	941.797	974.7241	1001.9097	1042.134	1060.3654	1096.4941	1127.1585	1201.9341	1209.5512	1235.2374	1267.3837	1303.8202	1412.9643	1488.2453	1603.9571	1614.6426	1800.2169	3071.9962	3141.2969	3151.1091	3242.6266	3273.5822	3594.064	3734.3259
NC(=O)C12CC(O1)C=C2	NC(=O)[C@@]12C[C@@H](O1)C=C2	
InChI=1S/C6H7NO2/c7-5(8)6-2-1-4(3-6)9-6/h1-2,4H,3H2,(H2,7,8)	InChI=1S/C6H7NO2/c7-5(8)6-2-1-4(3-6)9-6/h1-2,4H,3H2,(H2,7,8)/t4-,6+/m0/s1
