15
gdb 44665	3.07354	1.86314	1.6205	2.5666	67.85	-0.2504	-0.0415	0.2089	849.2007	0.115315	-416.808425	-416.802262	-416.801318	-416.838969	24.891	
O	 0.0215293479	 0.0174075729	-0.3120010327	-0.307237
C	-0.010137492	 1.1859480503	-0.0293627408	 0.402218
C	-1.2684631511	 2.0334038731	 0.2123153545	-0.307343
C	-0.7349165491	 3.3109841008	 0.88932226	-0.050588
N	-0.5427743645	 2.960801293	 2.318265985	-0.185541
C	 0.6689815844	 2.5995545355	 2.4281813321	 0.037322
N	 1.5532051232	 2.8161183142	 1.3172260245	-0.139008
C	 0.7009416477	 3.4783634986	 0.3260842996	-0.06281
C	 1.193520496	 2.1068085292	 0.0301173655	-0.143671
H	-1.7044688076	 2.2658388501	-0.7677902221	 0.135059
H	-2.01208184	 1.4966505016	 0.8038730196	 0.146095
H	-1.3846307342	 4.1778595897	 0.776262558	 0.096715
H	 1.0987178474	 2.1894876509	 3.3363787266	 0.140138
H	 1.0671043788	 4.3805382958	-0.1508012512	 0.113034
H	 2.0517847132	 1.8662637243	-0.5870079486	 0.125618
111.037	247.6353	370.3904	445.2906	477.7079	599.3021	620.2312	650.3852	737.9039	783.8915	823.3986	836.8016	862.7592	878.3579	925.3129	961.4611	995.9072	1001.7515	1022.6339	1027.6772	1083.8849	1151.3114	1181.3063	1216.9574	1236.6228	1278.137	1295.6596	1302.5051	1318.1142	1355.2126	1442.3448	1676.4775	1843.3534	3039.8489	3124.8199	3127.2139	3175.3076	3186.7127	3201.8712
O=C1CC2N=CN3C2C13	O=C1C[C@H]2[N][CH]N3[C@H]2[C@H]13	
InChI=1S/C6H6N2O/c9-4-1-3-5-6(4)8(5)2-7-3/h2-3,5-6H,1H2	InChI=1S/C6H6N2O/c9-4-1-3-5-6(4)8(5)2-7-3/h2-3,5-6H,1H2/t3-,5-,6+,8?/m1/s1
