23
gdb 96590	2.48656	1.35866	0.99227	0.7077	82.13	-0.2541	0.089	0.3431	1279.4859	0.20757	-425.429097	-425.420134	-425.41919	-425.462426	34.841	
C	 0.3579814757	 1.7287720466	-0.0778064236	-0.404185
C	 0.0947740669	 0.2151997016	-0.035234658	 0.058034
C	 0.8009350338	-0.4520435752	-1.2339974816	-0.196757
C	 0.7253667652	-1.9796471044	-1.2684425126	-0.099025
O	-0.5883975909	-2.4054783089	-0.9025932334	-0.240392
C	-0.6191649434	-3.2787801327	 0.1936422418	-0.002291
O	 0.1075263516	-2.8277735987	 1.3000455843	-0.230815
C	-0.3079696944	-1.5816686787	 1.853559204	-0.076771
C	 0.4707977381	-0.355230098	 1.3517682233	-0.201225
H	 1.4147578554	 1.9510977879	 0.1136853066	 0.111281
H	 0.1043995996	 2.1497634032	-1.056547105	 0.109433
H	-0.233528939	 2.2566791489	 0.6775809499	 0.107695
H	-0.9823849053	 0.0582469686	-0.1699043921	 0.082819
H	 0.3552445399	-0.0459368549	-2.1501172879	 0.099518
H	 1.8605313246	-0.1607440725	-1.2529479653	 0.090846
H	 0.9491478578	-2.3530521452	-2.2761593305	 0.095499
H	 1.4574445631	-2.4093047937	-0.5784144768	 0.114353
H	-1.6865371271	-3.3986951659	 0.4300973651	 0.096853
H	-0.1757806124	-4.2553543659	-0.0495519488	 0.09557
H	-1.3866539882	-1.436212793	 1.6929813909	 0.094078
H	-0.1429620495	-1.6780663331	 2.9325225341	 0.102403
H	 1.5450766221	-0.5765151318	 1.4042549602	 0.10052
H	 0.2918640866	 0.4308730858	 2.0975229152	 0.092559
101.2212	142.7814	196.0393	218.2761	245.7767	292.6458	321.7628	349.9178	399.8329	414.4162	503.6668	549.9522	633.2601	739.9743	809.7306	854.4989	877.2137	934.3233	968.6382	976.5475	1022.1187	1036.7615	1042.9109	1077.5768	1098.3693	1143.3869	1158.6235	1174.9942	1201.6629	1225.4261	1285.4094	1295.5012	1304.1886	1314.6137	1340.0512	1359.6442	1388.5423	1393.0913	1409.159	1418.1586	1423.341	1446.8531	1469.7045	1482.0854	1489.3964	1499.3068	1501.9729	1509.4033	1514.3076	2986.6822	2996.1687	3009.025	3013.303	3021.5525	3023.0324	3029.0919	3033.1972	3050.9174	3055.7149	3063.6018	3086.2261	3090.1853	3097.0888
CC1CCOCOCC1	CC1CCOCOCC1	
InChI=1S/C7H14O2/c1-7-2-4-8-6-9-5-3-7/h7H,2-6H2,1H3	InChI=1S/C7H14O2/c1-7-2-4-8-6-9-5-3-7/h7H,2-6H2,1H3
