15
gdb 97013	3.7388	1.05332	0.83032	2.952	76.98	-0.2498	-0.0681	0.1817	1311.454	0.112599	-413.015419	-413.006691	-413.005747	-413.049635	30.285	
C	 0.0077978098	 1.4237527885	 0.0092802914	-0.345914
N	 0.034549209	-0.0306902363	 0.0051215108	-0.320201
C	-1.0677050588	-0.6463997065	 0.0110850577	 0.405834
C	-1.2844544643	-2.1569676273	 0.0083269474	-0.267836
N	-2.7369894599	-2.3771833475	 0.0182066341	-0.291445
C	-3.2586194909	-1.2086757831	 0.025123482	 0.302795
N	-2.3774653824	-0.1363617119	 0.0215863577	-0.405179
C	-4.6727470478	-0.9563870595	 0.0361098375	 0.263138
N	-5.8004683187	-0.7052780014	 0.045049399	-0.309041
H	 1.030495243	 1.8064791533	 0.0002409863	 0.13717
H	-0.5076672695	 1.8325029997	-0.8735055198	 0.115005
H	-0.489958734	 1.8273517534	 0.9044816605	 0.115224
H	-0.8404326786	-2.6261645461	-0.8761976516	 0.159953
H	-0.82766981	-2.6312793126	 0.8835733422	 0.159946
H	-2.6397174067	 0.8342353873	 0.0272936447	 0.280549
67.4478	82.0679	128.0052	173.5636	214.7178	231.4649	336.8071	429.4804	466.6864	535.2775	585.0989	596.7918	705.8011	728.4303	888.5614	969.4504	971.8281	1031.0095	1038.4567	1106.9799	1155.0321	1178.0449	1198.9244	1239.8304	1303.82	1430.2096	1436.2844	1447.1924	1494.1534	1508.1608	1660.3108	1790.9948	2367.5373	2973.7358	3022.7828	3053.2487	3085.3292	3111.7826	3680.1421
CN=C1CN=C(N1)C#N	CN=C1CN=C(N1)C#N	
InChI=1S/C5H6N4/c1-7-5-3-8-4(2-6)9-5/h3H2,1H3,(H,7,8,9)	InChI=1S/C5H6N4/c1-7-5-3-8-4(2-6)9-5/h3H2,1H3,(H,7,8,9)
