15
gdb 23253	3.09101	1.45443	1.10534	3.2683	70.32	-0.2316	-0.0639	0.1677	1060.5188	0.113112	-453.89258	-453.885015	-453.884071	-453.924846	28.796	
O	-0.0775430966	 1.3341869377	-0.1945600209	-0.349558
N	 0.0290038666	-0.0332384009	-0.0412287694	-0.204231
C	-1.0930638594	-0.6338922193	 0.0699730152	 0.273538
C	-1.1445513276	-2.1423769788	 0.227552303	-0.290461
C	-2.5735372801	-2.415854379	 0.6768634588	-0.049683
N	-2.9210547875	-1.6673739734	 1.8866433823	-0.327244
C	-3.3891932249	-1.1747091744	 0.5547993364	-0.166367
C	-2.5003523558	-0.0676709323	 0.0561689652	 0.396172
O	-2.8567927623	 1.0166071934	-0.330122772	-0.313867
H	 0.8461121325	 1.6080793272	-0.2369346803	 0.314583
H	-0.9520675143	-2.6315378684	-0.7351350095	 0.125342
H	-0.4055746961	-2.5079108825	 0.9450338143	 0.13583
H	-3.0154316199	-3.3911304563	 0.5044648531	 0.101069
H	-3.7136422109	-2.1060068467	 2.3507395967	 0.244073
H	-4.4474069636	-1.1572353463	 0.3253899971	 0.110803
68.0938	192.2546	218.6027	281.9961	341.5011	374.7644	431.4092	485.2417	525.074	605.6193	686.4087	703.8556	794.0347	829.5576	862.4666	887.3576	952.0621	989.741	1012.4531	1046.5166	1104.8162	1121.6132	1162.1091	1189.101	1222.6966	1248.6143	1320.6177	1354.3137	1406.7689	1421.7243	1466.9496	1703.755	1829.9323	3038.6946	3099.4757	3173.1478	3199.4744	3497.8194	3799.96
ON=C1CC2NC2C1=O	ON=C1C[C@H]2N[C@H]2C1=O	
InChI=1S/C5H6N2O2/c8-5-3(7-9)1-2-4(5)6-2/h2,4,6,9H,1H2	InChI=1S/C5H6N2O2/c8-5-3(7-9)1-2-4(5)6-2/h2,4,6,9H,1H2/t2-,4-/m1/s1
