19
gdb 41407	2.52113	1.94789	1.322	2.2789	73.79	-0.2482	0.0617	0.3099	992.7279	0.161375	-422.99839	-422.991162	-422.990218	-423.030318	28.504	
C	-0.037756791	 1.4685971253	-0.0888603379	-0.100367
O	 1.3894761156	 1.5263264011	 0.160097266	-0.322181
C	 1.4866161605	 0.1041490068	 0.1656069832	 0.392719
C	 2.5747652773	-0.6316684694	-0.6183257807	-0.153072
O	 2.8115112485	-1.5160026709	 0.4997523936	-0.298473
C	 1.955768935	-0.7309741852	 1.3746118608	 0.066415
C	 0.7214323672	-1.487276133	 1.8959241446	-0.236121
C	-0.5009538015	-0.7000849268	 1.3506737599	-0.23723
C	-0.0368630731	-0.0718959653	 0.0174072971	-0.131918
H	-0.6107580396	 2.0064861239	 0.6753220995	 0.104681
H	-0.2831701715	 1.8733488007	-1.077432688	 0.105586
H	 2.2804126352	-1.170040526	-1.5271837132	 0.101519
H	 3.4434855966	 0.0046826322	-0.8330227053	 0.110208
H	 2.5356531217	-0.2129779096	 2.1460209955	 0.08291
H	 0.7524096131	-2.4967777734	 1.474200392	 0.11843
H	 0.6969018503	-1.583889553	 2.9845326603	 0.10327
H	-1.3842286841	-1.3341159762	 1.2375988853	 0.105408
H	-0.7708672454	 0.0942354639	 2.0561244225	 0.106363
H	-0.3971386349	-0.6093426751	-0.8612884351	 0.081852
94.2667	106.3384	248.7	306.4289	377.3923	441.3426	522.8457	558.9359	616.959	790.5185	811.0575	820.3025	864.7118	885.8326	921.6549	950.8458	986.9341	1002.1036	1007.2841	1037.8412	1059.8344	1067.7021	1116.6731	1128.2796	1156.922	1162.3215	1188.057	1204.3821	1218.8405	1250.7251	1269.5894	1314.2467	1317.8754	1327.4163	1344.1638	1361.3743	1362.7918	1484.9792	1499.7142	1511.8672	1523.3035	3010.4764	3022.2922	3041.8471	3050.9883	3058.1265	3060.9478	3068.7113	3086.4507	3102.0376	3109.9873
C1OC23COC2CCC13	C1O[C@@]23CO[C@@H]2CC[C@@H]13	
InChI=1S/C7H10O2/c1-2-6-7(4-8-6)5(1)3-9-7/h5-6H,1-4H2	InChI=1S/C7H10O2/c1-2-6-7(4-8-6)5(1)3-9-7/h5-6H,1-4H2/t5-,6+,7+/m0/s1
