18
gdb 29585	2.91999	1.37215	0.98482	1.858	78.43	-0.1851	0.0483	0.2333	1188.9834	0.148952	-401.964432	-401.956057	-401.955113	-401.997749	32.239	
O	 0.5742665836	 1.2064155341	 0.2194325322	-0.451885
C	 0.2193226675	-0.1039158995	 0.0798755279	 0.231074
C	 0.164209989	-0.7869977725	-1.1110122175	-0.173235
N	-0.2374136265	-2.0742416105	-0.8101490944	-0.241134
C	-0.4271873705	-2.2073853453	 0.5350004879	-0.169196
C	-0.1520579433	-0.9937209246	 1.1345391009	 0.153591
C	-0.2454373137	-0.6239553318	 2.5670527938	-0.161528
C	 0.3468184277	-1.5054339059	 3.6381320548	-0.260722
C	 1.0005431378	-0.1852418307	 3.3260853933	-0.27062
H	 0.6090797872	 1.3929165023	 1.163937319	 0.29725
H	 0.3752553903	-0.4730995287	-2.1187059006	 0.117856
H	-0.355589109	-2.8074051012	-1.4851025208	 0.260432
H	-0.7438823553	-3.14231055	 0.9688058735	 0.116845
H	-1.1548955564	-0.1008976278	 2.8589696927	 0.09458
H	-0.1899577845	-1.6021859947	 4.5751586785	 0.109814
H	 0.8584342251	-2.4053245732	 3.3166748064	 0.115125
H	 1.9462722221	-0.2098285378	 2.7955870386	 0.121912
H	 0.9085642489	 0.6162538978	 4.0511884536	 0.109841
47.2646	141.4043	152.5986	284.7296	310.3258	332.5153	365.6222	427.8851	510.3522	594.4603	625.3474	640.659	710.3393	731.641	749.2727	805.7949	828.7936	893.7427	919.5829	922.7987	1054.6886	1068.278	1077.7874	1081.3857	1127.5185	1137.8067	1175.9527	1202.5648	1211.0989	1238.7307	1283.6713	1344.0395	1407.9864	1433.9531	1466.0498	1481.6815	1498.6229	1571.0605	1656.8567	3105.2757	3130.3644	3139.0886	3213.2239	3228.7507	3260.3831	3280.1085	3700.1338	3810.2838
OC1=CNC=C1C1CC1	Oc1c[nH]cc1C1CC1	
InChI=1S/C7H9NO/c9-7-4-8-3-6(7)5-1-2-5/h3-5,8-9H,1-2H2	InChI=1S/C7H9NO/c9-7-4-8-3-6(7)5-1-2-5/h3-5,8-9H,1-2H2
