17
gdb 96654	3.79948	0.84752	0.69887	2.8994	84.67	-0.2457	-0.0573	0.1884	1562.2516	0.134623	-414.207402	-414.197291	-414.196347	-414.243966	34.612	
C	-0.8323032567	 1.7265049689	-1.1265325382	-0.328666
N	-0.4842043615	 0.3270562137	-1.1249165116	-0.288099
C	-0.6336416131	-0.430862679	-0.1154205497	 0.376266
C	-1.1708477659	-0.1168015817	 1.2541371609	-0.457507
N	-0.2202647654	-1.7604529753	-0.3609848802	-0.352474
C	-0.2088440263	-2.8766407338	 0.4364427624	 0.311674
N	-0.6011114346	-2.9317768792	 1.6526254034	-0.516928
C	 0.3153764852	-4.0433760676	-0.2644480019	 0.223046
N	 0.7230397151	-4.9976680353	-0.7745067649	-0.313779
H	 0.0580544637	 2.314261274	-1.3798523931	 0.133666
H	-1.5633126781	 1.9103399051	-1.9229014718	 0.13366
H	-1.2448350214	 2.1236776611	-0.1902728259	 0.109254
H	-1.4564542965	 0.9313560916	 1.3264004537	 0.127957
H	-2.0347630417	-0.7454055795	 1.4803951754	 0.16239
H	-0.425841867	-0.3442524806	 2.0195643746	 0.162475
H	 0.1225751193	-1.8674739844	-1.3058048673	 0.270963
H	-0.4912213052	-3.871932748	 2.0235572443	 0.246102
30.5767	73.4474	80.6949	125.9538	137.6544	242.8646	256.2785	331.0683	349.8228	366.9537	440.3381	531.5243	596.3027	636.131	651.4651	723.2228	812.1189	829.2962	917.5945	984.0344	1056.4022	1099.3364	1132.5524	1145.0582	1170.3851	1288.395	1327.3067	1409.1737	1440.7348	1464.7679	1468.3294	1485.1877	1504.2739	1544.8585	1687.2177	1746.7803	2347.2483	3007.0137	3067.2052	3071.6359	3074.0859	3133.8426	3166.4428	3533.3527	3603.6
CN=C(C)NC(=N)C#N	CN=C(C)NC(=N)C#N	
InChI=1S/C5H8N4/c1-4(8-2)9-5(7)3-6/h1-2H3,(H2,7,8,9)	InChI=1S/C5H8N4/c1-4(8-2)9-5(7)3-6/h1-2H3,(H2,7,8,9)
