14
gdb 18221	4.05962	2.01673	1.56627	0.9592	61.28	-0.247	-0.0365	0.2105	788.7729	0.108012	-378.702468	-378.695922	-378.694977	-378.733597	24.016	
O	-0.8626899231	 0.8535301158	-0.4833467708	-0.236981
C	 0.1472491035	 0.8905980157	 0.1682944838	 0.15292
C	 1.2788792164	 1.8863110273	-0.0614113457	-0.088792
N	 2.5788658421	 1.180691194	-0.0470728433	-0.220857
C	 3.1940384679	 1.533342092	-1.104387152	 0.041363
N	 2.5969372433	 2.4831598132	-1.9833313294	-0.128986
C	 1.3882041441	 1.8973075916	-2.6372367063	-0.235627
C	 1.2507908248	 2.6588423865	-1.3772085708	-0.024649
H	 0.3339870231	 0.1916971993	 1.0109224429	 0.101878
H	 1.2501860564	 2.5739888187	 0.7986990775	 0.118387
H	 4.1785407398	 1.1547290512	-1.3638049637	 0.13564
H	 1.1185853467	 2.3647913137	-3.5781177305	 0.134431
H	 1.2799743834	 0.8175427155	-2.6053333465	 0.137936
H	 0.8441084615	 3.6628061055	-1.398776755	 0.113336
73.0639	160.9941	212.9993	361.0266	384.7029	530.8341	674.9178	693.9349	745.0275	801.2075	852.6522	872.6954	956.2222	983.5154	1002.3283	1033.0747	1042.9985	1082.4351	1098.284	1117.2658	1163.2691	1248.6355	1262.7513	1312.2509	1331.6581	1375.8909	1409.9252	1499.8788	1670.0683	1833.9233	2914.6968	2987.8642	3126.6464	3182.8083	3190.3341	3221.0313
O=CC1N=CN2CC12	O=C[C@H]1N=CN2C[C@@H]12	
InChI=1S/C5H6N2O/c8-2-4-5-1-7(5)3-6-4/h2-5H,1H2	InChI=1S/C5H6N2O/c8-2-4-5-1-7(5)3-6-4/h2-5H,1H2/t4-,5+,7?/m1/s1
