19
gdb 5869	3.62636	1.26379	1.19544	3.8238	71.82	-0.2799	0.0172	0.2971	1103.1067	0.16238	-365.075124	-365.065565	-365.064621	-365.10925	34.714	
C	 0.0932803449	 1.4715803234	 0.5035106628	-0.409969
C	 0.045721763	 0.0609498783	-0.1005754105	 0.347846
C	 0.9683731705	-0.9004366341	 0.658306547	-0.416124
C	-1.3907739652	-0.4671622907	-0.1068901643	-0.398521
O	 0.3728033732	 0.1152465102	-1.5145396289	-0.265077
C	 1.675630556	 0.4673744292	-1.8931129594	-0.210569
C	 2.5878230382	-0.6902142008	-2.0126493137	 0.263415
N	 3.3027129279	-1.5911376202	-2.1233595747	-0.312219
H	 1.1098557636	 1.8762096266	 0.5384009433	 0.113765
H	-0.5327199402	 2.1553500182	-0.0767033736	 0.124041
H	-0.2778023961	 1.4529835982	 1.532623766	 0.123319
H	 0.6270865914	-1.0001704395	 1.6931744983	 0.11847
H	 0.9628858357	-1.8909237737	 0.1961959264	 0.139327
H	 2.0022483585	-0.544062744	 0.689100593	 0.121124
H	-2.0396374324	 0.2028098098	-0.6774513686	 0.122421
H	-1.4278730043	-1.4566758152	-0.5698005784	 0.127075
H	-1.7775084498	-0.5431774434	 0.9132456472	 0.114886
H	 1.6064712775	 0.9350113828	-2.8819038806	 0.158028
H	 2.1396576176	 1.2023772248	-1.2229842309	 0.138761
50.6567	93.5298	185.493	216.898	254.6373	256.8922	285.5232	340.4113	350.6991	370.5581	401.3496	446.2566	488.5737	613.0847	725.3602	850.9763	900.6802	913.6223	925.4617	962.4214	1024.7317	1044.1099	1061.7562	1109.4842	1213.6715	1257.0603	1270.6644	1311.2222	1389.4444	1401.671	1404.0286	1430.2469	1468.139	1473.5109	1481.4748	1484.2594	1500.6257	1505.5127	1516.9967	2356.2344	3026.5806	3039.2759	3043.0056	3049.3881	3070.5299	3103.4106	3110.9693	3117.7985	3123.648	3125.1437	3128.9785
CC(C)(C)OCC#N	CC(C)(C)OCC#N	
InChI=1S/C6H11NO/c1-6(2,3)8-5-4-7/h5H2,1-3H3	InChI=1S/C6H11NO/c1-6(2,3)8-5-4-7/h5H2,1-3H3
