23
gdb 91368	3.17392	1.14878	0.96307	0.3691	93.3	-0.2204	0.0254	0.2459	1348.784	0.206481	-351.152482	-351.1436	-351.142656	-351.185752	35.06	
C	-0.0433470293	 1.5652627109	 0.1378171578	-0.405084
C	-0.0174505807	 0.0494228397	 0.0111111051	-0.060261
C	 1.020239926	-0.6415412593	-0.9605099112	-0.26142
C	 1.2429201571	-1.758772739	 0.1198255877	-0.041575
C	 2.5812321516	-2.1363678928	 0.7826051129	-0.253821
C	 2.3512782913	-1.8235788886	 2.3018452425	 0.012554
C	 3.625721548	-1.3961456958	 3.0360008482	-0.395039
C	 1.2726963739	-0.7352988122	 2.2593062096	-0.253484
C	 0.6391068355	-0.7825381062	 1.0924044044	 0.291948
H	 0.9538098668	 1.9514815462	 0.3732468311	 0.115601
H	-0.3795683795	 2.0331468715	-0.7938708759	 0.113751
H	-0.723663415	 1.8845765972	 0.93471486	 0.117826
H	-1.0214298295	-0.3277759637	-0.2227135586	 0.081022
H	 0.6498730428	-0.948876312	-1.9420650602	 0.094103
H	 1.9106960292	-0.0178584627	-1.0847392226	 0.101119
H	 0.6127385928	-2.6310958185	-0.0924974433	 0.070261
H	 2.8918728089	-3.1715040082	 0.6093948969	 0.089061
H	 3.3824599324	-1.4855135066	 0.4098602107	 0.093255
H	 1.9623328526	-2.7239128331	 2.8027498396	 0.07422
H	 4.0453211496	-0.4858470577	 2.5925718078	 0.111139
H	 3.4292754677	-1.1938500196	 4.0944722428	 0.11004
H	 4.3906755116	-2.1785878981	 2.9840650613	 0.110702
H	 1.1442216561	-0.0099781514	 3.0556819435	 0.084082
92.2092	119.1596	202.5235	212.9011	247.3906	289.3619	328.9183	369.4368	458.5685	485.2696	574.2806	607.1766	658.393	798.3094	819.0424	847.2181	858.4432	880.0767	904.5769	922.6684	931.6187	999.6495	1010.8703	1055.4435	1064.6415	1085.5746	1118.8823	1139.7891	1150.1564	1159.5511	1186.6033	1231.3868	1235.9958	1255.691	1256.1521	1303.5239	1312.3669	1331.8823	1360.2691	1368.6703	1405.5975	1408.5605	1476.6539	1485.1031	1492.1553	1496.5967	1497.4075	1499.426	1729.5174	2973.8247	3018.4943	3022.8171	3025.139	3027.4307	3028.7464	3049.0251	3082.1157	3093.469	3094.0747	3095.1954	3101.7119	3111.2809	3185.6798
CC1CC2CC(C)C=C12	C[C@H]1C[C@H]2C[C@@H](C)[CH][C]12	
InChI=1S/C9H14/c1-6-3-8-5-7(2)9(8)4-6/h4,6-8H,3,5H2,1-2H3	InChI=1S/C9H14/c1-6-3-8-5-7(2)9(8)4-6/h4,6-8H,3,5H2,1-2H3/t6-,7+,8-/m1/s1
