16
gdb 83081	2.58595	1.7622	1.55612	3.0135	68.32	-0.2311	-0.0344	0.1967	923.7454	0.125266	-437.882985	-437.875595	-437.874651	-437.914692	28.24	
C	-0.1394316069	 1.5823771791	-0.0014319094	-0.426405
C	 0.0594268334	 0.0756025121	 0.0370113835	-0.018622
C	 1.1604181635	-0.5976037158	-0.8457564755	-0.028323
O	 2.3967559298	 0.1540282607	-0.7440071491	-0.233743
C	 2.7098631475	 0.4243780517	 0.5478861076	 0.114165
N	 2.0322295532	 0.1000479739	 1.5688405537	-0.251613
C	 0.7709860426	-0.6167945291	 1.2585190896	-0.135962
C	 1.1479310834	-1.6991551293	 0.2434969197	 0.437164
O	 1.2287980569	-2.8910217179	 0.2342766158	-0.3098
H	 0.7819863673	 2.127547114	 0.2108109985	 0.139942
H	-0.4973059141	 1.8944576543	-0.9875926668	 0.126637
H	-0.8854895588	 1.8851818436	 0.7394475065	 0.130403
H	-0.886124035	-0.4421641415	-0.1555202328	 0.104054
H	 1.005193678	-0.8240590379	-1.8986279509	 0.110049
H	 3.6397847704	 0.9818599876	 0.6236251563	 0.144246
H	 0.2227921988	-0.8523416156	 2.1686308432	 0.097808
139.3074	160.9336	220.4562	229.5039	276.9975	443.3328	466.5896	526.7336	579.9462	644.1822	695.2412	794.2691	826.3522	849.0968	891.4602	946.5287	960.1401	1022.662	1043.4315	1082.8905	1092.3553	1126.6943	1150.1606	1157.0626	1229.0391	1235.3347	1291.0664	1330.1529	1371.9239	1377.8161	1416.4444	1493.1357	1496.5281	1701.3101	1901.7798	3046.0683	3057.6571	3108.9531	3135.245	3136.2903	3146.8434	3183.6078
CC1C2OC=NC1C2=O	C[C@H]1[C@H]2O[CH][N][C@@H]1C2=O	
InChI=1S/C6H7NO2/c1-3-4-5(8)6(3)9-2-7-4/h2-4,6H,1H3	InChI=1S/C6H7NO2/c1-3-4-5(8)6(3)9-2-7-4/h2-4,6H,1H3/t3-,4+,6-/m1/s1
