23
gdb 118550	2.4496	0.76598	0.62456	3.4514	83.93	-0.2391	-0.0163	0.2228	1848.2265	0.201785	-425.429522	-425.41794	-425.416996	-425.468424	39.433	
C	-1.6458771266	 0.7417733252	 0.129959556	-0.379479
C	-1.2403855525	-0.6840592128	-0.2538955008	-0.180891
C	 0.1615767626	-0.7521519222	-0.8754841049	-0.186028
C	 0.6378685562	-2.1640147354	-1.2881672131	 0.104687
C	 1.4808178622	-2.1275996229	-2.5724136308	-0.296083
C	 1.8851595571	-3.5034337448	-3.058619069	 0.152453
O	 1.7909981816	-3.8697349634	-4.2033698245	-0.246712
O	 1.4733421401	-2.7795982899	-0.3136085913	-0.246824
C	 0.8290210056	-3.2309713257	 0.8560354293	-0.237515
H	-0.9570445653	 1.1627855935	 0.8706437365	 0.116332
H	-1.6361240809	 1.4042300838	-0.7427300415	 0.11685
H	-2.6527268572	 0.7686729088	 0.5576822395	 0.114528
H	-1.2967767614	-1.3289965002	 0.6304739899	 0.099825
H	-1.9669209658	-1.0908876332	-0.9695477725	 0.100024
H	 0.1760821504	-0.1005733988	-1.7579685341	 0.09999
H	 0.9095113845	-0.3434294526	-0.1841837828	 0.108387
H	-0.2447552355	-2.8057149914	-1.4578791087	 0.072143
H	 0.9501032738	-1.6166033939	-3.3795859327	 0.118578
H	 2.3989945927	-1.5646654643	-2.3515641563	 0.129771
H	 2.2876710967	-4.1713044113	-2.2685455342	 0.091471
H	-0.0452119227	-3.8584710604	 0.6240588687	 0.107121
H	 1.5559621368	-3.8318679905	 1.4087994331	 0.128697
H	 0.5014788577	-2.4044374476	 1.5017645841	 0.112676
35.5669	49.6886	64.3341	90.0764	95.3129	154.9229	228.1066	229.8667	246.4504	276.9593	317.9795	397.9144	441.2923	501.5377	565.1773	730.9591	798.4116	845.2238	884.8884	901.3723	986.6595	1012.0815	1054.8397	1066.318	1104.0385	1121.1516	1138.4734	1165.3307	1179.9529	1209.3566	1240.4	1265.9496	1280.8302	1314.6436	1331.8131	1372.4284	1382.0542	1396.4197	1412.8333	1418.9955	1445.2744	1475.0209	1477.8153	1490.2035	1496.9581	1499.5427	1507.8257	1512.9033	1827.8806	2919.2745	2946.2876	2982.2584	3019.3052	3022.1368	3026.9353	3031.373	3036.2626	3052.1473	3071.4282	3098.7071	3104.4409	3108.542	3110.2849
CCCC(CC=O)OC	CCC[C@@H](CC=O)OC	
InChI=1S/C7H14O2/c1-3-4-7(9-2)5-6-8/h6-7H,3-5H2,1-2H3	InChI=1S/C7H14O2/c1-3-4-7(9-2)5-6-8/h6-7H,3-5H2,1-2H3/t7-/m0/s1
