17
gdb 52664	3.60763	0.8244	0.69366	1.0471	80.57	-0.2469	0.0216	0.2685	1600.1627	0.130854	-421.750667	-421.739505	-421.738561	-421.789433	38.023	
C	-0.0407256768	 1.4856227575	 0.0137313063	-0.500922
C	-0.0297085363	 0.0305675888	-0.0001856669	 0.090889
C	-0.0038993428	-1.1735677461	 0.0017409938	 0.042016
C	-0.0358770974	-2.6332263569	-0.0490730528	-0.071375
O	-1.3596649898	-3.1422239752	-0.1308204375	-0.411597
C	 0.8334997974	-3.1640384012	-1.2347827772	-0.058629
O	 2.1599079552	-2.6648490319	-1.1661301913	-0.410738
C	 0.8017701795	-4.6256984145	-1.2840904905	 0.30349
C	 0.837477204	-5.8271230421	-1.2805278809	-0.445726
H	 0.8815050186	 1.8893753189	-0.4179160307	 0.156179
H	-0.8803248177	 1.8820108476	-0.5676475226	 0.149981
H	-0.1305419144	 1.8733586383	 1.0342374604	 0.152373
H	 0.3838880581	-3.0524162713	 0.8742450071	 0.1126
H	-1.8492906688	-2.5744132054	-0.7358884909	 0.286587
H	 0.410179461	-2.7514797719	-2.1586288642	 0.11603
H	 2.6380439021	-3.1968744564	-0.5203514629	 0.28837
H	 0.8509560482	-6.8890751981	-1.2944024492	 0.200473
8.2499	48.1709	74.3793	142.596	153.3847	211.4529	237.0896	259.2455	270.6918	326.2582	334.4483	418.0693	459.6503	517.0748	559.8812	606.0773	640.8616	669.0066	802.3795	925.3175	1028.3199	1051.3074	1053.5674	1060.5192	1080.7302	1170.697	1225.1945	1270.313	1274.6753	1354.115	1411.8278	1415.4019	1417.1169	1476.2473	1477.4185	2234.0433	2367.8758	3025.9851	3029.1378	3045.7231	3090.7209	3092.5405	3503.5554	3806.8316	3809.9084
CC#CC(O)C(O)C#C	CC#C[C@@H](O)[C@@H](O)C#C	
InChI=1S/C7H8O2/c1-3-5-7(9)6(8)4-2/h2,6-9H,1H3	InChI=1S/C7H8O2/c1-3-5-7(9)6(8)4-2/h2,6-9H,1H3/t6-,7+/m0/s1
