17
gdb 67799	3.10133	1.89964	1.49469	1.3147	76.98	-0.2133	0.0105	0.2238	897.9287	0.13751	-384.678246	-384.671518	-384.670574	-384.708731	28.597	
O	-0.0948475759	 1.4128834336	-0.0421335059	-0.473182
C	-0.0164449208	 0.0247349922	-0.0894634603	 0.370411
C	 0.8851411514	-0.6569351212	-1.0390161782	-0.149814
C	 0.3710649372	-1.8362088868	-1.4160482616	-0.076626
C	-0.9070454119	-2.1438929873	-0.637049828	-0.162264
C	-0.3563330729	-2.9320547843	 0.5538101358	-0.089637
C	-0.0483303012	-2.1033050232	 1.5628536552	-0.067709
C	-0.4717643018	-0.7255098054	 1.2641642607	-0.146392
C	-1.2748735374	-0.7699786174	-0.0105729262	-0.121983
H	 0.6947476655	 1.7458601245	 0.3970760825	 0.286141
H	 1.8494490075	-0.2569777663	-1.3310954298	 0.089566
H	 0.8670255196	-2.5745208202	-2.0359494881	 0.098128
H	-1.69469802	-2.641499358	-1.2068896848	 0.072533
H	-0.0934934043	-3.9810752456	 0.4861394111	 0.095839
H	 0.4845610309	-2.3810388369	 2.4647828453	 0.091241
H	-0.7234841302	-0.0204834627	 2.048383251	 0.089289
H	-2.2540412857	-0.3182204949	-0.1174961985	 0.094459
219.6198	273.1332	312.2595	328.4228	374.9011	460.8302	570.0018	576.2588	681.853	696.3595	758.9359	764.6379	802.2065	821.5541	849.6771	890.4414	900.8837	918.6964	943.7626	958.9398	971.3648	983.4525	1051.5611	1055.9902	1102.294	1125.8193	1163.9011	1236.3068	1249.4385	1266.4233	1282.6426	1297.2854	1362.9838	1380.0578	1420.0324	1625.7795	1635.9038	3079.5656	3174.1151	3182.4779	3185.0211	3191.4815	3209.7629	3215.6819	3807.3142
OC12C=CC3C=CC1C23	O[C@@]12C=C[C@H]3C=C[C@@H]1[C@@H]23	
InChI=1S/C8H8O/c9-8-4-3-5-1-2-6(8)7(5)8/h1-7,9H	InChI=1S/C8H8O/c9-8-4-3-5-1-2-6(8)7(5)8/h1-7,9H/t5-,6-,7+,8+/m1/s1
