20
gdb 61221	3.19448	0.9129	0.88669	5.1876	79.61	-0.2807	0.032	0.3127	1408.6333	0.169159	-403.151708	-403.141737	-403.140793	-403.186806	36.611	
C	-0.0098630525	 1.5258672519	 0.3301087057	-0.494911
C	-0.00901838	 0.0316534009	 0.0614456196	 0.377414
C	 1.2652173933	-0.6042494235	-0.446450212	-0.307744
C	 0.8118709519	-0.8459793928	 0.9727241572	-0.314576
C	-1.3177329872	-0.569147671	-0.4404095467	 0.054246
O	-2.372408855	-0.4653498577	 0.4985292982	-0.425708
C	-1.7321511549	 0.019491357	-1.8132371929	-0.37866
C	-2.9119670532	-0.6346244382	-2.3717736399	 0.271624
N	-3.8377750745	-1.1576456788	-2.8235033523	-0.304844
H	 0.9535621223	 1.8425553385	 0.7394132808	 0.127922
H	-0.1842073961	 2.1146845003	-0.5775785235	 0.121263
H	-0.7735777503	 1.8033462966	 1.0670314931	 0.115672
H	 1.1881831765	-1.4260789708	-1.151417564	 0.115281
H	 2.1236502744	 0.0380784303	-0.6114468373	 0.114632
H	 1.3632890982	-0.3675184374	 1.7747955381	 0.114888
H	 0.419759935	-1.8245412047	 1.2273194159	 0.124512
H	-1.1719982907	-1.6467057729	-0.5712315159	 0.105933
H	-2.5586628903	 0.4670111796	 0.6533650049	 0.283996
H	-1.9422427051	 1.0908973005	-1.7137377848	 0.143494
H	-0.9028445318	-0.0760955579	-2.5227052443	 0.155565
63.4827	69.7761	125.7727	210.6851	223.4553	263.073	268.7779	294.1029	336.9799	388.3735	397.9516	464.9636	514.6527	557.1185	764.9708	786.5026	861.375	877.4772	924.5965	938.2595	955.9096	967.2842	1030.0874	1045.386	1069.2423	1082.5537	1095.1728	1127.5661	1187.4282	1192.6611	1250.5532	1303.9735	1324.2996	1348.1423	1384.731	1421.9947	1429.7736	1461.0728	1471.8546	1497.6956	1500.7556	1510.0391	2365.2451	3022.3775	3042.1721	3058.2754	3079.7484	3088.2119	3105.2288	3127.4564	3135.771	3206.5525	3222.4746	3808.1184
CC1(CC1)C(O)CC#N	CC1(CC1)[C@@H](O)CC#N	
InChI=1S/C7H11NO/c1-7(3-4-7)6(9)2-5-8/h6,9H,2-4H2,1H3	InChI=1S/C7H11NO/c1-7(3-4-7)6(9)2-5-8/h6,9H,2-4H2,1H3/t6-/m0/s1
