22
gdb 100128	3.69361	0.70768	0.68993	4.0197	83.02	-0.2776	0.04	0.3176	1694.2683	0.191711	-404.36933	-404.358265	-404.357321	-404.405701	39.776	
C	-0.06693862	 1.5781009321	 0.0988338107	-0.416919
C	 0.0159608074	 0.0404104329	 0.0668039815	 0.249147
C	 0.702739399	-0.4813678535	 1.3429141682	-0.416901
C	-1.411730432	-0.5356542583	-0.0034957688	-0.088946
O	-2.1398957236	-0.1170929215	 1.1405449263	-0.426011
C	 0.7434413951	-0.4557300769	-1.2046693022	-0.207374
C	 2.2086461831	 0.0092108839	-1.3427040462	-0.363215
C	 2.8259755265	-0.4988355315	-2.5659822972	 0.261984
N	 3.2983340626	-0.9091099954	-3.537685539	-0.307018
H	 0.9162583395	 2.0364847406	 0.243848442	 0.108503
H	-0.4887459195	 1.9707555289	-0.8336436325	 0.108366
H	-0.7103036882	 1.9013189111	 0.9199456149	 0.1401
H	 0.0929385484	-0.2480669659	 2.2183178971	 0.140089
H	 0.8341381609	-1.5689730503	 1.3046241067	 0.108345
H	 1.6875850278	-0.0274255049	 1.490657353	 0.108489
H	-1.8978825209	-0.1856008424	-0.9283686715	 0.085718
H	-1.3560928452	-1.6350486318	-0.0532075358	 0.085714
H	-3.0266090422	-0.4837725554	 1.0862638224	 0.291258
H	 0.7288686201	-1.5517952634	-1.225850655	 0.11454
H	 0.1929524681	-0.1196588214	-2.091252219	 0.114547
H	 2.2716492001	 1.102253875	-1.3575538517	 0.154796
H	 2.8079883229	-0.330810462	-0.4917683838	 0.154789
55.2883	84.8958	111.3412	125.0733	217.7359	222.5192	236.6015	250.0343	283.4829	328.419	361.2402	385.3158	391.0401	420.3911	509.5664	604.373	753.7996	763.7497	897.556	929.9544	943.6088	961.9332	972.6605	1004.3184	1024.7271	1077.4914	1092.1044	1176.185	1198.2409	1217.461	1238.9867	1283.7251	1296.467	1314.0225	1354.1277	1387.543	1400.7209	1415.2369	1458.9018	1469.1934	1481.3722	1487.9799	1500.3478	1501.1976	1515.3616	1522.6871	2361.6459	2961.3267	2994.2851	3027.8974	3030.2105	3036.6185	3055.5506	3066.5859	3093.4268	3098.1136	3099.1235	3126.8672	3130.2649	3840.3379
CC(C)(CO)CCC#N	CC(C)(CO)CCC#N	
InChI=1S/C7H13NO/c1-7(2,6-9)4-3-5-8/h9H,3-4,6H2,1-2H3	InChI=1S/C7H13NO/c1-7(2,6-9)4-3-5-8/h9H,3-4,6H2,1-2H3
