19
gdb 100498	3.43154	0.74052	0.65801	2.1456	82.91	-0.2518	-0.0464	0.2054	1742.2116	0.155265	-423.017149	-423.005902	-423.004958	-423.055724	37.749	
C	 0.0478016892	 1.4088139063	 0.2728905105	-0.505659
C	 0.0279946947	-0.0343084578	 0.1072463439	 0.158913
C	-0.0070733176	-1.2331823049	-0.0302844019	-0.008649
C	-0.0471905719	-2.6714200834	-0.2147326238	 0.198642
O	-1.0945695759	-3.257985804	-0.4051260467	-0.308567
C	 1.2972147514	-3.385495739	-0.1515291714	-0.080173
C	 1.9100785931	-3.2742510996	 1.2578929688	-0.399524
C	 1.1546380985	-4.8379359226	-0.6028132047	-0.088555
O	 2.4615924097	-5.3952764725	-0.654489767	-0.430465
H	 1.0586035816	 1.8130594767	 0.1564762269	 0.157932
H	-0.6021535428	 1.8957294619	-0.4619310057	 0.16347
H	-0.3134273815	 1.6864260052	 1.2692939602	 0.163816
H	 1.9716868477	-2.8730815169	-0.8513745404	 0.104388
H	 1.2537264533	-3.7372240007	 2.0029049599	 0.121102
H	 2.8695602528	-3.7942254708	 1.2757864577	 0.14347
H	 2.065575081	-2.2301326867	 1.5405299055	 0.122652
H	 0.5092657733	-5.3802584801	 0.1030164802	 0.100156
H	 0.6623093736	-4.8734727127	-1.5845750016	 0.099045
H	 2.3796654799	-6.3241003485	-0.8877879204	 0.288005
20.683	39.821	73.3235	111.3922	137.1942	208.9645	219.1976	251.3554	258.0517	300.5936	343.1916	395.2749	399.0861	451.6291	591.5499	716.3089	775.0312	863.0989	932.3758	964.9704	1044.1415	1051.9038	1055.7252	1076.8251	1110.0966	1159.2617	1185.6428	1255.8423	1266.4777	1324.8838	1348.4208	1396.3501	1409.9572	1458.4384	1469.838	1474.0606	1493.8369	1504.314	1517.6561	1748.7982	2337.5095	2995.4551	3016.7737	3032.2664	3034.3099	3043.2425	3095.6059	3099.807	3114.4084	3140.786	3837.5399
CC#CC(=O)C(C)CO	CC#CC(=O)[C@@H](C)CO	
InChI=1S/C7H10O2/c1-3-4-7(9)6(2)5-8/h6,8H,5H2,1-2H3	InChI=1S/C7H10O2/c1-3-4-7(9)6(2)5-8/h6,8H,5H2,1-2H3/t6-/m0/s1
