15
gdb 7616	3.46433	1.64513	1.35124	5.3972	57.41	-0.2495	0.0182	0.2677	912.508	0.118593	-436.951573	-436.943601	-436.942656	-436.983758	29.628	
N	 0.1546886669	 1.0062573475	 0.0928711591	-0.607807
H	-0.2700423972	 0.255193573	-0.4403393514	 0.245121
H	 1.0675844514	 0.6890991095	 0.4068194094	 0.258265
H	-0.3849112346	 2.7788858931	-0.4928951053	 0.304556
C	-0.6527463727	 1.3826520345	 1.2291782523	 0.119889
C	-1.334019317	 0.3485103734	 2.1178660812	-0.355993
C	-0.126428832	 1.0722649739	 2.6224912468	 0.085366
O	 1.1165047444	 0.4380954203	 2.6463980508	-0.42479
C	-1.3482112838	 2.7151975749	 1.0880237395	 0.426539
O	-1.0262615061	 3.3652514024	-0.0367862917	-0.378812
O	-2.1040601051	 3.1574527696	 1.9162900437	-0.363101
H	-2.2983256319	 0.6216111089	 2.5296471401	 0.151019
H	-1.2064984749	-0.6872935264	 1.8203620694	 0.11333
H	-0.274830241	 1.8484517727	 3.3694573738	 0.127047
H	 1.0801043236	-0.2848360075	 3.2807639824	 0.299371
90.1676	169.1893	214.2723	226.125	291.8584	328.1991	361.4216	424.0694	488.7592	525.2587	619.6398	743.2943	757.3689	838.6826	844.8162	879.3084	899.9495	935.2203	1036.11	1058.6345	1094.7299	1166.8105	1198.7706	1248.0664	1265.8434	1293.133	1338.5963	1397.6762	1430.1249	1460.503	1659.7225	1853.898	3135.4818	3143.1044	3238.658	3493.342	3511.3815	3576.0715	3817.9854
[NH3+]C1(CC1O)C([O-])=O	N[C@]1(C[C@H]1O)C(=O)O	
InChI=1S/C4H7NO3/c5-4(3(7)8)1-2(4)6/h2,6H,1,5H2,(H,7,8)	InChI=1S/C4H7NO3/c5-4(3(7)8)1-2(4)6/h2,6H,1,5H2,(H,7,8)/t2-,4+/m1/s1
