19
gdb 100216	2.58561	1.14225	0.96306	3.8118	81.31	-0.2565	0.0228	0.2794	1298.0518	0.157009	-382.050186	-382.039782	-382.038838	-382.085357	37.96	
C	-0.1437888948	 1.5058816489	 0.1998333055	-0.414806
C	-0.0224969431	-0.0087855016	 0.0206091178	-0.171177
C	 0.753965946	-0.4483907426	-1.2463809257	 0.024139
N	 2.1402690311	 0.0357352062	-1.1541792174	-0.524678
C	 0.805788518	-2.0048392913	-1.2499786911	-0.34331
C	 1.5675497655	-2.5461935095	-2.3726425878	 0.266841
N	 2.19073987	-2.9564393965	-3.2551687824	-0.31396
C	 0.0579772181	 0.0188953875	-2.4588768047	 0.365127
C	-0.489604639	 0.4136536049	-3.4542632316	-0.493176
H	 0.832727598	 1.9738490345	 0.3595549784	 0.12329
H	-0.6132125341	 1.9719698137	-0.6713737966	 0.134534
H	-0.7568909321	 1.7339794276	 1.0763620909	 0.122747
H	 0.4952796909	-0.4431965065	 0.8828801801	 0.109441
H	-1.023214379	-0.4529980036	-0.0236043107	 0.105633
H	 2.6609646212	-0.2775674521	-1.9704521599	 0.250241
H	 2.1440933273	 1.0502794205	-1.197177859	 0.239118
H	 1.2781147945	-2.3333356862	-0.3187529558	 0.159452
H	-0.2106805866	-2.4076958089	-1.2818492613	 0.155323
H	-0.963558952	 0.756799305	-4.3410288786	 0.205221
71.4986	97.8864	121.2186	154.7604	183.683	235.5617	260.3935	305.1321	348.2609	393.9785	396.7907	405.0918	475.9136	555.4243	641.9344	644.2222	654.1154	724.9972	788.5855	875.8526	904.469	928.1256	986.5654	1005.9453	1033.7781	1077.4557	1164.0982	1197.8224	1250.7491	1280.1437	1332.8345	1346.1813	1377.3874	1409.611	1449.4025	1474.0986	1498.6483	1509.1457	1664.7107	2223.4078	2361.3442	3035.7047	3041.9718	3059.4144	3078.5863	3108.5871	3110.3558	3119.4548	3488.9091	3498.3121	3566.6448
CCC(N)(CC#N)C#C	CC[C@@](N)(CC#N)C#C	
InChI=1S/C7H10N2/c1-3-7(9,4-2)5-6-8/h1H,4-5,9H2,2H3	InChI=1S/C7H10N2/c1-3-7(9,4-2)5-6-8/h1H,4-5,9H2,2H3/t7-/m1/s1
