22
gdb 119990	3.06611	0.77972	0.7385	1.5062	79.42	-0.219	0.0685	0.2875	1633.3427	0.192011	-441.431957	-441.420996	-441.420051	-441.468748	38.686	
C	-0.5848995943	 0.8176025978	-1.7649407456	-0.314598
N	-0.1092284004	-0.2206508192	-0.8601004213	-0.098242
C	 1.2864274402	-0.2256563281	-0.4245913795	-0.059109
C	 2.3000351128	 0.8027234886	-0.8770523685	-0.079803
O	 2.6750192515	 0.6239377998	-2.2385868082	-0.418359
C	 0.1845299466	 0.0684495342	 0.5475383007	-0.023348
C	-0.0177958194	 1.4192742343	 1.2052280198	-0.207649
C	-1.4543335928	 1.6124886342	 1.6847649647	-0.070237
O	-1.5175271793	 2.8602840559	 2.3569969162	-0.421931
H	-0.266064132	 1.8424379855	-1.5311518211	 0.104237
H	-0.2296505151	 0.5859883455	-2.7725052544	 0.13514
H	-1.6797385292	 0.7999723304	-1.7709017152	 0.116432
H	 1.7132017174	-1.2323102448	-0.3952991232	 0.076776
H	 1.9137473725	 1.8214509424	-0.8148878624	 0.110774
H	 3.1777906155	 0.7505673444	-0.2127501379	 0.092259
H	 2.9849102155	-0.2821773375	-2.3406390546	 0.281931
H	-0.1058717923	-0.7552422612	 1.2025560308	 0.084909
H	 0.6445040359	 1.4964396609	 2.0763895002	 0.111957
H	 0.2407709589	 2.250619685	 0.5453879631	 0.111156
H	-2.1428104079	 1.583865901	 0.8255432673	 0.093989
H	-1.7346831261	 0.7816427284	 2.3530139348	 0.086982
H	-2.422912228	 3.0002031023	 2.6488749245	 0.286735
64.1579	80.7481	93.5318	97.7748	132.8755	208.6795	255.4195	265.5317	280.2125	287.9509	333.137	393.0113	526.5766	534.5846	572.7276	742.0118	770.0394	825.8189	863.665	997.6527	1021.6832	1050.6712	1065.5835	1070.9985	1082.3017	1112.6879	1140.019	1156.6833	1166.2949	1188.0683	1226.9918	1234.6788	1243.5066	1311.7506	1321.6034	1349.0746	1360.245	1400.4545	1419.0536	1444.9947	1460.3845	1464.6559	1477.1015	1488.0881	1505.1362	1514.2622	1527.3272	2964.277	2975.5813	2993.4428	3003.1948	3040.9429	3052.826	3069.0681	3077.6773	3102.9649	3112.9037	3119.7772	3808.4766	3831.6262
CN1C(CO)C1CCO	CN1[C@@H](CO)[C@H]1CCO	
InChI=1S/C6H13NO2/c1-7-5(2-3-8)6(7)4-9/h5-6,8-9H,2-4H2,1H3	InChI=1S/C6H13NO2/c1-7-5(2-3-8)6(7)4-9/h5-6,8-9H,2-4H2,1H3/t5-,6+,7?/m1/s1
