21
gdb 102582	2.16733	1.33517	0.96402	3.5945	75.57	-0.2508	0.0671	0.318	1305.7672	0.179492	-461.321453	-461.310913	-461.309969	-461.357748	37.216	
C	 0.247478869	 1.4888682016	 0.0586619583	-0.24407
O	 0.0160624406	 0.1049886687	-0.1202190479	-0.241386
C	 0.7422870461	-0.4830622803	-1.1919443994	 0.020317
C	 2.1650863	-0.8163598439	-0.7196688172	-0.057967
O	 2.1494713129	-1.713188789	 0.3679799104	-0.419529
C	 0.0297985129	-1.7419100664	-1.6688473357	 0.070118
O	-0.672335461	-2.5383677143	-0.7215873142	-0.249573
C	-1.422128442	-1.9567746444	-1.799558904	 0.070564
C	-2.5102704233	-0.9696498206	-1.4643285044	-0.432776
H	 1.2905408861	 1.7125877044	 0.3199327026	 0.119135
H	-0.014320653	 2.058043148	-0.8455367749	 0.112204
H	-0.3944224837	 1.8136129854	 0.8807633845	 0.134748
H	 0.8032525103	 0.2177164089	-2.0424629618	 0.074014
H	 2.7255361898	-1.2898276072	-1.5344413344	 0.105224
H	 2.693977339	 0.1178870402	-0.4679386179	 0.083177
H	 1.3874731955	-1.4725645048	 0.9095598623	 0.295796
H	 0.667591717	-2.3175746725	-2.3455707378	 0.088751
H	-1.7116845913	-2.6944464598	-2.5530852417	 0.084873
H	-2.1897791867	-0.2846766253	-0.6820117602	 0.149394
H	-2.7853532678	-0.3963023883	-2.3570996722	 0.113299
H	-3.4053530906	-1.5038444704	-1.1278000543	 0.123687
48.0706	67.2333	95.1051	155.9202	178.3674	185.5664	246.9362	255.8027	329.9998	346.9641	387.2683	405.3505	455.4643	623.7003	697.2149	782.1593	825.6761	864.0099	935.0296	969.5884	1011.6054	1033.6665	1084.3753	1102.1516	1110.685	1142.7789	1173.6892	1181.0708	1185.8714	1213.0009	1236.0715	1294.4646	1309.366	1369.6537	1383.3885	1399.4474	1419.8066	1434.6897	1469.6815	1480.9448	1487.6625	1502.4735	1507.3763	1512.4271	1519.6088	2956.559	2969.8993	2991.5684	3037.3137	3045.9929	3053.9182	3063.3048	3076.0375	3091.947	3119.8651	3177.4863	3782.7097
COC(CO)C1OC1C	CO[C@@H](CO)[C@H]1O[C@H]1C	
InChI=1S/C6H12O3/c1-4-6(9-4)5(3-7)8-2/h4-7H,3H2,1-2H3	InChI=1S/C6H12O3/c1-4-6(9-4)5(3-7)8-2/h4-7H,3H2,1-2H3/t4-,5-,6-/m0/s1
