18
gdb 93025	2.27077	1.95538	1.26654	2.8269	72.	-0.2328	0.0151	0.2479	1014.9827	0.147675	-439.082096	-439.073885	-439.072941	-439.114481	31.935	
C	 0.1082818794	 1.5625483575	-0.1019826	-0.412996
C	 0.0119562223	 0.0504283067	 0.0336068683	 0.075245
O	 0.4809819147	-0.5122702945	-1.2094901064	-0.244972
C	 0.8694307251	-1.8130143054	-1.2083460134	 0.113664
N	 1.2431009015	-2.5247719911	-0.2314617811	-0.256717
C	 1.3199954686	-1.8927842694	 1.0499344485	-0.032886
C	 2.246862099	-0.6892747603	 1.2171095299	-0.363352
C	 0.7533035781	-0.5180289525	 1.2359848552	 0.345921
O	 0.1175571315	-0.2578532358	 2.4554596647	-0.467299
H	 1.151208449	 1.8758001048	-0.2073174282	 0.126705
H	-0.4476661191	 1.9029994843	-0.9791772352	 0.132426
H	-0.3191718804	 2.0453892797	 0.7818148584	 0.117556
H	-1.0396257136	-0.2446209781	 0.1538663916	 0.09968
H	 0.8575109223	-2.2120708595	-2.2202531002	 0.124632
H	 1.2575744368	-2.5739966523	 1.8909850002	 0.107943
H	 2.7643426867	-0.5942446922	 2.1654494332	 0.118714
H	 2.8090162792	-0.3712163787	 0.3454384335	 0.128492
H	 0.4077811488	 0.6054791967	 2.769522941	 0.287244
96.2063	192.0076	224.55	242.8218	291.4768	308.6659	379.6798	410.9263	465.8226	512.2914	564.1707	593.1795	689.0985	822.6148	861.2479	877.0334	902.0712	923.2056	946.0336	990.5385	1029.6681	1059.4767	1083.257	1112.3905	1120.404	1153.2983	1164.5549	1225.2676	1318.047	1329.3432	1359.2315	1381.528	1396.7621	1405.0001	1412.8889	1475.123	1488.9889	1495.1697	1719.4782	3012.769	3044.5217	3119.1781	3125.894	3131.3566	3165.9619	3175.9597	3225.7627	3797.0459
CC1OC=NC2CC12O	C[C@H]1OC=N[C@H]2C[C@@]12O	
InChI=1S/C6H9NO2/c1-4-6(8)2-5(6)7-3-9-4/h3-5,8H,2H2,1H3	InChI=1S/C6H9NO2/c1-4-6(8)2-5(6)7-3-9-4/h3-5,8H,2H2,1H3/t4-,5+,6-/m1/s1
