17
gdb 97276	2.62469	1.14498	0.80116	1.9726	77.61	-0.2491	-0.0202	0.2289	1392.5954	0.135906	-451.375934	-451.366526	-451.365582	-451.410507	33.612	
C	 1.0114671964	 1.342986633	 0.8735367902	-0.317062
N	 0.9417891066	-0.0710552686	 1.1831817916	-0.252092
C	 0.457462447	-0.8348964485	 0.3018051211	 0.13086
N	 0.340006212	-2.2299546546	 0.4935204002	-0.205894
C	 0.7788002513	-2.7600827257	 1.7019655022	 0.137896
N	 0.7308020786	-3.9984059275	 2.0040627898	-0.498578
C	-0.2357427565	-2.9629522086	-0.6131293713	 0.499893
N	-0.3391811534	-4.2883332119	-0.4125072629	-0.572058
O	-0.5802535195	-2.3751798172	-1.618954019	-0.392567
H	 0.6226616824	 1.5969267096	-0.1242275784	 0.10852
H	 0.4462930514	 1.9092530582	 1.6224753027	 0.130539
H	 2.0521320924	 1.6803156759	 0.9384494394	 0.130538
H	 0.0831990225	-0.5347470918	-0.6772168433	 0.151909
H	 1.1649551426	-1.9678491259	 2.3433934138	 0.152474
H	 1.1061045952	-4.1500312521	 2.9363789259	 0.239227
H	-0.0246021345	-4.6999709205	 0.4644335773	 0.292248
H	-0.7361393744	-4.8231219438	-1.1653033393	 0.264147
64.5982	115.6172	146.2106	173.591	194.6842	227.6009	314.5719	380.0944	391.079	406.0547	430.931	468.789	617.0978	691.7522	710.1279	783.2651	824.8687	846.9094	1013.5002	1025.7886	1091.0003	1133.9097	1144.8575	1148.5347	1165.3617	1284.0892	1322.439	1353.9806	1402.9617	1421.9954	1448.2191	1481.412	1501.7124	1602.864	1709.1907	1761.4631	1822.4796	2986.0654	3066.3992	3080.7045	3135.5511	3138.5789	3395.872	3524.9262	3703.9464
CN=CN(C=N)C(N)=O	CN=CN(C=N)C(=O)N	
InChI=1S/C4H8N4O/c1-7-3-8(2-5)4(6)9/h2-3,5H,1H3,(H2,6,9)	InChI=1S/C4H8N4O/c1-7-3-8(2-5)4(6)9/h2-3,5H,1H3,(H2,6,9)
