16
gdb 57140	4.34975	0.71151	0.6569	2.1676	87.41	-0.2459	-0.0341	0.2118	1663.5691	0.122422	-400.654478	-400.645124	-400.64418	-400.689262	33.849	
O	-0.6906913392	 0.9403693735	 0.1184714656	-0.41915
C	-0.3567067561	-0.4371835657	-0.0422367308	-0.116943
C	 0.5186124602	-0.6615743848	-1.1897967349	 0.410697
C	 1.270706158	-0.8302102313	-2.1235755133	-0.281694
C	 2.1125203974	-1.0186896723	-3.1753524124	 0.292211
C	 2.8603226939	-1.1851090371	-4.1085314634	-0.544323
C	 0.2515201597	-1.0309990775	 1.2334406712	 0.023011
C	 1.1506784097	-0.2228782559	 2.0856463218	-0.236124
N	-0.2198260954	-0.5465499078	 2.5303381599	-0.326665
H	 0.0826929779	 1.4631101304	-0.1191805891	 0.296546
H	-1.3161819708	-0.9411736442	-0.2217023292	 0.132208
H	 3.5167243645	-1.3327897285	-4.9301144233	 0.197895
H	 0.4013250116	-2.1065886526	 1.1738095785	 0.106028
H	 1.9466441285	-0.70489069	 2.6448991591	 0.123321
H	 1.3615852192	 0.8002523958	 1.786438544	 0.100829
H	-0.8056252092	 0.271305718	 2.3653358964	 0.242151
53.6876	78.0882	128.5941	202.4552	248.6203	267.5981	293.693	336.2729	409.6966	489.9518	512.7958	555.4264	591.3108	615.746	630.1161	764.6677	798.9343	873.416	926.9021	969.8621	1001.9688	1051.4795	1115.0479	1152.2977	1168.2943	1198.4696	1259.126	1276.4329	1309.6943	1322.4699	1396.627	1420.029	1506.8194	2181.0502	2357.7517	3019.822	3114.5975	3136.7329	3199.0581	3480.4907	3503.6254	3817.18
OC(C#CC#C)C1CN1	O[C@@H](C#CC#C)[C@H]1CN1	
InChI=1S/C7H7NO/c1-2-3-4-7(9)6-5-8-6/h1,6-9H,5H2	InChI=1S/C7H7NO/c1-2-3-4-7(9)6-5-8-6/h1,6-9H,5H2/t6-,7+/m1/s1
