20
gdb 112753	2.49435	1.28501	0.97506	3.0977	76.03	-0.2398	0.0659	0.3058	1266.6274	0.169892	-440.228086	-440.218737	-440.217793	-440.262395	34.692	
C	 0.1894746084	 1.6473090344	-0.361627902	-0.239171
O	-0.3247429832	 0.3565550626	-0.6105255765	-0.24466
C	 0.6206164671	-0.5285387015	-1.1480456123	 0.065156
C	 1.6628961223	-1.2025546907	-0.2016227257	-0.312805
C	 1.3469156327	-2.57002863	-0.8864508981	 0.093299
O	 1.2373236929	-3.7275735799	-0.1015852604	-0.42748
C	 0.0797219379	-1.9220122936	-1.4593282678	 0.26468
C	-1.3183325739	-2.3553399388	-1.2437968403	-0.303306
N	-0.7098608997	-2.379020748	-2.5912399534	-0.37858
H	 0.9965538724	 1.6306039154	 0.3854106044	 0.112159
H	 0.5794748136	 2.1121847013	-1.2805580685	 0.106968
H	-0.6327851532	 2.2560911452	 0.0215621239	 0.129301
H	 1.1116988975	-0.0742890601	-2.0245429868	 0.067775
H	 2.694651831	-0.8485119272	-0.2264624263	 0.103866
H	 1.2940220782	-1.1902761024	 0.8289776631	 0.103782
H	 2.0677528876	-2.8108838801	-1.6731123808	 0.099512
H	 0.5806502194	-3.5574973912	 0.5826468847	 0.278746
H	-1.5177960082	-3.3390041398	-0.8266463744	 0.118584
H	-2.047857981	-1.5869661386	-1.0073295959	 0.130072
H	-1.0367331417	-1.5775847269	-3.1281855269	 0.232102
71.2017	94.021	159.4396	200.0105	209.4703	246.3559	307.5555	324.116	362.9441	469.0331	486.6357	555.683	569.4312	727.6707	820.0415	844.8449	910.5646	947.4587	972.5871	983.4346	1006.1511	1042.173	1067.2827	1100.9617	1126.239	1135.174	1172.7783	1184.0467	1185.4047	1226.2408	1239.5023	1268.7527	1285.9361	1292.8323	1322.765	1390.4535	1412.6408	1443.0878	1471.4988	1484.788	1488.4754	1507.1641	1509.9927	2963.3496	2979.4448	3028.2839	3057.9715	3075.4709	3111.1338	3117.088	3127.3678	3204.3578	3479.3884	3803.3301
COC1CC(O)C11CN1	CO[C@H]1C[C@@H](O)[C@]21CN2	
InChI=1S/C6H11NO2/c1-9-5-2-4(8)6(5)3-7-6/h4-5,7-8H,2-3H2,1H3	InChI=1S/C6H11NO2/c1-9-5-2-4(8)6(5)3-7-6/h4-5,7-8H,2-3H2,1H3/t4-,5+,6+/m1/s1
