20
gdb 115311	2.94145	1.15983	0.91979	2.2463	75.19	-0.2319	-0.0329	0.199	1313.2409	0.170964	-440.3036	-440.294358	-440.293414	-440.337887	34.48	
C	-0.0741480157	 1.6539363672	 0.1111196868	-0.391209
C	-0.00690578	 0.147519626	-0.1376979045	-0.145873
C	-1.3684519072	-0.5422533216	 0.0618974013	-0.111599
N	-2.3694286554	-0.139430092	-0.9487827744	-0.301132
C	-2.5027665186	-1.2496996006	-1.9153083622	-0.215981
C	-2.3110780388	-2.5271904354	-1.0823081675	 0.059508
O	-1.9233972191	-3.6761176734	-1.7768728882	-0.437698
C	-1.24385077	-2.0602824271	-0.0948708167	 0.360553
O	-0.3993028257	-2.7901276895	 0.363714503	-0.337453
H	 0.8920126849	 2.1286019247	-0.0841855606	 0.114409
H	-0.8216880549	 2.114621042	-0.5407673783	 0.13294
H	-0.3491678876	 1.8716286357	 1.149708897	 0.109063
H	 0.3385880399	-0.0465042555	-1.160392721	 0.102245
H	 0.7139400182	-0.3326903998	 0.5330477547	 0.116943
H	-1.7282289722	-0.3107163111	 1.0727658692	 0.10189
H	-3.2641525007	 0.0270874272	-0.5045109819	 0.226287
H	-3.4647610057	-1.1965244234	-2.4274309983	 0.116577
H	-1.7131035203	-1.1928334093	-2.6744081541	 0.122174
H	-3.236911607	-2.70100869	-0.5004429675	 0.086331
H	-1.2106373344	-4.0739118441	-1.2535272869	 0.292026
56.5541	107.8762	152.815	178.7954	240.8979	274.9699	306.9938	360.1601	404.9817	439.5205	500.1492	612.7892	633.9139	666.7699	756.9805	782.6812	847.5152	872.1275	952.5632	989.2876	1020.0949	1046.7023	1070.7293	1086.0919	1119.6469	1133.8543	1178.4528	1206.9573	1253.6211	1270.3882	1289.6159	1300.8573	1350.1632	1370.4701	1378.9985	1406.1279	1411.9267	1458.0158	1481.545	1495.4882	1505.3732	1510.8092	1836.5947	2919.6992	3024.3	3032.4584	3037.0973	3040.5254	3077.8417	3101.3538	3119.3998	3119.8186	3545.3307	3705.7525
CCC1NCC(O)C1=O	CC[C@H]1NC[C@@H](O)C1=O	
InChI=1S/C6H11NO2/c1-2-4-6(9)5(8)3-7-4/h4-5,7-8H,2-3H2,1H3	InChI=1S/C6H11NO2/c1-2-4-6(9)5(8)3-7-4/h4-5,7-8H,2-3H2,1H3/t4-,5-/m1/s1
