17
gdb 28351	3.15902	1.37675	0.97034	3.8493	82.03	-0.2187	-0.0472	0.1715	1198.3605	0.136574	-418.088016	-418.079526	-418.078582	-418.121099	31.444	
C	-0.0198162485	 1.5268112885	 0.0520652255	-0.496323
C	-0.0038785552	 0.0332646491	-0.051008341	 0.374922
C	-0.034813035	-0.6740723755	-1.2137091343	-0.135972
N	-0.0182167058	-2.0426747562	-1.2492196387	-0.290307
C	 0.0288712304	-2.7190067879	-0.1386886604	 0.203589
C	 0.047311655	-4.216442753	-0.1582218876	-0.459418
C	 0.0663229608	-2.0781920272	 1.1896893552	 0.365539
O	 0.1106534349	-2.6594814195	 2.2615827837	-0.384448
N	 0.0457037182	-0.6859193483	 1.1148907241	-0.400222
H	 0.8770462608	 1.8998376092	 0.5607128815	 0.14388
H	-0.0590635406	 1.9754725912	-0.9418581037	 0.150183
H	-0.8898932518	 1.8768728355	 0.6200984882	 0.143917
H	-0.0743553871	-0.1621147223	-2.1675669574	 0.109473
H	 0.0177430839	-4.5754178297	-1.1874230915	 0.131861
H	 0.9440469578	-4.5964884867	 0.3435904007	 0.14242
H	-0.8043720344	-4.6188312819	 0.4013892815	 0.1424
H	 0.0703612868	-0.2127440054	 2.0092013541	 0.258507
109.7444	127.9308	153.7551	174.6672	277.0417	300.1754	343.1832	446.5669	475.9027	528.4037	571.0825	602.9158	704.4247	719.1474	754.6109	798.902	855.19	962.9399	1027.3573	1049.371	1050.7821	1064.3758	1166.467	1200.81	1259.7844	1304.9674	1378.7355	1404.536	1417.0555	1463.1995	1467.2199	1468.931	1478.1024	1508.0977	1591.8698	1656.5324	1771.1585	3028.3465	3038.8633	3080.0705	3089.5052	3138.9492	3151.5587	3199.8036	3585.9488
CC1=CN=C(C)C(=O)N1	Cc1cnc(C)c(=O)[nH]1	
InChI=1S/C6H8N2O/c1-4-3-7-5(2)6(9)8-4/h3H,1-2H3,(H,8,9)	InChI=1S/C6H8N2O/c1-4-3-7-5(2)6(9)8-4/h3H,1-2H3,(H,8,9)
