19
gdb 90280	3.34706	1.25859	1.11081	4.2407	83.36	-0.2316	-0.0368	0.1948	1150.4941	0.15997	-385.907406	-385.899495	-385.898551	-385.93984	31.096	
C	-0.0746510306	 1.5496177991	-0.1629517059	-0.397687
C	-0.01044988	 0.0331430473	-0.0509292611	-0.013862
C	 1.2204561316	-0.6145975438	-0.8157316668	-0.332459
C	 1.8969710958	-0.6044690903	 0.527043342	 0.323045
C	 2.9662311047	-0.1565457704	 1.1920439078	-0.35537
C	 2.5303236296	 0.2429697743	 2.5630153199	 0.391093
O	 3.2294250991	 0.6046530243	 3.4786715944	-0.330325
C	 0.9711100549	 0.2204799962	 2.5768938398	-0.374185
C	 0.6087887641	-0.5315687414	 1.2948410021	-0.056714
H	 0.8897618349	 2.0106899929	 0.0766566929	 0.125373
H	-0.3445047637	 1.8527370708	-1.1797653819	 0.120378
H	-0.8249356969	 1.9640078435	 0.5183682257	 0.123152
H	-0.9754674048	-0.4096168843	-0.3106021141	 0.07895
H	 0.9778711592	-1.6193230905	-1.174823152	 0.122018
H	 1.6872854761	-0.046072777	-1.623834995	 0.118733
H	 3.9713308985	 0.016789847	 0.8302850246	 0.110566
H	 0.5952581641	-0.2245862271	 3.5008591392	 0.122453
H	 0.632849817	 1.2630205203	 2.5575812285	 0.132778
H	 0.1760155762	-1.5165968908	 1.4978382097	 0.092064
74.9007	160.7338	214.2239	251.3066	325.3734	359.5664	416.3905	497.5317	535.6883	582.0057	650.8373	742.473	773.3131	795.4406	812.2979	839.2855	896.6948	919.2227	951.3159	1013.3177	1043.7299	1066.008	1092.2416	1103.9683	1125.66	1149.581	1179.7095	1199.5955	1218.9896	1242.5227	1257.164	1299.1489	1328.1216	1360.1411	1413.0883	1447.9853	1470.231	1497.172	1499.6913	1691.8236	1815.321	3031.5771	3048.0467	3051.0455	3054.6759	3070.0463	3100.9206	3102.0067	3111.4378	3112.5022	3222.4401
CC1CC2=CC(=O)CC12	C[C@H]1C[C]2[CH]C(=O)C[C@@H]12	
InChI=1S/C8H10O/c1-5-2-6-3-7(9)4-8(5)6/h3,5,8H,2,4H2,1H3	InChI=1S/C8H10O/c1-5-2-6-3-7(9)4-8(5)6/h3,5,8H,2,4H2,1H3/t5-,8-/m0/s1
