17
gdb 8044	3.39443	1.84236	1.50296	4.1177	73.31	-0.2995	0.0255	0.3251	890.8252	0.143151	-326.702028	-326.694826	-326.693882	-326.733232	27.85	
C	-0.0277739295	 1.4755361202	 0.0313709777	-0.514963
C	 0.0321123865	-0.026645649	 0.0131073061	 0.334827
C	 0.6147868832	-0.959941929	-1.0947581893	-0.266379
C	 0.0682698891	-1.919321793	-0.0027676743	-0.045771
C	 0.7138445996	-0.9769383709	 1.0502273614	-0.271316
C	-1.202895428	-1.0091268288	 0.0358534843	-0.165849
C	-2.0585136221	-1.026730171	 1.2107559232	 0.260912
N	-2.7500844195	-1.028461084	 2.1381104466	-0.339495
H	 0.9807119012	 1.9021908964	 0.0170962702	 0.126919
H	-0.5692861618	 1.8606071645	-0.839230204	 0.124513
H	-0.5347713948	 1.8350126148	 0.9327671028	 0.138864
H	 0.1024833613	-0.9608321526	-2.0611867358	 0.095465
H	 1.7001865301	-0.9383990939	-1.2163226176	 0.100241
H	 0.0665527076	-3.0083699198	-0.011521044	 0.091323
H	 1.8061230601	-0.9548738586	 1.070555819	 0.097395
H	 0.2943685596	-0.9939174829	 2.0583350362	 0.123879
H	-1.8126090626	-1.0127175124	-0.8722656025	 0.109435
126.6703	170.2251	208.1664	296.1251	307.6622	446.9951	507.8997	531.7517	596.3835	641.7278	760.2655	808.076	870.3929	906.0666	910.3028	950.9549	1011.4017	1016.3973	1026.9838	1057.4296	1087.7248	1112.3577	1136.9587	1183.5113	1194.5779	1221.9531	1229.5607	1238.0205	1317.6876	1372.3346	1413.033	1487.9417	1489.2257	1501.8657	1543.2467	2347.7327	3031.6918	3052.7687	3064.0269	3073.0439	3100.7588	3104.6858	3121.1524	3127.4627	3130.9601
CC12CC(C1)C2C#N	C[C@@]12C[C@@H](C1)[C@H]2C#N	
InChI=1S/C7H9N/c1-7-2-5(3-7)6(7)4-8/h5-6H,2-3H2,1H3	InChI=1S/C7H9N/c1-7-2-5(3-7)6(7)4-8/h5-6H,2-3H2,1H3/t5-,6-,7+/m1/s1
