17
gdb 26154	1.9082	1.24551	0.76013	1.0046	77.47	-0.2483	-0.0688	0.1795	1469.2028	0.132473	-455.191844	-455.181095	-455.180151	-455.228662	36.125	
C	-0.6300786256	 2.2006988291	 0.4601173582	-0.450636
C	-0.6684579212	 0.7180098017	 0.3232389102	-0.131527
N	 1.9622945365	-1.4331394441	 0.3849516311	-0.725842
H	 2.582112121	-1.6420320306	-0.3929943226	 0.233938
H	 2.427639476	-1.7866786209	 1.2164986355	 0.233943
H	 1.130818572	-2.0074584331	 0.2534425904	 0.27134
C	-1.7917629627	 0.0020902683	 0.1501817674	 0.157271
C	-1.8561808506	-1.4725181694	 0.0120134641	 0.395355
O	-1.0416778401	-2.3506564197	 0.012408665	-0.332217
O	-3.2253878249	-1.7431685186	-0.1449572479	-0.206831
C	-3.8407215707	-0.5231427074	-0.0953954902	 0.100274
N	-3.1081620499	 0.5085904162	 0.0679559947	-0.315309
H	-0.1634142804	 2.4781833359	 1.4137135351	 0.143819
H	 0.0042817775	 2.6343039015	-0.3232748095	 0.14382
H	-1.6258785379	 2.6417258222	 0.4035603674	 0.153244
H	 0.2769051291	 0.174268168	 0.3662577998	 0.172063
H	-4.9174230979	-0.5433634091	-0.2015724087	 0.157294
42.195	100.1614	119.7111	135.6985	146.5974	171.1921	176.8375	190.2184	235.3389	341.0301	368.7654	387.9696	592.7733	636.4072	648.5878	789.3245	797.3724	876.4951	916.7165	936.9656	943.7524	1015.28	1091.6834	1102.2028	1122.7675	1157.699	1216.2397	1334.8681	1388.0354	1407.2452	1471.9874	1480.2669	1640.9479	1673.555	1699.9775	1720.5369	1871.0603	3025.1505	3069.3417	3114.8929	3149.9856	3238.8217	3452.7992	3566.2326	3583.0678
CC([NH3+])C1=C([O-])OC=N1	CC=C1C(=O)OC=N1.N	
InChI=1S/C5H8N2O2/c1-3(6)4-5(8)9-2-7-4/h2-3,8H,6H2,1H3	InChI=1S/C5H5NO2.H3N/c1-2-4-5(7)8-3-6-4;/h2-3H,1H3;1H3
