14
gdb 43908	3.04948	1.42482	1.12368	4.2025	69.42	-0.245	-0.004	0.2409	1047.6986	0.099878	-436.633244	-436.625591	-436.624647	-436.665451	28.939	
O	-0.0246604529	 0.0094907045	 0.1297838458	-0.346489
C	 0.0130200786	 1.2003849695	 0.0139172341	 0.441471
N	-0.974264253	 2.1677220546	-0.0839164199	-0.384171
C	-0.0789214175	 3.3270278515	-0.0747220719	 0.127793
C	 0.4246124015	 3.7386906064	 1.338718599	-0.111835
O	 1.4469788017	 2.7196861295	 1.3287551878	-0.275931
C	 1.1112735187	 2.3023623111	-0.0046139158	-0.11486
C	-0.3029648066	 4.3387119262	-1.0725649217	 0.238277
C	-0.4891595568	 5.2063005912	-1.8834077889	-0.394462
H	-1.9640624298	 2.1177005425	 0.117721714	 0.257159
H	 0.8673043973	 4.7394704181	 1.3685981957	 0.124208
H	-0.2963161138	 3.6141199202	 2.1532631528	 0.115781
H	 1.9583939983	 2.2435571536	-0.687374524	 0.119167
H	-0.6516288255	 5.964903881	-2.6092943269	 0.203893
100.0253	148.2997	191.7184	236.7964	375.7972	421.1449	459.6546	500.1205	521.6281	581.5135	639.9632	663.7447	704.8786	756.6146	820.3254	900.0025	957.864	992.8151	1021.4821	1033.6994	1082.1448	1132.9437	1164.3323	1198.2524	1262.4867	1273.2722	1330.574	1366.8098	1504.4596	1905.9143	2240.9466	3037.2864	3097.1474	3130.4395	3498.4362	3587.8833
O=C1NC2(COC12)C#C	O=C1N[C@]2(CO[C@@H]12)C#C	
InChI=1S/C6H5NO2/c1-2-6-3-9-4(6)5(8)7-6/h1,4H,3H2,(H,7,8)	InChI=1S/C6H5NO2/c1-2-6-3-9-4(6)5(8)7-6/h1,4H,3H2,(H,7,8)/t4-,6-/m0/s1
