18
gdb 35860	2.20608	1.69787	1.19881	1.4341	76.63	-0.2467	0.0319	0.2785	1081.0794	0.147844	-401.882937	-401.874595	-401.873651	-401.916639	31.629	
C	-0.0178555856	-1.2474839462	 0.3595939659	-0.483702
C	 0.0219025681	-0.0610140211	 0.1691946569	 0.36192
C	 0.0700567416	 1.3902788627	-0.0578422779	-0.192481
O	-0.6283849309	 2.1103242463	 0.9488252724	-0.236904
C	 0.2730817071	 2.260387408	 2.0479838057	-0.084142
C	 1.6661908095	 2.4839386237	 1.4247903046	-0.305703
C	 1.5045276849	 1.9499350542	-0.0000342266	 0.349119
C	 2.5889477817	 1.4177568298	-0.8502006496	-0.290994
N	 2.0369003531	 2.7644096587	-1.0989831355	-0.356755
H	-0.0599405092	-2.2959143674	 0.5248815499	 0.201359
H	-0.4156544227	 1.6226825507	-1.0127352264	 0.108201
H	-0.0839658534	 3.1019547058	 2.6450148742	 0.115392
H	 0.2589123485	 1.3562691597	 2.6726363949	 0.10495
H	 1.9287263615	 3.5430664731	 1.3797281956	 0.128135
H	 2.448532743	 1.9601547199	 1.9798263737	 0.111775
H	 3.6105678321	 1.4027870132	-0.4797255039	 0.120372
H	 2.3475798299	 0.6121310073	-1.5396002866	 0.119571
H	 1.4114072108	 2.7429209817	-1.9014542772	 0.229886
31.3092	132.2134	138.0391	260.5583	287.2282	352.4668	368.8054	483.5086	524.7072	576.2954	632.5049	669.9784	679.0095	813.3611	845.683	860.8329	921.0123	926.2952	952.8023	973.6503	977.1081	1000.2995	1068.3766	1086.7256	1113.6732	1139.5044	1222.1243	1243.9455	1256.4457	1264.7971	1290.0333	1297.5636	1339.5943	1382.3164	1409.3717	1488.9476	1515.3751	1518.4064	2228.2859	3007.4056	3040.7858	3068.7134	3103.4803	3103.641	3121.027	3187.8224	3489.4153	3500.371
C#CC1OCCC11CN1	C#C[C@H]1OCC[C@]21CN2	
InChI=1S/C7H9NO/c1-2-6-7(5-8-7)3-4-9-6/h1,6,8H,3-5H2	InChI=1S/C7H9NO/c1-2-6-7(5-8-7)3-4-9-6/h1,6,8H,3-5H2/t6-,7-/m1/s1
