17
gdb 105329	2.53904	1.53748	1.18219	3.4776	72.56	-0.2567	0.007	0.2637	1077.6008	0.135254	-417.952632	-417.944178	-417.943234	-417.985714	31.181	
C	 0.0514587991	 1.3527423144	-0.0550456216	-0.26913
O	-0.0009638767	-0.0592413645	 0.1027906013	-0.277793
C	-1.2855891808	-0.6144130876	 0.0288764632	 0.256974
C	-2.0009645495	-0.6984786397	-1.3676677746	-0.228527
N	-2.0478646048	-2.1976877474	-1.3122781733	-0.119281
C	-0.6433496752	-2.6310659817	-1.2351399519	-0.24688
C	-1.2814362547	-2.1423760147	 0.0009219812	-0.071417
C	-2.1684415061	-0.0713412604	 1.0770430342	 0.248392
N	-2.8473040159	 0.377054712	 1.8979126089	-0.341824
H	 1.1069166013	 1.626757443	-0.0188240057	 0.141752
H	-0.3680456508	 1.6665840313	-1.0208632094	 0.116757
H	-0.4853237478	 1.8698501655	 0.7502061502	 0.142048
H	-3.0081827385	-0.2817693199	-1.3757990483	 0.141274
H	-1.4192854776	-0.299057714	-2.2040054851	 0.120243
H	-0.5275503074	-3.7060454925	-1.3276491517	 0.13462
H	 0.1293445397	-2.036721384	-1.7150040759	 0.131276
H	-1.5278333942	-2.7723853397	 0.8472026984	 0.121515
116.6794	126.0821	164.5055	175.2711	192.6527	290.0573	393.2907	427.5069	491.3996	522.7484	569.9252	646.7218	753.7239	785.9726	846.3069	900.6967	964.0538	985.2127	1039.3799	1060.1272	1094.6516	1105.0005	1114.2456	1167.645	1176.2077	1183.8698	1212.1561	1232.0819	1243.0855	1283.5777	1367.2654	1478.087	1480.4466	1489.638	1502.4254	1507.9938	2351.3327	3003.7495	3058.6116	3066.34	3119.3107	3138.0034	3139.1754	3188.821	3213.6207
COC1(CN2CC12)C#N	CO[C@]1(CN2C[C@@H]12)C#N	
InChI=1S/C6H8N2O/c1-9-6(3-7)4-8-2-5(6)8/h5H,2,4H2,1H3	InChI=1S/C6H8N2O/c1-9-6(3-7)4-8-2-5(6)8/h5H,2,4H2,1H3/t5-,6-,8?/m0/s1
