21
gdb 58811	3.52431	1.09428	0.96254	0.9825	78.89	-0.2314	0.0736	0.305	1313.0135	0.180478	-424.190734	-424.181196	-424.180252	-424.224838	36.287	
C	 0.0138646015	 1.4720835533	-0.1081859915	-0.410885
C	 0.0130187697	-0.0560719961	-0.1521846988	 0.003042
O	 0.8903142864	-0.6288648483	 0.8097836052	-0.422907
C	-1.3833421602	-0.6044810046	 0.0071435669	 0.494541
C	-2.0536111327	-1.0401344233	 1.2742109664	-0.35718
C	-1.9578404649	-1.9957416005	 0.0940862183	-0.214758
C	-2.8948892505	-1.5434087042	-1.0265100894	 0.147559
C	-4.3994298158	-1.6146533144	-0.8733476562	-0.4077
O	-2.3638341627	-0.1806742865	-0.9515466293	-0.35473
H	 1.0248959476	 1.8550548654	-0.2708744072	 0.120256
H	-0.650619718	 1.8761804508	-0.876592022	 0.143277
H	-0.3443523793	 1.8291772015	 0.8654012067	 0.108086
H	 0.400593963	-0.3852278107	-1.1240340723	 0.095691
H	 0.7170091434	-0.1939673966	 1.6519430019	 0.281189
H	-1.3895671159	-1.306836435	 2.0897691404	 0.111133
H	-2.9986545229	-0.5939586002	 1.569913291	 0.110657
H	-1.4605997615	-2.9537289075	 0.1608383983	 0.103375
H	-2.5890026247	-1.982051407	-1.9855105951	 0.082295
H	-4.7228352721	-1.2336209255	 0.0987665542	 0.121357
H	-4.8882936178	-1.0230578289	-1.654039588	 0.127294
H	-4.7373409524	-2.6520276319	-0.9708334596	 0.118407
66.265	124.8991	150.3994	221.891	240.7297	288.661	293.0872	303.3979	315.9788	455.9574	463.4886	488.1007	556.4223	680.2714	706.8837	834.5921	860.2688	870.929	898.0539	962.59	975.8251	987.5146	1016.9461	1057.6108	1061.2026	1073.3846	1086.7517	1112.3681	1126.0522	1154.4425	1166.1983	1273.1753	1300.5986	1311.0738	1355.9239	1381.0939	1395.9931	1398.1594	1412.008	1415.8073	1483.4236	1484.6218	1490.7814	1494.106	1500.0721	3015.4242	3027.4859	3038.384	3039.1201	3103.0953	3105.9761	3118.6629	3122.9739	3129.2453	3204.1627	3214.771	3803.2077
CC(O)C12CC1C(C)O2	C[C@@H](O)[C@]12C[C@H]1[C@@H](C)O2	
InChI=1S/C7H12O2/c1-4-6-3-7(6,9-4)5(2)8/h4-6,8H,3H2,1-2H3	InChI=1S/C7H12O2/c1-4-6-3-7(6,9-4)5(2)8/h4-6,8H,3H2,1-2H3/t4-,5-,6+,7-/m1/s1
