16
gdb 33299	5.63279	0.72697	0.69148	5.9578	93.58	-0.253	-0.0409	0.2121	1590.52	0.125058	-363.578827	-363.570781	-363.569837	-363.612035	29.916	
N	 0.0905554486	-3.7326048777	-0.0556685871	-0.343559
C	 0.0679555683	-2.5699634578	-0.0366444483	 0.162797
C	 0.0425221694	-1.2082624649	-0.014005138	 0.242749
C	 0.0265093153	 0.0038821522	-0.0000355326	-0.156448
C	-0.0075287997	 1.4146438795	 0.0477489563	 0.174789
C	 0.2782073277	 2.2817862106	-1.1654851019	-0.312452
C	 1.1717635448	 2.4321774789	 0.0192547036	-0.090879
C	 0.4929528433	 3.2634044093	 1.1115966326	-0.222852
C	-0.7045812239	 2.2601470063	 1.1350500009	-0.297154
H	 0.7006463508	 1.754201198	-2.0132860181	 0.137665
H	-0.4341916863	 3.0621138514	-1.423841604	 0.122427
H	 2.2270904404	 2.1957132083	-0.0335917286	 0.114446
H	 1.0446767789	 3.2635458079	 2.0528700025	 0.119049
H	 0.2642521622	 4.2977585531	 0.8383066401	 0.110421
H	-1.6885230744	 2.6483443487	 0.8572037737	 0.1112
H	-0.7871954153	 1.7308265161	 2.084892289	 0.127799
77.07	81.172	191.1717	224.2596	285.1584	373.4754	447.2786	504.4608	514.6291	576.7416	585.7849	704.5366	781.9419	803.1204	828.0454	909.2459	932.4285	965.5539	993.3309	1024.8055	1067.697	1087.0739	1103.1132	1148.6173	1208.6845	1225.2679	1247.3015	1283.8957	1316.1855	1399.7898	1480.8276	1482.4094	1505.924	2253.8701	2378.4903	3058.2444	3065.7187	3112.0826	3115.7794	3135.5212	3196.1844	3217.098
N#CC#CC12CC1CC2	N#CC#C[C@]12C[C@H]1CC2	
InChI=1S/C8H7N/c9-5-1-3-8-4-2-7(8)6-8/h7H,2,4,6H2	InChI=1S/C8H7N/c9-5-1-3-8-4-2-7(8)6-8/h7H,2,4,6H2/t7-,8+/m1/s1
