23
gdb 92013	2.67933	1.55333	1.17503	0.3056	87.97	-0.2382	0.0778	0.3159	1151.1646	0.208724	-351.147537	-351.139545	-351.138601	-351.179454	33.442	
C	 0.0390468255	 1.5523828839	 0.0205290309	-0.391653
C	 0.0217436913	 0.0186995985	 0.0060943589	 0.025131
C	 0.6462670724	-0.5291923437	-1.2957931246	-0.242263
C	 0.7044319819	-2.0526067452	-1.3385152469	-0.029969
C	 2.0165286337	-2.7902770387	-1.2093665516	-0.308611
C	 1.0486933818	-2.7745804027	-0.0526332337	-0.010901
C	 1.2448774408	-1.9626494934	 1.2016123759	-0.048122
C	 2.1812626173	-0.7797220765	 1.2962977471	-0.310551
C	 0.6883191382	-0.5544601738	 1.2502093462	-0.002148
H	 1.0675144281	 1.9306739789	 0.0084232315	 0.113421
H	-0.4804074356	 1.9630229935	-0.852399722	 0.105298
H	-0.4488625414	 1.9480206819	 0.9176193576	 0.107273
H	-1.028985356	-0.3084945701	 0.0268632359	 0.067782
H	 0.0623307171	-0.1601173676	-2.1456583848	 0.095296
H	 1.6480024289	-0.0993330829	-1.4209128616	 0.096501
H	-0.0497267522	-2.5222833901	-1.9625582495	 0.078711
H	 2.1439278307	-3.7189310757	-1.7554925615	 0.104528
H	 2.9227252385	-2.1983354956	-1.1271127259	 0.107639
H	 0.5174455982	-3.7050870789	 0.1241298643	 0.077847
H	 1.1532146251	-2.5454969305	 2.1129614893	 0.07835
H	 2.6962564937	-0.6248109629	 2.2382654004	 0.104676
H	 2.7764337995	-0.5101389461	 0.4312672493	 0.108635
H	 0.2204559226	-0.2458209925	 2.1817635748	 0.073129
128.775	206.8456	227.9179	249.3351	322.1901	380.0064	404.0743	469.1649	497.0485	539.4374	654.9894	723.1386	762.6719	807.4339	834.6869	844.1596	886.7955	913.6974	921.0386	950.512	974.8113	1009.4349	1018.9815	1053.827	1059.2846	1073.736	1096.7123	1117.9521	1123.3885	1130.0361	1132.9862	1151.0471	1186.0915	1215.9285	1242.9013	1257.8285	1310.26	1344.124	1368.5143	1378.8208	1392.9775	1405.6058	1412.8316	1418.7181	1483.2429	1489.6233	1494.4453	1499.4244	1510.7619	2984.5462	3023.3693	3028.6296	3065.3676	3092.8612	3094.9602	3124.9355	3128.959	3134.7447	3137.2074	3145.8827	3154.6292	3208.8158	3216.0169
CC1CC2CC2C2CC12	C[C@H]1C[C@H]2C[C@H]2[C@H]2C[C@@H]12	
InChI=1S/C9H14/c1-5-2-6-3-8(6)9-4-7(5)9/h5-9H,2-4H2,1H3	InChI=1S/C9H14/c1-5-2-6-3-8(6)9-4-7(5)9/h5-9H,2-4H2,1H3/t5-,6-,7-,8+,9-/m0/s1
