15
gdb 90060	4.1708	1.3415	1.23901	1.3785	67.16	-0.2598	-0.0206	0.2392	990.1047	0.111392	-457.645345	-457.638212	-457.637267	-457.676877	28.114	
O	 0.3050648	 1.3219189019	-0.3606896531	-0.418119
C	 0.0779806349	-0.0099278322	-0.0362753152	 0.118807
C	 0.1812593055	-0.4200448217	 1.4964434892	-0.368696
C	-1.3428513303	-0.4814089829	 1.4725709742	 0.19707
O	-1.8684145413	 0.9216034268	 1.3301824533	-0.336337
C	-2.6637013611	 0.1911511946	 0.3451400683	-0.093043
C	-1.418335277	-0.5829762834	-0.0884815758	-0.082342
C	-2.8442601416	-0.9257765245	 1.4982032144	 0.387488
O	-3.6138199053	-1.6724574897	 1.9863927772	-0.279489
H	-0.3240291084	 1.8318685348	 0.1655905329	 0.291842
H	 0.7270495181	-0.6112720462	-0.6758128857	 0.106651
H	 0.6438194991	-1.4005507344	 1.628515178	 0.127556
H	 0.6268559268	 0.3068446087	 2.1777386923	 0.13143
H	-3.4278123392	 0.7363005885	-0.2083904928	 0.11573
H	-1.5376289603	-1.5457382903	-0.5882685273	 0.10145
100.6656	188.0885	210.4776	355.5767	396.9508	449.1576	508.7505	550.6733	634.2354	682.47	703.9212	782.3835	786.2236	809.1154	835.6046	869.7469	904.9211	929.2992	980.1461	1045.6966	1079.3907	1106.3856	1126.3031	1166.0585	1189.0547	1216.7281	1231.1404	1248.0724	1301.6268	1339.5327	1445.1815	1460.8862	1938.5898	3076.1112	3091.9019	3106.7383	3129.9068	3143.2922	3774.276
OC1CC23OC(C12)C3=O	O[C@H]1C[C@@]23O[C@@H]([C@@H]12)C3=O	
InChI=1S/C6H6O3/c7-2-1-6-3(2)4(9-6)5(6)8/h2-4,7H,1H2	InChI=1S/C6H6O3/c7-2-1-6-3(2)4(9-6)5(6)8/h2-4,7H,1H2/t2-,3+,4-,6+/m0/s1
