23
gdb 79149	4.14747	1.16616	1.08602	0.0706	89.8	-0.2825	0.097	0.3795	1246.5736	0.207607	-351.130787	-351.122641	-351.121697	-351.162997	33.208	
C	-0.1990038269	 1.5830102638	-0.0299752594	-0.434773
C	 0.0085601169	 0.0762760902	 0.0207644039	 0.039724
C	 1.2357424955	-0.5934802202	-0.6565664276	-0.080062
C	 2.1560753483	-0.1290724376	 0.5221116361	-0.00226
C	 3.2228960165	-1.1951812002	 0.7709624051	-0.263291
C	 2.3768086818	-2.4884311735	 0.566613288	 0.007248
C	 2.3557131715	-3.4318404451	 1.7709671369	-0.403279
C	 1.0238733942	-1.8423668151	 0.2572392328	 0.005884
C	 0.8097554725	-0.5900418182	 1.1731380428	-0.069965
H	 0.7149862387	 2.1460961755	 0.1773268191	 0.114792
H	-0.5597067043	 1.8899362261	-1.0183490511	 0.11309
H	-0.952923215	 1.894293829	 0.702091209	 0.113036
H	-0.9375143195	-0.4348676824	-0.1983667851	 0.05593
H	 1.4922098447	-0.6038785398	-1.7193660283	 0.056599
H	 2.458913962	 0.9157965716	 0.5919711932	 0.057696
H	 4.0585587508	-1.1181607983	 0.0673884706	 0.092344
H	 3.6408281923	-1.1319574831	 1.7822737358	 0.091337
H	 2.7320883702	-3.0458030366	-0.3091277878	 0.06383
H	 2.0092445046	-2.9133000522	 2.6723141778	 0.112614
H	 1.6872861646	-4.2830075919	 1.5996532187	 0.10886
H	 3.3541932472	-3.8301234531	 1.9807808931	 0.110703
H	 0.1706561173	-2.4964915609	 0.0594589486	 0.051833
H	 0.566787436	-0.591193758	 2.2387271079	 0.05811
118.2914	189.6015	211.5416	234.5744	259.6609	293.6311	385.1976	460.0078	518.3359	642.3635	692.7779	761.1931	795.6084	803.1337	844.1739	878.0748	891.1953	929.5571	945.0684	961.1325	997.7013	1001.7109	1030.8825	1052.0855	1060.431	1083.1653	1113.2286	1114.5478	1127.3386	1138.4608	1171.642	1180.1806	1221.0892	1223.7182	1257.2109	1261.134	1275.057	1288.2021	1315.1259	1355.8577	1380.8865	1408.0531	1411.4268	1425.1397	1495.2029	1495.8079	1499.3098	1500.1722	1501.1026	3018.5324	3019.5861	3023.9915	3030.275	3036.0746	3070.5423	3073.0453	3074.9711	3085.5029	3086.0374	3092.3366	3093.9644	3105.0941	3118.1634
CC1C2C3CC(C)C2C13	C[C@H]1[C@H]2[C@@H]3C[C@@H](C)[C@H]2[C@H]13	
InChI=1S/C9H14/c1-4-3-6-8-5(2)9(6)7(4)8/h4-9H,3H2,1-2H3	InChI=1S/C9H14/c1-4-3-6-8-5(2)9(6)7(4)8/h4-9H,3H2,1-2H3/t4-,5-,6-,7+,8-,9+/m1/s1
