20
gdb 117645	1.95068	1.42964	1.19659	4.2744	70.68	-0.246	0.0183	0.2643	1181.858	0.169956	-477.456139	-477.446175	-477.44523	-477.491097	36.548	
C	-0.1796736358	 1.2006031868	-1.0364457358	-0.336578
N	 0.0127953693	 0.303236838	 0.1063719582	-0.308927
H	 0.0435898732	 0.841485804	 0.9623804769	 0.234902
H	-0.8980455228	-1.4181502227	 0.0015967775	 0.285908
C	 1.1846737108	-0.5724701907	 0.031843427	-0.213611
C	 0.8136437634	-1.8972419187	-0.6852634717	 0.224678
C	 1.7773756749	-3.0228196645	-0.3049351644	-0.414136
O	-0.5137217325	-2.2628333435	-0.316647127	-0.478114
C	 0.8844166198	-1.7023508247	-2.220846021	 0.397392
O	 1.8666590811	-1.3035786499	-2.7894429045	-0.351754
O	-0.2483213915	-2.0334802996	-2.8570831079	-0.378988
H	 0.710124267	 1.8053261649	-1.2673076144	 0.120688
H	-0.4353390161	 0.6245251761	-1.9297201037	 0.15437
H	-1.0162684526	 1.8720964054	-0.8257865321	 0.124858
H	 2.0410887768	-0.1181517334	-0.4836113913	 0.129635
H	 1.4859412822	-0.8163911379	 1.0550933521	 0.104141
H	 1.7538568702	-3.1831172811	 0.7763990786	 0.11999
H	 1.4881665482	-3.9556526679	-0.7970873389	 0.132478
H	 2.7934346706	-2.7688978486	-0.6162068971	 0.143869
H	-0.8585970862	-2.3161333222	-2.1454131404	 0.309199
70.1142	92.3648	101.0053	202.805	225.9976	236.6678	267.8155	287.6988	351.2072	381.6656	410.7303	527.7804	537.67	602.5121	702.8197	746.3982	766.9899	814.8322	877.5328	888.8084	897.7602	969.4575	1011.4025	1102.4482	1125.1837	1140.604	1157.5796	1188.4863	1208.5665	1248.4455	1318.597	1371.9779	1398.172	1417.9185	1429.6233	1463.7068	1475.7005	1485.0525	1492.6687	1497.1543	1501.8937	1517.0247	1861.7906	2995.4233	3021.5279	3046.9422	3085.0369	3087.8999	3120.639	3123.2705	3136.7552	3487.6516	3560.8469	3561.571
C[NH2+]CC(C)(O)C([O-])=O	CNC[C@@](C)(O)C(=O)O	
InChI=1S/C5H11NO3/c1-5(9,3-6-2)4(7)8/h6,9H,3H2,1-2H3,(H,7,8)	InChI=1S/C5H11NO3/c1-5(9,3-6-2)4(7)8/h6,9H,3H2,1-2H3,(H,7,8)/t5-/m1/s1
