20
gdb 59860	2.61252	1.11083	0.89047	1.4959	79.72	-0.2091	-0.0503	0.1588	1378.1042	0.169498	-436.471333	-436.460894	-436.45995	-436.507505	37.482	
C	-0.6219266642	 1.213694443	-0.2231161393	-0.321971
N	-0.3029057688	-0.1760507011	 0.0552758154	-0.055099
C	 1.0889781586	-0.3839254787	 0.4177668322	-0.324773
C	-1.2306856107	-0.8161411106	 0.986390782	-0.249237
C	-1.3623050218	-2.2514124616	 0.5082611858	 0.400432
O	-0.6602201301	-3.1558955449	 0.9110225788	-0.334987
C	-2.3897273682	-2.5266286898	-0.5846815346	 0.279176
N	-2.2231221599	-3.7598395714	-1.1456601033	-0.536117
N	-3.2596396692	-1.6230689637	-0.8471237172	-0.514498
H	 0.0542775544	 1.5938776212	-0.9958333439	 0.116438
H	-1.6453542399	 1.2858758525	-0.6005225787	 0.138563
H	-0.5257836744	 1.8704034476	 0.6623839889	 0.091285
H	 1.3721212015	 0.1439604854	 1.3487608532	 0.091467
H	 1.2798813223	-1.4499244082	 0.5659292516	 0.140318
H	 1.7377986344	-0.0261169472	-0.3879290487	 0.116262
H	-0.8768577193	-0.804852423	 2.0293859507	 0.093483
H	-2.2028082246	-0.3287520378	 0.9210518144	 0.14201
H	-1.6026892836	-4.3841698454	-0.6514330186	 0.269738
H	-2.9662590661	-4.1665135529	-1.6879426537	 0.251752
H	-3.9101080404	-1.9271028735	-1.5752022349	 0.205757
46.8222	61.8283	72.5203	152.1473	239.2618	253.3403	268.2573	320.5594	353.6441	376.5686	407.5333	431.5608	474.5014	512.4022	549.4413	591.4507	726.5613	796.8616	862.3103	889.2586	979.331	1058.3963	1072.225	1087.4298	1125.7052	1132.9512	1143.4974	1187.2475	1229.5778	1306.1912	1315.6814	1382.2022	1434.1341	1444.6603	1459.3878	1484.6217	1488.5166	1498.5034	1502.1563	1513.0853	1602.2684	1713.2482	1787.572	2921.8551	2930.2735	2981.015	3063.038	3067.0944	3113.6353	3118.9294	3140.972	3441.452	3577.6379	3709.6449
CN(C)CC(=O)C(N)=N	CN(C)CC(=O)C(=N)N	
InChI=1S/C5H11N3O/c1-8(2)3-4(9)5(6)7/h3H2,1-2H3,(H3,6,7)	InChI=1S/C5H11N3O/c1-8(2)3-4(9)5(6)7/h3H2,1-2H3,(H3,6,7)
