17
gdb 93172	2.85568	1.34405	0.9515	4.0016	69.64	-0.2397	-0.0886	0.1511	1199.3164	0.13446	-458.992025	-458.983468	-458.982524	-459.025839	31.382	
C	-0.0452101575	 1.5350351188	 0.0593966444	-0.402647
C	 0.0253113327	 0.0171826781	 0.0023751057	 0.105488
C	 0.7111190962	-0.4997653989	-1.2728965582	-0.307087
C	 0.9187073021	-2.0025089148	-1.2513748393	 0.287853
O	 0.9354458447	-2.6955801515	-2.2351708379	-0.267603
C	 1.1015602312	-2.6551812553	 0.1550967422	 0.28613
O	 1.5100254069	-3.7812683154	 0.2637218494	-0.26176
C	 0.6745193218	-1.8125814933	 1.3551386131	-0.195467
O	 0.7672521389	-0.4223594201	 1.1366447495	-0.251377
H	 0.9618949564	 1.9623702642	 0.0360198599	 0.131365
H	-0.6094307728	 1.925993723	-0.7920435417	 0.124486
H	-0.5350149501	 1.8570702506	 0.981604346	 0.131516
H	-0.9962325077	-0.3979022362	 0.0592800505	 0.077167
H	 0.1706044129	-0.2278489537	-2.1844308003	 0.130377
H	 1.7077396656	-0.0383635871	-1.3270265701	 0.141407
H	-0.3611078745	-2.1089171708	 1.6060944893	 0.122913
H	 1.3068840032	-2.0619575575	 2.2107773976	 0.147238
44.1142	96.8006	208.5473	230.6579	287.9545	334.9759	340.2465	392.6508	406.1183	478.7234	545.6942	637.6632	644.1638	702.6695	841.6419	886.0398	927.5464	974.2556	1046.3558	1092.8025	1114.3356	1145.7545	1162.4834	1188.9589	1235.5836	1272.7217	1293.0679	1355.934	1383.1311	1392.4025	1413.991	1439.5421	1459.1305	1483.5742	1498.4309	1815.823	1836.1614	2941.6259	2952.0423	3018.791	3046.3422	3095.4272	3106.1322	3121.1923	3128.7764
CC1CC(=O)C(=O)CO1	C[C@H]1CC(=O)C(=O)CO1	
InChI=1S/C6H8O3/c1-4-2-5(7)6(8)3-9-4/h4H,2-3H2,1H3	InChI=1S/C6H8O3/c1-4-2-5(7)6(8)3-9-4/h4H,2-3H2,1H3/t4-/m0/s1
