22
gdb 118646	2.92281	0.74231	0.61973	4.428	84.27	-0.2689	0.0367	0.3056	1873.8351	0.192072	-404.361675	-404.350526	-404.349582	-404.399069	38.236	
C	-0.034135115	 1.5716455301	-0.0160510905	-0.383665
C	-0.0086041493	 0.0410865017	-0.0076550472	-0.183663
C	 0.7231707235	-0.5276109782	 1.2123729597	-0.18313
C	 0.774767133	-2.0711959616	 1.249691925	-0.167998
C	 1.6165156728	-2.5854076977	 2.4266146391	-0.061714
O	 1.7427800722	-3.9781283667	 2.3045106399	-0.229786
C	 2.4204222379	-4.5711741651	 3.3890677728	-0.231257
C	-0.5756958018	-2.642621535	 1.3043199614	 0.29609
N	-1.6535134552	-3.0570605774	 1.3526069339	-0.337311
H	 0.9794538356	 1.9879215609	-0.0254722876	 0.114092
H	-0.558385325	 1.9523077519	-0.8974911379	 0.119605
H	-0.5453047097	 1.9637873126	 0.8699457318	 0.119554
H	-1.0337303707	-0.3461370401	-0.0279030813	 0.128129
H	 0.476827668	-0.324813867	-0.9218856318	 0.099501
H	 1.7569032265	-0.160618531	 1.2259043262	 0.103363
H	 0.2482372726	-0.1642262533	 2.1321084104	 0.114096
H	 1.2466057815	-2.4381400798	 0.3293711183	 0.133499
H	 2.6038366873	-2.0943362741	 2.3987829164	 0.093448
H	 1.1365957845	-2.3120025462	 3.3806740102	 0.102729
H	 3.4499114528	-4.1914131602	 3.4834188296	 0.105681
H	 1.8972673908	-4.3926940771	 4.3408759276	 0.112518
H	 2.4554067676	-5.6460779866	 3.1998634138	 0.136218
60.0091	80.8641	82.4962	99.6713	114.2702	173.8167	229.317	249.3367	256.7276	266.188	310.9593	398.4843	442.7609	569.1752	637.9552	747.1505	801.8204	890.9667	899.3119	988.304	999.0756	1042.6285	1066.1069	1097.9153	1135.4091	1147.4596	1169.3206	1185.093	1226.8441	1248.0185	1259.2769	1283.2274	1331.2572	1336.4499	1375.1281	1395.8287	1414.5894	1416.6115	1480.2117	1484.3878	1486.782	1494.0119	1500.9317	1501.5139	1511.0401	1526.9199	2357.441	2957.0616	2976.9956	2992.2318	3020.7312	3023.3282	3027.171	3032.3542	3040.3244	3058.1345	3076.3629	3100.0718	3107.9561	3124.0008
CCCC(COC)C#N	CCC[C@@H](COC)C#N	
InChI=1S/C7H13NO/c1-3-4-7(5-8)6-9-2/h7H,3-4,6H2,1-2H3	InChI=1S/C7H13NO/c1-3-4-7(5-8)6-9-2/h7H,3-4,6H2,1-2H3/t7-/m1/s1
