15
gdb 30227	3.76833	1.28935	1.01238	1.5484	68.86	-0.2067	0.0314	0.2381	1110.107	0.114479	-453.939715	-453.932174	-453.93123	-453.972042	28.415	
O	 0.1935246907	 1.4537152486	 0.1655000438	-0.414788
C	 0.1003824186	 0.0628307641	 0.0343834216	-0.015344
C	-1.3459984479	-0.5954498299	 0.1394050291	-0.207759
N	-1.1120617105	-1.1083158609	-1.2279520396	-0.066695
C	 0.1472826785	-0.5576174675	-1.3594008963	 0.221831
C	 0.6359302779	-1.0002914529	-2.559099341	-0.239144
N	-0.3229647978	-1.8107772037	-3.1526055872	-0.371897
C	-1.3404189061	-1.8689804587	-2.3166410082	 0.420073
O	-2.4792225604	-2.5593413571	-2.4872568491	-0.423605
H	-0.2155622858	 1.8524209772	-0.6110543417	 0.28597
H	 0.8044917367	-0.3568137119	 0.7572676688	 0.115914
H	-1.4656572446	-1.3803991924	 0.8896045443	 0.135955
H	-2.1638356933	 0.1258274332	 0.206744827	 0.130723
H	 1.5763180865	-0.8036447825	-3.0481084157	 0.114592
H	-2.3949442126	-3.0088499757	-3.3378014558	 0.314175
81.9011	117.614	245.4708	296.3087	360.0017	390.4432	410.4346	464.0924	572.7716	645.1703	695.5611	701.4293	756.5232	782.2246	825.7775	873.7994	982.1652	1029.636	1104.2387	1133.9125	1151.419	1194.5939	1202.0484	1237.4005	1265.9273	1292.2209	1303.2858	1359.0695	1431.7108	1487.6436	1526.7399	1573.5982	1611.413	3065.7558	3084.902	3129.1067	3263.7152	3798.226	3802.251
OC1CN2C1=CN=C2O	O[C@H]1Cn2c1cnc2O	
InChI=1S/C5H6N2O2/c8-4-2-7-3(4)1-6-5(7)9/h1,4,8H,2H2,(H,6,9)	InChI=1S/C5H6N2O2/c8-4-2-7-3(4)1-6-5(7)9/h1,4,8H,2H2,(H,6,9)/t4-/m0/s1
