21
gdb 116330	2.9	1.3095	1.00276	0.4357	78.47	-0.2357	0.0753	0.311	1237.6949	0.183833	-424.200244	-424.191634	-424.19069	-424.233762	32.701	
C	 0.004511106	 1.370856699	-0.072897	-0.235413
O	-0.002293919	-0.030774994	 0.0838888491	-0.244666
C	-1.2933368059	-0.6238944839	 0.0532500441	 0.099814
C	-1.8336758759	-0.7427416419	-1.3842926281	-0.121247
O	-3.0270390761	-1.4986590449	-1.4081116178	-0.237179
C	-2.7880867515	-2.873364341	-1.1472077287	-0.094993
C	-1.9845673215	-3.1297306449	 0.1263704537	-0.059468
C	-0.4763676488	-3.1172492568	 0.086961166	-0.284017
C	-1.213950321	-1.9729699396	 0.7294957271	-0.032998
H	 1.0325824579	 1.7061677397	 0.0863545512	 0.127066
H	-0.3112347721	 1.6914907188	-1.076519765	 0.106837
H	-0.6464360035	 1.8653766514	 0.6651664587	 0.104521
H	-1.9989781954	 0.0042198925	 0.6212573874	 0.06847
H	-2.0824713826	 0.24302548	-1.7859879256	 0.105258
H	-1.0612606091	-1.1857925844	-2.0350291275	 0.093071
H	-3.7774602949	-3.3311088504	-1.0644536927	 0.10988
H	-2.2818309896	-3.3266968601	-2.0159337068	 0.090545
H	-2.4476642952	-3.8174398062	 0.8264021992	 0.08894
H	 0.0650092466	-3.7964135047	 0.7360585295	 0.110892
H	 0.0034373798	-2.9467186285	-0.8715291391	 0.117464
H	-1.1722390982	-1.9215808501	 1.8129065552	 0.087223
72.1834	101.405	176.4842	193.2727	281.317	306.5946	372.7161	388.5495	433.1148	479.4729	592.6475	680.9278	761.0764	829.0192	863.562	919.9039	941.1387	974.7371	993.2985	1007.3877	1042.8971	1062.39	1101.021	1118.1603	1130.3108	1144.4337	1167.781	1181.2229	1182.8798	1223.146	1241.1845	1253.569	1320.4608	1344.1246	1361.9749	1377.4902	1397.2078	1414.3277	1428.0662	1478.6971	1493.0931	1495.4815	1497.3092	1509.6795	1511.9112	2960.4768	2963.343	2975.6274	2978.5998	3024.3011	3085.768	3091.1863	3109.7302	3131.865	3149.5197	3160.2187	3215.1509
COC1COCC2CC12	CO[C@H]1COC[C@H]2C[C@@H]12	
InChI=1S/C7H12O2/c1-8-7-4-9-3-5-2-6(5)7/h5-7H,2-4H2,1H3	InChI=1S/C7H12O2/c1-8-7-4-9-3-5-2-6(5)7/h5-7H,2-4H2,1H3/t5-,6-,7+/m1/s1
