21
gdb 110376	3.69857	1.10368	1.05956	1.0557	82.07	-0.2297	0.0827	0.3124	1252.1482	0.18288	-387.017877	-387.009692	-387.008748	-387.050601	32.209	
C	-0.3386751425	 1.1489538716	 0.1932438829	-0.23579
O	 0.5058044034	 0.0503130966	-0.0821566359	-0.250362
C	 0.9748712631	-0.5761947461	 1.0730510276	 0.104195
C	 0.0768664133	-1.6479681259	 1.6408298696	-0.107178
C	 1.3526427159	-2.002774962	 0.8464903134	-0.10413
C	 1.9561716649	-2.6674674793	 2.1026462726	-0.026475
C	 2.8109054906	-1.8166775831	 3.0930488656	-0.24271
C	 1.5152382804	-1.4555477931	 3.8952284362	-0.24266
C	 0.6672443402	-2.311646319	 2.9028529778	-0.023127
H	 0.1844289343	 1.9272729074	 0.7698572688	 0.104718
H	-0.6448507509	 1.5686887606	-0.7678774659	 0.125986
H	-1.2331678088	 0.8459664653	 0.7562385817	 0.107172
H	 1.5575670588	 0.0836651528	 1.7179648769	 0.080619
H	-0.9579658611	-1.7025637279	 1.3227882521	 0.086305
H	 1.4437032624	-2.3683029945	-0.169502761	 0.092338
H	 2.2542101596	-3.7055587222	 1.9536310636	 0.068351
H	 3.5182167283	-2.4175633069	 3.6697646331	 0.097913
H	 3.3598797145	-0.979455962	 2.6545854727	 0.101889
H	 1.5148786921	-1.853646434	 4.9127866343	 0.097596
H	 1.2594178526	-0.3941102534	 3.9493274727	 0.098319
H	 0.0404653091	-3.0937861249	 3.3323686711	 0.067032
94.97	149.4576	177.0353	201.6197	247.5815	367.0688	386.5234	435.7739	532.2725	666.7574	730.4363	754.1327	798.115	851.7938	860.6012	879.0669	913.8555	921.8744	950.8342	981.9373	1007.9373	1023.252	1046.1929	1084.4546	1097.523	1104.3418	1128.4898	1166.5592	1182.28	1184.1167	1207.0454	1220.2363	1237.1878	1247.9816	1252.3716	1284.3928	1291.7237	1304.4409	1330.6314	1421.8951	1474.8305	1483.3147	1486.5626	1492.1279	1509.0182	2981.2249	3031.6858	3056.2399	3061.9828	3080.7588	3091.4837	3102.1595	3104.7949	3117.225	3119.5531	3173.1554	3184.2791
COC1C2C1C1CCC21	CO[C@H]1[C@H]2[C@@H]1[C@H]1CC[C@@H]21	
InChI=1S/C8H12O/c1-9-8-6-4-2-3-5(4)7(6)8/h4-8H,2-3H2,1H3	InChI=1S/C8H12O/c1-9-8-6-4-2-3-5(4)7(6)8/h4-8H,2-3H2,1H3/t4-,5+,6-,7+,8+
