17
gdb 30566	6.13276	0.76113	0.6984	4.3875	80.75	-0.2088	0.0257	0.2345	1598.9611	0.136186	-418.029262	-418.020638	-418.019694	-418.06337	31.41	
C	 0.1137384645	 1.3753517729	 0.1558684612	-0.312978
N	-0.2524334118	 0.011269124	-0.1621399084	-0.202206
C	 0.5432305515	-0.646132037	-0.8774176895	 0.107107
O	 0.2855500961	-1.9456543045	-1.1706870276	-0.232047
C	 1.0456001438	-2.5382168422	-2.1483915404	 0.331065
C	 1.3969056905	-2.0190309564	-3.3761657124	-0.198147
N	 2.1223242654	-2.9949031706	-4.0189268987	-0.230955
C	 2.2216890165	-4.1081023693	-3.2288598356	-0.061661
C	 1.5605081771	-3.856448217	-2.0489237941	-0.261122
H	 0.1981331814	 1.4895153077	 1.2427297585	 0.128864
H	 1.0623884809	 1.7049904298	-0.299074157	 0.095137
H	-0.6809521672	 2.0544830608	-0.1733171729	 0.126935
H	 1.486120726	-0.2772356527	-1.3065198898	 0.082527
H	 1.1737297143	-1.0738094605	-3.8407626034	 0.125894
H	 2.5127617194	-2.9028253504	-4.9395258955	 0.266887
H	 2.7543278388	-4.9828536266	-3.5644751061	 0.125197
H	 1.4512087827	-4.522174488	-1.2083371282	 0.109504
45.7412	94.7643	123.5474	209.7401	292.7255	302.5943	373.6174	402.7777	442.087	526.63	635.9104	648.8027	686.1264	758.2463	771.9932	827.2895	896.8755	985.7763	994.3459	1058.7706	1077.2144	1088.3057	1141.4745	1145.3495	1167.6941	1216.2855	1277.692	1324.7285	1389.6403	1420.0955	1450.1856	1471.9602	1481.6195	1504.7739	1530.265	1607.883	1776.8504	2966.991	3015.988	3057.9767	3077.3115	3260.4254	3276.9746	3279.4187	3693.0873
CN=COC1=CNC=C1	CN=COc1c[nH]cc1	
InChI=1S/C6H8N2O/c1-7-5-9-6-2-3-8-4-6/h2-5,8H,1H3	InChI=1S/C6H8N2O/c1-7-5-9-6-2-3-8-4-6/h2-5,8H,1H3
