19
gdb 114110	3.16168	1.16551	0.99302	1.2923	71.1	-0.243	0.0599	0.3029	1221.89	0.158174	-460.114573	-460.105666	-460.104722	-460.148465	33.336	
O	 0.0738827493	 1.2466683075	-0.401707129	-0.426094
C	 0.0459266143	-0.1373940449	-0.0729901495	-0.092388
C	-1.4059345035	-0.5360470443	 0.0928016768	 0.019675
C	-2.3217738701	-0.4906284302	-1.1735209192	-0.323044
C	-2.6938049297	-1.9834150755	-0.965736478	 0.361959
O	-4.0233000045	-2.3843692205	-1.0283670711	-0.473005
C	-1.7218366749	-2.9829101851	-1.6023372	-0.105875
O	-0.8176223443	-2.8980199116	-0.4748136265	-0.290177
C	-1.7160352488	-2.0443034254	 0.2662073989	 0.00141
H	 0.9840866844	 1.4888349763	-0.5952802713	 0.286562
H	 0.5071065107	-0.7499440028	-0.8594851675	 0.099205
H	 0.594336085	-0.3386019402	 0.8617803403	 0.08711
H	-1.8451588762	 0.0444524832	 0.9108302293	 0.07928
H	-3.1773943741	 0.1831422618	-1.0655861625	 0.096771
H	-1.824146409	-0.2543274122	-2.1179063913	 0.109799
H	-4.5783790378	-1.6715893551	-0.6960543913	 0.282393
H	-2.15303085	-3.9869635425	-1.6969872665	 0.111346
H	-1.2477806722	-2.6918996216	-2.5472752678	 0.100166
H	-1.9381625288	-2.4364635367	 1.2620874961	 0.074908
66.7269	89.8631	160.9468	232.5057	270.257	297.0674	303.3024	369.8173	399.5941	434.3887	511.8457	645.0135	697.8759	802.6405	867.7255	878.117	910.337	930.2022	976.3383	1003.8	1037.1348	1058.2057	1074.2277	1107.6049	1115.8381	1148.2486	1157.5728	1176.0806	1211.2637	1245.8586	1256.2339	1281.8417	1291.2737	1316.7345	1343.5047	1361.9984	1410.4306	1457.4855	1477.3665	1515.8543	1523.8473	2970.1054	3017.0908	3024.8444	3048.2744	3055.4463	3069.2338	3078.9059	3103.9628	3816.2544	3829.3936
OCC1CC2(O)COC12	OC[C@H]1C[C@@]2(O)CO[C@@H]12	
InChI=1S/C6H10O3/c7-2-4-1-6(8)3-9-5(4)6/h4-5,7-8H,1-3H2	InChI=1S/C6H10O3/c7-2-4-1-6(8)3-9-5(4)6/h4-5,7-8H,1-3H2/t4-,5+,6-/m1/s1
