17
gdb 73605	2.27181	1.66968	1.31931	4.7306	72.41	-0.2402	0.0276	0.2678	1022.5793	0.137599	-418.001629	-417.993539	-417.992595	-418.034184	30.73	
N	-0.0313004779	 1.4744523342	 0.2356355417	-0.580611
C	-0.0373201332	 0.0715848897	-0.0552663642	 0.23678
C	 0.8099232373	-0.548309128	-1.169550283	-0.312923
C	 0.0294771534	-1.8159470968	-1.5828963132	-0.102501
O	-1.3080543081	-1.6798382272	-1.058604755	-0.252463
C	-1.3123039327	-0.7065517535	-0.0758813236	 0.091117
C	-0.3741906908	-0.8384607498	 1.1380930377	-0.272253
C	 0.3603015083	-2.0307762624	 1.4303554377	 0.320224
N	 0.9640454764	-2.9903042054	 1.6663662202	-0.360606
H	 0.8803985028	 1.7688122492	 0.574406706	 0.238024
H	-0.2276150861	 2.0140118253	-0.6030929197	 0.23517
H	 0.8647196633	 0.1752095514	-1.9898336688	 0.107255
H	 1.831664542	-0.7857667429	-0.8599310873	 0.126427
H	-0.054120894	-1.9342179335	-2.6663429372	 0.116752
H	 0.4859183869	-2.717849217	-1.1666020148	 0.143506
H	-2.2864677579	-0.2636540337	 0.0926939142	 0.12574
H	-0.7061737198	-0.2861211497	 2.0108494094	 0.14036
115.255	128.3687	178.7995	210.6071	297.7544	356.0873	376.3171	407.601	560.9758	580.3138	640.2568	697.2905	717.0417	808.6377	850.4442	860.5697	897.5184	947.7519	953.8612	989.1912	1053.0978	1078.2578	1094.1824	1151.6191	1204.9794	1227.2624	1244.9543	1253.0459	1293.004	1300.749	1331.7826	1396.9815	1448.8634	1492.446	1527.0333	1658.09	2343.2925	3046.86	3062.8812	3091.0752	3111.6404	3173.6235	3195.5568	3483.0012	3559.9496
NC12CCOC1C2C#N	N[C@]12CCO[C@H]1[C@H]2C#N	
InChI=1S/C6H8N2O/c7-3-4-5-6(4,8)1-2-9-5/h4-5H,1-2,8H2	InChI=1S/C6H8N2O/c7-3-4-5-6(4,8)1-2-9-5/h4-5H,1-2,8H2/t4-,5+,6+/m1/s1
