19
gdb 34796	4.02934	1.28418	1.21425	0.8866	85.	-0.2484	0.0531	0.3015	1084.1103	0.161061	-348.677756	-348.670616	-348.669672	-348.708894	30.259	
C	-0.0065203676	-1.2542921466	-0.0330429496	-0.421095
C	-0.0035558212	-0.0515529657	-0.0060412581	 0.27361
C	-0.0338716107	 1.3978726047	-0.0088931442	-0.177449
C	-0.116003239	 2.074463317	 1.4040588003	-0.042411
C	 1.4178700333	 1.7676832195	 1.5153096226	-0.226778
C	 1.3676006068	 2.102699684	-0.0158647776	-0.042412
C	 1.0273269383	 3.6048161174	 0.0438925117	-0.039337
C	-0.3563135724	 4.1058736226	-0.2919455462	-0.311726
C	-0.0712998054	 3.583906779	 1.0953629693	-0.039337
H	-0.006163447	-2.3157230691	-0.0537655558	 0.187254
H	-0.7566860347	 1.7250901443	-0.7576169996	 0.092133
H	-0.8365738945	 1.723502298	 2.1420865531	 0.070852
H	 2.0127392482	 2.4294080536	 2.150016208	 0.087951
H	 1.6397053272	 0.7202979135	 1.7262654202	 0.11452
H	 2.1432001551	 1.7802139004	-0.7097876302	 0.070852
H	 1.852108008	 4.3074136389	 0.0815162002	 0.089646
H	-0.4443434322	 5.1860114034	-0.3624439044	 0.106584
H	-1.009336134	 3.5883607133	-0.984546004	 0.117498
H	-0.0836734381	 4.2705715818	 1.9342080042	 0.089646
146.6825	157.5766	334.3043	357.2861	432.337	493.856	511.0254	542.8483	613.5292	629.6951	641.4213	773.6428	802.8313	818.4752	844.9807	884.963	886.7265	899.3801	926.7984	980.2809	1002.0285	1033.0012	1044.8432	1076.1014	1077.8817	1082.6596	1097.2482	1102.4088	1114.8519	1193.7953	1201.198	1230.8892	1241.7221	1258.8687	1259.1055	1314.5922	1356.6631	1375.6067	1498.4184	1503.6556	2231.6362	3065.2882	3089.1161	3120.2525	3121.8561	3132.7123	3135.8706	3167.5209	3176.1123	3207.9892	3504.9745
C#CC1C2CC1C1CC21	C#C[C@H]1[C@H]2C[C@@H]1[C@H]1C[C@@H]21	
InChI=1S/C9H10/c1-2-5-6-3-7(5)9-4-8(6)9/h1,5-9H,3-4H2	InChI=1S/C9H10/c1-2-5-6-3-7(5)9-4-8(6)9/h1,5-9H,3-4H2/t5-,6+,7-,8-,9+
