23
gdb 96443	2.06666	1.8377	1.26063	1.2584	84.72	-0.2327	0.0806	0.3133	1119.6002	0.208222	-388.284069	-388.275788	-388.274844	-388.316247	34.029	
C	-0.476278576	 1.5140193586	 0.0185689196	-0.410456
C	-0.0472212536	 0.0395215211	 0.0121815012	 0.018434
C	 0.5970998091	-0.3836874618	-1.3308350418	-0.201312
C	 1.7847816007	 0.46909806	-1.8083558485	-0.189648
C	 3.0146001542	 0.477587485	-0.8982794481	-0.065681
O	 2.7587004175	 1.0281932597	 0.3913255107	-0.24788
C	 2.2737545039	 0.083806919	 1.2977392216	 0.117981
C	 1.2736253598	 0.5575109793	 2.3039150757	-0.338263
C	 0.8412705881	-0.379150952	 1.1892656474	-0.052924
H	 0.3819725894	 2.190099377	 0.0089727288	 0.134891
H	-1.0909722047	 1.7348309246	-0.8611549386	 0.103843
H	-1.0743056467	 1.7411046411	 0.9061783375	 0.112328
H	-0.9684688211	-0.5505744421	 0.1062780442	 0.070155
H	 0.9139124763	-1.4324269229	-1.25065078	 0.087154
H	-0.1742765251	-0.3575604544	-2.1114624508	 0.088291
H	 2.1067745993	 0.1041681568	-2.7931180332	 0.090363
H	 1.4613858691	 1.5053497804	-1.9600870977	 0.105867
H	 3.4262960352	-0.5387024691	-0.796417087	 0.085058
H	 3.7945318287	 1.1051179832	-1.3437384126	 0.100686
H	 3.0243594277	-0.6434532661	 1.6127213199	 0.077811
H	 1.3318854784	 0.1743962072	 3.3167747191	 0.107728
H	 0.9810708818	 1.5981758724	 2.2323542711	 0.124863
H	 0.6854711481	-1.411970277	 1.4923840214	 0.080711
123.6469	205.4861	243.8712	282.1217	296.352	313.6033	357.3954	424.1845	434.7674	484.3286	545.7201	696.1823	704.6842	773.2517	800.5241	849.1837	869.2417	904.186	918.5376	970.6607	993.0667	1021.1101	1049.2553	1054.9587	1067.829	1087.4326	1115.4213	1134.2955	1152.4795	1168.3332	1183.3178	1239.4121	1254.1321	1260.8101	1323.2273	1337.0524	1363.7359	1370.4039	1383.8689	1399.8303	1401.4094	1415.9874	1424.9988	1473.8984	1482.6833	1486.6599	1495.5888	1503.2237	1522.9548	2984.4508	3000.5244	3013.1399	3022.0754	3036.3719	3043.8038	3060.9763	3072.3838	3077.5282	3098.3521	3124.9301	3126.9177	3141.5887	3230.6617
CC1CCCOC2CC12	C[C@H]1CCCO[C@H]2C[C@@H]12	
InChI=1S/C8H14O/c1-6-3-2-4-9-8-5-7(6)8/h6-8H,2-5H2,1H3	InChI=1S/C8H14O/c1-6-3-2-4-9-8-5-7(6)8/h6-8H,2-5H2,1H3/t6-,7-,8-/m0/s1
