18
gdb 67375	2.58223	1.77647	1.7214	2.145	74.39	-0.2396	0.0201	0.2597	924.4678	0.149951	-401.933754	-401.926595	-401.925651	-401.964984	28.669	
C	-0.0257725406	 1.5442755329	 0.0130165263	-0.512406
C	 0.0156191142	 0.0451036362	-0.0125488276	 0.280376
C	 0.4733907762	-0.9783170166	-1.0816581738	-0.146261
C	 1.246108107	-1.772806138	-0.0307811692	-0.241635
C	 0.6332999147	-0.8544141006	 1.0851591862	-0.056346
N	-0.3404336158	-1.5036935921	 1.9557847581	-0.263719
C	-1.3769140097	-1.9294810184	 1.3673974387	 0.120984
O	-1.6911897568	-1.8229664946	 0.0498029826	-0.236207
C	-0.9693703293	-0.8389488189	-0.6827338368	 0.062226
H	 0.9754460966	 1.9679264443	 0.1504364551	 0.122679
H	-0.433998075	 1.9492056957	-0.918908231	 0.119748
H	-0.654515247	 1.9044270902	 0.8359075666	 0.131823
H	 0.7808230443	-0.8042474687	-2.1069970766	 0.086466
H	 1.0243213363	-2.8402056239	 0.053263878	 0.109364
H	 2.3267352933	-1.6386171306	-0.11991466	 0.107228
H	 1.3854970935	-0.3553713498	 1.6967981717	 0.081927
H	-2.1583577357	-2.4662268774	 1.9008446222	 0.124924
H	-1.6277267561	-0.3924343298	-1.4192963904	 0.108828
168.0351	187.1977	216.6864	268.1073	341.9399	455.7514	532.9856	549.8289	564.2169	675.2755	760.6885	786.7793	834.6619	865.5437	931.6704	935.7587	963.7519	972.9438	987.5779	1010.9557	1044.4676	1071.3999	1102.3637	1131.2582	1141.652	1180.802	1213.6001	1239.5061	1257.5323	1293.4906	1334.6847	1345.3635	1397.2575	1415.328	1463.8396	1486.5899	1494.1761	1500.8122	1705.5401	3022.8205	3057.7529	3084.183	3094.8332	3096.8407	3113.7187	3166.3028	3169.5208	3184.6908
CC12C3CC1N=COC23	C[C@@]12[C@H]3C[C@@H]1[N][CH]O[C@@H]23	
InChI=1S/C7H9NO/c1-7-4-2-5(7)8-3-9-6(4)7/h3-6H,2H2,1H3	InChI=1S/C7H9NO/c1-7-4-2-5(7)8-3-9-6(4)7/h3-6H,2H2,1H3/t4-,5-,6+,7+/m0/s1
