19
gdb 109654	2.36695	1.14499	1.02585	2.9386	74.37	-0.2432	-0.0223	0.2209	1281.889	0.156002	-460.155086	-460.145072	-460.144128	-460.19009	36.384	
C	-0.1124446318	 1.4339050853	-0.2894631654	-0.379079
C	-0.1316836438	 0.0316050242	 0.3311092373	-0.19718
C	-1.4631803257	-0.6630269112	 0.1388393988	-0.094823
C	-1.8363163878	-1.3292184483	-1.1392969486	 0.015874
O	-0.8543459208	-1.4014738863	-2.1342891067	-0.417661
C	-1.547656277	-2.1953734811	 0.1032965425	 0.23985
O	-0.3804271356	-2.9512609968	 0.0800827971	-0.473871
C	-2.6970431925	-2.8549213563	 0.7559209324	 0.10949
O	-3.7714241206	-2.3228642863	 0.9266841332	-0.285639
H	 0.849749081	 1.9248494408	-0.1139976881	 0.113312
H	-0.2753318539	 1.382134406	-1.3701693315	 0.128162
H	-0.8948203412	 2.0698245105	 0.138576429	 0.11565
H	 0.6693435144	-0.5759105977	-0.0974346304	 0.106858
H	 0.0738067197	 0.0934436943	 1.4061206644	 0.106694
H	-2.3120558031	-0.215884025	 0.6510556897	 0.117315
H	-2.8659054055	-1.2721196795	-1.4834235127	 0.117453
H	-1.1805222751	-1.9753370531	-2.8357153453	 0.303465
H	 0.0011140666	-2.8397530633	-0.8025594958	 0.287524
H	-2.4955598574	-3.9020413363	 1.0684081401	 0.086606
59.2823	115.2323	133.2261	184.7107	218.6351	222.0562	248.7194	292.634	305.9011	318.9657	477.2963	488.2373	575.4368	608.4227	669.4474	722.9699	743.868	797.4189	859.9374	966.3584	1016.2544	1046.0787	1050.4278	1076.7009	1118.6684	1130.3788	1167.0151	1221.3337	1245.4706	1272.8931	1295.404	1337.5189	1368.0187	1389.9934	1411.4467	1426.1822	1473.0001	1489.1558	1499.3107	1508.7789	1796.3151	2908.4412	3035.2987	3043.4675	3089.4878	3107.5707	3114.8046	3139.1933	3147.289	3728.0239	3814.2994
CCC1C(O)C1(O)C=O	CC[C@H]1[C@@H](O)[C@]1(O)C=O	
InChI=1S/C6H10O3/c1-2-4-5(8)6(4,9)3-7/h3-5,8-9H,2H2,1H3	InChI=1S/C6H10O3/c1-2-4-5(8)6(4,9)3-7/h3-5,8-9H,2H2,1H3/t4-,5+,6-/m0/s1
