18
gdb 71485	2.17871	2.05238	1.74322	1.5383	75.87	-0.2211	-0.0029	0.2182	917.87	0.147413	-401.874075	-401.866368	-401.865424	-401.905611	31.183	
C	 0.0142193842	 1.5545524428	-0.0357773724	-0.519789
C	-0.0270576742	 0.0463518094	-0.0468406785	 0.301264
C	 0.7963207953	-0.6897266192	-1.0887943766	-0.146823
C	 0.6589770246	-1.9743782951	-0.7632877673	-0.092821
C	-0.2391674029	-1.9211520684	 0.4436210921	-0.111578
N	 0.2776383683	-0.729226942	 1.2913815564	-0.167186
C	-1.1661615645	-0.4800010172	 1.7199808266	-0.263287
C	-1.3210034898	-0.7927024986	 0.2255926481	 0.313692
O	-2.4399865049	-0.7663871368	-0.5834540122	-0.46591
H	 1.0392556334	 1.9045584776	 0.1226680671	 0.131814
H	-0.3309297703	 1.9410386979	-1.0002815438	 0.130982
H	-0.6160726984	 1.9927030038	 0.7413477276	 0.122766
H	 1.3666671204	-0.2253786848	-1.8808858003	 0.106641
H	 1.0774408728	-2.8599223352	-1.2187038181	 0.111514
H	-0.4733636708	-2.8216354986	 1.0126045328	 0.068621
H	-1.5331554866	-1.2206702782	 2.4366475212	 0.093628
H	-1.3638830132	 0.5324763085	 2.0761548023	 0.102482
H	-3.1527014834	-1.2476220159	-0.1485708952	 0.28399
161.1543	196.3544	201.5486	270.2943	329.5938	341.6881	473.4668	480.4587	545.8166	613.9198	646.1226	722.6873	741.374	748.5949	816.5233	827.6172	901.7269	908.4239	912.1959	956.4733	994.8302	1020.1389	1067.7964	1086.9265	1103.9119	1118.562	1142.6285	1196.9041	1224.2536	1243.0429	1280.635	1316.6182	1333.47	1365.1001	1416.5026	1488.2646	1489.8445	1534.6737	1642.2932	3041.9143	3057.7985	3105.7208	3115.069	3118.1942	3126.5044	3223.9398	3251.8162	3803.4895
CC12C=CC3N1CC23O	C[C@@]12C=C[C@H]3N1C[C@@]23O	
InChI=1S/C7H9NO/c1-6-3-2-5-7(6,9)4-8(5)6/h2-3,5,9H,4H2,1H3	InChI=1S/C7H9NO/c1-6-3-2-5-7(6,9)4-8(5)6/h2-3,5,9H,4H2,1H3/t5-,6+,7+/m1/s1
