18
gdb 93615	2.5253	1.39469	1.12585	3.7281	78.93	-0.238	0.0207	0.2587	1152.7077	0.147682	-401.962457	-401.953465	-401.952521	-401.996369	32.813	
C	 0.0022472118	 1.3530849581	-0.1019347758	-0.344926
N	 0.0307002314	-0.0888143994	-0.0274488829	-0.063652
C	-1.0791885996	-0.9165138747	-0.4648380022	-0.164476
C	-0.6985725146	-2.3166481945	 0.0518336064	-0.235237
C	 0.8480908452	-2.2903299466	 0.0775489295	-0.285466
C	 1.4491805479	-2.7587666301	-1.1649418465	 0.347068
C	 1.9183735498	-3.1364323218	-2.2051396712	-0.484952
C	 1.1674036785	-0.7830975405	 0.2809004563	 0.407498
O	 2.2253659226	-0.3118049479	 0.6327910095	-0.388282
H	 0.9637559201	 1.7221457741	 0.2586573888	 0.167251
H	-0.151083989	 1.6954418579	-1.1336642378	 0.125638
H	-0.8021970043	 1.7625524103	 0.5203517457	 0.123795
H	-2.0225226163	-0.5579404982	-0.038140193	 0.111928
H	-1.1804401582	-0.8971734235	-1.5600157859	 0.115433
H	-1.0725850459	-2.4470455673	 1.0710997334	 0.116354
H	-1.0995407233	-3.1175915105	-0.5694928332	 0.123195
H	 1.2621280652	-2.8498595517	 0.9209463	 0.128212
H	 2.3527284386	-3.4719954536	-3.1141258111	 0.200619
67.9618	114.6268	155.3136	178.1188	196.8275	244.3996	306.6365	402.7132	440.5718	510.2922	613.6637	630.8978	636.002	679.2712	721.0546	794.8516	843.196	926.5348	967.1946	1004.0471	1043.6718	1094.2748	1120.7132	1153.3	1200.2067	1215.2672	1254.1655	1296.3191	1306.2021	1330.4639	1348.0031	1431.7664	1450.6171	1489.7615	1493.6352	1511.4814	1540.0151	1817.7449	2235.1833	2996.3852	3014.0844	3052.1304	3065.2609	3067.6693	3078.1889	3134.7879	3144.9216	3504.6173
CN1CCC(C#C)C1=O	CN1CC[C@@H](C#C)C1=O	
InChI=1S/C7H9NO/c1-3-6-4-5-8(2)7(6)9/h1,6H,4-5H2,2H3	InChI=1S/C7H9NO/c1-3-6-4-5-8(2)7(6)9/h1,6H,4-5H2,2H3/t6-/m1/s1
