15
gdb 50656	3.17458	1.21325	0.91506	1.5842	62.35	-0.2631	-0.0533	0.2098	1190.7457	0.111392	-494.928171	-494.92002	-494.919076	-494.962042	28.665	
O	-0.8824621172	 0.9947757782	 0.4227730004	-0.237727
C	 0.2040267665	 0.8761526289	-0.0779484797	 0.132397
C	 1.2876222134	 1.9377249138	 0.0546746439	 0.025619
C	 1.4596018026	 2.4288458519	 1.4866083498	-0.110776
O	 2.5347375861	 3.3413290124	 1.5220432517	-0.236283
C	 3.7510287247	 2.7012772956	 1.2018193511	-0.218355
C	 3.7124896608	 1.748292652	 0.0087790356	 0.384805
O	 4.7112107785	 1.2976624241	-0.4744571735	-0.308441
O	 2.4994018555	 1.36914463	-0.4676707207	-0.24119
H	 0.5052249023	-0.0122152049	-0.6724678593	 0.115325
H	 1.0104409397	 2.7914971211	-0.5793636683	 0.136895
H	 0.5570763595	 2.9518965008	 1.8055117773	 0.14993
H	 1.632577821	 1.5799627066	 2.1674509762	 0.110582
H	 4.488715812	 3.4761017394	 0.9840892403	 0.1598
H	 4.1276735747	 2.1118715001	 2.0542198552	 0.137418
53.1131	101.6537	106.9767	186.632	282.4376	382.2707	425.8161	446.4975	518.2726	529.4139	575.3725	716.5113	816.0168	866.8394	946.9008	993.3573	1019.4226	1079.3417	1128.4755	1132.1395	1156.8551	1220.4669	1266.6564	1297.1903	1310.0838	1348.6855	1364.2975	1397.9995	1409.0718	1466.5358	1493.3481	1836.001	1860.4838	2920.3925	2980.8152	2986.0997	3021.4421	3119.2881	3132.1263
O=CC1COCC(=O)O1	O=C[C@H]1COCC(=O)O1	
InChI=1S/C5H6O4/c6-1-4-2-8-3-5(7)9-4/h1,4H,2-3H2	InChI=1S/C5H6O4/c6-1-4-2-8-3-5(7)9-4/h1,4H,2-3H2/t4-/m0/s1
