22
gdb 118554	3.04026	0.81672	0.70749	1.8017	79.7	-0.2226	-0.0267	0.1959	1624.9303	0.191114	-441.464895	-441.45389	-441.452946	-441.501811	38.743	
C	 0.4993096632	-1.3094249969	 1.2569951686	-0.398639
C	-0.0728897671	-0.2753771256	 0.2745536431	-0.150238
N	-1.4353590574	-0.5098969805	-0.2217377808	-0.080696
C	-1.6785544016	-1.8026626852	-0.8637649634	-0.141223
C	-0.8385872394	-2.0678953644	-2.1172801868	-0.088633
O	 0.4694353038	-2.5664433984	-1.8603500434	-0.41147
C	-2.4471293466	-0.1558996206	 0.7585405833	-0.241477
C	-2.5435596322	 1.3537464888	 0.9316738919	 0.155823
O	-2.8690572204	 1.9059922014	 1.949182626	-0.239602
H	 1.47465681	-0.9724348367	 1.6225876492	 0.116904
H	-0.1497248816	-1.4456055943	 2.1275988069	 0.123813
H	 0.636931279	-2.2786454563	 0.7714716593	 0.140804
H	-0.0704505355	 0.713844993	 0.7478538973	 0.112786
H	 0.5984463114	-0.177748821	-0.587604472	 0.080754
H	-1.5495910652	-2.6612959744	-0.1815206512	 0.09715
H	-2.7300555156	-1.8045187354	-1.175710966	 0.09928
H	-1.3411050325	-2.8518258979	-2.6945557645	 0.11325
H	-0.8131693894	-1.1624977346	-2.7394184435	 0.101155
H	 1.060279318	-1.8225580526	-1.7207711919	 0.289408
H	-3.4283290755	-0.4740592649	 0.3787739726	 0.126192
H	-2.3315505896	-0.6194668213	 1.7523416633	 0.111967
H	-2.3044426657	 1.9167858579	 0.0002017919	 0.08269
48.6164	67.593	100.0107	121.5469	180.0431	184.4544	243.7341	249.0899	261.8474	307.0536	329.6079	434.0335	460.0259	495.7956	562.2976	738.2551	781.5689	795.4987	893.248	921.0194	982.6767	1041.4067	1067.3935	1070.283	1078.7083	1096.8831	1112.6463	1179.8153	1211.5094	1216.6363	1259.6512	1314.5255	1334.3764	1369.3373	1379.7194	1397.0732	1397.8989	1406.2078	1412.0442	1421.2136	1461.5556	1489.3767	1492.6539	1494.245	1501.6544	1518.9434	1838.9682	2874.2742	2953.2653	2973.3292	3010.8125	3018.6356	3033.2558	3041.8673	3046.846	3052.0095	3073.2696	3106.6835	3128.464	3853.9588
CCN(CCO)CC=O	CCN(CCO)CC=O	
InChI=1S/C6H13NO2/c1-2-7(3-5-8)4-6-9/h5,9H,2-4,6H2,1H3	InChI=1S/C6H13NO2/c1-2-7(3-5-8)4-6-9/h5,9H,2-4,6H2,1H3
