15
gdb 131664	5.10459	0.86982	0.75481	6.7659	72.01	-0.2444	-0.044	0.2003	1416.1464	0.113079	-453.963012	-453.954565	-453.953621	-453.997425	29.469	
O	 0.1029474816	 1.3186839157	 0.4616723733	-0.403256
C	 0.0157030854	 0.018937505	-0.0922733661	-0.193834
C	-1.4084842969	-0.4278458349	-0.0028685193	 0.404238
C	-2.5936969584	 0.2657080723	-0.0996022717	-0.356885
C	-3.6055512486	-0.7176572348	 0.0352536978	 0.242647
C	-5.0582986976	-0.4817145007	 0.0054131485	 0.097475
O	-5.9144644055	-1.3258279241	 0.1098770578	-0.260719
N	-3.0824462609	-1.9397045574	 0.2035006241	-0.263064
N	-1.764466302	-1.7308837859	 0.1800621051	-0.25203
H	 0.9602888397	 1.6866130531	 0.2269664432	 0.296329
H	 0.341659245	 0.0154114107	-1.145106088	 0.116955
H	 0.6605314832	-0.6992260987	 0.4427327249	 0.098487
H	-2.708444076	 1.3282822476	-0.2362939608	 0.126914
H	-5.3190676617	 0.5929952471	-0.1289927895	 0.06856
H	-1.1491343674	-2.5200381452	 0.3024774109	 0.278184
31.0268	93.0713	148.2865	202.5543	248.5655	260.5528	330.7236	435.5153	480.2047	585.5328	662.2855	714.0189	726.9212	798.6054	837.4479	1008.7851	1022.9519	1036.1282	1040.1238	1086.2938	1138.3324	1221.6827	1244.6548	1247.0803	1289.45	1400.3867	1437.0064	1456.6632	1477.1441	1486.0288	1513.1308	1611.7232	1811.8664	2869.792	2954.0554	2977.6264	3276.7789	3644.0519	3829.0903
OCC1=CC(C=O)=NN1	OCc1cc(C=O)n[nH]1	
InChI=1S/C5H6N2O2/c8-2-4-1-5(3-9)7-6-4/h1-2,9H,3H2,(H,6,7)	InChI=1S/C5H6N2O2/c8-2-4-1-5(3-9)7-6-4/h1-2,9H,3H2,(H,6,7)
