16
gdb 34786	2.29273	1.59049	1.11346	4.1122	80.92	-0.2725	0.0068	0.2792	1095.9837	0.124617	-363.5433	-363.535584	-363.53464	-363.575547	29.945	
C	-0.0780858369	-1.2512758085	-0.0883893818	-0.419988
C	-0.0319940281	-0.0513524418	-0.0262375968	 0.301924
C	-0.0015529307	 1.3931189035	 0.0266555481	-0.208819
C	 0.0869581129	 2.1319686722	 1.4101132016	-0.07177
C	 1.5630716886	 1.6509875016	 1.5194040308	-0.265738
C	 1.3873612102	 2.1472672163	 0.04874159	 0.230691
C	 0.6148649708	 3.3707058938	 0.6325306709	-0.265392
C	 2.3736580026	 2.1569035929	-1.0012224946	 0.162809
N	 3.1630919344	 2.1678453904	-1.8462389171	-0.3475
H	-0.1133224948	-2.3114152984	-0.1448660642	 0.202353
H	-0.7202898789	 1.8301670599	-0.6726749355	 0.112186
H	-0.6724278995	 2.1146338772	 2.1891792832	 0.098445
H	 2.2270717656	 2.2521519717	 2.1431814794	 0.111877
H	 1.7297817262	 0.5818710917	 1.6494939937	 0.131411
H	-0.0805748932	 3.8721863616	-0.0442011204	 0.112463
H	 1.2176888708	 4.081766056	 1.1994832326	 0.115047
94.4196	168.5953	178.374	210.1917	415.543	438.7411	496.2879	519.8538	547.6961	577.1642	632.3893	640.8588	656.4848	778.6073	828.3369	880.6307	926.3849	947.9521	963.7487	1023.182	1042.5016	1072.9048	1116.0963	1128.5065	1152.3866	1164.5555	1216.2336	1227.7914	1233.2495	1263.9677	1376.3137	1497.789	1536.2917	2235.0859	2351.0235	3067.4386	3070.698	3081.2387	3141.3885	3142.4907	3156.3487	3500.9474
C#CC1C2CC1(C2)C#N	C#C[C@H]1[C@H]2C[C@@]1(C2)C#N	
InChI=1S/C8H7N/c1-2-7-6-3-8(7,4-6)5-9/h1,6-7H,3-4H2	InChI=1S/C8H7N/c1-2-7-6-3-8(7,4-6)5-9/h1,6-7H,3-4H2/t6-,7-,8+/m0/s1
