14
gdb 25682	6.01833	0.77632	0.69059	4.9334	80.51	-0.2085	-0.0177	0.1908	1560.0876	0.100442	-436.722323	-436.713773	-436.712829	-436.75747	29.76	
C	-0.1296934005	 1.4425021255	-0.0045377751	-0.510059
C	-0.0125861789	-0.0054711182	-0.0058340283	 0.203969
C	 0.0825083213	-1.2088079207	-0.0073671245	-0.058644
C	 0.1759603072	-2.6058307593	-0.0128012856	 0.212392
C	 1.2089973716	-3.4480819038	 0.1950135565	-0.227706
N	 0.7101566366	-4.7344474502	 0.0636005818	-0.350377
C	-0.6404130817	-4.6989679036	-0.2276420923	 0.457541
O	-1.407718537	-5.6019839379	-0.4100429729	-0.395734
O	-0.9675926992	-3.3601847473	-0.2737935723	-0.242792
H	 0.5188334781	 1.8971654096	-0.7617665907	 0.155524
H	-1.1593801136	 1.7454567902	-0.2227133324	 0.162391
H	 0.1427139337	 1.8652274247	 0.9690137025	 0.155523
H	 2.2388748888	-3.2355418408	 0.4214970508	 0.156941
H	 1.2155972836	-5.5976004981	 0.1570059923	 0.281031
17.1709	86.3466	96.3391	204.0986	281.2829	303.5699	423.0334	443.3109	477.6496	486.2084	586.3828	647.4616	751.8405	754.8481	773.3128	916.1793	953.3756	1011.9041	1049.6908	1050.3238	1095.605	1131.069	1303.3758	1346.2081	1409.0826	1413.3201	1470.8547	1475.2733	1677.366	1899.6576	2355.2	3026.5935	3086.0421	3094.4674	3295.133	3695.4833
CC#CC1=CNC(=O)O1	CC#Cc1c[nH]c(=O)o1	
InChI=1S/C6H5NO2/c1-2-3-5-4-7-6(8)9-5/h4H,1H3,(H,7,8)	InChI=1S/C6H5NO2/c1-2-3-5-4-7-6(8)9-5/h4H,1H3,(H,7,8)
