21
gdb 121616	3.10796	0.8069	0.78203	1.7073	75.9	-0.2657	0.0087	0.2745	1608.2936	0.179898	-461.401955	-461.391057	-461.390113	-461.439968	37.93	
C	 0.257456062	 1.7218638626	-0.3110040859	-0.383804
C	-0.0122931153	 0.3260231693	 0.2552081359	-0.081974
C	 0.2882262913	-0.783863247	-0.7731654266	-0.391387
C	 0.817592687	 0.0806101303	 1.5053935559	 0.450895
O	 1.8288048449	 0.6639903194	 1.8029168028	-0.358065
O	 0.283230351	-0.9258123344	 2.243664002	-0.267907
C	 0.9983297884	-1.3122668803	 3.4387056639	-0.095094
C	 0.4043813411	-0.5919714905	 4.6397830718	-0.06232
O	-0.964987292	-0.8972352223	 4.8215507037	-0.419819
H	 1.3144265966	 1.8358482894	-0.5649753762	 0.136208
H	-0.3384892039	 1.8852217024	-1.2138007627	 0.111049
H	 0.0059645039	 2.5024270116	 0.4123669095	 0.121487
H	-1.0650739505	 0.2360941086	 0.546789621	 0.094639
H	 1.3391006924	-0.752745694	-1.0793045713	 0.129985
H	 0.07794866	-1.7736416516	-0.3603995504	 0.130142
H	-0.3278339103	-0.6443599544	-1.6662256835	 0.121577
H	 0.8472026506	-2.3909226632	 3.5263623192	 0.11994
H	 2.0588092706	-1.0803071431	 3.3210591355	 0.134991
H	 0.9250254232	-0.9179503741	 5.5466603889	 0.115014
H	 0.5712177799	 0.4903835365	 4.529433424	 0.107308
H	-1.403240611	-0.7133659852	 3.9834139825	 0.287135
19.6417	43.8195	70.3198	121.0072	203.6849	209.2686	221.5112	254.4979	313.853	332.2538	374.8105	393.9234	463.4194	536.8179	637.5501	759.7734	813.0797	854.5143	900.1415	934.3342	937.7661	972.7308	1025.6954	1088.5442	1114.0278	1129.6396	1135.7765	1170.4787	1205.832	1225.101	1298.2761	1327.2774	1368.1237	1384.3523	1396.3696	1408.6882	1421.1669	1427.975	1471.7585	1486.5575	1488.6588	1499.883	1501.549	1512.8606	1818.2863	2995.2519	3038.5018	3043.1145	3046.0189	3067.3553	3081.51	3109.8417	3115.3325	3123.9341	3126.6681	3135.8965	3807.1109	19.6432	43.8195	70.3197	121.0067	203.6861	209.2686	221.5112	254.4979	313.853	332.2538	374.8101	393.9232	463.4193	536.8179	637.5501	759.7733	813.0798	854.5142	900.1414	934.3341	937.7661	972.7307	1025.6953	1088.5441	1114.0275	1129.6395	1135.7766	1170.4785	1205.8317	1225.1012	1298.2764	1327.2771	1368.1235	1384.3525	1396.3696	1408.6883	1421.1667	1427.9752	1471.7588	1486.5571	1488.6584	1499.8828	1501.5493	1512.8603	1818.2862	2995.2518	3038.5019	3043.1145	3046.0189	3067.3552	3081.51	3109.8417	3115.3325	3123.9341	3126.6681	3135.8964	3807.1107
CC(C)C(=O)OCCO	CC(C)C(=O)OCCO	
InChI=1S/C6H12O3/c1-5(2)6(8)9-4-3-7/h5,7H,3-4H2,1-2H3	InChI=1S/C6H12O3/c1-5(2)6(8)9-4-3-7/h5,7H,3-4H2,1-2H3
