17
gdb 8847	4.71088	1.27178	1.01433	3.0835	70.13	-0.2393	0.0134	0.2527	1140.3573	0.142081	-397.222835	-397.213449	-397.212504	-397.257934	31.867	
C	-0.0062413924	 1.4635051315	-0.0044186548	-0.333123
N	-0.0535091149	 0.0149853182	-0.0399354929	-0.379072
C	-1.2368567625	-0.6620341084	 0.0432066215	 0.535799
O	-2.3181090165	-0.1084502563	 0.1509139463	-0.41454
N	-1.1153388013	-2.0632629928	-0.0051926535	-0.148751
C	 0.164513871	-2.7471838916	-0.1333513328	-0.368628
C	-2.2809570305	-2.8156752407	 0.074127035	 0.104807
N	-2.2626586192	-4.0879914602	 0.0380030588	-0.492192
H	 0.5806221959	 1.821827994	 0.8487995031	 0.125863
H	 0.4287355952	 1.8702682969	-0.92427071	 0.125868
H	-1.0308839301	 1.8216924285	 0.0931197473	 0.176179
H	 0.8095027534	-0.490134653	-0.1273772683	 0.248442
H	 0.8225107543	-2.5249454828	 0.714596977	 0.129945
H	-0.0437940082	-3.8165852339	-0.144351387	 0.18591
H	 0.6697661774	-2.4768486839	-1.0676987583	 0.129954
H	-3.1565831211	-2.1742506714	 0.1664942343	 0.145439
H	-3.2108159205	-4.4497323141	 0.1093335144	 0.228102
28.9208	80.2332	115.1957	175.0348	194.3443	210.3655	283.655	346.0166	371.0389	404.2175	450.6499	542.891	742.9989	764.1062	821.4097	848.3143	998.1744	1080.9724	1093.1208	1155.1059	1157.4209	1158.543	1178.2965	1230.1566	1317.5211	1369.232	1402.4626	1437.7119	1452.0172	1497.5056	1501.7061	1509.7145	1514.7871	1570.4645	1713.6687	1780.613	3020.7496	3027.4136	3077.3945	3078.0938	3148.2217	3155.2702	3161.7375	3515.863	3682.9564
CNC(=O)N(C)C=N	CNC(=O)N(C)C=N	
InChI=1S/C4H9N3O/c1-6-4(8)7(2)3-5/h3,5H,1-2H3,(H,6,8)	InChI=1S/C4H9N3O/c1-6-4(8)7(2)3-5/h3,5H,1-2H3,(H,6,8)
