15
gdb 71042	3.37195	1.54972	1.2544	3.5637	74.72	-0.2334	-0.0735	0.1599	969.3542	0.1122	-420.546549	-420.539623	-420.538679	-420.577569	28.021	
O	-0.1351832358	 1.3483410824	-0.1472016971	-0.437424
C	-0.0212749537	-0.0159122107	-0.0666677655	 0.362958
C	 0.6212692174	-0.9043173797	-1.2337281259	-0.324733
C	-0.169496137	-1.9884478485	-0.5346757012	 0.094974
C	 0.411047754	-2.8023179934	 0.3809434004	-0.236841
C	 0.3155269591	-2.1024810091	 1.7078855851	 0.388904
O	 0.7871879124	-2.4333103459	 2.7703072333	-0.343906
C	-0.2714812914	-0.7565830026	 1.3450358009	-0.227497
C	-1.1201172152	-0.9793681447	 0.1121127504	-0.175619
H	 0.6949576681	 1.7454370631	 0.1407700901	 0.299093
H	 0.2061213387	-0.5037929341	-2.1635142072	 0.133032
H	 1.7036122424	-1.0377383225	-1.3092813042	 0.115295
H	 1.2596164722	-3.450241675	 0.1872191588	 0.120225
H	-0.5907841589	-0.0670831331	 2.1208372972	 0.10934
H	-2.1968777225	-0.9029121461	 0.0471797048	 0.1222
141.6055	238.6766	303.4693	360.5201	388.2465	408.5912	476.3113	559.0521	603.9292	673.6421	701.9415	741.6273	775.5788	825.6912	878.9145	890.1403	920.6811	946.7591	1003.8929	1029.0745	1045.8561	1071.4091	1134.6809	1144.9926	1181.7801	1192.3477	1239.3422	1268.0393	1271.9028	1435.432	1493.7123	1568.0257	1795.8614	3050.4292	3118.1193	3172.1022	3189.8115	3214.0515	3793.9361
OC12CC3=CC(=O)C1C23	O[C@@]12C[C]3[CH]C(=O)[C@@H]1[C@@H]23	
InChI=1S/C7H6O2/c8-4-1-3-2-7(9)5(3)6(4)7/h1,5-6,9H,2H2	InChI=1S/C7H6O2/c8-4-1-3-2-7(9)5(3)6(4)7/h1,5-6,9H,2H2/t5-,6+,7+/m0/s1
