16
gdb 81400	2.89999	1.5618	1.32992	2.7614	67.86	-0.2685	0.0304	0.2988	972.2736	0.125621	-437.874301	-437.86683	-437.865885	-437.906204	28.736	
O	 0.2914005663	 1.4474034402	 0.1188409612	-0.418124
C	 0.106087987	 0.0681103223	 0.0464354313	 0.121507
C	 0.0640498136	-0.6775022185	 1.3946084683	 0.049856
C	-0.978254405	 0.1060738868	 2.2166360217	-0.246434
C	-2.0995239549	 0.1583685184	 1.1177710652	-0.139116
C	-2.571039291	 1.4831403498	 0.7381011002	 0.26718
N	-2.9756365728	 2.5133546263	 0.4031240473	-0.341706
C	-1.3076381904	-0.5807092944	-0.0040241315	 0.002132
O	-0.7471005693	-1.6970486472	 0.7267505129	-0.288863
H	 0.0570156908	 1.8553206294	-0.7213123956	 0.302579
H	 0.774723965	-0.433618459	-0.6612141637	 0.09848
H	 0.9493148627	-1.0638641648	 1.8965865748	 0.096005
H	-1.3006756319	-0.4464175259	 3.0996469421	 0.120679
H	-0.6244326631	 1.0957931445	 2.5053730535	 0.143517
H	-2.9629544495	-0.4472169876	 1.4029934536	 0.133871
H	-1.8375802376	-0.8484537701	-0.9171596513	 0.098437
110.4753	152.7902	242.2508	250.7887	299.1645	388.2334	492.1124	505.863	545.0258	618.5925	740.4731	812.7603	832.8167	843.9535	871.3222	920.0776	963.6957	985.1703	1004.1569	1049.8851	1069.8425	1126.5952	1155.226	1176.9732	1181.9084	1230.3543	1266.9642	1277.1361	1294.3969	1304.3993	1330.2422	1343.8854	1417.5733	1480.2309	2353.548	3059.3397	3086.9156	3096.1509	3136.8659	3144.8903	3155.8815	3822.4978
OC1C2CC(C#N)C1O2	O[C@H]1[C@H]2C[C@@H](C#N)[C@@H]1O2	
InChI=1S/C6H7NO2/c7-2-3-1-4-5(8)6(3)9-4/h3-6,8H,1H2	InChI=1S/C6H7NO2/c7-2-3-1-4-5(8)6(3)9-4/h3-6,8H,1H2/t3-,4+,5-,6-/m0/s1
