23
gdb 70755	2.3323	1.53643	1.14582	1.1564	85.11	-0.2438	0.0807	0.3245	1179.7246	0.207897	-388.29781	-388.289325	-388.288381	-388.330167	34.945	
O	-0.107198776	 1.3673350917	 0.0555789741	-0.47329
C	 0.0306165914	-0.0337624611	-0.0050205331	 0.420386
C	-0.4271326335	-0.7187437967	-1.2717744931	-0.385123
C	-1.2812223418	-0.7544051536	-0.0136832475	-0.024112
C	-1.4938300699	-2.0139115643	 0.8045687034	-0.227675
C	-1.3865679309	-1.7674137827	 2.32219235	-0.177222
C	 0.0514918501	-1.6638790171	 2.8595227476	-0.17941
C	 0.9194044237	-0.5104796057	 2.3269054973	-0.180214
C	 1.1917113297	-0.5689933741	 0.8133598064	-0.26142
H	 0.6426632859	 1.7548610286	-0.4102648359	 0.276151
H	-0.7622798796	-0.0864129852	-2.086662825	 0.107922
H	 0.0735943814	-1.6329162431	-1.5769661968	 0.103976
H	-2.1341369192	-0.0808240686	-0.0308715106	 0.093272
H	-2.4825842841	-2.4250429453	 0.5673710365	 0.093848
H	-0.7731531559	-2.788136414	 0.5114968663	 0.089245
H	-1.9440433192	-0.8563556247	 2.578100145	 0.09631
H	-1.8850686946	-2.5885444857	 2.8522245967	 0.086862
H	 0.0036941062	-1.581157705	 3.952630178	 0.089797
H	 0.5686693358	-2.6127235291	 2.6539735924	 0.087599
H	 0.4527164133	 0.4546872449	 2.5588600921	 0.108249
H	 1.8745852738	-0.5298590777	 2.8656374508	 0.083667
H	 1.4240603013	-1.5980927501	 0.5147025321	 0.092159
H	 2.084013072	 0.0236661885	 0.5687324033	 0.079024
140.7617	160.6254	240.9642	300.1185	316.6224	333.788	349.5776	392.0497	431.7418	450.3707	499.015	547.8083	698.7501	757.5566	810.6002	840.5309	885.4631	892.4151	906.502	919.6311	951.0026	981.9537	998.8923	1037.8838	1047.9288	1067.5806	1087.0912	1104.8108	1137.2389	1186.4849	1212.2694	1237.1922	1243.1438	1275.9999	1284.4908	1306.6659	1341.1632	1370.6005	1379.5876	1383.6211	1389.4819	1391.3144	1429.2596	1477.0221	1482.3255	1483.5108	1488.934	1497.4603	1504.4044	2998.1362	3007.5531	3012.8811	3019.1132	3024.952	3046.0069	3050.9735	3054.0779	3056.9925	3069.3215	3121.1649	3143.6949	3213.4677	3783.6989
OC12CC1CCCCC2	O[C@]12C[C@H]1CCCCC2	
InChI=1S/C8H14O/c9-8-5-3-1-2-4-7(8)6-8/h7,9H,1-6H2	InChI=1S/C8H14O/c9-8-5-3-1-2-4-7(8)6-8/h7,9H,1-6H2/t7-,8-/m1/s1
