19
gdb 6810	2.89644	1.7094	1.42895	4.1302	75.53	-0.2977	0.0279	0.3256	973.6661	0.16503	-327.946306	-327.937803	-327.936859	-327.978863	31.999	
C	-0.1254916964	 1.5152382908	 0.0173820941	-0.439284
C	-0.0383468915	-0.0109458738	-0.0203820625	 0.320592
C	-1.3943274516	-0.6342694522	-0.3292158737	-0.454273
C	 1.1729559089	-0.5071341746	-0.8747251419	-0.256786
C	 2.0197322739	-0.6519605002	 0.4144638122	-0.236917
C	 0.6997708265	-0.6130396719	 1.2426799216	-0.166448
C	 0.6799794549	 0.1284174132	 2.4907820735	 0.272042
N	 0.6649027485	 0.7396030311	 3.4729899465	-0.339977
H	 0.8432710649	 1.9759535598	 0.2339405029	 0.123466
H	-0.4670124312	 1.8937171173	-0.9519889799	 0.11577
H	-0.8301976903	 1.8535643901	 0.78348363	 0.134172
H	-1.7653109778	-0.2921724719	-1.3019829019	 0.120798
H	-1.3354793279	-1.7274583689	-0.3601656777	 0.111756
H	-2.1385065274	-0.3567226041	 0.4258973316	 0.126227
H	 0.9715159606	-1.4736514701	-1.3454069751	 0.103848
H	 1.5433962057	 0.1812609993	-1.637619513	 0.106136
H	 2.6295031715	-1.5495839163	 0.5268409384	 0.115058
H	 2.6438797476	 0.2217845589	 0.6101247692	 0.126998
H	 0.337030701	-1.6276936465	 1.4332963057	 0.116822
91.3321	139.2583	201.3299	221.7954	265.2986	296.6995	344.6603	374.7047	387.4457	532.5714	559.4473	594.8812	723.8082	777.0647	874.4776	904.3072	951.8475	956.79	969.8126	1000.0622	1012.9512	1064.353	1109.4148	1180.9904	1183.7268	1224.5961	1245.3464	1268.2036	1279.9036	1302.7548	1351.8187	1407.2194	1425.9353	1479.3671	1482.3393	1490.1416	1497.699	1503.3657	1505.8537	2347.4243	3023.5662	3034.7626	3057.9097	3064.1847	3080.5501	3092.3912	3094.8263	3103.7004	3108.5974	3110.903	3137.4564
CC1(C)CCC1C#N	CC1(C)CC[C@H]1C#N	
InChI=1S/C7H11N/c1-7(2)4-3-6(7)5-8/h6H,3-4H2,1-2H3	InChI=1S/C7H11N/c1-7(2)4-3-6(7)5-8/h6H,3-4H2,1-2H3/t6-/m0/s1
