17
gdb 55041	2.87978	1.17629	0.9878	3.2149	69.47	-0.249	0.0304	0.2793	1211.871	0.135554	-455.12628	-455.117548	-455.116604	-455.1607	31.789	
N	 0.6484632136	-0.201420864	 0.1775572565	-0.528955
C	-0.5489852123	 0.1722946531	-0.3812230619	 0.397366
O	-0.6506476654	 0.9158813104	-1.333206807	-0.361202
N	-1.6512001087	-0.3967527478	 0.3045064542	-0.140116
C	-2.8856343514	-0.6082560143	-0.42503447	-0.242257
C	-2.0816747872	-1.7790486958	 0.0384868535	-0.048096
C	-1.3413495505	-2.6110634458	-0.9579558653	 0.089896
C	-0.5661997684	-3.78863812	-0.5482181698	-0.186294
O	-1.853593109	-3.9303482889	-1.1520599925	-0.236668
H	 1.4483690401	 0.3368431131	-0.1143504595	 0.264709
H	 0.6451911525	-0.5305361689	 1.1290682978	 0.261874
H	-3.7934833203	-0.3314408179	 0.1023677015	 0.125319
H	-2.8667749675	-0.3700882537	-1.4852020617	 0.144726
H	-2.406170013	-2.3297583695	 0.919520578	 0.103388
H	-1.0503899805	-2.093594176	-1.8726502891	 0.119431
H	 0.2763289879	-4.1157281377	-1.1549994082	 0.122991
H	-0.5145849299	-4.0583608963	 0.5061639336	 0.113887
51.1435	65.2339	118.4359	189.0463	281.3255	305.0225	382.7937	438.7022	474.5886	503.7128	546.5936	614.9977	726.2468	808.4535	815.5335	866.9562	923.3436	937.4166	956.477	1021.4304	1090.76	1102.3168	1114.7092	1131.3645	1153.7158	1163.5843	1176.0082	1203.8543	1273.4711	1291.1462	1330.7478	1376.4894	1469.4458	1509.3879	1530.6112	1612.9901	1806.7232	3083.6217	3111.01	3116.7324	3129.4827	3172.7376	3207.6231	3595.0344	3720.2551
NC(=O)N1CC1C1CO1	NC(=O)N1C[C@H]1[C@H]1CO1	
InChI=1S/C5H8N2O2/c6-5(8)7-1-3(7)4-2-9-4/h3-4H,1-2H2,(H2,6,8)	InChI=1S/C5H8N2O2/c6-5(8)7-1-3(7)4-2-9-4/h3-4H,1-2H2,(H2,6,8)/t3-,4+,7?/m0/s1
