20
gdb 112263	2.40477	1.21073	0.88322	2.8466	77.16	-0.2306	0.0261	0.2566	1370.6112	0.169387	-440.298617	-440.288602	-440.287658	-440.334139	35.397	
C	 0.2019821632	 1.5727654708	 0.1751420271	-0.393494
C	-0.134919245	 0.0999016609	-0.0753218361	-0.165221
C	 0.5919374542	-0.4735264327	-1.2858305678	 0.011277
N	 2.0494324702	-0.6410329158	-1.1400452788	-0.335313
C	 2.063034306	-2.0106879801	-1.2016748286	 0.411348
O	 2.9329323503	-2.834128768	-1.083151267	-0.370528
C	 0.5250797362	-2.0237354331	-1.4736670624	-0.044059
O	-0.2854452774	-2.6805749296	-0.5480644002	-0.241278
C	-0.2217898237	-4.0940099282	-0.6637823091	-0.246409
H	 1.2690267648	 1.7090297491	 0.3840753975	 0.111158
H	-0.0501311409	 2.1947449468	-0.6912176092	 0.11538
H	-0.3507417546	 1.9607578381	 1.0356094576	 0.12185
H	 0.1083878217	-0.5045985996	 0.8034616269	 0.114213
H	-1.2120012407	-0.0161044045	-0.2434323338	 0.110007
H	 0.3252390806	 0.0849747277	-2.1918495882	 0.081831
H	 2.7945880061	 0.026036673	-1.0024482055	 0.250053
H	 0.2924478829	-2.3309254202	-2.5050644272	 0.087712
H	-0.5694379092	-4.426057574	-1.6542056393	 0.106783
H	 0.7979314519	-4.4635585668	-0.5064581918	 0.146745
H	-0.8839830767	-4.5036239937	 0.101822816	 0.127946
71.9948	81.8769	106.5235	134.5375	164.3541	219.6418	240.9457	277.528	332.4819	401.4805	449.6155	497.7307	553.0439	720.0869	750.1654	809.7882	830.6468	928.9122	939.3527	975.2822	1038.2444	1068.4491	1099.7378	1141.7475	1178.0448	1183.6831	1189.4991	1211.5484	1243.0828	1271.1837	1292.574	1343.2782	1371.0495	1388.2262	1410.0272	1414.4094	1477.204	1481.6201	1486.3755	1500.968	1505.5438	1513.911	1882.0093	2984.3237	2990.3509	3025.7882	3029.9876	3045.7045	3069.0203	3081.4042	3103.6217	3108.2639	3128.3581	3607.1803
CCC1NC(=O)C1OC	CC[C@H]1NC(=O)[C@H]1OC	
InChI=1S/C6H11NO2/c1-3-4-5(9-2)6(8)7-4/h4-5H,3H2,1-2H3,(H,7,8)	InChI=1S/C6H11NO2/c1-3-4-5(9-2)6(8)7-4/h4-5H,3H2,1-2H3,(H,7,8)/t4-,5+/m1/s1
