13
gdb 21455	6.17555	1.4731	1.18939	1.7956	63.25	-0.2166	0.0079	0.2244	935.3776	0.098978	-390.983282	-390.976499	-390.975555	-391.014862	24.342	
N	 0.273632655	 1.3248622868	 0.0465463302	-0.417958
C	 0.0412245699	 0.0760946314	 0.0184607449	 0.07091
N	-1.2198447702	-0.4795381185	 0.015651118	-0.372347
C	-2.4577286288	 0.1340079853	 0.0428247558	 0.467261
N	-2.6860067233	 1.4377027994	 0.0772666364	-0.270838
N	-4.0500072466	 1.4633833331	 0.0901898352	-0.173971
C	-4.5511652716	 0.2183371004	 0.0636011017	 0.025932
N	-3.5713408595	-0.6631987294	 0.0330387902	-0.335626
H	 1.2788828583	 1.4856334958	 0.0417239368	 0.221846
H	 0.8016487752	-0.7147845603	-0.007210768	 0.088003
H	-1.2832318407	-1.4839596135	-0.0068232408	 0.263937
H	-4.5250104259	 2.349866088	 0.116518441	 0.284242
H	-5.6082199016	-0.0004630685	 0.0675354986	 0.148608
56.4459	170.4848	183.1741	364.6799	366.372	503.7652	510.5488	621.0764	667.7449	770.5337	807.5694	834.8954	853.135	987.0516	997.5715	1048.5802	1091.8823	1123.3386	1179.2336	1248.6814	1283.2914	1334.6062	1419.3045	1472.708	1478.207	1595.2056	1604.1601	1737.5803	3034.8355	3260.6226	3505.1159	3659.0288	3675.0257
N=CNC1=NNC=N1	N=CNc1n[nH]cn1	
InChI=1S/C3H5N5/c4-1-5-3-6-2-7-8-3/h1-2H,(H3,4,5,6,7,8)	InChI=1S/C3H5N5/c4-1-5-3-6-2-7-8-3/h1-2H,(H3,4,5,6,7,8)
