19
gdb 119854	4.12751	0.86095	0.78202	2.8733	77.39	-0.2374	0.0054	0.2429	1476.032	0.159049	-423.008	-422.999322	-422.998378	-423.04213	32.153	
O	-0.0993987467	 1.4598769858	-0.1080319743	-0.41628
C	 0.0314974092	 0.0480786949	-0.0895661445	-0.066599
C	-1.3688484439	-0.5418136657	 0.100402909	-0.304382
C	-1.3789569688	-2.0401902929	 0.0834634137	 0.327397
C	-1.6219405276	-2.8692131067	 1.1064055961	-0.188002
C	-1.5326140012	-4.3315251397	 0.7207355267	-0.285943
C	-1.2598301285	-4.2706290747	-0.7777469115	 0.046588
O	-2.296164139	-3.6459647077	-1.5369502567	-0.256712
C	-1.1456154154	-2.8531963434	-1.1580494306	-0.068598
H	 0.7763524722	 1.8429775984	-0.2121561637	 0.286843
H	 0.4737273489	-0.3229955098	-1.0286273582	 0.086169
H	 0.6827180078	-0.287904565	 0.7325317273	 0.090668
H	-1.771450049	-0.1713758024	 1.0486237178	 0.112224
H	-2.0099215751	-0.1462287379	-0.6977116905	 0.119997
H	-1.9006522597	-2.5496754963	 2.1052227619	 0.095548
H	-0.7208843542	-4.8477189302	 1.2501310691	 0.110039
H	-2.456226509	-4.880218836	 0.9419442825	 0.124813
H	-0.7286417183	-5.0724856994	-1.2836414329	 0.093785
H	-0.5488779216	-2.4910384212	-1.9905214211	 0.092446
60.6661	85.4687	113.4384	249.24	255.8996	300.7936	343.5302	345.5297	410.8779	618.5769	667.1162	765.3417	799.7688	822.4935	827.314	865.2981	888.1093	924.348	954.1607	1001.4882	1018.7498	1035.312	1070.0248	1080.5242	1104.7754	1183.8427	1189.4757	1217.5522	1237.7202	1255.9457	1278.2518	1308.4083	1310.5793	1338.4771	1367.9338	1410.4276	1456.2252	1461.0082	1486.2775	1525.9256	1698.3634	2964.9749	2994.6694	3023.7121	3030.2465	3059.9896	3084.5287	3145.08	3158.1345	3186.5265	3831.3564
OCCC1=CCC2OC12	OCCC1=CC[C@H]2O[C@@H]12	
InChI=1S/C7H10O2/c8-4-3-5-1-2-6-7(5)9-6/h1,6-8H,2-4H2	InChI=1S/C7H10O2/c8-4-3-5-1-2-6-7(5)9-6/h1,6-8H,2-4H2/t6-,7+/m1/s1
