17
gdb 83943	2.37654	1.74877	1.51322	3.4728	67.65	-0.2401	-0.0205	0.2195	946.6825	0.137123	-458.954782	-458.947259	-458.946315	-458.986529	29.35	
O	-0.0503972194	 1.4510108841	-0.0338305951	-0.423744
C	 0.0001903309	 0.0482551332	 0.0260483137	 0.123541
C	 0.2006105353	-0.6488803427	 1.4186448458	-0.242862
C	-0.5856243486	 0.1613166249	 2.471309972	-0.060147
O	-1.9831663833	 0.1144357596	 2.2233036458	-0.264386
C	-2.369328813	 0.1609915661	 0.8552242931	-0.072945
C	-1.3916732523	-0.6415581173	-0.0323445215	-0.213671
C	-0.7541779989	-1.7188546066	 0.8632430029	 0.450081
O	-0.859044604	-2.9040936555	 0.9728352075	-0.317374
H	 0.8463499601	 1.7943408672	 0.0310006048	 0.292103
H	 0.6826715577	-0.3617935259	-0.7284647128	 0.086024
H	 1.1990571806	-0.9250554149	 1.7611548102	 0.086903
H	-0.4439922818	-0.2689287822	 3.4664419353	 0.120768
H	-0.2179463533	 1.1973154244	 2.478229974	 0.099073
H	-3.3665747094	-0.2853544709	 0.8130379786	 0.120765
H	-2.4262912587	 1.1944965284	 0.4904612842	 0.12154
H	-1.8279120021	-0.9069737317	-0.9956827884	 0.094331
147.7636	161.2282	256.0786	265.139	295.1483	310.3553	500.8303	507.4768	553.4257	565.5986	690.9533	737.32	801.7281	835.0921	861.6526	899.4568	982.8681	1024.376	1026.1054	1068.8714	1084.7272	1090.4957	1141.5678	1148.1367	1196.2566	1208.0736	1242.4378	1268.4359	1285.6937	1297.9755	1317.7843	1381.8003	1405.5033	1436.5022	1495.551	1510.682	1901.7797	3005.0907	3025.222	3027.601	3089.4369	3093.0789	3107.1328	3116.2941	3821.4569
OC1C2COCC1C2=O	O[C@H]1[C@H]2COC[C@@H]1C2=O	
InChI=1S/C6H8O3/c7-5-3-1-9-2-4(5)6(3)8/h3-5,7H,1-2H2	InChI=1S/C6H8O3/c7-5-3-1-9-2-4(5)6(3)8/h3-5,7H,1-2H2/t3-,4+,5+
