16
gdb 68517	2.66272	1.85482	1.45653	1.605	67.69	-0.2371	-0.0069	0.2301	914.7414	0.125294	-437.840833	-437.833736	-437.832792	-437.872114	28.583	
O	-0.0870130321	 1.4112955616	 0.1006309387	-0.484919
C	 0.0152930756	 0.0362923002	 0.0646607032	 0.306887
C	 0.916769592	-0.837849656	 1.0163715862	-0.309771
C	 0.7147731722	-1.95479548	-0.0594550289	-0.177393
C	-0.8109490859	-2.1533910142	-0.0613913163	-0.043046
N	-1.5089256815	-1.6846305813	 1.1559538642	-0.336541
C	-1.3020997738	-0.7479287841	 0.0324543548	-0.085225
C	 0.798015785	-0.7444477253	-1.0408346214	 0.358283
O	 1.3892099513	-0.4439441501	-2.0322163973	-0.324473
H	 0.6897886902	 1.7817456124	-0.3352273028	 0.294265
H	 1.9469224433	-0.4796130527	 1.052886759	 0.109149
H	 0.5125381535	-1.0402705097	 2.0042972505	 0.151159
H	 1.3733138712	-2.8148518028	-0.1367658384	 0.09193
H	-1.2679416545	-2.897152864	-0.7025213693	 0.105308
H	-2.4695251015	-2.0177759262	 1.1191841166	 0.238071
H	-2.138155125	-0.3563452979	-0.5338311588	 0.106317
127.9528	176.8866	304.558	313.9071	358.0219	443.2459	527.6735	548.7119	590.3245	693.4517	718.3905	795.4261	802.5052	836.2136	859.353	876.018	903.4819	945.7734	960.8601	1007.9728	1026.9675	1080.1587	1098.7834	1115.0307	1141.3266	1168.7783	1186.8317	1218.1683	1267.1569	1288.8364	1326.4297	1376.4099	1416.0273	1476.2075	1895.9033	3093.4399	3165.8006	3185.96	3186.8882	3196.3717	3506.7338	3788.6264
OC12CC(C3NC13)C2=O	O[C@@]12C[C@@H]([C@H]3N[C@@H]13)C2=O	
InChI=1S/C6H7NO2/c8-5-2-1-6(5,9)4-3(2)7-4/h2-4,7,9H,1H2	InChI=1S/C6H7NO2/c8-5-2-1-6(5,9)4-3(2)7-4/h2-4,7,9H,1H2/t2-,3+,4+,6-/m0/s1
