22
gdb 62682	2.34714	1.69161	1.28789	1.7069	86.27	-0.2136	0.0684	0.2821	1109.5272	0.193171	-367.122121	-367.113133	-367.112189	-367.154783	35.993	
C	-0.0441438809	 1.581106653	 0.0561923234	-0.491215
C	 0.0782795289	 0.0549825971	 0.0388618067	 0.257198
C	-1.198439703	-0.5663930306	-0.5312358661	-0.453571
C	 1.2600195695	-0.8577743901	-0.3230938945	-0.11223
N	 2.6855641136	-0.5656670053	 0.0787246433	-0.140996
C	 2.796056786	 0.7734899555	 0.6705904931	-0.25615
C	 2.1659795262	-0.3086858434	 1.4698775753	-0.103697
C	 0.7368679799	-0.7902248747	 1.1021525349	 0.291706
C	 0.0811755493	-1.8067758474	 1.995662699	-0.503268
H	 0.3460716645	 2.0397921293	-0.859421822	 0.124273
H	-1.1033202142	 1.8536885107	 0.1218350211	 0.109552
H	 0.4525536709	 2.0372968323	 0.9129665537	 0.129511
H	-1.4099252079	-0.1400038578	-1.5181009983	 0.119255
H	-1.1272664579	-1.6507895165	-0.6478596443	 0.118899
H	-2.0583610593	-0.35306094	 0.1139551792	 0.116984
H	 1.1362889861	-1.6198102562	-1.0843102064	 0.091528
H	 3.8245934915	 1.0032990026	 0.9416096178	 0.117192
H	 2.2589188575	 1.6082140688	 0.2496843277	 0.124936
H	 2.6802260727	-0.7388569778	 2.3254176264	 0.095435
H	-0.2084297434	-1.3529063092	 2.9522620166	 0.118293
H	-0.8195628949	-2.2327419303	 1.5479404337	 0.122697
H	 0.7657430946	-2.6331235902	 2.2199837196	 0.123666
149.093	188.5444	196.2464	218.05	255.662	309.825	318.981	337.3547	375.807	412.2165	505.6813	587.7398	615.105	669.5241	689.864	762.4071	835.8101	895.4423	915.2618	940.6703	980.7198	989.5196	992.7584	1008.6797	1041.8426	1053.8326	1109.6436	1117.8745	1137.6229	1152.0494	1176.0628	1191.9235	1227.6058	1230.7933	1282.9671	1338.3872	1402.9895	1412.1467	1425.7789	1447.333	1487.0732	1491.0368	1495.0685	1499.6526	1505.483	1512.637	1524.0775	3019.2513	3025.877	3031.0815	3071.6499	3081.5238	3087.6065	3109.5109	3121.0502	3121.832	3131.8811	3141.5571	3170.2875	3264.2044
CC1(C)C2N3CC3C12C	CC1(C)[C@H]2N3C[C@H]3[C@@]12C	
InChI=1S/C8H13N/c1-7(2)6-8(7,3)5-4-9(5)6/h5-6H,4H2,1-3H3	InChI=1S/C8H13N/c1-7(2)6-8(7,3)5-4-9(5)6/h5-6H,4H2,1-3H3/t5-,6+,8+,9?/m0/s1
