18
gdb 72012	2.50323	1.99548	1.4661	3.1156	75.09	-0.2363	-0.0176	0.2187	943.1668	0.149142	-401.906054	-401.8989	-401.897956	-401.937343	28.968	
C	 0.0210898334	 1.5629851859	-0.0320865525	-0.512358
C	 0.0230071511	 0.0572105174	-0.0600090328	 0.3273
C	 0.4194041176	-0.8354483555	-1.2357128746	-0.238008
N	-0.3305194442	-1.9570499316	-0.5499689314	-0.147226
C	 0.5649519238	-2.1494660899	 0.641524728	-0.177045
C	 0.4230185232	-0.7460316297	 1.2701910874	-0.221566
C	-1.0876231062	-0.7845897941	 1.5346287767	 0.442551
O	-1.8093684356	-0.5473233679	 2.4590016576	-0.328941
C	-1.2676491582	-0.8742762265	 0.0293456189	-0.166716
H	 1.0439010902	 1.9552445227	-0.0026961854	 0.127063
H	-0.4695190599	 1.9742555387	-0.9203520223	 0.125028
H	-0.5052421207	 1.9428904731	 0.8502151956	 0.138984
H	-0.094473472	-0.5553189913	-2.1594913618	 0.112827
H	 1.4734547043	-1.0417061985	-1.4503019491	 0.101839
H	 0.1899001608	-2.9505021265	 1.2853669755	 0.119025
H	 1.5751150624	-2.4049558929	 0.3147676847	 0.111436
H	 1.1423444204	-0.377581865	 1.9977284187	 0.088138
H	-2.1967049004	-0.7319284784	-0.5167098831	 0.097669
120.3758	216.3508	245.5418	299.4002	357.6568	463.5833	522.0128	535.9197	610.6671	663.8526	718.2877	781.1441	791.4742	854.9705	863.0668	916.2378	923.9253	961.3694	994.759	1020.5975	1036.928	1083.1341	1095.9719	1118.7776	1139.4485	1180.3368	1197.1858	1212.6844	1225.0169	1246.4188	1250.3712	1319.751	1330.3285	1416.4239	1488.6949	1494.3205	1506.0916	1531.0379	1885.8933	3028.1444	3040.4563	3059.4993	3093.198	3099.2338	3100.7696	3112.135	3153.1395	3159.266
CC12CN3CC1C(=O)C23	C[C@@]12CN3C[C@@H]1C(=O)[C@@H]23	
InChI=1S/C7H9NO/c1-7-3-8-2-4(7)5(9)6(7)8/h4,6H,2-3H2,1H3	InChI=1S/C7H9NO/c1-7-3-8-2-4(7)5(9)6(7)8/h4,6H,2-3H2,1H3/t4-,6+,7-/m1/s1
