13
gdb 132919	3.20425	1.44654	0.99805	4.9808	66.59	-0.2143	-0.0607	0.1536	1073.4411	0.08957	-494.052483	-494.044886	-494.043942	-494.084906	28.22	
N	 0.0149405274	 1.4278796625	 0.1721437579	-0.597138
C	-0.0424262836	 0.0354219442	 0.0403641256	 0.056799
C	-1.1557392423	-0.7287841945	 0.0072026598	 0.029615
O	-1.1256653336	-2.0750095539	-0.02412158	-0.195583
C	 0.0867066747	-2.7624824486	-0.0220587524	 0.437729
N	 0.0010805596	-4.0236043097	-0.021166544	-0.530518
N	 1.2570438419	-2.0102379507	-0.0293235288	-0.367602
C	 1.1717543896	-0.7422159246	 0.0061575535	 0.332555
F	 2.2963417336	-0.0347213543	-0.0104240267	-0.060876
H	 0.8285242738	 1.8281172009	-0.27539985	 0.261412
H	-0.8260784018	 1.9018365742	-0.1288769515	 0.254324
H	-2.1684841946	-0.344381782	 0.0111669889	 0.142897
H	 0.9413154051	-4.4130577235	-0.0259789024	 0.236385
66.2888	179.8122	214.9222	292.7012	343.9433	378.097	381.2536	476.136	557.8979	592.1461	685.5364	719.3533	749.3108	756.8509	800.3321	845.3802	876.2769	879.3676	1082.2667	1130.1867	1215.478	1258.2766	1288.2578	1363.7912	1476.3275	1636.6371	1644.0346	1732.6228	1754.5647	3214.007	3531.5599	3548.2764	3644.7495
NC1=COC(=N)N=C1F	NC1=C(N=C(OC1)[NH])F	
InChI=1S/C4H4FN3O/c5-3-2(6)1-9-4(7)8-3/h1,7H,6H2	InChI=1S/C4H5FN3O/c5-3-2(6)1-9-4(7)8-3/h7H,1,6H2
