20
gdb 40146	2.58842	1.59147	1.28288	2.7248	78.78	-0.2379	0.059	0.2969	1072.7889	0.171795	-403.093443	-403.085307	-403.084362	-403.126341	31.516	
C	 0.5052848653	 1.3411092477	-0.2776304346	-0.321449
N	 1.3423771224	 0.2066379424	 0.1636867778	-0.353667
C	-0.0983507053	 0.0241398132	 0.0039385817	 0.293358
C	-0.9795646862	-0.5329220535	 1.1249800273	-0.308162
C	-1.2385395552	-1.7783387566	 0.2195877605	-0.300329
C	-0.6596772683	-1.0005563704	-0.9882461536	 0.399382
C	-1.5380588784	-0.5859861997	-2.1906686671	-0.355327
C	-0.4832425645	-1.3227507373	-3.0358374376	-0.075944
O	 0.2878031486	-1.6509708243	-1.8570976209	-0.317125
H	 0.4156615554	 2.1493577533	 0.4437193783	 0.117793
H	 0.567953893	 1.6665275507	-1.3144770819	 0.104832
H	 1.8011310575	-0.2161331624	-0.6434911275	 0.238892
H	-0.4714739591	-0.712255921	 2.0738385143	 0.116629
H	-1.8797186702	 0.0620702238	 1.3033098626	 0.102754
H	-0.5840812199	-2.6150231312	 0.4763254799	 0.122728
H	-2.2657820807	-2.1396127662	 0.1278641987	 0.096068
H	-2.5396091448	-1.0195401553	-2.2044091434	 0.112943
H	-1.607275881	 0.4901729686	-2.3586899082	 0.113788
H	-0.8312847995	-2.2239026821	-3.5534961988	 0.107617
H	 0.0893615509	-0.7076875998	-3.7393892376	 0.105219
82.9216	93.4328	185.053	228.1773	282.1226	335.5999	420.4395	478.419	538.8916	586.9772	740.2697	785.8713	835.993	859.1001	879.274	902.4277	911.0156	930.3323	943.4121	978.2728	986.7089	1021.6882	1058.7819	1099.5652	1125.9158	1135.9828	1156.8284	1170.1938	1190.6026	1216.0898	1223.8125	1237.3546	1253.4547	1265.2177	1290.4306	1318.3929	1352.9047	1411.1104	1468.6521	1486.2838	1488.592	1511.7368	1532.309	3025.0568	3060.6986	3065.1131	3066.5088	3076.382	3094.2949	3115.0493	3129.6956	3131.9638	3178.3846	3465.7342
C1NC11CCC11CCO1	C1N[C@]21CC[C@]12CCO1	
InChI=1S/C7H11NO/c1-2-7(3-4-9-7)6(1)5-8-6/h8H,1-5H2	InChI=1S/C7H11NO/c1-2-7(3-4-9-7)6(1)5-8-6/h8H,1-5H2/t6-,7+/m0/s1
