21
gdb 59053	3.21495	1.017	0.93484	2.6129	81.48	-0.2359	0.0214	0.2574	1357.2356	0.182456	-424.231475	-424.222199	-424.221255	-424.265617	34.96	
C	-0.1681034409	 1.5066576417	-0.0102484978	-0.409059
C	-0.009790751	-0.0199355267	-0.0324636675	 0.030775
O	 0.7529247151	-0.4378598417	-1.1653528121	-0.437649
C	 0.6998283339	-0.545664465	 1.1939789096	 0.342251
C	 0.0455032931	-1.1612148788	 2.1784108181	-0.194858
C	 0.7290236924	-1.6847363508	 3.4120105607	-0.116478
O	 2.1386974227	-1.6925009661	 3.3186109559	-0.245468
C	 2.6501229584	-0.5005540935	 2.7464208187	-0.089778
C	 2.1948216219	-0.3433100626	 1.2952453451	-0.287035
H	 0.8052914327	 2.0031435083	 0.041322285	 0.125859
H	-0.6770040411	 1.8513319633	-0.9188825107	 0.104781
H	-0.7681664073	 1.8214091187	 0.8486075654	 0.122523
H	-1.0148514925	-0.4694783749	-0.0671249116	 0.065634
H	 0.3909344317	-0.0002036302	-1.9422858806	 0.281323
H	-1.0315679146	-1.3076605262	 2.1266603547	 0.08138
H	 0.4014948283	-1.1014556005	 4.294180508	 0.092372
H	 0.4316354762	-2.7240628413	 3.5980640168	 0.116703
H	 2.3282288831	 0.3747973652	 3.3359824409	 0.083134
H	 3.7391518279	-0.5720699619	 2.8181412228	 0.104708
H	 2.7084980663	-1.0665920427	 0.6515304591	 0.130138
H	 2.4799531636	 0.6485430858	 0.9243757895	 0.098744
61.766	99.5439	192.8483	219.0004	249.579	269.8499	281.753	326.4487	354.5632	450.8042	496.7759	553.9392	587.3816	694.1729	790.0972	841.489	860.485	896.533	938.564	985.0613	1008.8348	1034.6725	1040.611	1083.1722	1095.2826	1120.523	1155.4938	1174.6394	1225.5331	1250.2107	1258.7662	1306.4389	1333.8658	1359.7561	1372.2967	1393.7839	1400.8882	1415.353	1427.0553	1464.3377	1487.705	1491.4794	1498.9107	1501.8986	1744.0251	2919.476	2961.0437	2970.6719	3026.5389	3036.3043	3044.379	3068.0179	3085.4179	3095.0947	3121.4789	3146.1413	3818.2163
CC(O)C1=CCOCC1	C[C@@H](O)C1=CCOCC1	
InChI=1S/C7H12O2/c1-6(8)7-2-4-9-5-3-7/h2,6,8H,3-5H2,1H3	InChI=1S/C7H12O2/c1-6(8)7-2-4-9-5-3-7/h2,6,8H,3-5H2,1H3/t6-/m1/s1
