19
gdb 122871	3.34344	0.85691	0.72534	4.6142	70.44	-0.2402	-0.0318	0.2085	1558.0437	0.156015	-497.281946	-497.271577	-497.270632	-497.318912	35.806	
O	-1.0325697768	 1.4210686825	-1.1090300925	-0.436381
C	-0.3459269978	 0.3037063286	-0.5953428208	-0.062752
C	-1.2750281491	-0.7039718756	 0.0738630897	-0.080175
O	-2.145429854	-1.3467617038	-0.8541722682	-0.238693
C	-3.4234102716	-0.8102517911	-1.0357256463	-0.189094
C	-3.6293673673	-0.2224534347	-2.4373311817	 0.384207
O	-2.7498901769	 0.3206338413	-3.0613255101	-0.290176
C	-5.040013913	-0.3736804922	-2.9831138034	-0.1714
O	-5.1939537381	 0.4018642427	-4.1377125655	-0.391231
H	-1.4745992973	 1.132419713	-1.9227448734	 0.308652
H	 0.2363513987	-0.2137398442	-1.3730116336	 0.096017
H	 0.363164368	 0.6690230251	 0.1590150992	 0.097137
H	-0.6825356325	-1.500835484	 0.5404241008	 0.100611
H	-1.8599032997	-0.2042310849	 0.8590900365	 0.097516
H	-4.1724871207	-1.5997606183	-0.8687951385	 0.108921
H	-3.6454674918	-0.0027751422	-0.3202076943	 0.13427
H	-5.1914290221	-1.4534980543	-3.1641707171	 0.122683
H	-5.7444182364	-0.0979818097	-2.1769813239	 0.112605
H	-6.0775929219	 0.2521062318	-4.4861915768	 0.297285
33.1543	51.7641	92.9035	120.2709	179.9856	203.8186	237.9684	287.71	319.1445	346.7372	429.278	484.5735	507.8033	662.6837	684.3778	798.0047	836.6355	898.0557	907.5155	978.4078	1045.9118	1071.6149	1101.1123	1133.2715	1158.1889	1189.5369	1233.744	1243.3738	1258.2561	1293.3617	1316.2477	1395.3491	1406.7203	1411.3614	1442.6119	1453.5656	1457.2457	1484.0882	1490.5377	1490.8602	1824.7468	2941.7907	2961.9252	2978.0971	2990.285	3001.8524	3017.0267	3050.7731	3061.5515	3679.4215	3837.5446
OCCOCC(=O)CO	OCCOCC(=O)CO	
InChI=1S/C5H10O4/c6-1-2-9-4-5(8)3-7/h6-7H,1-4H2	InChI=1S/C5H10O4/c6-1-2-9-4-5(8)3-7/h6-7H,1-4H2
