19
gdb 37243	3.53561	1.50066	1.3601	1.0062	78.48	-0.2187	0.0614	0.2801	1005.5233	0.161318	-381.961521	-381.954497	-381.953553	-381.992703	29.099	
C	 0.040147681	 1.5073868324	-0.0618090022	-0.295902
C	 1.361172992	 0.7972431557	 0.0375821995	-0.065156
C	 0.0530818992	 0.0051354668	 0.0366316207	-0.013646
N	 0.419474252	-0.7182167205	-1.2055483373	-0.125749
C	-0.0510704914	-0.1239121546	-2.5047908968	-0.275252
C	 1.2763322479	 0.646516687	-2.6317988001	 0.339676
C	 2.0780101053	 0.8890253698	-3.8488451888	-0.319979
N	 1.5024151873	 2.0146379959	-3.0830039566	-0.353611
C	 1.702641035	 0.0739091907	-1.2722517825	-0.057224
H	-0.2713878552	 1.9997745328	 0.8543914179	 0.113167
H	-0.2488218374	 2.0383194124	-0.9615971215	 0.114977
H	 2.0613036967	 0.9760903915	 0.8432776959	 0.091172
H	-0.4542798235	-0.525006582	 0.835014684	 0.092434
H	-0.2186880266	-0.894154614	-3.2642274932	 0.108744
H	-0.9528100729	 0.4937253345	-2.4230761121	 0.104624
H	 3.1624640612	 0.82184678	-3.8125519185	 0.121069
H	 1.6386893361	 0.6280417412	-4.809000608	 0.113025
H	 0.6731609314	 2.3691728292	-3.5552822678	 0.2299
H	 2.6286493917	-0.5077759289	-1.2492434124	 0.077732
117.8899	212.0598	262.6812	324.8256	364.4473	476.377	510.0472	595.8456	707.5144	750.8972	773.288	834.9137	851.3439	875.7043	897.3289	935.2926	946.4662	963.3639	972.7993	992.6855	1003.0052	1019.4934	1055.068	1068.9303	1069.6342	1103.4362	1112.4048	1136.5395	1177.2706	1191.0058	1198.8161	1260.4265	1267.9033	1279.431	1288.9413	1300.618	1347.6071	1419.8386	1487.0341	1500.4194	1513.349	3029.7706	3063.2342	3078.2039	3099.3209	3132.3177	3166.2107	3184.1236	3193.9405	3212.3554	3484.1994
C1C2C1N1CC3(CN3)C21	C1[C@H]2[C@@H]1N1C[C@]3(CN3)[C@@H]21	
InChI=1S/C7H10N2/c1-4-5(1)9-3-7(2-8-7)6(4)9/h4-6,8H,1-3H2	InChI=1S/C7H10N2/c1-4-5(1)9-3-7(2-8-7)6(4)9/h4-6,8H,1-3H2/t4-,5+,6+,7+/m0/s1
