19
gdb 72882	3.16912	1.4033	1.18233	2.6347	75.33	-0.244	0.0626	0.3066	1098.8031	0.15806	-422.975217	-422.967064	-422.96612	-423.007874	31.66	
C	-0.1786011221	 1.515065273	 0.2620181228	-0.476147
C	 0.0570643335	 0.0401764246	 0.078592128	 0.449798
C	-1.1531535138	-0.9383052819	 0.0132104495	-0.368965
C	-0.4101162218	-1.854153397	 0.9999385583	 0.461099
C	-0.9510023798	-2.7355728538	 2.0347214839	-0.273015
O	-0.3039268924	-3.2612347696	 0.8670468079	-0.268852
C	 0.799586776	-0.9233371312	 1.0700494462	-0.237443
C	 1.7841738858	-1.1193576962	-0.0934803148	-0.088921
O	 1.0176162281	-0.2540363083	-0.9648386758	-0.328147
H	 0.7630165249	 2.0401724152	 0.4467081874	 0.124602
H	-0.6310283769	 1.93785993	-0.642183875	 0.132038
H	-0.8566637626	 1.702134746	 1.1008487893	 0.116682
H	-2.0939689027	-0.5349417259	 0.3994786393	 0.104061
H	-1.3142270814	-1.3603944483	-0.9809670493	 0.12422
H	-0.4093942911	-2.873438954	 2.9702530564	 0.11476
H	-2.0255571098	-2.9083568163	 2.0900708749	 0.116247
H	 1.1934589589	-0.6434327462	 2.0469251182	 0.078125
H	 2.7869243827	-0.7131310393	 0.0856154618	 0.100996
H	 1.8696701645	-2.1408361305	-0.4804004391	 0.118863
66.3188	198.6083	213.8011	237.4114	277.7836	315.1613	371.1538	393.267	505.1045	530.6719	653.6038	727.8061	811.7382	835.6118	864.442	913.1985	919.1395	929.5788	956.2383	994.1854	1004.4357	1054.6266	1103.138	1120.6349	1128.963	1149.9215	1162.6816	1173.7333	1182.874	1215.0786	1225.6632	1274.6112	1325.7306	1348.3448	1410.387	1430.5891	1459.523	1480.2647	1489.7719	1521.527	1535.1447	3020.2734	3032.6061	3056.5488	3070.5032	3075.5019	3100.8768	3112.9556	3113.7276	3123.0471	3161.7903
CC12CC3(CO3)C1CO2	C[C@]12C[C@]3(CO3)[C@H]1CO2	
InChI=1S/C7H10O2/c1-6-3-7(4-9-7)5(6)2-8-6/h5H,2-4H2,1H3	InChI=1S/C7H10O2/c1-6-3-7(4-9-7)5(6)2-8-6/h5H,2-4H2,1H3/t5-,6-,7-/m0/s1
