18
gdb 75477	2.88881	1.15021	0.86842	5.717	79.24	-0.2461	0.0027	0.2488	1315.5335	0.147074	-401.97437	-401.965381	-401.964437	-402.008844	32.153	
C	-0.1230755043	 1.5182482015	 0.0007824185	-0.503181
C	-0.0132378099	 0.0275580684	-0.0147525391	 0.304957
C	 0.0771765914	-0.7942261996	-1.0572706025	-0.206209
C	 0.1218107352	-2.2219968595	-0.6019235814	-0.117729
O	 0.0617028373	-2.154852132	 0.8234525606	-0.269044
C	-0.0272325953	-0.804897843	 1.2511216017	 0.040895
C	 1.1512740271	-0.483464947	 2.2029640522	-0.354952
C	 1.1345096604	-1.3026420752	 3.4114696194	 0.272468
N	 1.1131105235	-1.9384156377	 4.3758932263	-0.305765
H	 0.7226057953	 1.985036061	 0.5207936941	 0.133417
H	-0.1552267945	 1.9242874948	-1.01309214	 0.135291
H	-1.030758953	 1.8411536958	 0.5257273364	 0.136654
H	 0.0985534354	-0.504753869	-2.1008492823	 0.107591
H	-0.7280215136	-2.8104615399	-0.9804148385	 0.114153
H	 1.0399765595	-2.7444142565	-0.9107218919	 0.112886
H	-0.9633920845	-0.6596638938	 1.8150429119	 0.099327
H	 2.0945085171	-0.6445955697	 1.6704318439	 0.152412
H	 1.1117081627	 0.5710107313	 2.4991521908	 0.146831
60.0661	82.5385	127.6272	168.3424	219.8989	246.0498	339.9036	370.1474	395.6407	511.6526	565.9181	603.2145	771.4508	810.8307	833.3133	927.4962	947.7817	966.5326	987.4818	1035.9517	1042.29	1050.8136	1071.3322	1118.2473	1192.476	1208.3946	1233.694	1272.7086	1303.2541	1354.4808	1373.2676	1387.7016	1418.4839	1453.4916	1482.0181	1489.1525	1522.2052	1733.4835	2364.9165	2966.4701	2984.116	3002.1374	3022.5941	3046.0181	3069.0584	3093.0451	3119.0401	3211.3019
CC1=CCOC1CC#N	CC1=CCO[C@H]1CC#N	
InChI=1S/C7H9NO/c1-6-3-5-9-7(6)2-4-8/h3,7H,2,5H2,1H3	InChI=1S/C7H9NO/c1-6-3-5-9-7(6)2-4-8/h3,7H,2,5H2,1H3/t7-/m0/s1
