19
gdb 72730	2.58049	2.0605	1.62421	0.9453	75.6	-0.2079	0.0667	0.2747	906.0648	0.159898	-422.928001	-422.920855	-422.919911	-422.958777	30.59	
O	 0.2058684142	 1.3696089967	 0.1500770474	-0.484641
C	 0.0946788891	-0.0301272646	-0.0035095391	 0.447091
C	 0.1667060768	-0.4445840796	-1.5233463912	-0.340515
C	-1.4311013097	-0.3778752314	-1.5011576552	-0.336072
C	-1.300986515	-0.6417608288	 0.0155420747	 0.371203
C	-1.4206830045	-0.2304151661	 1.5044435729	-0.337597
C	 0.1377515933	-0.655880433	 1.4460648405	-0.153631
C	-0.0072292245	-2.1330735533	 1.146226953	-0.088302
O	-1.0142803327	-2.0643313274	 0.1142249454	-0.310892
H	-0.0583680444	 1.7960567227	-0.6719694031	 0.280172
H	 0.6927360013	 0.2643218394	-2.1695933511	 0.09339
H	 0.5243948483	-1.451624109	-1.7245681565	 0.134033
H	-1.7953256843	 0.6261895818	-1.7334251039	 0.103045
H	-1.9860439957	-1.1100064017	-2.0900308452	 0.117351
H	-1.535899167	 0.8372937784	 1.6669379931	 0.126841
H	-2.074383055	-0.818776565	 2.1526332526	 0.098723
H	 0.8546231787	-0.3319492745	 2.2004455611	 0.080465
H	 0.9050656681	-2.5998187471	 0.7552147614	 0.09857
H	-0.3713756969	-2.7217052176	 1.9968705233	 0.100765
239.4034	265.5889	277.6975	309.0073	383.0215	425.4735	459.6712	508.573	527.2884	626.0839	668.5018	710.7939	788.8326	832.2561	854.938	870.9431	908.4	936.7523	946.736	973.3972	1003.1068	1028.9987	1054.3838	1055.3096	1098.8227	1137.9517	1156.4796	1169.1908	1179.3189	1203.9849	1218.4488	1221.5982	1232.9291	1266.3617	1290.3451	1342.3611	1372.6024	1464.9869	1472.6751	1480.7753	1528.8407	3018.0546	3055.8287	3061.9915	3070.7282	3079.4328	3123.7871	3128.2206	3163.9757	3187.7869	3804.2548
OC12CCC11CC2CO1	O[C@]12CC[C@@]31C[C@H]2CO3	
InChI=1S/C7H10O2/c8-7-2-1-6(7)3-5(7)4-9-6/h5,8H,1-4H2	InChI=1S/C7H10O2/c8-7-2-1-6(7)3-5(7)4-9-6/h5,8H,1-4H2/t5-,6-,7-/m0/s1
