18
gdb 38461	3.04624	2.1445	1.77794	1.7491	75.55	-0.2236	0.0122	0.2357	828.9955	0.149255	-401.762748	-401.756646	-401.755701	-401.792637	27.107	
C	-0.1209472015	 1.4746557931	-0.0800719525	-0.18263
C	 1.4572924377	 1.7517821647	 0.0548903135	-0.127888
C	 2.0997908733	 1.9046521914	 1.5248513121	 0.068979
C	 0.9639936099	 1.3445658168	 2.3384050769	-0.222167
C	 1.3957701121	 0.0817348244	 1.5505671228	 0.298467
C	 0.15989125	-0.8560156702	 1.2563928209	-0.269774
N	 0.0196445993	-0.0614674074	-0.0471177854	-0.187022
C	 1.4869835043	 0.2472292818	 0.0546764523	 0.078274
O	 2.8423934407	 0.6376205053	 1.8204516603	-0.394306
H	-0.8382017494	 1.9400482104	 0.5972728885	 0.114626
H	-0.4236956188	 1.7004102536	-1.1048483696	 0.124224
H	 1.8909429348	 2.357701502	-0.7395799401	 0.076411
H	 2.6910543307	 2.7854108525	 1.7727036062	 0.082872
H	 1.2533228282	 1.1833566328	 3.3781905262	 0.110816
H	-0.0462640409	 1.7432419558	 2.2855456465	 0.092475
H	 0.3552852561	-1.8897133835	 0.9636026903	 0.133072
H	-0.6552618754	-0.8074039893	 1.9837716256	 0.120074
H	 2.2068142989	-0.3958256342	-0.4516849146	 0.083497
258.1883	310.6248	382.9279	449.8803	518.3547	557.7602	606.368	664.7937	709.0263	728.7843	754.5207	786.2627	824.0042	846.8295	879.6275	914.1072	935.7888	962.7231	976.8724	985.96	1014.1966	1055.8236	1073.122	1098.6442	1138.8041	1157.0739	1170.3517	1206.5399	1212.2789	1223.3288	1231.4366	1237.0943	1252.5196	1281.6153	1302.5563	1327.7852	1478.2478	1482.1848	1532.5273	3059.532	3069.3768	3090.0629	3105.6437	3118.3645	3124.1091	3130.2963	3135.6328	3152.805
C1C2C3CC4(CN1C24)O3	C1[C@H]2[C@H]3C[C@]4(CN1[C@@H]24)O3	
InChI=1S/C7H9NO/c1-5-4-2-8-3-7(1,9-5)6(4)8/h4-6H,1-3H2	InChI=1S/C7H9NO/c1-5-4-2-8-3-7(1,9-5)6(4)8/h4-6H,1-3H2/t4-,5+,6-,7+/m0/s1
