20
gdb 121893	3.87356	0.7875	0.69247	6.3764	72.66	-0.2473	0.0254	0.2727	1629.0122	0.170924	-477.453884	-477.444168	-477.443224	-477.489338	35.097	
C	-0.4596650871	 1.3643636311	-0.4873369388	-0.321824
N	-0.5912131218	-0.0866315729	-0.3588637212	-0.289201
H	-1.6344968976	-1.2343667497	-1.3725231637	 0.291638
H	 0.3274976936	-0.5126448602	-0.4474459588	 0.232841
C	-1.1831774372	-0.5148786587	 0.9200528679	-0.156635
C	-1.458294013	-2.0198547478	 0.9077198877	-0.236164
C	-2.535886185	-2.4155738498	-0.1156864562	-0.000601
O	-2.2116221946	-2.028058994	-1.4413916596	-0.466577
C	-2.7409067457	-3.9383281029	-0.087420852	 0.405378
O	-3.1076069741	-4.5287725684	 0.8935122397	-0.347831
O	-2.451309337	-4.5421330682	-1.2467957582	-0.365045
H	 0.0518089519	 1.6043624533	-1.4230153008	 0.131108
H	-1.455299572	 1.8176180686	-0.5197365026	 0.13738
H	 0.0964172087	 1.8266102064	 0.3437591212	 0.111294
H	-0.5468340449	-0.2467554538	 1.7793429507	 0.097984
H	-2.1261295774	 0.0329214032	 1.0442234218	 0.118002
H	-0.5290912285	-2.5619125805	 0.6845297091	 0.104588
H	-1.7910779219	-2.3532506394	 1.8941424496	 0.138113
H	-3.4924247808	-1.9647778044	 0.192214903	 0.100752
H	-2.1853598955	-3.823191122	-1.8537159188	 0.314802
56.6633	72.3946	99.5245	174.8136	192.9475	256.5427	269.9877	314.074	367.6214	417.0734	497.8186	551.9037	619.0377	715.125	741.6778	768.6727	832.6744	863.1154	916.5564	952.0672	955.9743	1038.0251	1055.2638	1126.2917	1135.9279	1152.9778	1177.8245	1223.5071	1268.0568	1273.8407	1305.8195	1348.7949	1379.4837	1393.2441	1423.7276	1459.2996	1465.8526	1488.0488	1490.7363	1497.6857	1512.2694	1519.5911	1870.61	2968.6917	2981.0059	2984.0091	3023.7429	3048.9694	3076.7528	3107.0163	3119.5251	3388.3555	3500.4558	3585.2337
C[NH2+]CCC(O)C([O-])=O	CNCC[C@@H](O)C(=O)O	
InChI=1S/C5H11NO3/c1-6-3-2-4(7)5(8)9/h4,6-7H,2-3H2,1H3,(H,8,9)	InChI=1S/C5H11NO3/c1-6-3-2-4(7)5(8)9/h4,6-7H,2-3H2,1H3,(H,8,9)/t4-/m1/s1
