22
gdb 97419	3.90622	0.77408	0.70343	2.725	88.01	-0.2423	0.0292	0.2715	1706.9232	0.19258	-404.338843	-404.328736	-404.327792	-404.375057	36.333	
C	-0.3185491914	 1.5211113909	 0.3072837403	-0.313994
N	-0.0403403786	 0.1386642234	-0.0189975542	-0.211926
C	-1.0257076194	-0.6211594387	-0.1990563267	 0.125033
O	-0.850692231	-1.9132865032	-0.5425474039	-0.207045
C	-1.999801729	-2.7445709665	-0.5729456221	 0.147925
C	-1.8845060457	-3.9643363774	-1.5032248412	-0.257034
C	-2.5906922916	-4.8095031332	-0.4055630681	-0.227997
C	-2.252094042	-3.6986015083	 0.6366860345	-0.028354
C	-1.0159616344	-3.9866764202	 1.4833623016	-0.387346
H	 0.1254153485	 2.1760321052	-0.4514534548	 0.126994
H	-1.3930369142	 1.7591307531	 0.3801824293	 0.093562
H	 0.1546886581	 1.7769459668	 1.2623007482	 0.12612
H	-2.0811571043	-0.3141503455	-0.1141220087	 0.070909
H	-2.8878710077	-2.1404517289	-0.7967586851	 0.080168
H	-2.3505109256	-3.8939428424	-2.4881458105	 0.102129
H	-0.8369948068	-4.2479427443	-1.6283815309	 0.124581
H	-3.664996886	-4.9082449298	-0.5800724459	 0.10239
H	-2.1784329454	-5.8012835458	-0.2066462954	 0.103729
H	-3.0812780777	-3.3968654091	 1.2842006094	 0.066934
H	-0.1663817008	-4.2993900413	 0.868547451	 0.124775
H	-0.702603009	-3.1009880258	 2.0440889803	 0.126477
H	-1.2271325261	-4.7871310991	 2.2000921028	 0.111972
28.3762	85.0729	89.217	178.1629	199.3227	228.0544	230.0582	308.0377	339.0082	343.5123	407.518	493.1512	619.9144	693.8933	779.3073	816.4083	882.1468	915.6281	948.4358	972.1264	984.6026	1017.905	1062.448	1069.1065	1106.5024	1141.5167	1152.0923	1167.5316	1175.354	1214.2817	1242.2574	1254.403	1261.2336	1286.4198	1292.0926	1362.4271	1378.3255	1414.2093	1426.3204	1451.2537	1480.3503	1480.6398	1494.4471	1496.8019	1500.1745	1505.7339	1777.3432	2962.2227	2979.7008	3023.4729	3037.3073	3050.3727	3055.381	3065.2377	3073.2479	3074.8744	3105.296	3110.2391	3112.3123	3130.2152
CN=COC1CCC1C	CN=CO[C@H]1CC[C@H]1C	
InChI=1S/C7H13NO/c1-6-3-4-7(6)9-5-8-2/h5-7H,3-4H2,1-2H3	InChI=1S/C7H13NO/c1-6-3-4-7(6)9-5-8-2/h5-7H,3-4H2,1-2H3/t6-,7+/m1/s1
