21
gdb 107473	2.12068	1.66047	1.30359	1.9508	78.75	-0.2349	0.0688	0.3037	1109.6199	0.179908	-424.183286	-424.173654	-424.17271	-424.217347	36.705	
C	 0.0431762329	 1.3512550436	 0.2088039229	-0.257383
O	 0.0061181387	-0.0081730514	-0.1920923068	-0.2764
C	-1.244364977	-0.572815388	-0.1327171392	 0.45237
C	-1.7975055359	-1.1558104465	 1.1445087055	-0.357305
C	-1.5651119321	-2.0490651903	-0.0545370115	-0.139122
C	-2.7186992708	-1.870281138	-1.0494241061	-0.280677
C	-2.3600807604	-0.3414870087	-1.1801695793	 0.315813
C	-3.4614182059	 0.6728523323	-0.893708276	-0.460501
O	-1.7160075802	-0.0511823626	-2.4100529618	-0.472921
H	 1.0928535407	 1.6538717292	 0.2085483943	 0.125441
H	-0.5094577522	 1.9915410038	-0.490851076	 0.120545
H	-0.3700531302	 1.4845820885	 1.2189210426	 0.105299
H	-1.0520482204	-1.2459291804	 1.9281573807	 0.1172
H	-2.8053645919	-0.9536952315	 1.5003929041	 0.099862
H	-0.8854384154	-2.8905162488	-0.0161123289	 0.094527
H	-2.5507361361	-2.3745281916	-2.0031756046	 0.104507
H	-3.7177817751	-2.1150612151	-0.6720184538	 0.086088
H	-3.9179945044	 0.5129639748	 0.0867237471	 0.119216
H	-3.0678396238	 1.6929188559	-0.9326281351	 0.123616
H	-4.2601496349	 0.5892337631	-1.6422327925	 0.106096
H	-2.3943400457	-0.0199213082	-3.0936612854	 0.273732
57.227	134.109	188.5961	215.0734	221.9834	262.033	292.4239	306.9741	361.23	430.9442	441.5458	456.9786	515.6666	641.4682	665.259	807.4142	838.8723	865.7333	920.5309	951.0401	965.8881	987.9042	1015.5874	1027.1033	1068.2164	1086.4223	1097.6904	1142.2771	1176.0541	1189.6007	1205.2194	1222.9863	1240.2108	1256.978	1275.0818	1362.1177	1395.1782	1406.4264	1466.1582	1474.9456	1485.5959	1491.5009	1491.9642	1505.9355	1506.5845	2993.4543	3022.6512	3038.2345	3053.8285	3090.568	3103.8122	3112.9792	3118.8715	3121.0419	3192.8795	3203.3768	3799.8936
COC12CC1CC2(C)O	CO[C@]12C[C@H]1C[C@]2(C)O	
InChI=1S/C7H12O2/c1-6(8)3-5-4-7(5,6)9-2/h5,8H,3-4H2,1-2H3	InChI=1S/C7H12O2/c1-6(8)3-5-4-7(5,6)9-2/h5,8H,3-4H2,1-2H3/t5-,6+,7-/m1/s1
