19
gdb 109043	3.04846	1.28727	1.04494	1.9904	76.46	-0.2441	-0.0065	0.2377	1194.8435	0.159219	-423.014014	-423.005467	-423.004523	-423.047444	32.497	
C	 0.0707677862	 1.5436164935	 0.2056961043	-0.378691
C	-0.038461579	 0.0409478295	-0.1102648947	-0.28225
C	-1.4480178656	-0.464329381	-0.1123710978	 0.283451
C	-2.1408331518	-0.9752701972	-1.1366688562	-0.217518
C	-3.4693086182	-1.4816753888	-0.6782442202	 0.010005
O	-3.3641412989	-2.5503282091	 0.3092619801	-0.2728
C	-3.5658972678	-1.202195307	 0.7549486418	-0.005415
C	-2.2498380381	-0.5544914568	 1.194997987	 0.025842
O	-1.5739193778	-1.315832529	 2.1839893447	-0.432166
H	 1.1171094805	 1.8628229598	 0.1964296434	 0.117134
H	-0.4736827992	 2.141401194	-0.5320740857	 0.118387
H	-0.3370348628	 1.7749329687	 1.1944590384	 0.126345
H	 0.4285020045	-0.168681194	-1.0786939645	 0.101139
H	 0.5228379578	-0.5207866109	 0.6471583909	 0.122112
H	-1.7851552144	-1.0727477837	-2.1559769582	 0.100261
H	-4.3290708036	-1.5591747583	-1.335623615	 0.10197
H	-4.493602543	-1.0132412513	 1.2869008883	 0.10079
H	-2.4213308687	 0.4317074756	 1.6408187352	 0.091137
H	-1.60925971	-2.2292675338	 1.868180198	 0.290266
63.5287	118.4942	172.2058	196.4641	264.9412	272.881	391.6541	483.2836	490.253	532.4274	598.9037	680.9051	712.4094	788.407	807.6912	848.8573	880.6792	890.4936	909.5712	971.0996	991.197	1051.7198	1068.1047	1077.8085	1090.2933	1114.5254	1194.0023	1248.7444	1265.3296	1269.0034	1289.99	1307.2364	1352.8156	1356.8129	1409.9571	1420.9178	1430.1168	1474.8419	1500.0962	1505.6178	1696.2533	3028.478	3038.8456	3051.4537	3070.1998	3110.9816	3112.5402	3156.8172	3173.8214	3198.3772	3756.8293
CCC1=CC2OC2C1O	CCC1=C[C@H]2O[C@H]2[C@H]1O	
InChI=1S/C7H10O2/c1-2-4-3-5-7(9-5)6(4)8/h3,5-8H,2H2,1H3	InChI=1S/C7H10O2/c1-2-4-3-5-7(9-5)6(4)8/h3,5-8H,2H2,1H3/t5-,6+,7-/m1/s1
