20
gdb 6386	4.48834	0.94953	0.88829	3.7423	71.95	-0.2438	-0.0092	0.2345	1359.9085	0.17348	-386.163763	-386.153518	-386.152574	-386.199537	35.628	
C	 0.157412958	 1.6848522139	-0.1620905448	-0.398424
C	 0.0534404516	 0.1581632316	-0.0530940643	 0.051669
C	 0.7156796174	-0.532035374	-1.2459255054	-0.084769
O	 0.0565900004	-0.1105547032	-2.4301235488	-0.421258
C	 0.653362389	-0.3632776759	 1.2573038767	-0.318746
C	-0.1708228679	-0.0444978519	 2.5017560948	 0.385408
C	 0.5171136317	-0.2878943215	 3.8342831227	-0.472685
O	-1.3074356847	 0.3640141308	 2.4378274187	-0.292974
H	 1.2047195251	 2.0099375063	-0.109981657	 0.096829
H	-0.2515046254	 2.0250744967	-1.1155998661	 0.134456
H	-0.3938914309	 2.1708625605	 0.6462752647	 0.128044
H	-1.0081134872	-0.1141104381	-0.0642142912	 0.104456
H	 1.7885682681	-0.2745373227	-1.2757617299	 0.078265
H	 0.6455252188	-1.6258663093	-1.1247927363	 0.07892
H	 0.5201310523	-0.4852696791	-3.1841921089	 0.286563
H	 0.750924315	-1.4600311532	 1.2316959932	 0.117196
H	 1.6762965259	 0.0104430258	 1.404659208	 0.109554
H	 0.9888439781	-1.2760083947	 3.8601786752	 0.132867
H	 1.3170251039	 0.4490831802	 3.9737924158	 0.142053
H	-0.2028649191	-0.1940754221	 4.6480876627	 0.142578
45.9647	73.0911	114.9856	124.6544	157.9268	235.0104	242.3875	268.5823	321.2681	336.0563	420.3058	478.9466	508.7108	603.0291	809.3829	824.3077	857.275	929.4012	949.1461	969.138	1001.4835	1077.2281	1105.4737	1139.5277	1163.8655	1180.1749	1239.4065	1252.1825	1276.6832	1307.8784	1373.3691	1380.021	1389.8558	1401.9235	1446.5359	1461.2329	1464.3324	1477.4647	1497.5051	1506.6787	1519.801	1812.4099	2948.0999	2976.4333	2996.9698	3025.3971	3032.2737	3036.1086	3059.3046	3096.6583	3106.979	3137.8042	3151.7408	3836.415
CC(CO)CC(C)=O	C[C@@H](CO)CC(=O)C	
InChI=1S/C6H12O2/c1-5(4-7)3-6(2)8/h5,7H,3-4H2,1-2H3	InChI=1S/C6H12O2/c1-5(4-7)3-6(2)8/h5,7H,3-4H2,1-2H3/t5-/m1/s1
