22
gdb 65094	3.03423	1.32	1.19422	1.518	85.54	-0.2279	0.0874	0.3152	1167.9958	0.194609	-367.157835	-367.149185	-367.148241	-367.191009	34.326	
C	-0.088179065	 1.4455125405	 0.3106639024	-0.471711
C	 0.0118833329	-0.0397995071	 0.0056993072	 0.24585
C	 1.0880463275	-0.4792506974	-0.9600927428	-0.303933
C	 1.2327475737	-0.7859326215	 0.5084297208	-0.294563
C	-1.2900737798	-0.7725102501	 0.0564955971	 0.305456
C	-1.794326315	-1.7134062924	-0.9666160398	-0.286756
N	-2.4916378907	-0.4208517043	-0.8263105131	-0.171616
C	-3.374117851	-0.5860424802	 0.3805554907	-0.148492
C	-2.1693396905	-0.8710540488	 1.3121747264	-0.31336
H	 0.8949438001	 1.9231902483	 0.2581841754	 0.10997
H	-0.7499947727	 1.9381193361	-0.4086073825	 0.13561
H	-0.4871612313	 1.6265039135	 1.315188135	 0.112671
H	 0.8896940758	-1.305849438	-1.631892899	 0.110205
H	 1.7169491826	 0.2948887932	-1.3865096319	 0.11131
H	 1.9636227708	-0.2307018991	 1.0868590584	 0.109194
H	 1.1055376	-1.8168882282	 0.8214771787	 0.110028
H	-1.2494176651	-1.7944113659	-1.9010422513	 0.119481
H	-2.3090108436	-2.6249873355	-0.6637488297	 0.101348
H	-3.890152943	 0.3512449117	 0.5982457602	 0.108792
H	-4.1184057462	-1.3821196888	 0.2683712564	 0.100986
H	-2.1423744442	-1.8251535358	 1.84724257	 0.098318
H	-1.9918474052	-0.06714384	 2.0285477713	 0.111211
54.2929	152.0451	212.4529	226.8217	277.8576	293.6727	334.8881	428.4353	473.5721	486.6458	567.56	743.0797	775.7009	783.8898	800.7454	813.8461	867.7154	890.1577	926.9052	949.0238	954.8376	971.8742	1000.8993	1039.2806	1067.5909	1083.2043	1084.1957	1107.1991	1121.1689	1131.331	1179.4808	1192.1523	1203.8405	1220.1409	1264.7182	1269.8701	1310.2693	1329.8245	1411.077	1417.9096	1465.1023	1483.4309	1492.3819	1495.4583	1500.2904	1508.8476	1519.8172	3029.8533	3041.2134	3055.3308	3090.0437	3092.1096	3101.6192	3108.8691	3122.4038	3127.9788	3138.2072	3196.2106	3208.5945	3225.5974
CC1(CC1)C12CN1CC2	CC1(CC1)[C@]12CN1CC2	
InChI=1S/C8H13N/c1-7(2-3-7)8-4-5-9(8)6-8/h2-6H2,1H3	InChI=1S/C8H13N/c1-7(2-3-7)8-4-5-9(8)6-8/h2-6H2,1H3/t8-,9?/m0/s1
