20
gdb 76795	1.99983	1.7828	1.16613	2.3332	74.72	-0.2339	0.0503	0.2842	1118.3206	0.170086	-440.240713	-440.231325	-440.230381	-440.274726	35.431	
C	-0.7710811942	 1.1868200303	-0.1278324826	-0.408971
C	-0.0254981853	-0.1394713334	-0.102292623	-0.077448
C	 1.2867732101	-0.282018758	-0.9265243156	 0.039013
O	 1.9029073621	 0.9857576115	-1.0969488601	-0.433111
C	 1.9372521543	-1.0560994944	 0.2741349346	 0.069757
O	 3.2493106013	-0.6905325424	 0.6056988132	-0.437184
C	 0.7785921988	-0.5515494536	 1.1454814281	 0.300986
C	 0.896602784	 0.1803392219	 2.4251377969	-0.307082
N	 0.3164523317	-1.1800139936	 2.3758415603	-0.377416
H	-0.0934681998	 2.0209110885	 0.0659534203	 0.135059
H	-1.2425194524	 1.3547034609	-1.1014765594	 0.118702
H	-1.5644365053	 1.200743561	 0.6281571159	 0.108192
H	-0.7014315683	-0.956486936	-0.384534271	 0.079435
H	 1.2062533742	-0.8116615006	-1.8826692429	 0.064239
H	 2.730697032	 0.8392921878	-1.5671309471	 0.291622
H	 1.9228263818	-2.142301778	 0.1484913183	 0.093958
H	 3.2555646955	 0.2755243299	 0.6095797024	 0.277405
H	 1.8630061408	 0.2396341695	 2.9182558936	 0.12391
H	 0.2381686315	 1.027531644	 2.5987633854	 0.112339
H	-0.6989397928	-1.1224180454	 2.4338707225	 0.226596
57.7977	151.7037	200.2076	205.2546	214.7775	230.7976	252.4417	277.4635	407.2277	478.2626	514.104	549.6111	588.5744	657.567	773.2784	813.8756	835.4296	876.0679	931.3529	944.8745	979.5375	991.4716	1011.4722	1069.0453	1118.5463	1128.0086	1140.8964	1165.3012	1169.9948	1220.5512	1250.2577	1266.2775	1278.1418	1292.511	1322.816	1367.2552	1397.4098	1403.1483	1429.135	1444.0141	1491.8732	1498.7207	1509.6168	3022.0527	3033.1609	3037.7954	3080.9528	3094.1019	3105.8586	3130.2616	3193.0555	3474.6286	3768.3663	3812.1096
CC1C(O)C(O)C11CN1	C[C@H]1[C@@H](O)[C@@H](O)[C@]21CN2	
InChI=1S/C6H11NO2/c1-3-4(8)5(9)6(3)2-7-6/h3-5,7-9H,2H2,1H3	InChI=1S/C6H11NO2/c1-3-4(8)5(9)6(3)2-7-6/h3-5,7-9H,2H2,1H3/t3-,4+,5+,6+/m0/s1
