23
gdb 69589	3.10218	1.27065	1.17709	0.2147	89.77	-0.238	0.0911	0.3291	1203.6445	0.207118	-351.153299	-351.144865	-351.14392	-351.185692	34.678	
C	-0.0440100832	 1.5002114559	-0.0013850035	-0.480311
C	 0.0204420605	-0.0081184551	 0.0069391314	 0.362622
C	-0.8014134015	-0.7865611894	 1.0090309951	-0.348559
C	 0.7102722717	-0.7969515959	 1.1035644397	-0.144959
C	 1.4311913213	-1.9559186173	 0.4673247074	 0.414191
C	 2.9180911803	-2.1118928335	 0.6760945414	-0.319129
C	 1.9553848558	-3.1244443214	 1.2565401776	-0.323276
C	 0.8104022142	-2.1338348665	-0.9206057135	-0.322959
C	 0.3234464192	-0.7190316193	-1.3118766076	-0.26412
H	 0.87740773	 1.9351303785	-0.4071600735	 0.111991
H	-0.8772410943	 1.8604843071	-0.617173542	 0.113952
H	-0.1859411965	 1.8994470967	 1.0081269888	 0.11109
H	-1.3341547362	-0.2059264436	 1.7553250766	 0.102564
H	-1.3205775258	-1.6904365759	 0.7059303678	 0.105353
H	 1.1779081436	-0.2973311831	 1.9465238717	 0.07236
H	 3.5262832497	-2.4123940511	-0.1713630203	 0.105643
H	 3.4169358888	-1.4320987301	 1.3598569671	 0.106277
H	 1.804568963	-3.1269980047	 2.331191144	 0.10811
H	 1.9164674229	-4.1096751188	 0.8020468025	 0.105033
H	 1.5150425009	-2.5520789011	-1.644914315	 0.094968
H	-0.0367670498	-2.8273753081	-0.86982589	 0.102585
H	-0.5353511027	-0.745690581	-1.9923338867	 0.091031
H	 1.1241336478	-0.1723752525	-1.8261938787	 0.095542
107.4067	188.9386	219.3831	231.1516	317.1295	333.5187	362.5127	385.7283	453.4753	527.9907	562.4652	683.6373	749.7884	778.3184	818.3989	848.5698	894.4347	904.9165	922.6109	944.0529	949.5869	969.1737	996.5554	1004.7533	1047.5706	1053.1693	1058.4222	1068.9802	1076.7935	1083.8341	1125.4889	1184.6137	1188.0831	1221.4947	1235.6637	1272.3059	1309.6013	1314.8663	1332.8316	1367.4747	1415.7674	1425.4727	1465.8848	1485.7919	1488.4944	1491.0524	1502.8165	1504.4248	1514.1948	3016.8484	3023.0906	3037.1753	3062.4929	3074.0743	3086.5584	3094.5663	3118.8739	3122.7417	3123.6365	3151.791	3196.5519	3204.4088	3211.7591
CC12CC1C1(CC1)CC2	C[C@]12C[C@H]1C1(CC1)CC2	
InChI=1S/C9H14/c1-8-2-3-9(4-5-9)7(8)6-8/h7H,2-6H2,1H3	InChI=1S/C9H14/c1-8-2-3-9(4-5-9)7(8)6-8/h7H,2-6H2,1H3/t7-,8+/m1/s1
