23
gdb 117076	2.87311	0.85702	0.78095	1.1735	82.15	-0.2388	-0.0098	0.229	1598.8105	0.201588	-425.450414	-425.43887	-425.437926	-425.487676	41.429	
C	 0.0828153637	 1.5384120861	 0.1003985699	-0.39742
C	 0.0020157958	 0.0078771448	-0.0076854919	 0.16111
C	 0.6406216809	-0.6430603851	 1.2344367226	-0.421757
C	-1.4811572868	-0.4229617378	-0.1138504641	-0.410564
C	 0.6985697176	-0.4461876456	-1.3085216301	 0.365816
O	 0.8984450009	 0.3318679542	-2.2165435586	-0.322212
C	 1.1038426004	-1.9073928934	-1.4428142931	-0.293324
C	 1.5179184584	-2.2789292115	-2.8593810226	-0.076582
O	 1.8807980027	-3.6527001065	-2.8408299796	-0.426703
H	 1.1206421507	 1.8729932887	 0.1922637105	 0.114215
H	-0.3379082104	 2.0164634955	-0.7859520276	 0.131138
H	-0.4663510132	 1.8825270935	 0.982767134	 0.102624
H	 0.1423407055	-0.2791979794	 2.1390600977	 0.117159
H	 0.550127567	-1.7328746508	 1.2264526464	 0.119478
H	 1.7028883747	-0.3898958762	 1.3181742935	 0.118405
H	-1.9612824272	 0.0321099175	-0.9855687513	 0.127983
H	-1.5894504064	-1.509266575	-0.1915326482	 0.116925
H	-2.0247284637	-0.0989639489	 0.7799085117	 0.119722
H	 1.9389768238	-2.105391616	-0.7584982228	 0.136795
H	 0.2922882556	-2.5630546174	-1.1067917669	 0.128044
H	 0.6841184064	-2.088718197	-3.5511742975	 0.096653
H	 2.3514170023	-1.6394387381	-3.1788815264	 0.105658
H	 2.169179781	-3.8954960413	-3.7253177655	 0.286837
31.6918	75.3044	95.3767	138.8263	192.7176	224.1433	255.585	266.7107	271.0856	286.8554	302.6215	355.2816	370.2801	398.5053	472.5282	572.9678	593.0193	775.427	809.6433	849.3333	935.8764	944.7945	962.5155	983.9185	1013.3436	1046.6737	1066.0021	1083.5271	1101.8009	1203.4403	1226.695	1240.1984	1252.8591	1278.2012	1301.4366	1351.9555	1394.6623	1399.4512	1430.4831	1448.1575	1465.6477	1477.525	1483.5946	1486.7259	1500.3932	1505.694	1518.0425	1522.5897	1786.5407	2994.3758	3029.9837	3030.9604	3032.4422	3038.0841	3042.6597	3076.8055	3097.2652	3100.4387	3107.0208	3108.2659	3110.9877	3135.1973	3831.8122
CC(C)(C)C(=O)CCO	CC(C)(C)C(=O)CCO	
InChI=1S/C7H14O2/c1-7(2,3)6(9)4-5-8/h8H,4-5H2,1-3H3	InChI=1S/C7H14O2/c1-7(2,3)6(9)4-5-8/h8H,4-5H2,1-3H3
