20
gdb 72308	2.23544	2.01083	1.52764	0.8206	86.46	-0.2036	-0.0315	0.172	993.5883	0.169816	-365.905547	-365.897195	-365.896251	-365.937635	33.21	
C	 0.0462379775	 1.4469502668	 0.0619814177	-0.468574
C	-0.1242053747	-0.0322115639	-0.1667662219	 0.287839
C	 0.8056870092	-0.7497180766	-1.1696276862	-0.313573
C	 0.2909540236	-2.1730120946	-1.0483984117	-0.1237
C	-0.8838039986	-2.1518550526	-0.3797384499	-0.023584
C	-0.7570995563	-2.2540856417	 1.139558122	-0.17888
N	-0.7289243903	-0.7205321625	 1.11574992	-0.229722
C	-1.4222487664	-0.7230158016	-0.2089171887	 0.273187
C	-2.8119017713	-0.2186958064	-0.4417657069	-0.514778
H	 1.012869025	 1.658283143	 0.5321581333	 0.124622
H	 0.0167031563	 1.9819472922	-0.894445547	 0.116604
H	-0.7363147635	 1.8464115452	 0.7094766827	 0.133444
H	 0.735233035	-0.2376967903	-2.1416179264	 0.111657
H	 1.8666030795	-0.737959873	-0.8898567829	 0.113565
H	 1.0007946135	-2.9843544951	-0.9085351479	 0.092809
H	-1.6456742651	-2.5281851948	 1.717340447	 0.11326
H	 0.1285100265	-2.7572706577	 1.5376470641	 0.107434
H	-2.9377783336	 0.7839329105	-0.0226481733	 0.127122
H	-3.0339786706	-0.1743042439	-1.5136828403	 0.125362
H	-3.5529467457	-0.8772231527	 0.0241605963	 0.125907
171.8797	179.4033	203.1839	215.9386	265.918	300.2428	321.0883	438.8419	483.2056	529.1342	584.3168	614.0258	707.2528	732.3049	801.432	807.5238	873.5421	899.1444	915.7591	951.795	992.203	1036.011	1046.8933	1076.7321	1108.1704	1112.6985	1117.4969	1175.1422	1202.0807	1221.255	1259.9079	1295.8245	1316.4838	1406.0819	1409.5543	1436.8496	1464.9748	1479.1988	1487.4412	1492.5314	1500.6374	1509.8844	1579.5918	2988.4629	3030.54	3032.701	3039.0414	3047.645	3089.216	3093.1831	3101.796	3110.0906	3132.122	3152.0247
CC12CC=C3CN1C23C	C[C@@]12C[CH][C]3CN1[C@@]23C	
InChI=1S/C8H11N/c1-7-4-3-6-5-9(7)8(6,7)2/h3H,4-5H2,1-2H3	InChI=1S/C8H11N/c1-7-4-3-6-5-9(7)8(6,7)2/h3H,4-5H2,1-2H3/t7-,8+,9?/m0/s1
