18
gdb 7968	3.48341	1.64664	1.19088	3.9776	76.02	-0.2298	-0.0366	0.1932	1034.7519	0.153381	-347.860285	-347.85206	-347.851115	-347.893104	30.242	
C	-0.1201124764	 1.5621761489	 0.0481857601	-0.396213
C	 0.0770782328	 0.0469382928	-0.0354720414	-0.09276
C	 0.9245604897	-0.4591060699	-1.2210831656	-0.324246
C	 1.9814735382	-1.3507363291	-0.6019405012	 0.327506
C	 2.9656129136	-2.0800983767	-1.4554229157	-0.4854
C	 1.9015364023	-1.3640069408	 0.7385405921	-0.286392
C	 0.8024082575	-0.5032760833	 1.2111972977	 0.392901
O	 0.5027201634	-0.2496321126	 2.3569718579	-0.350887
H	 0.8426324062	 2.0846643075	 0.0193849388	 0.115749
H	-0.7308988875	 1.9327841601	-0.780671738	 0.111185
H	-0.6125440747	 1.8189866765	 0.9897360254	 0.140924
H	-0.9092851906	-0.4334909431	-0.0519489259	 0.103267
H	 0.3367200972	-1.0077455065	-1.9674134043	 0.112674
H	 1.4016100704	 0.3679770213	-1.7646971413	 0.115553
H	 3.5404519019	-1.3768114068	-2.0710509355	 0.137993
H	 3.6652467133	-2.6721828263	-0.8610971938	 0.134612
H	 2.4494019743	-2.749990156	-2.1545723451	 0.137632
H	 2.5504378385	-1.9057472961	 1.4158524259	 0.105902
59.3558	137.3469	177.6758	223.1865	246.1918	289.9482	375.985	441.8817	501.075	555.412	615.2891	708.0645	780.5326	868.2608	879.1603	909.107	927.931	1015.1974	1026.5728	1045.6683	1112.3589	1127.9562	1154.2678	1185.9275	1213.3836	1263.4487	1295.7721	1336.1423	1344.6434	1403.4229	1410.4166	1473.6131	1477.6513	1479.3466	1495.5442	1500.5364	1680.7409	1805.8593	3015.7135	3023.5501	3028.0663	3034.4008	3050.9908	3070.8801	3100.5242	3122.5477	3123.1026	3211.6299
CC1CC(C)=CC1=O	C[C@H]1CC(=CC1=O)C	
InChI=1S/C7H10O/c1-5-3-6(2)7(8)4-5/h4,6H,3H2,1-2H3	InChI=1S/C7H10O/c1-5-3-6(2)7(8)4-5/h4,6H,3H2,1-2H3/t6-/m0/s1
