14
gdb 15029	2.59309	1.85509	1.21703	2.5606	63.84	-0.2563	-0.0389	0.2174	963.8301	0.103829	-382.480225	-382.471951	-382.471007	-382.514146	28.518	
O	-0.1831734911	 0.1986445008	 0.3779685671	-0.238271
C	-0.0083129386	 1.3319840275	 0.0234883151	 0.163581
C	 1.3901456546	 1.9662559279	-0.098430828	-0.288836
C	 1.4618401481	 2.8115215381	-1.2809427592	 0.3122
C	 1.4768876188	 3.4880333593	-2.2739930114	-0.441399
C	 1.6756099507	 2.7052228298	 1.2149028307	 0.079788
C	 2.4243633978	 3.9633902111	 1.2834852177	-0.187266
O	 0.9996662456	 3.9381400759	 1.4257004655	-0.226747
H	-0.8449194767	 2.0199206521	-0.2150018963	 0.112588
H	 2.1024328986	 1.1351034505	-0.1691614893	 0.13312
H	 1.5008190227	 4.0864813407	-3.1513985362	 0.207936
H	 1.68710558	 2.0376439926	 2.0771010596	 0.116609
H	 2.979019635	 4.2037527462	 2.1887708664	 0.123202
H	 2.7874686644	 4.4154762276	 0.3637962983	 0.133495
37.3817	75.0615	139.4963	169.9478	225.9667	343.2194	387.7303	478.6122	509.3599	638.0734	647.402	653.6294	773.4783	871.0984	934.3347	967.6787	1000.7816	1041.095	1098.9727	1116.418	1165.1058	1173.4907	1232.8706	1283.0104	1318.2234	1408.42	1414.8199	1520.0745	1835.0722	2238.4549	2930.6149	3044.749	3096.1785	3111.2116	3192.5585	3501.013
O=CC(C#C)C1CO1	O=C[C@@H](C#C)[C@H]1CO1	
InChI=1S/C6H6O2/c1-2-5(3-7)6-4-8-6/h1,3,5-6H,4H2	InChI=1S/C6H6O2/c1-2-5(3-7)6-4-8-6/h1,3,5-6H,4H2/t5-,6-/m1/s1
