17
gdb 51821	3.75492	1.0011	0.89146	3.4336	70.7	-0.2493	0.014	0.2633	1288.4674	0.137815	-455.178315	-455.16998	-455.169036	-455.212872	29.769	
O	-0.1774838383	-0.0068439508	 0.2563162992	-0.315745
C	-0.0574398294	 1.1807140811	 0.0500284766	 0.154346
N	 1.1256950382	 1.8208367303	-0.1737041329	-0.291828
C	 2.410395085	 1.1453542596	-0.1550365471	-0.017963
C	 2.921192764	 0.8816043254	-1.5750851561	-0.078884
O	 4.2136003294	 0.2653042715	-1.5519674213	-0.219857
C	 5.0534980772	 0.696384229	-0.5797931699	 0.138203
N	 4.8276261891	 1.4618333794	 0.4002356503	-0.270405
C	 3.4699001377	 1.9530406647	 0.6039858325	-0.171303
H	-0.9140667288	 1.8827174272	 0.0244755554	 0.080639
H	 1.1058771067	 2.8171564164	-0.3299099395	 0.248992
H	 2.2467156696	 0.1837873922	 0.3382979389	 0.139972
H	 2.2614536111	 0.1988301763	-2.1137089701	 0.138913
H	 2.9874554446	 1.8237244917	-2.1366849644	 0.105214
H	 6.0432021544	 0.2719682898	-0.7361993045	 0.12986
H	 3.4302115799	 3.0090809401	 0.2960938863	 0.103689
H	 3.2548782594	 1.9406771061	 1.6777582865	 0.126157
20.8291	104.8103	164.8982	175.6154	230.3947	375.7987	412.6162	462.9736	489.8858	518.2431	523.4459	762.1025	827.7716	899.5877	933.4208	965.2194	978.3013	989.4928	1030.4336	1081.7036	1129.787	1136.8164	1174.4455	1205.7515	1233.9392	1291.0601	1322.9799	1352.2959	1370.3354	1405.3902	1420.9662	1430.1107	1483.6313	1506.9982	1522.6253	1739.5459	1807.3518	2941.3956	2992.4148	3015.729	3063.3532	3095.5411	3118.2352	3165.779	3619.663
O=CNC1COC=NC1	O=CN[C@H]1COC=NC1	
InChI=1S/C5H8N2O2/c8-3-7-5-1-6-4-9-2-5/h3-5H,1-2H2,(H,7,8)	InChI=1S/C5H8N2O2/c8-3-7-5-1-6-4-9-2-5/h3-5H,1-2H2,(H,7,8)/t5-/m1/s1
