22
gdb 58191	2.68716	1.03053	0.90132	4.7815	83.19	-0.2296	0.0266	0.2562	1402.3269	0.193068	-400.520118	-400.509255	-400.508311	-400.555669	39.607	
C	-0.158016048	 1.6463705788	 0.0491627414	-0.42032
C	-0.0401809162	 0.1187026895	-0.0643273047	 0.034707
C	-1.4307611401	-0.5942549636	 0.0326133651	-0.124083
N	-1.3731652673	-2.0542852578	-0.0756526431	-0.51279
C	-2.1096648588	-0.2216362207	 1.2791626592	 0.293597
N	-2.6134002803	 0.0760092252	 2.2756903027	-0.329977
N	 0.6427562199	-0.3772133349	-1.2671797403	-0.057223
C	 0.2072449793	 0.2175788274	-2.5252197515	-0.33628
C	 2.0939832201	-0.3776336632	-1.1542529558	-0.330027
H	 0.8195701801	 2.1220606782	-0.0732973198	 0.122937
H	-0.8308255144	 2.0576510284	-0.7100335139	 0.122396
H	-0.5484599056	 1.9295006099	 1.0297272599	 0.148624
H	 0.5465749596	-0.2480176568	 0.7861681902	 0.086959
H	-2.0581305012	-0.2222520544	-0.7895663387	 0.127651
H	-0.6767383938	-2.2498005514	-0.793804789	 0.236438
H	-1.0054593512	-2.4411146871	 0.7900295397	 0.233973
H	 0.5236669654	 1.2670144364	-2.65238972	 0.106312
H	 0.6261809102	-0.3587789367	-3.3561124697	 0.125522
H	-0.8818537525	 0.1796973216	-2.6156155596	 0.124495
H	 2.3996302682	-0.9141713403	-0.2513222596	 0.122528
H	 2.5244926906	-0.8959674076	-2.0173178269	 0.122867
H	 2.5378624959	 0.633882679	-1.1201753555	 0.101695
68.5772	87.2095	138.5364	207.8599	221.9692	239.9718	246.4394	261.4426	281.5336	288.879	310.8663	398.0198	410.2222	470.4805	519.0206	561.1764	599.8524	796.1931	842.4889	917.6299	945.5084	980.6575	1063.603	1072.0234	1075.7185	1121.5937	1122.754	1164.1919	1190.5627	1205.8145	1221.6216	1300.7368	1309.2969	1350.7989	1393.5449	1403.8089	1414.6198	1448.3961	1477.6335	1481.7421	1492.3813	1493.7279	1503.7709	1510.3817	1521.2074	1661.8036	2359.8147	2943.7532	2961.7729	3011.0878	3040.0156	3044.6758	3060.608	3067.221	3105.9934	3109.4886	3112.0021	3126.0524	3461.9343	3546.3976
CC(C(N)C#N)N(C)C	C[C@@H]([C@@H](N)C#N)N(C)C	
InChI=1S/C6H13N3/c1-5(9(2)3)6(8)4-7/h5-6H,8H2,1-3H3	InChI=1S/C6H13N3/c1-5(9(2)3)6(8)4-7/h5-6H,8H2,1-3H3/t5-,6-/m0/s1
