19
gdb 83212	2.58005	1.49415	1.23322	4.0913	78.85	-0.2343	0.0353	0.2696	1081.1358	0.160936	-382.065633	-382.057225	-382.056281	-382.098855	31.429	
C	-0.0497299715	 1.5476373201	-0.4833334942	-0.329755
N	 0.0964675269	 0.1518868051	-0.104662041	-0.075564
C	 1.3073783423	-0.6335388164	-0.2524428837	-0.034312
C	 2.6650482372	 0.0476550822	-0.3785818123	-0.241462
C	 2.8084347	 0.9887810139	 0.842865985	-0.249102
C	 1.742024755	 0.5143290277	 1.8795268304	-0.153205
C	 1.1389983391	 1.6134187703	 2.6334020454	 0.271705
N	 0.6614652851	 2.4844195314	 3.2251398234	-0.333596
C	 0.7281028912	-0.3366663218	 1.0990904752	-0.04784
H	 0.8553175645	 2.1648954272	-0.4124759301	 0.10792
H	-0.3986977997	 1.5851538997	-1.5201038555	 0.127614
H	-0.816972464	 2.0034185452	 0.1482471914	 0.147672
H	 1.1806119756	-1.5976360608	-0.7401247463	 0.094578
H	 3.4408938848	-0.7253724348	-0.3700145675	 0.112461
H	 2.7744326807	 0.5922710675	-1.3225621525	 0.114754
H	 3.8099343653	 0.9496196579	 1.2771867308	 0.119916
H	 2.628727104	 2.0294600686	 0.5695988701	 0.13541
H	 2.2133950988	-0.1528308893	 2.6118709674	 0.129099
H	 0.1503323545	-1.0500474138	 1.681949244	 0.103706
82.5472	109.596	154.9311	183.9572	250.0043	275.0208	421.585	447.5726	502.165	555.0298	683.897	705.6678	744.6385	801.2809	807.8481	876.8914	931.9632	955.6905	1011.3232	1031.9432	1050.7568	1086.7953	1115.7388	1119.7487	1153.682	1172.3119	1195.1787	1237.937	1280.9547	1292.7154	1320.5392	1328.4421	1340.0355	1358.3263	1414.5276	1465.0695	1485.3395	1486.9008	1500.4503	1521.1084	2353.1125	3014.1649	3033.0517	3043.5747	3076.5178	3078.4994	3079.5612	3115.7723	3124.5805	3126.3716	3137.3012
CN1C2CCC(C#N)C12	CN1[C@H]2CC[C@@H](C#N)[C@@H]12	
InChI=1S/C7H10N2/c1-9-6-3-2-5(4-8)7(6)9/h5-7H,2-3H2,1H3	InChI=1S/C7H10N2/c1-9-6-3-2-5(4-8)7(6)9/h5-7H,2-3H2,1H3/t5-,6-,7+,9?/m0/s1
