17
gdb 83931	2.51533	1.52693	1.25401	3.1909	69.66	-0.245	-0.0238	0.2212	1045.2371	0.135708	-458.952053	-458.94408	-458.943136	-458.984683	30.159	
O	-0.0027117313	 1.3867881338	-0.0277595175	-0.421227
C	-0.0377171398	 0.0047582936	 0.0228829134	 0.070752
C	-1.3399077745	-0.7465340773	 0.0515142375	-0.168817
C	-2.6048115551	 0.0368145476	-0.2904581607	-0.2538
C	-2.5227966562	 0.1845430057	-1.8243130841	-0.091177
O	-1.1198704109	 0.1353349634	-2.1454417582	-0.298587
C	-0.5025855313	-0.7306200639	-1.236734202	 0.266317
C	 0.1896970358	-1.9253173057	-1.7553294591	 0.089347
O	 0.2336731303	-2.2633286231	-2.9107731666	-0.266633
H	-0.2449527791	 1.6306906363	-0.9340355179	 0.300727
H	 0.7944351629	-0.4208584153	 0.5779960193	 0.112153
H	-1.4035583863	-1.6525250781	 0.6431023205	 0.108538
H	-3.5053591589	-0.4965794182	 0.0202997781	 0.116725
H	-2.5930656363	 1.0141258074	 0.2014315969	 0.129992
H	-3.0384594047	-0.6420439073	-2.3302170456	 0.119577
H	-2.9126069232	 1.1313762339	-2.2048693673	 0.118991
H	 0.6928333387	-2.5112726328	-0.9498304266	 0.067122
90.56	144.346	193.9508	222.4274	261.9269	322.1728	416.4184	468.0791	567.3938	628.6425	648.2666	699.5316	780.838	787.6615	849.2613	889.9155	952.6508	989.7592	1006.2844	1037.0248	1060.7072	1082.0824	1101.9151	1130.3872	1198.9648	1224.4994	1244.4306	1269.837	1327.0602	1329.5004	1361.4813	1387.1199	1424.3675	1442.3661	1488.7137	1516.6137	1819.7697	2850.1321	3024.0239	3062.308	3106.925	3120.65	3144.8125	3180.3473	3712.8772
OC1C2CCOC12C=O	O[C@H]1[C@H]2CCO[C@@]12C=O	
InChI=1S/C6H8O3/c7-3-6-4(5(6)8)1-2-9-6/h3-5,8H,1-2H2	InChI=1S/C6H8O3/c7-3-6-4(5(6)8)1-2-9-6/h3-5,8H,1-2H2/t4-,5+,6-/m1/s1
