14
gdb 133013	2.84885	1.44227	0.96325	0.5329	70.51	-0.237	-0.0532	0.1838	1132.5279	0.100323	-478.003973	-477.996114	-477.99517	-478.037507	27.84	
C	 0.0111131595	 1.4619688097	-0.0361437989	-0.3268
N	-0.0017025708	 0.0104832449	 0.0056808611	-0.308741
C	 0.5278704692	-0.6572621105	-0.9181378774	 0.414628
O	 1.1494424501	 0.0213016559	-2.0220912128	-0.249636
C	 1.704854056	-0.6942811006	-2.9902765343	 0.412359
F	 2.2127952992	 0.1033301286	-3.894429167	-0.035521
N	 1.7857550158	-1.953790625	-3.115403012	-0.378554
C	 1.200832284	-2.6729157507	-2.0759895013	-0.007111
C	 0.5966424121	-2.0959920271	-1.0200461404	-0.175078
H	 1.0332636325	 1.8617931832	-0.0593722648	 0.129244
H	-0.5068771373	 1.8497606945	-0.9230189628	 0.129344
H	-0.4910364248	 1.8471916242	 0.8534747097	 0.128192
H	 1.2656646645	-3.7503905404	-2.1756674443	 0.133392
H	 0.1464314001	-2.6662277867	-0.2197005949	 0.134282
39.4516	118.282	177.3969	184.1816	258.5198	405.9442	454.4011	478.5187	571.1167	591.7439	708.5272	750.6526	760.2254	838.121	884.2215	984.0932	997.9876	1022.9748	1095.3814	1109.4317	1149.4814	1196.4016	1284.7566	1371.9468	1425.9233	1441.3266	1485.4791	1500.594	1629.1609	1705.584	1788.0488	3007.7503	3059.4437	3116.8537	3200.571	3242.2385
CN=C1OC(F)=NC=C1	CN=c1oc(F)ncc1	
InChI=1S/C5H5FN2O/c1-7-4-2-3-8-5(6)9-4/h2-3H,1H3	InChI=1S/C5H5FN2O/c1-7-4-2-3-8-5(6)9-4/h2-3H,1H3
