18
gdb 78998	3.40001	1.89425	1.73937	1.2226	80.52	-0.1939	-0.012	0.1819	862.3712	0.148986	-364.698332	-364.691625	-364.690681	-364.728871	28.218	
C	 0.1694721806	 1.4985159245	 0.3397264301	-0.416889
C	 0.0190857775	 0.0154995856	 0.0887460609	 0.0461
N	 0.8300742631	-0.6238098692	-1.0697307932	-0.116986
C	 2.281356601	-0.5818019063	-1.093441665	-0.045434
C	 2.964729262	-1.000570781	 0.3909611697	-0.081438
C	 1.9795598077	-0.6368331244	 1.3806066578	-0.101757
C	 0.7455821432	-1.0463340714	 0.945323261	-0.083678
C	 0.9381916291	-1.9222855758	-0.3095900595	-0.010054
C	 2.4416402581	-1.9924006613	-0.604088562	-0.130675
H	 1.2186369766	 1.7888752252	 0.4378452214	 0.125444
H	-0.2744962729	 2.0665707681	-0.4839208861	 0.125128
H	-0.3504957396	 1.7816191697	 1.2605159867	 0.131279
H	-1.0221603904	-0.2308232073	-0.144857166	 0.090366
H	 2.8610969064	 0.0576004778	-1.7422052438	 0.112241
H	 4.030966135	-0.813895071	 0.4551565049	 0.091204
H	 2.1209981522	 0.2410189211	 2.0025989939	 0.090741
H	 0.2423133781	-2.7192239085	-0.5684726844	 0.077737
H	 3.0010644325	-2.8233982158	-1.0123335365	 0.096671
167.4852	209.2629	279.2257	356.6687	487.2457	532.1723	544.3028	603.6854	690.0816	738.7177	745.348	795.9005	835.3416	844.1184	874.1108	892.4268	897.2039	951.6668	976.3929	986.4383	1019.1526	1047.8179	1061.9603	1091.5456	1106.5473	1119.672	1158.4449	1173.1273	1224.1291	1235.1434	1256.395	1266.6652	1328.5365	1370.4403	1389.0169	1410.6062	1489.4224	1496.8612	1518.2697	3040.7484	3046.0158	3107.6571	3115.5135	3122.4197	3171.7624	3186.2936	3201.2915	3234.1316
CC1N2C3C4C=C1C2C34	C[C@H]1N2[C@H]3[C@H]4[CH][C]1[C@@H]2[C@@H]34	
InChI=1S/C8H9N/c1-3-4-2-5-6-7(4)9(3)8(5)6/h2-3,5-8H,1H3	InChI=1S/C8H9N/c1-3-4-2-5-6-7(4)9(3)8(5)6/h2-3,5-8H,1H3/t3-,5+,6+,7-,8+/m1/s1
