16
gdb 5586	3.35167	1.93045	1.24402	2.5846	68.68	-0.1861	0.0339	0.22	959.0194	0.131188	-379.95774	-379.949612	-379.948668	-379.990671	28.67	
C	 0.0415551073	 1.433653334	-0.0088712927	-0.232534
O	 0.0253611312	 0.0123927803	 0.0096215664	-0.278649
C	 0.6045065796	-0.5961427417	-1.049521978	 0.314891
C	 0.6907753447	-1.9602860349	-1.2120207366	 0.187868
C	 0.2276685799	-3.0972141294	-0.3704382305	-0.512755
N	 1.3541916849	-2.0963781091	-2.4242697793	-0.298473
C	 1.619148391	-0.8545854266	-2.9029340003	 0.001775
N	 1.1751713627	 0.0826658364	-2.0888796938	-0.346416
H	 1.065935709	 1.8208872742	-0.026986591	 0.127279
H	-0.4895684376	 1.8275160062	-0.881983237	 0.127449
H	-0.4606378687	 1.7499182146	 0.9073548216	 0.119481
H	-0.4985323837	-3.7368799295	-0.8885659185	 0.123539
H	 1.05344727	-3.7397516569	-0.0384162357	 0.123538
H	-0.2603661674	-2.6987677603	 0.5218281913	 0.153298
H	 1.5939024982	-2.9683284694	-2.8651997378	 0.261837
H	 2.1316520188	-0.6875435279	-3.837923698	 0.127871
61.3799	114.5286	173.6939	196.1842	223.218	302.3939	334.3356	491.8971	528.3688	622.5807	659.7846	730.7692	751.8276	767.9874	950.5707	983.8317	1064.7067	1065.2356	1127.6939	1181.4571	1186.6669	1212.1877	1255.1103	1323.6623	1382.567	1420.9626	1456.6809	1479.9205	1484.1546	1492.3286	1500.1996	1506.9229	1529.2436	1660.6808	3010.15	3027.8725	3051.4631	3091.4698	3126.8346	3133.874	3254.3856	3665.0991
COC1=C(C)NC=N1	COc1c(C)[nH]cn1	
InChI=1S/C5H8N2O/c1-4-5(8-2)7-3-6-4/h3H,1-2H3,(H,6,7)	InChI=1S/C5H8N2O/c1-4-5(8-2)7-3-6-4/h3H,1-2H3,(H,6,7)
