21
gdb 113879	5.04717	0.60028	0.58279	1.1647	89.04	-0.2366	0.0668	0.3034	1999.2402	0.179643	-387.04131	-387.030447	-387.029503	-387.079797	37.334	
C	 0.2927714423	 0.8751620673	-0.7301783841	-0.230095
O	-0.1530105217	 0.1688590719	 0.4098531129	-0.234117
C	-1.3803207552	-0.4602597215	 0.2162238578	 0.102554
C	-1.4224805218	-1.8037896247	-0.4751819522	-0.314322
C	-1.6457869015	-1.6966076773	 1.0199585157	-0.029696
C	-0.5921189432	-2.2188153115	 1.9877810461	-0.376848
C	-0.6926243718	-3.6584724531	 2.2145383357	 0.063746
C	-0.7920867422	-4.8449627728	 2.3942007911	 0.071986
C	-0.9033090563	-6.2800850911	 2.6152026711	-0.496069
H	 1.2539453262	 1.3270136691	-0.4741375384	 0.126847
H	 0.4239883141	 0.2088798809	-1.5946962871	 0.109985
H	-0.4116025475	 1.6724802511	-1.0121361446	 0.106029
H	-2.2088671822	 0.22951781	 0.0442631757	 0.083505
H	-2.2596202604	-2.0431126915	-1.1216448692	 0.109579
H	-0.4698786641	-2.2149434792	-0.7937097957	 0.119755
H	-2.6671843201	-1.8286786974	 1.364313516	 0.093885
H	 0.4011467353	-1.9616492695	 1.6047562377	 0.135555
H	-0.6869058799	-1.6875434715	 2.9443506871	 0.125851
H	 0.0418827945	-6.792221519	 2.4023248787	 0.144049
H	-1.173732691	-6.5059432043	 3.6529046937	 0.14384
H	-1.6704340235	-6.7247546959	 1.971157302	 0.143982
15.9438	36.1113	74.747	109.4948	153.0359	197.8779	207.8305	254.8146	289.5753	354.6671	383.6053	453.819	498.6674	573.4422	763.0715	793.1473	827.7135	883.808	886.4343	1010.6955	1018.6447	1052.535	1053.7609	1054.5522	1091.8802	1126.5063	1142.711	1165.0077	1173.4429	1184.4376	1222.212	1249.5458	1260.6513	1321.9045	1380.5057	1414.7552	1415.6644	1468.5489	1478.1517	1479.7244	1480.175	1485.6631	1492.8	1509.2013	2373.7763	2982.9102	3018.6884	3023.2012	3034.6754	3068.6448	3078.6189	3082.1694	3082.2625	3117.7569	3129.9678	3151.5774	3218.3158
COC1CC1CC#CC	CO[C@H]1C[C@H]1CC#CC	
InChI=1S/C8H12O/c1-3-4-5-7-6-8(7)9-2/h7-8H,5-6H2,1-2H3	InChI=1S/C8H12O/c1-3-4-5-7-6-8(7)9-2/h7-8H,5-6H2,1-2H3/t7-,8+/m1/s1
