18
gdb 26349	2.55509	1.47116	0.96944	3.794	74.32	-0.1958	0.0248	0.2206	1193.7936	0.148949	-439.107972	-439.099585	-439.098641	-439.140853	32.549	
C	 0.9166012671	 1.5314665612	-0.5538652583	-0.394934
C	 0.0539369938	 0.5486158735	 0.2455305461	-0.101439
N	-0.5917332247	-0.4974774615	-0.5870553661	-0.528163
H	 0.1197341841	-0.9953585064	-1.1177633537	 0.239349
H	-1.0777314088	-1.672156629	 0.8701739686	 0.299953
H	-1.2173724171	-0.0692252305	-1.2632571464	 0.236793
C	 0.8038423346	-0.1428908971	 1.349477805	 0.147525
C	 1.9784082682	 0.1818398862	 1.9565585223	-0.105852
O	 2.2727427462	-0.6894865144	 2.9472466679	-0.153069
C	 1.2661721871	-1.6211210101	 2.9834718717	-0.114076
C	 0.3409133453	-1.331670121	 2.028460548	 0.197883
O	-0.7963342608	-2.0049483003	 1.7485483466	-0.446821
H	 1.7628941878	 1.0152365238	-1.0197169601	 0.119797
H	 0.3255404686	 2.0085319308	-1.3424401177	 0.108883
H	 1.3142202676	 2.3229291318	 0.089640449	 0.126578
H	-0.7798475088	 1.1104546533	 0.6910475787	 0.104914
H	 2.6884332476	 0.9789094081	 1.8080056923	 0.130483
H	 1.3549255019	-2.3980000983	 3.7217943561	 0.132196
75.0513	172.5459	202.9846	260.6658	311.0668	312.3444	352.9925	411.1361	468.4726	526.7234	604.9451	622.5907	671.7553	717.4001	737.4871	761.2702	770.1089	877.9982	895.5707	942.6373	1010.7541	1069.3323	1078.9583	1115.7516	1182.6412	1201.5126	1218.2247	1247.1029	1321.888	1331.1559	1374.7323	1403.142	1406.6063	1481.0475	1488.7319	1500.6113	1589.2568	1647.1618	1696.584	2998.7025	3030.1358	3103.3621	3105.3489	3268.5039	3294.8987	3474.2561	3482.9544	3561.8411
CC([NH3+])C1=COC=C1[O-]	C[C@@H](N)c1cocc1O	
InChI=1S/C6H9NO2/c1-4(7)5-2-9-3-6(5)8/h2-4,8H,7H2,1H3	InChI=1S/C6H9NO2/c1-4(7)5-2-9-3-6(5)8/h2-4,8H,7H2,1H3/t4-/m1/s1
