21
gdb 57610	3.49055	0.96065	0.91844	1.7266	84.36	-0.252	0.0483	0.3004	1376.4387	0.179057	-387.042419	-387.032072	-387.031128	-387.077838	38.932	
C	 0.1925548808	 1.5973105213	 0.2490052629	-0.421009
C	 0.0825230622	 0.0834461844	 0.0744946634	 0.331597
O	 0.6535314773	-0.4638827215	 1.2637035459	-0.454416
C	-1.4114265631	-0.3496683375	-0.0430870942	-0.394884
C	-2.2411615617	 0.018810764	 1.0955440073	 0.323071
C	-2.9346103301	 0.3252979092	 2.0282815764	-0.447245
C	 0.8176070474	-0.4695692539	-1.1446190453	 0.002128
C	 0.92703923	 0.2480218036	-2.468272172	-0.275053
C	 2.1525221922	 0.0429993895	-1.6127893059	-0.288203
H	 1.2359251326	 1.8936052466	 0.3769471483	 0.125019
H	-0.2312676662	 2.1343660557	-0.6032355118	 0.113907
H	-0.3550733039	 1.8920522375	 1.1463501819	 0.143787
H	 0.6688694538	-1.4231615395	 1.1766196809	 0.274037
H	-1.8296523812	 0.0754309654	-0.9639974218	 0.13239
H	-1.4416839405	-1.4403802016	-0.1745774217	 0.1129
H	-3.5426621605	 0.5919359786	 2.8566570499	 0.191801
H	 0.6908254797	-1.5489707244	-1.2295556943	 0.070686
H	 0.8207122515	-0.3359536285	-3.3758916429	 0.111192
H	 0.5322668791	 1.2548448097	-2.5439262847	 0.11611
H	 2.5736787816	 0.91061974	-1.1186809145	 0.120777
H	 2.8916244992	-0.6834883486	-1.9319407278	 0.11141
41.0828	71.4479	128.427	210.779	229.9262	259.3799	279.4277	320.3087	346.58	355.8858	409.143	426.2326	479.4526	584.3515	613.4681	636.8476	745.3098	787.6564	828.6685	858.7113	899.8901	937.8427	953.7857	966.8194	988.5548	1046.7742	1061.3728	1082.4162	1142.6749	1145.9021	1165.5845	1169.1428	1198.4422	1242.3215	1244.787	1325.1359	1383.1131	1395.1371	1435.7155	1464.17	1467.6971	1490.8072	1506.6095	1510.7655	2237.9439	3009.5388	3051.0995	3059.1327	3098.3094	3132.1766	3137.8877	3138.9773	3141.6059	3213.4941	3227.9499	3506.7965	3803.3191
CC(O)(CC#C)C1CC1	C[C@@](O)(CC#C)C1CC1	
InChI=1S/C8H12O/c1-3-6-8(2,9)7-4-5-7/h1,7,9H,4-6H2,2H3	InChI=1S/C8H12O/c1-3-6-8(2,9)7-4-5-7/h1,7,9H,4-6H2,2H3/t8-/m1/s1
