21
gdb 81542	3.9546	1.18752	1.04318	2.0484	82.65	-0.241	0.0808	0.3217	1214.4927	0.18311	-387.01462	-387.006483	-387.005539	-387.047289	31.86	
C	-0.2050663936	 1.585145636	 0.0489731406	-0.447553
C	 0.0416734524	 0.0841679784	 0.0251626445	 0.061458
C	 1.2396580941	-0.5482223883	-0.7615388718	-0.129554
C	 2.1900643623	-0.0578845652	 0.3713947679	-0.245975
C	 0.9348295174	-0.6277489083	 1.0972492535	-0.129522
C	 1.0155664473	-1.8148403583	 0.1036095825	 0.378079
C	-0.0738046329	-2.8773725028	-0.1205121849	-0.178736
O	 0.8993159599	-3.9362689874	-0.0062154685	-0.279219
C	 1.9813180651	-3.0068616252	 0.2109941572	-0.180426
H	 0.6989434176	 2.174276891	 0.220885456	 0.119235
H	-0.6380532867	 1.9147415958	-0.9020152168	 0.118358
H	-0.9208003728	 1.8407034114	 0.8382232494	 0.118367
H	-0.9085571053	-0.4331784417	-0.1527784659	 0.067519
H	 1.417001241	-0.5159189775	-1.838718914	 0.068956
H	 3.1216403943	-0.6148046281	 0.5003297164	 0.097021
H	 2.3745617334	 1.0137433555	 0.4475169931	 0.095202
H	 0.7590106343	-0.6875644842	 2.1735039238	 0.068948
H	-0.8480681773	-2.9469044271	 0.6553830174	 0.099459
H	-0.5592254568	-2.8715565037	-1.1057355654	 0.099458
H	 2.7478645946	-3.0800821831	-0.5722319512	 0.099462
H	 2.4590540518	-3.155419147	 1.1887964761	 0.099462
84.9909	167.7239	168.6654	209.3806	261.4944	365.9655	372.2626	419.6033	547.0624	625.4915	737.1327	785.8812	802.9649	856.8029	858.3898	902.2356	958.13	978.7735	1015.7311	1016.0957	1022.448	1035.338	1052.0286	1066.3026	1096.6047	1132.4313	1136.3948	1157.8405	1159.079	1168.7827	1181.0727	1195.2377	1206.8147	1245.113	1265.9889	1303.2837	1308.7744	1388.2237	1405.6027	1426.3179	1494.1857	1495.4906	1506.522	1531.8236	1534.2338	2991.8409	3003.8147	3030.2629	3036.2315	3036.977	3037.6684	3067.4449	3086.7055	3090.0529	3093.8715	3114.7994	3135.4998
CC1C2CC1C21COC1	C[C@H]1[C@H]2C[C@@H]1C12COC1	
InChI=1S/C8H12O/c1-5-6-2-7(5)8(6)3-9-4-8/h5-7H,2-4H2,1H3	InChI=1S/C8H12O/c1-5-6-2-7(5)8(6)3-9-4-8/h5-7H,2-4H2,1H3/t5-,6+,7-
