16
gdb 24195	4.15338	1.63622	1.41074	2.1869	74.16	-0.1984	0.0187	0.2171	915.3869	0.12781	-400.685029	-400.678919	-400.677974	-400.715814	25.1	
C	-0.0342454363	 1.5057639945	-0.0655967254	-0.165784
C	 1.5236110954	 1.349425359	 0.0332998961	-0.193986
C	 1.1276499172	 0.1470749505	 0.9599627986	-0.165783
N	-0.0792213706	-0.0426796214	 0.0049120031	-0.245762
C	 0.7004266286	-0.2791696436	-1.1916859645	 0.384062
C	 1.7535293799	 0.5632715985	-1.2687045453	 0.242534
C	 2.4231688073	 0.2209228059	-2.4810027631	-0.391988
C	 1.6906667849	-0.8089176086	-3.0154742884	-0.028506
O	 0.6084970751	-1.131514284	-2.216810019	-0.212873
H	-0.5115883155	 1.9309336888	 0.8224297892	 0.110018
H	-0.4580975745	 1.9226419541	-0.9806562804	 0.116631
H	 2.1924238037	 2.1525168464	 0.3395378204	 0.076664
H	 1.7964478541	-0.7137632073	 1.0093457889	 0.11663
H	 0.7715170137	 0.4305052168	 1.9549768262	 0.110019
H	 3.3109755371	 0.6466054333	-2.922910869	 0.11335
H	 1.7884704598	-1.4001072329	-3.9095106876	 0.134773
62.3151	302.7039	417.7152	507.3543	545.4489	601.8865	661.1621	667.8936	714.4916	743.7762	803.0776	813.3721	823.7095	825.7355	894.0647	926.4323	995.8015	1011.927	1024.3571	1040.3577	1090.0773	1107.7868	1144.8066	1181.8352	1192.6527	1219.8399	1238.1109	1265.0446	1294.5447	1366.616	1458.3669	1483.2464	1486.643	1525.8418	1611.8281	3048.7369	3060.3786	3129.2483	3131.5433	3136.4902	3249.7698	3295.0405
C1C2CN1C1=C2C=CO1	C1[C@H]2CN1c1c2cco1	
InChI=1S/C7H7NO/c1-2-9-7-6(1)5-3-8(7)4-5/h1-2,5H,3-4H2	InChI=1S/C7H7NO/c1-2-9-7-6(1)5-3-8(7)4-5/h1-2,5H,3-4H2
