15
gdb 60663	3.2122	0.88689	0.77701	6.5776	75.46	-0.2833	-0.0599	0.2234	1430.6183	0.111242	-413.007729	-412.998125	-412.997181	-413.042718	33.648	
C	-0.2332633023	 1.0624815512	 0.1853801186	-0.384093
C	 0.1513315495	-0.4322459983	 0.2363152459	-0.148577
N	 0.7731745628	-0.851152904	-1.0100907076	-0.258207
C	 0.0338524127	-1.2646246384	-1.9648339277	 0.279349
N	-1.3368557855	-1.3638701123	-2.040726911	-0.55374
C	 0.7011927585	-1.6534574682	-3.1963041998	 0.279667
N	 1.1945651164	-1.9795920342	-4.1886771062	-0.305935
C	 1.0947299796	-0.675302318	 1.3428481612	 0.305773
N	 1.8000281123	-0.8523916518	 2.2396928968	-0.315077
H	 0.6495601924	 1.6618555252	-0.0448432728	 0.160658
H	-0.9813607022	 1.2252740833	-0.5945733242	 0.132179
H	-0.6427716147	 1.3848886414	 1.1457106785	 0.143706
H	-0.7494843177	-1.0203586943	 0.4831731419	 0.105764
H	-1.8764380153	-1.3175868945	-1.1917571507	 0.274635
H	-1.7278782263	-1.938181007	-2.7703963729	 0.283899
53.2465	88.8342	124.8348	190.9096	217.9589	235.4262	304.1623	311.9882	388.3136	401.1942	462.7095	496.398	537.4807	576.9903	634.6241	724.2648	825.3702	849.612	933.6246	1034.6001	1089.0961	1109.8791	1162.28	1294.1544	1338.7848	1376.9543	1403.607	1486.4641	1495.7738	1639.7516	1718.7855	2364.394	2368.7613	2945.5232	3054.8891	3133.7651	3147.5194	3595.8698	3710.6754
CC(N=C(N)C#N)C#N	C[C@@H](N=C(N)C#N)C#N	
InChI=1S/C5H6N4/c1-4(2-6)9-5(8)3-7/h4H,1H3,(H2,8,9)	InChI=1S/C5H6N4/c1-4(2-6)9-5(8)3-7/h4H,1H3,(H2,8,9)/t4-/m1/s1
