23
gdb 108617	2.67132	1.14501	0.86481	1.2414	89.84	-0.2205	0.0305	0.2509	1424.5796	0.204872	-388.318809	-388.308474	-388.30753	-388.35428	38.077	
C	 0.0086162965	 1.5794752416	 0.324124651	-0.371208
C	-0.0121104109	 0.0860645607	-0.0515585323	-0.291001
C	-1.3916784941	-0.5056337528	-0.0786188252	 0.219264
C	-2.0745988569	-0.9627562133	-1.1376712207	 0.21866
C	-1.6699842425	-1.0179062762	-2.5773393064	-0.501148
C	-3.4618525769	-1.4247935646	-0.7417514175	 0.049138
O	-3.7632085191	-2.662347625	-1.3844548694	-0.437778
C	-3.3870473017	-1.5205237566	 0.7973423234	-0.249097
C	-2.2124045117	-0.6021440933	 1.1947723554	-0.299845
H	 1.0338696986	 1.9621311783	 0.3395739412	 0.111878
H	-0.5639335545	 2.1719544377	-0.3967104317	 0.117887
H	-0.4247481009	 1.7496392268	 1.314661442	 0.118876
H	 0.4776624966	-0.0477510373	-1.0212249374	 0.100577
H	 0.5959368085	-0.4657847475	 0.6797316027	 0.100506
H	-1.7858378307	-2.0346767792	-2.9661828953	 0.143521
H	-2.3181950598	-0.376723332	-3.190091152	 0.118265
H	-0.6376310451	-0.6981084464	-2.7364722374	 0.11623
H	-4.2046931851	-0.6694289729	-1.0570237987	 0.060537
H	-4.6932310484	-2.8554784521	-1.2330486391	 0.28054
H	-4.3270663085	-1.2650807586	 1.2953868574	 0.084614
H	-3.1484009255	-2.5612857743	 1.0389243898	 0.110112
H	-1.631087417	-0.9935590623	 2.0392311681	 0.09658
H	-2.5688552909	 0.3896055093	 1.5067613221	 0.102892
54.4871	91.8559	129.9947	148.7927	209.8702	219.0124	245.5051	268.9229	308.9735	328.5913	442.8411	523.4067	537.6816	591.9181	639.8088	699.8331	786.0103	868.3958	880.5198	946.9585	960.6974	992.1988	1023.5853	1033.0552	1057.6262	1069.9241	1097.5186	1133.167	1167.3845	1190.8462	1223.566	1235.5321	1266.0103	1295.8545	1297.777	1343.3798	1346.3295	1362.3417	1405.3916	1412.1813	1424.6334	1475.8737	1479.2528	1485.1208	1493.4666	1497.5942	1501.4742	1508.832	1737.7457	2924.9805	3004.0165	3006.5966	3019.2811	3034.6795	3036.4923	3051.5714	3069.9402	3079.4436	3097.4168	3106.0113	3108.8787	3122.4157	3825.1319
CCC1=C(C)C(O)CC1	CCC1=C(C)[C@@H](O)CC1	
InChI=1S/C8H14O/c1-3-7-4-5-8(9)6(7)2/h8-9H,3-5H2,1-2H3	InChI=1S/C8H14O/c1-3-7-4-5-8(9)6(7)2/h8-9H,3-5H2,1-2H3/t8-/m0/s1
