13
gdb 56616	2.0402	1.38161	0.89095	2.9894	64.21	-0.2969	-0.0743	0.2226	1210.8798	0.086412	-452.754929	-452.745584	-452.74464	-452.79026	31.207	
O	-0.2093435673	 1.3004016992	 0.1278744642	-0.397513
C	 0.0106974809	-0.0840722658	 0.0196685699	-0.017991
C	 0.6896916012	-0.4436104231	-1.2373248859	 0.27317
N	 1.253354512	-0.6828641511	-2.2166538644	-0.29162
C	 0.8098972931	-0.6233004151	 1.2500571213	-0.269879
C	 0.1699122458	-0.0505621919	 2.5358298678	 0.17362
O	 0.764024014	 0.6639957833	 3.2877586462	-0.214725
C	 0.7909350778	-2.0816497616	 1.2957373577	 0.274699
N	 0.7299529053	-3.2341628073	 1.3526615523	-0.289542
H	 0.6277191425	 1.768890734	 0.0199055914	 0.310468
H	-0.9824961629	-0.5451250928	 0.0213090056	 0.168983
H	 1.8427041571	-0.2630361767	 1.2094326918	 0.161233
H	-0.8826507295	-0.360053331	 2.6983944222	 0.119098
49.4037	67.757	107.19	169.915	195.0005	216.5564	276.7013	342.7086	410.1	437.4597	491.2069	515.1307	593.6179	613.3073	874.8057	951.6308	1016.6867	1026.2275	1062.4453	1108.7731	1203.6951	1260.3855	1303.4673	1349.7591	1412.1295	1421.294	1854.1242	2359.5452	2362.1743	2930.8984	3069.2791	3082.7831	3794.1381
OC(C#N)C(C=O)C#N	O[C@@H](C#N)[C@@H](C=O)C#N	
InChI=1S/C5H4N2O2/c6-1-4(3-8)5(9)2-7/h3-5,9H	InChI=1S/C5H4N2O2/c6-1-4(3-8)5(9)2-7/h3-5,9H/t4-,5+/m1/s1
