19
gdb 109273	3.20239	1.26887	0.99266	1.7655	78.14	-0.2108	0.0107	0.2216	1224.061	0.160455	-419.209491	-419.200456	-419.199512	-419.243463	32.945	
C	 0.7274374172	 1.2119772151	-0.3733204968	-0.218238
O	 0.1633112152	-0.0620504388	-0.0809659292	-0.260689
C	 0.3099992289	-0.5019338997	 1.1979301023	 0.48416
N	 0.9151072605	 0.2129700066	 2.0584833112	-0.363712
C	 1.1175372677	-0.2572345587	 3.428112021	-0.212716
C	 1.7552813828	-1.6268769683	 3.521653008	-0.050947
C	 1.1434157373	-2.7174332051	 3.0618747317	-0.058552
C	-0.2320188758	-2.628494034	 2.4443188738	-0.216297
N	-0.3010058177	-1.7284620406	 1.2922545535	-0.35217
H	 1.8056304125	 1.2155439566	-0.1914755194	 0.13057
H	 0.5170329278	 1.388143234	-1.4298877083	 0.117551
H	 0.2734770684	 1.993112932	 0.2424599318	 0.131283
H	 1.7539945536	 0.478318715	 3.9283502061	 0.101408
H	 0.164727902	-0.2535772252	 3.9833872406	 0.102455
H	 2.7566232954	-1.6977698551	 3.939193132	 0.093006
H	 1.6265963755	-3.6896634934	 3.0997154087	 0.091716
H	-0.5589030939	-3.6094605309	 2.0918914816	 0.111658
H	-0.9662190391	-2.3168115729	 3.2019209205	 0.122455
H	-0.5524031283	-2.1287342765	 0.4042049811	 0.247057
68.9133	121.7212	133.9647	171.5883	233.8953	253.8089	300.7811	357.0496	403.6762	477.9846	517.2396	644.2489	722.4524	738.1013	778.923	806.6926	941.1483	957.0798	984.1393	993.7057	1035.7664	1080.0049	1095.2362	1176.8183	1183.557	1214.1724	1240.8183	1257.825	1270.6769	1312.0099	1354.9109	1385.1706	1407.1689	1465.0133	1473.3072	1487.3662	1502.1755	1508.6974	1531.8368	1716.1512	1742.8213	2957.7524	2988.1507	3043.8674	3067.5436	3095.5255	3115.873	3140.2075	3148.7691	3174.2977	3651.1154
COC1=NCC=CCN1	COC1=NCC=CCN1	
InChI=1S/C6H10N2O/c1-9-6-7-4-2-3-5-8-6/h2-3H,4-5H2,1H3,(H,7,8)	InChI=1S/C6H10N2O/c1-9-6-7-4-2-3-5-8-6/h2-3H,4-5H2,1H3,(H,7,8)
