16
gdb 12621	3.23095	2.02397	1.36415	4.0231	66.89	-0.2388	-0.0498	0.189	888.8939	0.130199	-383.770628	-383.762753	-383.761808	-383.803888	28.764	
C	-0.0110637097	 1.5774240445	 0.0547386365	-0.379391
C	 0.0449932074	 0.0467948714	-0.0356113445	-0.129073
C	 0.8407396469	-0.5177548423	-1.2391188789	 0.056902
O	 1.293401461	 0.5329052549	-2.0858257758	-0.42045
C	 1.9860895745	-1.2810734781	-0.6010459348	-0.082038
C	 1.9254546371	-1.3073417199	 0.7327636804	-0.174903
C	 0.7440927556	-0.5443160165	 1.2039678648	 0.380246
O	 0.3858182547	-0.3928926669	 2.3483345086	-0.335895
H	 0.991781597	 2.0111135525	 0.0486960938	 0.128757
H	-0.561633018	 2.0003928454	-0.7880849683	 0.123055
H	-0.5078060816	 1.8580414938	 0.9869266452	 0.13109
H	-0.9802934353	-0.3387144916	-0.0448044121	 0.102102
H	 0.2127361225	-1.2134236798	-1.8176277634	 0.081954
H	 1.7230563911	 0.1380396506	-2.8512435859	 0.286456
H	 2.7568160406	-1.7477014657	-1.2078738736	 0.110785
H	 2.614471036	-1.7903929523	 1.4142753882	 0.120403
17.4527	214.2681	225.7975	231.0153	259.3373	276.6075	378.3859	493.5032	509.0116	667.8044	703.2082	740.3154	781.2911	820.1193	882.6864	969.7944	1007.0209	1026.4077	1053.5736	1095.7801	1104.5356	1140.1245	1193.2972	1225.5997	1275.1226	1324.6124	1336.3428	1358.6339	1397.4292	1419.1746	1492.7091	1498.4698	1656.0018	1816.154	2969.4853	3052.0671	3054.2888	3131.8019	3133.9208	3175.4705	3222.5621	3819.673
CC1C(O)C=CC1=O	C[C@H]1[C@@H](O)C=CC1=O	
InChI=1S/C6H8O2/c1-4-5(7)2-3-6(4)8/h2-5,7H,1H3	InChI=1S/C6H8O2/c1-4-5(7)2-3-6(4)8/h2-5,7H,1H3/t4-,5-/m0/s1
