15
gdb 26891	3.12267	1.42698	0.98484	5.5015	75.79	-0.197	-0.0341	0.1629	1124.0158	0.113724	-454.007553	-453.999489	-453.998545	-454.039876	30.999	
N	 0.0773178054	 1.3455642221	-0.2108465534	-0.552293
C	-0.0268677293	-0.0020032719	-0.0867243265	 0.462772
C	-1.2304997503	-0.6691252817	 0.0137280097	 0.040262
N	-2.4259229369	 0.1229217695	 0.0539027417	-0.620078
C	-1.1651118483	-2.0775699515	 0.0843837522	-0.07215
C	 0.0180012337	-2.7630975111	 0.0654329185	-0.306006
C	 1.2692527167	-2.0748737293	-0.034440887	 0.415797
O	 2.3918780081	-2.4979309174	-0.0601416453	-0.34731
O	 1.1407927267	-0.6395336409	-0.1132239387	-0.265726
H	 0.9652880729	 1.7618805871	 0.0185599092	 0.269768
H	-0.7648023813	 1.851423408	 0.0216187621	 0.273486
H	-3.0397699039	-0.1689135555	 0.8073601694	 0.241583
H	-2.9584709991	 0.0512658204	-0.8084828109	 0.243469
H	-2.0991176548	-2.6292718509	 0.1642291691	 0.102425
H	 0.0666882003	-3.8416220868	 0.12750135	 0.114001
112.4032	162.6186	214.4082	298.0978	301.9159	351.0939	406.3239	441.5362	469.7357	507.7619	555.4543	601.1497	704.4796	728.2757	759.1942	779.2239	810.558	840.9445	860.0462	986.6071	1043.6436	1093.1952	1171.5086	1205.7994	1269.2386	1294.0078	1437.6956	1460.0273	1536.9105	1617.1335	1642.046	1687.4057	1855.722	3157.8989	3226.4698	3486.8488	3558.2367	3575.4084	3707.887
NC1=C(N)C=CC(=O)O1	Nc1c(N)ccc(=O)o1	
InChI=1S/C5H6N2O2/c6-3-1-2-4(8)9-5(3)7/h1-2H,6-7H2	InChI=1S/C5H6N2O2/c6-3-1-2-4(8)9-5(3)7/h1-2H,6-7H2
