20
gdb 8244	4.87451	1.08548	0.94659	3.497	71.26	-0.2333	0.0628	0.2961	1254.177	0.176049	-386.118427	-386.109413	-386.108469	-386.152578	32.445	
C	 0.0127832401	 1.5675194117	 0.0755772751	-0.404704
C	 0.0108663793	 0.0408046348	 0.0039305124	 0.131901
O	 0.6017006403	-0.5315007222	 1.1706523002	-0.426928
C	-1.40013275	-0.5390279511	-0.1005997487	-0.202728
C	-1.427720394	-2.0596934295	-0.1808455465	-0.008388
C	-1.2156634366	-2.8832593829	 1.1092327758	-0.070027
O	-2.4442011162	-3.6152324949	 0.8942777567	-0.276983
C	-2.8026199711	-2.7648227264	-0.210749818	-0.095141
H	 1.0358371643	 1.9532893806	 0.1552586413	 0.104584
H	-0.4363126515	 2.0055404493	-0.8218123907	 0.116593
H	-0.5489154648	 1.9096066202	 0.950550147	 0.126032
H	 0.5786218043	-0.2733648047	-0.8892088887	 0.063835
H	 1.4986504059	-0.1926409064	 1.2509060118	 0.282404
H	-1.9856894583	-0.2028829426	 0.7654822018	 0.102472
H	-1.8800618525	-0.1157517936	-0.9924257446	 0.095652
H	-0.7795276808	-2.4031854408	-0.9932982091	 0.073506
H	-0.3419632393	-3.5427648563	 1.1391157765	 0.098744
H	-1.2448296773	-2.2904035358	 2.0307065036	 0.104197
H	-3.6520784678	-2.1092099137	 0.0334499838	 0.088598
H	-3.0493704437	-3.3382341757	-1.1126584497	 0.096381
58.5287	92.2675	108.4473	169.3891	245.1485	287.0106	302.2872	318.5022	417.0938	471.4384	484.0465	747.4166	840.379	876.3331	885.453	900.3794	949.9626	990.8072	1005.4665	1032.0848	1041.9282	1081.9213	1125.6218	1145.7639	1154.2548	1160.0159	1175.3733	1237.7068	1264.2457	1303.1804	1306.6947	1322.976	1363.9537	1386.5107	1402.6658	1408.7043	1429.4487	1473.2427	1493.6287	1499.1401	1511.6448	1536.8742	2947.5749	2986.2866	3017.6242	3027.9043	3029.6883	3037.1798	3051.7799	3063.727	3079.7458	3093.5972	3112.8205	3820.846
CC(O)CC1COC1	C[C@@H](O)CC1COC1	
InChI=1S/C6H12O2/c1-5(7)2-6-3-8-4-6/h5-7H,2-4H2,1H3	InChI=1S/C6H12O2/c1-5(7)2-6-3-8-4-6/h5-7H,2-4H2,1H3/t5-/m1/s1
