17
gdb 9633	3.98429	1.18884	1.07895	4.8404	69.92	-0.2786	0.0338	0.3123	1123.6603	0.140968	-363.86084	-363.851962	-363.851018	-363.894367	31.676	
C	 0.0114668192	 1.5632201258	-0.1592760489	-0.461704
C	 0.0309557087	 0.0484874388	-0.0007661887	 0.134794
C	 1.3433520423	-0.7169251792	-0.129357264	-0.301748
C	 0.6654045509	-0.6441764832	 1.205582773	-0.009891
C	 1.2590755509	 0.1304447232	 2.3551257456	-0.111017
O	 2.2081375355	-0.7206645357	 2.9808486663	-0.414513
C	-1.1442782816	-0.6010649443	-0.5314770557	 0.242459
N	-2.0933718701	-1.1073086202	-0.9580845906	-0.346964
H	 0.9505156665	 2.0059568564	 0.178065969	 0.126487
H	-0.1253173842	 1.8301990144	-1.2111910398	 0.142239
H	-0.8071382411	 2.0115926832	 0.4115565745	 0.138211
H	 1.3403496172	-1.6579357986	-0.6655853704	 0.13903
H	 2.228470574	-0.108205009	-0.2822822212	 0.12643
H	 0.160187312	-1.5505346416	 1.5245150837	 0.11972
H	 1.73412412	 1.0556163021	 1.9969035811	 0.086857
H	 0.4611554621	 0.4211085407	 3.0563083011	 0.099158
H	 2.5181634374	-0.2864528828	 3.7812997649	 0.29045
69.2658	136.9717	144.5396	183.582	232.7732	251.6759	282.0789	342.9253	422.8506	425.0795	575.8807	596.4663	679.6394	834.9976	877.2763	903.2445	942.9362	975.4126	1047.815	1076.3453	1087.0166	1109.3869	1121.0299	1172.4046	1252.0483	1256.559	1294.3618	1296.4759	1402.7168	1418.7871	1470.9164	1487.9944	1490.3215	1505.0006	1521.2454	2348.2691	2975.9128	3007.1071	3047.6604	3112.7342	3133.1838	3140.5029	3163.8937	3233.3628	3826.9705
CC1(CC1CO)C#N	C[C@]1(C[C@H]1CO)C#N	
InChI=1S/C6H9NO/c1-6(4-7)2-5(6)3-8/h5,8H,2-3H2,1H3	InChI=1S/C6H9NO/c1-6(4-7)2-5(6)3-8/h5,8H,2-3H2,1H3/t5-,6-/m0/s1
