16
gdb 29214	3.18213	1.35883	0.95578	5.6089	77.69	-0.1903	-0.0135	0.1767	1161.217	0.127586	-434.137776	-434.12984	-434.128896	-434.169823	31.401	
N	 0.0737787744	 1.4551533153	 0.0951236444	-0.61269
C	 0.0043061615	 0.0358196554	 0.0133252242	 0.152607
C	-1.1487949296	-0.679706066	 0.0532230751	-0.028441
N	-1.1351275162	-2.0447233542	 0.048292553	-0.381696
C	 0.024174112	-2.8426658736	-0.0436627818	 0.43312
O	-0.0802339698	-4.0619419068	-0.0643838108	-0.422812
C	 1.2378042015	-2.0688973409	-0.0872891544	-0.376292
C	 1.2479155496	-0.6968809566	-0.0463355617	 0.357937
N	 2.4033440938	 0.0576252473	-0.1029048494	-0.590338
H	 0.4075024171	 1.8649694067	-0.7735670617	 0.249594
H	-0.8281938411	 1.8641885159	 0.3079612035	 0.241144
H	-2.1233392715	-0.2070050745	 0.1013439359	 0.116612
H	-1.9982727993	-2.5656133893	 0.0932673801	 0.254408
H	 2.1625571746	-2.632172311	-0.1326764211	 0.093212
H	 3.2587004636	-0.4342661291	 0.107297447	 0.253889
H	 2.3259523993	 0.9569878712	 0.3536575575	 0.259747
126.3985	200.0529	209.4876	319.4948	339.0252	370.7109	414.0823	452.343	492.4829	528.3699	579.1063	609.2827	642.2387	728.8844	739.9129	759.9159	787.0715	836.508	854.2374	867.6796	932.2	1107.5734	1144.3974	1202.9649	1233.5873	1268.8737	1281.5387	1372.5798	1440.2377	1508.2255	1591.518	1630.7098	1647.68	1706.3344	1773.4233	3192.6464	3198.6802	3483.2587	3549.2263	3590.7702	3624.6821	3665.2412
NC1=CNC(=O)C=C1N	Nc1c[nH]c(=O)cc1N	
InChI=1S/C5H7N3O/c6-3-1-5(9)8-2-4(3)7/h1-2H,7H2,(H3,6,8,9)	InChI=1S/C5H7N3O/c6-3-1-5(9)8-2-4(3)7/h1-2H,7H2,(H3,6,8,9)
