17
gdb 15817	6.57605	0.96003	0.90078	3.2481	67.31	-0.2572	-0.0241	0.2331	1298.1206	0.140702	-400.969862	-400.961153	-400.960208	-401.003996	29.833	
C	 0.1641889505	 1.407067583	-0.1632420696	-0.22765
O	-0.1290044429	 0.0477165196	 0.0678837527	-0.211186
C	 0.7035962208	-0.5312339139	 1.0209972409	-0.159259
C	 0.3637317611	-2.0006956994	 1.2132765312	 0.358123
O	-0.4632001471	-2.5845206968	 0.5507078683	-0.314008
C	 1.137697832	-2.6985893383	 2.2898105628	-0.108153
C	 0.3404258842	-3.5590486679	 3.2235044896	-0.218026
N	 1.2033399757	-4.1660049404	 2.2208295587	-0.30346
H	 1.1914754455	 1.5455700855	-0.5354656299	 0.107668
H	-0.5380204383	 1.7634370833	-0.9197400951	 0.136978
H	 0.0442872889	 2.0122953145	 0.7491704346	 0.106688
H	 1.7711953169	-0.4694297256	 0.7333878488	 0.113244
H	 0.6281459931	-0.0276190721	 2.0039706865	 0.110354
H	 2.032222965	-2.205073806	 2.66011477	 0.097119
H	 0.6731429182	-3.6600902184	 4.2525098196	 0.126907
H	-0.7345555965	-3.5804611588	 3.0677157851	 0.135144
H	 0.6256851928	-4.4429039682	 1.4252865758	 0.249518
59.4312	82.9319	115.4592	140.4812	235.5043	266.6765	285.7641	338.5543	395.1361	592.0205	694.998	826.3489	860.0453	900.3104	956.1867	987.2183	1008.2906	1039.6244	1093.8354	1123.6841	1136.7578	1173.5497	1183.2766	1186.0638	1243.631	1255.1649	1290.7694	1322.4322	1382.698	1421.2767	1466.2172	1487.4154	1491.1534	1494.4431	1515.6543	1806.99	2923.3158	2940.9441	2972.549	3017.7074	3112.198	3123.7917	3147.1629	3206.5415	3456.9158
COCC(=O)C1CN1	COCC(=O)[C@H]1CN1	
InChI=1S/C5H9NO2/c1-8-3-5(7)4-2-6-4/h4,6H,2-3H2,1H3	InChI=1S/C5H9NO2/c1-8-3-5(7)4-2-6-4/h4,6H,2-3H2,1H3/t4-/m1/s1
