19
gdb 78788	2.07226	1.81321	1.62282	3.3394	78.66	-0.23	0.0121	0.2421	996.0628	0.158273	-385.873583	-385.865202	-385.864258	-385.906151	32.383	
C	 0.0872455606	 1.5914769355	 0.0481122649	-0.426591
C	 0.0962325356	 0.0700190176	-0.0090003466	-0.023472
C	 0.8088482214	-0.6722779686	-1.1493397289	-0.079844
C	 2.3045845995	-0.746981942	-0.8066075871	-0.196739
C	 1.2766684044	-1.758205977	-0.2440403337	-0.138308
C	 1.0331105665	-0.7356136091	 0.9528079478	 0.172391
C	 0.6768992837	-1.0336670473	 2.3820645778	-0.512223
C	 2.4436118768	-0.2209626483	 0.5838453362	 0.411664
O	 3.3610570974	 0.1845025542	 1.2442485187	-0.355872
H	 1.095602238	 2.005041622	-0.0543972993	 0.131011
H	-0.5302754588	 2.0075044828	-0.755109643	 0.117126
H	-0.324738938	 1.9469048414	 0.9987790262	 0.121487
H	-0.9224965913	-0.3255384875	 0.0803829249	 0.075846
H	 0.5055815607	-0.7552539133	-2.1861539667	 0.095912
H	 3.0636723184	-0.9194682883	-1.5568491303	 0.109214
H	 1.311928065	-2.8352653323	-0.2978646315	 0.113298
H	 1.4524756399	-1.6360823266	 2.8653432768	 0.132583
H	 0.5860435035	-0.1027150028	 2.9517979929	 0.134775
H	-0.2749377633	-1.5694919706	 2.4570594909	 0.117742
124.1971	153.0567	192.5825	198.3797	219.1247	250.8157	358.564	454.5542	544.2324	627.9104	651.2725	691.7362	764.3169	774.2809	814.2341	825.1388	859.2993	862.7616	918.0012	927.8405	1009.0622	1027.5933	1041.4348	1090.0195	1097.6147	1112.6833	1138.5832	1168.779	1180.6957	1213.281	1287.2926	1337.3076	1350.8753	1390.1624	1410.2751	1416.4499	1485.8537	1487.8059	1493.3455	1496.4548	1867.9693	3031.5123	3032.9345	3037.3525	3096.4083	3100.4432	3104.777	3106.3973	3185.6793	3219.6945	3242.6404
CC1C2C3C2C1(C)C3=O	C[C@H]1[C@H]2[C@@H]3[C@H]2[C@@]1(C)C3=O	
InChI=1S/C8H10O/c1-3-4-5-6(4)8(3,2)7(5)9/h3-6H,1-2H3	InChI=1S/C8H10O/c1-3-4-5-6(4)8(3,2)7(5)9/h3-6H,1-2H3/t3-,4-,5+,6-,8-/m0/s1
