14
gdb 131475	3.40289	1.70341	1.19154	2.8634	68.47	-0.2427	-0.0482	0.1945	959.5141	0.103955	-432.878167	-432.871462	-432.870518	-432.909394	25.571	
O	 0.1546894275	 1.4093745107	-0.1892107836	-0.403268
C	 0.0250334412	 0.01333625	-0.0372544434	-0.04743
C	 0.5832200983	-0.5601342774	 1.2750210203	-0.168975
C	-0.3377295816	-1.3085968073	 1.8920091907	-0.025831
N	-1.5168498171	-1.2906992097	 1.1152651142	 0.059626
N	-2.758733382	-1.8009692639	 1.2200000985	-0.269
C	-3.3262996728	-1.2976068977	 0.1251552353	 0.017212
N	-2.5263561346	-0.5055256378	-0.6587190424	-0.357091
C	-1.3905773108	-0.5289973197	 0.007494357	 0.340835
H	-0.3773879414	 1.8349745882	 0.4927088341	 0.292499
H	 0.5654535146	-0.4204792816	-0.8877286671	 0.139589
H	 1.5898277478	-0.3707341858	 1.6156776234	 0.131125
H	-0.3068822578	-1.8703095706	 2.812993896	 0.158994
H	-4.3565471414	-1.5085846275	-0.1191204331	 0.131715
137.0981	143.2672	271.8421	325.9697	369.7873	501.002	567.0024	666.032	674.402	710.751	727.4179	796.3355	864.4969	892.8113	916.1369	975.9493	985.112	1073.4193	1093.3137	1166.7349	1192.3675	1235.7245	1259.9	1274.1787	1295.4534	1391.0523	1410.4845	1415.4865	1445.643	1569.6287	1644.8913	3045.7643	3250.6322	3264.231	3273.1967	3803.4516
OC1C=CN2N=CN=C12	O[C@H]1C=Cn2ncnc12	
InChI=1S/C5H5N3O/c9-4-1-2-8-5(4)6-3-7-8/h1-4,9H	InChI=1S/C5H5N3O/c9-4-1-2-8-5(4)6-3-7-8/h1-4,9H/t4-/m0/s1
