21
gdb 109406	2.25895	1.39163	1.04466	3.3339	83.59	-0.2322	-0.0069	0.2252	1258.034	0.181217	-387.095542	-387.086134	-387.08519	-387.129667	35.336	
C	 0.0687214153	 1.5672180378	 0.109466657	-0.38092
C	-0.1461856002	 0.0544912688	-0.024788582	-0.209679
C	 0.6654956116	-0.5412583094	-1.1742079822	-0.164336
C	 2.2170405791	-0.6129770048	-1.1028640626	 0.424114
O	 3.0681695038	 0.2307654589	-1.0256968721	-0.331625
C	 2.2352697712	-2.0877082656	-1.3554283285	-0.227673
C	 1.3436229011	-2.7706603991	-0.3193194516	-0.330489
C	 0.681452389	-2.0646046139	-1.4497830645	 0.333776
C	-0.1937013141	-2.7440056768	-2.4629883451	-0.497395
H	 1.1286639563	 1.7991229156	 0.2456772036	 0.146056
H	-0.2705967047	 2.0933652588	-0.7896767136	 0.113272
H	-0.4866101872	 1.9699288035	 0.9618697592	 0.109148
H	 0.1221207589	-0.437779263	 0.9173343416	 0.098013
H	-1.2107146327	-0.1588763497	-0.1883229221	 0.097127
H	 0.4279428943	-0.0050799793	-2.1044732159	 0.09503
H	 2.9717193878	-2.6474475552	-1.9194476321	 0.106317
H	 1.3613488467	-3.8547163999	-0.3840377708	 0.121832
H	 1.3021625339	-2.3954821986	 0.6985309158	 0.122768
H	-1.2362081976	-2.7745919788	-2.124774124	 0.127969
H	-0.1724223698	-2.2178891499	-3.4237599549	 0.123986
H	 0.1259046473	-3.7768493794	-2.6348776951	 0.122709
84.9857	104.0419	141.5267	198.1934	210.7827	249.8515	270.7354	336.7942	362.8179	483.8887	490.406	580.6233	645.0395	731.1962	747.9509	776.2361	843.101	904.951	926.7868	968.5724	986.8919	990.0371	1030.7532	1064.4089	1077.4023	1104.5497	1106.471	1117.384	1161.2318	1185.6436	1237.3037	1276.272	1283.7818	1332.856	1365.6282	1401.4486	1414.5573	1426.2537	1485.0994	1488.4766	1497.4007	1498.0058	1505.38	1510.913	1869.7368	3010.5625	3018.7239	3024.6594	3036.1618	3057.1334	3084.182	3099.6328	3101.962	3121.0595	3122.1933	3189.8173	3202.7929
CCC1C(=O)C2CC12C	CC[C@H]1C(=O)[C@H]2C[C@@]12C	
InChI=1S/C8H12O/c1-3-5-7(9)6-4-8(5,6)2/h5-6H,3-4H2,1-2H3	InChI=1S/C8H12O/c1-3-5-7(9)6-4-8(5,6)2/h5-6H,3-4H2,1-2H3/t5-,6+,8-/m0/s1
