23
gdb 118291	5.18644	0.50834	0.48198	3.2881	84.85	-0.247	-0.0172	0.2298	2293.2249	0.20234	-425.4449	-425.433529	-425.432584	-425.482908	39.608	
C	 0.0523695072	 1.5966810386	 0.1790698084	-0.382768
C	 0.0344053407	 0.0687373935	 0.0912140069	-0.16416
C	-1.3791410773	-0.5075887281	-0.0422389119	-0.190221
C	-1.4182711961	-2.0394747849	-0.0700116893	 0.12368
O	-0.839645581	-2.6039764522	 1.1064520656	-0.425569
C	-2.838196711	-2.5793249399	-0.3008430749	-0.2191
C	-2.8791298549	-4.113467295	-0.3909592401	-0.271764
C	-4.2895763494	-4.64722611	-0.3640660709	 0.158269
O	-4.7798708751	-5.3659458965	-1.1964167356	-0.239795
H	 1.0743410853	 1.9778279253	 0.2676218597	 0.114628
H	-0.396964763	 2.0527884189	-0.7103230291	 0.113567
H	-0.5107362702	 1.9513049697	 1.0498822893	 0.111838
H	 0.6354740153	-0.2577854954	-0.7675778181	 0.096778
H	 0.5118153975	-0.3657897099	 0.9760323241	 0.107986
H	-2.0048537301	-0.1543842142	 0.7927086725	 0.082506
H	-1.8532027858	-0.1243492192	-0.9555100612	 0.097701
H	-0.7716511904	-2.3964380577	-0.8826238344	 0.0913
H	-1.3190545699	-2.2504826274	 1.8650180539	 0.277484
H	-3.4824904785	-2.2380835539	 0.5234757336	 0.090295
H	-3.2491289497	-2.1382492741	-1.2166686395	 0.111801
H	-2.3811058623	-4.4778457718	-1.2942571507	 0.118993
H	-2.3453021838	-4.5159180606	 0.4808227366	 0.132991
H	-4.8835467373	-4.3139315552	 0.5217385449	 0.063558
46.328	63.2497	76.2354	91.4677	117.2644	149.631	220.8727	248.1399	277.3957	315.1461	344.4454	375.8146	467.5725	532.7382	563.9841	746.3705	768.4149	835.2767	851.8988	901.5381	930.7132	1002.7	1013.0143	1039.9589	1064.8556	1080.233	1105.4612	1121.4489	1152.778	1186.8468	1241.6172	1246.7798	1285.9586	1301.3854	1315.1077	1350.364	1364.4723	1386.9276	1398.4266	1414.4925	1420.1027	1431.9049	1463.9417	1476.7679	1488.6273	1494.4224	1500.3265	1511.7955	1836.0714	2835.4063	2987.7802	2999.5493	3023.7964	3026.2188	3028.5036	3030.9636	3041.7842	3062.2614	3071.099	3096.4067	3101.1285	3102.9487	3787.7328
CCCC(O)CCC=O	CCC[C@@H](O)CCC=O	
InChI=1S/C7H14O2/c1-2-4-7(9)5-3-6-8/h6-7,9H,2-5H2,1H3	InChI=1S/C7H14O2/c1-2-4-7(9)5-3-6-8/h6-7,9H,2-5H2,1H3/t7-/m1/s1
