19
gdb 93723	2.9473	1.17421	1.12758	0.7032	77.8	-0.2582	0.0335	0.2917	1206.1806	0.156643	-423.00276	-422.993376	-422.992431	-423.03707	35.094	
C	 0.0525249981	 1.5421513818	-0.0736750866	-0.406932
C	 0.1403288881	 0.0343585286	-0.0664622202	 0.222401
O	 0.9109728176	-0.4283264009	-1.1539661	-0.247066
C	 1.2932519564	-1.7367117462	-0.7820777293	-0.155103
C	 1.5118931305	-1.631981722	 0.7646386954	 0.172533
C	 2.985728067	-1.4469829634	 1.1411477529	-0.424248
O	 0.8149048551	-0.4179247313	 1.0971493803	-0.291065
C	 0.9232510592	-2.774890975	 1.4678429906	 0.339264
C	 0.454444046	-3.7263997285	 2.0329400819	-0.487077
H	 1.0575716264	 1.9694625126	-0.0461914216	 0.131486
H	-0.4603589512	 1.8812553205	-0.9772510757	 0.129084
H	-0.5076680269	 1.8848834059	 0.7995160577	 0.132445
H	-0.8642777992	-0.4272864262	-0.10615357	 0.066618
H	 0.5032933058	-2.4649922797	-1.009663187	 0.107637
H	 2.2041951994	-2.006054502	-1.319860129	 0.122967
H	 3.408534274	-0.630694973	 0.5491242721	 0.126897
H	 3.0713195403	-1.1955201422	 2.2007036766	 0.136831
H	 3.551585832	-2.3636127219	 0.9522403448	 0.123273
H	 0.0351232012	-4.5608913171	 2.538894067	 0.200055
40.2541	142.5322	173.847	184.9586	210.5872	255.3381	312.2467	349.596	385.5092	468.3958	523.4386	568.3496	596.7824	627.5051	662.8583	696.7765	798.2798	864.4909	887.9379	931.1682	940.009	974.5937	1078.3154	1107.2972	1130.2709	1149.6657	1161.8959	1198.5523	1217.3517	1267.7082	1346.9718	1384.0421	1395.9593	1404.0438	1439.3004	1481.3448	1484.3005	1486.1602	1491.2388	1514.3274	2233.859	2926.1082	3014.5425	3045.3121	3055.4648	3113.3517	3124.8571	3133.6226	3135.5777	3140.8463	3500.4269
CC1OCC(C)(O1)C#C	C[C@H]1OC[C@@](C)(O1)C#C	
InChI=1S/C7H10O2/c1-4-7(3)5-8-6(2)9-7/h1,6H,5H2,2-3H3	InChI=1S/C7H10O2/c1-4-7(3)5-8-6(2)9-7/h1,6H,5H2,2-3H3/t6-,7-/m0/s1
