23
gdb 116486	2.8848	1.07979	0.84242	1.4027	87.85	-0.2305	0.0266	0.2571	1429.5568	0.207407	-388.300482	-388.291202	-388.290258	-388.334667	35.647	
O	 0.1563287092	 1.3858737927	 0.1450516532	-0.42181
C	 0.1174633436	-0.0326543235	 0.0928476775	-0.100822
C	-1.3420015704	-0.4746358147	-0.0443191156	-0.021697
C	-1.4076345377	-2.0060677001	-0.2151703516	-0.189401
C	-2.7414714167	-2.5523333618	-0.7425549015	-0.196272
C	-3.9385406257	-2.4324646969	 0.2090887047	-0.175715
C	-4.3959847316	-0.9923580554	 0.5032749441	-0.244338
C	-3.4518405603	-0.1715912152	 1.3504948927	-0.089478
C	-2.1587506748	 0.0506350128	 1.117423476	-0.011636
H	 1.0620718517	 1.6564490903	 0.319944335	 0.286484
H	 0.6971013932	-0.4117789872	-0.7631360213	 0.083369
H	 0.5484445589	-0.4755339229	 1.0065096415	 0.083959
H	-1.7179393073	-0.0153843935	-0.9722446921	 0.089756
H	-0.6191495616	-2.3071884348	-0.917822042	 0.085296
H	-1.1677496543	-2.484477943	 0.7435655603	 0.093063
H	-2.9835029331	-2.0484008367	-1.6894058186	 0.08983
H	-2.6029164175	-3.6114857503	-0.9924679758	 0.089058
H	-4.7826441513	-2.9775101796	-0.2314889272	 0.088054
H	-3.705082164	-2.9350181375	 1.1566808236	 0.093325
H	-4.5735144615	-0.4790936313	-0.4545787646	 0.104813
H	-5.3709592421	-1.0316560027	 1.0006890099	 0.094154
H	-3.8912179275	 0.2977622812	 2.228398564	 0.080281
H	-1.6188811892	 0.7000741202	 1.8016756577	 0.089728
56.1249	111.6198	185.211	193.6418	250.9298	282.6193	308.9376	334.5708	389.8794	447.4595	484.9657	537.3028	667.2314	706.7198	786.6999	833.592	860.4776	873.2987	928.4578	961.2173	994.0382	1000.7241	1046.7314	1054.5106	1078.2762	1102.1274	1108.951	1138.0538	1161.021	1218.4373	1248.1241	1254.2248	1269.6843	1282.8986	1302.2496	1316.2642	1355.1615	1367.9962	1376.1527	1387.1296	1400.3819	1431.0638	1457.2229	1479.0284	1480.8566	1485.7604	1492.7921	1519.2229	1724.7855	2958.513	2978.1716	2989.8054	2998.4241	3003.1853	3009.152	3015.3259	3046.1121	3050.3115	3058.966	3061.3953	3136.5908	3166.6381	3833.6386
OCC1CCCCC=C1	OC[C@H]1CCCCC=C1	
InChI=1S/C8H14O/c9-7-8-5-3-1-2-4-6-8/h3,5,8-9H,1-2,4,6-7H2	InChI=1S/C8H14O/c9-7-8-5-3-1-2-4-6-8/h3,5,8-9H,1-2,4,6-7H2/t8-/m1/s1
