17
gdb 76227	2.65464	1.58921	1.20561	1.0228	69.08	-0.2132	0.0163	0.2295	1038.9643	0.136288	-455.133999	-455.12562	-455.124676	-455.166316	33.053	
N	-0.0380984842	 1.3072686111	-0.0243050733	-0.564501
C	-0.0760031516	-0.0580285019	 0.0245447175	 0.32945
N	-1.1426507265	-0.7722717303	 0.0375101407	-0.289516
C	-0.7302126062	-2.162326937	 0.0631017199	-0.080985
C	-0.0279051814	-2.6510152521	-1.1895888468	-0.32824
C	 0.7808456543	-2.2524918119	 0.0209907053	 0.361536
O	 1.5364829727	-3.262569565	 0.6109254339	-0.468705
C	 1.2576284629	-0.8105901095	 0.1017014651	-0.041814
O	 2.2074674715	-0.3680192594	-0.8564058295	-0.434172
H	 0.8074898107	 1.6918012322	-0.4195255098	 0.261963
H	-0.8923230758	 1.761347556	-0.3122102114	 0.25783
H	-1.3415639944	-2.8531034113	 0.6324268754	 0.095475
H	-0.0331316115	-3.7175330376	-1.3869497159	 0.126852
H	-0.0700471015	-2.0142834396	-2.069169002	 0.104852
H	 1.5050114221	-3.143777668	 1.5670119412	 0.283627
H	 1.7326368144	-0.6276264326	 1.0756235219	 0.09884
H	 1.9785298445	-0.7771664431	-1.6989915223	 0.287508
114.6066	219.1236	227.8033	266.1483	305.4254	316.4837	327.5299	436.9689	468.7626	477.4179	510.1287	573.4175	579.8313	672.3176	703.9404	754.922	874.9008	898.4462	926.6155	974.7206	986.9588	1033.0035	1061.6146	1082.9093	1110.6375	1182.0551	1200.8826	1244.7138	1261.9528	1286.7193	1328.6889	1389.8467	1415.9415	1432.3535	1472.9461	1620.8866	1714.1255	3018.9702	3116.6862	3179.869	3216.6933	3567.4753	3680.7137	3790.4374	3796.93
NC1=NC2CC2(O)C1O	NC1=N[C@H]2C[C@@]2(O)[C@H]1O	
InChI=1S/C5H8N2O2/c6-4-3(8)5(9)1-2(5)7-4/h2-3,8-9H,1H2,(H2,6,7)	InChI=1S/C5H8N2O2/c6-4-3(8)5(9)1-2(5)7-4/h2-3,8-9H,1H2,(H2,6,7)/t2-,3-,5-/m0/s1
