14
gdb 9035	4.96987	1.1701	1.03026	2.339	67.37	-0.2539	-0.0655	0.1884	1095.3773	0.105251	-378.697313	-378.688931	-378.687987	-378.730343	29.982	
N	-0.2354546709	 0.7408563921	-0.9624541354	-0.551962
C	-0.2419301593	-0.2775582174	-0.0561707754	 0.279996
C	 1.0988405826	-0.9200584373	 0.1616625503	 0.145133
O	 2.0825474372	-0.6131516108	-0.4667975138	-0.266135
N	-1.1976386888	-0.7444489998	 0.6620644579	-0.277271
C	-2.5201228341	-0.1311999191	 0.5401386047	-0.309356
C	-3.102045214	-0.1606794505	-0.8057396221	 0.297271
C	-3.5502935791	-0.180583454	-1.9220760317	-0.460655
H	 0.6192340866	 0.8195895272	-1.4964407499	 0.269423
H	-1.094696091	 0.9731737048	-1.437054516	 0.26897
H	 1.0887141763	-1.6989351528	 0.9458987231	 0.112175
H	-3.1951478496	-0.6513771468	 1.2277057033	 0.145705
H	-2.4755948628	 0.9167996803	 0.8796161014	 0.140649
H	-3.9699825132	-0.2183631959	-2.8972525464	 0.206056
75.5198	94.9418	157.8141	218.8423	301.7462	315.3564	333.8609	418.9178	485.5542	573.7191	588.5728	629.0163	657.6163	665.476	698.5622	896.5665	929.6322	999.579	1012.2375	1033.9698	1156.1448	1256.555	1342.3446	1368.3949	1391.4759	1470.7468	1617.4642	1725.3234	1810.12	2224.7348	2976.0281	2981.7062	3063.0833	3501.4474	3553.8231	3672.8303
NC(C=O)=NCC#C	NC(=NCC#C)C=O	
InChI=1S/C5H6N2O/c1-2-3-7-5(6)4-8/h1,4H,3H2,(H2,6,7)	InChI=1S/C5H6N2O/c1-2-3-7-5(6)4-8/h1,4H,3H2,(H2,6,7)
