19
gdb 92180	2.69045	1.89362	1.66313	2.1003	73.35	-0.2268	0.0687	0.2956	917.4418	0.161335	-422.985181	-422.978306	-422.977362	-423.016038	28.705	
C	-0.3183371525	 1.5179784392	 0.0392498745	-0.419694
C	 0.0670418347	 0.0397795967	-0.0163382357	 0.138966
O	 0.7392536478	-0.3095220749	-1.2418147273	-0.282355
C	 2.119515465	-0.5670380505	-1.0742517292	 0.068256
C	 2.831198762	 0.599794811	-0.3370780319	-0.273672
C	 2.4595085393	-0.1220149894	 0.9716388106	-0.096683
C	 2.3789898758	-1.4649380854	 0.2201175321	 0.113131
O	 1.1688442981	-1.8687880814	 0.8566093474	-0.29089
C	 0.927343737	-0.4559270611	 1.1393503632	 0.049122
H	 0.5396012064	 2.1759960735	 0.1958568671	 0.120846
H	-0.8037457634	 1.8051872565	-0.8973787911	 0.132007
H	-1.0280898952	 1.6867439644	 0.8566723334	 0.114893
H	-0.852886488	-0.5585851469	-0.0088384399	 0.094094
H	 2.4985373871	-0.9020020991	-2.0404516374	 0.080667
H	 3.9162040717	 0.5642273928	-0.4812914408	 0.104778
H	 2.4772287838	 1.6099766086	-0.5465511911	 0.107264
H	 3.0109880659	 0.031739797	 1.8989608754	 0.076419
H	 3.1504676059	-2.2352950163	 0.1712427929	 0.08028
H	 0.4702283587	-0.300085245	 2.1196833877	 0.08257
168.5609	228.7695	250.3791	377.53	387.4171	440.0667	494.3794	615.1338	655.7358	732.5463	750.5231	795.5974	818.1982	834.4339	877.2009	930.7845	949.3276	982.3603	998.0897	1012.5534	1046.7379	1055.039	1103.0973	1106.3955	1127.5607	1135.8629	1174.6958	1197.5008	1217.549	1239.9266	1266.9262	1302.6466	1322.1456	1329.3102	1348.6466	1375.5678	1388.9174	1406.3308	1482.4093	1495.8617	1504.2343	3024.7501	3042.9565	3053.8144	3080.3173	3096.9909	3108.1296	3110.9678	3116.2073	3121.4475	3135.3856
CC1OC2CC3C2OC13	C[C@H]1O[C@H]2C[C@@H]3[C@H]2O[C@H]13	
InChI=1S/C7H10O2/c1-3-6-4-2-5(8-3)7(4)9-6/h3-7H,2H2,1H3	InChI=1S/C7H10O2/c1-3-6-4-2-5(8-3)7(4)9-6/h3-7H,2H2,1H3/t3-,4+,5+,6-,7-/m1/s1
