21
gdb 59256	2.44466	1.26641	1.06471	1.1439	78.55	-0.2242	0.0621	0.2863	1253.1276	0.18048	-424.179431	-424.169927	-424.168983	-424.213685	36.048	
C	-0.0016101207	 1.4064446654	-0.2199787464	-0.387904
C	 0.0731986587	-0.0877262895	 0.1263101719	 0.003444
C	 0.7654627437	-0.3183836477	 1.4770307053	-0.385739
C	-1.3158797199	-0.7017711751	 0.1133133568	-0.049396
C	-2.0170904058	-1.2135845315	-1.1237899699	-0.027959
O	-1.084455021	-1.8323409078	-2.0213898055	-0.281214
C	-0.7587042546	-2.8469250086	-1.0356426313	-0.154132
C	-1.6476793356	-2.1665496273	 0.0044258546	 0.277225
O	-2.3580988343	-2.8068855246	 0.9972079598	-0.44888
H	 0.9975981355	 1.8527243484	-0.2553297336	 0.108683
H	-0.4769814165	 1.5625929065	-1.19322657	 0.118799
H	-0.5835732535	 1.9547946045	 0.5307405144	 0.108292
H	 0.6621595577	-0.5791668507	-0.6568680761	 0.088668
H	 0.2133084855	 0.1689029912	 2.2894088875	 0.111973
H	 0.8301518878	-1.3847955456	 1.7154541164	 0.115853
H	 1.7811322406	 0.0913386547	 1.4739165049	 0.10848
H	-2.0285966658	-0.2224227237	 0.7861356991	 0.092835
H	-2.94708084	-0.8404125192	-1.5369359815	 0.104792
H	-1.1441292535	-3.825841355	-1.351406518	 0.098087
H	 0.3167604829	-2.922105783	-0.8390330622	 0.111197
H	-2.9050727709	-3.4892259715	 0.5904723642	 0.286896
53.4734	124.9987	165.9113	223.0411	244.3603	260.4851	302.5386	323.4293	368.013	397.268	418.6035	506.2985	587.4837	639.1869	793.2481	826.9378	879.0722	923.0024	927.2332	930.8879	966.0076	979.2853	988.9138	1016.587	1056.6816	1081.6359	1142.54	1147.6385	1153.4736	1189.8957	1220.4614	1261.4999	1278.6427	1310.9461	1345.0915	1351.6807	1388.2238	1398.0897	1419.3868	1485.1647	1487.5248	1492.2395	1503.9796	1509.4983	1518.3601	3010.0647	3023.6635	3027.1636	3038.3623	3066.6806	3088.0528	3095.2009	3100.9863	3105.6353	3112.7089	3181.8951	3782.1633
CC(C)C1C2OCC12O	CC(C)[C@H]1[C@H]2OC[C@@]12O	
InChI=1S/C7H12O2/c1-4(2)5-6-7(5,8)3-9-6/h4-6,8H,3H2,1-2H3	InChI=1S/C7H12O2/c1-4(2)5-6-7(5,8)3-9-6/h4-6,8H,3H2,1-2H3/t5-,6+,7+/m0/s1
