15
gdb 34625	3.57573	1.25085	0.95003	5.6408	75.32	-0.2684	-0.0494	0.219	1170.0504	0.113324	-416.81102	-416.803076	-416.802132	-416.844225	28.602	
N	-0.0450771916	-1.2083088735	-0.3356799049	-0.325078
C	-0.0517572499	-0.0744397699	-0.1125618169	 0.303585
C	-0.052299841	 1.3527928556	 0.1712345884	 0.272456
N	-1.1518278341	 1.9610071019	 0.0815923316	-0.285985
C	-1.3813609032	 3.3806962953	 0.1942623474	-0.214983
C	-0.3763041716	 4.3302116747	 0.7812595862	-0.041708
C	 0.8098192604	 4.0703608863	 1.3193691692	-0.088107
C	 1.4556126095	 2.7279882334	 1.4774183095	-0.145642
O	 1.2102395166	 1.7637856681	 0.4420360807	-0.251625
H	-1.6336574255	 3.7199676529	-0.8230758079	 0.149433
H	-2.3242919332	 3.5059612085	 0.7472542555	 0.142619
H	-0.7154912648	 5.3647313944	 0.7622980003	 0.1034
H	 1.3895987352	 4.8931398427	 1.7304954627	 0.10607
H	 2.5433443508	 2.8321193583	 1.4818958903	 0.139062
H	 1.1703009324	 2.2747811113	 2.4376053281	 0.136502
51.6714	126.5406	169.9078	182.6454	326.2673	365.3964	408.4966	412.1278	566.2739	623.4202	675.2508	717.4726	770.7851	835.3552	897.3085	932.1317	964.1422	1013.9736	1033.0728	1080.7409	1106.5407	1211.5595	1252.8132	1280.8616	1290.3195	1386.845	1409.9868	1423.7616	1444.9797	1489.0226	1753.3452	1768.3875	2358.5233	2993.6002	3008.6609	3009.2058	3099.0535	3137.6488	3165.2036
N#CC1=NCC=CCO1	N#CC1=NCC=CCO1	
InChI=1S/C6H6N2O/c7-5-6-8-3-1-2-4-9-6/h1-2H,3-4H2	InChI=1S/C6H6N2O/c7-5-6-8-3-1-2-4-9-6/h1-2H,3-4H2
