18
gdb 112279	2.45578	1.24231	0.90951	1.1154	70.14	-0.2607	0.008	0.2688	1290.8186	0.146353	-476.19806	-476.188659	-476.187715	-476.232888	33.33	
C	-0.1169021965	 1.4288815517	 0.3592977857	-0.249969
O	-0.1600162879	 0.2154844431	-0.3791102152	-0.242906
C	-1.3509428802	-0.4897864263	-0.2082743385	-0.020853
C	-1.375805124	-1.8730062322	-0.8957916006	 0.054016
C	-0.0787754231	-2.4050682665	-1.4732280388	-0.065211
O	-0.1811688289	-3.792853062	-1.7303884736	-0.421238
O	-1.6473595802	-2.507303071	 0.4109684857	-0.280066
C	-1.5288546413	-1.3018961263	 1.0737236668	 0.417371
N	-1.5498380747	-1.029407286	 2.296688912	-0.545335
H	 0.8465791485	 1.8937257142	 0.1418205965	 0.132166
H	-0.9239460637	 2.1085775911	 0.0468212305	 0.109981
H	-0.2053010201	 1.2439893018	 1.4357178538	 0.151671
H	-2.2273111177	 0.1361895547	-0.4330866035	 0.099304
H	-2.2151055933	-2.0600300542	-1.5698366149	 0.103754
H	 0.1235962716	-1.913724489	-2.4299136336	 0.124738
H	 0.7509806511	-2.1681949779	-0.7943634994	 0.108893
H	-0.3867243771	-4.2170812679	-0.8893254851	 0.292748
H	-1.6608297424	-1.8682591373	 2.8699236122	 0.230936
75.3964	95.3899	120.8174	134.0551	176.2318	233.133	296.3719	339.5163	401.6566	433.0445	468.4876	550.9869	680.2819	778.0613	834.8791	866.974	890.2461	955.9959	1001.7575	1029.1897	1046.8833	1082.8174	1120.2289	1168.5336	1185.615	1211.2886	1223.1066	1249.4135	1256.8941	1304.3619	1345.2995	1385.5824	1398.2724	1429.6376	1481.4515	1487.0994	1493.9504	1513.1769	1821.0324	2992.353	2997.9306	3024.225	3073.6687	3085.2659	3099.5698	3133.2204	3467.6181	3800.3562
COC1C(CO)OC1=N	CO[C@H]1[C@@H](CO)O[C]1[NH]	
InChI=1S/C5H9NO3/c1-8-4-3(2-7)9-5(4)6/h3-4,6-7H,2H2,1H3	InChI=1S/C5H9NO3/c1-8-4-3(2-7)9-5(4)6/h3-4,6-7H,2H2,1H3/t3-,4+/m1/s1
