15
gdb 98135	4.85771	0.87134	0.74228	3.5393	67.59	-0.2485	-0.0631	0.1854	1462.9625	0.111463	-491.130947	-491.121508	-491.120564	-491.166319	31.551	
C	-0.1249450415	 1.4671945266	 0.0120076511	-0.24384
O	-0.0255225959	 0.0335190822	 0.0026149251	-0.200381
C	-1.177260752	-0.6186176719	 0.010646196	 0.390873
O	-2.2750807141	-0.1085903297	 0.0251687671	-0.382378
C	-0.9566642524	-2.1529623004	-0.0004132704	 0.302914
O	 0.1322687091	-2.6609084392	-0.0133203265	-0.295511
N	-2.1864254644	-2.7765974709	 0.0084056691	-0.32203
C	-2.478182677	-4.1376295283	 0.004128797	 0.086487
N	-1.5993748465	-5.0491941135	-0.0088831622	-0.394046
H	 0.9011389988	 1.8315398261	 0.0033780473	 0.149128
H	-0.6674321907	 1.8158018611	-0.8699669653	 0.14853
H	-0.6487716482	 1.8054278793	 0.9091744525	 0.148541
H	-2.9638087535	-2.1293075355	 0.0192554861	 0.27587
H	-3.5639588654	-4.294247857	 0.0134435166	 0.102535
H	-2.0516055864	-5.962216139	-0.0094784537	 0.233307
54.7996	83.66	116.6843	140.2128	152.4365	190.6611	238.499	317.4517	349.2773	506.5571	526.0109	577.5888	701.5774	822.662	826.3395	837.6727	934.4325	967.344	1066.1527	1067.4969	1175.9747	1177.6295	1213.8286	1259.7366	1325.2071	1429.2564	1475.0954	1483.59	1492.2138	1553.6782	1731.355	1795.2848	1842.9284	3040.2818	3057.1316	3134.2347	3173.3356	3499.7382	3588.4915
COC(=O)C(=O)NC=N	COC(=O)C(=O)NC=N	
InChI=1S/C4H6N2O3/c1-9-4(8)3(7)6-2-5/h2H,1H3,(H2,5,6,7)	InChI=1S/C4H6N2O3/c1-9-4(8)3(7)6-2-5/h2H,1H3,(H2,5,6,7)
