15
gdb 18099	4.66083	2.08261	1.47904	3.7962	70.05	-0.2283	-0.0222	0.2061	819.3965	0.122045	-362.68764	-362.681543	-362.680599	-362.717879	23.502	
C	 0.0086843366	 1.506006126	 0.010053658	-0.129665
O	 1.4039684001	 1.8834788949	-0.0012620269	-0.25665
C	 2.1213772525	 0.7422035555	-0.0141993196	 0.409349
N	 3.3808344356	 0.5739940018	-0.0271680121	-0.334038
C	 3.586604564	-0.8892740828	-0.0369803543	-0.157069
C	 2.1773019087	-1.608273534	-0.0274534948	-0.389352
C	 1.2536941334	-0.43054883	-0.0122432282	 0.311431
C	-0.0102711613	-0.0104966854	 0.002128484	-0.312998
H	-0.4600262066	 1.9380245518	 0.9038989829	 0.130339
H	-0.4769938614	 1.9475134015	-0.8699908839	 0.130342
H	 4.1688616622	-1.1672662451	-0.9226305782	 0.112587
H	 4.185534077	-1.1766818916	 0.8344335579	 0.112587
H	 2.033851944	-2.2401719649	-0.9092125723	 0.127886
H	 2.0506199623	-2.2497868079	 0.8499176846	 0.127883
H	-0.9306414572	-0.5791239398	 0.0078840029	 0.11737
122.5264	237.8191	261.3941	379.197	482.9865	661.4307	693.6792	700.1111	773.9467	816.1872	829.2577	838.6544	911.5497	938.3231	993.3834	1024.4817	1052.0232	1065.9937	1121.3894	1182.911	1192.934	1216.4363	1233.1874	1272.1583	1318.3199	1348.624	1414.9511	1470.8921	1504.0693	1506.4092	1727.5565	1742.1501	3016.6927	3036.0989	3046.7712	3056.2968	3062.5773	3093.8441	3224.2288
C1OC2=NCCC2=C1	C1OC2=NCCC2=C1	
InChI=1S/C6H7NO/c1-3-7-6-5(1)2-4-8-6/h2H,1,3-4H2	InChI=1S/C6H7NO/c1-3-7-6-5(1)2-4-8-6/h2H,1,3-4H2
