23
gdb 109679	2.75029	0.9656	0.87883	0.5625	82.38	-0.2452	0.0566	0.3017	1475.8749	0.202802	-425.412939	-425.40156	-425.400615	-425.449824	40.658	
C	 0.2105265053	 1.4721220781	 0.1867235161	-0.376553
C	-0.2381114756	 0.0537872224	-0.185387207	-0.197005
C	 0.5886151496	-0.5473862741	-1.305135893	-0.067017
C	 1.9230259554	-1.2532533106	-1.0793511941	-0.07712
C	 2.5339220046	-1.4411992701	 0.2930977112	-0.429315
C	 0.6984326913	-2.0342430696	-1.5075032817	 0.335593
O	 0.0573796772	-2.8398339885	-0.5438754572	-0.472692
C	 0.5926735797	-2.6192553093	-2.8996071103	-0.125169
O	 1.0539323909	-3.9646143809	-2.9433596971	-0.423729
H	 1.2451842591	 1.480708992	 0.5445937351	 0.117443
H	 0.1555847829	 2.1446595086	-0.6766594038	 0.111311
H	-0.4216899942	 1.8918173691	 0.9756927567	 0.109758
H	-0.2079001907	-0.5954052622	 0.6931739579	 0.111161
H	-1.2895600594	 0.0761364445	-0.5000713786	 0.097319
H	 0.5386387266	 0.02894292	-2.2286041601	 0.076487
H	 2.6592592738	-1.0965725961	-1.8648017142	 0.081947
H	 1.7807004596	-1.6785856438	 1.0475054512	 0.127153
H	 3.2623907249	-2.260483239	 0.28197083	 0.115785
H	 3.0640594732	-0.5401098582	 0.6190870304	 0.120803
H	 0.6743085664	-3.5426783302	-0.3115027388	 0.28572
H	-0.4493042971	-2.5539420541	-3.2493282168	 0.091465
H	 1.2158988388	-2.0499929085	-3.5966354856	 0.105964
H	 0.3858857078	-4.4935556295	-2.4955203903	 0.280688
59.4562	78.4763	90.8971	126.9774	155.8766	175.5663	199.383	228.3651	271.7583	302.4196	332.7549	370.5865	478.969	498.1179	555.5571	638.4226	708.3792	771.8558	800.5983	852.3361	935.6093	954.1797	1000.6497	1022.4471	1048.2847	1062.1235	1073.2655	1090.8806	1132.3391	1137.116	1183.9946	1201.4868	1247.1901	1288.5137	1291.6742	1331.9746	1348.1048	1385.6989	1389.6695	1409.426	1411.6595	1412.5916	1467.2401	1485.3912	1490.9263	1497.2545	1501.1558	1503.8231	1513.0683	2985.5085	3026.4479	3030.6143	3031.5366	3079.1212	3083.6277	3084.0304	3099.5856	3104.5804	3112.0812	3118.1822	3134.4895	3797.762	3817.7695
CCC1C(C)C1(O)CO	CC[C@H]1[C@@H](C)[C@]1(O)CO	
InChI=1S/C7H14O2/c1-3-6-5(2)7(6,9)4-8/h5-6,8-9H,3-4H2,1-2H3	InChI=1S/C7H14O2/c1-3-6-5(2)7(6,9)4-8/h5-6,8-9H,3-4H2,1-2H3/t5-,6+,7-/m1/s1
