12
gdb 11190	5.28108	1.44463	1.2059	4.8246	55.27	-0.2869	-0.0135	0.2735	915.7375	0.085674	-414.71188	-414.705162	-414.704217	-414.743292	23.794	
O	-0.0379200777	-0.0412413151	-0.049471326	-0.365481
C	-0.0645471425	 1.1516042984	-0.0093270708	 0.486984
N	-1.1124483949	 1.9831903964	 0.323128954	-0.368073
C	-0.8476666842	 3.3570281883	-0.0468456568	-0.201079
C	 0.7046435649	 3.3134872196	-0.0657740727	-0.004019
O	 1.0344320807	 1.9408532706	-0.2863251773	-0.238263
C	 1.2950832291	 4.1552931547	-1.107476124	 0.278005
N	 1.7417817762	 4.8526392509	-1.911783248	-0.299552
H	-2.039594379	 1.5913457867	 0.2838467971	 0.274431
H	-1.249525629	 3.6225074878	-1.0324489997	 0.142397
H	-1.2164537011	 4.07234936	 0.6917082667	 0.144208
H	 1.1102149975	 3.6195478218	 0.9060124677	 0.150442
83.0293	157.6017	196.9062	278.3341	463.5196	490.8944	515.3089	571.427	674.3088	731.1912	764.0528	876.9388	939.048	1043.6394	1054.2913	1087.5469	1100.4777	1210.9716	1220.4415	1330.7522	1345.3459	1381.7396	1438.4266	1533.3828	1915.4059	2372.8621	3029.3164	3042.9727	3102.1613	3654.1963
O=C1NCC(O1)C#N	O=C1NC[C@@H](O1)C#N	
InChI=1S/C4H4N2O2/c5-1-3-2-6-4(7)8-3/h3H,2H2,(H,6,7)	InChI=1S/C4H4N2O2/c5-1-3-2-6-4(7)8-3/h3H,2H2,(H,6,7)/t3-/m0/s1
