19
gdb 73824	2.2515	1.54297	1.34369	2.7075	83.19	-0.224	0.0089	0.2329	1092.9737	0.158519	-385.896869	-385.888263	-385.887319	-385.929952	32.564	
C	 0.0180849916	 1.4532827187	 0.1055505117	-0.519401
C	-0.0761371965	-0.0334210149	 0.0398600275	 0.228261
C	-0.0851801755	-0.8808651967	-1.0146754772	 0.228314
C	-0.0042799755	-0.6258108586	-2.4816030386	-0.519407
C	-0.0302029587	-2.2684343546	-0.3748000998	-0.226423
C	-0.9974114986	-2.0917914251	 0.8340814144	-0.22275
C	-0.0162219378	-0.9574083561	 1.2566063258	-0.226413
C	 1.0958098004	-1.9184755832	 0.6768672181	 0.422675
O	 2.2143277746	-2.2324609347	 0.9196107491	-0.312336
H	 0.940675077	 1.7685493845	 0.6099486227	 0.136104
H	 0.0136363324	 1.9035034632	-0.890854618	 0.126602
H	-0.8137666933	 1.8862974737	 0.6748657727	 0.128581
H	-0.0003656751	 0.4441533056	-2.7067743225	 0.126599
H	 0.9094030023	-1.0597923652	-2.9079959666	 0.136093
H	-0.8466122485	-1.0801274024	-3.0179713448	 0.128593
H	-0.0129374541	-3.1515482768	-1.0103430033	 0.078581
H	-2.0103036898	-1.7671282873	 0.5818542625	 0.101535
H	-1.0052318695	-2.9452167966	 1.5199755259	 0.106213
H	 0.0150521347	-0.5270185634	 2.2555506504	 0.078581
107.1276	139.0666	155.6178	167.742	242.3509	273.9224	335.7179	443.6817	480.4563	586.8092	589.1127	631.1203	664.157	792.8575	805.4981	859.9203	898.7329	952.2038	958.7194	1002.0841	1036.6607	1041.9628	1049.423	1061.1728	1095.0535	1151.72	1167.2911	1186.8557	1195.779	1243.9862	1251.2907	1339.1787	1410.889	1419.808	1476.68	1478.0301	1482.3639	1486.3257	1490.0393	1693.5737	1908.6301	3016.0965	3017.8528	3046.0626	3061.7782	3062.0086	3106.7661	3111.6232	3118.2096	3143.2097	3144.6975
CC1=C(C)C2CC1C2=O	CC1=C(C)[C@@H]2C[C@H]1C2=O	
InChI=1S/C8H10O/c1-4-5(2)7-3-6(4)8(7)9/h6-7H,3H2,1-2H3	InChI=1S/C8H10O/c1-4-5(2)7-3-6(4)8(7)9/h6-7H,3H2,1-2H3/t6-,7+
