16
gdb 123856	4.14835	1.52957	1.31539	5.3357	74.16	-0.2495	0.0055	0.255	959.4824	0.127707	-396.874302	-396.867887	-396.866943	-396.905351	25.124	
C	 0.1171198281	 1.5630985083	-0.1781416512	-0.22971
C	 1.602105988	 1.5385966431	 0.2928701333	-0.221918
C	 1.5187885504	-0.0060436136	 0.5246735681	-0.204384
C	-0.0014291722	 0.0359764594	 0.0716814818	-0.001849
N	 0.4425766911	-0.7930630826	-1.0715357203	 0.098874
N	 0.1885781417	-1.2646571949	-2.303087176	-0.184082
N	 1.3618933499	-1.6606355005	-2.7459101939	-0.180867
C	 2.3551707941	-1.3935053758	-1.8378208353	-0.206063
C	 1.745817303	-0.827367248	-0.7393056313	 0.296596
H	-0.5362171415	 2.142224897	 0.4774385931	 0.120818
H	-0.0666576162	 1.8636216079	-1.2105172187	 0.134764
H	 2.350835344	 1.8541461243	-0.4347450127	 0.122397
H	 1.7619398242	 2.0909490866	 1.2210032341	 0.115782
H	 1.8485834825	-0.4104754806	 1.4793344103	 0.102975
H	-0.8434962201	-0.3644141777	 0.6332423889	 0.113104
H	 3.380587113	-1.6465408029	-2.0469866002	 0.123563
106.7021	141.7289	272.1021	423.9565	445.4558	659.1562	696.7751	700.2234	734.0998	778.56	821.4142	831.317	836.5863	925.715	948.7851	977.7305	1004.6537	1024.5671	1105.0389	1109.6299	1118.6798	1133.4314	1178.9978	1198.7527	1231.4825	1239.477	1266.9801	1275.1897	1277.6686	1296.6877	1334.4591	1470.1993	1474.7081	1490.8395	1535.9148	3077.1493	3082.9705	3125.6087	3135.1597	3138.4553	3146.7207	3283.0741
C1CC2C1N1N=NC=C21	C1C[C@H]2[C@@H]1n1nncc21	
InChI=1S/C6H7N3/c1-2-5-4(1)6-3-7-8-9(5)6/h3-5H,1-2H2	InChI=1S/C6H7N3/c1-2-5-4(1)6-3-7-8-9(5)6/h3-5H,1-2H2/t4-,5+/m0/s1
