14
gdb 10388	2.51707	2.10737	1.41847	1.1384	59.13	-0.2663	-0.0664	0.1998	873.6027	0.104458	-419.659275	-419.651252	-419.650308	-419.693357	26.648	
O	-0.134876048	-0.0455041301	-0.2462025589	-0.233769
C	 0.0097907228	 1.0769670353	 0.1565430061	 0.103574
C	 1.3079835361	 1.8642262814	 0.0372942281	 0.083199
C	 2.4655027534	 1.1674612808	-0.6915386339	-0.130873
O	 2.3853198367	 2.0862597246	-1.8031047926	-0.259972
C	 1.3025295299	 2.8130286969	-1.2124138127	-0.099297
C	 1.5931071946	 2.5691750717	 1.3445559647	 0.072581
O	 0.8460690863	 3.3875940735	 1.8173070838	-0.247511
H	-0.8114708363	 1.649257389	 0.6353597503	 0.117158
H	 3.4364955771	 1.223315868	-0.1823380322	 0.107227
H	 2.2562355662	 0.1352815033	-0.9872338335	 0.13704
H	 0.3896233986	 2.7769474585	-1.8192764919	 0.123954
H	 1.551232873	 3.8573809545	-0.9919473886	 0.126635
H	 2.5374631196	 2.2742018625	 1.8529135115	 0.100055
28.8618	82.0682	97.6022	211.3821	239.3807	300.6171	334.4211	449.8389	655.7238	712.2719	857.4089	870.9663	945.037	948.9632	998.9864	1017.6896	1047.2116	1107.9374	1147.7886	1164.6829	1216.6377	1236.4828	1307.7219	1363.0952	1405.5961	1412.4016	1506.7689	1531.7701	1800.4191	1836.4173	2889.3718	2928.0775	3014.021	3023.2318	3069.8892	3091.1601
O=CC1(COC1)C=O	O=CC1(COC1)C=O	
InChI=1S/C5H6O3/c6-1-5(2-7)3-8-4-5/h1-2H,3-4H2	InChI=1S/C5H6O3/c6-1-5(2-7)3-8-4-5/h1-2H,3-4H2
