19
gdb 108876	2.45288	1.21569	0.85302	3.2683	74.46	-0.2365	0.012	0.2485	1335.1573	0.158926	-460.151316	-460.142157	-460.141213	-460.185403	33.826	
O	 0.082864199	 1.4242428891	-0.0757231342	-0.410235
C	 0.0098844123	 0.0187197303	 0.0576856594	-0.153517
C	-1.424178565	-0.4316765849	 0.0749838686	 0.233503
C	-2.4594514582	 0.4038710369	 0.1501989175	-0.192255
C	-3.8845773589	-0.0773185983	 0.1096615552	 0.074731
O	-4.7086433382	 0.7553853077	-0.7023133016	-0.428957
C	-3.9249243382	-1.5311832945	-0.3794270469	-0.108935
O	-2.9630263116	-2.3214868308	 0.2944407058	-0.242811
C	-1.6397497269	-1.9252404646	 0.0021348766	-0.151264
H	 0.997782885	 1.6899197913	 0.0504434999	 0.292028
H	 0.5356334854	-0.4901552207	-0.7708409899	 0.09493
H	 0.5017089547	-0.322476565	 0.9859405102	 0.101075
H	-2.2986565848	 1.4749360534	 0.2188512563	 0.112922
H	-4.3339438524	-0.0180844655	 1.109039834	 0.101775
H	-4.2577094103	 0.8686876081	-1.5468907218	 0.277997
H	-4.899980544	-1.9854690118	-0.1880729609	 0.113711
H	-3.7493986352	-1.5429610284	-1.469913975	 0.07468
H	-1.3410492618	-2.2897844881	-0.9993987334	 0.096486
H	-0.9987333807	-2.4419819242	 0.7277851802	 0.114136
76.7688	124.8694	139.8918	203.1034	225.9643	285.4592	318.2325	356.0464	392.9018	419.4613	468.1277	514.3595	569.371	659.9993	859.9833	898.9426	923.0537	960.8217	1000.7524	1035.733	1049.282	1070.7615	1095.1628	1128.5873	1153.4725	1178.9406	1229.6111	1237.2355	1252.2803	1268.019	1308.0823	1327.0409	1350.2115	1388.9135	1410.0757	1422.6776	1462.9765	1485.7614	1495.6879	1509.6915	1741.3998	2921.6832	2937.7562	2950.9961	2952.1761	3031.1076	3038.9151	3102.1174	3190.1954	3793.5113	3842.0915
OCC1=CC(O)COC1	OCC1=C[C@@H](O)COC1	
InChI=1S/C6H10O3/c7-2-5-1-6(8)4-9-3-5/h1,6-8H,2-4H2	InChI=1S/C6H10O3/c7-2-5-1-6(8)4-9-3-5/h1,6-8H,2-4H2/t6-/m1/s1
