16
gdb 125530	5.14353	1.31194	1.059	2.6848	78.03	-0.2266	-0.0233	0.2032	1104.7875	0.126778	-396.9716	-396.964401	-396.963457	-397.003333	27.375	
C	-0.0167114826	 1.4233040551	-0.0158318265	-0.483964
C	 0.0039417864	-0.067260077	 0.0106879073	 0.329247
N	-0.0419122189	-0.7964997393	-1.1066290629	-0.325362
N	-0.0007073176	-2.0494616464	-0.6044700853	 0.060126
C	-0.0093833957	-3.3577502677	-1.1168229311	-0.017186
C	 0.0521508686	-4.2144666284	-0.0873504683	-0.126686
C	 0.1076034177	-3.4490683273	 1.2304382858	-0.420241
C	 0.0656592083	-2.0300493326	 0.745620325	 0.387119
N	 0.0713424075	-0.7889998761	 1.1825934356	-0.400673
H	 0.8832108434	 1.8317725572	 0.4548530959	 0.138578
H	-0.0718365157	 1.7794890639	-1.0457775927	 0.138989
H	-0.8765826056	 1.8089376176	 0.5411001519	 0.138572
H	-0.0597641961	-3.5254957831	-2.1811993516	 0.15034
H	 0.0621131947	-5.290930968	-0.1618512301	 0.121626
H	-0.7375530678	-3.6892427808	 1.8859882208	 0.154757
H	 1.0191236334	-3.6670541572	 1.7990697262	 0.154758
101.2641	130.119	252.954	279.2516	308.5458	441.9568	511.1917	575.8186	682.2813	697.2567	724.8247	749.078	794.2008	908.7155	911.1427	935.8653	941.0962	988.6026	1035.0569	1067.1573	1090.9648	1140.3285	1196.5298	1247.7061	1292.7759	1328.2852	1400.4335	1404.88	1423.5731	1444.2519	1476.7897	1477.2856	1523.0079	1579.9884	1640.5331	3045.3987	3046.9973	3077.2032	3100.4546	3144.7232	3252.9785	3277.4939
CC1=NN2C=CCC2=N1	Cc1nn2C=CCc2n1	
InChI=1S/C6H7N3/c1-5-7-6-3-2-4-9(6)8-5/h2,4H,3H2,1H3	InChI=1S/C6H7N3/c1-5-7-6-3-2-4-9(6)8-5/h2,4H,3H2,1H3
