15
gdb 43229	2.416	1.90629	1.86725	3.5506	64.7	-0.2297	-0.0335	0.1963	847.0711	0.114699	-457.757443	-457.750898	-457.749954	-457.788202	26.031	
O	 0.0008340793	 0.0577911356	-0.1016904646	-0.321232
C	-0.0140912126	 1.2500233485	-0.0101092526	 0.437426
C	-1.2058502299	 2.2276810844	 0.063726634	-0.034098
O	-1.1975740287	 2.7247643321	 1.4204420153	-0.275641
C	-0.0208899252	 3.4423385328	 1.7370665142	 0.027166
O	 1.1660861138	 2.756730425	 1.3895310803	-0.275641
C	 1.1523234141	 2.2595703789	 0.0328894794	-0.034097
C	 0.6172493333	 3.2665130724	-0.9682488128	-0.102352
C	-0.7245525859	 3.2483703759	-0.9506998562	-0.102352
H	-2.1890715531	 1.7914911329	-0.1052125552	 0.103661
H	-0.0405265719	 4.4296245665	 1.2564790933	 0.097323
H	-0.0082434573	 3.5566587265	 2.8223153043	 0.131016
H	 2.1422242731	 1.8500606381	-0.1618526901	 0.103661
H	 1.2439171404	 3.9016591402	-1.5816668572	 0.122581
H	-1.3839866492	 3.8661261102	-1.5472980022	 0.122581
148.8265	222.0685	331.1185	348.3582	415.1814	427.9296	558.454	586.7916	677.7362	764.2347	782.4008	791.081	866.5806	902.6208	947.3111	947.9607	974.9133	985.1347	1016.2133	1103.218	1125.6053	1151.848	1178.3821	1225.6335	1247.3969	1282.2121	1335.1752	1339.9102	1361.8994	1432.3428	1517.2997	1625.3293	1891.3042	3011.9918	3120.935	3136.4239	3138.3437	3202.3916	3224.4801
O=C1C2OCOC1C=C2	O=C1[C@H]2OCO[C@@H]1C=C2	
InChI=1S/C6H6O3/c7-6-4-1-2-5(6)9-3-8-4/h1-2,4-5H,3H2	InChI=1S/C6H6O3/c7-6-4-1-2-5(6)9-3-8-4/h1-2,4-5H,3H2/t4-,5+
