16
gdb 27556	4.07596	1.09051	0.91691	3.4246	72.27	-0.2	0.0415	0.2415	1234.6301	0.126985	-434.083173	-434.075427	-434.074483	-434.115723	29.489	
O	-0.0203023543	 1.2701992602	 0.0618160084	-0.424049
C	-0.006113906	-0.0702813647	-0.0109375787	 0.456197
N	-0.1188803569	-0.8008504744	-1.086529501	-0.4394
C	-0.0433111196	-2.1160998321	-0.6342311444	 0.317583
C	 0.121608362	-2.1411507051	 0.7208018789	-0.214009
N	 0.1385578096	-0.8043208269	 1.1172810759	-0.30516
C	-0.1210686446	-3.2422035029	-1.5803299827	-0.102741
C	-0.9984005157	-3.1442164462	-2.7800275478	-0.238017
N	 0.4620610195	-3.0887050251	-2.9300735979	-0.326939
H	-0.132797995	 1.5905949846	-0.8418295617	 0.315531
H	 0.2246347104	-2.9458065196	 1.4282289952	 0.131515
H	 0.2498839407	-0.4418846879	 2.0483370483	 0.27374
H	 0.0438427686	-4.2206151967	-1.1363285454	 0.082663
H	-1.4686289032	-4.0395419854	-3.1780430256	 0.111383
H	-1.5652326203	-2.2254414538	-2.8976795362	 0.121527
H	 0.7368926147	-2.1126608339	-3.0316379352	 0.240177
77.7804	150.9989	159.0409	292.1833	384.8392	397.9687	418.2924	469.4877	485.8445	627.7436	667.0858	716.0669	742.7973	757.5423	825.213	881.928	972.7454	990.9353	1008.8682	1042.1594	1096.2259	1102.5985	1139.1898	1178.7172	1195.7413	1236.8057	1279.0552	1309.6171	1323.4461	1384.0407	1401.5212	1497.6042	1567.6989	1623.344	1630.8971	3108.9535	3139.483	3201.9176	3282.991	3483.309	3678.8735	3808.5324
OC1=NC(=CN1)C1CN1	Oc1nc(c[nH]1)[C@H]1CN1	
InChI=1S/C5H7N3O/c9-5-7-2-4(8-5)3-1-6-3/h2-3,6H,1H2,(H2,7,8,9)	InChI=1S/C5H7N3O/c9-5-7-2-4(8-5)3-1-6-3/h2-3,6H,1H2,(H2,7,8,9)/t3-/m1/s1
