20
gdb 23013	1.99742	1.26868	0.97856	1.2774	78.46	-0.244	0.0047	0.2487	1328.6666	0.167635	-440.231194	-440.220911	-440.219967	-440.267074	36.925	
C	-0.1016955095	 1.5690824355	 0.1101173219	-0.379824
C	-0.0594493184	 0.0557950653	-0.0969113297	-0.245834
C	 0.7090762669	-0.399927125	-1.3107051469	 0.297918
N	 1.3035653648	 0.4773734705	-2.025609685	-0.174267
O	 1.9838443642	-0.1136833155	-3.1066574537	-0.405126
C	 0.8118368643	-1.8642872721	-1.5952353203	-0.016624
O	-0.0599179894	-2.7326126116	-0.8670007164	-0.261968
C	-0.2385337914	-2.6386973777	-2.2848492394	 0.094446
C	-1.5243308175	-2.0477668516	-2.7996107228	-0.424705
H	 0.9042750714	 1.9819926681	 0.2191475659	 0.128217
H	-0.5679277624	 2.0719251617	-0.7413087017	 0.125081
H	-0.6748217179	 1.8096967557	 1.0101832877	 0.10677
H	 0.380733731	-0.4406340102	 0.7790811082	 0.123758
H	-1.073391592	-0.3577474153	-0.1566974423	 0.124006
H	 2.4027128482	 0.6472448782	-3.5218784554	 0.306882
H	 1.8362697223	-2.2231480688	-1.6981865824	 0.114264
H	 0.0992755378	-3.528718601	-2.8192329738	 0.094639
H	-1.7824852042	-1.1206961109	-2.2840355216	 0.131291
H	-1.4318035696	-1.8316661606	-3.86905792	 0.131029
H	-2.3479034885	-2.7573792346	-2.6690520226	 0.130047
42.8914	65.1493	154.9308	157.9969	192.7334	211.2623	221.6729	301.3098	342.0388	358.7889	402.2289	457.2764	532.3542	596.844	645.5498	755.7642	788.699	805.8342	878.4901	969.1795	993.3069	1003.2378	1028.9414	1072.0654	1096.2625	1109.4107	1151.6922	1163.1831	1232.7629	1280.3737	1292.5472	1365.1607	1383.2279	1402.6746	1413.6523	1416.6227	1455.4721	1467.1951	1483.6002	1491.9495	1500.4097	1502.7161	1724.3646	3023.1546	3042.5798	3048.5398	3052.3149	3088.3714	3104.8234	3107.8637	3118.3229	3125.0209	3137.4289	3823.071
CCC(=NO)C1OC1C	CCC(=NO)[C@H]1O[C@H]1C	
InChI=1S/C6H11NO2/c1-3-5(7-8)6-4(2)9-6/h4,6,8H,3H2,1-2H3	InChI=1S/C6H11NO2/c1-3-5(7-8)6-4(2)9-6/h4,6,8H,3H2,1-2H3/t4-,6-/m0/s1
