13
gdb 12165	4.00376	1.46843	1.13585	2.7023	59.98	-0.2727	-0.0542	0.2185	968.1109	0.094123	-398.610521	-398.602812	-398.601868	-398.642941	27.101	
O	 0.6026851574	 0.8309156375	 0.7015347862	-0.412089
C	 0.2198392133	-0.2767904253	-0.0323594671	 0.061271
C	-1.3125310449	-0.6790346715	-0.1949377085	-0.204664
C	-1.0274666133	-1.0687587575	-1.6853668206	-0.349955
C	 0.2494834897	-0.2241000978	-1.5679228036	 0.332637
O	 0.8753032497	 0.4569221351	-2.3258149356	-0.283824
C	-1.8239003415	-1.7063641126	 0.6891367625	 0.272895
N	-2.2106143431	-2.5410589725	 1.3897723681	-0.315664
H	 0.6142917641	 1.596519298	 0.1142686117	 0.302387
H	 0.7617588846	-1.15691879	 0.3353515298	 0.142254
H	-1.9357140559	 0.2167745862	-0.1373775346	 0.139953
H	-0.8155808022	-2.1345513836	-1.8029618115	 0.160286
H	-1.753230888	-0.7554981461	-2.436064577	 0.154514
84.427	127.3218	157.3473	218.7324	271.1496	340.3783	424.8649	494.6642	541.7514	623.6925	662.0845	760.5186	807.0856	890.6162	988.1627	1032.8031	1058.8356	1110.7896	1157.086	1175.8242	1208.1882	1238.3705	1309.671	1359.1124	1415.6264	1447.9933	1893.5723	2356.3667	3045.805	3082.4306	3091.344	3150.2902	3788.4213
OC1C(CC1=O)C#N	O[C@H]1[C@@H](CC1=O)C#N	
InChI=1S/C5H5NO2/c6-2-3-1-4(7)5(3)8/h3,5,8H,1H2	InChI=1S/C5H5NO2/c6-2-3-1-4(7)5(3)8/h3,5,8H,1H2/t3-,5-/m0/s1
