16
gdb 45376	3.13943	1.66227	1.46358	5.4742	63.58	-0.2591	0.0456	0.3048	917.0248	0.127839	-475.079105	-475.072425	-475.071481	-475.110305	26.508	
O	 0.0362424643	-0.0853756502	 0.0419160962	-0.382445
C	-0.0054640718	 1.1162318414	 0.0444393857	 0.462257
N	-1.1752743995	 1.8428996945	 0.0901237788	-0.35628
C	-1.2204273648	 3.2960158139	-0.0264111374	-0.031687
C	-0.8010177255	 3.7551361828	-1.4321574711	-0.074849
O	 0.6342977806	 3.6179393691	-1.4245808161	-0.258477
C	 1.0482505789	 3.2790049687	-0.1256126288	 0.220119
C	-0.0384150337	 3.8282895945	 0.7932767581	-0.267922
O	 1.147259689	 1.8541725811	 0.0350275332	-0.254541
H	-2.005249772	 1.2942341185	-0.0655096603	 0.260394
H	-2.2010457872	 3.6606114565	 0.2814515923	 0.094084
H	-1.21951027	 3.1278712891	-2.2240648773	 0.119207
H	-1.0680498907	 4.8031668783	-1.6214326763	 0.107773
H	 2.0627360282	 3.6456515375	 0.0253574659	 0.108701
H	-0.0142380913	 4.9203102008	 0.8084444068	 0.121996
H	 0.0061835956	 3.4336326035	 1.8079401402	 0.131671
103.099	160.7762	395.8797	410.7391	412.4108	458.4791	506.1608	554.3064	628.691	768.4368	783.6382	816.896	868.3114	882.9506	909.8538	936.4008	949.1651	1000.9559	1050.088	1062.8422	1090.0478	1115.5869	1172.6827	1199.4047	1239.4386	1267.7705	1305.9642	1328.0988	1373.5582	1388.5541	1416.563	1449.9586	1484.2159	1516.4567	1859.2909	3020.3344	3082.7459	3092.2102	3113.5219	3135.8484	3151.4369	3650.9699
O=C1NC2COC(C2)O1	O=C1N[C@@H]2CO[C@@H](C2)O1	
InChI=1S/C5H7NO3/c7-5-6-3-1-4(9-5)8-2-3/h3-4H,1-2H2,(H,6,7)	InChI=1S/C5H7NO3/c7-5-6-3-1-4(9-5)8-2-3/h3-4H,1-2H2,(H,6,7)/t3-,4+/m0/s1
