19
gdb 105844	2.06436	1.61157	1.2235	1.7025	77.19	-0.2288	0.0194	0.2482	1129.8412	0.158611	-419.168624	-419.159461	-419.158516	-419.20258	33.864	
C	-0.4980918731	 1.3256817346	 0.116010716	-0.334116
N	 0.3549725653	 0.1536039727	-0.1098437231	-0.376611
C	 0.8130969833	-0.471987336	 1.0690813658	 0.194076
C	 1.9859025355	 0.1083080083	 1.8819156932	-0.051772
C	 1.9427732649	 0.4777209885	 3.347221507	-0.422612
C	 2.0679950552	-1.2854806936	 1.366483477	-0.003739
O	 1.3177528899	-2.1803107889	 2.2335467766	-0.278326
C	 0.1311550445	-1.5230279361	 1.9006911141	 0.376874
N	-1.060173128	-1.822305623	 2.1510918869	-0.561391
H	 0.0793508526	 2.0946169832	 0.6387378705	 0.125367
H	-0.8017348895	 1.7349362405	-0.8515663289	 0.119015
H	-1.399760383	 1.1106808262	 0.7069412607	 0.130075
H	-0.1314905548	-0.5188227695	-0.6935468112	 0.230042
H	 2.5336852867	 0.8005876144	 1.2439741046	 0.108926
H	 1.4489133867	-0.2968872047	 3.9374167973	 0.142107
H	 2.9582511544	 0.6010214453	 3.7380861708	 0.122896
H	 1.4068666436	 1.4197717114	 3.4982363374	 0.124329
H	 2.8106533978	-1.7325526863	 0.7202187106	 0.125143
H	-1.121542102	-2.675518307	 2.7096186848	 0.229719
76.3597	124.4183	148.8666	176.074	183.9409	261.9741	283.0063	331.1779	417.5605	473.408	591.3211	642.3966	687.7953	741.2524	787.9697	803.0786	864.9647	916.9857	922.9439	949.5306	973.1697	1004.6903	1054.8293	1068.3505	1105.7803	1124.4898	1159.7522	1184.9888	1196.6812	1256.464	1282.6456	1352.7332	1415.9605	1444.9914	1475.8606	1484.7608	1491.863	1493.4763	1504.1759	1523.6148	1820.3901	3002.1939	3042.1479	3078.0189	3102.2028	3112.5576	3125.7047	3140.28	3217.9167	3474.2896	3522.3803
CNC12C(C)C1OC2=N	CN[C@]12[C@@H](C)[C@H]1O[C]2[NH]	
InChI=1S/C6H10N2O/c1-3-4-6(3,8-2)5(7)9-4/h3-4,7-8H,1-2H3	InChI=1S/C6H10N2O/c1-3-4-6(3,8-2)5(7)9-4/h3-4,7-8H,1-2H3/t3-,4+,6+/m0/s1
