16
gdb 32759	3.29925	1.09287	0.8591	1.5512	68.75	-0.2068	0.0067	0.2135	1325.4508	0.123451	-475.041372	-475.032603	-475.031659	-475.076221	30.96	
C	 0.0070982854	 1.4784397968	 0.0788469095	-0.388391
C	-0.2004326465	 0.0471474348	-0.3731225036	-0.060247
O	-1.1112892981	-0.5806962388	 0.5587453886	-0.270715
C	-1.454072561	-1.8345750457	 0.2736678734	 0.291574
C	-2.5870118898	-2.4356081544	-0.1750674158	 0.212341
O	-3.7458986674	-1.8525051814	-0.544265757	-0.43112
N	-2.4083636007	-3.803508421	-0.2070837985	-0.33409
C	-1.1922904465	-3.9772804182	 0.2086867621	 0.078795
O	-0.5390573117	-2.8459099171	 0.5245970636	-0.173952
H	 0.6945810942	 1.9895225394	-0.6014883082	 0.122059
H	-0.9421170068	 2.0208442798	 0.0878533907	 0.135845
H	 0.4308666643	 1.5064239799	 1.0864639698	 0.134071
H	-0.6371139137	-0.0013863514	-1.3784721129	 0.111834
H	 0.7435545196	-0.5110442711	-0.3798551458	 0.115146
H	-4.3478738721	-2.5670860397	-0.7835411322	 0.305732
H	-0.6564193793	-4.9057471619	 0.3254388062	 0.151119
44.373	47.6163	122.2711	235.3968	277.2503	288.5223	321.177	340.3643	421.5999	526.2061	642.3017	683.347	718.2953	781.4288	806.2351	816.0185	905.2263	953.3458	1044.2277	1063.7622	1129.6901	1155.0138	1177.9129	1196.9543	1289.5683	1318.7145	1355.0689	1386.9685	1410.5131	1443.534	1482.2481	1498.973	1520.8236	1551.5206	1760.4653	3020.2142	3048.3042	3063.7164	3123.3459	3128.6409	3275.7084	3812.023
CCOC1=C(O)N=CO1	CCOc1c(O)nco1	
InChI=1S/C5H7NO3/c1-2-8-5-4(7)6-3-9-5/h3,7H,2H2,1H3	InChI=1S/C5H7NO3/c1-2-8-5-4(7)6-3-9-5/h3,7H,2H2,1H3
