15
gdb 18942	6.6865	1.55186	1.48815	1.815	72.01	-0.2342	0.0292	0.2635	857.4276	0.118829	-325.38619	-325.379844	-325.3789	-325.416464	25.248	
C	-0.0661038494	-1.2718255169	-0.1039591111	-0.430623
C	-0.0556399929	-0.070260279	-0.0536369643	 0.325121
C	-0.0565325304	 1.3754986948	 0.0205170017	-0.169916
C	-0.0358302219	 2.0687929219	 1.3887046761	-0.067244
C	 1.4908226801	 1.7859661807	 1.5110276722	-0.002247
C	 1.8517432574	 3.2503442658	 1.7743483345	-0.258945
C	 0.7147046267	 3.2717751107	 0.7497371123	-0.005787
N	 1.3246929921	 2.061229443	-0.0133050468	-0.16244
H	-0.0729723457	-2.3325620412	-0.1551956584	 0.197348
H	-0.7338895356	 1.8055031438	-0.7266053521	 0.099861
H	-0.7935340297	 2.0754449808	 2.178577723	 0.074365
H	 1.9710592683	 0.8701018828	 1.8538857639	 0.09815
H	 1.6297058813	 3.6444776121	 2.7689877168	 0.102968
H	 2.8307660168	 3.5777390466	 1.415189009	 0.113501
H	 0.2811996628	 4.1054534441	 0.1945916934	 0.085887
132.1538	159.8	356.9561	392.35	513.7374	527.8846	625.3249	649.2737	712.169	795.0396	823.2718	853.2272	867.8247	878.4951	913.3524	941.7066	1020.1148	1024.74	1029.9528	1045.9362	1118.0304	1136.6044	1150.0947	1172.6873	1180.8312	1223.6911	1232.9639	1258.7708	1314.21	1371.6326	1490.7748	2231.9576	3039.7643	3055.2251	3060.2258	3102.9506	3125.3942	3127.1908	3503.4261
C#CC1C2C3CC2N13	C#C[C@H]1[C@H]2[C@@H]3C[C@H]2N13	
InChI=1S/C7H7N/c1-2-4-7-5-3-6(7)8(4)5/h1,4-7H,3H2	InChI=1S/C7H7N/c1-2-4-7-5-3-6(7)8(4)5/h1,4-7H,3H2/t4-,5-,6+,7-/m0/s1
