19
gdb 40447	3.99299	1.17891	1.06285	2.562	74.64	-0.2287	0.0884	0.3171	1166.0822	0.160176	-422.98828	-422.980508	-422.979564	-423.020775	30.173	
C	 0.6293870649	 1.4637501887	 0.2123487864	-0.174647
O	 1.1788531626	 0.2434087786	-0.2936865403	-0.23673
C	-0.2075166029	 0.2654886353	 0.0529189163	-0.041938
C	-0.6304200571	-0.5865319448	 1.2032103073	 0.316045
C	 0.3886054948	-1.0527133368	 2.2292518862	-0.389542
C	-0.2748617626	-2.0477144547	 1.3095511838	 0.085687
O	-1.3683502254	-2.7912689293	 1.7735457709	-0.257228
C	-2.3026237591	-1.8817052475	 2.3525347083	-0.091874
C	-2.0818910057	-0.5161419669	 1.6623481957	-0.317499
H	 0.9673947001	 1.7450463104	 1.2083982475	 0.114193
H	 0.5603836329	 2.2768315579	-0.5086021455	 0.115689
H	-0.8779276693	 0.2319992294	-0.8092483096	 0.09098
H	 1.4222768284	-0.8171990032	 2.0011559058	 0.132338
H	 0.1321000911	-1.0409045611	 3.2832133502	 0.111454
H	 0.3035417965	-2.5814260125	 0.5651932226	 0.11371
H	-3.3061048429	-2.2892182029	 2.2034702513	 0.11272
H	-2.1304252482	-1.798787467	 3.4345488689	 0.101367
H	-2.2945086755	 0.3175971197	 2.3384249506	 0.107426
H	-2.7315092427	-0.4098850133	 0.7854658237	 0.107849
75.3422	153.2108	190.0865	240.8698	300.0622	350.3376	453.3528	476.4908	623.5091	688.8964	701.3994	833.3567	849.6309	865.6726	891.4761	903.6974	933.6962	959.3155	1001.7822	1012.3166	1031.4933	1064.1097	1081.9954	1101.802	1112.4979	1152.6069	1167.9708	1173.1019	1210.8829	1228.7109	1247.4609	1268.8361	1299.4419	1314.6942	1378.6502	1404.4659	1441.9641	1472.2263	1495.9232	1522.978	1526.9363	3004.323	3035.7546	3078.4245	3081.5366	3086.3331	3092.6108	3133.942	3175.0245	3191.8818	3226.0536
C1OC1C12CC1OCC2	C1O[C@H]1[C@]12C[C@H]1OCC2	
InChI=1S/C7H10O2/c1-2-8-5-3-7(1,5)6-4-9-6/h5-6H,1-4H2	InChI=1S/C7H10O2/c1-2-8-5-3-7(1,5)6-4-9-6/h5-6H,1-4H2/t5-,6-,7-/m1/s1
