14
gdb 42608	2.80507	1.90611	1.39906	4.5249	66.9	-0.2559	-0.025	0.2309	896.2375	0.102358	-436.682952	-436.67659	-436.675646	-436.71381	25.35	
N	-0.0422060141	 1.274485983	 0.1723892698	-0.53979
C	-0.0232047648	 0.0314421416	-0.018101304	 0.433903
O	 1.1136543596	-0.7445444195	-0.1466167279	-0.243471
C	 0.7095443427	-2.0536070058	-0.4996547846	 0.087898
C	-0.6976166711	-2.1088671938	-0.917000983	-0.114629
C	-0.2447257191	-2.8319760395	 0.406151256	-0.235881
C	-1.1259995219	-1.8792792132	 1.1379466032	 0.445727
O	-1.741072254	-1.9401361927	 2.160198925	-0.315054
C	-1.207042568	-0.8985606456	-0.0848948426	-0.269575
H	 0.9047104686	 1.6545739638	 0.211756842	 0.232269
H	 1.4968578588	-2.6169945541	-0.9822662806	 0.136684
H	-1.1362943659	-2.5383504998	-1.8051911819	 0.131682
H	-0.0980725397	-3.884359684	 0.6148609372	 0.122689
H	-2.1647517211	-0.4252998004	-0.2747441786	 0.12755
135.4727	146.4618	398.0088	411.1919	465.8109	534.3538	629.2019	677.4542	716.0477	747.1889	807.8907	842.5157	858.7928	888.0434	890.2967	903.4684	949.6264	980.662	994.	1052.0289	1062.5001	1108.2977	1130.9769	1140.9634	1222.4772	1227.5156	1291.333	1307.1077	1403.852	1789.4699	1891.9954	3189.001	3202.0899	3216.5529	3235.7533	3481.675
N=C1OC2C3C2C(=O)C13	[NH][C]1O[C@@H]2[C@H]3[C@@H]2C(=O)[C@@H]13	
InChI=1S/C6H5NO2/c7-6-3-1-2(4(3)8)5(1)9-6/h1-3,5,7H	InChI=1S/C6H5NO2/c7-6-3-1-2(4(3)8)5(1)9-6/h1-3,5,7H/t1-,2+,3-,5+/m0/s1
