19
gdb 59315	3.04638	1.08447	0.88488	1.9803	72.42	-0.2354	-0.0312	0.2042	1320.4924	0.156172	-460.157548	-460.147654	-460.14671	-460.192627	36.049	
C	 0.0513068622	 1.4660331129	-0.198627867	-0.411054
C	 0.0331491214	-0.0434269892	 0.0473944224	 0.127889
O	 0.7511572794	-0.3836688373	 1.2299160908	-0.432907
C	-1.3857563128	-0.604600245	 0.104362525	-0.013853
C	-2.3029871358	-0.487915069	-1.1565241527	-0.381514
C	-2.7123814245	-1.9479216253	-0.9164088271	 0.377273
O	-3.5875544921	-2.6558121757	-1.3231242699	-0.296007
C	-1.5555159095	-2.1555027305	 0.0965603859	-0.002615
O	-0.4544291459	-2.7755811642	-0.5457789077	-0.422991
H	 1.0819825568	 1.8307861967	-0.2006161432	 0.12786
H	-0.4100646029	 1.726676594	-1.1562582968	 0.12109
H	-0.4981073456	 1.9965684003	 0.5901366002	 0.103795
H	 0.5728509071	-0.5530422955	-0.7565913475	 0.108136
H	 0.3774899876	 0.1274493842	 1.9566664792	 0.273658
H	-1.8998740659	-0.193127036	 0.9817195005	 0.071136
H	-3.1055669031	 0.2526706297	-1.1586616601	 0.129308
H	-1.7319495907	-0.3904168002	-2.0870015297	 0.139421
H	-1.8016381479	-2.6366524364	 1.0516430193	 0.083319
H	-0.7197565976	-3.6718969436	-0.7795729316	 0.298056
50.3786	86.5198	135.4647	191.1235	225.959	252.0375	280.9207	306.6648	333.362	382.0791	417.3185	474.0286	526.0825	571.7358	709.2327	725.0709	847.2794	895.3911	937.9104	978.6866	983.9403	1055.7248	1064.6629	1090.545	1101.2059	1138.5224	1162.4028	1192.2311	1220.6645	1257.2582	1268.1464	1300.2452	1323.2285	1387.2818	1396.6558	1403.5569	1421.5781	1437.6032	1492.2115	1495.3007	1892.0473	3019.8648	3021.607	3036.2275	3050.6327	3073.8032	3097.0296	3117.9321	3119.5823	3793.7643	3808.6927
CC(O)C1CC(=O)C1O	C[C@@H](O)[C@H]1CC(=O)[C@H]1O	
InChI=1S/C6H10O3/c1-3(7)4-2-5(8)6(4)9/h3-4,6-7,9H,2H2,1H3	InChI=1S/C6H10O3/c1-3(7)4-2-5(8)6(4)9/h3-4,6-7,9H,2H2,1H3/t3-,4-,6+/m1/s1
