13
gdb 21478	5.14102	1.6585	1.25495	1.7939	63.47	-0.2435	-0.0439	0.1996	892.1263	0.097157	-394.78303	-394.776183	-394.775239	-394.8143	25.416	
N	-0.1312066808	 1.3239837817	 0.1199729557	-0.554348
C	 0.0636906461	-0.0343520525	 0.0150148729	 0.229922
N	 1.1716481288	-0.6738047591	-0.0401831031	-0.51352
C	-1.1778538536	-0.8305267607	 0.0134007919	 0.473715
C	-1.4055747039	-2.1725580151	 0.0054835729	-0.316974
C	-2.8192875708	-2.2627525009	-0.0041100692	 0.03327
N	-3.3981497159	-1.0844254043	-0.0028458762	-0.139453
O	-2.3522817047	-0.1684374098	 0.0091048333	-0.234628
H	 0.6423287863	 1.9270354381	-0.1070441942	 0.254779
H	-1.0501085517	 1.6914003863	-0.0687079655	 0.273629
H	 1.9701597308	-0.0371399786	-0.0289524964	 0.20789
H	-0.6680116418	-2.9555073564	 0.0060674812	 0.146692
H	-3.4408344187	-3.1470123887	-0.012119493	 0.139025
73.7447	196.0127	208.5016	367.0224	411.4189	434.9429	500.5315	589.2665	644.9043	651.9795	763.7268	846.7965	853.5923	929.5415	929.9017	950.384	997.0865	1043.3547	1098.2902	1128.3164	1196.8311	1247.2038	1360.7825	1404.068	1512.7042	1626.1496	1652.2198	1708.6595	3247.7096	3303.0641	3462.933	3593.1391	3712.3117
NC(=N)C1=CC=NO1	NC(=N)c1ccno1	
InChI=1S/C4H5N3O/c5-4(6)3-1-2-7-8-3/h1-2H,(H3,5,6)	InChI=1S/C4H5N3O/c5-4(6)3-1-2-7-8-3/h1-2H,(H3,5,6)
