15
gdb 18996	5.45218	1.96021	1.73906	2.9511	66.31	-0.2551	0.0201	0.2752	759.6933	0.121889	-362.630724	-362.62523	-362.624286	-362.660129	22.705	
N	-0.02895837	 1.2682985555	-0.0246328272	-0.559193
C	-0.0306984698	 0.0088017035	-0.0055649108	 0.424323
O	 1.0713189863	-0.823449719	-0.0274754918	-0.264576
C	 0.4678862054	-2.1233389447	 0.0110268394	 0.119463
C	-0.7907928724	-2.1444467888	-0.8981149625	-0.071711
C	-1.461459386	-3.1296247312	 0.0865751605	-0.261139
C	-0.7314997348	-2.1158311196	 0.9972695777	-0.07171
C	-1.185169751	-0.9449413844	 0.0449483159	-0.124106
H	 0.9275277833	 1.6263872077	-0.0599598541	 0.224456
H	 1.224967155	-2.9044369765	-0.0008642816	 0.098707
H	-0.8160621522	-2.1426877404	-1.9878864083	 0.089727
H	-2.5525209878	-3.110078321	 0.1204115658	 0.108929
H	-1.0867461413	-4.1572799569	 0.090368097	 0.099963
H	-0.6886201568	-2.0811812851	 2.0859404206	 0.089727
H	-2.196327188	-0.5482856591	 0.0705917945	 0.097141
176.8586	342.7207	423.4836	476.8802	615.7842	663.8163	725.6683	806.0758	820.2614	884.4364	890.9819	902.8254	911.6313	919.2351	960.1405	999.124	1002.3957	1062.555	1072.436	1074.6384	1118.5302	1127.3044	1169.463	1186.7971	1223.2284	1234.101	1242.8573	1262.5164	1306.7136	1370.9648	1519.0626	1804.4467	3056.1393	3117.1187	3117.4793	3122.1093	3154.9901	3169.4067	3467.974
N=C1OC2C3CC2C13	[NH][C]1O[C@@H]2[C@H]3C[C@@H]2[C@@H]13	
InChI=1S/C6H7NO/c7-6-4-2-1-3(4)5(2)8-6/h2-5,7H,1H2	InChI=1S/C6H7NO/c7-6-4-2-1-3(4)5(2)8-6/h2-5,7H,1H2/t2-,3+,4-,5+
