20
gdb 22410	4.56182	0.8791	0.84303	1.0276	83.69	-0.2397	0.0076	0.2474	1426.6293	0.16998	-403.086821	-403.078013	-403.077069	-403.122218	33.556	
O	-0.2550509208	 1.3699162365	 0.5788056862	-0.396247
N	-0.023091351	-0.0109553493	 0.4123928244	-0.233633
C	-1.0438620625	-0.5825796955	-0.0706851051	 0.42714
C	-2.4316584682	-0.1537741276	-0.4976249977	-0.387907
C	-2.7295538052	-1.6531839136	-0.837813866	 0.376905
C	-3.9845741024	-2.3027208636	-0.1999326845	-0.278493
C	-4.7089220631	-2.1620794167	-1.5660955599	-0.206306
C	-3.3182965088	-1.9824602781	-2.2331000358	-0.280262
C	-1.2778912902	-2.0374977444	-0.4162065814	-0.407819
H	 0.5821788287	 1.6710617827	 0.9473008572	 0.304897
H	-3.0372213171	 0.2857384525	 0.3019282078	 0.123174
H	-2.4447956551	 0.5341419015	-1.3499369913	 0.12266
H	-3.8039794126	-3.3518565712	 0.0563281872	 0.100144
H	-4.4216671806	-1.8030061897	 0.6692513343	 0.097221
H	-5.3256449359	-2.9992293506	-1.8999257691	 0.097898
H	-5.3070356889	-1.2482803197	-1.6182237122	 0.105709
H	-3.2149458513	-1.2226677803	-3.0130753664	 0.09676
H	-2.9279410902	-2.930655541	-2.6172604601	 0.100225
H	-0.6526174684	-2.4202216315	-1.2301705115	 0.118951
H	-1.2073602263	-2.7331666206	 0.4266192639	 0.118983
7.7348	101.4998	197.2865	220.6294	285.5866	332.3065	373.4946	384.2064	406.2722	468.5609	590.	679.3011	747.633	762.9468	831.0421	857.442	863.1581	900.1056	913.2096	935.3528	962.1272	973.4002	1024.3513	1078.4378	1106.7028	1149.958	1164.1396	1189.3458	1200.589	1220.8635	1237.7942	1251.0677	1256.8219	1279.1915	1286.948	1301.9206	1401.4836	1444.7383	1460.8874	1473.7929	1484.6123	1505.2172	1784.5689	3036.3603	3040.6243	3041.1188	3046.2961	3061.367	3083.5565	3085.1934	3090.2398	3094.7786	3117.7527	3818.7724
ON=C1CC2(CCC2)C1	ON=C1CC2(CCC2)C1	
InChI=1S/C7H11NO/c9-8-6-4-7(5-6)2-1-3-7/h9H,1-5H2	InChI=1S/C7H11NO/c9-8-6-4-7(5-6)2-1-3-7/h9H,1-5H2
