12
gdb 21581	3.54378	2.36919	1.41999	5.6659	61.68	-0.2315	-0.0584	0.1731	789.2989	0.084482	-414.67437	-414.667554	-414.66661	-414.705481	24.967	
N	 0.0373137483	 1.3296314044	-0.1608807971	-0.568376
C	-0.0576822315	-0.0088890246	-0.0364027084	 0.229212
C	-1.1847678755	-0.7713920684	 0.0527191551	-0.245473
C	-1.0240434355	-2.1793624816	 0.1592579837	 0.060275
N	 0.0905380354	-2.8357302022	 0.1846592186	-0.107066
O	 1.2518447129	-2.0427902306	 0.0983010535	-0.251859
C	 1.2548561055	-0.6919485224	-0.0067461759	 0.446557
O	 2.303787066	-0.0927434146	-0.0690022002	-0.361473
H	 0.9655313755	 1.7227811851	-0.1533193492	 0.28627
H	-0.7662407209	 1.9293747249	-0.1137724219	 0.26959
H	-2.1784313675	-0.3385518104	 0.04147158	 0.106397
H	-1.8953732528	-2.8247521295	 0.2292990018	 0.135944
95.2293	161.5173	228.2187	328.2048	444.2139	488.5946	550.9892	561.3401	565.5183	594.6193	730.1122	797.8349	846.1631	901.2941	953.8453	965.5173	1030.4892	1111.8025	1177.9643	1328.0123	1381.8177	1423.9628	1586.3122	1629.3499	1693.1412	1798.4314	3175.2359	3194.7475	3597.6918	3741.058
NC1=CC=NOC1=O	Nc1ccnoc1=O	
InChI=1S/C4H4N2O2/c5-3-1-2-6-8-4(3)7/h1-2H,5H2	InChI=1S/C4H4N2O2/c5-3-1-2-6-8-4(3)7/h1-2H,5H2
