19
gdb 113995	4.06567	0.63609	0.5953	4.4732	77.11	-0.2619	0.0344	0.2963	1828.9237	0.159371	-419.191304	-419.181585	-419.18064	-419.227455	34.26	
O	-0.0652648016	 1.2620165254	-0.8182670335	-0.41844
C	 0.0222014898	 0.236142675	 0.1553253441	-0.067349
C	-1.30110634	-0.4804524415	 0.2956738239	-0.044217
N	-1.6678029027	-1.3483382614	-0.8433906316	-0.34984
C	-1.4768474213	-1.9452493631	 0.4913928499	-0.029986
C	-0.3554331252	-2.9496898026	 0.6345369176	-0.200011
C	-0.7558220759	-4.2982880227	-0.0016140052	-0.331898
C	 0.2902473834	-5.3100959607	 0.1186775498	 0.255701
N	 1.1286962082	-6.0981194222	 0.2257134051	-0.303854
H	-0.3359941063	 0.8311506336	-1.6375702108	 0.289824
H	 0.8235738525	-0.4744293801	-0.0883401063	 0.093715
H	 0.2869606432	 0.7267249026	 1.0979311071	 0.113566
H	-2.0923475972	 0.1495458214	 0.6994143469	 0.09631
H	-2.6559859916	-1.2576260666	-1.0605205626	 0.23778
H	-2.3830356617	-2.2293807864	 1.0278878619	 0.090042
H	 0.5511949398	-2.5880407724	 0.1456562156	 0.131036
H	-0.1199046694	-3.0966090161	 1.694204315	 0.123874
H	-1.668911391	-4.6861038429	 0.4656883002	 0.147037
H	-0.980824873	-4.1423044894	-1.0623279373	 0.166711
45.3828	68.4492	85.4105	101.7536	187.5271	229.2844	279.3126	391.9014	412.6526	430.4468	482.4794	535.487	578.8485	758.0646	808.5571	849.4413	897.5403	946.4961	977.2491	988.718	1027.0497	1027.4907	1055.3315	1072.6729	1140.3791	1174.2079	1198.9907	1253.9626	1269.3395	1276.4633	1288.2675	1318.5797	1359.9361	1376.0588	1405.8033	1440.6498	1468.1794	1481.8269	1486.125	1498.1714	2362.6944	3012.0561	3040.415	3057.5105	3076.83	3083.8892	3093.6202	3121.425	3126.8153	3512.4491	3793.6149
OCC1NC1CCC#N	OC[C@H]1N[C@H]1CCC#N	
InChI=1S/C6H10N2O/c7-3-1-2-5-6(4-9)8-5/h5-6,8-9H,1-2,4H2	InChI=1S/C6H10N2O/c7-3-1-2-5-6(4-9)8-5/h5-6,8-9H,1-2,4H2/t5-,6+/m0/s1
