21
gdb 103567	2.2898	1.25516	1.14537	1.7835	80.19	-0.2439	0.0239	0.2678	1242.6525	0.181618	-420.414899	-420.404792	-420.403847	-420.449761	37.41	
C	 0.0155331216	 1.5788427765	-0.1642243351	-0.396955
C	-0.0209641654	 0.1061861023	 0.2586634323	-0.205452
C	-1.3864570847	-0.5562436645	 0.1072414134	 0.421182
C	-2.497622583	 0.0906675998	 0.913341216	-0.452834
O	-1.7646127516	-0.6112896233	-1.3314933223	-0.296549
C	-1.6053010001	-1.9750128751	-1.3774397849	 0.399632
N	-1.6112662786	-2.7735025171	-2.3470538664	-0.555274
C	-1.3628870092	-2.1222062726	 0.1185993097	-0.171687
N	-0.203366073	-2.815095445	 0.6340868009	-0.518194
H	 1.0408607704	 1.958830095	-0.1360745689	 0.115685
H	-0.361222951	 1.6962095246	-1.1845788995	 0.134643
H	-0.5861010093	 2.2118068035	 0.4947131666	 0.118773
H	 0.7032411151	-0.4535356703	-0.3440807078	 0.09409
H	 0.2978202545	-0.0084331324	 1.3008186371	 0.115126
H	-2.638334048	 1.1378852402	 0.6336581443	 0.13254
H	-3.4442886218	-0.4320364491	 0.7496603792	 0.123463
H	-2.2593929095	 0.0494535519	 1.98147686	 0.12776
H	-1.7705552539	-2.2845878152	-3.2302468535	 0.224169
H	-2.2530646293	-2.5097701869	 0.622148415	 0.105703
H	-0.4242162169	-3.7939299915	 0.7798366177	 0.243946
H	 0.5547881637	-2.7957991708	-0.0404314638	 0.240232
68.7894	93.6156	161.3417	181.6939	206.5818	222.3691	240.3245	301.7153	320.1764	344.1597	425.0443	454.8204	571.1458	635.1623	678.3844	769.9769	786.8009	825.1889	843.5241	872.6634	920.2659	961.2603	998.703	1017.7368	1033.6642	1064.8436	1138.4853	1155.603	1180.8044	1217.5067	1234.5608	1268.3218	1299.3936	1334.0783	1381.1442	1410.2944	1411.3183	1432.8985	1469.6981	1486.1719	1494.6676	1507.0836	1511.7999	1672.6123	1812.454	3037.228	3041.5743	3044.2088	3073.5517	3074.7995	3110.1548	3112.7142	3118.2866	3123.2587	3466.4348	3512.7736	3587.2241
CCC1(C)OC(=N)C1N	CC[C@@]1(C)O[C]([NH])[C@H]1N	
InChI=1S/C6H12N2O/c1-3-6(2)4(7)5(8)9-6/h4,8H,3,7H2,1-2H3	InChI=1S/C6H12N2O/c1-3-6(2)4(7)5(8)9-6/h4,8H,3,7H2,1-2H3/t4-,6-/m1/s1
