19
gdb 75949	2.19863	1.84874	1.02801	3.1386	79.42	-0.1992	0.019	0.2182	1157.1508	0.160674	-419.266595	-419.257525	-419.256581	-419.300803	33.229	
C	-0.1301242685	 1.4969458795	 0.0116652861	-0.354959
N	-0.0194500375	 0.0441567119	 0.0279757482	-0.210873
C	 0.0569425158	-0.6012795783	-1.2103244224	 0.469552
O	 0.0464910968	 0.0061008649	-2.2687215362	-0.419858
N	 0.1849676744	-1.9636544356	-1.1638964562	-0.366147
C	-0.057242414	-2.8241922165	-0.0162177703	-0.210028
C	 0.0492638625	-2.0180614074	 1.2400845086	-0.176539
C	 0.0559794576	-0.6803565909	 1.2324102489	 0.374941
C	 0.1551757465	 0.1207105644	 2.5012609938	-0.486321
H	 0.7288297918	 1.9744600915	 0.4943686656	 0.122556
H	-0.1608319708	 1.7992328887	-1.0331344288	 0.175928
H	-1.044863291	 1.8340823358	 0.510563922	 0.122282
H	 0.1709813226	-2.373946616	-2.0840503515	 0.25111
H	-1.04507029	-3.3152157169	-0.0885838681	 0.105861
H	 0.6842150148	-3.6360904106	-0.0166761036	 0.112815
H	 0.1116882941	-2.5489347911	 2.1809295647	 0.088114
H	 0.204434215	-0.5525272911	 3.3584053787	 0.130435
H	 1.0495303074	 0.7533695683	 2.5132266627	 0.136443
H	-0.7079996274	 0.7809432892	 2.6373473078	 0.134686
50.1299	106.837	130.4022	196.3427	208.203	266.7976	342.7229	392.8234	464.6817	514.4799	537.5053	571.2235	585.8347	690.6645	741.3065	766.4914	794.9474	944.3799	964.1675	1040.3332	1057.7516	1069.77	1114.6619	1156.0798	1166.8101	1234.9954	1238.9922	1278.0008	1318.5209	1394.874	1421.791	1428.2488	1453.899	1477.2071	1490.921	1494.1378	1511.8277	1516.8132	1538.6287	1747.5749	1785.3393	2920.6697	2995.279	3029.067	3039.5988	3080.8075	3091.7061	3136.6493	3174.1383	3211.6307	3641.2797
CN1C(=O)NCC=C1C	CN1C(=O)NCC=C1C	
InChI=1S/C6H10N2O/c1-5-3-4-7-6(9)8(5)2/h3H,4H2,1-2H3,(H,7,9)	InChI=1S/C6H10N2O/c1-5-3-4-7-6(9)8(5)2/h3H,4H2,1-2H3,(H,7,9)
