25
gdb 123143	5.48301	0.46584	0.44372	1.8088	87.5	-0.2541	0.0766	0.3307	2548.5037	0.225778	-426.627223	-426.61525	-426.614306	-426.665848	41.814	
C	 0.6529435032	 1.3392738879	 0.4196402022	-0.379269
C	 0.077344097	-0.0047871644	-0.0345706116	-0.165324
C	 0.9208993342	-0.6772049662	-1.122249912	-0.179814
C	 0.3462820838	-2.0119377527	-1.575404338	-0.046203
O	 1.1889836329	-2.5587129925	-2.5687874261	-0.24933
C	 0.7417766813	-3.7973174635	-3.0691805851	-0.063151
C	 1.7242624966	-4.2912690998	-4.1343758946	 0.108564
C	 3.1318123427	-4.4913638056	-3.580990271	-0.396427
O	 1.2100006285	-5.4696529852	-4.7453969167	-0.430233
H	 1.662744012	 1.2194230139	 0.8273808142	 0.115256
H	 0.716744176	 2.0445240577	-0.4162731893	 0.115812
H	 0.0321938389	 1.7974916632	 1.1957782849	 0.111664
H	-0.0072420907	-0.6769565792	 0.8296645748	 0.09595
H	-0.9459304696	 0.1425007135	-0.4047922155	 0.096788
H	 1.0046096823	-0.0180076718	-1.9950956488	 0.103962
H	 1.9425719835	-0.8420178932	-0.757904562	 0.102292
H	 0.2652817785	-2.7064090141	-0.7206925349	 0.082188
H	-0.674069849	-1.8764947771	-1.9743269552	 0.084679
H	 0.6710040621	-4.5447835692	-2.2559803174	 0.067506
H	-0.2600401277	-3.7075041117	-3.5183050765	 0.093773
H	 1.7527456026	-3.5444040649	-4.9360107114	 0.098636
H	 3.1308149464	-5.2589432309	-2.7953846266	 0.098905
H	 3.813825711	-4.8118596256	-4.3730531121	 0.120251
H	 3.5022382131	-3.5632465293	-3.1391651784	 0.136504
H	 1.2902732704	-6.1875196493	-4.107572913	 0.277021
41.768	50.9217	75.5745	107.7751	130.6528	161.2595	189.7557	246.3855	252.8752	262.3743	282.72	338.5345	395.8269	448.5884	493.8398	527.0926	744.2881	815.0274	848.3823	907.5329	928.0594	953.2145	967.406	1022.9148	1038.099	1071.2115	1080.913	1129.907	1158.1321	1161.8275	1172.1863	1197.7592	1242.03	1255.3074	1290.3845	1303.1298	1310.8599	1323.7646	1359.0814	1383.9017	1396.5514	1399.1161	1413.9413	1419.4003	1449.8042	1487.5465	1488.4653	1496.0255	1497.0114	1500.5173	1507.7592	1514.3718	1533.4933	2924.833	2946.7179	2970.3813	2993.7031	3013.0613	3020.949	3027.9583	3032.3663	3038.9706	3053.998	3072.4513	3098.4299	3100.3456	3103.2632	3134.3708	3798.1915
CCCCOCC(C)O	CCCCOC[C@@H](C)O	
InChI=1S/C7H16O2/c1-3-4-5-9-6-7(2)8/h7-8H,3-6H2,1-2H3	InChI=1S/C7H16O2/c1-3-4-5-9-6-7(2)8/h7-8H,3-6H2,1-2H3/t7-/m1/s1
