21
gdb 73850	2.37043	1.52718	0.99177	1.0524	90.57	-0.2067	-0.0143	0.1925	1248.3453	0.182285	-387.098624	-387.08935	-387.088405	-387.132569	34.787	
C	 0.2093723275	 1.5463282286	-0.2050773907	-0.496635
C	-0.0265933785	 0.0741118446	 0.0006656892	 0.200622
C	-1.2307101623	-0.5273967445	 0.0935986422	 0.207252
C	-2.5552319095	 0.19987794	 0.0096210279	-0.492411
C	-1.3910317203	-1.9705194833	 0.3296743353	-0.098973
C	-0.554548058	-2.9984571286	 0.1239844948	-0.097153
C	 0.8085878787	-3.0099872731	-0.4987209629	-0.134408
O	 1.3107050109	-1.7656059403	-0.9152865777	-0.237184
C	 1.2400414838	-0.7525507336	 0.0855408817	-0.190309
H	 0.886026584	 1.9390806736	 0.5655403778	 0.124652
H	 0.7067798902	 1.7249528773	-1.1681462964	 0.133032
H	-0.6988929504	 2.1482254382	-0.1823922324	 0.122129
H	-2.4558443494	 1.2761751016	-0.1268392246	 0.121268
H	-3.1549219751	-0.186396241	-0.8236823872	 0.129733
H	-3.1437564778	 0.0309948401	 0.9204012221	 0.12428
H	-2.3632969082	-2.2332752066	 0.7463876513	 0.078852
H	-0.898116242	-3.99044047	 0.4155197547	 0.088646
H	 1.5099452621	-3.5103943139	 0.1969606011	 0.09192
H	 0.787314722	-3.6338792462	-1.4034099873	 0.120489
H	 2.1143037058	-0.1117610985	-0.0687939877	 0.101195
H	 1.3338043066	-1.2060335943	 1.0847922888	 0.103004
89.6895	116.8852	126.382	156.7149	248.7261	280.598	329.3031	359.8519	398.1691	433.2795	460.3075	551.2655	621.4511	686.7516	757.5218	806.5297	886.7613	911.4876	963.6689	987.8074	1006.2513	1011.2035	1035.2437	1052.1686	1070.2252	1125.9796	1145.4586	1186.6683	1249.2577	1266.3004	1290.6612	1325.3458	1388.404	1402.464	1413.8081	1420.7146	1447.7328	1477.7024	1479.8912	1482.1661	1485.7888	1488.4459	1501.7893	1685.7222	1719.8915	2913.3302	2980.7733	3011.5672	3022.8981	3023.8633	3050.9459	3066.6949	3068.142	3114.119	3135.557	3140.5136	3153.1358
CC1=C(C)C=CCOC1	CC1=C(C)C=CCOC1	
InChI=1S/C8H12O/c1-7-4-3-5-9-6-8(7)2/h3-4H,5-6H2,1-2H3	InChI=1S/C8H12O/c1-7-4-3-5-9-6-8(7)2/h3-4H,5-6H2,1-2H3
