15
gdb 129731	2.31986	1.92378	1.05738	1.7367	73.57	-0.2019	-0.03	0.172	1052.8103	0.115445	-450.136284	-450.128322	-450.127378	-450.168851	29.914	
N	-0.2467178121	 1.4015233157	 0.0671778945	-0.622796
C	-0.0456828902	-0.0146233361	 0.0194702846	 0.052907
C	-1.1705309407	-0.7828628001	 0.0233373653	 0.482502
O	-2.4078160256	-0.2765257873	 0.0685461488	-0.414119
N	-1.0970852161	-2.1417844943	-0.0196629159	-0.29999
N	 0.067450172	-2.8200183058	-0.0681457314	-0.195616
C	 1.1549016373	-2.1180221258	-0.0731596237	-0.053694
C	 1.2501988632	-0.6502842065	-0.0311166528	 0.205669
N	 2.3391104519	 0.0474199114	-0.0363691302	-0.579612
H	 0.253804252	 1.7806020874	 0.8701167564	 0.255082
H	 0.2156209169	 1.8291916263	-0.7342440096	 0.255093
H	-2.2577401351	 0.6896940856	 0.094131616	 0.309439
H	-1.9352330638	-2.699958739	-0.0160019604	 0.281862
H	 2.074309973	-2.697853906	-0.1128088832	 0.121367
H	 3.1547322373	-0.5667312156	-0.0746882882	 0.201904
77.9137	151.9021	222.0032	265.6102	279.5575	321.3826	423.4172	505.415	514.8489	568.3067	585.183	654.7765	693.8663	724.5895	761.8125	823.765	872.701	932.1892	946.7652	1064.0938	1117.0843	1188.897	1224.7549	1238.9601	1307.7804	1362.7144	1407.1178	1429.3577	1554.2029	1612.3098	1641.0782	1665.4142	1718.9161	3159.3386	3447.8663	3461.151	3506.0431	3585.508	3656.0271
NC1=C(O)NN=CC1=N	NC1=C(C=NN[C@@H]1O)[NH]	
InChI=1S/C4H6N4O/c5-2-1-7-8-4(9)3(2)6/h1H,(H2,6,7)(H3,5,8,9)	InChI=1S/C4H7N4O/c5-2-1-7-8-4(9)3(2)6/h1,4-5,8-9H,6H2/t4-/m1/s1
