15
gdb 43391	2.52387	1.65368	1.01532	6.3883	77.42	-0.2413	-0.0878	0.1534	1104.8309	0.11321	-420.657433	-420.649749	-420.648805	-420.691029	28.169	
O	 0.099093095	 0.4709772539	 1.2885984632	-0.284618
C	 0.026693346	 1.331138237	 0.4376594448	 0.257287
C	-1.2995129222	 1.7294780881	-0.0710962296	-0.144412
C	-1.659616127	 2.496109045	-1.1057994649	-0.050015
C	-0.8605595046	 3.2207780776	-2.136562749	-0.32611
C	 0.6311401619	 3.248936135	-2.1228836364	-0.050002
C	 1.5272043747	 2.7525302909	-1.2634413008	-0.144439
C	 1.3650383828	 1.9807197906	-0.0166880729	 0.257285
O	 2.328964065	 1.798981411	 0.6953226515	-0.284588
H	-2.0889213132	 1.2718308532	 0.5196585515	 0.119476
H	-2.7311811539	 2.6094454225	-1.2645137243	 0.116441
H	-1.1799101409	 2.8459989153	-3.1239602855	 0.148891
H	-1.2092843597	 4.2673870308	-2.1566821754	 0.14889
H	 1.0376217465	 3.8042305068	-2.9671083669	 0.116439
H	 2.5787321196	 2.9465283024	-1.4590374353	 0.119476
24.8519	78.8345	282.9298	325.637	339.4956	352.1435	425.7218	451.7275	543.7492	618.5397	713.965	734.6102	769.1906	820.5547	872.0429	896.2742	959.8331	995.1885	1042.3538	1051.0131	1145.2875	1203.8739	1239.9427	1258.1181	1329.5728	1416.0463	1419.2031	1422.0131	1439.2204	1705.8902	1720.3521	1754.5375	1764.182	2977.5054	2982.9303	3136.6497	3137.2844	3170.5617	3171.5509
O=C1C=CCC=CC1=O	O=C1C=CCC=CC1=O	
InChI=1S/C7H6O2/c8-6-4-2-1-3-5-7(6)9/h2-5H,1H2	InChI=1S/C7H6O2/c8-6-4-2-1-3-5-7(6)9/h2-5H,1H2
