19
gdb 97480	6.07158	0.44274	0.42535	1.9839	102.04	-0.2327	-0.0121	0.2205	2598.7028	0.156313	-385.8509	-385.839896	-385.838952	-385.890077	37.901	
C	-0.1648682569	 1.5595557535	 0.0181436028	-0.366579
C	 0.0968759161	 0.042120347	-0.0389376292	-0.343925
C	 0.7923160745	-0.4644235379	 1.1348573525	 0.292782
C	 1.3706222226	-0.8685414642	 2.11934052	-0.231733
C	 2.0206340074	-1.3236383099	 3.2235635365	-0.287829
C	 2.5973628312	-1.725976453	 4.2103226221	 0.347897
C	 3.3286064243	-2.2351807492	 5.3728060498	-0.055664
C	 3.1822966721	-3.7587097356	 5.5072672512	-0.384673
O	 4.6983292164	-1.8384147124	 5.3507689353	-0.410451
H	 0.7746764074	 2.112968572	 0.0937080785	 0.133366
H	-0.6879442097	 1.8863063711	-0.8852301533	 0.118461
H	-0.7788885594	 1.8151577981	 0.8855320661	 0.133313
H	-0.8557294199	-0.4921956227	-0.1513336365	 0.137355
H	 0.6829828329	-0.1971977625	-0.936048651	 0.137018
H	 2.9243067079	-1.7635158737	 6.2772798358	 0.122545
H	 3.5749938901	-4.2607997046	 4.6173467283	 0.119287
H	 3.7434453421	-4.098955538	 6.3814495132	 0.126905
H	 2.1318532121	-4.0411393049	 5.621857749	 0.127854
H	 5.0612196288	-2.1022601431	 4.497680959	 0.28407
5.69	56.1864	68.0224	126.9783	160.4305	235.1378	239.7053	259.8574	287.1849	337.5354	361.8596	447.8118	492.1585	535.541	549.8828	596.5792	643.6447	783.1788	823.6433	910.7195	982.3975	1033.0207	1076.3581	1085.5212	1100.4032	1112.4815	1261.5042	1281.446	1282.4298	1332.6472	1354.3383	1398.2429	1408.8619	1415.6082	1468.6136	1487.214	1491.0124	1494.3993	1504.8997	2268.8957	2377.683	3016.1665	3032.218	3039.9663	3043.9925	3046.7691	3115.8628	3121.3046	3127.5557	3127.824	3802.067
CCC#CC#CC(C)O	CCC#CC#C[C@@H](C)O	
InChI=1S/C8H10O/c1-3-4-5-6-7-8(2)9/h8-9H,3H2,1-2H3	InChI=1S/C8H10O/c1-3-4-5-6-7-8(2)9/h8-9H,3H2,1-2H3/t8-/m1/s1
