19
gdb 115741	2.8027	1.20932	0.98873	1.8172	71.21	-0.2475	0.0673	0.3148	1233.6303	0.158568	-460.105316	-460.096307	-460.095363	-460.139858	32.326	
O	-0.0240379007	 1.3841433815	-0.3951039325	-0.426815
C	 0.0345021547	 0.0828296527	 0.1780725179	-0.117578
C	-1.3450673884	-0.5225042758	 0.0062652928	-0.034742
C	-1.7549279801	-0.9700647775	-1.4099972916	-0.070832
O	-2.0795546363	-2.3012066324	-0.9415118542	-0.291676
C	-1.5947689434	-2.0121676043	 0.3827930147	 0.078179
C	-0.4119819249	-2.8694533289	 0.7642266118	 0.048802
C	-0.1364527586	-4.1291727773	 0.0619171877	-0.172438
O	 0.6538936539	-2.9602722481	-0.1812914231	-0.235197
H	 0.868360803	 1.7412744959	-0.418557774	 0.288631
H	 0.7864407815	-0.5428543367	-0.3186933521	 0.122922
H	 0.2935081291	 0.1316606989	 1.248971284	 0.082622
H	-2.0797230251	 0.1459253731	 0.4617050632	 0.090758
H	-2.6247302816	-0.4724592702	-1.850593251	 0.105271
H	-0.935239467	-0.9867251541	-2.1378276914	 0.110866
H	-2.3798876515	-2.1607464183	 1.1383285516	 0.078263
H	-0.0890536393	-2.7705403457	 1.802778126	 0.092627
H	 0.3743958383	-4.9360069633	 0.5847095954	 0.112556
H	-0.7879835637	-4.4163425995	-0.7586563556	 0.137781
62.1616	95.3694	114.3035	143.5513	236.7997	246.9356	264.2735	344.8689	420.9727	528.7296	616.6435	756.7605	812.0689	865.3078	893.4307	919.4752	937.0195	971.1438	996.2925	1027.0093	1067.5532	1092.8731	1100.289	1126.6063	1149.467	1164.5439	1166.1981	1172.8742	1224.8653	1255.9946	1279.0337	1284.4455	1289.653	1342.3119	1372.9528	1386.5559	1424.8266	1462.7449	1512.1221	1520.8224	1533.8214	2962.8286	2997.4669	3029.5978	3044.6448	3073.5377	3088.8054	3091.3594	3099.7477	3199.7134	3831.8687
OCC1COC1C1CO1	OC[C@H]1CO[C@H]1[C@H]1CO1	
InChI=1S/C6H10O3/c7-1-4-2-9-6(4)5-3-8-5/h4-7H,1-3H2	InChI=1S/C6H10O3/c7-1-4-2-9-6(4)5-3-8-5/h4-7H,1-3H2/t4-,5+,6+/m0/s1
