20
gdb 124486	2.47761	1.28658	1.04467	4.4221	81.77	-0.2384	0.0049	0.2433	1258.7292	0.170858	-399.350476	-399.340846	-399.339902	-399.385735	34.662	
C	-0.0404929982	 1.5835550644	 0.0402536514	-0.378537
C	 0.0112847547	 0.0449489927	 0.0500138741	-0.084127
C	 0.7584535445	-0.4751027064	 1.2915976834	-0.378539
C	-1.3715666433	-0.5389921979	-0.0274795012	 0.262281
C	-1.9481615316	-1.3488293456	-0.9855448041	 0.215043
C	-1.4513783123	-1.9383158334	-2.2624373589	-0.51069
N	-3.2062983482	-1.547010905	-0.5096037517	-0.224044
N	-3.4106733259	-0.9099810763	 0.6589954659	-0.12324
N	-2.3000295822	-0.3016360625	 0.9497512789	-0.260308
H	 0.9685451409	 2.0055032652	 0.0921155177	 0.105403
H	-0.5225590974	 1.958739457	-0.8677698994	 0.108887
H	-0.612589248	 1.9479691506	 0.8983171409	 0.140186
H	 0.5617958089	-0.2832750764	-0.8411808043	 0.068211
H	 0.2196474117	-0.1956735046	 2.2015492353	 0.140092
H	 0.8449766054	-1.5659268834	 1.2748480273	 0.108857
H	 1.7670328488	-0.0519216219	 1.342381387	 0.105462
H	-1.4635735279	-3.0340171251	-2.2378580962	 0.140746
H	-2.054319122	-1.6191728906	-3.1201794711	 0.140085
H	-0.4222344492	-1.6233978774	-2.4463820137	 0.149841
H	-3.9565305088	-2.0851550035	-0.9133520711	 0.274391
35.6514	71.4291	147.9135	175.2331	229.1471	248.1019	251.2864	279.997	366.6554	428.2435	504.0953	558.3121	620.0023	703.5167	711.8804	770.3194	890.7839	929.9758	965.1387	983.1695	1024.1662	1063.0999	1077.9717	1089.9984	1125.8143	1149.8138	1202.9144	1255.7578	1321.8351	1333.7926	1361.1202	1378.9738	1394.8461	1415.8353	1422.9856	1472.3339	1482.959	1485.4072	1492.2823	1499.7573	1505.2022	1518.2827	1627.1333	3018.5156	3030.6046	3033.2053	3037.2244	3081.0376	3101.9894	3105.4144	3116.2735	3120.7051	3128.0904	3651.8426
CC(C)C1=C(C)NN=N1	CC(C)c1c(C)[nH]nn1	
InChI=1S/C6H11N3/c1-4(2)6-5(3)7-9-8-6/h4H,1-3H3,(H,7,8,9)	InChI=1S/C6H11N3/c1-4(2)6-5(3)7-9-8-6/h4H,1-3H3,(H,7,8,9)
