20
gdb 116057	3.14786	1.14212	0.89562	2.0822	77.01	-0.2434	0.0171	0.2605	1316.1452	0.171633	-440.275413	-440.266416	-440.265472	-440.309694	32.766	
C	 0.0162385548	 1.4481968294	-0.0922626735	-0.243089
O	 0.1047294414	 0.0437268789	 0.0107498551	-0.243094
C	 0.6533040375	-0.6036398855	-1.1292398288	 0.103292
C	 1.2976419578	-1.899711575	-0.6590337489	-0.227634
C	 2.1116826858	-2.6122059427	-1.744382218	-0.16148
N	 1.442636286	-3.1027103658	-2.9375657564	-0.242524
C	 0.5731713443	-2.4879844485	-3.6086961096	 0.11949
O	-0.0629441051	-1.293821962	-3.4297399558	-0.229977
C	-0.4755153108	-0.8665957329	-2.1313766545	-0.080798
H	 1.0059842131	 1.9047104373	-0.2451699549	 0.110036
H	-0.6424128275	 1.7763244063	-0.9098207392	 0.108148
H	-0.398448759	 1.8123405878	 0.8507963904	 0.131773
H	 1.4131250082	 0.0396676783	-1.6036447216	 0.070447
H	 1.9650192755	-1.6709936989	 0.1790082779	 0.106517
H	 0.5166975929	-2.5664257733	-0.2728006492	 0.108643
H	 2.9178630453	-1.9411204673	-2.0784876973	 0.113812
H	 2.6115837286	-3.4715609869	-1.2856759977	 0.111478
H	 0.2489084192	-2.9118041173	-4.5606467427	 0.116408
H	-1.160973055	-1.609019671	-1.7018691534	 0.113653
H	-1.038469603	 0.0515208592	-2.313467172	 0.114902
60.794	90.7045	157.1781	181.8606	195.3919	284.0638	325.8624	359.9506	426.9921	483.5743	497.3578	554.527	750.6611	826.8414	870.8394	938.0086	948.602	955.7359	972.8314	1021.1664	1073.9334	1115.6165	1128.2155	1155.0633	1166.4161	1184.353	1211.2853	1232.8029	1288.0858	1304.8558	1345.2586	1350.2351	1379.9697	1401.2658	1426.9478	1434.483	1479.0548	1483.2913	1487.2573	1491.7841	1501.7216	1509.7508	1762.1217	2967.1242	2982.0369	2995.8467	3024.2847	3028.8722	3033.3602	3062.0565	3080.4841	3107.8926	3116.0004	3123.6471
COC1CCN=COC1	CO[C@H]1CCN=COC1	
InChI=1S/C6H11NO2/c1-8-6-2-3-7-5-9-4-6/h5-6H,2-4H2,1H3	InChI=1S/C6H11NO2/c1-8-6-2-3-7-5-9-4-6/h5-6H,2-4H2,1H3/t6-/m0/s1
