19
gdb 37218	3.26306	1.59764	1.28566	3.498	79.17	-0.231	0.0082	0.2392	1021.4735	0.162554	-382.030688	-382.023528	-382.022584	-382.062247	28.786	
C	-0.0951082277	 1.3357724994	 0.1766595252	-0.239669
C	 1.2556545968	 0.7887366602	-0.0504345311	-0.069228
C	 1.8013237637	-0.0033065971	 1.1506017869	-0.095188
C	 2.1816553605	 0.5437577675	 2.5435443709	-0.244717
C	 1.2790706264	-0.1063028094	 3.6315415174	-0.202454
C	 0.6919590977	-1.4758111373	 3.2168259282	-0.165049
N	-0.14514161	-1.3580131368	 2.0020135574	-0.281531
C	 0.4566565026	-0.6821489437	 1.1314988175	 0.368414
N	 0.0143220225	-0.1187719361	-0.1309005443	-0.183937
H	-0.4179128792	 1.6270416318	 1.1732003362	 0.128658
H	-0.5517125434	 1.9004165924	-0.6300782477	 0.133199
H	 1.821083665	 1.01284832	-0.947745585	 0.105579
H	 2.5653511802	-0.7004811505	 0.7903639686	 0.110571
H	 3.233570559	 0.325070802	 2.7499459325	 0.105043
H	 2.0766453774	 1.6325114647	 2.5740234126	 0.108057
H	 1.8366976138	-0.2137403864	 4.5673149594	 0.100583
H	 0.4299640204	 0.553279528	 3.8451462443	 0.108753
H	 1.4970753658	-2.2066808567	 3.0520326756	 0.103681
H	 0.0680513585	-1.8705100519	 4.0229457955	 0.109234
93.3046	175.3831	232.8275	317.9829	402.0614	471.8209	490.8129	574.3166	673.1892	687.0395	720.8976	777.6435	822.3486	854.7709	869.9762	929.0884	948.1902	998.7405	1012.5164	1042.8497	1063.296	1089.939	1098.7569	1113.9547	1142.9166	1158.6909	1185.806	1190.1441	1241.1525	1254.8273	1269.3063	1335.6191	1340.45	1352.8281	1365.4935	1370.0251	1481.089	1495.3858	1501.251	1504.1959	1802.4082	3002.8789	3035.0592	3045.7521	3054.4531	3076.9134	3086.529	3096.4929	3114.0197	3181.2004	3206.5269
C1C2C3CCCN=C3N12	C1[C@H]2[C@H]3CCC[N][C]3N12	
InChI=1S/C7H10N2/c1-2-5-6-4-9(6)7(5)8-3-1/h5-6H,1-4H2	InChI=1S/C7H10N2/c1-2-5-6-4-9(6)7(5)8-3-1/h5-6H,1-4H2/t5-,6+,9?/m1/s1
