18
gdb 98874	4.0097	1.04251	0.88778	2.1745	74.27	-0.215	0.0179	0.2329	1324.5141	0.147643	-439.108501	-439.099492	-439.098548	-439.143681	31.709	
C	 0.8051382239	 1.4390518153	 0.1757540693	-0.238608
O	 0.9122188179	 0.0128756413	 0.2583529498	-0.237344
C	-0.1195866932	-0.6095021211	 0.8612407858	 0.474766
O	-1.0999750062	-0.0422545807	 1.2709151209	-0.364354
C	 0.139567067	-2.1154946929	 0.9232092089	-0.157222
N	 1.3429840039	-2.4016858764	 1.7230613478	-0.310211
C	 1.0874759007	-3.5738883823	 2.5751863322	-0.199694
C	-0.4124376259	-3.6915815192	 2.5507954937	-0.080654
C	-0.9407162367	-2.8794574983	 1.6426333126	-0.038521
H	 0.7503679753	 1.8789807568	 1.1747983244	 0.142113
H	 1.7043595861	 1.7763291652	-0.3400701382	 0.130593
H	-0.088628171	 1.7274651695	-0.3834105753	 0.139076
H	 0.2289873932	-2.4559242608	-0.1255770445	 0.089115
H	 2.169626571	-2.4980038307	 1.1512281888	 0.225638
H	 1.5603935852	-4.4983709497	 2.1987969239	 0.094602
H	 1.4773474401	-3.4156073787	 3.5911200823	 0.110425
H	-0.9566699293	-4.3654361095	 3.2006566578	 0.103945
H	-1.9888060921	-2.7480304679	 1.4127646497	 0.116337
29.2702	86.7943	119.1144	131.0147	180.6388	273.5522	304.9412	405.2407	408.9242	577.3009	642.1971	729.6048	777.3871	801.5433	856.2137	921.4146	935.9461	957.0218	966.4537	1005.4306	1046.2359	1071.0379	1127.1211	1134.1289	1178.8496	1198.6321	1207.6985	1222.5176	1264.5295	1333.6866	1368.8712	1374.0449	1443.9973	1472.6797	1481.9989	1497.5034	1519.3406	1695.7749	1822.6165	2915.5566	2941.5291	3001.8294	3051.0648	3125.5192	3156.9105	3210.1571	3242.7907	3591.2239
COC(=O)C1NCC=C1	COC(=O)[C@H]1NCC=C1	
InChI=1S/C6H9NO2/c1-9-6(8)5-3-2-4-7-5/h2-3,5,7H,4H2,1H3	InChI=1S/C6H9NO2/c1-9-6(8)5-3-2-4-7-5/h2-3,5,7H,4H2,1H3/t5-/m0/s1
