20
gdb 102248	1.82283	1.29339	0.88284	1.4176	82.93	-0.2589	0.0293	0.2882	1415.0195	0.167425	-403.130558	-403.119827	-403.118883	-403.167153	38.058	
C	-0.3115893364	 1.3605193808	 0.7479230656	-0.392805
C	-0.0822662282	-0.0806620925	 0.289336401	-0.184259
C	 0.5899484419	-0.1705236567	-1.0867149251	-0.057562
O	 1.899075704	 0.4283662139	-0.9531372971	-0.25103
C	 2.4602453665	 0.9645289718	-2.0626093821	 0.403114
C	 3.8321493361	 1.4927325522	-1.7296726066	-0.46322
N	 1.8518384971	 0.9802713121	-3.1750708298	-0.51204
C	 0.7080365796	-1.5526036625	-1.5487457939	 0.348102
C	 0.7790690504	-2.7025852262	-1.8891633608	-0.455042
H	 0.6347989177	 1.9021934842	 0.8229467817	 0.127906
H	-0.955986346	 1.9023083373	 0.0468381831	 0.1181
H	-0.7939280713	 1.3816921905	 1.7294819646	 0.114369
H	 0.5385968391	-0.6216021358	 1.0116291175	 0.115092
H	-1.0336655655	-0.619085917	 0.2242765985	 0.113046
H	 0.0290485601	 0.4077230679	-1.8281548257	 0.136658
H	 4.4719476494	 0.6763170775	-1.381055459	 0.150255
H	 4.2924919351	 1.9618388488	-2.6005095123	 0.12661
H	 3.7692582285	 2.2234651054	-0.9177247417	 0.145402
H	 2.418972256	 1.4305141333	-3.8888932565	 0.220817
H	 0.846247696	-3.7119193949	-2.2123168415	 0.196489
49.0909	70.8766	103.448	114.4206	139.6432	177.7588	242.6019	254.2858	301.5105	389.5646	432.8179	519.5742	544.9601	579.4781	619.9244	633.8676	671.2895	768.9431	848.7752	880.7794	902.1976	968.0239	993.8434	1039.0871	1065.5957	1067.8831	1095.3155	1116.986	1158.83	1277.8343	1308.9889	1346.6694	1381.0568	1390.4149	1409.2276	1419.3224	1471.0616	1477.7282	1481.3885	1496.9864	1508.4342	1731.1729	2238.8336	3039.1091	3046.7761	3049.1701	3063.2682	3086.5289	3107.3741	3113.1862	3123.7246	3144.2867	3504.3434	3522.9002
CCC(OC(C)=N)C#C	CC[C@@H](O[C](C)[NH])C#C	
InChI=1S/C7H11NO/c1-4-7(5-2)9-6(3)8/h1,7-8H,5H2,2-3H3	InChI=1S/C7H11NO/c1-4-7(5-2)9-6(3)8/h1,7-8H,5H2,2-3H3/t7-/m0/s1
