13
gdb 131985	2.89782	1.61838	1.03926	4.0562	66.44	-0.2292	-0.0708	0.1584	1033.4085	0.091239	-486.007985	-486.000675	-485.99973	-486.039867	27.491	
N	-0.0445602045	 1.3681269299	 0.1584542329	-0.589192
C	 0.0234240957	 0.0124791749	 0.0572628041	 0.368627
N	-1.0561001293	-0.7668626549	 0.0341183921	-0.30914
N	-0.5567085889	-2.0380221931	-0.0109678574	-0.184889
C	 0.7753379296	-2.106247251	-0.0218496362	-0.066839
C	 1.2065109472	-0.7883793495	 0.0180391874	 0.229416
N	 2.5504886453	-0.3496954186	-0.0113203581	 0.328923
O	 3.439251859	-1.1975597132	-0.0289213847	-0.380644
O	 2.7500771735	 0.872029248	-0.0240115343	-0.405435
H	 0.8061818008	 1.855706126	-0.0774454083	 0.279281
H	-0.918327715	 1.7943006266	-0.1045529381	 0.263347
H	-1.2086676118	-2.8038687345	-0.0305622677	 0.289516
H	 1.3336118485	-3.0262446907	-0.0591942517	 0.17703
99.5701	193.2213	219.9968	314.9614	358.2684	431.4558	446.5324	499.4624	524.7005	570.9635	645.1619	720.5712	741.6295	783.285	841.2682	849.5565	932.6892	1038.2797	1100.5575	1188.6839	1242.0081	1315.097	1419.9476	1434.9238	1507.4653	1527.3537	1569.1527	1620.5757	1655.208	3290.0102	3580.9176	3677.9861	3707.7549
NC1=NNC=C1N(=O)=O	Nc1n[nH]cc1N(=O)=O	
InChI=1S/C3H4N4O2/c4-3-2(7(8)9)1-5-6-3/h1H,(H3,4,5,6)	InChI=1S/C3H4N4O2/c4-3-2(7(8)9)1-5-6-3/h1H,(H3,4,5,6)
