18
gdb 72796	2.53608	1.80328	1.41303	2.4863	72.12	-0.2496	0.0111	0.2607	981.2045	0.148611	-439.069863	-439.062089	-439.061145	-439.101886	30.128	
C	 0.160105798	 1.6680986008	 0.1231755592	-0.431027
C	-0.0442867534	 0.1556768884	 0.1123837339	 0.262344
C	 0.6811644289	-0.5419293937	-1.0828684147	-0.143489
O	 1.7392521278	-0.9899412414	-0.1567689771	-0.273272
C	 0.9334778012	-0.6658197328	 0.9030867259	 0.395071
N	 0.8693102898	-1.1510335264	 2.0592631632	-0.315488
C	-0.4129067858	-0.7196059095	 2.6597276283	-0.191535
C	-1.5556505481	-0.901369522	 1.6444576184	-0.078603
O	-1.3853688303	-0.1480439892	 0.4305391098	-0.325011
H	 1.1900816848	 1.9306722341	-0.1345658491	 0.1301
H	-0.5145788465	 2.1267909449	-0.6065106649	 0.132752
H	-0.0721818851	 2.0820487117	 1.107323217	 0.130199
H	 0.1459479507	-1.4020104714	-1.4913045527	 0.131624
H	 1.0855681912	 0.0944815807	-1.8716608947	 0.121274
H	-0.6159965897	-1.345409762	 3.5334785303	 0.118412
H	-0.3691184303	 0.3199196985	 3.0108235032	 0.113994
H	-1.6355649291	-1.9705495979	 1.4024475453	 0.109218
H	-2.5089473942	-0.5724083428	 2.0693816588	 0.113437
106.1559	188.8591	226.7548	234.8344	322.1597	347.6616	376.3847	463.5263	509.5832	566.5176	685.3905	718.5074	774.7203	852.4749	874.6901	915.8086	943.9716	950.2086	966.7597	1055.1212	1084.0054	1098.3204	1141.3664	1154.7445	1187.4883	1217.4258	1234.6172	1245.266	1283.0677	1345.3219	1359.8752	1402.1842	1408.9668	1481.5918	1488.9458	1497.2187	1506.567	1508.6976	1809.9135	3005.8708	3021.8829	3042.9575	3069.7672	3082.0732	3086.5304	3117.0729	3127.9355	3142.878
CC12COC1=NCCO2	C[C@@]12CO[C]1[N]CCO2	
InChI=1S/C6H9NO2/c1-6-4-8-5(6)7-2-3-9-6/h2-4H2,1H3	InChI=1S/C6H9NO2/c1-6-4-8-5(6)7-2-3-9-6/h2-4H2,1H3/t6-/m1/s1
