14
gdb 13581	4.53165	1.35081	1.22418	3.2323	68.24	-0.2497	-0.0668	0.1829	983.43	0.105099	-382.502354	-382.494651	-382.493707	-382.534504	28.606	
O	 0.0745171888	 1.3115308003	-0.2067151888	-0.411824
C	 0.0003081186	-0.0469422763	-0.0144533485	 0.157892
C	-0.3799730165	-0.6572327318	 1.2785106678	-0.324311
C	-1.3842328188	-0.7601371552	 0.1209894383	-0.203026
C	-2.550146239	 0.1343890039	 0.1472929011	 0.268294
O	-2.5121699086	 1.2570330242	 0.644171551	-0.369591
C	-3.756827454	-0.3586569667	-0.4846036118	 0.24507
C	-4.7564985489	-0.7847439702	-1.0022293629	-0.386357
H	-0.694917008	 1.7095186681	 0.2377054134	 0.308821
H	 0.7135175765	-0.5691578463	-0.6437236135	 0.122453
H	 0.0865270075	-1.5846756942	 1.5913132585	 0.126548
H	-0.6666801111	 0.0179701985	 2.0782882092	 0.141964
H	-1.5158349636	-1.7197612813	-0.3626573563	 0.1076
H	-5.6468508229	-1.1442698629	-1.4585072676	 0.216467
69.2684	144.5543	208.6335	250.1672	283.4339	399.355	464.5035	514.4234	578.0515	612.2873	646.7214	698.5877	703.5517	772.8549	797.0068	850.9295	906.2576	1009.3441	1056.8794	1082.173	1106.5482	1137.5298	1149.4393	1236.4182	1362.3167	1398.2234	1448.7323	1485.697	1692.8747	2215.2243	3132.5512	3173.4841	3194.3178	3229.2861	3494.1026	3627.5664
OC1CC1C(=O)C#C	O[C@H]1C[C@H]1C(=O)C#C	
InChI=1S/C6H6O2/c1-2-5(7)4-3-6(4)8/h1,4,6,8H,3H2	InChI=1S/C6H6O2/c1-2-5(7)4-3-6(4)8/h1,4,6,8H,3H2/t4-,6-/m0/s1
