18
gdb 17335	3.5595	2.15525	1.78944	2.3723	70.73	-0.2193	0.0729	0.2923	814.0477	0.155889	-343.939341	-343.932576	-343.931632	-343.969739	27.504	
C	-0.0364712521	 1.5161905583	 0.0119307446	-0.505556
C	 0.1024397178	 0.0168005598	-0.025223528	 0.344275
N	-0.5671278157	-0.8240205989	 0.9959486277	-0.373562
C	 0.910552604	-0.7806000739	 0.9373199084	-0.089134
C	 1.5321266063	-1.9482146977	 0.1834156887	-0.169218
N	 1.117382003	-1.8535657659	-1.238132425	-0.109991
C	-0.3133024035	-2.0510034358	-1.5146314006	-0.24679
C	 0.2297414924	-0.6763971132	-1.3704917554	-0.077179
H	 0.7397931136	 1.9982343633	-0.59212186	 0.129867
H	-1.0085910723	 1.834243613	-0.3819521455	 0.129684
H	 0.0517518961	 1.8946734029	 1.035522567	 0.114832
H	-0.8918370403	-0.2294383053	 1.7563310912	 0.224618
H	 1.455300948	-0.3163576964	 1.7553825539	 0.084844
H	 2.6246161873	-1.8691945711	 0.2186465526	 0.105833
H	 1.250187612	-2.9191460706	 0.6032815286	 0.113443
H	-0.5223770826	-2.4501484396	-2.5041553345	 0.104442
H	-0.9568934474	-2.4054954252	-0.7164066489	 0.137806
H	 0.3874045032	-0.0383074537	-2.2365304345	 0.081787
193.6861	215.207	264.1444	314.2369	367.7774	451.6484	519.4792	591.7177	696.0026	701.4102	781.4657	816.4597	851.5024	869.6046	916.278	939.1446	992.5172	1017.5723	1036.377	1073.8615	1087.0926	1099.2206	1122.1602	1124.8944	1153.7392	1166.6787	1233.0337	1268.1036	1287.3189	1302.8586	1348.1093	1386.5189	1416.8111	1443.5276	1483.4951	1486.449	1496.6005	1502.0255	3026.6637	3038.0427	3082.2221	3089.7754	3100.0619	3107.3653	3136.6643	3142.3919	3206.692	3478.7057
CC12NC1CN1CC21	C[C@]12N[C@H]1CN1C[C@@H]21	
InChI=1S/C6H10N2/c1-6-4(7-6)2-8-3-5(6)8/h4-5,7H,2-3H2,1H3	InChI=1S/C6H10N2/c1-6-4(7-6)2-8-3-5(6)8/h4-5,7H,2-3H2,1H3/t4-,5-,6-,8?/m0/s1
