15
gdb 34188	4.43733	1.40348	1.26973	1.6769	76.55	-0.2484	-0.0221	0.2263	975.9848	0.113468	-379.59028	-379.583544	-379.5826	-379.621179	27.256	
C	 0.0313236175	-1.1911524815	-0.0307239004	-0.341283
C	 0.0124549325	 0.0110777206	-0.0542040109	 0.139919
C	-0.0644767421	 1.4304221739	-0.0650077505	 0.196063
C	-1.2415369828	 2.2814047053	 0.4364863615	-0.286878
C	-0.640110312	 3.4860453695	-0.3658015322	-0.043564
N	 0.2449771196	 4.1896865327	 0.5794511469	-0.190077
C	 1.2162373296	 3.3882945029	 0.7569240095	 0.037516
N	 1.2638511897	 2.2093033527	-0.0606712588	-0.18421
C	 0.2665470999	 2.4523709094	-1.1050705157	-0.1034
H	 0.0609031863	-2.252563858	-0.0136942258	 0.190484
H	-2.1626301887	 1.9153855891	-0.0211533304	 0.128067
H	-1.3758132715	 2.4235135405	 1.5114505892	 0.117619
H	-1.3142010527	 4.1445514378	-0.9063821432	 0.091006
H	 2.0114379044	 3.5410193004	 1.4786648615	 0.135505
H	 0.5293317404	 2.3451997147	-2.1512804704	 0.113234
138.1925	157.3654	347.3421	399.5306	473.26	499.718	553.1043	581.404	623.6755	654.0569	663.0664	741.86	827.8981	874.9836	878.3975	903.579	919.574	951.2991	964.2497	1014.0386	1050.5876	1069.7708	1127.5053	1146.4908	1185.0074	1220.6779	1254.3959	1274.2984	1308.1907	1368.5111	1482.3552	1660.9104	2241.1214	3068.595	3133.1041	3158.161	3183.3762	3204.9075	3502.0631
C#CC12CC3N=CN1C23	C#C[C@@]12C[C@H]3[N][CH]N1[C@@H]23	
InChI=1S/C7H6N2/c1-2-7-3-5-6(7)9(7)4-8-5/h1,4-6H,3H2	InChI=1S/C7H6N2/c1-2-7-3-5-6(7)9(7)4-8-5/h1,4-6H,3H2/t5-,6-,7+,9?/m1/s1
