19
gdb 114573	2.51178	1.30755	1.00992	4.5576	81.83	-0.2315	0.0082	0.2397	1239.4658	0.159139	-382.041094	-382.032337	-382.031393	-382.074704	32.769	
C	 0.027124047	 1.5562404972	-0.0095221471	-0.385679
C	-0.173018551	 0.0450435161	-0.0953806012	-0.138432
N	 0.6981511254	-0.539579586	-1.1069873213	-0.129184
C	 2.1609620911	-0.6776398271	-0.844854714	-0.184282
C	 2.092578976	-2.162705696	-1.2079106334	-0.131866
C	 1.12743964	-2.8673582999	-0.300657525	-0.32581
C	 0.5829166644	-1.9663205843	-1.3947813357	 0.231429
C	-0.2988225764	-2.4464900987	-2.4151673057	 0.23129
N	-1.0207454723	-2.8381895544	-3.2304580563	-0.352924
H	 1.0506403458	 1.8045271996	 0.2916899708	 0.118055
H	-0.1626452655	 2.0239307743	-0.9794659586	 0.132248
H	-0.6509418144	 1.9921262553	 0.7300526432	 0.118686
H	-0.024628985	-0.4070854069	 0.9023396712	 0.080216
H	-1.2037411341	-0.1788132398	-0.3941727291	 0.119531
H	 2.7573042525	-0.0646313956	-1.5262254053	 0.123476
H	 2.4685699183	-0.4716334909	 0.1887752756	 0.105749
H	 2.7684501614	-2.6879079853	-1.8680748574	 0.121953
H	 1.0062006234	-3.9297653088	-0.4831051761	 0.141247
H	 1.0248771334	-2.5682425289	 0.7385081453	 0.124296
78.1592	119.9932	157.8995	171.3303	224.471	288.3479	376.5252	391.8096	450.4166	509.3093	575.4774	647.8488	680.4769	805.8449	825.1541	849.1619	878.324	932.4859	972.3105	990.7243	1019.3444	1033.6733	1078.3074	1101.6322	1112.0381	1132.4602	1188.9239	1208.3195	1229.9929	1284.6384	1301.4188	1334.8158	1352.9549	1392.883	1412.8676	1476.9804	1488.1893	1491.3395	1506.0868	1514.7028	2347.1612	2933.9983	3017.3471	3038.8044	3055.7092	3083.4777	3106.289	3122.7523	3123.5225	3214.4637	3222.9882
CCN1CC2CC12C#N	CCN1C[C@H]2C[C@@]12C#N	
InChI=1S/C7H10N2/c1-2-9-4-6-3-7(6,9)5-8/h6H,2-4H2,1H3	InChI=1S/C7H10N2/c1-2-9-4-6-3-7(6,9)5-8/h6H,2-4H2,1H3/t6-,7+/m1/s1
