15
gdb 16730	3.83696	1.7671	1.73578	4.1609	63.63	-0.2579	0.0167	0.2746	812.5185	0.120475	-362.658592	-362.651978	-362.651034	-362.689431	25.252	
N	 0.7355285097	-0.8115548359	 0.6945097245	-0.333891
C	 0.343321032	 0.2240604028	 0.3636735335	 0.291464
C	-0.1802801067	 1.537563531	-0.0645549142	-0.049986
C	-0.9202255685	 2.2797769328	 1.090786174	-0.259241
C	 0.1018022513	 3.2985270931	 1.5644125231	-0.066564
C	 1.4984079279	 2.7955886313	 1.8930914419	-0.333501
C	 1.1750821429	 3.3111937263	 0.5179088284	 0.117283
O	 0.8739410814	 2.3847529554	-0.5045837858	-0.245293
H	-0.8379359246	 1.3576383644	-0.9209672936	 0.138554
H	-1.7991385826	 2.7918701235	 0.689325601	 0.121975
H	-1.2545399024	 1.5831313126	 1.8628520165	 0.135199
H	-0.2596643815	 4.2093457751	 2.0256805707	 0.100941
H	 2.1100384551	 3.4320468387	 2.5235513503	 0.122505
H	 1.6656615975	 1.7334893437	 2.0348149051	 0.148506
H	 1.6379101986	 4.2036244853	 0.1158995346	 0.112049
103.9134	171.3071	269.987	301.1001	432.0088	491.8752	577.658	678.6832	753.8813	762.9756	800.4744	819.3932	903.1877	945.8564	977.01	990.9279	1013.3864	1053.5406	1075.8719	1095.5061	1108.1193	1153.9563	1202.0487	1213.2122	1264.0284	1311.9183	1338.0918	1359.7482	1393.7238	1482.4852	1496.0451	2353.1426	3059.1728	3068.8653	3114.3385	3137.2542	3184.067	3197.9649	3225.5744
N#CC1CC2CC2O1	N#C[C@H]1C[C@H]2C[C@H]2O1	
InChI=1S/C6H7NO/c7-3-5-1-4-2-6(4)8-5/h4-6H,1-2H2	InChI=1S/C6H7NO/c7-3-5-1-4-2-6(4)8-5/h4-6H,1-2H2/t4-,5+,6+/m0/s1
