19
gdb 40710	3.78268	1.13037	1.07012	1.5256	75.73	-0.2298	0.073	0.3028	1202.4292	0.15843	-422.966157	-422.957944	-422.957	-422.999712	31.269	
C	 0.6705747698	 1.2865732533	 0.4791406009	-0.16868
O	 1.3669522354	 0.0858491365	 0.1274071825	-0.234556
C	-0.058046513	 0.0711212443	 0.0987903231	 0.059226
C	-0.7393690004	-0.7976507481	 1.1244325769	 0.096399
C	-0.2437884937	-2.263548824	 1.2257944606	-0.38432
C	 0.1676515012	-1.860292161	 2.6354802948	 0.476262
C	 0.0274778594	-2.5871955438	 3.9306887031	-0.33756
C	 1.3994846286	-2.16499563	 3.4130618078	-0.322971
O	-0.3085624134	-0.5186576329	 2.4756298232	-0.315714
H	 0.7216583155	 1.5511557975	 1.5317910808	 0.134242
H	 0.761586148	 2.1053906019	-0.2328670684	 0.111629
H	-0.4909535407	 0.0100730394	-0.9022842028	 0.090115
H	-1.8275925893	-0.6865167744	 1.0267691074	 0.079803
H	-1.0205239708	-3.0271084992	 1.1595291249	 0.110817
H	 0.5817466925	-2.5047826361	 0.5542832399	 0.127271
H	-0.3812801825	-2.0305374748	 4.7673067382	 0.123527
H	-0.2368803429	-3.6398775666	 3.9113979903	 0.113111
H	 2.0748921532	-2.9267089983	 3.0371514881	 0.116325
H	 1.8849301831	-1.3324728238	 3.9107759886	 0.125074
41.1928	95.1404	185.2451	221.8769	288.8884	309.8273	438.6628	462.6811	526.4089	650.3544	736.2557	752.2571	830.0076	856.6625	885.5524	890.8146	915.9211	924.6314	971.4517	983.9773	1007.2836	1048.4512	1062.381	1066.53	1101.9673	1109.3573	1160.6989	1170.614	1170.8778	1185.5838	1217.6173	1247.3339	1285.9236	1298.0124	1364.3127	1395.4393	1429.5269	1448.1765	1481.3674	1505.4896	1517.6532	3014.9067	3077.7578	3086.5869	3097.4194	3125.8937	3130.4313	3136.2634	3196.8044	3209.7443	3224.3919
C1OC1C1CC2(CC2)O1	C1O[C@H]1[C@H]1CC2(CC2)O1	
InChI=1S/C7H10O2/c1-2-7(1)3-5(9-7)6-4-8-6/h5-6H,1-4H2	InChI=1S/C7H10O2/c1-2-7(1)3-5(9-7)6-4-8-6/h5-6H,1-4H2/t5-,6-/m1/s1
