18
gdb 83893	2.41089	1.53992	1.2241	4.9334	76.99	-0.2599	0.0184	0.2783	1087.5006	0.148265	-401.953564	-401.945214	-401.94427	-401.986542	31.202	
C	-0.0389923978	 1.5610656557	 0.0703529298	-0.416127
C	 0.0357730019	 0.0572497	-0.0502647114	-0.073621
C	 0.6806099742	-0.6739713208	-1.2092167311	-0.131189
C	 1.6469682141	 0.0673987714	-2.13282389	-0.257415
C	 2.9367556585	 0.1455964386	-1.2903623138	-0.083863
O	 2.5135949007	 0.1084994082	 0.0823918109	-0.293992
C	 1.3546153917	-0.6766300235	 0.153900293	 0.26802
C	 1.4445496966	-1.8466139627	 0.9861908579	 0.247044
N	 1.4942166863	-2.786614489	 1.6588897709	-0.350621
H	 0.9241788932	 2.0304987562	-0.1375525322	 0.135585
H	-0.784749414	 1.9708509139	-0.6188644096	 0.123942
H	-0.3296740825	 1.8440796541	 1.0864260867	 0.133626
H	-0.8202968622	-0.4717356471	 0.3608842976	 0.11019
H	 0.1964976814	-1.5724163305	-1.5714127415	 0.117314
H	 1.8042669362	-0.4832690462	-3.0631241282	 0.119054
H	 1.2779014802	 1.0634382741	-2.3945584463	 0.118974
H	 3.5943196116	-0.7096510763	-1.4988347009	 0.114094
H	 3.5060056797	 1.0678729239	-1.4284707619	 0.118985
121.0779	138.0022	143.1379	173.4018	204.717	281.054	420.9048	476.8993	552.8638	559.6026	617.8853	631.9844	739.5514	802.2852	846.2297	898.8102	937.932	956.1194	1003.3517	1014.0353	1035.2231	1088.9082	1097.8555	1129.2336	1144.9114	1218.5693	1224.6484	1230.9926	1253.4558	1316.8161	1340.7633	1386.4974	1409.5874	1429.0822	1485.5175	1496.6864	1502.1822	1517.0456	2348.3552	3011.9918	3043.4027	3059.6727	3101.4952	3104.5569	3113.2632	3130.5789	3148.734	3190.8401
CC1C2CCOC12C#N	C[C@H]1[C@H]2CCO[C@@]12C#N	
InChI=1S/C7H9NO/c1-5-6-2-3-9-7(5,6)4-8/h5-6H,2-3H2,1H3	InChI=1S/C7H9NO/c1-5-6-2-3-9-7(5,6)4-8/h5-6H,2-3H2,1H3/t5-,6+,7-/m0/s1
