14
gdb 27943	2.5879	1.31925	0.87381	3.841	69.29	-0.1932	-0.0196	0.1735	1212.1934	0.100392	-473.867654	-473.859314	-473.85837	-473.900429	30.862	
O	 0.0507324311	 1.3467749455	 0.2277137544	-0.432304
C	 0.0592387649	 0.0123261643	-0.0018109378	 0.408111
C	 0.0549942274	-0.7687852627	-1.1120056362	-0.422907
C	 0.0708592856	-2.1458548296	-0.6551614987	 0.082638
C	 0.0728419707	-3.3405761612	-1.4551233283	 0.062573
O	 0.0611529531	-3.391664044	-2.6695746855	-0.30722
C	 0.0841972721	-2.0995740255	 0.7320312171	 0.336335
O	 0.1016072569	-3.041596367	 1.6935385938	-0.418281
N	 0.0770891455	-0.7975604995	 1.1261577439	-0.350637
H	 0.033400245	 1.8003613634	-0.6208995726	 0.313292
H	 0.0424017497	-0.4547531384	-2.142624714	 0.121328
H	 0.0867362585	-4.2921677028	-0.860031337	 0.00943
H	 0.1049072784	-3.9108636941	 1.2773779883	 0.317791
H	 0.0839025712	-0.4724395084	 2.0785655326	 0.279852
136.0056	157.7288	222.5422	229.9881	252.4819	307.7425	326.3919	405.9948	426.5176	448.9392	572.0054	640.5981	642.124	671.1003	689.6766	763.2835	859.2769	1013.3501	1022.244	1129.8141	1161.0524	1188.07	1203.3464	1309.3346	1387.3147	1431.5796	1495.2288	1561.9501	1611.4626	1662.537	1774.103	2758.5116	3269.7611	3672.118	3818.5798	3844.1546
OC1=CC(C=O)=C(O)N1	Oc1cc(C=O)c(O)[nH]1	
InChI=1S/C5H5NO3/c7-2-3-1-4(8)6-5(3)9/h1-2,6,8-9H	InChI=1S/C5H5NO3/c7-2-3-1-4(8)6-5(3)9/h1-2,6,8-9H
