20
gdb 92752	3.32711	1.04826	0.88339	4.4898	85.99	-0.1988	-0.0213	0.1775	1369.4905	0.170683	-403.191828	-403.182476	-403.181532	-403.226224	34.622	
C	 0.1868999801	 1.5365767601	 0.036148689	-0.393895
C	-0.0670709031	 0.0279791937	-0.019611084	 0.041422
C	 0.6367135326	-0.6609744433	-1.2284027393	-0.353085
C	 1.8701310585	-1.2906632895	-0.5973920899	 0.173377
C	 1.7182402588	-1.2395283454	 0.7472677829	-0.065763
N	 0.5386646034	-0.6661625994	 1.1394977723	-0.286387
C	 3.012444746	-1.9125517264	-1.2579423282	 0.272257
C	 3.0191120116	-1.8971425614	-2.7810731499	-0.487472
O	 3.9335065601	-2.4199606764	-0.6330911106	-0.348468
H	 1.2615057961	 1.7460159926	 0.0189932561	 0.1319
H	-0.2746440246	 2.0335273249	-0.823223451	 0.123441
H	-0.2371378825	 1.9784705342	 0.9447366287	 0.111878
H	-1.1453613925	-0.1586285395	-0.0295726823	 0.088126
H	-0.0180308256	-1.4195467845	-1.6770167392	 0.110732
H	 0.8622947565	 0.0662225913	-2.0160897568	 0.106182
H	 2.4109734886	-1.6324297442	 1.4799808848	 0.144621
H	 0.4779162664	-0.2287062735	 2.0472607231	 0.242838
H	 2.9908014347	-0.8688766374	-3.1605331055	 0.127165
H	 3.920491133	-2.3929033315	-3.1429280616	 0.133345
H	 2.1346318319	-2.4074321244	-3.1803862887	 0.127787
71.6774	83.5823	137.7505	175.9327	216.3816	259.9711	334.6581	353.0312	394.7075	485.9237	512.0298	530.1939	605.4676	618.277	772.1271	823.1439	860.1589	922.7718	936.8056	958.4439	971.49	1036.6543	1051.1368	1078.1581	1098.7502	1119.0722	1157.1209	1218.1981	1272.9043	1282.1327	1333.5292	1352.5923	1375.1064	1389.5503	1402.8631	1456.7401	1464.4711	1477.8754	1491.0606	1494.4023	1502.0947	1633.1357	1741.9008	3011.9251	3028.9279	3028.9931	3051.8669	3059.8303	3086.6649	3098.6885	3111.5002	3149.8698	3233.536	3605.4451
CC1CC(=CN1)C(C)=O	C[C@H]1CC(=CN1)C(=O)C	
InChI=1S/C7H11NO/c1-5-3-7(4-8-5)6(2)9/h4-5,8H,3H2,1-2H3	InChI=1S/C7H11NO/c1-5-3-7(4-8-5)6(2)9/h4-5,8H,3H2,1-2H3/t5-/m0/s1
