23
gdb 94195	2.71533	1.2764	1.11355	1.2739	84.72	-0.2481	0.0693	0.3174	1238.6272	0.205058	-388.268705	-388.259259	-388.258314	-388.302472	37.169	
C	 0.2820900841	 1.5132047157	-0.273627293	-0.420982
C	-0.0509914257	 0.0834339568	 0.1421548188	-0.024249
C	 0.6332500694	-1.0158863552	-0.7221218873	-0.224819
C	 1.6706088896	-1.2458854625	 0.4083833839	-0.294876
C	 0.754452348	-0.4530945259	 1.3870700358	 0.386282
O	 1.3821504065	 0.5078398546	 2.2169189177	-0.479132
C	-0.1043577011	-1.2776332767	 2.3194097402	 0.010348
C	-0.4711469284	-2.7186779738	 2.068056431	-0.282596
C	 0.4829252684	-2.3629181008	 3.18061763	-0.273257
H	 1.3548185222	 1.6464321935	-0.4659474501	 0.101439
H	-0.2390766267	 1.7767649993	-1.1998085928	 0.117389
H	-0.0131203317	 2.2315744582	 0.4977001983	 0.125504
H	-1.1353672119	-0.0204264147	 0.2484709526	 0.066506
H	-0.0092588343	-1.8828427392	-0.8900523861	 0.10361
H	 1.0301838531	-0.6888649339	-1.6868073177	 0.092705
H	 1.9332302761	-2.2752254893	 0.6658829486	 0.099409
H	 2.6031315196	-0.7006958927	 0.2323129614	 0.089836
H	 1.9139750168	 1.0849616587	 1.6598758358	 0.273755
H	-0.8764367011	-0.672287361	 2.7882384369	 0.087162
H	-1.4752839141	-3.0356671048	 2.3276118966	 0.108305
H	-0.066246738	-3.2218527483	 1.1969760984	 0.112491
H	 1.5314429404	-2.6032374791	 3.0404728742	 0.114449
H	 0.1428841089	-2.445255829	 4.2066523169	 0.110721
78.501	114.5014	173.1347	236.4717	256.391	278.2313	299.1932	322.2457	377.9506	410.754	455.7128	547.3497	613.3625	716.7624	775.8864	800.4001	830.9357	859.5412	880.6527	915.8795	942.1975	952.538	971.4795	993.6882	1038.6124	1058.8367	1064.6455	1081.833	1100.2958	1139.328	1163.4532	1181.7899	1188.1452	1198.5792	1216.1563	1235.1387	1242.2986	1273.9843	1277.4882	1342.14	1374.4435	1405.0378	1428.3629	1468.7646	1479.8386	1495.8539	1497.8258	1504.7352	1510.5715	3017.5668	3047.9317	3051.8693	3062.9428	3083.1616	3096.1229	3103.9925	3116.4944	3132.7968	3134.4673	3139.4066	3209.7717	3224.6573	3816.7661
CC1CCC1(O)C1CC1	C[C@H]1CC[C@]1(O)C1CC1	
InChI=1S/C8H14O/c1-6-4-5-8(6,9)7-2-3-7/h6-7,9H,2-5H2,1H3	InChI=1S/C8H14O/c1-6-4-5-8(6,9)7-2-3-7/h6-7,9H,2-5H2,1H3/t6-,8+/m0/s1
