21
gdb 115829	3.40119	1.109	1.0212	1.5656	79.37	-0.2295	0.0854	0.3149	1280.3166	0.181955	-424.203897	-424.194853	-424.193909	-424.238919	33.757	
C	 0.2072386712	 0.7309481778	 0.5566707344	-0.239832
O	 0.0263336432	-0.4803019362	-0.1385231564	-0.245198
C	 0.5464074405	-0.4672093171	-1.4575179166	 0.096105
C	 2.0910907531	-0.6515487097	-1.4915393432	-0.095836
O	 2.3563764801	-1.9393814061	-2.0445866536	-0.296456
C	 1.1721378449	-2.6979865252	-1.9564775739	 0.468309
C	 1.2356522321	-4.1031891255	-2.4424216329	-0.348044
C	 1.1063947919	-3.8180842248	-0.9516800653	-0.317874
C	 0.0385865506	-1.7216003759	-2.1857705981	-0.313772
H	 1.2689362753	 0.9722914364	 0.7183206098	 0.105572
H	-0.2580443615	 1.5761915809	 0.0243953468	 0.103896
H	-0.2736898535	 0.6196655994	 1.5315662738	 0.128889
H	 0.2385148545	 0.4611322506	-1.9596989315	 0.064389
H	 2.5993807892	 0.0896444854	-2.1166853875	 0.102596
H	 2.4861233297	-0.5801850279	-0.4688504132	 0.100912
H	 0.3796643952	-4.5067505629	-2.9731607336	 0.112255
H	 2.1973662986	-4.4540040644	-2.7997893227	 0.123223
H	 1.9873386014	-3.9830257069	-0.3417440322	 0.116991
H	 0.1616434008	-4.0273746428	-0.4614922574	 0.112576
H	-0.9223289268	-2.0440716173	-1.78272561	 0.116834
H	-0.0720936606	-1.5161113479	-3.2558739767	 0.104464
20.8197	90.5946	125.5221	196.5325	248.133	294.7714	333.8621	382.36	438.436	461.2255	568.2552	723.212	763.4354	773.204	838.3789	861.9215	895.717	909.7695	951.0119	979.3146	992.7886	1041.0534	1058.4108	1072.8428	1075.9995	1099.7465	1140.4132	1183.062	1186.4759	1189.2898	1214.408	1250.4318	1259.0946	1284.376	1319.5673	1369.0632	1384.7418	1406.7481	1450.85	1473.1119	1479.4144	1490.9076	1498.4242	1508.6208	1510.3968	2970.1069	2996.3624	3009.4764	3018.4109	3052.0912	3072.6492	3113.5032	3128.7292	3131.1272	3134.7061	3215.2384	3229.8729
COC1COC2(CC2)C1	CO[C@H]1COC2(CC2)C1	
InChI=1S/C7H12O2/c1-8-6-4-7(2-3-7)9-5-6/h6H,2-5H2,1H3	InChI=1S/C7H12O2/c1-8-6-4-7(2-3-7)9-5-6/h6H,2-5H2,1H3/t6-/m1/s1
