21
gdb 99259	4.37554	0.66751	0.60835	3.2117	76.61	-0.2685	0.006	0.2744	1868.7993	0.179492	-461.404008	-461.393109	-461.392165	-461.441299	37.998	
C	-0.0205384835	 1.5436629111	 0.09694723	-0.384716
C	 0.0095807148	 0.0100469003	 0.0773321985	 0.011008
C	 0.6531746702	-0.5256740673	-1.2085611332	-0.395058
C	 0.7471493969	-0.5534284674	 1.2864052767	-0.054972
O	 0.0367094669	-0.1516102504	 2.4807688723	-0.240891
C	 0.5685938112	-0.5313126146	 3.6432033963	 0.41126
O	 1.5845228321	-1.1763978537	 3.7658334616	-0.372286
C	-0.2467460916	-0.0633945329	 4.8363584793	-0.144947
O	 0.343539181	-0.4840673128	 6.0327823134	-0.41939
H	 0.9942548081	 1.9540414791	 0.0290179066	 0.113663
H	-0.5933342667	 1.9325681934	-0.7505610919	 0.115673
H	-0.4758623852	 1.9194699738	 1.0166126949	 0.126938
H	-1.0236975741	-0.3583361047	 0.1279233092	 0.087664
H	 1.6961785247	-0.1989546787	-1.2937414759	 0.119514
H	 0.640777483	-1.6200318015	-1.2417004414	 0.117316
H	 0.1190297659	-0.1571314403	-2.0891941008	 0.120528
H	 0.7925874864	-1.6466913298	 1.260636884	 0.121445
H	 1.7745063573	-0.1771732023	 1.3449221612	 0.122813
H	-0.3260950423	 1.0332474831	 4.7902310442	 0.123732
H	-1.2687947275	-0.457363087	 4.7311261024	 0.124142
H	 1.1376319725	-0.9737060174	 5.7705072327	 0.296562
34.0137	61.6459	87.7573	106.8603	178.1609	221.212	235.4534	253.2436	280.0848	349.6899	370.7935	400.9009	424.2517	522.255	584.7175	713.99	829.3199	910.6305	932.5096	940.73	958.4625	978.9851	1011.0642	1041.9761	1130.4736	1153.5565	1188.1841	1201.6428	1241.7318	1262.2429	1274.9244	1318.0693	1332.0599	1373.8139	1400.2955	1406.8945	1428.0209	1470.0595	1488.4098	1491.0259	1498.5542	1503.9494	1506.9741	1514.2488	1803.0871	2995.4005	3016.0544	3019.774	3029.0656	3032.7815	3045.4404	3090.7359	3094.8884	3101.4225	3109.2596	3121.1989	3715.105
CC(C)COC(=O)CO	CC(C)COC(=O)CO	
InChI=1S/C6H12O3/c1-5(2)4-9-6(8)3-7/h5,7H,3-4H2,1-2H3	InChI=1S/C6H12O3/c1-5(2)4-9-6(8)3-7/h5,7H,3-4H2,1-2H3
