16
gdb 28795	3.2144	1.65771	1.11741	4.6187	70.41	-0.1876	0.0472	0.2348	1035.5037	0.127899	-434.090476	-434.082868	-434.081924	-434.122884	28.003	
N	 0.2059955191	 1.4361712844	 0.122403712	-0.611696
C	 0.052020143	 0.0365658541	 0.0876432042	 0.188932
C	-1.014733491	-0.8252865081	 0.1047525644	-0.141764
N	-0.6169694593	-2.1583242445	-0.0448942457	-0.391042
C	 0.6723142612	-2.062106156	-0.1289773948	 0.479848
O	 1.642907752	-2.9783813042	-0.3553773913	-0.270903
C	 2.8967559486	-2.2701127949	-0.2451133758	-0.101402
C	 2.5679558118	-0.7508152772	-0.3656602568	-0.199483
N	 1.1608253196	-0.7989640206	-0.0416677687	-0.067674
H	 0.3651023445	 1.7884175459	 1.0628065303	 0.2438
H	-0.6214686109	 1.894559165	-0.2393932806	 0.25014
H	-2.057694309	-0.5711517797	 0.2212970287	 0.098661
H	 3.3389606155	-2.4954756403	 0.7315977402	 0.126599
H	 3.561269926	-2.6290593619	-1.0322279891	 0.133259
H	 3.1498237585	-0.151943108	 0.3391518112	 0.130058
H	 2.7348212303	-0.359188024	-1.3761008583	 0.132669
107.6854	131.3429	148.021	203.5122	266.1367	355.5802	558.7339	622.8259	626.7011	658.8804	722.1786	767.7935	794.1108	800.0691	830.601	878.8009	945.6819	1029.4433	1072.8955	1135.8492	1162.0624	1172.4471	1217.668	1236.5382	1252.3092	1284.0919	1314.4659	1378.6259	1422.2213	1484.5995	1518.2452	1536.9391	1595.9984	1636.5082	1654.9813	3034.2661	3045.6015	3094.7029	3126.4928	3244.8079	3481.0331	3589.8884
NC1=CN=C2OCCN12	Nc1cnc2OCCn12	
InChI=1S/C5H7N3O/c6-4-3-7-5-8(4)1-2-9-5/h3H,1-2,6H2	InChI=1S/C5H7N3O/c6-4-3-7-5-8(4)1-2-9-5/h3H,1-2,6H2
