15
gdb 11262	5.07608	1.40958	1.18595	1.6275	70.73	-0.2453	-0.0279	0.2174	1004.8771	0.118297	-362.648619	-362.640954	-362.64001	-362.681026	27.901	
C	-0.2700277525	 1.5319419832	-0.0552076084	-0.396676
C	 0.0734089203	 0.0546048069	 0.0444701852	 0.092027
C	 0.9190631097	-0.504602269	-1.1338937215	-0.206341
N	 2.1936659959	-0.9230300385	-0.5385291612	-0.321285
C	 2.0874666798	-0.6971008579	 0.7108295519	 0.252329
O	 0.9325787331	-0.1649462598	 1.197898988	-0.263673
C	 3.0967452909	-0.9577484663	 1.6826851349	 0.275779
C	 3.9400351472	-1.1741991022	 2.5102194373	-0.358094
H	 0.6341676558	 2.1269042396	-0.2180007681	 0.130089
H	-0.9497849361	 1.7008796091	-0.8970377405	 0.123091
H	-0.7580386561	 1.8832087976	 0.8578264717	 0.132629
H	-0.8320107253	-0.5363437865	 0.2152125284	 0.094725
H	 0.4441029494	-1.3600105473	-1.6263097812	 0.121267
H	 1.1008280217	 0.2532972439	-1.9052455302	 0.117561
H	 4.6909122661	-1.3682970927	 3.2359898737	 0.206573
51.1712	145.1363	159.8549	246.2412	324.1479	377.0123	439.4596	534.9901	584.4378	651.1021	667.5273	713.2079	729.6809	841.2307	916.3732	932.1792	958.6661	1022.3097	1070.931	1119.3971	1138.6866	1227.6705	1237.5408	1332.7812	1348.1709	1390.8793	1410.9578	1485.6375	1494.5043	1499.6727	1690.9617	2252.2966	3032.5647	3039.08	3050.3864	3070.7434	3111.9282	3123.0583	3503.6318
CC1CN=C(O1)C#C	C[C@H]1CN=C(O1)C#C	
InChI=1S/C6H7NO/c1-3-6-7-4-5(2)8-6/h1,5H,4H2,2H3	InChI=1S/C6H7NO/c1-3-6-7-4-5(2)8-6/h1,5H,4H2,2H3/t5-/m0/s1
