21
gdb 110623	2.37429	1.36946	1.0536	1.1363	82.6	-0.2033	0.0766	0.2799	1230.226	0.181689	-387.004578	-386.995636	-386.994692	-387.038004	34.875	
C	-0.5804768941	 1.6524166353	 0.3738749982	-0.490407
C	-0.3589885505	 0.2184989457	-0.0144868685	 0.315466
C	-0.869193413	-0.9492705584	 0.7873714152	-0.050025
C	-1.8463682862	-2.0695985265	 0.4413309788	-0.132028
O	-2.7398030543	-2.1698911372	 1.5474259194	-0.438048
C	 0.6195011232	-0.8113880442	 0.5612303494	-0.14803
C	 1.1467820211	-1.1137725429	-0.864748971	-0.04453
C	 0.1091406469	-1.5732636986	-1.8494904176	-0.308487
C	 0.1546642369	-0.122119911	-1.4482254912	-0.108178
H	 0.2538713761	 2.2866541192	 0.0502053691	 0.11433
H	-1.4940843319	 2.0533802052	-0.0839267753	 0.117753
H	-0.6805313595	 1.7566699878	 1.4589099943	 0.118256
H	-1.1023681035	-0.6142216694	 1.7980708563	 0.104476
H	-2.4013102308	-1.8386759357	-0.4796976444	 0.097733
H	-1.314400583	-3.0206544251	 0.2876667103	 0.097759
H	-3.372145057	-2.8689818265	 1.355883461	 0.282259
H	 1.2981386609	-0.6871828883	 1.3974439226	 0.082122
H	 2.2058608647	-1.1956020252	-1.0726178881	 0.086961
H	 0.5047825404	-1.7547234819	-2.8458560882	 0.108689
H	-0.7000861879	-2.2414078649	-1.5900888056	 0.109351
H	 0.3407132214	 0.6600274126	-2.1738633347	 0.084578
68.2652	179.0315	201.9451	218.3432	225.5806	266.0609	289.5261	382.1162	391.852	478.2797	559.6869	646.0147	691.1829	755.6736	785.9347	836.0559	870.3819	913.0918	921.6944	958.6499	962.982	992.6304	1030.1922	1046.8452	1060.8743	1062.9681	1083.5007	1100.4231	1111.7858	1150.606	1184.3055	1219.3066	1243.0761	1268.633	1276.652	1297.6113	1332.0104	1341.9613	1412.9817	1433.4747	1479.6522	1483.0595	1497.2848	1500.5555	1532.942	2973.141	3007.6066	3012.5518	3066.446	3095.9166	3114.2832	3131.9263	3169.5199	3181.2349	3194.5671	3233.6231	3825.6898
CC12C(CO)C1C1CC21	C[C@]12[C@@H](CO)[C@H]1[C@H]1C[C@@H]21	
InChI=1S/C8H12O/c1-8-5-2-4(5)7(8)6(8)3-9/h4-7,9H,2-3H2,1H3	InChI=1S/C8H12O/c1-8-5-2-4(5)7(8)6(8)3-9/h4-7,9H,2-3H2,1H3/t4-,5+,6-,7+,8-/m0/s1
