20
gdb 83443	2.74444	1.16283	1.02016	4.0195	83.16	-0.2648	0.0332	0.298	1259.9095	0.171239	-366.006037	-365.997141	-365.996197	-366.03997	33.467	
C	-0.0335172955	 1.5595289506	 0.1506670862	-0.421854
C	 0.0804425225	 0.0500317867	 0.1813025267	-0.037075
C	 1.2928191796	-0.7533797036	-0.2275244039	-0.142275
C	 2.596046914	-0.0657166594	 0.1999662354	-0.224453
C	 2.0962095181	-0.0647699771	 1.6803218242	-0.291045
C	 0.8012981587	-0.7587797864	 1.228269356	 0.356508
C	 0.1248142536	-1.8665929412	 2.0038095903	-0.456588
C	-0.5888654407	-1.3663966951	 3.183273341	 0.264397
N	-1.1414184079	-0.9519068218	 4.109764409	-0.311103
H	 0.8930993561	 2.057296629	 0.4464796932	 0.122652
H	-0.2854808561	 1.9058773185	-0.8574314564	 0.119577
H	-0.8220494681	 1.9019001951	 0.8289322931	 0.129794
H	-0.8380881097	-0.4462475785	-0.1310952441	 0.085293
H	 1.2202293958	-1.5404467353	-0.9702099264	 0.085039
H	 3.4729613846	-0.7014469043	 0.0630932792	 0.106586
H	 2.8020948592	 0.9070323438	-0.2563171613	 0.103358
H	 2.7083599675	-0.7066093268	 2.3189900655	 0.105655
H	 1.9834148612	 0.9029740977	 2.1770045257	 0.109497
H	-0.5930153554	-2.3950387372	 1.3654748039	 0.149047
H	 0.8574691127	-2.6118205546	 2.3388266528	 0.146988
53.3252	97.0552	176.0853	231.1475	251.7667	263.9453	310.944	393.0779	430.5403	452.9591	541.465	694.5831	721.2291	768.9153	800.2611	894.4862	913.1997	919.6682	936.74	955.6429	990.5267	1006.0213	1056.1791	1079.9942	1113.8365	1128.5607	1150.6171	1197.2159	1219.1773	1240.1191	1251.3007	1270.9037	1316.2518	1329.6585	1347.2397	1419.2515	1455.5102	1463.7919	1478.133	1501.9178	1507.3674	1511.7899	2359.4154	3028.1635	3038.0267	3054.4978	3060.7126	3068.6735	3096.7523	3097.8428	3107.6735	3116.6229	3125.4118	3168.9054
CC1C2CCC12CC#N	C[C@H]1[C@H]2CC[C@@]12CC#N	
InChI=1S/C8H11N/c1-6-7-2-3-8(6,7)4-5-9/h6-7H,2-4H2,1H3	InChI=1S/C8H11N/c1-6-7-2-3-8(6,7)4-5-9/h6-7H,2-4H2,1H3/t6-,7+,8+/m0/s1
