20
gdb 124537	3.84267	1.03462	0.8717	2.7507	81.68	-0.245	0.0174	0.2624	1397.3941	0.171192	-399.381236	-399.371489	-399.370545	-399.418519	34.612	
C	-0.3968766737	 1.6115174148	-0.1858458994	-0.379437
C	 0.0668281868	 0.1565346296	-0.0604912776	-0.073188
C	-1.1174591117	-0.8023159066	 0.1664353778	-0.383965
C	 0.8773160201	-0.2886049283	-1.245073779	 0.341283
N	 1.0222142562	 0.4291915936	-2.3477314384	-0.274496
N	 1.8077443705	-0.3735255083	-3.1123432385	-0.240855
C	 2.102982304	-1.518893028	-2.4583312323	 0.34967
C	 2.948766711	-2.6134221077	-3.0166883392	-0.502449
N	 1.5270952632	-1.4957513957	-1.2706974768	-0.344385
H	 0.4492603644	 2.2914549232	-0.3149357786	 0.118961
H	-1.0549339546	 1.7387632202	-1.0506243899	 0.124398
H	-0.9483141288	 1.9097844277	 0.7112350311	 0.10202
H	 0.7258103375	 0.0712728939	 0.8142055441	 0.092663
H	-1.8281523392	-0.7423416711	-0.6652713318	 0.113918
H	-0.7707752574	-1.8355856847	 0.2453033008	 0.132669
H	-1.650360702	-0.5419630048	 1.0866637079	 0.107106
H	 2.0888461713	-0.0691630831	-4.0296342005	 0.272692
H	 3.9558189136	-2.259989503	-3.2627952347	 0.139847
H	 3.0315491708	-3.4060974941	-2.2726572413	 0.163073
H	 2.5119232977	-3.0358595275	-3.9279968737	 0.140474
7.1375	34.9725	134.8671	176.2518	226.104	251.2032	279.9082	307.1797	349.7904	444.2354	480.5025	523.1475	627.4853	697.4349	720.4545	782.6741	893.7766	931.2968	969.975	989.256	1013.9061	1065.0437	1073.7506	1102.4169	1130.5384	1167.0335	1192.3776	1263.5939	1323.8559	1335.2388	1392.1951	1399.6903	1413.9181	1419.2135	1438.6408	1484.6585	1486.2565	1488.7647	1495.3658	1499.7542	1509.5504	1535.9239	1591.9068	3014.8702	3032.8368	3040.2308	3041.9389	3093.5455	3099.4212	3111.377	3118.6258	3123.5416	3153.4263	3663.6622
CC(C)C1=NNC(C)=N1	CC(C)c1n[nH]c(C)n1	
InChI=1S/C6H11N3/c1-4(2)6-7-5(3)8-9-6/h4H,1-3H3,(H,7,8,9)	InChI=1S/C6H11N3/c1-4(2)6-7-5(3)8-9-6/h4H,1-3H3,(H,7,8,9)
