19
gdb 72893	3.03707	1.43074	1.1767	2.4186	75.53	-0.2381	0.0564	0.2945	1095.024	0.158645	-422.97132	-422.963203	-422.962259	-423.004005	31.943	
O	 0.4753079239	 1.3048856163	-0.507443285	-0.472613
C	 0.0670946087	 0.0662394615	-0.0252573113	 0.374943
C	 0.2308557296	-1.0634194693	-1.0557615335	-0.108057
O	-1.1344232413	-1.5073027836	-0.8795513914	-0.284097
C	-1.3986952573	-0.4884982267	 0.1043516223	-0.068964
C	-1.0644565469	-0.9239621464	 1.5334290484	 0.380668
C	-1.9955004714	-0.8896494679	 2.7122329603	-0.332643
C	-1.4935792888	-2.2079598381	 2.1734825377	-0.307656
C	 0.354167797	-0.3277691499	 1.4486338661	-0.410415
H	 0.3640426226	 1.95993077	 0.1893537822	 0.28203
H	 0.4044330424	-0.6849674548	-2.0696038572	 0.112333
H	 0.9636155303	-1.8447423485	-0.8204543826	 0.099658
H	-2.3293669358	 0.0531624206	-0.086225261	 0.073399
H	-1.6027188323	-0.540003909	 3.6622757637	 0.109932
H	-3.0323799868	-0.6222457742	 2.5330960908	 0.114758
H	-2.1797702084	-2.8392358042	 1.6190735567	 0.12609
H	-0.7605405656	-2.7515723154	 2.7609989646	 0.112135
H	 1.1984716914	-1.0044777577	 1.613115367	 0.105813
H	 0.4875159888	 0.5527583273	 2.089302302	 0.092685
56.3065	199.7637	227.0922	250.3061	305.8172	335.0719	381.0242	385.005	496.2293	531.9617	661.5234	748.6613	776.7697	844.9716	876.0149	900.06	924.8658	929.0134	953.2732	989.791	1006.9256	1027.8275	1051.6587	1068.2221	1077.1679	1105.4589	1139.7846	1145.13	1162.1087	1186.368	1214.8898	1251.7631	1277.4485	1310.0969	1340.7684	1382.6348	1404.8085	1466.0856	1479.177	1502.92	1512.6451	3019.4579	3023.9887	3072.1857	3074.8103	3081.6137	3119.0513	3129.4411	3199.0057	3217.2486	3812.983
OC12COC1C1(CC1)C2	O[C@]12CO[C@H]1C1(CC1)C2	
InChI=1S/C7H10O2/c8-7-3-6(1-2-6)5(7)9-4-7/h5,8H,1-4H2	InChI=1S/C7H10O2/c8-7-3-6(1-2-6)5(7)9-4-7/h5,8H,1-4H2/t5-,7+/m0/s1
