20
gdb 42117	2.10629	1.8809	1.1252	2.4995	81.26	-0.2395	0.0013	0.2409	1114.1861	0.173167	-403.142075	-403.133954	-403.13301	-403.174598	31.675	
C	-0.0273889567	 1.558402045	-0.1797782303	-0.203163
C	 1.3827661755	 2.1202819498	 0.045551991	-0.085039
O	 2.0340319533	 1.493996654	 1.1506064355	-0.216233
C	 1.567017618	 1.81566344	 2.3933607124	 0.114011
N	 1.1747675393	 0.9831971498	 3.2527804648	-0.226694
C	 1.0559749027	-0.4256795368	 2.8282737764	-0.216266
C	-0.3592795827	-0.6841969329	 2.3547072782	-0.037596
C	-0.8295612086	-0.4987277064	 1.1191855755	-0.042154
C	-0.08192898	 0.0004748975	-0.0962989012	-0.248245
H	-0.7110212438	 1.9869825255	 0.5606054543	 0.116418
H	-0.370201241	 1.9110138614	-1.1593223445	 0.101294
H	 2.0263166966	 1.9090761055	-0.8133258468	 0.118908
H	 1.3505637168	 3.2109351919	 0.1877945479	 0.102154
H	 1.5907739771	 2.8854869192	 2.6223932556	 0.106081
H	 1.779828044	-0.6809372339	 2.0485452399	 0.116684
H	 1.2673041313	-1.0467044678	 3.7031535645	 0.103471
H	-1.0606501519	-0.994842823	 3.1254342905	 0.090313
H	-1.8921709008	-0.6787674758	 0.961367914	 0.085999
H	-0.5725966817	-0.3906596649	-0.9926226905	 0.100063
H	 0.9392382625	-0.3919632481	-0.1037983771	 0.119995
99.8898	169.6747	192.042	213.9267	297.225	348.9104	361.2541	456.6815	524.7825	533.9777	640.0034	676.3838	744.5801	782.0687	876.7282	898.4393	923.3163	966.6558	975.016	986.767	1009.7325	1038.2879	1055.2925	1084.8134	1117.7446	1131.31	1220.7721	1255.3112	1262.6438	1293.1191	1304.2615	1336.5562	1346.4388	1372.3226	1388.5523	1411.0285	1422.5492	1482.2207	1486.5239	1498.2499	1507.4698	1718.0434	1743.0328	2998.9598	3038.7455	3046.5115	3049.6068	3072.5701	3086.7732	3087.5304	3090.7374	3095.9428	3128.6944	3160.6873
C1COC=NCC=CC1	C1COC=NCC=CC1	
InChI=1S/C7H11NO/c1-2-4-6-9-7-8-5-3-1/h1,3,7H,2,4-6H2/b3-1-,8-7-	InChI=1S/C7H11NO/c1-2-4-6-9-7-8-5-3-1/h1,3,7H,2,4-6H2/b3-1-,8-7-
