20
gdb 115890	2.48494	1.53084	1.12927	2.6332	75.87	-0.236	0.0737	0.3097	1156.4638	0.170569	-440.257951	-440.248949	-440.248005	-440.291698	33.336	
C	 0.0114214445	 1.3293688737	-0.1628630131	-0.237283
O	-0.0137799346	-0.0802536009	-0.0283245567	-0.240386
C	-1.2903601065	-0.6145769984	 0.0488122644	 0.225994
O	-1.9990154279	-0.4147804811	-1.1692177072	-0.285565
C	-2.8057247976	-1.5496022265	-1.4686014672	-0.075846
C	-2.2031135091	-2.6993176246	-0.6885515348	-0.115842
N	-0.7504652091	-2.8141894214	-0.9324482428	-0.350421
C	-1.2426754816	-2.1180325121	 0.276082734	 0.27421
C	-0.9463435083	-2.637654714	 1.6552789852	-0.502733
H	 1.0593243375	 1.6340949142	-0.1205345891	 0.124886
H	-0.4223972362	 1.6479002065	-1.1172204184	 0.132056
H	-0.5372588595	 1.8191792772	 0.6567665526	 0.1004
H	-1.847571813	-0.1249840939	 0.8734200828	 0.045318
H	-3.8492712167	-1.3857415522	-1.1571671728	 0.090809
H	-2.7821923384	-1.7022453632	-2.552702803	 0.115861
H	-2.7959618469	-3.5796840985	-0.4630293494	 0.090679
H	-0.440500509	-3.7450824141	-0.6592775664	 0.225934
H	 0.0775254771	-2.3816622642	 1.9477135734	 0.142485
H	-1.6240611586	-2.2019327148	 2.3976640347	 0.124757
H	-1.0538077361	-3.7261385417	 1.699168754	 0.114684
86.4355	112.6594	169.3623	196.6065	205.1245	227.5101	290.1487	341.8908	433.6547	489.8552	546.3145	600.4368	696.6913	789.8464	856.4291	902.453	930.1423	951.4939	986.5842	1025.614	1041.2705	1065.3978	1079.5042	1095.6235	1124.6538	1161.405	1169.085	1181.4491	1230.5552	1235.094	1304.7148	1310.4165	1369.1319	1389.6535	1410.4865	1418.9957	1460.8566	1480.8072	1484.0345	1485.1233	1504.4424	1510.4819	1511.753	2893.1229	2983.7786	2985.8235	3030.1123	3068.4937	3069.0676	3095.6875	3103.9864	3124.6773	3167.9047	3484.2391
COC1OCC2NC12C	CO[C@H]1OC[C@H]2N[C@@]12C	
InChI=1S/C6H11NO2/c1-6-4(7-6)3-9-5(6)8-2/h4-5,7H,3H2,1-2H3	InChI=1S/C6H11NO2/c1-6-4(7-6)3-9-5(6)8-2/h4-5,7H,3H2,1-2H3/t4-,5+,6-/m1/s1
