19
gdb 104922	2.09386	1.56978	1.06805	1.9523	79.51	-0.2376	0.0411	0.2786	1191.9701	0.154236	-422.961746	-422.951377	-422.950433	-422.996328	38.378	
C	 0.239851462	 1.2841274852	 0.1940780428	-0.252629
O	-0.1867308509	-0.0154849402	-0.1815761952	-0.277921
C	 0.5427232998	-0.5682474978	-1.2387823734	 0.189379
C	 1.8919381879	-1.2114554845	-0.8932416409	-0.411651
C	 0.6877734441	-2.0750766773	-1.1921684493	 0.32261
C	 0.0109980193	-2.8559461899	-0.0896639834	-0.442075
O	 0.6407306878	-2.6858324	-2.4509426918	-0.455624
C	 0.3929506088	 0.0988675581	-2.507197344	 0.363668
C	 0.2512263162	 0.7074216684	-3.5345179959	-0.492682
H	 1.2915723114	 1.2856685027	 0.5138842085	 0.107435
H	 0.1218140898	 1.9975499938	-0.6308725737	 0.126162
H	-0.3916210554	 1.5894894483	 1.0309109574	 0.127526
H	 2.6723505343	-1.1570223882	-1.643221637	 0.124757
H	 2.2130751459	-1.1198415149	 0.1389637565	 0.120213
H	-0.0287859845	-2.2816913093	 0.8364976324	 0.134642
H	-1.0106470377	-3.1100727099	-0.3866569767	 0.132952
H	 0.5552311414	-3.789093969	 0.0993675002	 0.105225
H	 1.253936223	-3.4291810891	-2.4383487815	 0.283237
H	 0.1182516266	 1.2215046035	-4.4539846649	 0.194778
109.3384	126.5678	142.9373	173.831	188.4581	213.4383	241.3922	278.31	330.4386	376.4134	411.1771	418.9867	475.2024	556.8006	588.8519	609.9513	670.3028	674.5019	778.2114	903.6063	914.1067	924.0468	983.3944	1038.2575	1050.728	1090.8591	1135.9041	1184.6965	1207.0631	1226.4632	1276.2091	1311.6082	1386.4467	1411.5352	1461.8735	1475.4801	1483.5811	1485.725	1502.1957	1511.0978	2232.6371	2999.7683	3032.7548	3062.4566	3101.0952	3127.0338	3134.0493	3148.3747	3234.3287	3502.6997	3796.5974
COC1(CC1(C)O)C#C	CO[C@]1(C[C@]1(C)O)C#C	
InChI=1S/C7H10O2/c1-4-7(9-3)5-6(7,2)8/h1,8H,5H2,2-3H3	InChI=1S/C7H10O2/c1-4-7(9-3)5-6(7,2)8/h1,8H,5H2,2-3H3/t6-,7-/m0/s1
