17
gdb 61287	2.20643	1.16406	0.86885	3.1704	69.24	-0.2778	0.0304	0.3082	1339.6056	0.134639	-455.213348	-455.203535	-455.202591	-455.248975	34.593	
C	-0.0313917759	 1.5424903131	-0.0288067533	-0.414476
C	 0.004363625	 0.0192183752	-0.0288742217	 0.14011
C	 0.6723212005	-0.5429313583	 1.2356699418	-0.35527
C	 0.7354838369	-2.0029458279	 1.2405818851	 0.267469
N	 0.7867680815	-3.1569212418	 1.2393723536	-0.305294
O	-1.3280058353	-0.5211066484	-0.0339573792	-0.269396
C	-1.9133307591	-0.6448700414	-1.2582837741	 0.506011
N	-3.1565116915	-1.1871600895	-1.1182416743	-0.562148
O	-1.4106242335	-0.2916055447	-2.2988574564	-0.397055
H	 0.9838686143	 1.9498055842	 0.0063181939	 0.122607
H	-0.5110102331	 1.895010581	-0.9435649033	 0.155811
H	-0.5890955323	 1.9182180957	 0.8348961435	 0.124962
H	 0.5225709524	-0.3417119356	-0.9208128267	 0.129682
H	 1.688136289	-0.1422345746	 1.3163753221	 0.156141
H	 0.1190243334	-0.2099997782	 2.1208941707	 0.157797
H	-3.3783913356	-1.6695271188	-0.2634522813	 0.270255
H	-3.5954978769	-1.50583068	-1.9651311002	 0.272792
52.244	58.2243	109.5342	157.03	200.0213	237.6428	302.9941	375.5456	386.161	394.2849	438.6515	484.2369	520.6144	559.5272	671.652	783.6972	820.7869	889.1896	919.5164	965.5299	1034.1031	1089.7905	1118.9812	1128.0633	1153.0968	1254.1038	1307.4914	1344.1935	1379.2226	1404.0967	1411.5042	1455.6406	1485.014	1503.1156	1612.943	1834.6996	2367.4909	3043.3945	3051.2199	3084.884	3098.1087	3117.1797	3143.789	3611.1908	3739.3587
CC(CC#N)OC(N)=O	C[C@@H](CC#N)OC(=O)N	
InChI=1S/C5H8N2O2/c1-4(2-3-6)9-5(7)8/h4H,2H2,1H3,(H2,7,8)	InChI=1S/C5H8N2O2/c1-4(2-3-6)9-5(7)8/h4H,2H2,1H3,(H2,7,8)/t4-/m0/s1
