16
gdb 108732	2.99609	1.24509	0.94285	3.969	72.23	-0.2358	-0.0552	0.1806	1201.2669	0.124844	-437.874184	-437.866285	-437.865341	-437.906916	29.655	
O	 0.1892415568	 1.3435050528	-0.0113251071	-0.400975
C	 0.007355498	-0.0487779868	 0.11905973	-0.170906
C	-1.4219703737	-0.4903337538	 0.1192666765	 0.332007
C	-2.5208163689	 0.281373834	 0.0733349403	-0.326529
C	-3.7518660214	-0.5517184824	 0.0543211702	 0.448844
O	-4.9004364086	-0.17999651	 0.0936832509	-0.333396
C	-3.2720151634	-1.9978475251	 0.0186598485	-0.17302
N	-2.4624303283	-2.2926030965	-1.2019039824	-0.328925
C	-1.7984386294	-1.9469593019	 0.0845301347	-0.165717
H	-0.1606763356	 1.6061738242	-0.8694342301	 0.291625
H	 0.5492273052	-0.6133483079	-0.6599504001	 0.116157
H	 0.4752331761	-0.3293720665	 1.0726388078	 0.135437
H	-2.5462804476	 1.3620410843	 0.0391563734	 0.120304
H	-3.8757983476	-2.7799365491	 0.4621765814	 0.113074
H	-2.4442990132	-3.3068363989	-1.3181223925	 0.238027
H	-1.2008792685	-2.6941360563	 0.5951803186	 0.103993
92.0128	145.8111	171.2844	202.9699	326.7534	345.2299	409.8188	451.6437	548.76	616.3871	654.7319	758.6185	825.3708	841.0082	865.5047	886.8346	910.478	926.5186	992.7998	1029.6795	1076.8041	1120.4042	1145.8556	1150.6387	1182.0351	1213.4252	1252.3601	1279.8218	1348.567	1381.4667	1398.7087	1420.8635	1474.923	1665.818	1822.1465	2957.9613	3033.9806	3174.8376	3198.5168	3232.4277	3454.7249	3811.7106
OCC1=CC(=O)C2NC12	OCC1=CC(=O)[C@H]2N[C@@H]12	
InChI=1S/C6H7NO2/c8-2-3-1-4(9)6-5(3)7-6/h1,5-8H,2H2	InChI=1S/C6H7NO2/c8-2-3-1-4(9)6-5(3)7-6/h1,5-8H,2H2/t5-,6+/m0/s1
