23
gdb 112966	3.44585	0.87639	0.82516	1.5641	82.28	-0.2486	0.0729	0.3215	1548.3714	0.204346	-425.424102	-425.413881	-425.412937	-425.459709	37.818	
C	 0.1458297787	 1.6210884138	 0.2081658616	-0.381964
C	-0.2326957285	 0.1403788681	 0.2998466332	-0.186063
C	 0.7535791382	-0.6618872176	 1.131828255	 0.165063
C	 0.666682282	-2.2001147808	 1.0570123312	-0.331955
C	 2.0389402519	-2.1181085663	 0.3596127975	 0.144151
O	 2.0872568412	-0.6753910724	 0.5399136166	-0.333252
C	 3.2291074624	-2.7751657193	 1.0575416918	 0.11356
C	 4.5375110784	-2.5126398621	 0.3078565783	-0.404731
O	 3.3040714659	-2.3275712013	 2.4036288468	-0.439279
H	 1.1494652241	 1.7306339322	-0.2125080863	 0.13529
H	-0.5537823963	 2.1720093206	-0.4271864749	 0.112028
H	 0.1422704389	 2.0928148752	 1.1972074364	 0.112702
H	-1.2290882479	 0.0255816041	 0.7474967697	 0.096763
H	-0.2854799935	-0.2968856008	-0.7052702731	 0.097115
H	 0.8011785122	-0.2570964492	 2.1518398031	 0.073595
H	 0.6981020194	-2.7037697393	 2.0234212939	 0.122739
H	-0.1529376938	-2.5943268762	 0.453339028	 0.102385
H	 2.030384404	-2.3813908162	-0.7063874443	 0.071542
H	 3.0422691322	-3.855637277	 1.1107840672	 0.085527
H	 4.6976442539	-1.4354262304	 0.190353707	 0.127405
H	 5.3791220786	-2.9298693446	 0.866302872	 0.122575
H	 4.5208444792	-2.9642984143	-0.6898369391	 0.109647
H	 3.2992097987	-1.3626244463	 2.3472647583	 0.285157
50.1364	86.5621	112.2801	142.5779	219.2063	233.3632	254.3748	269.41	334.156	403.7112	449.2699	473.302	506.1266	643.9202	721.6657	766.1202	812.5301	873.1104	918.4865	927.9862	968.3816	970.4609	998.9095	1023.9493	1048.1393	1054.86	1093.2429	1105.9419	1140.9802	1156.399	1210.2531	1260.3452	1263.8551	1281.8371	1298.3497	1314.5191	1331.504	1357.6684	1384.7856	1399.5346	1406.3195	1411.6218	1427.446	1475.303	1482.7638	1492.4767	1497.6835	1498.6214	1509.888	3007.5239	3014.1547	3018.0349	3032.9251	3034.911	3035.8701	3056.9851	3080.8908	3102.6355	3104.0513	3118.6311	3122.9504	3142.4183	3761.1891
CCC1CC(O1)C(C)O	CC[C@H]1C[C@@H](O1)[C@@H](C)O	
InChI=1S/C7H14O2/c1-3-6-4-7(9-6)5(2)8/h5-8H,3-4H2,1-2H3	InChI=1S/C7H14O2/c1-3-6-4-7(9-6)5(2)8/h5-8H,3-4H2,1-2H3/t5-,6+,7-/m1/s1
