17
gdb 65247	2.89379	1.31628	1.13971	0.9807	69.33	-0.2574	-0.0362	0.2212	1118.4736	0.133686	-458.934276	-458.925727	-458.924783	-458.967974	31.767	
O	 0.0503733554	 1.365139714	-0.1569919702	-0.471607
C	 0.0024873034	-0.0336935834	-0.0533417593	 0.404924
C	-0.5953314283	-0.6386547526	 1.1958497909	-0.328939
C	-1.3723413918	-0.6307593878	-0.1018786814	-0.291271
C	 1.1323404475	-0.7421943248	-0.7497126671	-0.055877
O	 1.1382781283	-0.5772015527	-2.1927545204	-0.287349
C	 2.4154487775	 0.0865682489	-2.2255846888	-0.184052
C	 2.4962357526	-0.0202457783	-0.701931974	 0.326886
O	 3.2356616797	 0.3485074251	 0.1585565844	-0.281678
H	 0.7034719155	 1.6844363922	 0.4771018965	 0.293568
H	-0.2012166221	-1.5784047101	 1.5670316082	 0.119921
H	-0.9031339485	 0.0613999563	 1.9641114221	 0.122776
H	-2.1876859529	 0.0767428846	-0.1919173534	 0.132976
H	-1.5105899863	-1.5635926886	-0.6361246777	 0.125862
H	 1.1677610094	-1.8032208886	-0.4684488139	 0.103737
H	 3.1819857706	-0.473942892	-2.776375445	 0.12935
H	 2.3568086101	 1.1105383079	-2.6147834411	 0.140774
61.164	94.3646	123.8491	228.4308	277.4472	330.442	383.2673	429.1006	442.0294	512.3906	576.2438	713.6757	758.7152	771.2436	847.9088	894.6795	937.725	940.5343	980.5699	995.4888	1010.3669	1034.8154	1058.8249	1079.7592	1081.2894	1138.9672	1188.005	1221.0729	1253.2792	1297.9022	1306.6533	1330.8843	1390.5908	1456.9078	1476.8767	1496.164	1917.8142	3014.9894	3025.3027	3066.2745	3137.0283	3147.0786	3223.4366	3240.8963	3786.9387
OC1(CC1)C1OCC1=O	OC1(CC1)[C@H]1OCC1=O	
InChI=1S/C6H8O3/c7-4-3-9-5(4)6(8)1-2-6/h5,8H,1-3H2	InChI=1S/C6H8O3/c7-4-3-9-5(4)6(8)1-2-6/h5,8H,1-3H2/t5-/m0/s1
