19
gdb 105965	4.18554	1.10875	1.10355	1.765	79.31	-0.2205	0.0672	0.2877	1192.7269	0.157748	-385.777594	-385.769163	-385.768219	-385.810527	32.529	
C	 0.0750388483	 1.4945794757	-0.014362294	-0.523124
C	 0.0212763697	 0.0032470572	 0.0127667812	 0.366253
C	 0.1913093261	-1.013929051	-1.1086063602	-0.141131
C	 0.7533446894	-2.0521593994	-0.09455088	-0.140115
C	 0.5875456683	-1.0408332039	 1.030938896	-0.229194
C	-0.5500832217	-1.997944281	 0.6918349182	 0.353519
C	-1.2092896084	-3.0341103608	 1.536414213	-0.214665
O	-1.7553409163	-4.1206769767	 0.794837998	-0.412373
C	-1.1167448057	-0.9520195693	-0.3262661947	-0.237958
H	 1.1087509019	 1.859233548	-0.043830808	 0.121824
H	-0.4389170653	 1.8819480427	-0.9012397793	 0.121097
H	-0.4089932256	 1.9317248164	 0.8672366915	 0.120406
H	 0.3699155333	-0.8502424951	-2.1633361976	 0.08375
H	 1.4553897787	-2.8694318411	-0.1925416698	 0.089362
H	 1.1379236538	-0.9365344429	 1.9576752125	 0.083205
H	-0.4672123192	-3.4783262728	 2.2100013486	 0.110384
H	-1.9813594979	-2.5669802772	 2.1705635861	 0.088452
H	-2.3717039466	-3.7529259492	 0.153516024	 0.282138
H	-2.1185292428	-0.7272038496	-0.6722746153	 0.078169
83.7202	124.9135	193.9232	222.3156	262.9276	268.1714	321.7838	401.7332	575.1321	627.0962	677.1331	776.5883	784.5421	813.8018	826.3258	845.7315	865.5782	876.5067	920.8136	942.4723	977.7363	986.533	990.0392	1045.241	1065.8706	1096.3067	1105.2022	1126.4795	1154.8683	1204.3743	1221.0813	1265.1768	1289.5383	1367.9674	1392.1489	1406.8657	1437.5711	1438.9954	1481.2115	1490.6273	1498.683	2962.6997	3016.7316	3059.4868	3075.1548	3088.9043	3178.9757	3187.3003	3196.828	3206.694	3816.6818
CC12C3C4C1C4(CO)C23	C[C@@]12[C@H]3[C@H]4[C@@H]1[C@@]4(CO)[C@@H]23	
InChI=1S/C8H10O/c1-7-3-4-6(7)8(4,2-9)5(3)7/h3-6,9H,2H2,1H3	InChI=1S/C8H10O/c1-7-3-4-6(7)8(4,2-9)5(3)7/h3-6,9H,2H2,1H3/t3-,4-,5+,6-,7-,8+/m0/s1
