22
gdb 120937	3.22446	0.96525	0.87884	1.6549	83.33	-0.2278	0.0772	0.305	1461.2829	0.192791	-404.303993	-404.294278	-404.293334	-404.33897	35.834	
C	-0.0432662402	 1.5417318998	-0.0692099345	-0.384789
C	-0.1720395855	 0.0346359233	-0.2093872138	-0.03783
O	 0.9058560464	-0.4374965147	-0.998461574	-0.259583
C	 0.9044196878	-1.8292234284	-1.1813489543	 0.071036
C	-0.0437400402	-2.471423296	-2.2354990489	-0.200464
N	 1.1184517327	-3.0675290252	-2.9831746156	-0.169135
C	 1.9168785374	-1.9028168528	-3.4137987753	-0.277045
C	 2.0657426319	-2.3539646544	-2.0151684026	 0.323527
C	 3.3087565809	-2.9816805873	-1.459529944	-0.500883
H	 0.9058194127	 1.8021720431	 0.4077955795	 0.127318
H	-0.0755506102	 2.0226106514	-1.0510032677	 0.126496
H	-0.8603430568	 1.9399447222	 0.5397556041	 0.115098
H	-0.1542498842	-0.4505101649	 0.7812480091	 0.086737
H	-1.134406882	-0.227968625	-0.6783217595	 0.089845
H	 0.8315744132	-2.3416465394	-0.2101805873	 0.068083
H	-0.689635565	-3.2588432552	-1.8418104525	 0.107231
H	-0.6387733158	-1.7721486374	-2.8326650049	 0.104064
H	 2.7143923154	-2.1672837164	-4.1018115298	 0.115906
H	 1.4113436214	-0.9662712652	-3.6366609817	 0.117239
H	 3.9691197003	-2.2165251285	-1.0351731222	 0.12832
H	 3.0729479055	-3.701320135	-0.6679906467	 0.119818
H	 3.8600351445	-3.509402354	-2.2430028375	 0.129012
64.3125	86.1052	118.2664	172.9367	177.0553	249.8502	270.2736	321.9831	344.3973	432.5669	496.4025	537.2882	639.0475	731.9868	783.2049	821.0389	853.1663	879.9504	918.7525	969.8555	990.8971	1028.4191	1053.7179	1071.9793	1095.0377	1117.0282	1124.6014	1151.5239	1161.4966	1188.4277	1209.8877	1238.8325	1273.4147	1295.7237	1330.0189	1363.9884	1389.8412	1404.958	1421.1614	1445.1602	1481.9773	1483.6999	1486.5556	1494.1525	1499.8169	1512.0781	1528.1322	2957.903	2984.9855	2989.0367	3029.2937	3044.5573	3045.0348	3090.5191	3108.0437	3112.322	3113.3281	3119.5619	3121.7524	3198.2454
CCOC1CN2CC12C	CCO[C@H]1CN2C[C@@]12C	
InChI=1S/C7H13NO/c1-3-9-6-4-8-5-7(6,8)2/h6H,3-5H2,1-2H3	InChI=1S/C7H13NO/c1-3-9-6-4-8-5-7(6,8)2/h6H,3-5H2,1-2H3/t6-,7-,8?/m0/s1
