17
gdb 78000	2.95465	1.31422	1.07727	3.8829	75.5	-0.2378	-0.0039	0.2339	1143.2306	0.136038	-417.969734	-417.961216	-417.960272	-418.0026	32.144	
C	-0.0929398179	 1.4182235534	-0.3933533414	-0.430331
C	 0.2729825749	-0.0452334535	-0.2681480003	 0.134207
O	 1.4914050143	-0.4399056396	-0.9913343554	-0.341762
C	 1.9387988695	-1.196647957	 0.1390367087	 0.306482
C	 2.442982842	-2.5152539236	-0.0511345992	 0.205864
N	 2.8755909891	-3.5825970922	-0.1722405527	-0.349139
C	 2.2623563524	-0.244634666	 1.2721275831	-0.044666
N	 2.8140830993	 1.06395308	 1.0652431438	-0.524033
C	 0.8229326724	-0.6298256408	 1.0324859261	-0.208042
H	-0.2041431958	 1.6863336018	-1.448861744	 0.135476
H	-1.0552809038	 1.5931368903	 0.0994069315	 0.129664
H	 0.6480988498	 2.0712805161	 0.069739036	 0.145109
H	-0.5448518238	-0.6743310546	-0.6412418081	 0.104079
H	 2.6615617516	-0.7439999197	 2.1505905155	 0.123811
H	 3.811976863	 1.0395565395	 1.2531633923	 0.242076
H	 2.7107881049	 1.3157434286	 0.085497923	 0.249694
H	 0.2325649581	-1.1430824629	 1.779904751	 0.121511
116.7586	149.8261	182.3283	218.7636	235.7263	301.426	317.3506	394.6014	472.9261	511.1694	548.8391	619.6134	692.7868	724.6476	806.075	857.5804	878.9487	924.7586	940.7153	995.0737	1035.0079	1076.7206	1080.2397	1112.3709	1154.6044	1191.8377	1216.265	1287.9302	1310.391	1332.9985	1393.3584	1414.8425	1478.2244	1489.5999	1499.9732	1660.4255	2338.6044	3027.5897	3045.0418	3108.0929	3146.8243	3162.5909	3205.456	3488.4279	3566.6329
CC1OC2(C#N)C(N)C12	C[C@H]1O[C@@]2(C#N)[C@@H](N)[C@@H]12	
InChI=1S/C6H8N2O/c1-3-4-5(8)6(4,2-7)9-3/h3-5H,8H2,1H3	InChI=1S/C6H8N2O/c1-3-4-5(8)6(4,2-7)9-3/h3-5H,8H2,1H3/t3-,4-,5+,6-/m1/s1
