19
gdb 101648	3.98492	0.73456	0.64413	2.3012	73.31	-0.2606	0.011	0.2716	1667.8076	0.159191	-456.346056	-456.336084	-456.33514	-456.381359	36.167	
N	-0.0153618403	 1.5069673681	 0.0933195112	-0.505834
C	-0.048246626	 0.041045811	-0.0538205617	-0.145603
C	-1.4885672748	-0.4954128986	 0.0767654094	-0.208594
C	-2.111931997	-0.1842119006	 1.4433930268	 0.102641
O	-2.3733122592	 1.2014601838	 1.6120287368	-0.4572
C	-3.4610888227	-0.876923515	 1.6346627064	-0.051419
O	-4.0330286892	-0.5269477329	 2.8749852788	-0.427038
C	 0.5691992567	-0.4130154951	-1.3169946637	 0.2616
N	 1.051383806	-0.7309567213	-2.3184716379	-0.311965
H	 0.9443098682	 1.8384547386	 0.1205564102	 0.255556
H	-0.4533536203	 1.9433540769	-0.7142528384	 0.255885
H	 0.5479182609	-0.3767271796	 0.7665420669	 0.141405
H	-2.1111466748	-0.0635414192	-0.7157685472	 0.120943
H	-1.4652279588	-1.5792845517	-0.0816998675	 0.126153
H	-1.4323175831	-0.5425817647	 2.2368951441	 0.068596
H	-1.5473853733	 1.6674144391	 1.4057688961	 0.292354
H	-4.1202498275	-0.6053051523	 0.7926448509	 0.085972
H	-3.3338012319	-1.9646736811	 1.627963029	 0.102906
H	-3.940108773	 0.4320810446	 2.9384208397	 0.293644
67.4848	84.2418	113.7707	163.1679	200.0491	262.4896	295.4328	297.8742	342.4743	390.2616	462.2818	470.94	534.7685	583.7649	605.6262	656.9465	845.2637	865.9727	906.5673	948.5551	985.9249	1034.6996	1068.9655	1089.964	1113.8382	1135.7184	1171.0644	1226.001	1265.9349	1297.6981	1323.0507	1355.0871	1376.6602	1388.8488	1395.4516	1443.8854	1461.8684	1471.09	1501.3772	1656.6842	2348.9328	2944.8541	2965.7983	3037.3553	3046.5541	3072.935	3089.3841	3491.2687	3571.9124	3664.7277	3781.1003
NC(CC(O)CO)C#N	N[C@@H](C[C@@H](O)CO)C#N	
InChI=1S/C5H10N2O2/c6-2-4(7)1-5(9)3-8/h4-5,8-9H,1,3,7H2	InChI=1S/C5H10N2O2/c6-2-4(7)1-5(9)3-8/h4-5,8-9H,1,3,7H2/t4-,5+/m0/s1
