12
gdb 21107	3.85447	1.98402	1.32078	1.7899	63.56	-0.2835	-0.0601	0.2234	842.326	0.085481	-373.714852	-373.707966	-373.707022	-373.746487	23.708	
C	-0.0338787569	 1.4444152953	 0.0334978351	-0.339902
N	-0.0118400095	-0.0078288237	 0.0653627438	-0.032936
N	-0.0363975252	-0.7185964619	-1.06803822	-0.118013
N	-0.0086028908	-1.98788691	-0.7560737616	-0.171822
C	 0.0342760855	-2.11008262	 0.5897554084	-0.162161
C	 0.0331810299	-0.8425500165	 1.1440494902	 0.255869
C	 0.067490679	-0.3856315731	 2.4782745721	 0.233827
N	 0.0957531873	 0.0052837817	 3.5682069117	-0.335676
H	 0.8654853129	 1.8473137504	 0.5050125725	 0.167688
H	-0.0684488745	 1.7382686666	-1.0146877843	 0.180495
H	-0.9158304551	 1.8215035638	 0.5564714061	 0.167658
H	 0.0631315073	-3.0660265426	 1.086152646	 0.154974
78.9202	142.418	176.56	226.7899	353.5008	510.1191	541.6448	600.1256	692.253	708.6444	732.2621	872.8624	983.6173	1040.4575	1147.8437	1152.5296	1197.3408	1267.0852	1308.3758	1338.6155	1434.3805	1472.9087	1482.4317	1498.3246	1558.2832	2349.0111	3061.8599	3133.592	3176.4139	3282.5162
CN1N=NC=C1C#N	Cn1nncc1C#N	
InChI=1S/C4H4N4/c1-8-4(2-5)3-6-7-8/h3H,1H3	InChI=1S/C4H4N4/c1-8-4(2-5)3-6-7-8/h3H,1H3
