19
gdb 46384	3.73618	0.9469	0.80271	2.9753	78.29	-0.2455	0.033	0.2785	1426.7592	0.16031	-419.1981	-419.189343	-419.188399	-419.232974	31.487	
O	-0.1635467334	 0.030337275	-0.4641262763	-0.370578
C	-0.0955928495	 1.1956039481	-0.1724389201	 0.406671
C	-1.0835493661	 2.3612346776	 0.0682808339	-0.371137
C	 0.1824255116	 3.2217363377	 0.3459076571	-0.176455
N	 0.978790709	 2.0172344045	 0.0826661897	-0.065605
C	 2.3980101507	 1.7577876396	 0.0977773118	-0.21222
C	 3.0282187143	 1.9885875744	 1.4545076724	 0.0281
C	 4.4518315806	 2.3866372063	 1.5548549846	-0.243292
N	 3.3876126869	 3.3505597547	 1.8889614698	-0.315009
H	-1.66466585	 2.6463974411	-0.8102405982	 0.133753
H	-1.7515363145	 2.2160096035	 0.9188625924	 0.135387
H	 0.3609321081	 4.0348361536	-0.3674879493	 0.107287
H	 0.2786981574	 3.6052766576	 1.3662178745	 0.127729
H	 2.5156935409	 0.7120323837	-0.2074232732	 0.146903
H	 2.9096046127	 2.3813395239	-0.6522846814	 0.097721
H	 2.6021940736	 1.3831843708	 2.251891356	 0.10522
H	 5.0523231547	 2.0545318312	 2.396274637	 0.125735
H	 5.007307942	 2.5240754053	 0.6299989822	 0.113281
H	 3.2688144609	 4.0022699116	 1.115530677	 0.226512
45.2573	71.8787	83.1293	188.0965	216.3408	263.5357	354.5102	414.0577	530.1455	563.5366	734.7436	776.8492	800.0321	822.4325	829.2427	926.2201	932.1635	953.4038	976.4645	1040.1917	1046.145	1059.2097	1117.769	1127.7157	1155.9136	1162.3412	1186.2493	1200.6511	1238.8311	1256.7222	1276.5568	1301.0608	1323.2156	1361.1351	1417.7389	1434.6565	1463.0358	1467.8408	1513.7305	1532.3066	1876.3298	2981.4407	3031.4705	3077.4552	3081.9877	3089.8288	3108.9995	3133.6828	3147.3858	3195.4941	3478.6712
O=C1CCN1CC1CN1	O=C1CCN1C[C@H]1CN1	
InChI=1S/C6H10N2O/c9-6-1-2-8(6)4-5-3-7-5/h5,7H,1-4H2	InChI=1S/C6H10N2O/c9-6-1-2-8(6)4-5-3-7-5/h5,7H,1-4H2/t5-/m1/s1
