14
gdb 25075	3.50408	1.67595	1.25559	5.3745	67.87	-0.2147	0.0078	0.2225	942.1434	0.102545	-436.663729	-436.657322	-436.656378	-436.694671	25.261	
O	-0.1733187645	-0.0790307241	 0.123577583	-0.390721
C	-0.0399406009	 1.1100049791	 0.1432604803	 0.472731
O	-1.1072624717	 2.0238730358	 0.0993253206	-0.230077
C	-0.6339772216	 3.3195869413	 0.2834086159	-0.144522
C	 0.7017139238	 3.2669715	 0.3046156931	 0.239905
C	 2.0883558778	 3.6472321762	 0.7516594798	-0.220154
C	 2.4289464834	 2.7878931529	 1.9648093177	-0.276268
C	 2.4374881809	 2.15275883	 0.6057889312	-0.007051
N	 1.0680652631	 1.9287848093	 0.1250688985	-0.131907
H	-1.3729822123	 4.0969831815	 0.3609576684	 0.152323
H	 2.6632414277	 4.512710017	 0.4582837958	 0.125514
H	 3.4115644404	 2.9731555337	 2.3892288503	 0.134184
H	 1.6586196581	 2.5306918053	 2.6844995016	 0.140144
H	 3.2810443459	 1.6666336321	 0.1371336338	 0.135898
108.4557	186.4797	332.886	373.2782	481.898	587.028	651.7864	679.576	696.6647	715.3651	754.1077	782.1579	821.1873	865.9582	911.8967	939.9363	990.3268	1017.5312	1040.9479	1075.95	1090.1443	1100.202	1176.1908	1220.491	1267.3815	1285.2782	1332.3695	1353.1104	1472.3729	1704.3621	1897.8938	3125.6148	3216.0236	3223.8349	3235.2367	3298.0336
O=C1OC=C2C3CC3N12	O=C1O[CH][C]2[C@H]3C[C@H]3N12	
InChI=1S/C6H5NO2/c8-6-7-4-1-3(4)5(7)2-9-6/h2-4H,1H2	InChI=1S/C6H5NO2/c8-6-7-4-1-3(4)5(7)2-9-6/h2-4H,1H2/t3-,4+/m0/s1
