19
gdb 53488	3.98928	0.759	0.73537	1.0429	87.14	-0.2439	0.0336	0.2774	1627.594	0.154067	-385.83366	-385.822433	-385.821488	-385.871066	39.576	
C	 0.1024513083	 1.5163617123	-0.0852018092	-0.499145
C	 0.0588740494	 0.0631234653	-0.0080113615	 0.083438
C	 0.0244460064	-1.1389480586	 0.0506270014	 0.062313
C	-0.0114521563	-2.5930923494	 0.123907475	-0.383433
C	-1.4518940139	-3.1930744727	 0.0358301491	 0.147494
C	-2.3447145525	-2.6781907723	 1.1697743182	-0.395217
O	-2.090409605	-2.788335835	-1.1726240448	-0.436928
C	-1.337845209	-4.6602348297	 0.0855422522	 0.32503
C	-1.2165829973	-5.8564636334	 0.0937448944	-0.47668
H	 0.9963732642	 1.8594503076	-0.617959785	 0.146995
H	-0.7703899955	 1.9110704573	-0.6169177185	 0.150412
H	 0.1168734343	 1.9708213289	 0.9116523582	 0.146101
H	 0.5825807833	-3.0277599361	-0.6905584416	 0.122357
H	 0.4511971494	-2.9440452164	 1.0545060365	 0.134681
H	-2.4077692799	-1.5896248988	 1.1088078355	 0.138831
H	-3.3457813238	-3.1022189727	 1.0702030911	 0.131906
H	-1.9341284105	-2.9613078835	 2.1419991297	 0.120587
H	-1.6122584441	-3.1856307804	-1.9088836648	 0.282904
H	-1.1275058774	-6.9148739626	 0.1074879042	 0.198355
25.5043	54.1819	79.0223	156.9766	176.5918	207.1265	242.4347	262.6988	295.2103	344.7152	382.7889	390.0362	405.0982	464.3952	561.293	576.1841	638.9924	663.7608	752.5155	783.9111	882.1686	942.2873	957.9557	1051.957	1054.1607	1078.2602	1152.9349	1169.6175	1173.8668	1245.3497	1330.7377	1377.9916	1409.104	1415.3263	1463.8234	1478.3813	1479.2978	1483.3763	1493.5891	2228.6174	2373.6035	3019.5812	3026.3812	3054.9695	3057.7038	3086.2159	3087.7146	3138.2381	3144.4073	3499.8422	3806.6303
CC#CCC(C)(O)C#C	CC#CC[C@@](C)(O)C#C	
InChI=1S/C8H10O/c1-4-6-7-8(3,9)5-2/h2,9H,7H2,1,3H3	InChI=1S/C8H10O/c1-4-6-7-8(3,9)5-2/h2,9H,7H2,1,3H3/t8-/m0/s1
