22
gdb 113856	3.89667	0.83814	0.74652	1.7768	83.39	-0.2286	0.0773	0.3059	1585.2883	0.193724	-404.291234	-404.281673	-404.280728	-404.326898	34.506	
C	-0.2358363935	 1.6826431273	-0.4605056376	-0.373919
C	 0.007280623	 0.299912111	 0.140108299	-0.11751
N	-1.2465408783	-0.4467730386	 0.1972087845	-0.083051
C	-1.5865384405	-1.295463428	-0.9377702098	-0.268431
C	-1.2429457471	-1.8985863228	 0.3849317306	-0.004517
C	 0.0064720258	-2.7188852938	 0.5694216737	-0.040345
C	 0.4997979649	-2.9749163439	 2.015423855	-0.086714
O	 0.4380522466	-4.4035831161	 1.8348897493	-0.271028
C	-0.1622822635	-4.2581183078	 0.5331314718	-0.092633
H	 0.6893081682	 2.2671119318	-0.4729695015	 0.110787
H	-0.5988773288	 1.6009722755	-1.4902869699	 0.118453
H	-0.9868590529	 2.2259618702	 0.1193560884	 0.127952
H	 0.7899663909	-0.2154629743	-0.441446488	 0.082763
H	 0.3832364861	 0.3996852397	 1.1657023184	 0.103953
H	-2.6157698687	-1.2539027337	-1.2849559447	 0.115079
H	-0.8449969729	-1.401902593	-1.7306780682	 0.103245
H	-2.0688374688	-2.2374422565	 1.0126080912	 0.09044
H	 0.8071820881	-2.3799194621	-0.0892764722	 0.081128
H	 1.513024086	-2.6330930266	 2.2571733359	 0.102147
H	-0.1891544386	-2.6290145438	 2.79853055	 0.100764
H	-1.2067300672	-4.6001450034	 0.52160388	 0.098957
H	 0.3953144912	-4.7950226913	-0.242954946	 0.102481
51.1588	62.2102	86.1361	132.1277	190.2263	239.4417	305.0214	317.3876	361.8097	445.8509	570.6164	722.5875	753.2442	812.1255	853.6433	893.3951	913.5315	935.7641	968.813	989.5104	1030.748	1041.6421	1045.5094	1085.7827	1103.2777	1111.4116	1128.2962	1146.6914	1162.2708	1162.6509	1198.6421	1220.8476	1258.0757	1296.1921	1309.3607	1311.434	1338.3356	1380.6927	1385.7449	1408.9407	1442.1527	1488.0459	1489.0793	1504.8298	1511.7629	1516.0381	1537.7245	2955.4163	2996.7324	3007.8048	3039.2013	3045.0658	3052.0768	3053.0884	3078.4312	3083.8225	3104.3362	3108.3099	3121.0784	3168.7953
CCN1CC1C1COC1	CCN1C[C@H]1C1COC1	
InChI=1S/C7H13NO/c1-2-8-3-7(8)6-4-9-5-6/h6-7H,2-5H2,1H3	InChI=1S/C7H13NO/c1-2-8-3-7(8)6-4-9-5-6/h6-7H,2-5H2,1H3/t7-,8?/m0/s1
