16
gdb 46815	2.67364	1.61659	1.15711	3.361	76.34	-0.2345	-0.0234	0.2111	1054.3464	0.124192	-400.720013	-400.712121	-400.711176	-400.752376	30.424	
O	-0.0062870134	-0.0157514146	-0.0064154076	-0.300654
C	-0.0324520497	 1.1835136295	-0.057813332	 0.372572
C	-1.2786185465	 2.0731810035	-0.1406710602	-0.334566
C	-0.8202625522	 3.3655779347	-0.8498036989	-0.221461
C	 0.6767328223	 3.4426096505	-0.5820708973	-0.084971
N	 1.0019581858	 3.2507272642	 0.827116897	-0.366855
C	 1.1794847016	 2.0982768561	-0.133362901	 0.066099
C	 2.4821612014	 1.5925313857	-0.4157153315	 0.172484
C	 3.5787338208	 1.1536481443	-0.6410983615	-0.371699
H	-2.0818691536	 1.5430073854	-0.6544727604	 0.131178
H	-1.6122371018	 2.2777992966	 0.881499696	 0.1509
H	-0.9903089199	 3.296224985	-1.9292383675	 0.116102
H	-1.3386455417	 4.2569658698	-0.4850077768	 0.11763
H	 1.3116292328	 4.0747203531	-1.1940943186	 0.109974
H	 1.9330850656	 3.6171276255	 1.017152669	 0.248503
H	 4.5439269485	 0.7597056308	-0.8435215386	 0.194765
101.1019	131.9771	166.5451	246.516	372.2793	394.3555	466.628	513.7808	555.1562	597.8389	609.6589	640.6788	667.3119	672.7078	815.4471	817.0872	876.9792	894.3432	985.1963	1017.0992	1021.3257	1076.152	1089.0152	1156.1627	1182.2902	1239.0985	1265.8888	1290.4945	1338.5051	1346.5497	1416.5094	1450.8322	1489.1307	1852.5468	2240.8257	3051.9595	3068.2478	3095.9672	3129.951	3172.6005	3495.1639	3502.236
O=C1CCC2NC12C#C	O=C1CC[C@H]2N[C@@]12C#C	
InChI=1S/C7H7NO/c1-2-7-5(8-7)3-4-6(7)9/h1,5,8H,3-4H2	InChI=1S/C7H7NO/c1-2-7-5(8-7)3-4-6(7)9/h1,5,8H,3-4H2/t5-,7-/m1/s1
