18
gdb 78944	2.71991	1.98555	1.52787	1.2061	74.11	-0.2151	0.0606	0.2757	915.2567	0.147747	-401.849584	-401.842366	-401.841422	-401.880711	29.677	
C	 0.0153659756	 1.5368110665	-0.1223716886	-0.324043
N	-0.0071234888	 0.0912668331	 0.0093775544	-0.064185
C	-1.2289231855	-0.5638850012	 0.5317008935	-0.04128
C	-1.4669177999	-0.1245521515	 2.0109251922	-0.17127
C	-0.8162929625	-1.3702039982	 2.5928941198	-0.169725
C	-0.3476639504	-1.7041513621	 1.1459513665	-0.055674
C	 0.6928600537	-0.5316001383	 1.1524917292	-0.123704
C	-0.00784421	-0.110279035	 2.4923363244	 0.404516
O	 0.4697658105	 0.6517693362	 3.5346633359	-0.469234
H	 1.0312532708	 1.8666704811	-0.3638907202	 0.1208
H	-0.6412476516	 1.8416944742	-0.9441994206	 0.121455
H	-0.3126514905	 2.071980282	 0.7873741747	 0.081937
H	-2.0718420107	-0.6882847923	-0.1490814858	 0.068931
H	-2.2250140141	 0.5056003545	 2.4574693345	 0.086681
H	-1.0932927766	-1.9808595725	 3.4399641036	 0.096651
H	-0.1751008956	-2.678058956	 0.6980935958	 0.080893
H	 1.7785798813	-0.6269703363	 1.1141458871	 0.072066
H	 0.3893417645	 1.5825496457	 3.2978224236	 0.285184
169.4866	213.1234	233.7414	292.2508	330.2697	364.5778	557.3232	599.7187	640.2227	679.6784	760.9652	774.0504	819.0437	838.7315	848.6625	881.5919	893.0548	921.2431	930.6261	939.7449	985.0174	1056.3475	1073.0354	1112.3118	1144.6685	1150.2389	1157.3589	1173.026	1192.0667	1202.2887	1227.7461	1249.2811	1275.6381	1293.0306	1309.1876	1440.9876	1451.0479	1481.9531	1502.1376	2938.2994	3057.1474	3098.4668	3106.4598	3113.1129	3164.1882	3199.579	3222.9237	3787.826
CN1C2C3C4C2C1C34O	CN1[C@@H]2[C@H]3[C@H]4[C@@H]2[C@@H]1[C@@]34O	
InChI=1S/C7H9NO/c1-8-5-2-3-4(5)7(3,9)6(2)8/h2-6,9H,1H3	InChI=1S/C7H9NO/c1-8-5-2-3-4(5)7(3,9)6(2)8/h2-6,9H,1H3/t2-,3+,4+,5-,6+,7-/m0/s1
