16
gdb 33742	3.31993	1.57312	1.32748	4.6763	72.45	-0.2791	-0.0042	0.2749	964.3474	0.126045	-400.71045	-400.703798	-400.702854	-400.741357	27.188	
N	 0.053678194	-1.1282268814	-0.0374877464	-0.333659
C	 0.042017299	 0.0268381292	-0.0164404871	 0.185088
C	-0.0220274429	 1.4742350873	 0.0233861172	 0.309192
C	-0.3263051861	 2.2792857799	 1.3247249445	-0.255067
C	 0.4965812555	 3.2944933967	 0.488049602	 0.036387
O	 1.2624949149	 2.1602088504	-0.0336282806	-0.303916
C	-0.4596447539	 3.6330409745	-0.677083701	-0.058216
C	-0.0959255685	 3.0583322678	-2.0223609105	-0.292091
C	-0.8712228222	 2.2187877303	-1.042022364	-0.103587
H	-1.3692199442	 2.5031708143	 1.5577765426	 0.11199
H	 0.2205958451	 1.892988107	 2.185477084	 0.130023
H	 1.1149415846	 4.0742063321	 0.9282782444	 0.099627
H	-1.1658146008	 4.4473481022	-0.5755004579	 0.10218
H	-0.6611823043	 3.4322454129	-2.86915888	 0.119244
H	 0.9374673886	 2.8104062494	-2.2276312611	 0.142364
H	-1.8909971089	 1.9054845673	-1.2221502262	 0.11044
142.5976	168.1536	366.5987	370.0069	496.8622	516.8438	526.8235	549.8409	632.3266	702.111	787.1278	806.8425	816.7212	857.6624	918.4707	935.6322	960.4708	978.521	993.3795	1030.7987	1066.4635	1081.6569	1092.269	1102.2303	1137.7811	1179.0525	1214.0045	1227.9538	1246.0135	1285.1237	1303.5766	1353.0197	1464.5082	1483.7916	2363.5862	3077.7331	3146.3354	3147.3792	3156.4728	3194.2924	3206.5059	3239.9761
N#CC12CC(O1)C1CC21	N#C[C@@]12C[C@@H](O1)[C@H]1C[C@@H]21	
InChI=1S/C7H7NO/c8-3-7-2-6(9-7)4-1-5(4)7/h4-6H,1-2H2	InChI=1S/C7H7NO/c8-3-7-2-6(9-7)4-1-5(4)7/h4-6H,1-2H2/t4-,5+,6+,7+/m0/s1
