19
gdb 114876	2.76204	1.40102	1.28796	2.5087	70.01	-0.2517	0.0724	0.3242	1067.2894	0.160794	-460.143917	-460.136038	-460.135094	-460.176559	30.376	
O	 0.0284778574	 1.2253650277	 0.5389527903	-0.428219
C	 0.0149061061	-0.1681370883	 0.3054159966	-0.070568
C	-1.3682632091	-0.6299413513	-0.1597097212	 0.082451
C	-1.5401996153	-2.1582553988	-0.215005306	-0.27387
C	-2.1786925316	-2.5011389398	 1.124991024	 0.100075
O	-1.2443464944	-2.546634598	 2.2315220849	-0.293561
C	-1.8826110817	-1.4193801312	 2.8767259742	-0.108647
C	-2.7793702422	-1.1769979409	 1.6457481919	 0.06793
O	-2.374088869	-0.1496082988	 0.7627657927	-0.292872
H	-0.7833667058	 1.4135433748	 1.0263096956	 0.285347
H	 0.7490704499	-0.3740866442	-0.4822700267	 0.103906
H	 0.3167807927	-0.740053902	 1.1958010681	 0.10558
H	-1.5925514161	-0.1464103917	-1.1159284044	 0.092153
H	-2.2151370119	-2.4452202273	-1.0270915022	 0.11158
H	-0.5928079635	-2.6863896459	-0.352457462	 0.125244
H	-2.8152675826	-3.3908703254	 1.1013627154	 0.082417
H	-2.424737623	-1.727066687	 3.7798099139	 0.105644
H	-1.1789392876	-0.6170252014	 3.1218837861	 0.113574
H	-3.8529073223	-1.0837212406	 1.8190424289	 0.091838
81.3323	136.3766	167.7081	234.021	362.0462	365.3698	407.3881	456.2649	506.8235	640.5752	743.1812	784.7071	805.8984	853.9925	891.6234	912.2199	950.7426	992.312	1014.968	1027.4147	1039.2354	1068.8925	1089.2899	1109.509	1128.8851	1176.1244	1204.6596	1226.7083	1236.9144	1253.5801	1293.1186	1325.719	1337.4508	1352.4477	1357.9464	1375.0204	1401.6673	1440.9765	1469.9876	1508.7679	1518.3971	2997.9312	3019.8868	3050.6027	3055.3186	3065.1873	3073.0374	3079.6101	3099.1419	3111.0819	3778.3579
OCC1CC2OCC2O1	OC[C@H]1C[C@H]2OC[C@H]2O1	
InChI=1S/C6H10O3/c7-2-4-1-5-6(9-4)3-8-5/h4-7H,1-3H2	InChI=1S/C6H10O3/c7-2-4-1-5-6(9-4)3-8-5/h4-7H,1-3H2/t4-,5-,6-/m1/s1
