21
gdb 119578	2.78915	1.06751	0.94801	2.6121	79.71	-0.2271	0.081	0.3081	1371.76	0.18049	-424.173699	-424.164117	-424.163172	-424.208533	35.06	
C	-0.4471483005	 1.4676115166	 0.4135868976	-0.221054
O	-0.6978446833	 0.1049186039	 0.658864169	-0.233492
C	-0.8380548873	-0.6506295264	-0.5282648078	-0.1886
C	-1.0069955727	-2.0928286007	-0.1770226545	 0.250019
C	-1.8134749775	-3.0743355733	-1.0087031265	-0.370999
C	-2.1553676177	-2.8622861502	 0.4325969194	 0.073297
O	-1.3027786396	-3.6319842512	 1.2774927777	-0.310712
C	-0.1409889559	-2.8609864024	 0.8316338171	 0.109766
C	 1.023720379	-3.7179571383	 0.3835108271	-0.411436
H	-0.3461644514	 1.961571341	 1.3828877191	 0.129034
H	 0.4813378775	 1.6168265056	-0.1608021748	 0.1033
H	-1.2714734866	 1.9421320015	-0.1426238882	 0.103399
H	-1.7055475137	-0.2980164675	-1.1124456684	 0.086501
H	 0.0518375672	-0.5111880502	-1.1693642588	 0.087437
H	-2.4841195818	-2.6050594497	-1.7229615101	 0.112191
H	-1.3943029983	-4.0232514708	-1.3295807633	 0.114697
H	-3.1193156565	-2.5532018632	 0.8196052426	 0.10502
H	 0.1608914812	-2.1869230302	 1.6411250672	 0.096951
H	 0.7557272529	-4.3608028273	-0.4593171905	 0.11842
H	 1.8651309057	-3.0828407779	 0.0852312606	 0.117238
H	 1.3593841594	-4.3571519093	 1.2064109754	 0.12902
65.23	83.9381	127.2798	192.7183	209.0598	229.1242	240.2524	327.3676	356.3961	421.3566	478.289	558.8516	676.5995	725.2958	810.6962	861.5771	895.7309	933.8106	971.5141	991.1782	1016.825	1031.0467	1061.1307	1083.7201	1088.8407	1130.3502	1137.8665	1153.2255	1182.0507	1219.2578	1231.5036	1258.2739	1284.916	1311.894	1380.1716	1392.8561	1409.3764	1436.4166	1480.6422	1484.2888	1485.6478	1487.3315	1497.0391	1500.995	1521.0629	2933.1594	2963.5516	2969.2331	3010.3144	3036.0356	3047.8388	3104.0165	3115.4256	3115.936	3119.6055	3182.3743	3205.5768
COCC12CC1OC2C	COC[C@]12C[C@H]1O[C@H]2C	
InChI=1S/C7H12O2/c1-5-7(4-8-2)3-6(7)9-5/h5-6H,3-4H2,1-2H3	InChI=1S/C7H12O2/c1-5-7(4-8-2)3-6(7)9-5/h5-6H,3-4H2,1-2H3/t5-,6+,7-/m0/s1
