17
gdb 24053	6.98095	0.74053	0.67952	3.4537	81.1	-0.2204	0.0289	0.2493	1588.8105	0.136665	-380.881032	-380.872395	-380.87145	-380.916041	31.419	
C	 0.0302747335	-1.2431672357	-0.0932047997	-0.436599
C	-0.0231595768	-0.042191552	-0.095306432	 0.292
C	-0.0560715828	 1.4144022932	-0.0885298639	-0.345299
C	 1.3331630996	 2.0311383181	 0.1754226625	-0.321335
C	 1.294471131	 3.5272836058	 0.1200631344	 0.374229
N	 0.4405122055	 4.2575014953	-0.56495788	-0.300032
C	 0.8025144202	 5.5675606014	-0.3451815246	-0.089129
C	 1.8892748391	 5.6331853865	 0.4821818584	-0.11262
N	 2.1943982416	 4.3202241918	 0.775535854	-0.296532
H	 0.0595063382	-2.3043398176	-0.0988166803	 0.191856
H	-0.4315678208	 1.7956649715	-1.043555156	 0.161248
H	-0.7611140206	 1.7710354797	 0.6712832756	 0.138121
H	 1.7051098854	 1.6996431726	 1.1518247215	 0.113181
H	 2.0391096036	 1.6417241818	-0.5693774264	 0.133859
H	 0.2568337109	 6.384043625	-0.7929028591	 0.107039
H	 2.4565951933	 6.4553531351	 0.8850576506	 0.127703
H	 2.9440361091	 4.0045853976	 1.3680161549	 0.262312
22.6377	59.0294	105.0829	203.1385	271.518	352.783	379.4853	492.4728	531.5546	614.0533	642.7128	644.8654	690.822	729.078	754.9706	781.1475	854.2007	928.3263	960.236	997.5114	1032.2464	1036.9952	1103.3759	1137.2521	1172.7716	1195.879	1228.7596	1298.0982	1312.915	1373.822	1402.1962	1457.7405	1471.0835	1490.3876	1512.2102	1590.538	2239.1989	3023.7409	3046.1456	3058.6984	3088.7373	3248.9674	3281.3422	3508.0579	3662.4295
C#CCCC1=NC=CN1	C#CCCc1ncc[nH]1	
InChI=1S/C7H8N2/c1-2-3-4-7-8-5-6-9-7/h1,5-6H,3-4H2,(H,8,9)	InChI=1S/C7H8N2/c1-2-3-4-7-8-5-6-9-7/h1,5-6H,3-4H2,(H,8,9)
