21
gdb 95796	2.13412	1.68451	1.32819	2.4254	73.6	-0.2467	0.0657	0.3123	1078.1394	0.18344	-461.368329	-461.359407	-461.358463	-461.4013	34.817	
C	 0.0125222397	 1.5759081289	 0.0360140899	-0.404945
C	 0.0864799592	 0.0476312716	 0.0130695659	-0.038957
C	 0.8048227475	-0.4967236227	-1.2385766202	 0.132451
O	 2.1723684571	-0.0539777307	-1.2785960527	-0.4545
C	 0.7800907319	-2.0246123059	-1.211262583	-0.130624
O	 1.5096426364	-2.4768532426	-0.0815454577	-0.261305
C	 0.8938042496	-2.0700204387	 1.1396420306	-0.099448
C	 0.7561431455	-0.5436960435	 1.2756917617	 0.122565
O	 2.0024407779	 0.0699754725	 1.5653638722	-0.446742
H	 1.0086225734	 2.0232338035	 0.0248232331	 0.13521
H	-0.535916898	 1.9480182248	-0.835842902	 0.108203
H	-0.5015637765	 1.9274171923	 0.9361223674	 0.114861
H	-0.9386051718	-0.3484866772	-0.022438858	 0.072798
H	 0.3136993825	-0.1246198558	-2.1465279462	 0.077415
H	 2.7078504091	-0.820547336	-1.0336691946	 0.294401
H	-0.2573434021	-2.3944470243	-1.1896528975	 0.09728
H	 1.2801351029	-2.4409602893	-2.0915650449	 0.114717
H	-0.1022222703	-2.5375719613	 1.2210605564	 0.08312
H	 1.5290668499	-2.4512443031	 1.9423585449	 0.120357
H	 0.1146904018	-0.354481705	 2.1472454312	 0.077237
H	 2.4142562444	 0.2770533025	 0.7166548334	 0.285905
127.8513	155.1611	191.4835	236.4678	257.7612	263.5596	317.6484	355.4047	407.8745	429.3823	454.1468	619.269	651.0076	674.9663	732.8971	829.42	851.3723	890.6443	932.2938	960.3369	995.0571	1013.1245	1033.9874	1068.2635	1098.2568	1111.5037	1156.8493	1186.2761	1222.628	1258.047	1284.1054	1307.6966	1322.9621	1347.0645	1365.1838	1377.9681	1388.0234	1408.9212	1415.124	1426.8312	1452.3016	1478.2159	1493.1802	1494.7112	1498.4685	2964.6837	2983.472	3003.7326	3019.1368	3031.019	3039.9251	3080.6871	3101.7822	3108.1633	3130.6567	3749.4153	3764.51
CC1C(O)COCC1O	C[C@H]1[C@@H](O)COC[C@H]1O	
InChI=1S/C6H12O3/c1-4-5(7)2-9-3-6(4)8/h4-8H,2-3H2,1H3	InChI=1S/C6H12O3/c1-4-5(7)2-9-3-6(4)8/h4-8H,2-3H2,1H3/t4-,5-,6+
