16
gdb 24320	3.90582	1.61043	1.14028	2.6893	87.37	-0.1769	-0.0154	0.1615	1012.3447	0.129333	-363.699057	-363.692794	-363.69185	-363.729327	26.5	
N	-0.011017098	 1.3483888445	 0.0098016976	-0.219294
C	 1.2537198521	 1.8648413338	 0.0005680104	-0.215428
C	 2.1333011381	 0.7868545388	-0.0139868844	 0.245017
C	 3.5491856709	 0.6852484901	-0.0281791654	-0.230135
C	 4.1233639971	-0.5579348842	-0.0407227207	-0.118522
C	 3.3294846015	-1.7448798363	-0.0397902173	-0.118519
C	 1.9612643403	-1.6888900308	-0.0263143278	-0.230136
C	 1.3267241638	-0.4190719628	-0.013039808	 0.245014
C	-0.0054263421	-0.0177299672	 0.002046751	-0.215428
H	-0.8474756372	 1.9078551202	 0.0209993112	 0.266114
H	 1.4247761855	 2.9285972865	 0.0049263751	 0.124317
H	 4.1616591973	 1.5814992496	-0.029008423	 0.08583
H	 5.2043625901	-0.6531152018	-0.0516559964	 0.085511
H	 3.8302078111	-2.707640701	-0.0500416549	 0.085511
H	 1.3667958097	-2.5971835777	-0.0257250971	 0.08583
H	-0.9232663402	-0.5819938414	 0.0076928198	 0.124317
213.3278	250.2831	397.07	436.802	548.6298	570.6848	587.9534	603.2978	618.4968	642.0698	702.9389	761.6026	768.5047	777.3208	859.9579	895.848	906.9787	926.9382	964.7033	1015.4154	1089.3103	1131.1395	1167.6029	1175.4112	1235.5724	1257.31	1318.8547	1376.5278	1394.4877	1452.9484	1492.7198	1495.3494	1567.0845	1582.4299	1672.656	3163.3533	3170.0042	3181.978	3193.3773	3266.8844	3270.1988	3666.5022
N1C=C2C=CC=CC2=C1	[nH]1cc2ccccc2c1	
InChI=1S/C8H7N/c1-2-4-8-6-9-5-7(8)3-1/h1-6,9H	InChI=1S/C8H7N/c1-2-4-8-6-9-5-7(8)3-1/h1-6,9H
