19
gdb 115235	3.82587	0.99613	0.83011	1.6316	72.04	-0.2399	-0.0273	0.2126	1356.2762	0.159438	-460.18226	-460.173574	-460.172629	-460.215944	32.538	
O	 0.002458252	 1.4458299074	 0.0902517742	-0.423738
C	 0.0502039804	 0.0420328526	-0.0425033144	-0.071091
C	-1.3481362686	-0.566715276	-0.0386437928	 0.10514
C	-1.3645471053	-2.0901471058	-0.14315092	-0.22117
C	-2.8046676367	-2.622233116	-0.034811813	-0.322934
C	-3.5908045034	-1.9745274012	 1.0957541095	 0.380348
O	-4.425646805	-2.5596710845	 1.742266873	-0.295192
C	-3.3055904628	-0.4870622227	 1.3186081214	-0.178629
O	-1.9323733289	-0.1612094514	 1.2017826646	-0.272656
H	-0.5692394779	 1.616458907	 0.8485200556	 0.290007
H	 0.5454686558	-0.1776384943	-0.9938088868	 0.109641
H	 0.6414362737	-0.4234977398	 0.7630521306	 0.092676
H	-1.9264993846	-0.1224529669	-0.8677456866	 0.072766
H	-0.9127247071	-2.4115489666	-1.088072264	 0.108689
H	-0.7528002783	-2.5010409572	 0.6684621325	 0.11745
H	-3.3490401241	-2.3769349125	-0.9592465418	 0.129808
H	-2.8489912031	-3.7075482334	 0.0830878775	 0.129416
H	-3.9070682826	 0.08462508	 0.5878887886	 0.111954
H	-3.6302138434	-0.2078901488	 2.322784462	 0.137514
67.0092	118.3052	162.9075	192.28	235.8958	349.5587	410.9974	425.6108	446.3455	479.6659	487.5624	536.8487	679.0008	755.5608	802.3035	844.1399	923.644	953.4168	1003.3987	1060.3474	1084.5846	1092.6967	1128.6004	1134.235	1177.61	1203.1607	1232.5282	1257.6527	1283.541	1303.8708	1337.3751	1360.7024	1377.0405	1394.1403	1402.7538	1442.4591	1459.1163	1469.2115	1482.9998	1500.3535	1827.0309	2944.1839	2954.6027	2977.1526	3009.5255	3036.8401	3077.0953	3084.8424	3105.2877	3118.7386	3790.3003
OCC1CCC(=O)CO1	OC[C@H]1CCC(=O)CO1	
InChI=1S/C6H10O3/c7-3-6-2-1-5(8)4-9-6/h6-7H,1-4H2	InChI=1S/C6H10O3/c7-3-6-2-1-5(8)4-9-6/h6-7H,1-4H2/t6-/m1/s1
