19
gdb 33508	2.65418	1.20231	0.93612	4.8247	80.14	-0.2473	0.0326	0.2799	1289.0822	0.15986	-382.044324	-382.035485	-382.034541	-382.078449	32.814	
N	 0.206622998	-1.1010841436	-0.5081261737	-0.353519
C	 0.1043722908	 0.0302801784	-0.2866561409	 0.252088
C	-0.0248114155	 1.447567067	-0.0498832417	 0.198548
C	-1.1039408902	 2.1399595183	-0.8818478025	-0.328026
C	-2.5159528455	 1.7368216826	-0.5123598926	 0.037734
C	-3.5763253954	 1.6974154879	-1.5502664501	-0.247908
N	-3.0836129814	 0.4515173805	-0.9426417108	-0.302636
C	 0.2586349628	 1.9444020321	 1.3603106392	-0.284279
C	 1.2613403321	 2.1952375551	 0.2748670111	-0.306221
H	-0.9911808297	 3.2226911442	-0.7452781151	 0.110123
H	-0.9253364043	 1.936039814	-1.9449752955	 0.11215
H	-2.804528771	 2.0061268864	 0.5026830883	 0.092993
H	-4.6001396277	 1.9585679476	-1.2980522912	 0.120197
H	-3.2905464584	 1.9319459649	-2.5732764828	 0.110661
H	-2.4451847859	-0.0297388004	-1.5715625324	 0.241533
H	-0.3487746187	 2.77350988	 1.7062382223	 0.129959
H	 0.4925127998	 1.2074379253	 2.1187262179	 0.144403
H	 2.1829370265	 1.6261614349	 0.2861890989	 0.143029
H	 1.3498876638	 3.1967861049	-0.1311656683	 0.129173
62.8333	80.9922	147.2071	185.8051	229.1109	276.1517	335.9031	393.7497	447.7177	571.8885	589.3616	698.605	782.386	798.529	824.0893	884.5973	912.5396	927.2064	954.5452	958.8076	961.1635	1015.6428	1060.0645	1070.5203	1094.8968	1129.1508	1145.0772	1171.4707	1194.4614	1243.839	1261.8663	1283.8111	1305.3257	1327.8059	1357.583	1429.0711	1465.5368	1472.37	1497.2133	1514.846	2346.6117	3021.456	3063.6326	3104.5592	3117.3695	3142.6141	3146.0271	3189.233	3228.6565	3242.0664	3504.3243
N#CC1(CC2CN2)CC1	N#CC1(C[C@H]2CN2)CC1	
InChI=1S/C7H10N2/c8-5-7(1-2-7)3-6-4-9-6/h6,9H,1-4H2	InChI=1S/C7H10N2/c8-5-7(1-2-7)3-6-4-9-6/h6,9H,1-4H2/t6-/m0/s1
