25
gdb 119041	2.39882	1.03017	0.83329	0.9355	90.34	-0.2499	0.0784	0.3283	1546.5466	0.226577	-389.47595	-389.464697	-389.463753	-389.512734	40.694	
C	-0.1939469048	-0.3063543848	-0.7937238796	-0.386855
C	-0.9535701807	-0.6010462509	 0.506603374	-0.255886
C	-0.0635897027	-0.8932163935	 1.708309409	 0.345531
C	 0.7875912381	 0.2716145381	 2.1653027036	-0.125329
O	-0.0536243471	 1.3552365671	 2.5127000355	-0.234569
C	 0.6624652531	 2.500226889	 2.9024374878	-0.222141
C	-0.5954899814	-1.7961684662	 2.799464523	-0.336732
C	 0.5411765476	-2.2691535261	 1.924841636	-0.037208
C	 0.3685816427	-3.4240706308	 0.9612404212	-0.415939
H	 0.452239065	-1.1426271226	-1.0799815937	 0.114891
H	-0.8924141334	-0.1259695322	-1.6170864087	 0.10975
H	 0.4358529286	 0.5841064936	-0.7014071334	 0.118042
H	-1.586713707	 0.2564560668	 0.7598486086	 0.114974
H	-1.6332056597	-1.4440054972	 0.3440558723	 0.088752
H	 1.4006939684	-0.0263178005	 3.0329723801	 0.076732
H	 1.4889187594	 0.5832190445	 1.371735779	 0.083268
H	-0.0659279313	 3.2803432349	 3.1377943307	 0.125056
H	 1.2819567149	 2.313320575	 3.7947916497	 0.100477
H	 1.3253951833	 2.8635925164	 2.1002610884	 0.100482
H	-0.3932155956	-1.5365576377	 3.833326638	 0.107001
H	-1.5704146839	-2.247155236	 2.6401953099	 0.103928
H	 1.5193742549	-2.2586968666	 2.4021612217	 0.0755
H	-0.6214971195	-3.4305098488	 0.4975589638	 0.118
H	 1.112895125	-3.3938487412	 0.1576157438	 0.115987
H	 0.4881123063	-4.3793094002	 1.4848627993	 0.116288
43.9254	85.9556	101.0914	133.7813	170.5884	198.3735	222.1293	242.038	277.2944	300.4112	327.331	385.2213	428.5085	444.1303	569.1566	716.1587	769.0043	813.4452	876.2041	910.3296	943.9933	959.9094	987.5455	1025.9468	1039.1794	1056.6935	1059.7111	1112.5396	1131.6448	1142.5473	1155.7303	1184.9274	1191.269	1224.9599	1251.0047	1266.2491	1317.1879	1331.4193	1380.0268	1405.7867	1410.3324	1419.1585	1438.1016	1477.9778	1481.0933	1484.9701	1492.0381	1495.3741	1498.9731	1501.4351	1506.9138	1510.6759	1526.2003	2944.4953	2965.237	2972.0778	3004.4286	3029.3564	3036.2008	3042.5423	3073.3038	3084.2676	3102.458	3104.9109	3108.1236	3110.1028	3122.579	3123.9726	3205.1782
CCC1(COC)CC1C	CC[C@@]1(COC)C[C@H]1C	
InChI=1S/C8H16O/c1-4-8(6-9-3)5-7(8)2/h7H,4-6H2,1-3H3	InChI=1S/C8H16O/c1-4-8(6-9-3)5-7(8)2/h7H,4-6H2,1-3H3/t7-,8+/m1/s1
