18
gdb 36616	5.07413	0.78543	0.74624	4.6722	77.2	-0.2475	0.0372	0.2847	1508.0704	0.147455	-401.923267	-401.914734	-401.913789	-401.957392	31.272	
N	-0.0614141348	-1.1351441958	 0.0576390358	-0.305621
C	-0.0276188304	 0.0183116447	-0.0050133355	 0.256067
C	 0.0424816063	 1.4742848672	-0.0847756454	-0.338121
C	 1.4846175484	 2.0070820256	 0.0834766621	-0.312787
C	 1.4998818723	 3.5011219988	 0.0298366939	 0.49764
C	 1.597335423	 4.3721225063	-1.1878281047	-0.332379
C	 2.5779246077	 4.5590414804	-0.0427066791	-0.207015
C	 1.8448092405	 5.2008763025	 1.1279141597	-0.084869
O	 0.7927841749	 4.1962009401	 1.0697283582	-0.329531
H	-0.3671122849	 1.79557657	-1.0487743129	 0.15495
H	-0.5967134398	 1.9057877891	 0.692693664	 0.174794
H	 1.8848001464	 1.6631047389	 1.0428195637	 0.130989
H	 2.1252394993	 1.6034191802	-0.7063993451	 0.126616
H	 2.0235245627	 3.9048032811	-2.0704265868	 0.118861
H	 0.829229507	 5.1159839176	-1.3824071184	 0.11809
H	 3.6495200456	 4.4708271716	-0.1588543746	 0.107786
H	 2.3840105223	 5.134292006	 2.0790298977	 0.114757
H	 1.4561370234	 6.2165937258	 0.9908377072	 0.109772
56.2814	84.6829	103.7379	198.8859	262.0224	344.2948	394.8659	416.3017	439.7005	530.1372	719.2384	742.2543	773.4246	841.2576	893.5277	947.6175	951.1667	966.9961	976.7226	993.905	1013.8426	1035.3758	1045.8577	1073.7318	1125.4917	1143.92	1174.032	1233.7875	1263.7622	1289.6211	1314.9422	1342.6981	1368.624	1413.7453	1467.586	1480.8878	1489.755	1518.0243	2362.5193	3028.4113	3047.2106	3056.8368	3078.7737	3086.0132	3107.0467	3113.2717	3202.3614	3210.0975
N#CCCC12CC1CO2	N#CCC[C@]12C[C@H]1CO2	
InChI=1S/C7H9NO/c8-3-1-2-7-4-6(7)5-9-7/h6H,1-2,4-5H2	InChI=1S/C7H9NO/c8-3-1-2-7-4-6(7)5-9-7/h6H,1-2,4-5H2/t6-,7-/m0/s1
