20
gdb 122704	3.00394	0.67958	0.58646	2.8133	84.98	-0.2463	0.0246	0.2709	1933.1592	0.167678	-403.110529	-403.099843	-403.098899	-403.147794	37.232	
C	-0.7716274412	 0.7005177916	 0.2541053265	-0.384745
C	 0.1708053034	-0.5014652069	 0.3600377979	-0.174629
C	 1.1132739269	-0.3885147354	 1.5548968328	-0.074957
O	 2.0522345014	-1.4653073483	 1.5979568408	-0.202133
C	 1.6692720719	-2.5697822711	 2.2638925309	 0.136251
N	 2.3974785302	-3.5975878011	 2.2474699325	-0.248777
C	 1.993430533	-4.7761418269	 3.0022867398	-0.256642
C	 0.7234762527	-4.7259251338	 3.7353512943	 0.288488
C	-0.3204657672	-4.6674731527	 4.3300006311	-0.474167
H	-0.2126312711	 1.6355530447	 0.1383739235	 0.120727
H	-1.4359365663	 0.6025035789	-0.6088697465	 0.123646
H	-1.3995188196	 0.7979993767	 1.146684844	 0.118693
H	-0.408613599	-1.4287553978	 0.4484868005	 0.106678
H	 0.7746670638	-0.595945509	-0.5493890668	 0.117636
H	 1.7159428804	 0.5222923678	 1.4867383192	 0.11901
H	 0.5476883515	-0.3443855892	 2.4963048473	 0.106101
H	 0.718637807	-2.475822797	 2.8045271527	 0.093625
H	 1.9660301563	-5.6239691796	 2.3046825481	 0.142458
H	 2.8008069556	-5.012359056	 3.7086194506	 0.142959
H	-1.2388315598	-4.6373113047	 4.8626842806	 0.199779
36.271	54.6343	83.3276	123.0548	166.1919	233.0423	244.2264	258.6972	281.5415	331.5044	382.4741	421.7677	557.3781	613.6822	656.3724	677.3345	755.8432	890.2674	896.6861	922.2556	958.7775	1013.3376	1023.0501	1043.7388	1073.6657	1128.7824	1178.8518	1239.2232	1266.3244	1299.4899	1334.4475	1346.1837	1349.277	1403.2079	1413.4653	1430.3385	1469.6032	1489.2848	1501.388	1501.6215	1514.5477	1770.882	2225.6331	3010.7367	3014.7064	3032.5481	3032.9849	3035.6312	3039.3154	3067.4421	3088.5014	3103.856	3112.2935	3502.5587
CCCOC=NCC#C	CCCOC=NCC#C	
InChI=1S/C7H11NO/c1-3-5-8-7-9-6-4-2/h1,7H,4-6H2,2H3	InChI=1S/C7H11NO/c1-3-5-8-7-9-6-4-2/h1,7H,4-6H2,2H3
