20
gdb 66175	3.66715	0.88781	0.85811	3.8213	76.95	-0.2559	0.0202	0.2762	1425.2312	0.170307	-440.300388	-440.290929	-440.289985	-440.335494	34.901	
O	 0.1693234995	 1.4218870402	-0.4740843486	-0.478962
C	 0.0249223206	 0.0981829079	-0.0196073295	 0.421278
C	 0.9133875178	-0.8523606139	-0.8277630495	-0.215309
N	 2.3210864428	-0.4894653734	-0.7182977241	-0.299719
C	 3.1380609487	-0.3175470121	-1.7998369562	 0.147923
O	 2.7856833441	-0.3493371321	-2.9574138081	-0.308948
C	 0.1057008968	-0.1314737062	 1.5280649642	-0.282984
C	-1.1929373365	-0.9766376099	 1.4338508375	-0.213155
C	-1.4509504737	-0.3659925818	 0.0294940336	-0.261413
H	 1.1036839633	 1.5671962272	-0.6667604101	 0.280081
H	 0.7591788177	-1.8889290332	-0.5020891581	 0.110026
H	 0.6597674418	-0.7858270071	-1.8881005693	 0.155074
H	 2.7589607305	-0.5419935137	 0.1889428183	 0.250367
H	 4.1849585965	-0.1244305292	-1.4909426011	 0.078197
H	 0.9988004651	-0.6125227662	 1.9411991956	 0.076399
H	-0.056126833	 0.8161927187	 2.0467758717	 0.11342
H	-0.9917754383	-2.0503451589	 1.3920853648	 0.103469
H	-1.9526889721	-0.8010507542	 2.1972375153	 0.105857
H	-2.1052769295	 0.5074525254	 0.07260433	 0.118727
H	-1.7949792722	-1.0286168875	-0.7693186965	 0.099672
36.5997	80.6242	126.4736	174.112	237.2389	277.1607	321.604	344.4361	378.3788	428.9099	495.9488	567.6141	647.7704	712.7467	787.6531	788.6684	860.886	897.7976	932.843	953.33	976.6018	986.6946	1032.3049	1037.5544	1085.5437	1150.9954	1193.5281	1198.462	1205.1578	1246.7402	1257.0427	1267.7644	1279.7164	1319.6281	1348.5694	1410.009	1431.9004	1467.086	1481.7707	1485.1562	1505.0236	1524.3426	1813.2099	2933.557	3026.3895	3040.549	3060.8144	3068.3154	3105.0688	3116.0161	3120.4406	3129.9339	3620.3696	3778.942
OC1(CNC=O)CCC1	OC1(CNC=O)CCC1	
InChI=1S/C6H11NO2/c8-5-7-4-6(9)2-1-3-6/h5,9H,1-4H2,(H,7,8)	InChI=1S/C6H11NO2/c8-5-7-4-6(9)2-1-3-6/h5,9H,1-4H2,(H,7,8)
