20
gdb 94073	4.22557	0.91965	0.79393	3.7641	79.38	-0.2753	0.039	0.3143	1411.3256	0.172818	-403.18947	-403.180806	-403.179861	-403.222655	33.329	
O	-0.0871418056	 1.4494511477	 0.0293262284	-0.437996
C	 0.013797203	 0.033173516	 0.0079622065	 0.146227
C	 0.7784905681	-0.5076245798	 1.2229132852	-0.242677
C	 0.7869467491	-2.0415156374	 1.2546829856	-0.206706
C	-0.6569907329	-2.5949771913	 1.2212005154	-0.135575
C	-1.4302316921	-2.0490218417	-0.0025406703	-0.211784
C	-1.4116850074	-0.5161658771	-0.0218008976	-0.209215
C	-0.6587342971	-4.0586147766	 1.2363204247	 0.260088
N	-0.6537159728	-5.2145643874	 1.2375939859	-0.324427
H	 0.8035884484	 1.8142618828	 0.0477691226	 0.281222
H	 0.5336608365	-0.2979426155	-0.9087527994	 0.065232
H	 1.8101674972	-0.1340689984	 1.2142356102	 0.091209
H	 0.3044444797	-0.1115829336	 2.1302884829	 0.108249
H	 1.3338618898	-2.4349245066	 0.3891755828	 0.117512
H	 1.3047556841	-2.4061585985	 2.1466106039	 0.119191
H	-1.1743356712	-2.262338819	 2.1318447214	 0.123348
H	-0.9679176615	-2.4454572977	-0.9147329277	 0.117172
H	-2.4593302557	-2.4193103494	 0.014762981	 0.11973
H	-1.9498101807	-0.1193967545	 0.8487655484	 0.107671
H	-1.9276763589	-0.1410476721	-0.9107929399	 0.111528
83.4166	145.9106	208.0313	222.313	284.3919	318.0638	338.9052	357.9589	454.1341	458.7787	520.0297	566.5997	584.1743	782.4051	793.7636	865.4302	910.1953	938.4186	967.1048	1014.026	1043.314	1056.082	1082.0871	1104.4594	1124.7668	1140.9353	1211.7225	1243.6382	1274.2578	1288.3467	1316.9092	1322.3865	1338.5251	1352.4122	1356.3986	1391.7599	1398.6325	1440.5535	1483.1215	1487.1438	1494.1221	1504.1166	2356.3052	2939.566	3014.2481	3019.8222	3031.4017	3037.3342	3042.1477	3063.3151	3087.4385	3089.5793	3092.9602	3814.3537
OC1CCC(CC1)C#N	O[C@H]1CC[C@@H](CC1)C#N	
InChI=1S/C7H11NO/c8-5-6-1-3-7(9)4-2-6/h6-7,9H,1-4H2	InChI=1S/C7H11NO/c8-5-6-1-3-7(9)4-2-6/h6-7,9H,1-4H2/t6-,7-
