18
gdb 29533	3.01866	1.51313	1.03104	1.8767	79.13	-0.1782	0.0526	0.2308	1132.501	0.150452	-401.988039	-401.980066	-401.979121	-402.02028	30.91	
O	 0.1854838006	 1.3760055045	-0.0926236022	-0.449651
C	 0.12023253	 0.0114618998	-0.0108828334	 0.151384
C	 0.1806483479	-0.8272504301	-1.1049913482	-0.169036
N	 0.0786729737	-2.1346380073	-0.642193685	-0.385669
C	-0.0271459855	-2.1106690817	 0.7141847922	 0.319583
C	-0.0090052041	-0.8072648038	 1.144323764	 0.155548
C	-0.2065986063	-0.7278782845	 2.6330417765	-0.366147
C	-0.0020211581	-2.219080488	 3.0640832984	-0.187154
C	-0.241585593	-3.1122167547	 1.8031239479	-0.3444
H	 0.1385412428	 1.7307139395	 0.7992032108	 0.2948
H	 0.3039025343	-0.6026265801	-2.1508413957	 0.115325
H	 0.117121101	-2.9507658133	-1.2257367153	 0.255655
H	 0.4995369895	-0.0695413995	 3.1536705254	 0.094765
H	-1.2133220839	-0.374504439	 2.898288221	 0.101356
H	 1.0322162799	-2.3512130089	 3.3954648695	 0.109603
H	-0.6475124955	-2.5026934325	 3.8994361835	 0.096422
H	-1.2609321882	-3.5242974532	 1.7897866925	 0.106073
H	 0.4429147048	-3.9682627373	 1.7778049579	 0.101544
133.8001	172.8831	192.3967	220.0287	258.2447	329.3026	409.3553	505.465	578.4478	605.1786	618.426	652.9504	696.3118	722.0842	783.5856	841.9609	900.5436	908.9049	992.455	1039.1372	1061.4913	1094.5942	1148.299	1152.6974	1209.247	1212.675	1224.8972	1284.5739	1311.9855	1319.5864	1342.7636	1362.6431	1469.7818	1485.0289	1498.1033	1511.4329	1533.708	1563.6966	1646.8365	2996.8533	2997.553	3033.2679	3041.1514	3060.681	3102.5088	3274.7012	3690.0473	3848.6907
OC1=CNC2=C1CCC2	Oc1c[nH]c2c1CCC2	
InChI=1S/C7H9NO/c9-7-4-8-6-3-1-2-5(6)7/h4,8-9H,1-3H2	InChI=1S/C7H9NO/c9-7-4-8-6-3-1-2-5(6)7/h4,8-9H,1-3H2
