14
gdb 11227	4.92066	1.41589	1.19165	6.1499	63.64	-0.2357	0.0246	0.2604	965.1823	0.110225	-374.932397	-374.925164	-374.92422	-374.964258	26.557	
N	 0.079043747	 1.3580856006	 0.1368801529	-0.57627
C	-0.0137455195	-0.00821311	 0.0255934855	 0.424972
N	-1.1045659678	-0.6735338224	 0.1532675287	-0.313079
C	-0.7332678504	-2.0886863127	 0.0383929501	-0.106483
C	 0.8354578343	-2.1319910306	 0.0215178303	-0.199186
N	 1.1574128505	-0.7221162984	-0.2350343406	-0.346562
C	-1.2959885495	-2.9007972961	 1.1260393838	 0.28146
N	-1.7141733825	-3.5602607809	 1.9776162851	-0.327502
H	 0.7491521545	 1.7971830353	-0.4775941888	 0.258799
H	-0.8222781504	 1.8136585331	 0.1357623715	 0.270541
H	-1.1313328646	-2.4943372098	-0.9016636314	 0.128168
H	 1.2329445384	-2.4718135442	 0.9838875536	 0.131091
H	 1.2208557618	-2.7841732568	-0.7653957922	 0.127073
H	 1.9894862781	-0.3686843173	 0.2189722215	 0.246979
59.7938	158.1174	207.7433	302.4855	382.7235	405.717	502.3073	551.8106	560.2027	626.3877	704.8509	716.9842	768.82	855.2631	982.1093	1019.3302	1035.5044	1052.9756	1081.2974	1168.2864	1214.1417	1280.2798	1312.8314	1345.226	1372.9315	1492.392	1530.5239	1626.3375	1728.5159	2360.5877	3009.3629	3044.9795	3100.8136	3570.1132	3575.7675	3675.8312
NC1=NC(CN1)C#N	N[C]1[N][C@@H](CN1)C#N	
InChI=1S/C4H6N4/c5-1-3-2-7-4(6)8-3/h3H,2H2,(H3,6,7,8)	InChI=1S/C4H6N4/c5-1-3-2-7-4(6)8-3/h3H,2H2,(H3,6,7,8)/t3-/m1/s1
