23
gdb 101643	2.79659	0.81646	0.75235	1.7637	89.14	-0.2484	0.0591	0.3075	1661.353	0.201747	-388.256541	-388.245056	-388.244112	-388.293923	41.14	
C	 0.1047058439	 1.4171887838	 0.0864494446	-0.23427
O	-0.1137930989	 0.0445749819	-0.1387676068	-0.243049
C	 0.6798365392	-0.5324617358	-1.1703737257	 0.125787
C	 2.1337513848	-0.733443754	-0.7314425747	-0.405814
C	 0.0217612856	-1.8652492375	-1.5345075572	-0.189186
C	-1.4567368031	-1.7506593484	-1.9787882413	-0.159161
C	-1.6327801916	-0.9739574941	-3.2994721714	-0.392371
C	-2.0494925641	-3.082862582	-2.0874445784	 0.317164
C	-2.5188119213	-4.1851332664	-2.1926335769	-0.467203
H	 1.1031816802	 1.6274551704	 0.4960427601	 0.107539
H	-0.0183251983	 2.0060923817	-0.8364262347	 0.101951
H	-0.6416326341	 1.7461822366	 0.8141098221	 0.127656
H	 0.6674589791	 0.1397381141	-2.0449228965	 0.064677
H	 2.1776213507	-1.3786710183	 0.1516711455	 0.124844
H	 2.7136521058	-1.2023035496	-1.5327240397	 0.11702
H	 2.6174329179	 0.2165866544	-0.4874245637	 0.115348
H	 0.6046208914	-2.3461890016	-2.328521271	 0.101299
H	 0.0727520831	-2.522067026	-0.6592332241	 0.11341
H	-1.9831375755	-1.20330629	-1.1878940849	 0.122866
H	-1.077863436	-1.4558415928	-4.1108451492	 0.12067
H	-2.6868404611	-0.9404229914	-3.5866401609	 0.125683
H	-1.2770316105	 0.0550671259	-3.199318359	 0.115873
H	-2.9448611371	-5.1540048909	-2.2749959563	 0.189268
30.896	78.7361	94.9769	123.0364	179.5877	197.7664	218.3279	244.7946	260.1116	299.1292	331.279	381.0007	461.0848	500.2991	532.9549	569.1603	619.4564	632.029	796.2384	826.3418	884.1419	913.772	957.0407	1002.9673	1042.6445	1102.215	1117.4579	1125.9075	1150.9648	1176.8245	1184.944	1215.2619	1263.9784	1295.4816	1343.0313	1351.5999	1383.619	1396.6634	1403.1827	1408.7524	1470.9329	1478.1091	1482.7754	1492.4575	1495.4161	1501.2941	1504.73	1513.6823	2232.7783	2957.9144	2976.2161	3026.3374	3036.1714	3039.9828	3041.6908	3046.4356	3084.8544	3109.1509	3111.0175	3114.5591	3115.1586	3121.3588	3505.9173
COC(C)CC(C)C#C	CO[C@@H](C)C[C@@H](C)C#C	
InChI=1S/C8H14O/c1-5-7(2)6-8(3)9-4/h1,7-8H,6H2,2-4H3	InChI=1S/C8H14O/c1-5-7(2)6-8(3)9-4/h1,7-8H,6H2,2-4H3/t7-,8-/m0/s1
