17
gdb 97042	3.18266	1.3169	0.94806	1.199	74.47	-0.2448	-0.0035	0.2413	1211.3298	0.135835	-455.20295	-455.193765	-455.192821	-455.237768	31.552	
C	-0.0721501643	 1.4392784404	-0.0018416604	-0.332729
N	-0.0593307718	-0.0129189523	-0.0415666694	-0.368333
C	 0.5508627902	-0.6067829292	-0.9644543165	 0.526661
O	 1.2484538545	-0.0474724616	-2.0020379271	-0.258641
C	 1.7897200854	-1.0788949447	-2.8278069253	-0.220153
C	 1.3459064628	-2.3859483561	-2.1811249013	 0.389959
O	 1.5786387559	-3.5131359847	-2.5458464553	-0.368178
N	 0.6172157753	-1.9954966719	-1.083514546	-0.174964
C	-0.0147666184	-2.9048778378	-0.1492073094	-0.339908
H	 0.4781127327	 1.917671226	-0.8197211145	 0.125796
H	-1.1096861269	 1.7912098769	-0.0270965118	 0.127244
H	 0.3539141288	 1.7774107168	 0.9495311442	 0.127244
H	 1.3990215724	-0.9909540106	-3.8464681314	 0.151785
H	 2.8813719028	-1.0049261749	-2.857381154	 0.151785
H	 0.2024943085	-3.918243469	-0.4891366303	 0.161776
H	 0.380720618	-2.749182771	 0.857429956	 0.150328
H	-1.0939757982	-2.7352790163	-0.126548689	 0.150328
51.8796	97.9984	109.3667	170.766	183.256	198.8142	283.0913	288.8167	404.0969	560.5892	581.2475	638.3716	701.7727	716.2418	754.3587	939.723	1023.9093	1063.7223	1082.1137	1116.8478	1132.3083	1137.1585	1162.5576	1178.8436	1201.281	1326.048	1360.8878	1422.4241	1443.0212	1468.112	1483.5995	1492.5638	1495.5935	1500.9072	1515.4353	1805.8638	1858.8672	3017.9027	3052.9699	3056.0592	3076.4439	3088.0491	3098.4646	3123.3917	3159.1529
CN=C1OCC(=O)N1C	CN=C1OCC(=O)N1C	
InChI=1S/C5H8N2O2/c1-6-5-7(2)4(8)3-9-5/h3H2,1-2H3	InChI=1S/C5H8N2O2/c1-6-5-7(2)4(8)3-9-5/h3H2,1-2H3
