14
gdb 133156	2.35643	1.82683	1.03561	2.4119	67.3	-0.244	-0.0451	0.1989	1048.5492	0.100648	-478.005366	-477.997721	-477.996777	-478.037751	28.298	
C	-0.0369872978	 1.5698221337	 0.0541788507	-0.503809
C	 0.00577635	 0.0710968173	 0.0431645213	 0.038209
C	 0.1616608268	-0.6751905987	-1.1414715369	 0.406674
O	 0.2751070912	 0.0013657876	-2.2991140295	-0.402994
N	 0.2068377139	-1.9986946384	-1.2166364789	-0.304654
N	 0.1003826843	-2.7278868381	-0.1072711482	-0.201627
C	-0.0494137809	-2.1154517725	 1.0567223875	-0.09684
C	-0.1000508834	-0.7215563897	 1.1625396137	 0.239484
F	-0.2525664405	-0.1706441399	 2.3650029753	-0.062769
H	 0.8843608015	 1.9848375387	-0.3666530701	 0.152645
H	-0.860698092	 1.9365055786	-0.5665131506	 0.152646
H	-0.1636601705	 1.9480251745	 1.0690378084	 0.143606
H	 0.3725636462	-0.6707452813	-2.9904948486	 0.306198
H	-0.1329292787	-2.7395524417	 1.939656666	 0.133233
90.5766	139.1338	243.9591	263.2316	284.7831	333.0024	487.0134	529.7824	553.5398	563.9278	581.3561	668.3399	695.624	789.3896	862.2532	913.708	952.1082	1061.627	1116.5961	1142.7344	1226.8898	1233.6516	1294.5855	1348.4144	1409.6778	1421.2664	1478.6428	1483.0487	1515.6161	1615.9869	1643.7655	3046.9289	3100.661	3149.2661	3196.1809	3742.3114
CC1=C(O)N=NC=C1F	Cc1c(O)nncc1F	
InChI=1S/C5H5FN2O/c1-3-4(6)2-7-8-5(3)9/h2H,1H3,(H,8,9)	InChI=1S/C5H5FN2O/c1-3-4(6)2-7-8-5(3)9/h2H,1H3,(H,8,9)
