20
gdb 70451	2.68571	1.42363	1.21574	1.7123	78.69	-0.2176	0.0635	0.2811	1114.0179	0.170713	-403.074408	-403.065886	-403.064942	-403.107598	33.075	
O	 0.1086798454	 1.3009577462	 0.7665778899	-0.468801
C	 0.0759116296	-0.0296102422	 0.368780637	 0.3673
C	 0.0596103226	-0.4237257211	-1.0859578956	-0.343559
C	-1.1044472766	-0.8124514567	-0.2129884527	-0.107593
C	-0.7160831172	-2.0466244401	 0.6091184413	-0.261766
C	 0.3773534685	-1.1927440514	 1.3318098921	-0.000329
N	 1.6902301811	-1.7793755929	 1.547196585	-0.088585
C	 2.7988429527	-1.4367411609	 0.6618887583	-0.225161
C	 2.738975335	-0.8982607129	 2.0488470458	-0.22302
H	 0.8491802098	 1.7334322596	 0.3296727431	 0.285312
H	-0.1309361993	 0.4120208254	-1.7531342123	 0.111275
H	 0.7210017136	-1.1847123556	-1.493868301	 0.109954
H	-2.1098951328	-0.4641101956	-0.4091243024	 0.09563
H	-1.487686855	-2.4180288025	 1.2855559555	 0.105655
H	-0.3257015679	-2.8831501076	 0.0219537303	 0.102331
H	-0.0035063363	-0.9043682172	 2.3170327165	 0.093913
H	 3.4722003327	-2.2533842884	 0.4155764109	 0.113906
H	 2.623718522	-0.7315098001	-0.1455943426	 0.108002
H	 2.5044240093	 0.1591718927	 2.1593538334	 0.112117
H	 3.370970163	-1.3093796486	 2.8317894676	 0.113416
67.4698	126.3583	169.1374	217.589	271.6306	339.7179	359.0308	411.4184	448.7145	557.4044	624.5074	713.1633	763.2386	813.8091	835.6361	873.818	893.3073	915.7387	952.0802	985.835	1007.0782	1025.0488	1034.668	1075.7062	1092.6844	1106.6767	1114.9083	1122.3551	1157.8203	1174.4116	1191.6995	1201.8581	1219.7428	1247.5938	1284.2264	1322.3165	1337.1308	1367.1852	1402.4541	1478.086	1490.4803	1504.8825	1518.2807	3056.2706	3058.8771	3093.687	3102.511	3110.2095	3118.5024	3175.6621	3191.1617	3196.9105	3203.9926	3809.8623
OC12CC1CC2N1CC1	O[C@]12C[C@H]1C[C@H]2N1CC1	
InChI=1S/C7H11NO/c9-7-4-5(7)3-6(7)8-1-2-8/h5-6,9H,1-4H2	InChI=1S/C7H11NO/c9-7-4-5(7)3-6(7)8-1-2-8/h5-6,9H,1-4H2/t5-,6-,7-/m1/s1
