18
gdb 38820	3.11405	1.78905	1.27689	1.9256	76.08	-0.2376	0.0235	0.2611	982.8922	0.150429	-401.927462	-401.920546	-401.919602	-401.958825	27.884	
C	 0.0056671834	 1.4506597499	 0.0811365738	-0.353826
C	 1.3506668323	 0.7563829057	-0.047782416	-0.130413
C	 1.7272923036	 0.1403595033	 1.3095435994	-0.249508
C	 0.4322317797	-0.7430286276	 1.2582432451	-0.107235
C	 0.6865330468	-2.2277695242	 0.946244546	-0.177409
N	-0.2093325339	-2.7980897044	-0.057808564	-0.26534
C	-0.7509525958	-2.0368118868	-0.9053048332	 0.110589
O	-0.6723738381	-0.6800108732	-1.0336510421	-0.258607
C	 0.0397043313	-0.0290923548	-0.0272363886	 0.466439
H	-0.2844655276	 1.9463109829	 1.0060802604	 0.107516
H	-0.3282943882	 1.9480798175	-0.8243563218	 0.124298
H	 2.0272229699	 0.9832342693	-0.8619535482	 0.09823
H	 2.6400027853	-0.4597191902	 1.2917270281	 0.108385
H	 1.7919608063	 0.8518387368	 2.1388268765	 0.101687
H	-0.2723857612	-0.6366779414	 2.0896107054	 0.075435
H	 1.7129820385	-2.3674096917	 0.5818123104	 0.113098
H	 0.6029957141	-2.8314621747	 1.855654078	 0.112944
H	-1.3999503165	-2.4330905665	-1.6830554492	 0.123717
100.8747	140.1092	357.856	376.8111	409.7089	465.5138	492.7159	548.4207	610.498	727.9158	805.1454	850.8732	869.292	877.9525	930.3	949.3233	955.886	966.0539	1001.0927	1014.4323	1036.5977	1050.4421	1093.1425	1126.3269	1156.6984	1180.9892	1232.1917	1240.0067	1251.0392	1266.6043	1278.6195	1342.5161	1370.7518	1379.9081	1419.4215	1479.8648	1489.1133	1505.6	1735.9309	3017.3566	3042.8213	3051.7066	3069.5078	3096.2582	3105.7614	3167.5186	3192.083	3200.9406
C1C2CC3CN=COC123	C1[C@H]2C[C@@H]3CN=CO[C@]123	
InChI=1S/C7H9NO/c1-5-2-7(5)6(1)3-8-4-9-7/h4-6H,1-3H2	InChI=1S/C7H9NO/c1-5-2-7(5)6(1)3-8-4-9-7/h4-6H,1-3H2/t5-,6-,7-/m1/s1
