22
gdb 94933	2.40439	1.498	1.26423	2.0084	81.64	-0.2167	0.0645	0.2811	1136.9704	0.194066	-404.331895	-404.322507	-404.321563	-404.365553	36.088	
C	-0.0119909587	 1.6006178561	 0.1230129267	-0.464497
C	 0.0104980401	 0.0914464015	-0.0293091915	 0.337841
C	-1.1672113418	-0.5811004609	 0.6567895106	-0.439794
C	 0.5836003127	-0.614135419	-1.2131767334	-0.084027
C	 1.4601588478	 0.1148329369	-2.2185597817	 0.100654
O	 0.7014609297	 1.1106783935	-2.8984014002	-0.431302
C	 2.6522723287	 0.674778013	-1.3916167353	-0.277538
C	 2.5282083748	 0.0316856792	 0.0124331425	-0.157614
N	 1.2511275895	-0.7062829078	 0.1026286619	-0.14969
H	 0.7364083275	 2.1204315105	-0.47022192	 0.12841
H	-0.9886662973	 1.9811838202	-0.1926522275	 0.124306
H	 0.1198076306	 1.8737879266	 1.1771906851	 0.111539
H	-2.113125789	-0.2755417993	 0.1957354338	 0.111994
H	-1.0818174116	-1.6683826596	 0.595824455	 0.12205
H	-1.2038114378	-0.305675442	 1.7171191278	 0.112401
H	 0.0902673781	-1.5163696454	-1.567905643	 0.078425
H	 1.8257419237	-0.6230226707	-2.9475049755	 0.070939
H	 1.2440729053	 1.4605094748	-3.6120918326	 0.283158
H	 3.6113155998	 0.4315364931	-1.8580906206	 0.098168
H	 2.5807043325	 1.7650176003	-1.3587593615	 0.111937
H	 3.3284002504	-0.6962677643	 0.1797062509	 0.105996
H	 2.5969079147	 0.7711577534	 0.8171009485	 0.106643
93.8621	131.4972	175.198	182.2005	209.9979	267.4724	291.2514	363.4854	377.8348	426.4606	460.6698	533.6308	665.127	699.2128	714.5168	752.0389	842.5238	859.9863	906.8015	961.1037	964.4165	990.4117	1008.806	1040.4756	1067.0183	1098.8954	1130.7367	1136.1687	1151.4667	1205.9268	1229.8912	1250.3009	1269.1215	1279.2291	1331.6818	1339.5142	1357.7765	1407.6367	1420.4837	1432.2016	1435.9431	1475.857	1481.6453	1493.7756	1498.0098	1513.051	1515.4568	2986.2617	3026.8768	3033.7522	3042.2224	3058.5303	3073.5236	3087.5825	3092.7401	3103.2336	3122.0668	3126.7197	3174.6832	3816.1879
CC1(C)C2C(O)CCN12	CC1(C)[C@H]2[C@@H](O)CCN12	
InChI=1S/C7H13NO/c1-7(2)6-5(9)3-4-8(6)7/h5-6,9H,3-4H2,1-2H3	InChI=1S/C7H13NO/c1-7(2)6-5(9)3-4-8(6)7/h5-6,9H,3-4H2,1-2H3/t5-,6+,8?/m0/s1
