17
gdb 30177	4.32397	1.30049	1.05583	2.0383	74.3	-0.1851	0.036	0.2211	1125.815	0.137542	-421.849612	-421.842144	-421.8412	-421.882081	28.781	
C	-0.4850807572	 1.4394614367	 0.027114618	-0.394408
C	 0.1591873364	 0.0679751859	 0.036365582	 0.124416
C	 1.0023474835	-0.2756903996	-1.2532940406	-0.396114
C	 2.2903763652	-0.7317537064	-0.6306869299	 0.139866
C	 2.1897142463	-0.5181072054	 0.6960793848	 0.436233
O	 3.2832075232	-0.8259594593	 1.3921064714	-0.205131
C	 4.1807801895	-1.2778378966	 0.426211253	-0.028377
C	 3.6219724713	-1.2336603939	-0.8161393895	-0.343019
O	 1.0626935968	-0.0087295342	 1.207706859	-0.291286
H	 0.2714753969	 2.2171171022	-0.1153882318	 0.131114
H	-1.2077593344	 1.505843144	-0.7927400519	 0.122968
H	-1.0094671221	 1.6319846007	 0.9668673567	 0.132594
H	-0.5932068436	-0.709303037	 0.2049158749	 0.100644
H	 0.48769796	-1.0343815743	-1.8524286715	 0.115048
H	 1.1169921854	 0.6126166946	-1.8888264274	 0.110499
H	 5.1369916605	-1.5885974375	 0.8083125853	 0.13353
H	 4.1111057621	-1.5318320699	-1.7308140024	 0.111423
40.2007	194.9688	243.9147	255.8592	322.6886	433.31	470.3813	595.7136	602.7416	628.9863	710.9856	719.1157	767.2195	819.5887	822.1746	887.6345	921.4284	940.7493	1021.5345	1049.5275	1089.7801	1112.5836	1135.464	1171.4486	1211.0874	1249.2447	1285.1878	1337.1572	1367.0657	1399.6428	1413.9461	1483.5657	1492.9189	1499.3998	1508.0377	1537.4228	1682.6795	3009.6031	3040.9425	3044.042	3063.5446	3114.0858	3123.8906	3250.5268	3301.7768
CC1CC2=C(OC=C2)O1	C[C@H]1Cc2c(occ2)O1	
InChI=1S/C7H8O2/c1-5-4-6-2-3-8-7(6)9-5/h2-3,5H,4H2,1H3	InChI=1S/C7H8O2/c1-5-4-6-2-3-8-7(6)9-5/h2-3,5H,4H2,1H3/t5-/m0/s1
