19
gdb 109968	2.14222	1.44183	1.02148	0.2757	77.35	-0.2521	0.0123	0.2644	1217.4949	0.157149	-422.967968	-422.958416	-422.957472	-423.002565	35.322	
C	-0.8933764444	 1.2590268555	-0.0418459225	-0.407936
C	-0.0134168438	 0.0249687595	-0.0457074607	 0.143819
O	 1.2335146869	 0.2352561891	-0.7606968691	-0.304196
C	 1.9933713453	-0.4207229015	 0.2797629513	-0.03646
C	 3.1832569468	 0.3121466133	 0.6890231867	 0.308464
C	 4.1653427298	 0.9074224698	 1.0491425556	-0.443445
C	 0.7536643804	-0.4271760562	 1.2264928298	-0.105371
C	 0.8124313696	 0.5345118546	 2.4093413443	-0.085858
O	 1.6766505037	 0.0553829756	 3.4253008674	-0.427559
H	-0.3845760599	 2.1208623601	 0.3961297281	 0.128375
H	-1.1673582593	 1.514349009	-1.0702937899	 0.131289
H	-1.8169649338	 1.0712260782	 0.5161443048	 0.120681
H	-0.5629438146	-0.8132335545	-0.4985212934	 0.076816
H	 2.2861864408	-1.4325614296	-0.0342193122	 0.105113
H	 5.0402000474	 1.4348411741	 1.3420256327	 0.209191
H	 0.4923733685	-1.4209156859	 1.5956725419	 0.088303
H	 1.1101702562	 1.5382924089	 2.0768725832	 0.103268
H	-0.1814919491	 0.6192010101	 2.8617908494	 0.10964
H	 2.5765617496	 0.1480585898	 3.0912874925	 0.285866
44.3431	126.4	162.2016	183.9631	203.4826	227.6907	284.6878	360.4714	407.7426	419.1194	469.071	533.0261	578.3637	630.5604	676.7568	759.4339	808.8109	854.3864	900.5255	976.6711	995.2202	1016.9265	1053.798	1077.4103	1103.523	1150.8209	1165.3471	1191.1931	1254.7407	1260.0117	1316.1146	1345.9531	1351.1335	1396.7427	1412.8356	1416.6966	1428.0537	1482.64	1495.8457	1503.9863	2223.8088	2989.8849	3000.144	3010.2306	3041.1392	3070.565	3095.0959	3107.878	3128.3882	3497.2812	3789.2515
CC1OC(C#C)C1CO	C[C@H]1O[C@@H](C#C)[C@H]1CO	
InChI=1S/C7H10O2/c1-3-7-6(4-8)5(2)9-7/h1,5-8H,4H2,2H3	InChI=1S/C7H10O2/c1-3-7-6(4-8)5(2)9-7/h1,5-8H,4H2,2H3/t5-,6+,7+/m1/s1
