20
gdb 10482	2.56446	1.63607	1.20968	0.5547	80.07	-0.2593	0.0528	0.3121	1089.3043	0.175129	-311.829731	-311.820601	-311.819657	-311.863459	34.286	
C	 0.9058372171	-0.042508532	-1.2012682902	-0.383753
C	-0.0336346326	-0.1383497966	 0.0072794847	-0.253316
C	 0.6180601153	-0.7021052796	 1.2614410077	 0.398895
C	 1.7549333516	 0.1328846307	 1.8566225026	-0.437931
C	 1.3403581977	 1.4719860809	 2.2673181386	 0.323894
C	 0.9848031823	 2.5722804347	 2.5965887987	-0.461824
C	-0.251601662	-1.4565547083	 2.2345180766	-0.30624
C	 0.7498515072	-2.2015772731	 1.3815288266	-0.316878
H	 1.3452599937	-1.0171753869	-1.4394148038	 0.11454
H	 0.3653988614	 0.3076542048	-2.0860860634	 0.112463
H	 1.7263316858	 0.6600630398	-1.0234727267	 0.120524
H	-0.4430034175	 0.8535973839	 0.2343100467	 0.111968
H	-0.889283549	-0.7732177613	-0.2523867274	 0.090524
H	 2.1727878248	-0.3959093678	 2.7222767858	 0.123709
H	 2.5759007336	 0.2157195611	 1.1325458615	 0.129839
H	 0.6783131238	 3.5443328745	 2.8938015411	 0.193889
H	-0.0441991627	-1.3545774293	 3.2946389603	 0.112312
H	-1.3051800504	-1.56533183	 1.9998716798	 0.109927
H	 0.3735610449	-2.8109357918	 0.5663030076	 0.110195
H	 1.6315884649	-2.6092732138	 1.8654717731	 0.107262
53.2453	109.5053	137.2561	211.8473	245.6681	318.279	333.7352	351.0184	367.6078	449.5874	542.6854	615.5361	634.4926	713.0245	776.7877	794.7849	874.8006	911.6625	917.4475	932.6327	985.7317	998.2135	1021.8437	1051.5719	1078.944	1086.0777	1120.0819	1185.633	1210.6876	1270.6374	1322.0899	1325.6172	1358.9345	1398.6447	1410.9901	1465.5234	1472.8573	1484.5945	1500.7561	1506.3163	1510.2232	2235.296	3019.5271	3026.3826	3034.7075	3050.3385	3060.6134	3103.1793	3104.8151	3124.7602	3130.3467	3202.0826	3216.6285	3506.4235
CCC1(CC#C)CC1	CCC1(CC#C)CC1	
InChI=1S/C8H12/c1-3-5-8(4-2)6-7-8/h1H,4-7H2,2H3	InChI=1S/C8H12/c1-3-5-8(4-2)6-7-8/h1H,4-7H2,2H3
