17
gdb 56565	2.7724	1.0482	0.99788	5.4693	69.24	-0.2495	-0.0022	0.2473	1250.172	0.136326	-451.354096	-451.343942	-451.342998	-451.389827	35.993	
N	-0.2426242748	 1.5725628948	-0.0444967346	-0.505411
C	-0.0009430992	 0.136184061	-0.0503600778	-0.112458
C	-1.2565281374	-0.5823089793	 0.215889779	 0.303108
N	-2.2194783974	-1.1889114033	 0.4136320804	-0.321561
C	 0.6206611342	-0.4179025627	-1.3904879228	-0.107745
N	-0.135613082	 0.1061858909	-2.5170220837	-0.506874
C	 2.089570224	 0.0314968734	-1.4342613595	 0.38595
N	 2.978584203	-0.7783820627	-0.8015446075	-0.516126
O	 2.4074523465	 1.087470717	-1.9545995181	-0.364908
H	 0.6370184518	 2.0548490958	-0.2116892047	 0.246447
H	-0.847650933	 1.7903033586	-0.8331314362	 0.250214
H	 0.6838647501	-0.0999105712	 0.7742329379	 0.126626
H	 0.5599096311	-1.5109723769	-1.3656949229	 0.094731
H	 0.3832436874	 0.8942651203	-2.89858336	 0.248094
H	-0.2160184023	-0.5866724987	-3.251451211	 0.241978
H	 2.7264535336	-1.6895737559	-0.4601062138	 0.268243
H	 3.9508501143	-0.513307601	-0.7940436847	 0.269691
36.8929	67.7992	138.0684	178.7387	210.4648	254.4881	260.1444	273.8326	320.151	366.1097	397.4515	451.4942	561.7879	586.1069	637.877	688.2076	751.6044	836.7391	853.988	905.5678	942.4439	960.4414	1086.7551	1098.3501	1136.5435	1203.9409	1212.8614	1277.5394	1310.2012	1345.6114	1422.034	1432.7053	1620.3557	1652.9751	1671.7827	1782.8403	2363.6194	3035.2892	3056.1422	3482.0265	3488.9594	3563.0023	3590.7636	3595.2842	3730.0811
NC(C#N)C(N)C(N)=O	N[C@@H](C#N)[C@@H](N)C(=O)N	
InChI=1S/C4H8N4O/c5-1-2(6)3(7)4(8)9/h2-3H,6-7H2,(H2,8,9)	InChI=1S/C4H8N4O/c5-1-2(6)3(7)4(8)9/h2-3H,6-7H2,(H2,8,9)/t2-,3+/m0/s1
