22
gdb 103864	2.50668	1.30614	1.1015	1.8824	83.19	-0.2083	0.0798	0.2881	1240.488	0.192131	-404.283584	-404.273713	-404.272768	-404.31824	36.798	
C	 0.422475161	 0.8262865579	-0.4849961967	-0.250308
O	 0.8726311465	-0.4670773969	-0.1230215742	-0.281117
C	 0.8772945086	-0.7256865963	 1.2565048138	 0.404086
C	 1.943334226	 0.0170541857	 2.0341984796	-0.451482
C	-0.4580215055	-1.0279021367	 1.911889843	-0.363261
C	 0.5313346664	-2.1444020155	 1.6727144261	-0.02758
N	 0.2073307072	-3.2732671164	 0.8451040899	-0.088321
C	-0.3880142066	-3.1517430865	-0.4783738501	-0.223667
C	 1.027106536	-3.5969715319	-0.3192983507	-0.215673
H	 1.1117750207	 1.6131146502	-0.1505914871	 0.11334
H	 0.3714841991	 0.849539459	-1.5761271446	 0.127271
H	-0.5744342973	 1.0369889935	-0.0734244467	 0.110281
H	 1.7553268138	 1.0962095377	 2.0584606451	 0.116455
H	 1.9740793683	-0.3296666517	 3.0708552896	 0.12156
H	 2.9289751309	-0.1487951977	 1.5866230706	 0.124082
H	-0.6559941565	-0.6907737571	 2.9240786022	 0.109594
H	-1.3222052891	-1.0188363081	 1.2553893071	 0.119662
H	 1.0815651642	-2.4771519056	 2.5503771535	 0.092888
H	-1.1687507373	-3.8785753994	-0.690760386	 0.105421
H	-0.5397374646	-2.1648407944	-0.8993135382	 0.125266
H	 1.7920239659	-2.8845658576	-0.6167358871	 0.124309
H	 1.2955212622	-4.6448028822	-0.428875099	 0.107194
73.8645	96.5918	149.8793	166.7912	189.9681	222.8986	272.9204	298.3282	346.5474	388.6398	446.2595	495.1306	633.1745	690.2767	714.3244	824.9139	849.4666	887.9794	912.2024	919.5838	951.6304	1027.3873	1040.245	1068.8925	1094.1028	1106.0248	1120.9376	1128.3378	1133.8464	1158.4465	1176.823	1180.5799	1185.5387	1217.8308	1256.9969	1302.7354	1366.5548	1404.758	1412.6593	1471.9814	1475.3755	1480.5348	1483.6325	1492.985	1504.866	1508.8759	1515.3563	2996.5336	3030.8489	3051.2386	3093.4164	3103.104	3109.8646	3112.1944	3116.9671	3123.0575	3127.1314	3191.7723	3214.5127	3217.5555
COC1(C)CC1N1CC1	CO[C@@]1(C)C[C@H]1N1CC1	
InChI=1S/C7H13NO/c1-7(9-2)5-6(7)8-3-4-8/h6H,3-5H2,1-2H3	InChI=1S/C7H13NO/c1-7(9-2)5-6(7)8-3-4-8/h6H,3-5H2,1-2H3/t6-,7+/m1/s1
