20
gdb 17667	3.94931	1.31193	1.283	1.32	75.33	-0.2405	0.0819	0.3225	1066.1737	0.175925	-348.972091	-348.963372	-348.962428	-349.005402	33.256	
C	 0.0255434534	 1.6082241309	 0.0310691521	-0.480197
C	 0.0100185558	 0.0925177801	-0.006891124	 0.330414
C	 1.1118215521	-0.5895023738	-0.8104937774	-0.374337
C	 1.1262140692	-0.6387551284	 0.6980603701	 0.074114
O	 2.0608081152	 0.1211147365	 1.4108392998	-0.424741
C	-1.3292696317	-0.5989022967	-0.0036537291	-0.029682
C	-2.5065955191	-0.1181332935	 0.8097646056	-0.27771
C	-2.5461144707	-0.036433063	-0.6976142404	-0.277221
H	 1.0475809304	 1.972583154	 0.1439324214	 0.130874
H	-0.3928491814	 2.033964245	-0.8868831126	 0.113436
H	-0.5492458256	 1.9958332837	 0.8787820249	 0.118764
H	 0.8767529476	-1.4932773688	-1.3636625261	 0.10545
H	 1.846594996	 0.0541477928	-1.2839193893	 0.107329
H	 0.8658131332	-1.5862392979	 1.1716178733	 0.080209
H	 2.9308116781	-0.2610973774	 1.256465665	 0.286353
H	-1.2381232315	-1.6811179073	-0.0635839839	 0.073451
H	-3.1201221011	-0.8627052538	 1.3051854858	 0.108358
H	-2.411450108	 0.8099720797	 1.3617550225	 0.114777
H	-2.4717340512	 0.9474208737	-1.1467861659	 0.112619
H	-3.1901825907	-0.7207047455	-1.2391040617	 0.107738
37.6109	164.3979	191.9062	226.1276	272.2547	287.1132	308.357	361.5719	449.2092	477.4756	532.3181	674.307	783.1803	796.1177	828.0015	854.1061	898.3935	931.7919	959.1307	971.9043	1020.7822	1035.4106	1058.1736	1076.5528	1094.0956	1110.7606	1117.2929	1143.0313	1174.3234	1198.8956	1228.7744	1274.3524	1286.7215	1349.1576	1395.6685	1422.0051	1432.4171	1464.9202	1482.6735	1498.6029	1509.1971	1510.7509	3037.6343	3088.5632	3094.1057	3120.237	3125.1944	3134.7832	3137.8911	3139.7926	3210.0882	3211.5363	3226.3055	3806.0879
CC1(CC1O)C1CC1	C[C@]1(C[C@H]1O)C1CC1	
InChI=1S/C7H12O/c1-7(4-6(7)8)5-2-3-5/h5-6,8H,2-4H2,1H3	InChI=1S/C7H12O/c1-7(4-6(7)8)5-2-3-5/h5-6,8H,2-4H2,1H3/t6-,7+/m1/s1
