14
gdb 132801	2.37604	1.85811	1.04348	1.8193	68.73	-0.2165	-0.0009	0.2155	1043.2393	0.102229	-478.035045	-478.027584	-478.026639	-478.066649	29.205	
N	-0.0005672285	 1.3709917698	-0.1497638599	-0.569985
C	-0.0024883708	-0.0051159776	-0.0660456671	 0.289319
N	-1.1798413016	-0.6341884752	 0.0008550952	-0.358045
C	-1.1711412232	-1.97195389	 0.023270293	 0.000992
C	-0.0317589718	-2.7605898657	-0.0105298884	-0.241021
C	 1.2022702673	-2.106185259	-0.0684043149	 0.316827
O	 2.3576578122	-2.8066314995	-0.0945784587	-0.429892
C	 1.1955187635	-0.7215510884	-0.0969184239	 0.062092
F	 2.3837909328	-0.0670826128	-0.1456511299	-0.111469
H	 0.8380276077	 1.8391307084	 0.1552564641	 0.256653
H	-0.8634526759	 1.7957463228	 0.1549532245	 0.259416
H	-2.148505845	-2.444980889	 0.075110434	 0.109213
H	-0.0752461335	-3.8416765714	 0.0129253669	 0.109387
H	 3.0891763271	-2.1779774223	-0.1394068751	 0.306513
148.9484	244.1885	272.5806	297.8462	305.7177	406.6061	473.7094	501.1116	517.3069	548.7957	552.9994	564.741	653.1331	715.7097	774.0933	819.8587	853.4425	970.0964	1023.3103	1076.5778	1156.5144	1202.0067	1276.1363	1329.6004	1373.043	1391.7368	1507.0158	1541.2382	1623.575	1633.7334	1668.4426	3160.2036	3218.4754	3581.7031	3699.476	3789.8744
NC1=NC=CC(O)=C1F	Nc1nccc(O)c1F	
InChI=1S/C5H5FN2O/c6-4-3(9)1-2-8-5(4)7/h1-2H,(H3,7,8,9)	InChI=1S/C5H5FN2O/c6-4-3(9)1-2-8-5(4)7/h1-2H,(H3,7,8,9)
