18
gdb 31125	2.29316	1.58129	0.96263	3.8312	75.03	-0.1809	0.0473	0.2282	1206.9799	0.148642	-439.117062	-439.108342	-439.107398	-439.150301	32.801	
C	-0.4131168179	 1.5742936289	-0.2528126082	-0.504579
C	-0.1411480704	 0.1117507753	-0.0872817502	 0.163347
C	-0.1398874589	-0.8333766356	-1.0603985562	-0.13221
O	 0.1554616365	-2.0749723854	-0.5356049661	-0.172706
C	 0.3302381115	-1.8917014483	 0.7834725142	 0.368033
O	 0.6365613487	-2.9778145075	 1.4931815641	-0.415863
C	 0.1697147048	-0.582540326	 1.1422111868	 0.000638
C	 0.2808627072	-0.073574605	 2.5473139717	-0.292437
N	 1.1791577332	-0.9631517809	 3.3237327699	-0.523642
H	 1.0951198206	-0.7740034679	 4.3172352395	 0.240397
H	 0.8503258349	-2.6179575933	 2.3852424255	 0.304168
H	 2.1452470063	-0.778760409	 3.067586052	 0.244753
H	 0.4300499113	 2.1846679919	 0.09320987	 0.122593
H	-0.5926713833	 1.8238151916	-1.3022177714	 0.12547
H	-1.2928746182	 1.8923972275	 0.319426318	 0.124792
H	-0.3179087732	-0.8094438256	-2.1217249761	 0.128328
H	 0.6138628188	 0.9755306691	 2.5539068545	 0.101062
H	-0.6922162819	-0.0878315697	 3.0584955119	 0.117855
100.0934	148.5903	170.1719	203.1853	247.8628	282.507	333.2795	359.4104	434.5512	518.5972	577.4713	617.4179	653.9319	704.9218	734.3591	772.0094	797.7076	913.1133	980.4298	1007.2298	1027.2587	1063.0837	1085.0959	1122.0859	1161.4292	1176.3307	1276.6834	1296.3028	1328.8888	1393.4518	1416.4805	1429.0625	1481.8046	1492.9003	1509.5883	1530.6054	1619.9671	1643.8734	1677.4102	2979.8102	3009.955	3021.3468	3067.3342	3108.4201	3285.4374	3415.7958	3493.02	3575.8596
CC1=COC([O-])=C1C[NH3+]	Cc1coc(O)c1CN	
InChI=1S/C6H9NO2/c1-4-3-9-6(8)5(4)2-7/h3,8H,2,7H2,1H3	InChI=1S/C6H9NO2/c1-4-3-9-6(8)5(4)2-7/h3,8H,2,7H2,1H3
