20
gdb 64075	3.2915	1.19547	1.09198	4.2018	81.98	-0.2386	-0.031	0.2077	1197.3992	0.171774	-403.205775	-403.196984	-403.19604	-403.238695	34.264	
C	 0.0612862526	 1.5420248485	-0.0137087057	-0.428132
C	-0.0600543278	 0.0086119176	 0.0002185683	 0.217761
C	-1.5504031466	-0.3963367564	 0.0464737525	-0.40966
C	 0.6225017392	-0.5619080518	-1.2590755333	-0.192766
N	 0.8271811169	-1.9991593762	-1.1453463509	-0.340244
C	 1.3764616913	-2.5684766822	-0.0194847705	 0.389539
O	 1.8374758435	-3.6970257285	-0.01181509	-0.381468
C	 1.3033423848	-1.7176569959	 1.1965509386	-0.173143
C	 0.6396875074	-0.5599127903	 1.2173147289	-0.070624
H	 1.1085731975	 1.8603712185	-0.0008122308	 0.121211
H	-0.4103627566	 1.9609515635	-0.909273123	 0.116989
H	-0.4352455849	 1.9788052369	 0.858797935	 0.118546
H	-2.1005624141	 0.0748392295	-0.7760189988	 0.111782
H	-1.6611435931	-1.4802061575	-0.0380404765	 0.135431
H	-2.0130280501	-0.0777715965	 0.9859784795	 0.11644
H	 0.0002751954	-0.3686173079	-2.1389051727	 0.108526
H	 1.5794505128	-0.038142976	-1.4128405855	 0.101806
H	 0.9862293666	-2.5293738672	-1.9898023747	 0.244496
H	 1.7783750426	-2.1366145005	 2.0761907794	 0.113285
H	 0.5476942624	 0.0034788024	 2.1443683303	 0.100225
86.6587	203.1356	210.6982	233.2321	254.1124	303.6903	326.4103	363.9376	434.8631	454.1386	470.9603	572.732	606.1312	705.826	722.2928	791.0806	847.6189	875.629	910.633	934.2787	951.3289	1009.0846	1022.8143	1045.3356	1092.3548	1161.8399	1184.4891	1213.3068	1281.6311	1282.9615	1334.8497	1379.0779	1394.0802	1405.206	1418.6348	1468.4503	1484.3057	1485.0475	1500.7498	1507.4504	1513.3905	1687.0852	1784.8225	2972.8319	3028.1587	3032.3215	3067.8192	3096.341	3100.9502	3104.5286	3123.6544	3141.6045	3205.5097	3609.9218
CC1(C)CNC(=O)C=C1	CC1(C)CNC(=O)C=C1	
InChI=1S/C7H11NO/c1-7(2)4-3-6(9)8-5-7/h3-4H,5H2,1-2H3,(H,8,9)	InChI=1S/C7H11NO/c1-7(2)4-3-6(9)8-5-7/h3-4H,5H2,1-2H3,(H,8,9)
