18
gdb 30213	4.55357	1.16969	0.95745	2.3301	78.74	-0.1994	0.0429	0.2424	1192.917	0.150754	-401.988787	-401.981222	-401.980278	-402.02062	30.312	
O	 0.0036741195	 1.3977533948	-0.0998981756	-0.433474
C	 0.0083842141	-0.0116845044	 0.0399938236	 0.138389
C	 0.6282369614	-0.5320882956	 1.3762410612	-0.398076
C	-0.1528229337	-1.7930559381	 1.6030648029	 0.274164
C	-0.1186259191	-2.9581059249	 2.3266785201	-0.250929
N	-1.2608382099	-3.6592859111	 2.0015855595	-0.238934
C	-2.0156280469	-2.9619430794	 1.0811626999	-0.251456
C	-1.3421217386	-1.7955959047	 0.8219048059	 0.266883
C	-1.4504799141	-0.5401161948	 0.0074973297	-0.366241
H	 0.9158625212	 1.6940602	-0.1751099561	 0.280847
H	 0.558455452	-0.4776133612	-0.7927415329	 0.069509
H	 1.712739069	-0.6694238724	 1.3029971854	 0.093241
H	 0.4432168849	 0.2154289857	 2.1598002647	 0.108576
H	 0.5930015602	-3.3594031591	 3.0303782285	 0.115427
H	-1.4952035408	-4.5675006997	 2.3613988748	 0.257053
H	-2.9425566482	-3.3674079727	 0.7083482698	 0.116329
H	-2.1005136667	 0.207884921	 0.4808913167	 0.114697
H	-1.8096933243	-0.6804699733	-1.0161038282	 0.103993
90.3938	240.0693	263.7426	276.0521	311.4055	446.1694	456.3981	471.7193	502.0622	628.2794	656.815	689.3476	706.2881	748.3588	774.8946	845.7151	916.6236	933.9152	1010.2645	1030.8524	1069.4893	1090.2603	1102.4586	1136.9521	1176.0788	1195.5707	1218.6461	1259.9286	1279.1962	1294.4327	1325.2476	1360.2998	1413.7172	1427.2849	1462.952	1485.3951	1498.9616	1566.3028	1637.3265	2971.6201	3012.3263	3021.2244	3061.786	3080.78	3257.2114	3259.9774	3685.9159	3822.4583
OC1CC2=CNC=C2C1	O[C@H]1Cc2c[nH]cc2C1	
InChI=1S/C7H9NO/c9-7-1-5-3-8-4-6(5)2-7/h3-4,7-9H,1-2H2	InChI=1S/C7H9NO/c9-7-1-5-3-8-4-6(5)2-7/h3-4,7-9H,1-2H2
