17
gdb 68623	2.44705	1.66959	1.36575	5.7518	72.34	-0.2536	0.0224	0.276	994.0029	0.137792	-417.991577	-417.983904	-417.98296	-418.023484	30.145	
N	-0.0596963846	 1.4307862168	 0.1103891177	-0.607019
C	-0.0071746341	 0.0125462779	-0.0226355159	 0.274611
C	 0.3560101323	-0.8325407378	-1.3052908206	-0.299051
C	-0.3120156441	-1.9413619059	-0.4667269942	 0.102668
O	 0.56759232	-2.1068699342	 0.6449625189	-0.265456
C	 0.8334145332	-0.7389325524	 1.0219849625	-0.105417
C	-1.3266514573	-0.8543052525	 0.0196418745	-0.206703
C	-2.0344213102	-1.0395211685	 1.2711781149	 0.292454
N	-2.5931773011	-1.1833017078	 2.2731478536	-0.336519
H	 0.8706353477	 1.8315282581	 0.1771934581	 0.238167
H	-0.5231148502	 1.8652116495	-0.6804695642	 0.236595
H	-0.2181576259	-0.5338414982	-2.1847919355	 0.103223
H	 1.4113428999	-0.9713998524	-1.5474534337	 0.108868
H	-0.6280420785	-2.9071033025	-0.8522953765	 0.103068
H	 1.9046219561	-0.5208514821	 0.934518082	 0.102993
H	 0.5039556858	-0.554626729	 2.048952457	 0.137595
H	-2.0188116293	-0.5583494688	-0.7715884584	 0.119923
130.443	144.4205	221.0331	301.9108	330.0035	380.8377	415.988	476.5446	524.5099	594.2036	613.915	747.2876	782.9469	814.4546	850.4674	883.4394	923.0383	945.8213	956.0747	1013.3524	1050.2296	1074.3962	1083.3149	1106.6471	1122.6473	1186.814	1201.8857	1219.3799	1280.2021	1302.0972	1331.9037	1364.2765	1399.8834	1490.3436	1526.3851	1658.3582	2354.4069	3029.5891	3071.4715	3089.1535	3096.3604	3140.1253	3164.5428	3504.3343	3584.1288
NC12CC(OC1)C2C#N	N[C@@]12C[C@@H](OC1)[C@H]2C#N	
InChI=1S/C6H8N2O/c7-2-4-5-1-6(4,8)3-9-5/h4-5H,1,3,8H2	InChI=1S/C6H8N2O/c7-2-4-5-1-6(4,8)3-9-5/h4-5H,1,3,8H2/t4-,5-,6+/m1/s1
