21
gdb 110953	2.62512	1.212	1.03345	3.1657	83.7	-0.2323	0.0155	0.2478	1280.5973	0.181519	-387.069021	-387.059705	-387.058761	-387.10321	34.938	
C	-0.0117659723	 1.5837750324	 0.0094794013	-0.375432
C	-0.1907152784	 0.0643254504	-0.1002222055	-0.236035
C	 0.6276639322	-0.5310730028	-1.2424655397	 0.013202
C	 2.1894978323	-0.7136507754	-1.1177380357	-0.189924
C	 1.9037177163	-1.9627794156	-0.2183300449	-0.283957
C	 0.82969117	-2.0990911108	-1.3628862714	 0.166795
C	-0.2132717046	-3.1624242178	-1.552608212	-0.520628
C	 2.0035597463	-1.7042430887	-2.2744077401	 0.423564
O	 2.4953938079	-2.0122403884	-3.3170936603	-0.334035
H	 1.025651711	 1.8445897161	 0.2433650393	 0.120352
H	-0.2748720498	 2.0831171326	-0.9293509212	 0.118656
H	-0.6472591211	 1.9993021327	 0.7974060143	 0.115145
H	 0.0498552038	-0.3989620632	 0.8611449606	 0.102136
H	-1.248091672	-0.1632543098	-0.2884191321	 0.103721
H	 0.318129906	-0.0585198504	-2.1822575131	 0.080105
H	 2.9468750869	 0.0536864052	-0.9762258134	 0.089614
H	 2.6788960725	-2.7309063283	-0.1737995051	 0.110473
H	 1.5090553862	-1.7504872073	 0.7741463956	 0.10925
H	-0.9318839078	-3.1737336967	-0.7262659152	 0.123163
H	-0.768919942	-2.9991124437	-2.4819350835	 0.131472
H	 0.2478526766	-4.1537127006	-1.6113989178	 0.132364
67.2543	125.2029	149.3367	165.4731	204.989	235.3406	267.2146	366.7191	393.7475	505.7004	534.7092	631.9804	720.1303	734.4788	757.9909	790.9672	797.4969	869.0404	904.9175	961.2924	984.1507	1024.904	1031.8578	1046.0592	1075.5544	1106.5571	1128.4677	1147.0065	1185.4083	1190.2474	1213.4754	1218.78	1295.0466	1344.1909	1350.3477	1409.6599	1414.5416	1433.6369	1482.3359	1486.99	1489.8522	1498.6513	1505.0682	1529.0452	1909.046	3024.6914	3031.5739	3032.7606	3034.7809	3072.4892	3081.4636	3099.0284	3102.7762	3104.3225	3106.4428	3149.2402	3153.1616
CCC1C2CC1(C)C2=O	CC[C@H]1[C@H]2C[C@]1(C)C2=O	
InChI=1S/C8H12O/c1-3-6-5-4-8(6,2)7(5)9/h5-6H,3-4H2,1-2H3	InChI=1S/C8H12O/c1-3-6-5-4-8(6,2)7(5)9/h5-6H,3-4H2,1-2H3/t5-,6+,8+/m1/s1
