18
gdb 6142	4.6989	1.23111	1.16391	4.9564	72.76	-0.2493	0.0202	0.2695	1085.0763	0.153442	-343.986454	-343.978084	-343.97714	-344.019052	31.385	
C	-0.2261221428	 1.5192010462	 0.0178584983	-0.442842
C	 0.0181614683	 0.0087514105	-0.0298697712	 0.348367
C	-1.2626116319	-0.7738155876	 0.2307265189	-0.429141
C	 0.8569470091	-0.4307103341	-1.2687386573	-0.28735
C	 2.081873016	-0.4553476368	-0.3109210226	-0.112917
N	 1.1538130209	-0.4390887439	 0.8389359358	-0.337532
C	 2.9736604016	-1.6149903755	-0.3722260181	 0.291299
N	 3.6817910162	-2.52602846	-0.4385931016	-0.32508
H	 0.6890806745	 2.0843700848	-0.1893013536	 0.114541
H	-0.9789856744	 1.8191891341	-0.7190313804	 0.124327
H	-0.5931969871	 1.8179885364	 1.0064955162	 0.120643
H	-2.0156403289	-0.5567247451	-0.5351042635	 0.114287
H	-1.0605145601	-1.8477082771	 0.2318635258	 0.127068
H	-1.6880239256	-0.5088161281	 1.2051249113	 0.116853
H	 0.5931880364	-1.4232481285	-1.6351902988	 0.129374
H	 0.9165991026	 0.2674256396	-2.1038680383	 0.116775
H	 2.6979860427	 0.4473520624	-0.418077543	 0.111775
H	 1.4143999123	 0.1942145626	 1.5885253421	 0.219552
69.7329	155.3143	210.7788	243.6293	264.4996	307.3269	338.8408	391.692	430.0068	522.4644	562.882	596.4075	732.059	786.5164	889.0723	904.1477	943.8348	961.5933	985.0116	1005.3205	1032.2969	1067.2795	1111.9302	1196.9376	1219.4463	1230.9011	1285.2075	1292.68	1351.3146	1399.6131	1404.4193	1419.6919	1477.9062	1482.0772	1487.2277	1501.4619	1504.9154	2356.3701	3009.4213	3023.7973	3031.7426	3089.6558	3091.4001	3095.8976	3099.4589	3121.8968	3150.8949	3516.2257
CC1(C)CC(N1)C#N	CC1(C)C[C@@H](N1)C#N	
InChI=1S/C6H10N2/c1-6(2)3-5(4-7)8-6/h5,8H,3H2,1-2H3	InChI=1S/C6H10N2/c1-6(2)3-5(4-7)8-6/h5,8H,3H2,1-2H3/t5-/m1/s1
