18
gdb 47594	2.45964	1.78616	1.19324	1.9946	72.1	-0.2284	-0.0245	0.2039	1040.8684	0.149818	-439.076169	-439.068662	-439.067718	-439.10843	29.032	
O	 0.0461472489	-0.0640502451	-0.068860734	-0.314573
C	-0.0133869069	 1.1429314172	-0.0274261371	 0.394149
C	-1.3116921898	 1.9241844713	-0.0176227707	-0.305952
C	-1.2013210612	 3.1127356928	-0.989391638	-0.094409
O	-0.1751165026	 3.9959091446	-0.5763616554	-0.256626
C	 1.1217727898	 3.444310754	-0.6406350829	 0.102089
C	 1.9424129009	 3.909069969	 0.5785143028	-0.182625
N	 1.5645129749	 2.6510599899	 1.2708759938	-0.320396
C	 1.2380772251	 2.0105475848	-0.031273231	-0.098417
H	-2.1393413352	 1.2570305465	-0.2715174926	 0.117776
H	-1.4707784961	 2.3268660711	 0.9894085016	 0.144405
H	-1.0259398908	 2.755339989	-2.0175455082	 0.097135
H	-2.1250558683	 3.6971412822	-0.9934797328	 0.119595
H	 1.5540135201	 3.5787160207	-1.6393193426	 0.078173
H	 3.0124932359	 4.0000948212	 0.3487550514	 0.095666
H	 1.5885993342	 4.82336267	 1.0629421516	 0.117476
H	 2.3012944897	 2.1909398689	 1.7936566183	 0.227766
H	 2.0620790611	 1.436898892	-0.4746976343	 0.078768
73.0598	148.7714	212.6748	286.8536	361.0319	412.0672	459.2915	466.6452	565.0721	651.4949	749.9023	753.899	823.7744	863.9213	915.7129	943.8282	968.064	1002.7112	1013.4193	1046.3224	1074.6914	1101.2836	1125.9181	1158.912	1200.3898	1235.7245	1252.179	1262.0378	1282.1701	1313.3312	1332.4992	1344.5819	1371.7954	1382.1353	1406.6406	1445.9204	1503.7503	1507.1549	1816.5	2972.8983	3010.6835	3020.4193	3037.9511	3049.3409	3090.4387	3093.8675	3115.5454	3535.2361
O=C1CCOC2CNC12	O=C1CCO[C@H]2CN[C@@H]12	
InChI=1S/C6H9NO2/c8-4-1-2-9-5-3-7-6(4)5/h5-7H,1-3H2	InChI=1S/C6H9NO2/c8-4-1-2-9-5-3-7-6(4)5/h5-7H,1-3H2/t5-,6-/m0/s1
