15
gdb 129357	4.33051	0.90971	0.80561	3.2331	68.33	-0.2683	-0.0205	0.2478	1360.3893	0.113027	-453.924124	-453.916089	-453.915145	-453.958645	27.901	
N	-0.4174789251	 0.9347304482	 0.7870316237	-0.434346
C	-0.5767407474	-0.0586654056	 0.0288128233	 0.130813
O	-0.4000089116	-1.308783421	 0.514318896	-0.176688
C	-0.7975756303	-2.38227726	-0.3323591175	-0.223183
C	-2.2489359515	-2.7102809	-0.1583501694	 0.127546
C	-3.1028283573	-2.2701631023	 0.8044015106	 0.00713
O	-4.3228394556	-2.7974125995	 0.6292763039	-0.16052
N	-4.3032726584	-3.6277722466	-0.483517425	-0.125858
C	-3.0769048042	-3.5679648301	-0.9389059942	-0.051979
H	-0.5515581539	 1.7984028157	 0.2655854403	 0.23443
H	-0.839165261	-0.0387568623	-1.038262478	 0.093317
H	-0.5739869708	-2.1471737874	-1.3828662435	 0.120888
H	-0.1634537737	-3.2285491398	-0.0492451991	 0.144988
H	-2.9832979775	-1.6004008025	 1.6408620116	 0.178261
H	-2.8174060817	-4.1415129268	-1.8182080826	 0.135202
40.6728	50.6334	109.9385	199.6492	251.2533	349.7216	401.7796	611.7045	648.46	652.7254	721.7791	823.8513	859.5942	904.1034	907.4902	939.788	964.7545	1025.9884	1039.3353	1048.0656	1135.7427	1150.7364	1200.0174	1240.1825	1288.509	1327.0703	1349.8503	1411.857	1438.0109	1476.8301	1498.6598	1653.5607	1749.3417	3004.8702	3022.5031	3073.4184	3239.1657	3279.6213	3522.0349
N=COCC1=CON=C1	[NH][CH]OCc1conc1	
InChI=1S/C5H6N2O2/c6-4-8-2-5-1-7-9-3-5/h1,3-4,6H,2H2	InChI=1S/C5H6N2O2/c6-4-8-2-5-1-7-9-3-5/h1,3-4,6H,2H2
