16
gdb 69905	2.9705	1.55396	1.17231	2.8691	70.12	-0.2359	-0.045	0.1909	1028.2094	0.122351	-437.792424	-437.784536	-437.783592	-437.824636	30.458	
O	-0.1236268515	 1.4018678072	 0.1432845917	-0.442463
C	-0.0464286887	 0.027756758	 0.0682725783	 0.337577
C	-0.8058101718	-0.8497276488	 1.0017424959	-0.341668
C	 0.7016671391	-1.0022191372	 0.878021659	-0.098415
N	 1.2504913382	-1.6895869821	-0.359988404	-0.14504
C	 0.1711175077	-2.1836256384	-1.2018329744	-0.273302
C	 0.4233107842	-0.7118397381	-1.2107779451	 0.119706
C	 1.0306455641	-0.049808907	-2.3856777613	 0.078054
O	 1.5886150969	-0.63855844	-3.2816514744	-0.260513
H	 0.760308903	 1.7726781053	 0.0339390097	 0.294704
H	-1.0705899053	-0.3341873692	 1.9203336015	 0.133985
H	-1.536356839	-1.5879156828	 0.6902298315	 0.121551
H	 1.3702996794	-0.922154789	 1.7246585342	 0.116676
H	 0.5430871871	-2.7021468803	-2.0810590428	 0.153806
H	-0.7368292347	-2.590140307	-0.7724434984	 0.130199
H	 0.9234724414	 1.0567955694	-2.4025670311	 0.075142
111.7432	156.2288	179.1603	285.4684	321.8187	349.7244	417.5371	471.9433	499.4565	540.1962	626.6375	693.0037	710.8367	794.8474	838.8548	903.6491	929.3122	962.7734	971.5777	1009.301	1039.3367	1062.0528	1077.9734	1116.7871	1150.6208	1153.1733	1240.0141	1264.5152	1307.5551	1315.0125	1409.5927	1433.4214	1478.3252	1512.9413	1798.4817	2889.811	3125.2018	3137.2532	3204.0133	3210.6688	3225.1788	3780.0105
OC12CC1N1CC21C=O	O[C@]12C[C@H]1N1C[C@@]21C=O	
InChI=1S/C6H7NO2/c8-3-5-2-7(5)4-1-6(4,5)9/h3-4,9H,1-2H2	InChI=1S/C6H7NO2/c8-3-5-2-7(5)4-1-6(4,5)9/h3-4,9H,1-2H2/t4-,5-,6-,7?/m1/s1
