18
gdb 47794	2.45706	1.79194	1.22202	2.3221	74.	-0.2584	0.0101	0.2685	1033.0099	0.150189	-439.079351	-439.07185	-439.070906	-439.111493	29.292	
N	 0.0042298105	 1.1880244775	 0.713484182	-0.49514
C	 0.0567494715	 0.0638300858	 0.1316928624	 0.342455
O	 1.2649231856	-0.5546656753	-0.127700246	-0.25389
C	 1.5805597921	-0.906904361	-1.4672216317	 0.00316
O	 0.9560617653	-2.0607734943	-1.9270590675	-0.218084
C	-0.3602061585	-1.8705251772	-2.4220343938	-0.123473
C	-1.3991674166	-1.6147078466	-1.3517833263	-0.043281
C	-1.2674186072	-2.188707184	 0.0227634894	-0.300036
C	-1.1903873575	-0.6797555311	-0.1710672406	-0.049813
H	 0.9524995077	 1.5351308234	 0.8715377924	 0.219589
H	 1.3614960245	-0.0542373105	-2.1298122182	 0.094632
H	 2.6518088253	-1.1137860313	-1.4512485579	 0.126168
H	-0.3657429837	-1.050299542	-3.1580251188	 0.100683
H	-0.6081683877	-2.7949778124	-2.9539928786	 0.119988
H	-2.403198581	-1.5690217862	-1.7669802048	 0.099101
H	-2.1422514194	-2.587170447	 0.5230094444	 0.120865
H	-0.333189959	-2.6871321573	 0.2527483539	 0.142889
H	-2.0584294921	-0.1066244404	 0.1302942097	 0.114187
76.5148	161.8459	230.5126	286.3548	343.2599	406.2191	449.0296	483.1487	616.6614	646.041	713.8575	736.7582	783.7804	871.9005	901.5785	932.3217	939.2664	971.6811	1019.389	1038.0749	1072.8088	1085.6579	1108.0371	1126.8337	1143.8462	1168.1623	1201.4567	1226.7965	1299.0046	1333.3537	1345.161	1382.5259	1399.438	1419.6787	1456.1949	1486.2216	1491.2366	1507.9844	1731.5184	2974.5437	2980.5213	3071.7674	3121.5006	3138.7095	3146.4294	3192.5844	3239.4887	3465.8268
N=C1OCOCC2CC12	[NH][C]1OCOC[C@H]2C[C@@H]12	
InChI=1S/C6H9NO2/c7-6-5-1-4(5)2-8-3-9-6/h4-5,7H,1-3H2	InChI=1S/C6H9NO2/c7-6-5-1-4(5)2-8-3-9-6/h4-5,7H,1-3H2/t4-,5-/m1/s1
