22
gdb 63466	2.66815	1.35439	1.05019	2.1939	82.09	-0.2408	0.086	0.3269	1237.3444	0.191586	-404.315516	-404.305249	-404.304305	-404.350385	38.068	
C	 0.0065533321	 1.5336607532	-0.0477557583	-0.456299
C	-0.0631449593	 0.0218996606	 0.0672625787	 0.34719
C	-1.2557568704	-0.5630962054	-0.6643443178	-0.463046
O	 1.1970285549	-0.6577594446	-0.1321406673	-0.329854
C	 0.6050560246	-0.7059356042	 1.1776367949	 0.276882
C	 1.3539426802	 0.019092126	 2.2819470517	-0.458359
C	 0.1525984699	-2.0765705225	 1.62011241	-0.050876
C	 0.189478432	-3.2552399459	 0.7244208975	-0.239763
N	 1.1786433626	-3.1250931892	 1.8096014567	-0.33425
H	 0.9475728601	 1.9345807607	 0.3273684321	 0.129894
H	-0.0842570636	 1.82639629	-1.0995334718	 0.124794
H	-0.8196612728	 2.0026145688	 0.4977084646	 0.121394
H	-1.1634201684	-0.3653249729	-1.7379699857	 0.12379
H	-1.3512081285	-1.6372730425	-0.5179712149	 0.136177
H	-2.1785491226	-0.0836591839	-0.3196344393	 0.119577
H	 1.747721356	 0.9818492241	 1.9586083906	 0.125571
H	 0.6934937701	 0.1831184247	 3.1405866994	 0.12389
H	 2.1930246913	-0.5924919625	 2.628917666	 0.131548
H	-0.5831726759	-2.0591291044	 2.4229388941	 0.090905
H	-0.5338947072	-4.0554171823	 0.8559225509	 0.114367
H	 0.5304615861	-3.0960216316	-0.2931630165	 0.129259
H	 2.0529652787	-2.7977479163	 1.4006394143	 0.237207
85.7883	110.8607	142.9937	146.6184	168.6174	186.5235	259.7937	302.7748	333.3622	388.2381	392.7974	478.2159	517.0195	570.6049	676.4664	711.5118	824.755	850.6893	881.2266	924.4427	943.3485	967.764	984.2651	1002.5419	1024.9427	1081.5275	1113.5296	1145.0795	1152.7127	1163.9851	1185.7279	1212.5769	1249.1677	1275.8861	1305.9266	1403.702	1408.1598	1415.83	1420.9403	1434.2472	1472.7409	1479.9898	1484.1782	1491.7827	1498.2242	1507.4718	1520.5706	3036.3305	3041.2668	3044.3371	3092.115	3097.8324	3100.0274	3112.4654	3118.0299	3144.4276	3160.1285	3166.057	3208.8098	3474.742
CC1(C)OC1(C)C1CN1	CC1(C)O[C@]1(C)[C@H]1CN1	
InChI=1S/C7H13NO/c1-6(2)7(3,9-6)5-4-8-5/h5,8H,4H2,1-3H3	InChI=1S/C7H13NO/c1-6(2)7(3,9-6)5-4-8-5/h5,8H,4H2,1-3H3/t5-,7-/m1/s1
