19
gdb 92642	3.02827	1.40292	1.08931	1.3939	77.85	-0.2435	0.006	0.2496	1130.6806	0.160689	-423.00813	-423.000298	-422.999353	-423.040343	31.041	
O	-0.159963366	 1.4507664611	 0.1825467406	-0.423884
C	-0.0113456039	 0.0672265198	 0.0172099926	 0.077179
C	 0.2237252438	-0.8668906164	 1.2629812835	-0.313648
C	-0.6933147995	-1.928413757	 0.5625489298	 0.092839
O	-1.6257137895	-2.7207761102	 1.2645940895	-0.269742
C	-2.9407950001	-2.1866401672	 1.3616303844	-0.070448
C	-3.4750344254	-1.6425500044	 0.0216090958	-0.254742
C	-2.5261018255	-0.5694826158	-0.4648818306	-0.242502
C	-1.2332730511	-0.7866726099	-0.2554459918	 0.207754
H	-0.9256206363	 1.5918928191	 0.7511066645	 0.275829
H	 0.7865108324	-0.0623005325	-0.7210579595	 0.103192
H	 1.2489756457	-1.1544722199	 1.5044502388	 0.105151
H	-0.2659914904	-0.4466649887	 2.1460105108	 0.106128
H	-0.0761485584	-2.6250226065	-0.0168956713	 0.093521
H	-3.557114998	-3.0134154417	 1.726225717	 0.108014
H	-2.9803007709	-1.3793829031	 2.1101711713	 0.085612
H	-3.5696168879	-2.4665749716	-0.6968939578	 0.119475
H	-4.4811488978	-1.2383014259	 0.1758825087	 0.104665
H	-2.903869391	 0.3733569709	-0.8506555163	 0.095606
114.5596	129.3539	223.0786	308.5204	337.4027	358.7529	431.0735	459.0669	504.6918	534.981	666.6513	680.9748	781.2893	807.3193	850.7278	880.1348	932.4364	948.2491	981.8066	1028.5129	1038.1477	1059.2745	1081.4422	1090.7367	1120.3533	1168.105	1180.1134	1224.1656	1245.183	1258.3386	1289.6944	1302.1647	1334.5745	1342.4843	1380.2808	1410.2983	1436.3947	1471.5259	1473.626	1504.0605	1754.2289	2977.0758	3027.6199	3033.4335	3060.5285	3062.9652	3076.3722	3085.1387	3128.3362	3163.6212	3794.4761
OC1CC2OCCC=C12	O[C@H]1C[C@H]2OCC[CH][C]12	
InChI=1S/C7H10O2/c8-6-4-7-5(6)2-1-3-9-7/h2,6-8H,1,3-4H2	InChI=1S/C7H10O2/c8-6-4-7-5(6)2-1-3-9-7/h2,6-8H,1,3-4H2/t6-,7+/m0/s1
