20
gdb 75904	2.71087	1.4268	1.17605	3.0436	80.02	-0.2536	0.0301	0.2838	1133.2664	0.171899	-403.161327	-403.152827	-403.151883	-403.194433	32.784	
C	 0.0744875249	 1.6235919264	-0.0479384265	-0.395334
C	-0.0083048597	 0.0907412794	 0.0508378096	-0.181977
C	 0.7262628131	-0.5597774702	-1.1106647733	 0.41772
N	 0.3087858335	-0.6098062189	-2.3008032043	-0.546674
O	 1.9233389594	-1.0697043459	-0.686921324	-0.242654
C	 2.1137770918	-0.8099206438	 0.7135521952	-0.15274
C	 0.7247886017	-0.5061140723	 1.2483879778	 0.352592
C	 0.4889834062	-0.1092743411	 2.6747565822	-0.333187
C	 0.045914221	-1.4698465608	 2.187566965	-0.315094
H	 1.1126097677	 1.9714442258	-0.0284105358	 0.118587
H	-0.3775218995	 1.9603705759	-0.984016608	 0.142622
H	-0.4536596744	 2.0943772717	 0.7865578119	 0.114806
H	-1.0578732197	-0.2114521077	 0.0203003234	 0.104675
H	 0.9922138073	-1.0727614269	-2.9028209751	 0.219361
H	 2.5761424285	-1.6918167088	 1.1655115698	 0.11681
H	 2.8003660961	 0.040249372	 0.8241949792	 0.110275
H	 1.3441656939	-0.0572592548	 3.3416913273	 0.115393
H	-0.273478405	 0.6349022888	 2.8793888891	 0.119474
H	-1.0172696995	-1.6432743128	 2.0575830547	 0.119961
H	 0.6026051528	-2.3393156959	 2.5224547216	 0.115382
66.7976	148.9629	206.7735	225.6821	245.7496	271.1265	326.8504	452.3118	468.4967	521.9869	675.3492	680.9525	769.0343	783.1034	815.9077	877.5699	892.0312	929.6914	940.6019	982.0316	994.1196	1028.9703	1056.8153	1064.4217	1083.7945	1085.2885	1114.1551	1125.2425	1188.3019	1219.8539	1241.8826	1275.9713	1306.0264	1331.6269	1371.612	1402.5116	1423.3471	1469.08	1492.9543	1497.7118	1508.7704	1522.2332	1775.4246	3012.3599	3039.204	3079.3138	3086.6634	3108.8451	3124.2324	3126.8369	3127.9952	3202.312	3217.1556	3468.7084
CC1C(=N)OCC11CC1	C[C@H]1[C]([NH])OCC21CC2	
InChI=1S/C7H11NO/c1-5-6(8)9-4-7(5)2-3-7/h5,8H,2-4H2,1H3	InChI=1S/C7H11NO/c1-5-6(8)9-4-7(5)2-3-7/h5,8H,2-4H2,1H3/t5-/m0/s1
