19
gdb 90126	2.9904	1.75531	1.53668	2.3374	75.71	-0.2296	0.0681	0.2977	935.6409	0.161254	-422.932115	-422.92532	-422.924375	-422.962786	29.239	
O	 0.5399898361	 1.262408731	-0.3684981671	-0.425185
C	 0.1898729666	-0.0554273156	-0.0829221759	 0.095937
C	 0.1542136962	-0.4369354236	 1.4783067726	-0.362058
C	-1.3657679522	-0.2080715986	 1.3799062383	 0.404945
C	-2.8331443876	-0.699533868	 1.4402766535	-0.332203
C	-2.8310146833	 0.0296491204	 0.0087054781	-0.12353
C	-2.611868347	 1.4655773438	 0.4543862973	-0.09073
O	-1.5404830259	 1.2533149749	 1.4039063097	-0.329806
C	-1.3461566491	-0.511164235	-0.0945531813	-0.035578
H	 0.0424597026	 1.800249369	 0.263504546	 0.291053
H	 0.8277043988	-0.6920789496	-0.7007323737	 0.089466
H	 0.4191467667	-1.4833303006	 1.6422421043	 0.110996
H	 0.7222855317	 0.2055110682	 2.1553348396	 0.112679
H	-2.9364719613	-1.7812147957	 1.3542329411	 0.112231
H	-3.4984520991	-0.2975686584	 2.2098263063	 0.10316
H	-3.5949946601	-0.1680142501	-0.7429689592	 0.079231
H	-2.2786952794	 2.1308260411	-0.3489050208	 0.111174
H	-3.4786598574	 1.9089582635	 0.9573813657	 0.105045
H	-1.3674187163	-1.5872302067	-0.2816614044	 0.083172
189.9191	232.7393	343.2082	363.0966	431.8199	453.8297	504.769	609.0086	655.6432	663.3215	730.4764	773.6123	803.0957	817.9422	858.5705	897.7737	916.7589	949.5728	965.8264	982.9157	1000.8837	1018.3864	1046.3259	1073.7637	1122.3149	1140.7707	1165.0913	1173.4969	1201.9837	1205.2337	1211.4164	1227.9325	1246.6144	1279.2221	1314.3869	1346.3178	1376.8462	1462.4174	1472.2979	1483.7296	1526.8921	3032.3465	3060.3004	3068.2065	3074.5664	3077.9287	3087.9426	3122.4726	3134.5726	3146.6512	3737.2011
OC1CC23CC(CO2)C13	O[C@H]1C[C@@]23C[C@@H](CO2)[C@@H]13	
InChI=1S/C7H10O2/c8-5-2-7-1-4(3-9-7)6(5)7/h4-6,8H,1-3H2	InChI=1S/C7H10O2/c8-5-2-7-1-4(3-9-7)6(5)7/h4-6,8H,1-3H2/t4-,5-,6-,7+/m0/s1
