18
gdb 106853	2.59764	1.30265	1.03945	4.8159	79.42	-0.2269	0.0072	0.2341	1202.1426	0.148311	-398.081663	-398.072865	-398.071921	-398.11536	32.61	
C	-0.4092923766	 1.3294423075	-0.0301173834	-0.332115
N	 0.1877616567	-0.00191208	 0.0795707063	-0.359959
C	 0.8276455665	-0.4898058449	-1.0749088486	 0.26543
C	 0.0087064668	-0.9873196845	-2.2356850996	-0.322797
C	 0.9691169165	-1.9474550164	-1.5831308614	 0.177225
N	 2.3187387426	-1.6729219042	-2.1334443747	-0.360522
C	 2.2950148737	-0.3031097309	-1.5127372855	-0.225427
C	 0.6100253757	-3.1845115676	-0.9828939088	 0.188229
N	 0.3514954751	-4.1932975912	-0.4753396162	-0.353412
H	 0.3109728891	 2.1344712363	-0.2462698932	 0.107035
H	-1.1569758487	 1.3237044763	-0.8287669047	 0.134299
H	-0.9199944445	 1.5688356412	 0.9064809014	 0.127911
H	 0.7869797874	-0.0683476009	 0.8940693209	 0.227058
H	-1.0355420289	-1.1465829659	-1.9913655743	 0.143522
H	 0.225266119	-0.6832520029	-3.2556634015	 0.128362
H	 3.0136482324	-2.2580187572	-1.6798764356	 0.235613
H	 2.5157498291	 0.504987692	-2.2180513517	 0.112858
H	 2.9620383379	-0.2196672769	-0.6474098693	 0.106689
82.8753	95.7934	155.8832	188.9421	215.1311	302.9135	350.1541	389.246	439.1132	545.8176	568.5538	631.5039	673.9855	758.1714	775.4988	813.9961	839.1073	943.6943	969.4594	1005.0672	1009.9085	1081.8364	1094.3033	1114.3187	1143.0839	1160.7587	1187.8222	1227.1855	1269.8816	1288.3004	1376.682	1409.9995	1456.5365	1482.6007	1486.4619	1496.0157	1511.0024	1522.4462	2337.6268	2977.1034	3031.4353	3075.7878	3082.2536	3117.9456	3124.919	3229.4877	3521.9066	3538.6281
CNC12CC1(NC2)C#N	CN[C@]12C[C@]1(NC2)C#N	
InChI=1S/C6H9N3/c1-8-6-2-5(6,3-7)9-4-6/h8-9H,2,4H2,1H3	InChI=1S/C6H9N3/c1-8-6-2-5(6,3-7)9-4-6/h8-9H,2,4H2,1H3/t5-,6-/m0/s1
