19
gdb 42108	2.3713	1.69264	1.10402	1.2255	85.24	-0.2247	-0.0233	0.2014	1112.7211	0.161096	-385.848929	-385.840841	-385.839897	-385.881168	31.605	
C	-0.0441889694	 1.49845243	 0.0424620995	-0.196885
C	 1.399887179	 2.020120587	-0.0054769105	-0.066302
O	 2.1729393208	 1.565204162	 1.1084235687	-0.247156
C	 3.3639034392	 0.8492547763	 0.7929434047	-0.192835
C	 3.0453659121	-0.2706092694	-0.0977473763	-0.054064
C	 2.3359609016	-0.840865459	-0.8961158744	 0.145707
C	 1.2106506569	-1.2216013579	-1.6663362705	-0.203051
C	 0.0025973885	-0.779957732	-1.264747718	-0.040135
C	-0.2491897415	-0.039327422	 0.027500346	-0.246207
H	-0.5042573553	 1.8750832945	 0.9641259537	 0.107021
H	-0.5893410865	 1.9624541312	-0.7894223398	 0.094922
H	 1.8758184199	 1.7421264878	-0.9503028835	 0.115624
H	 1.3712510431	 3.1174493064	 0.0423949446	 0.096655
H	 4.1127948805	 1.5075344654	 0.3238183626	 0.119199
H	 3.7747130481	 0.5238996376	 1.7538323516	 0.135804
H	 1.3286636232	-1.7904842562	-2.5826967603	 0.108948
H	-0.8591730453	-0.9988841331	-1.8915818939	 0.097871
H	 0.3933428244	-0.4583995427	 0.8095395672	 0.128191
H	-1.2857079692	-0.227873196	 0.3286351386	 0.09669
147.2357	176.0295	187.6508	229.8385	276.8451	360.5463	375.939	410.8343	476.8726	575.8416	593.1812	648.8618	742.6764	768.395	817.9483	826.9778	879.1129	954.0647	980.7983	1007.0848	1036.4207	1071.7902	1081.3613	1115.5509	1161.9173	1202.5342	1245.353	1257.339	1280.033	1324.659	1350.0872	1368.4802	1390.3639	1415.6248	1418.8127	1471.1474	1482.9908	1486.923	1495.9772	1638.4955	2297.5117	2976.1736	3007.8113	3025.972	3035.6207	3062.0077	3073.4685	3080.5812	3087.8334	3151.2322	3182.2767
C1COCC#CC=CC1	C1COC[C]=C=C[CH]C1	
InChI=1S/C8H10O/c1-2-4-6-8-9-7-5-3-1/h1-2H,3,5,7-8H2/b2-1-	InChI=1S/C8H10O/c1-2-4-6-8-9-7-5-3-1/h1-2H,3,5,7-8H2
