18
gdb 112465	2.82406	1.29249	1.05267	3.8361	75.78	-0.2252	-0.0129	0.2123	1182.5825	0.148495	-439.122881	-439.114364	-439.113419	-439.156471	31.636	
C	-0.1715217764	 1.3872111682	-0.0834272508	-0.234511
O	 0.224700789	 0.0438608651	 0.0725357184	-0.241982
C	 0.7415054577	-0.5596615487	-1.1142528647	 0.065339
C	 1.2558485182	-1.9388281027	-0.693851048	-0.345393
C	 0.1665374134	-2.9821081474	-0.4929628591	 0.411991
O	 0.2291218035	-3.8908047856	 0.3056381339	-0.357337
N	-0.8965664071	-2.8595546769	-1.3702777691	-0.32726
C	-1.0656958365	-1.7897633074	-2.2444110376	 0.035823
C	-0.2991466239	-0.6961659921	-2.2005582094	-0.156453
H	 0.6528492779	 2.0116045016	-0.4646932591	 0.099195
H	-1.0294008596	 1.4939841781	-0.7621338831	 0.106807
H	-0.459697613	 1.7527803369	 0.9050771129	 0.129359
H	 1.5874845134	 0.0459934157	-1.477024008	 0.069082
H	 1.9165697033	-2.324832814	-1.4807603515	 0.131045
H	 1.8338782032	-1.869780659	 0.2284773581	 0.140487
H	-1.5930714143	-3.5869934207	-1.3140236857	 0.256598
H	-1.8619016296	-1.9223587576	-2.9687622046	 0.119438
H	-0.4602553691	 0.1016939362	-2.9135412326	 0.097771
69.9327	99.5357	129.2903	217.8477	271.7465	317.7104	388.3094	448.1254	485.1005	550.1746	593.4173	630.7047	652.9623	749.7674	787.209	832.6925	903.1806	956.6933	982.6763	1027.1831	1043.8599	1110.3602	1134.3117	1171.3165	1184.1036	1204.2675	1241.3606	1293.8864	1319.8157	1363.8561	1384.7754	1425.2848	1441.4583	1469.0241	1476.6051	1487.4023	1511.0625	1713.4383	1813.6384	2967.5454	2973.783	3029.3462	3042.6576	3114.8512	3133.2576	3188.8258	3218.4537	3628.8138
COC1CC(=O)NC=C1	CO[C@H]1CC(=O)NC=C1	
InChI=1S/C6H9NO2/c1-9-5-2-3-7-6(8)4-5/h2-3,5H,4H2,1H3,(H,7,8)	InChI=1S/C6H9NO2/c1-9-5-2-3-7-6(8)4-5/h2-3,5H,4H2,1H3,(H,7,8)/t5-/m1/s1
