14
gdb 130068	4.71602	0.92066	0.81138	2.3468	65.93	-0.2408	-0.0465	0.1943	1334.1346	0.101127	-466.17526	-466.167032	-466.166088	-466.209509	28.621	
N	-0.1863136184	 1.2946096242	-0.2454395124	-0.574728
C	-0.0586219657	-0.0573079261	-0.0592717837	 0.462851
N	-1.0495497579	-0.9340819973	-0.2073374125	-0.33056
N	-0.4012569807	-2.0855544887	 0.0210690832	 0.130775
C	-1.0506667098	-3.3702813198	-0.0658117641	-0.229531
C	-1.5196375683	-3.6869339751	-1.4874270326	 0.156627
O	-2.3287017006	-4.5405001364	-1.7206424747	-0.219396
N	 0.8846204408	-1.9382253152	 0.2828515633	-0.119711
N	 1.1272698599	-0.6515513404	 0.243636522	-0.272362
H	 0.5345280108	 1.8378539142	 0.2051607198	 0.270481
H	-1.1171656902	 1.6574348263	-0.1082253353	 0.268339
H	-0.3149087314	-4.1189036946	 0.2419744711	 0.179737
H	-1.9058381536	-3.413374061	 0.6133839769	 0.167164
H	-1.0377736749	-3.0786316802	-2.2820662411	 0.110314
42.8216	70.5486	100.034	257.6855	297.8141	330.8683	392.3459	427.795	458.0366	571.8681	678.4383	706.7613	744.7172	786.3446	853.0119	1017.496	1029.6244	1051.7467	1095.7446	1116.1475	1185.4125	1264.1819	1323.5602	1355.8636	1408.9128	1420.6074	1438.2682	1475.1613	1584.9573	1656.6711	1848.5944	2916.4922	3073.5745	3129.8426	3585.1925	3692.6133
NC1=NN(CC=O)N=N1	Nc1nn(CC=O)nn1	
InChI=1S/C3H5N5O/c4-3-5-7-8(6-3)1-2-9/h2H,1H2,(H2,4,6)	InChI=1S/C3H5N5O/c4-3-5-7-8(6-3)1-2-9/h2H,1H2,(H2,4,6)
