22
gdb 62109	3.36456	0.72643	0.65299	3.9676	85.01	-0.2358	-0.012	0.2238	1756.5022	0.191851	-404.326589	-404.316334	-404.31539	-404.363129	36.712	
C	-0.2710814646	 1.5503700302	-0.190519551	-0.424743
C	-0.1199150007	 0.0316250564	-0.0142302504	 0.067573
C	 0.6278440102	-0.5758516298	-1.2148100527	-0.19446
C	 0.6010690952	-2.1121483659	-1.2257969086	-0.270117
C	 1.5437387855	-2.6927019028	-2.2486962367	 0.156809
O	 1.2437873288	-3.4824636637	-3.1074699315	-0.243947
N	 0.5397182164	-0.4368356739	 1.2147639599	-0.07058
C	 1.461384307	 0.4150958163	 1.9563838041	-0.223853
C	 0.1247965311	 0.0595276142	 2.5142239582	-0.225287
H	 0.693664815	 2.0355043568	-0.3712719808	 0.121723
H	-0.9090577021	 1.7570729444	-1.0549778097	 0.122828
H	-0.7371926707	 2.0265817439	 0.6775184468	 0.118889
H	-1.1265087331	-0.407049215	 0.0174264447	 0.086806
H	 0.1909707791	-0.1888251444	-2.1426494707	 0.104786
H	 1.6680512853	-0.2228248427	-1.1876445868	 0.101249
H	 0.9225046058	-2.4560666947	-0.2332247861	 0.139208
H	-0.404939075	-2.4988335226	-1.4149420329	 0.112627
H	 2.5949054664	-2.3258745776	-2.1553812502	 0.064009
H	 2.3615057556	-0.0726261725	 2.3208804442	 0.116229
H	 1.6023488294	 1.4461901264	 1.6421895693	 0.112507
H	-0.6155695936	 0.8561219675	 2.5628979549	 0.110279
H	 0.0292413991	-0.6903424704	 3.2954132461	 0.117465
46.8934	61.6695	80.2018	122.4398	155.4482	244.8078	265.6726	295.8388	311.2303	368.0788	493.9864	502.01	547.3414	689.1427	777.1543	819.5308	849.9872	884.0928	910.2681	959.4091	1001.0453	1025.6021	1032.3288	1043.5231	1101.8248	1111.3351	1122.3939	1142.7628	1157.1754	1171.3924	1181.1516	1214.6997	1256.4991	1309.4739	1332.7053	1339.3553	1377.102	1385.3343	1406.6893	1431.2734	1465.1845	1483.5229	1487.9212	1495.9333	1509.1632	1525.4782	1834.0442	2836.9652	3010.2675	3020.2933	3028.5865	3037.8901	3063.5713	3096.1531	3098.1534	3105.8833	3108.9146	3109.8105	3173.9459	3192.1235
CC(CCC=O)N1CC1	C[C@@H](CCC=O)N1CC1	
InChI=1S/C7H13NO/c1-7(3-2-6-9)8-4-5-8/h6-7H,2-5H2,1H3	InChI=1S/C7H13NO/c1-7(3-2-6-9)8-4-5-8/h6-7H,2-5H2,1H3/t7-/m0/s1
