16
gdb 30210	4.72826	1.30556	1.06097	1.2616	71.89	-0.1897	0.0457	0.2354	1098.9588	0.125632	-437.900411	-437.892876	-437.891932	-437.932353	29.188	
C	-0.578782495	 1.4841881043	-0.008925711	-0.401371
C	 0.2057343048	 0.1971808702	 0.0132980657	 0.186309
O	 1.0915888152	 0.1244470694	-1.1265456339	-0.297975
C	 2.2282022084	-0.4491369812	-0.6210089624	 0.259614
C	 3.4364562225	-0.9336715473	-1.030524629	-0.225561
N	 4.1365908919	-1.2024870948	 0.1435829708	-0.258918
C	 3.3572861934	-0.9420344767	 1.268673182	-0.225565
C	 2.1799252087	-0.4542653051	 0.7805540075	 0.259626
O	 1.011062698	 0.1158515535	 1.2108674491	-0.297995
H	 0.1054144518	 2.3354387018	 0.0167180777	 0.138116
H	-1.1828557478	 1.534297422	-0.9183863233	 0.133423
H	-1.2422861707	 1.5285474717	 0.8584454016	 0.133461
H	-0.4457973815	-0.6913541822	-0.0124254666	 0.08686
H	 3.8789267159	-1.0890439899	-1.9987670999	 0.125952
H	 4.9518737432	-1.7891571735	 0.1695229055	 0.258072
H	 3.7321422614	-1.1045712223	 2.2639014563	 0.125952
76.5654	212.6465	257.188	261.4788	312.7055	372.0915	469.3235	514.578	582.0308	641.511	652.1897	704.934	720.5318	734.869	772.6307	860.9135	867.6586	948.5474	1037.7524	1062.5491	1111.7515	1134.1136	1154.8681	1175.8801	1248.0942	1338.163	1362.1348	1389.5832	1420.9019	1444.3665	1479.8423	1485.725	1491.2396	1613.937	1679.4515	2972.3274	3055.3911	3135.3498	3141.4956	3281.7136	3284.4832	3682.6199
CC1OC2=CNC=C2O1	C[C@H]1Oc2c[nH]cc2O1	
InChI=1S/C6H7NO2/c1-4-8-5-2-7-3-6(5)9-4/h2-4,7H,1H3	InChI=1S/C6H7NO2/c1-4-8-5-2-7-3-6(5)9-4/h2-4,7H,1H3
