14
gdb 131128	3.91341	1.0323	0.93227	2.0632	63.69	-0.2627	-0.0527	0.21	1207.2311	0.100217	-473.813445	-473.805663	-473.804719	-473.846902	27.747	
O	 0.2197840311	 1.5492734257	 0.0329375438	-0.425384
C	 0.0448327396	 0.1610980206	 0.0635629175	-0.073491
C	 0.5959172567	-0.4592750252	-1.2205102774	 0.138137
O	 1.0529032715	 0.2267052355	-2.0993011828	-0.249907
C	 0.7280864987	-0.4489452888	 1.256252347	 0.11604
C	 1.6718562963	 0.1280163748	 2.0479073039	 0.013715
O	 2.0576437209	-0.7179929557	 3.0115356082	-0.160056
N	 1.3606387375	-1.9119856995	 2.8760907954	-0.126222
C	 0.5777920916	-1.7398929831	 1.8397302299	-0.061861
H	 0.5914696522	 1.7441770825	-0.8432107201	 0.299743
H	-1.0298060073	-0.1000412877	 0.0926271398	 0.11148
H	 0.5527414515	-1.5638332798	-1.2927436309	 0.110455
H	 2.1254060165	 1.1052977604	 2.0499559434	 0.172314
H	-0.0786250168	-2.5468339899	 1.5438801525	 0.135037
48.3175	87.4366	162.5339	231.9074	308.1325	369.2839	422.5356	487.9359	622.8297	656.7089	693.1974	780.9865	860.7007	868.3208	904.3922	905.3262	939.469	1020.3038	1034.7708	1141.9043	1150.4282	1201.803	1251.8359	1279.7109	1315.6445	1384.046	1406.7733	1431.4236	1475.2195	1645.9429	1819.4346	2929.1625	2949.8754	3237.7443	3288.7329	3675.3122
OC(C=O)C1=CON=C1	O[C@@H](C=O)c1conc1	
InChI=1S/C5H5NO3/c7-2-5(8)4-1-6-9-3-4/h1-3,5,8H	InChI=1S/C5H5NO3/c7-2-5(8)4-1-6-9-3-4/h1-3,5,8H/t5-/m0/s1
