17
gdb 29940	3.31828	1.39282	0.9931	5.4555	79.77	-0.2288	-0.0445	0.1843	1175.7345	0.136577	-418.085281	-418.076748	-418.075804	-418.118836	30.944	
C	-0.0294345	 1.4561880865	 0.0041013644	-0.331141
N	-0.0449726169	-0.0018536333	-0.0041740083	-0.114734
C	-1.182789144	-0.7082754272	-0.177497324	 0.057698
C	-1.1648012476	-2.0688382628	-0.1802589833	-0.233015
C	 0.1002874301	-2.6989887134	 0.0067951075	 0.326147
C	 0.1831718721	-4.2024029635	 0.0131573654	-0.475597
N	 1.2143705447	-2.0314309021	 0.1764075665	-0.381483
C	 1.2157101872	-0.6518869357	 0.1820992488	 0.438496
O	 2.2027652617	 0.0390593808	 0.3327291166	-0.394775
H	 0.6267079168	 1.8258847002	-0.7870478157	 0.160659
H	-1.0447910401	 1.8268102765	-0.1467226589	 0.123944
H	 0.3652478493	 1.8188298667	 0.9558575395	 0.160645
H	-2.0906717447	-0.1294760306	-0.3112085104	 0.134687
H	-2.073313269	-2.6381609541	-0.3186839716	 0.104776
H	-0.184437881	-4.6122518219	-0.9344501906	 0.13614
H	 1.2150517198	-4.5174536907	 0.1671248972	 0.151444
H	-0.4465710884	-4.6193852255	 0.8072661069	 0.136108
81.2238	93.3299	122.2367	192.3151	271.3137	303.6791	345.6322	421.8526	472.9782	557.5571	607.162	646.9421	742.511	773.5904	780.2489	812.9672	941.0189	961.33	1030.4512	1054.5418	1065.4879	1112.2432	1155.0166	1190.7219	1218.7672	1286.3354	1370.439	1399.0607	1448.3794	1464.8791	1465.9103	1481.5897	1497.7149	1527.7349	1556.7555	1681.5404	1786.4087	3035.6006	3056.3262	3090.0111	3128.2414	3146.9585	3156.8566	3186.1522	3228.1527
CN1C=CC(C)=NC1=O	Cn1ccc(C)nc1=O	
InChI=1S/C6H8N2O/c1-5-3-4-8(2)6(9)7-5/h3-4H,1-2H3	InChI=1S/C6H8N2O/c1-5-3-4-8(2)6(9)7-5/h3-4H,1-2H3
