12
gdb 21692	3.48339	2.47614	1.44783	0.5746	61.01	-0.2395	-0.0472	0.1923	777.093	0.085568	-410.829783	-410.823144	-410.8222	-410.860591	24.665	
N	 0.0539107452	 1.3373915934	-0.0364718576	-0.546707
C	-0.0177615364	-0.0069639838	 0.0164784395	 0.424221
N	-1.180965236	-0.5869869471	 0.0839601672	-0.225871
O	-1.1337766865	-2.0000127222	 0.1788714022	-0.202815
C	 0.0384206066	-2.6225447487	 0.1891027553	 0.16565
N	 1.2123291928	-2.1153591349	 0.10873608	-0.337007
C	 1.2790831334	-0.7322169557	-0.0005493628	 0.313782
N	 2.3492719166	-0.0465545985	-0.1193505537	-0.533151
H	 0.9649013009	 1.7259654843	-0.2238860064	 0.287265
H	-0.7811956156	 1.883461	-0.1590903787	 0.270452
H	-0.1086427043	-3.6967832879	 0.2778962254	 0.15187
H	 3.1592473432	-0.6689266789	-0.1231483005	 0.232311
95.2444	223.9908	277.8858	341.8339	423.9176	496.6796	517.3583	525.8276	581.3719	607.9765	741.1	816.5264	890.9722	915.1345	952.7817	976.3543	1056.4378	1134.6221	1208.2223	1324.7158	1405.0844	1485.8204	1591.2955	1635.4326	1656.3226	1708.209	3171.9749	3473.5155	3590.5441	3732.8379
NC1=NOC=NC1=N	NC1=NO[CH]N=C1[NH]	
InChI=1S/C3H4N4O/c4-2-3(5)7-8-1-6-2/h1,4H,(H2,5,7)	InChI=1S/C3H4N4O/c4-2-3(5)7-8-1-6-2/h1,4H,(H2,5,7)
