17
gdb 45135	2.60194	1.67264	1.1885	4.4001	74.91	-0.2431	-0.0506	0.1925	1041.7703	0.136996	-421.83262	-421.825006	-421.824061	-421.865224	28.888	
O	 0.138218971	 0.0159216857	 0.6899756327	-0.31959
C	 0.0429367084	 1.1191916536	 0.1895475843	 0.372197
C	-1.3358197859	 1.7619167398	 0.0520408192	-0.36791
C	-1.48450349	 3.1731910939	 0.5780380393	 0.048349
O	-0.5006863243	 3.6635410062	 1.4998173983	-0.246258
C	-0.6124999192	 4.2941799197	 0.2214438799	 0.063236
C	 0.5580096598	 4.2371607609	-0.7379119849	-0.315976
C	 1.4533665781	 3.0307011431	-0.7549730268	-0.041798
C	 1.2512484008	 1.7675612643	-0.3659734585	-0.127676
H	-1.6171047665	 1.748824169	-1.0107980863	 0.125919
H	-2.0263889738	 1.0957673152	 0.5750876298	 0.134531
H	-2.5082537008	 3.4256468723	 0.8596275432	 0.099746
H	-1.058605117	 5.2902616025	 0.2666797506	 0.094632
H	 0.1693739648	 4.4127312675	-1.7537907687	 0.132364
H	 1.1949843362	 5.1085637758	-0.5359693384	 0.129217
H	 2.4467069477	 3.2552935214	-1.1403367425	 0.110413
H	 2.0833035806	 1.0711714692	-0.4282969115	 0.108603
71.6227	85.5495	258.974	284.6265	309.5146	390.5107	473.9816	510.7663	564.2955	652.4481	690.6883	766.1375	790.2609	850.4989	864.4392	903.4017	931.1417	967.1592	1015.252	1039.8229	1070.3849	1113.8085	1138.775	1193.9185	1234.6637	1244.4745	1296.7439	1315.4108	1344.6671	1390.3417	1407.3566	1426.9799	1457.8939	1464.584	1508.0158	1710.6237	1764.3049	2993.7125	3017.8335	3032.3762	3079.5864	3092.4853	3105.0726	3136.3749	3172.6755
O=C1CC2OC2CC=C1	O=C1C[C@H]2O[C@H]2CC=C1	
InChI=1S/C7H8O2/c8-5-2-1-3-6-7(4-5)9-6/h1-2,6-7H,3-4H2	InChI=1S/C7H8O2/c8-5-2-1-3-6-7(4-5)9-6/h1-2,6-7H,3-4H2/t6-,7+/m0/s1
