19
gdb 33370	5.4463	0.61131	0.56621	1.3099	98.37	-0.239	-0.0087	0.2303	1930.0672	0.157966	-348.694846	-348.685469	-348.684525	-348.729994	34.54	
C	 0.0878187256	-3.7594778384	-0.1671845355	-0.554153
C	 0.0580562689	-2.5558197057	-0.0716009075	 0.290479
C	 0.0246514779	-1.1996392323	 0.0352187645	-0.235926
C	-0.0070718769	 0.007029383	 0.1293156376	 0.369828
C	-0.0122124901	 1.4584599421	 0.2341767693	-0.417629
C	 1.3828225016	 2.0769461089	 0.0727510623	 0.064411
C	 2.0842246714	 2.0104008373	-1.3117431162	-0.213871
C	 2.596463203	 3.4569797332	-1.073083162	-0.210867
C	 1.4986219435	 3.625469206	 0.0122422954	-0.237246
H	 0.113559007	-4.8172419878	-0.2513360392	 0.188112
H	-0.6832978164	 1.875634453	-0.5297417465	 0.129857
H	-0.4346543565	 1.7531008635	 1.2050122386	 0.134672
H	 2.0441591106	 1.6765144506	 0.8478498817	 0.085256
H	 2.8205874959	 1.2203860235	-1.4720617185	 0.105034
H	 1.3516013938	 1.9715988971	-2.1248072509	 0.101123
H	 3.5996024176	 3.4653640799	-0.6377173005	 0.104926
H	 2.5809716877	 4.1469437815	-1.9195542132	 0.098787
H	 0.5895416129	 4.074835155	-0.4020008384	 0.098542
H	 1.7578897928	 4.1538903997	 0.9328910587	 0.098666
44.6178	62.6776	132.5284	158.9845	197.4588	298.3958	354.6378	374.0133	442.7078	519.9987	527.4232	587.0245	587.9224	638.1973	727.5846	761.0885	791.3756	870.139	902.3457	933.069	963.2308	970.8899	1049.063	1104.2491	1128.8698	1174.7216	1198.7334	1215.037	1255.9811	1259.1584	1266.7589	1274.2185	1295.9063	1328.3686	1374.4662	1462.4599	1477.5258	1486.2702	1509.6166	2180.8277	2362.0611	3003.8506	3032.6563	3044.6794	3050.2518	3060.214	3061.1027	3099.3738	3107.864	3121.6105	3507.0667
C#CC#CCC1CCC1	C#CC#CCC1CCC1	
InChI=1S/C9H10/c1-2-3-4-6-9-7-5-8-9/h1,9H,5-8H2	InChI=1S/C9H10/c1-2-3-4-6-9-7-5-8-9/h1,9H,5-8H2
