19
gdb 128651	3.51198	1.13645	0.87287	2.2549	80.64	-0.2041	0.0322	0.2363	1347.1256	0.158826	-419.230888	-419.221186	-419.220242	-419.265924	34.012	
C	-0.1367606124	 1.4126410839	 0.089632077	-0.229216
O	-0.0380012769	-0.0063533116	 0.063378177	-0.269585
C	-1.2073345085	-0.6709936015	 0.0321832833	 0.481654
N	-2.3848996972	-0.063284437	 0.016456217	-0.375784
N	-3.2858508242	-1.0863835458	-0.03483549	-0.03962
C	-4.6934197368	-0.7751239363	 0.0385828326	-0.322674
C	-2.6855288085	-2.3069896293	-0.0330513567	 0.410647
C	-3.4454379651	-3.5931652492	-0.0674692262	-0.502627
C	-1.3236958552	-2.0777425941	 0.0033687769	-0.466254
H	 0.8884515622	 1.7855038356	 0.1146195957	 0.121949
H	-0.6534797396	 1.7885144247	-0.8000771682	 0.128181
H	-0.6838948397	 1.7536334035	 0.9752541374	 0.128002
H	-5.2749961752	-1.5708504089	-0.4314679598	 0.13396
H	-5.0314213862	-0.6554570455	 1.0754620723	 0.133872
H	-4.8694912589	 0.1599698328	-0.4954440576	 0.152777
H	-4.0789995313	-3.6732652245	-0.958567502	 0.13547
H	-2.7471105038	-4.4322991407	-0.0813573257	 0.140976
H	-4.0942496223	-3.7132152866	 0.8078400411	 0.134876
H	-0.5323342003	-2.8083490394	-0.003864754	 0.103398
63.9053	90.7408	130.3988	150.5585	182.5361	200.2258	223.8618	275.7819	380.3584	388.2061	522.2838	627.5708	644.0354	655.0513	717.158	768.9155	813.8454	983.7341	1019.1298	1057.4352	1061.4725	1086.3944	1146.6668	1178.1324	1181.8054	1210.6698	1226.4735	1321.6646	1415.0066	1423.623	1449.0896	1455.7265	1478.1873	1479.0127	1481.2232	1488.585	1502.489	1504.0831	1536.9315	1549.5973	1607.0959	3024.4835	3027.0394	3027.95	3076.3829	3090.528	3104.5629	3128.8245	3137.7997	3147.0719	3272.063
COC1=NN(C)C(C)=C1	COc1nn(C)c(C)c1	
InChI=1S/C6H10N2O/c1-5-4-6(9-3)7-8(5)2/h4H,1-3H3	InChI=1S/C6H10N2O/c1-5-4-6(9-3)7-8(5)2/h4H,1-3H3
