19
gdb 83348	2.16481	2.04576	1.60366	1.6371	74.82	-0.2324	-0.0022	0.2302	949.1397	0.160148	-423.026368	-423.018688	-423.017744	-423.057791	31.575	
C	-0.0051549775	 1.4918817697	-0.0191499471	-0.494108
C	-0.0314374231	-0.0115694951	 0.0677020529	 0.372761
O	 0.5918450426	-0.5878988599	-1.1201223481	-0.308923
C	 0.1852640786	-1.9624796521	-1.1747242217	-0.07605
C	-0.7216484973	-2.1386973298	 0.0747198012	-0.143237
C	 0.1971082652	-1.9629633838	 1.2727210497	-0.113963
C	 0.6197177953	-0.6910554215	 1.2688558517	-0.137216
C	-1.403242289	-0.7386938488	 0.0458865626	 0.123429
O	-2.2922458426	-0.4449578051	 1.088463526	-0.449684
H	 1.0178072521	 1.8748502349	 0.0440946989	 0.123158
H	-0.4376828969	 1.8250535456	-0.9664983394	 0.127167
H	-0.5907385396	 1.9183116312	 0.8007314102	 0.127303
H	-0.3721002834	-2.1426726397	-2.1026301296	 0.102367
H	 1.0646795696	-2.6170402348	-1.1573592095	 0.099117
H	-1.3684271655	-3.014845	 0.0584950869	 0.074476
H	 0.5265455564	-2.76415669	 1.9229879106	 0.103688
H	 1.364566567	-0.2365375151	 1.9106610506	 0.103676
H	-1.9414037937	-0.5415140146	-0.8853140933	 0.091342
H	-1.8267469881	-0.632363231	 1.9139739975	 0.274697
185.1367	229.1821	234.1086	269.4315	336.0449	361.0146	411.6962	449.5577	509.5433	566.2493	625.7321	707.1068	758.0855	809.8967	825.5063	846.3772	871.5535	898.5335	941.9078	956.8507	961.8267	1004.7838	1059.993	1089.7349	1118.9712	1136.6603	1156.8627	1202.771	1222.6305	1231.133	1279.9805	1283.7675	1309.1427	1353.6965	1375.3174	1413.341	1439.9196	1480.8445	1494.175	1521.2918	1625.5654	3014.7749	3042.9631	3054.8937	3085.5839	3114.6732	3121.7769	3129.3397	3193.8664	3218.641	3764.2582
CC12OCC(C=C1)C2O	C[C@@]12OC[C@@H](C=C1)[C@H]2O	
InChI=1S/C7H10O2/c1-7-3-2-5(4-9-7)6(7)8/h2-3,5-6,8H,4H2,1H3	InChI=1S/C7H10O2/c1-7-3-2-5(4-9-7)6(7)8/h2-3,5-6,8H,4H2,1H3/t5-,6-,7-/m1/s1
