17
gdb 17389	5.01792	1.59415	1.50468	1.0148	67.07	-0.2387	0.061	0.2997	877.7874	0.143254	-363.783849	-363.777058	-363.776114	-363.81516	25.862	
C	 0.0046044971	 1.4213720667	-0.076393186	-0.242971
C	 1.2593076095	 0.6520666324	 0.0491754128	-0.102749
N	-0.0956591163	-0.0403080817	 0.0668461221	-0.122917
C	 0.235599916	-0.591644213	-1.2965499025	-0.246022
C	 1.6557379811	 0.0198132398	-1.2759639387	 0.295022
C	 2.322074111	 0.7986630129	-2.4265093935	-0.137153
O	 3.4655792219	-0.0792971699	-2.4236460888	-0.273646
C	 2.9010347322	-0.8837460489	-1.3699000993	-0.134612
H	-0.3429691257	 1.9588537763	 0.8005201295	 0.125571
H	-0.2635623878	 1.8815976696	-1.0262438597	 0.11133
H	 1.8896298472	 0.7001441086	 0.9326545866	 0.098819
H	 0.2349939853	-1.6842834817	-1.2717653209	 0.116238
H	-0.4437778129	-0.249695736	-2.0859059279	 0.105008
H	 1.7856583208	 0.7715976659	-3.3846157126	 0.099813
H	 2.5940160185	 1.8374105195	-2.1979585163	 0.10257
H	 3.5415673443	-0.9059452418	-0.4782796233	 0.104559
H	 2.7074634779	-1.9149439485	-1.6951421315	 0.101142
72.9352	135.7838	237.5742	344.7539	424.5437	443.7882	520.9768	745.6387	781.5572	829.6992	863.3349	869.4796	911.4943	962.9952	968.3542	992.9889	1021.2874	1041.4148	1055.3842	1105.6879	1111.2892	1151.5816	1159.3353	1169.0909	1204.5656	1209.2071	1231.9561	1253.3987	1288.61	1309.195	1373.0115	1390.7091	1487.7266	1505.6053	1507.0105	1532.2222	2994.3779	3006.5691	3034.8977	3042.6699	3045.3054	3095.9745	3100.9838	3151.4712	3194.6208
C1C2N1CC21COC1	C1[C@H]2N1CC12COC1	
InChI=1S/C6H9NO/c1-5-6(2-7(1)5)3-8-4-6/h5H,1-4H2	InChI=1S/C6H9NO/c1-5-6(2-7(1)5)3-8-4-6/h5H,1-4H2/t5-,7?/m1/s1
