18
gdb 67057	2.79089	1.70846	1.45015	2.9104	77.66	-0.2209	-0.0338	0.1871	965.8873	0.146495	-401.811127	-401.803355	-401.802411	-401.843019	30.892	
C	-0.145432386	 1.4947524462	-0.1678911536	-0.48603
C	-0.0388493232	-0.0021196799	 0.0345492615	 0.253038
N	-1.2053108617	-0.6617653967	 0.8921013928	-0.207226
C	-0.2874262516	-1.889953828	 0.8601435855	-0.194369
C	 0.7428456834	-0.7599777793	 1.0956757024	 0.210106
C	-0.3248190507	-0.2385206243	 2.1118719289	-0.265887
C	 2.0380895705	-0.8175571201	 0.2685208809	-0.446269
C	 1.0412515344	-0.6239847232	-0.9728481058	 0.292286
O	 1.1454353516	-0.8074939492	-2.141738299	-0.271769
H	 0.8355451547	 1.9528181876	-0.3402879844	 0.125173
H	-0.7517570315	 1.6866441205	-1.0595695183	 0.147374
H	-0.6202794891	 2.0056441329	 0.6727701625	 0.130419
H	-0.4613077382	-2.5930932339	 1.6788756675	 0.100284
H	-0.2890862263	-2.4046005601	-0.1060016772	 0.121108
H	-0.3496579337	 0.8255414567	 2.344440265	 0.113672
H	-0.5345617221	-0.8436424809	 2.9972287637	 0.112877
H	 2.6821290972	 0.0632697526	 0.3559137619	 0.135592
H	 2.6503737524	-1.7219138508	 0.2773616957	 0.129622
113.1765	150.4341	236.5363	259.1114	317.7556	378.6389	487.6275	502.697	538.9279	581.0769	618.2064	673.8271	763.4411	774.0483	838.7108	854.3988	892.131	910.6345	953.186	991.8077	1026.3206	1056.4412	1091.7599	1108.2612	1144.5064	1151.0144	1156.9227	1180.7745	1190.3171	1236.227	1242.0819	1288.0907	1407.899	1448.79	1479.485	1484.3854	1518.3642	1550.2312	1896.1315	3032.4117	3045.1169	3059.624	3073.1462	3092.397	3110.2832	3120.7181	3123.9208	3151.8338
CC12N3CC1(C3)CC2=O	C[C@]12N3C[C@@]1(C3)CC2=O	
InChI=1S/C7H9NO/c1-6-5(9)2-7(6)3-8(6)4-7/h2-4H2,1H3	InChI=1S/C7H9NO/c1-6-5(9)2-7(6)3-8(6)4-7/h2-4H2,1H3/t6-/m1/s1
