17
gdb 124659	3.24862	1.12233	0.91496	2.3266	75.85	-0.2394	-0.034	0.2054	1258.7945	0.136596	-418.038371	-418.029776	-418.028832	-418.073117	30.708	
C	 0.135824817	 1.5550743463	-0.1044260084	-0.434786
C	-0.0022604176	 0.0278251738	 0.0278725678	-0.165657
C	 0.6082896357	-0.6403245413	-1.2055584735	 0.168288
O	-0.0135961618	-1.2576149623	-2.0271859832	-0.24235
C	 0.662272911	-0.5367700359	 1.2520186364	 0.352113
C	 0.5319942501	-1.7743165437	 1.8588424691	-0.302051
C	 1.4427189816	-1.7505960824	 2.9339722461	-0.000279
N	 2.1005328553	-0.5962962732	 3.0027785283	-0.228873
N	 1.6156207237	 0.1176749534	 1.9688228274	-0.251893
H	 1.1799025683	 1.8540006394	-0.2552050176	 0.123693
H	-0.4335491905	 1.9146617318	-0.9650687197	 0.143491
H	-0.2411586897	 2.0585925351	 0.7902584734	 0.138853
H	-1.0608547912	-0.2474959821	 0.0370812789	 0.116058
H	 1.7119145682	-0.5044596488	-1.286255918	 0.080616
H	-0.1322845899	-2.5697741953	 1.5613035284	 0.11432
H	 1.6442702078	-2.5239314706	 3.6605693511	 0.11614
H	 1.953970862	 1.0542227757	 1.8287683633	 0.272317
28.8658	60.7406	147.8767	205.0324	246.3344	303.5737	369.3491	407.3757	472.3271	529.2257	676.6709	699.9085	733.0433	809.2789	885.3497	900.0176	937.5884	947.7011	1014.2816	1063.9583	1071.1168	1085.4124	1135.6681	1145.3962	1237.8352	1271.4211	1299.8816	1315.1664	1374.2104	1403.3875	1419.4104	1441.2105	1489.5916	1500.7485	1507.9503	1591.8471	1836.2581	2865.5252	3033.3182	3073.4939	3103.6971	3125.3562	3245.5568	3268.7432	3677.9739
CC(C=O)C1=CC=NN1	C[C@@H](C=O)c1ccn[nH]1	
InChI=1S/C6H8N2O/c1-5(4-9)6-2-3-7-8-6/h2-5H,1H3,(H,7,8)	InChI=1S/C6H8N2O/c1-5(4-9)6-2-3-7-8-6/h2-5H,1H3,(H,7,8)/t5-/m0/s1
