21
gdb 82889	2.42288	1.914	1.41598	1.7558	81.01	-0.2351	0.0878	0.3228	1016.5282	0.183568	-387.058404	-387.05055	-387.049606	-387.090186	32.026	
C	-0.2282869831	 1.6163518413	-0.0406718859	-0.43389
C	 0.0335543926	 0.1155416672	-0.0126025507	-0.016728
C	 1.1056687062	-0.5724569231	-0.9118550893	-0.116019
C	 2.4121421016	 0.1353690093	-0.5061051995	-0.216665
C	 2.3505006071	-0.3888934609	 0.9399835069	 0.024047
O	 2.4996146709	-1.8254361899	 0.7146770999	-0.300598
C	 1.1691788858	-1.7334007431	 0.1959676479	 0.06697
C	 0.7808293163	-0.5772836769	 1.1471170222	 0.312134
C	 0.2544558977	-0.7483623224	 2.5479691686	-0.517965
H	 0.6662216695	 2.2071971503	 0.1752347112	 0.115976
H	-0.6086752548	 1.9329834043	-1.018286465	 0.117069
H	-0.982617651	 1.8861046787	 0.7067094219	 0.116829
H	-0.9200101238	-0.4147547019	-0.1400095114	 0.068155
H	 0.9213390095	-0.7747394898	-1.9657540531	 0.062004
H	 3.3018878005	-0.250941673	-1.0075839009	 0.106285
H	 2.3759030782	 1.2204216942	-0.6149988797	 0.096126
H	 3.014535675	 0.0057977822	 1.7087377158	 0.074324
H	 0.6434199495	-2.6768517807	 0.0527252982	 0.079246
H	 0.8774821512	-1.4521789855	 3.1098529293	 0.131423
H	 0.2492959003	 0.2032048342	 3.092574771	 0.116832
H	-0.7715017691	-1.1328126844	 2.5431710627	 0.114445
163.9199	190.5028	206.2778	229.5659	283.207	304.1525	477.111	521.4495	543.5155	617.2613	655.7181	743.4609	757.6348	825.3794	852.7309	857.9531	903.9319	925.5673	941.4905	954.3687	996.7333	1017.3068	1031.4092	1064.4861	1091.62	1109.9901	1117.0222	1155.614	1171.4044	1195.5945	1213.726	1236.8236	1243.9567	1255.274	1302.3976	1328.8343	1353.3085	1403.5417	1406.3392	1415.8289	1482.0193	1491.5509	1493.8115	1496.28	1508.5325	3013.8883	3023.3957	3032.473	3077.0966	3084.4205	3090.4248	3098.3005	3108.8228	3122.471	3123.1955	3130.7605	3133.026
CC1C2CC3OC2C13C	C[C@H]1[C@H]2C[C@@H]3O[C@H]2[C@]13C	
InChI=1S/C8H12O/c1-4-5-3-6-8(4,2)7(5)9-6/h4-7H,3H2,1-2H3	InChI=1S/C8H12O/c1-4-5-3-6-8(4,2)7(5)9-6/h4-7H,3H2,1-2H3/t4-,5+,6-,7+,8+/m0/s1
