19
gdb 100571	1.9044	1.26719	0.87358	2.5195	77.54	-0.2614	-0.0335	0.2279	1372.9998	0.155326	-423.013029	-423.002647	-423.001703	-423.049042	37.291	
C	-0.2306766892	 0.4094306377	 0.894173961	-0.381817
C	 0.4332819516	-0.7977612229	 0.2288891201	-0.195693
C	 0.4902880846	-0.6425025009	-1.3072510392	 0.047272
O	 1.1600114098	 0.5354008486	-1.6742160169	-0.439395
C	 1.1805732273	-1.8414193418	-1.947875937	 0.370505
O	 2.2132128583	-1.6863094511	-2.5612077293	-0.322048
C	 0.5999366007	-3.2505833649	-1.766820815	-0.454436
C	-0.8525507592	-3.3373468183	-1.7286534947	 0.306721
C	-2.051497924	-3.4130473311	-1.7060121711	-0.445943
H	 0.2949539232	 1.3285503508	 0.6256676731	 0.14315
H	-1.2739551809	 0.5095756326	 0.5751545709	 0.115858
H	-0.2205564531	 0.3079342473	 1.9834465442	 0.111218
H	 1.4589989118	-0.9127136758	 0.6014573844	 0.102834
H	-0.1153744395	-1.7129121119	 0.4787228832	 0.106756
H	-0.5433918792	-0.6151288985	-1.687104636	 0.104752
H	 1.9476496823	 0.2446394377	-2.1607803227	 0.291849
H	 1.014634667	-3.8674500406	-2.5701790839	 0.164746
H	 1.0206907091	-3.6415989554	-0.82895697	 0.1659
H	-3.1113961707	-3.4800769016	-1.688212571	 0.207771
46.683	74.4711	100.6873	138.148	176.712	237.8089	277.7669	332.6804	337.3675	376.033	413.89	467.0689	502.1576	554.0471	634.97	651.5444	672.4426	770.1034	828.0886	906.3293	932.5264	990.2765	1002.1434	1075.3764	1107.2129	1127.2373	1188.1249	1206.7189	1279.3963	1293.1357	1302.2286	1345.5479	1372.4128	1406.7696	1439.1374	1440.719	1476.9862	1494.9389	1509.4861	1793.8221	2241.7009	2987.1542	3016.2936	3027.3885	3039.1162	3073.8899	3083.8474	3104.6939	3132.4672	3503.7185	3686.7701
CCC(O)C(=O)CC#C	CC[C@@H](O)C(=O)CC#C	
InChI=1S/C7H10O2/c1-3-5-7(9)6(8)4-2/h1,6,8H,4-5H2,2H3	InChI=1S/C7H10O2/c1-3-5-7(9)6(8)4-2/h1,6,8H,4-5H2,2H3/t6-/m1/s1
