19
gdb 117803	2.28341	1.09639	0.97166	1.9383	74.38	-0.2501	0.0277	0.2778	1336.926	0.155396	-460.104382	-460.093779	-460.092835	-460.139946	38.268	
C	 0.1694301287	 1.4056978149	 0.1048363298	-0.23221
O	 0.1443804026	-0.0038430957	 0.0452067193	-0.260296
C	 0.5798932994	-0.5243548696	-1.1966689991	-0.096482
C	 0.5715464532	-2.0581531323	-1.0456261312	 0.122532
O	 1.2616489227	-2.4297799616	 0.1387542334	-0.463745
C	-0.8874547236	-2.5872654368	-0.9748662244	-0.102048
O	-1.6186572427	-2.3398662467	-2.1576634435	-0.418628
C	 1.2372227397	-2.6641027441	-2.2028597421	 0.317672
C	 1.7153288897	-3.1636566321	-3.1864853277	-0.457719
H	 1.1843270677	 1.7986134002	-0.0573378186	 0.113089
H	-0.5001252529	 1.8512099767	-0.6450408271	 0.117783
H	-0.1703857268	 1.6951976005	 1.1017495584	 0.133416
H	-0.094969902	-0.2305133614	-2.0113728174	 0.118753
H	 1.5974880559	-0.1756566407	-1.4250586619	 0.102558
H	 1.04869578	-1.7356307027	 0.7779883631	 0.292578
H	-0.8417724466	-3.6545445451	-0.7209097068	 0.103758
H	-1.4018459849	-2.057054605	-0.1692531951	 0.119621
H	-1.1668303735	-2.8039987264	-2.872781285	 0.285963
H	 2.1696631733	-3.6051520222	-4.0394764441	 0.203403
68.2224	113.2108	118.4153	130.8946	183.4946	227.6113	241.6581	258.7264	361.5677	370.6303	416.1183	432.6973	455.4087	467.1118	572.5176	615.6432	636.3115	676.1286	774.6017	912.0452	949.7041	992.2278	1078.6697	1101.3206	1142.2128	1148.27	1170.8321	1188.6322	1223.1653	1229.0908	1281.8286	1359.2785	1383.7315	1420.5392	1437.683	1477.3287	1486.1879	1496.9104	1499.9838	1521.189	2232.799	2983.8353	2998.9704	3020.371	3036.9454	3053.0473	3107.4306	3121.5564	3498.372	3752.2776	3783.6776
COCC(O)(CO)C#C	COC[C@@](O)(CO)C#C	
InChI=1S/C6H10O3/c1-3-6(8,4-7)5-9-2/h1,7-8H,4-5H2,2H3	InChI=1S/C6H10O3/c1-3-6(8,4-7)5-9-2/h1,7-8H,4-5H2,2H3/t6-/m0/s1
