25
gdb 64362	1.96798	1.75444	1.31204	0.1829	91.13	-0.2611	0.0775	0.3387	1161.2321	0.229674	-352.366936	-352.357524	-352.35658	-352.400403	37.864	
C	 0.3032990645	 1.5489938157	-0.1629683044	-0.41276
C	-0.0173280597	 0.052449664	 0.0310666642	 0.211181
C	-1.5372983424	-0.1306782431	 0.0763950084	-0.451456
C	 0.62878111	-0.7903087681	-1.0951599686	-0.221503
C	 2.1245418892	-0.8995568144	-0.7285598884	-0.217794
C	 2.1855154455	-0.7381709333	 0.8174195438	-0.290641
C	 0.7401935701	-0.481173793	 1.2653081803	 0.400874
C	 0.4515562483	-0.0206509629	 2.6660889102	-0.331776
C	 0.1055499067	-1.4324126014	 2.2537897471	-0.330419
H	 1.3801532346	 1.7350010074	-0.2157863057	 0.111699
H	-0.145499452	 1.9250903255	-1.0891144147	 0.105145
H	-0.0920082736	 2.1433971318	 0.6672708885	 0.110267
H	-1.9964560587	 0.2802535715	-0.8293543526	 0.109107
H	-1.8157464191	-1.1866816898	 0.1379451924	 0.113124
H	-1.9856262214	 0.3904054031	 0.9304229108	 0.109431
H	 0.1709901809	-1.7866322192	-1.0961630993	 0.091704
H	 0.4641573695	-0.3591403516	-2.0882089153	 0.085425
H	 2.5529336906	-1.8483790914	-1.0622764579	 0.095045
H	 2.7017997509	-0.1101199061	-1.2188875404	 0.099037
H	 2.6009783887	-1.6232264486	 1.3084946929	 0.095193
H	 2.8337644609	 0.1012265505	 1.0917703707	 0.098074
H	 1.2903378834	 0.1325669041	 3.338208154	 0.105223
H	-0.3706647812	 0.6703981587	 2.8261625463	 0.105346
H	-0.9443653843	-1.6838244761	 2.1571192776	 0.107891
H	 0.7193655385	-2.2417140836	 2.63691526	 0.102583
70.0014	148.226	221.0561	233.0527	237.9661	290.1677	314.7244	340.8185	360.0057	411.5357	483.0259	529.2567	587.8797	667.9614	764.6915	782.4497	829.8612	853.9859	895.9405	916.6436	936.7144	944.8929	951.6426	973.2463	979.3147	1008.9088	1038.4925	1052.4696	1071.4555	1081.2428	1131.1207	1162.8455	1189.4245	1227.84	1236.9996	1239.2192	1263.5532	1282.2725	1297.5731	1335.2292	1348.3775	1367.239	1400.9122	1422.5999	1465.0585	1481.1104	1484.0679	1492.2712	1496.387	1503.5114	1508.2019	1512.3925	1516.7393	3025.6004	3027.9662	3033.208	3036.4998	3055.549	3068.8403	3075.7651	3087.0759	3095.1298	3097.8907	3104.3328	3106.191	3117.8165	3128.951	3195.2966	3216.3788
CC1(C)CCCC11CC1	CC1(C)CCCC21CC2	
InChI=1S/C9H16/c1-8(2)4-3-5-9(8)6-7-9/h3-7H2,1-2H3	InChI=1S/C9H16/c1-8(2)4-3-5-9(8)6-7-9/h3-7H2,1-2H3
