19
gdb 98795	2.98857	1.17566	0.86183	3.1545	80.07	-0.2549	-0.0159	0.2389	1346.3104	0.159127	-419.247371	-419.238092	-419.237148	-419.282196	33.283	
C	-0.0594536277	 1.5195306353	 0.0879416685	-0.377701
C	 0.0349074359	 0.0024326267	-0.0564712047	-0.240914
C	 0.7524485427	-0.4426766343	-1.3097407614	 0.365604
N	 1.2232287913	 0.3938701542	-2.1478282001	-0.510237
N	 0.8535132835	-1.8291044926	-1.4679377447	-0.138651
C	 1.4749431639	-2.6144764051	-2.5473934743	-0.186087
C	 1.0499375949	-3.8980736192	-1.7825170396	-0.376946
C	 0.4445746545	-2.9478072447	-0.7333191467	 0.422904
O	-0.1453606541	-3.0594414173	 0.3043626007	-0.350639
H	 0.9329502611	 1.9754530203	 0.1164183146	 0.130431
H	-0.5954809251	 1.9632764618	-0.7542630944	 0.130427
H	-0.5875617655	 1.7738910689	 1.0114325944	 0.107239
H	 0.5438852556	-0.4448438001	 0.8056862371	 0.133624
H	-0.9608225394	-0.4568367826	-0.0515421952	 0.133607
H	 1.676175882	-0.0712548389	-2.9364909398	 0.212683
H	 0.9986685887	-2.4678330305	-3.5210974981	 0.128545
H	 2.5534855374	-2.4549241541	-2.6353756108	 0.128544
H	 0.3171269451	-4.5288534647	-2.2880808012	 0.143783
H	 1.8664086952	-4.5160712432	-1.4057684344	 0.143782
62.12	71.3481	132.0547	151.4005	197.1374	224.1836	285.4158	372.2145	394.7395	527.1041	559.7427	585.9861	731.5546	773.0468	798.5037	818.8456	891.5385	903.0463	965.5939	1031.0313	1043.5575	1049.3124	1095.7804	1115.6584	1149.1412	1153.3571	1193.9104	1227.4178	1248.1171	1293.2013	1322.5254	1354.4287	1414.5541	1421.9879	1452.4324	1460.999	1490.1876	1500.2147	1523.7195	1709.0607	1880.6694	3043.9261	3051.3615	3052.1409	3067.8648	3092.5972	3100.3554	3123.0878	3131.9782	3149.7209	3458.8001
CCC(=N)N1CCC1=O	CC[C]([NH])N1CCC1=O	
InChI=1S/C6H10N2O/c1-2-5(7)8-4-3-6(8)9/h7H,2-4H2,1H3	InChI=1S/C6H10N2O/c1-2-5(7)8-4-3-6(8)9/h7H,2-4H2,1H3
