21
gdb 38866	2.62961	1.90262	1.77847	1.8136	79.26	-0.2308	0.0754	0.3063	919.3367	0.188036	-387.105699	-387.099218	-387.098274	-387.136157	28.154	
C	-0.0477233174	 1.5666264964	 0.0129731857	-0.240833
C	 1.3907485302	 2.1585231449	-0.0008337321	-0.207423
C	 2.4238424387	 1.0154390772	-0.0209251297	-0.012923
C	 2.2021948499	 0.1415415231	 1.2387694432	-0.21571
C	 0.9354748372	-0.6894717563	 0.998700266	 0.084776
O	 1.239897639	-1.6797883771	-0.0233787704	-0.30243
C	 0.9104274365	-0.6766368725	-1.0249652534	 0.084794
C	 2.1709370137	 0.1575886313	-1.285752416	-0.215723
C	-0.004437446	 0.040313506	 0.002927128	-0.016122
H	-0.6011656885	 1.9064413083	 0.8955362924	 0.101383
H	-0.622317927	 1.9171846566	-0.8516967848	 0.101389
H	 1.5351357407	 2.8011395283	-0.8758430038	 0.092277
H	 1.556692888	 2.789672434	 0.8786896095	 0.092279
H	 3.4354418386	 1.4323974959	-0.0307981069	 0.06069
H	 3.0353960577	-0.5471221302	 1.4132086211	 0.103958
H	 2.1018050765	 0.7765009654	 2.1277810172	 0.087131
H	 0.5195675223	-1.1435426758	 1.9026126207	 0.068555
H	 0.4722167039	-1.1192662733	-1.9240034586	 0.068555
H	 2.0486350731	 0.8037751795	-2.1638646964	 0.087133
H	 2.9994668716	-0.5286511153	-1.4895206019	 0.103961
H	-1.0010449086	-0.4053701562	 0.0124473504	 0.074283
156.6395	305.6733	336.2813	408.4038	421.3735	522.0538	558.1279	612.148	714.3181	793.6704	801.213	836.8025	847.7718	867.1592	885.7385	901.5332	928.5722	964.877	987.7357	1031.7518	1049.2247	1051.3899	1078.5804	1084.7859	1090.3589	1126.7185	1157.2964	1170.8204	1239.1801	1247.3777	1269.4042	1274.582	1310.2981	1325.1443	1336.7175	1341.5464	1348.2338	1350.4254	1375.8103	1385.0572	1397.8421	1471.5803	1479.3672	1487.2943	1509.9253	3026.1111	3026.714	3027.7754	3039.3077	3055.7046	3056.5556	3066.1322	3067.1067	3076.4777	3080.7168	3081.7291	3093.0012
C1CC2CC3OC(C2)C13	C1C[C@H]2C[C@@H]3O[C@H](C2)[C@H]13	
InChI=1S/C8H12O/c1-2-6-7-3-5(1)4-8(6)9-7/h5-8H,1-4H2	InChI=1S/C8H12O/c1-2-6-7-3-5(1)4-8(6)9-7/h5-8H,1-4H2/t5-,6+,7-,8+
