14
gdb 85116	1.97629	1.68861	1.18737	3.534	63.55	-0.2672	-0.068	0.1991	1046.7751	0.09823	-473.821854	-473.813066	-473.812122	-473.855543	31.696	
O	 0.4236706462	 1.0151812795	-0.5754426695	-0.423967
C	 0.1584090441	-0.1435089916	 0.1374430967	 0.128301
C	 0.0379338743	-0.0743094078	 1.6965904068	-0.400942
C	-1.2477577922	-0.8929140324	 1.6037939665	 0.358736
O	-1.9538824094	-1.4731069269	 2.3684932669	-0.26804
C	-1.3221836872	-0.6893286813	 0.045197849	 0.105905
O	-2.1477498061	 0.4227719989	-0.2518286497	-0.459441
C	-1.5968664358	-1.8479506389	-0.7931892674	 0.231449
N	-1.8108800683	-2.7910386738	-1.4270877077	-0.320792
H	-0.3789370564	 1.5531866607	-0.5648925187	 0.302794
H	 0.8737541293	-0.9065643227	-0.1760201519	 0.12913
H	 0.8433725004	-0.5124843777	 2.2891726469	 0.15136
H	-0.1517541748	 0.942824336	 2.0555972224	 0.151743
H	-3.061820994	 0.2012262279	-0.0370146503	 0.313763
63.5894	113.6022	160.1597	211.9745	268.9857	308.2664	324.6551	399.2654	414.982	478.8724	497.6395	557.9456	615.0684	631.4475	709.2926	835.7175	899.999	957.2265	1030.4348	1093.8519	1125.4118	1141.23	1154.9846	1210.0285	1257.1866	1310.6446	1357.6497	1425.6224	1441.561	1904.9276	2346.7127	3063.5623	3100.3864	3130.3159	3772.671	3801.9831
OC1CC(=O)C1(O)C#N	O[C@H]1CC(=O)[C@]1(O)C#N	
InChI=1S/C5H5NO3/c6-2-5(9)3(7)1-4(5)8/h3,7,9H,1H2	InChI=1S/C5H5NO3/c6-2-5(9)3(7)1-4(5)8/h3,7,9H,1H2/t3-,5-/m0/s1
