19
gdb 95388	2.49805	1.76882	1.28082	2.6429	69.3	-0.2518	0.0568	0.3086	1016.5373	0.161946	-460.173959	-460.166206	-460.165261	-460.207097	29.815	
O	 0.0513009421	 1.4353010075	-0.2038650866	-0.423605
C	 0.0118617755	 0.0625348362	 0.1416361045	 0.099071
C	 0.233805666	-0.2172381581	 1.6388894071	-0.132483
O	-0.431422089	-1.4444742074	 1.8853105051	-0.25266
C	-1.5964167147	-1.5157730632	 1.0783128188	 0.225932
O	-2.7631939709	-1.1080622208	 1.7504047438	-0.253719
C	-3.0502226869	 0.2536094473	 1.433364342	-0.096012
C	-2.5716317806	 0.4370770537	-0.0119446639	-0.228226
C	-1.3873421911	-0.5436757288	-0.1196402902	-0.123595
H	 0.9559239504	 1.7460758052	-0.10088701	 0.28947
H	 0.753343569	-0.5001081715	-0.4428901076	 0.076571
H	 1.2859306598	-0.3445531897	 1.9127768073	 0.100634
H	-0.1822187288	 0.6112826523	 2.2322830003	 0.100552
H	-1.728644232	-2.5714681183	 0.8308489648	 0.088144
H	-4.1255788728	 0.403821785	 1.5617048471	 0.10805
H	-2.5274583258	 0.9326312591	 2.1225132578	 0.100848
H	-3.3605977958	 0.1365105532	-0.7066636228	 0.10471
H	-2.2820797875	 1.4629435957	-0.2407374952	 0.130744
H	-1.4000956968	-1.0734447473	-1.0723879623	 0.085573
28.4723	169.95	207.1416	250.4911	290.2838	379.8584	502.4918	513.55	548.6935	627.9935	681.9085	773.8612	838.5839	883.603	904.757	940.5622	946.402	973.3501	1018.0146	1042.0128	1048.225	1082.0642	1109.8359	1134.7104	1154.3399	1216.1278	1220.1967	1232.608	1249.9545	1281.7362	1304.9142	1320.9036	1339.5538	1355.6063	1375.3741	1382.2678	1406.8839	1432.2563	1490.1631	1517.9844	1534.0705	2987.0413	2996.8181	3002.4369	3064.9838	3075.5644	3086.8859	3089.5097	3106.9093	3138.5909	3825.6145
OC1COC2OCCC12	O[C@H]1CO[C@H]2OCC[C@@H]12	
InChI=1S/C6H10O3/c7-5-3-9-6-4(5)1-2-8-6/h4-7H,1-3H2	InChI=1S/C6H10O3/c7-5-3-9-6-4(5)1-2-8-6/h4-7H,1-3H2/t4-,5-,6+/m0/s1
