20
gdb 111897	2.9264	1.24955	0.97197	2.0499	82.27	-0.2255	0.0125	0.2379	1279.9248	0.170684	-403.115701	-403.106781	-403.105837	-403.149452	33.341	
C	-0.0809526739	 1.3992365498	 0.0273628682	-0.23058
O	 0.1962061707	 0.0267163945	-0.1112166101	-0.239117
C	 0.7065798852	-0.5773749964	 1.0645138126	 0.128006
C	-0.3224018361	-0.858530838	 2.1532872658	-0.232172
C	-0.338580729	-2.1394106067	 2.5331927982	 0.374491
C	-1.2081861596	-2.7874608102	 3.5616627712	-0.500175
C	 0.6409777699	-2.9218840292	 1.7045118889	-0.158741
N	 0.2437249758	-2.9279985977	 0.2683292331	-0.317906
C	 1.2569786571	-1.9657633917	 0.7565180419	-0.087894
H	 0.8071182041	 1.9655968104	 0.3531470098	 0.097823
H	-0.3902620765	 1.7659159527	-0.9547305015	 0.126108
H	-0.8929996045	 1.5969916068	 0.7432007295	 0.10448
H	 1.5201994009	 0.0577368654	 1.461588615	 0.061633
H	-0.9810429974	-0.0895712074	 2.541455168	 0.090545
H	-1.8630527903	-2.062003668	 4.0513858631	 0.124474
H	-1.8348381665	-3.5645640446	 3.1063047755	 0.136778
H	-0.6088631246	-3.2817829474	 4.3368913963	 0.123195
H	 1.1741548632	-3.7741875934	 2.1133395548	 0.085126
H	 0.7417822613	-3.6813052454	-0.204845814	 0.226699
H	 2.2791934402	-2.0655117335	 0.4100254638	 0.087226
77.4772	122.4011	160.0599	189.296	203.7627	242.0631	328.9773	351.1256	473.8311	495.875	587.6536	595.3167	766.1603	814.6764	837.4286	850.2161	884.0094	911.751	952.0919	1006.7112	1010.234	1053.1614	1057.4788	1076.6979	1132.8214	1142.6842	1166.9731	1181.2865	1195.8257	1221.7161	1255.8951	1284.1349	1335.1308	1361.5089	1393.133	1412.9356	1420.3453	1478.2176	1478.9406	1488.0297	1490.2236	1509.5788	1711.2259	2924.1902	2966.828	3014.8056	3018.4681	3066.0751	3109.5988	3113.1431	3161.5696	3176.3256	3192.8608	3468.6328
COC1C=C(C)C2NC12	CO[C@H]1C=C(C)[C@H]2N[C@@H]12	
InChI=1S/C7H11NO/c1-4-3-5(9-2)7-6(4)8-7/h3,5-8H,1-2H3	InChI=1S/C7H11NO/c1-4-3-5(9-2)7-6(4)8-7/h3,5-8H,1-2H3/t5-,6+,7-/m0/s1
