20
gdb 8915	3.50266	1.2445	0.97645	1.76	77.34	-0.2546	0.0528	0.3073	1234.8755	0.173603	-348.975466	-348.965302	-348.964358	-349.010345	36.775	
C	 0.0710017846	 1.5953423276	 0.1036776417	-0.382411
C	-0.0126976886	 0.0695580962	 0.0048675571	-0.196647
C	 0.679680529	-0.4807070354	-1.250164816	 0.150299
O	 2.028571169	-0.039258914	-1.3250905141	-0.422214
C	 0.5988340306	-2.0289825771	-1.3608242796	-0.201783
C	-0.849161577	-2.5611496823	-1.4151799578	-0.398099
C	 1.3507889262	-2.5026439239	-2.5225818107	 0.342843
C	 1.9291588866	-2.9147140609	-3.4922775418	-0.464792
H	 1.1111696911	 1.9282599409	 0.0793980251	 0.129321
H	-0.4478982534	 2.0708931678	-0.7358850967	 0.115768
H	-0.38956691	 1.9553901039	 1.0284312529	 0.108597
H	 0.4508550261	-0.3893144469	 0.8912647078	 0.083914
H	-1.0628258612	-0.2412052047	 0.0124498511	 0.102326
H	 0.2026692146	-0.0534957119	-2.1414253881	 0.095004
H	 2.5150476377	-0.4458951928	-0.5988785248	 0.2767
H	 1.0760887482	-2.4389248542	-0.4561541631	 0.091534
H	-1.397588507	-2.1006718513	-2.24291129	 0.128049
H	-0.8471685973	-3.6417584284	-1.5759096737	 0.13022
H	-1.3849691102	-2.3561563284	-0.4854853127	 0.119592
H	 2.4570680612	-3.2655560242	-4.3439750868	 0.191778
53.3209	92.846	130.1573	189.4198	209.4125	240.9853	249.6283	277.6424	292.6152	397.2596	402.6441	457.2272	551.7501	570.8927	627.4281	633.5451	778.9991	841.4024	871.9668	946.9923	992.9213	1026.8878	1064.374	1090.489	1103.791	1141.1629	1142.2486	1247.7935	1269.5018	1316.8865	1341.6154	1361.8781	1383.5559	1403.5657	1409.6097	1421.1739	1481.7098	1493.7629	1495.1566	1501.7993	1509.7531	2235.976	2974.9016	2998.7915	3038.1704	3040.3506	3047.147	3070.8225	3103.019	3120.0287	3127.8814	3130.6311	3505.3916	3794.1163
CCC(O)C(C)C#C	CC[C@@H](O)[C@@H](C)C#C	
InChI=1S/C7H12O/c1-4-6(3)7(8)5-2/h1,6-8H,5H2,2-3H3	InChI=1S/C7H12O/c1-4-6(3)7(8)5-2/h1,6-8H,5H2,2-3H3/t6-,7+/m0/s1
