15
gdb 24721	4.35912	1.50827	1.29403	3.7333	71.11	-0.2274	0.0159	0.2432	945.8234	0.115974	-416.771713	-416.765474	-416.764529	-416.802613	24.275	
C	 0.1812787531	 1.5805541446	-0.0162394645	-0.086775
O	 1.5658958942	 1.4437622509	 0.3669102138	-0.273221
C	 1.4650753003	 0.0009128338	 0.4495640081	-0.076096
C	-0.0477718828	 0.0549932836	 0.0349009524	-0.061449
N	 0.3508632996	-0.6657364677	-1.1908862336	 0.002354
C	 0.1973483395	-1.0988862469	-2.4700790097	-0.028371
N	 1.374156032	-1.4613789026	-2.9554797825	-0.258935
C	 2.3231356399	-1.2119766853	-1.9863308523	-0.214496
C	 1.6864951598	-0.7191775243	-0.8734047926	 0.279717
H	-0.3840227077	 2.1341560962	 0.7422377271	 0.117886
H	 0.0508106717	 2.0499031015	-0.9967143032	 0.123651
H	 1.8724268431	-0.3960043929	 1.3786854239	 0.105932
H	-0.8923823984	-0.3572468324	 0.5826754006	 0.116547
H	-0.7485912625	-1.1768410685	-2.9824056954	 0.13648
H	 3.367075558	-1.4171175599	-2.1608031321	 0.116776
102.6797	165.3611	299.7346	432.8266	470.4966	659.3878	685.015	724.5196	759.0887	792.2918	810.904	844.8884	892.5611	918.0443	964.8315	982.788	1005.723	1050.6343	1110.499	1118.1607	1155.0104	1172.7123	1185.4773	1231.5545	1260.5364	1276.8771	1293.6552	1343.4723	1356.6532	1410.2064	1456.2747	1507.1673	1553.947	3031.592	3086.6102	3125.2671	3143.2657	3261.565	3264.6287
C1OC2C1N1C=NC=C21	C1O[C@H]2[C@@H]1n1cncc21	
InChI=1S/C6H6N2O/c1-4-6-5(2-9-6)8(4)3-7-1/h1,3,5-6H,2H2	InChI=1S/C6H6N2O/c1-4-6-5(2-9-6)8(4)3-7-1/h1,3,5-6H,2H2/t5-,6-/m1/s1
