15
gdb 44515	4.65775	1.40903	1.22664	1.8005	64.49	-0.2475	0.0479	0.2954	963.9876	0.114589	-453.922078	-453.915111	-453.914166	-453.955156	26.921	
O	 0.0002164361	-0.0807771898	-0.0385320065	-0.413951
C	-0.0138012936	 1.1333370711	 0.0042419837	 0.470224
N	-1.1623541011	 1.8986849158	 0.0473002103	-0.379037
C	-1.1149520508	 3.3301114724	 0.0971240093	 0.038875
C	-0.0599661994	 4.0549428147	-0.7985776941	-0.003998
O	-0.0604607218	 5.1751871107	 0.1472495939	-0.294636
C	-0.0343544	 3.991149572	 1.0114880881	-0.004025
C	 1.0363306741	 3.3559888547	 0.0676167736	 0.038875
N	 1.1167613772	 1.9261002943	 0.0160402549	-0.379037
H	-2.033430628	 1.3971277174	 0.0422922318	 0.258799
H	-2.1053661613	 3.7818435064	 0.1270527855	 0.103482
H	-0.0772419401	 4.2740089391	-1.8652756691	 0.101077
H	-0.0212662785	 4.1345782316	 2.0910206963	 0.101071
H	 2.0160419489	 3.8314205121	 0.07050459	 0.103482
H	 1.9991819683	 1.4456390976	-0.0131125076	 0.258799
10.3271	222.6632	329.1177	334.0756	423.2593	449.5601	494.4488	521.8548	667.3505	761.4876	772.5466	793.5698	849.2327	873.2065	876.8108	900.5026	915.4271	1000.1806	1044.0454	1068.9558	1131.4328	1139.6994	1162.1541	1177.0299	1190.5855	1231.963	1261.6866	1276.4016	1397.1887	1403.5936	1450.5319	1450.6819	1828.4908	3127.1903	3128.3789	3135.9462	3144.8116	3675.2204	3677.3001
O=C1NC2C3OC2C3N1	O=C1N[C@@H]2[C@H]3O[C@@H]2[C@H]3N1	
InChI=1S/C5H6N2O2/c8-5-6-1-3-2(7-5)4(1)9-3/h1-4H,(H2,6,7,8)	InChI=1S/C5H6N2O2/c8-5-6-1-3-2(7-5)4(1)9-3/h1-4H,(H2,6,7,8)/t1-,2+,3-,4+
