19
gdb 120597	4.05466	0.77161	0.71761	2.5719	80.38	-0.2599	0.0261	0.2861	1629.1055	0.154658	-422.957872	-422.94747	-422.946525	-422.993821	36.733	
C	 0.125372808	 1.3534850191	-0.1914544217	-0.225734
O	 0.1406867901	-0.0505763395	-0.088849829	-0.233248
C	 0.5129065646	-0.5014244786	 1.1941300498	-0.092539
C	 0.4856370102	-2.0086268687	 1.1717226413	 0.008504
O	 1.6952523989	-2.7068922238	 0.8825832553	-0.274431
C	 1.1272474698	-2.8630916764	 2.1986126539	 0.179283
C	 1.9396533738	-2.3016417573	 3.3500678969	-0.472605
C	 0.5371238671	-4.1589326926	 2.4603570366	 0.28941
C	 0.0573046837	-5.2314742366	 2.7134803469	-0.426765
H	 1.1191581325	 1.7883606166	-0.0007257391	 0.107256
H	-0.1792235861	 1.6020013069	-1.2106366831	 0.132016
H	-0.5885142147	 1.8068395582	 0.5149861064	 0.103897
H	 1.5158228948	-0.1371335955	 1.4608458155	 0.09924
H	-0.1956583894	-0.1279909746	 1.9554891387	 0.09324
H	-0.3932107317	-2.4129001048	 0.6687310628	 0.108215
H	 2.3887516472	-1.3432295066	 3.0864654335	 0.12984
H	 1.30785337	-2.1707896021	 4.2337492164	 0.133756
H	 2.7412923753	-2.9989365374	 3.6096436225	 0.141146
H	-0.3697962542	-6.1810314266	 2.9230741564	 0.199518
55.4876	81.7007	105.5197	149.2195	166.5495	194.8285	233.1484	270.2118	329.9782	366.4731	403.5466	498.2537	553.0114	597.0084	625.1845	662.2611	685.2405	832.0305	895.785	944.3184	984.7097	1047.1993	1100.1701	1112.1257	1125.1826	1164.1708	1185.5711	1226.7721	1242.0466	1268.7513	1323.4983	1388.2484	1412.6102	1462.299	1476.1971	1484.6966	1486.0101	1496.3729	1501.0752	1520.8339	2238.2589	2945.0841	2970.0447	3010.3088	3014.6935	3050.812	3116.1664	3116.4611	3118.6243	3146.4219	3501.6926
COCC1OC1(C)C#C	COC[C@H]1O[C@]1(C)C#C	
InChI=1S/C7H10O2/c1-4-7(2)6(9-7)5-8-3/h1,6H,5H2,2-3H3	InChI=1S/C7H10O2/c1-4-7(2)6(9-7)5-8-3/h1,6H,5H2,2-3H3/t6-,7-/m1/s1
