18
gdb 16154	4.33924	1.71223	1.44619	1.0803	72.57	-0.2276	0.0206	0.2482	913.9211	0.15406	-347.787892	-347.780498	-347.779553	-347.819285	28.718	
C	-0.2846839926	 1.299277396	-0.0929007873	-0.252205
O	 0.2355026311	-0.0050444909	 0.0854901821	-0.285986
C	 0.8047800648	-0.5391102936	-1.0657172706	 0.445151
C	-0.1045147845	-1.1033284194	-2.1270467022	-0.336594
C	 0.7624744017	-2.0340052534	-1.2800166609	-0.156624
C	 2.0890316454	-2.385228241	-1.8630216119	-0.06943
C	 2.8652055918	-1.3074534244	-2.0058989989	-0.081731
C	 2.1971509557	-0.0515090177	-1.4866820479	-0.332111
H	 0.5025341096	 2.0250296174	-0.3431512092	 0.108393
H	-1.0458522332	 1.3255956378	-0.8856743133	 0.107537
H	-0.7436562846	 1.592550012	 0.8541997985	 0.12503
H	-1.1635531287	-1.0927066737	-1.89068478	 0.113282
H	 0.1414527057	-0.9821850379	-3.1774038105	 0.108868
H	 0.2655888415	-2.6884587858	-0.5731568355	 0.096843
H	 2.3551160943	-3.3950273281	-2.1538417902	 0.095072
H	 3.8564910345	-1.2990103929	-2.4443885883	 0.093189
H	 2.1624386872	 0.7438222637	-2.2413776665	 0.107042
H	 2.7261902903	 0.3587396318	-0.6153695873	 0.114273
106.2201	174.9267	194.1489	285.5712	342.7112	398.7112	426.4621	490.8172	625.9752	712.6523	743.933	776.4122	855.2663	903.3604	928.331	952.4887	959.0593	995.7217	1006.2781	1036.879	1050.3343	1065.7076	1101.2864	1143.2588	1173.2129	1183.0531	1210.17	1248.7222	1258.7938	1309.9427	1367.1362	1383.0056	1462.3346	1473.1531	1486.394	1491.281	1508.4529	1667.4597	2988.7902	3014.6368	3040.2267	3049.7154	3117.1979	3121.4869	3178.1004	3187.4352	3211.0965	3216.2138
COC12CC1C=CC2	CO[C@]12C[C@H]1C=CC2	
InChI=1S/C7H10O/c1-8-7-4-2-3-6(7)5-7/h2-3,6H,4-5H2,1H3	InChI=1S/C7H10O/c1-8-7-4-2-3-6(7)5-7/h2-3,6H,4-5H2,1H3/t6-,7-/m1/s1
