20
gdb 26269	3.40404	1.10923	1.0231	1.7009	88.43	-0.2462	-0.0174	0.2288	1279.8136	0.172497	-366.084926	-366.076293	-366.075349	-366.118987	32.594	
C	-0.0265339684	 1.5942065233	 0.2568739487	-0.3912
C	-0.0412144859	 0.0747631833	 0.0144072412	-0.051214
C	 0.8841650543	-0.6559985293	 1.0030450727	-0.391175
C	-1.4524113795	-0.4869951696	 0.0430925027	 0.322812
N	-1.8957405561	-1.044057844	-1.0922925833	-0.321725
C	-3.1321999525	-1.5503705923	-1.1092103404	-0.001878
C	-3.9907229028	-1.5344790094	-0.0159661264	-0.127585
C	-3.5313255986	-0.9561136114	 1.1640298059	-0.075597
C	-2.248314475	-0.42669542	 1.1938145131	-0.15218
H	 0.9916969935	 1.9863443428	 0.1647727466	 0.113271
H	-0.6588282875	 2.1172645435	-0.4668222567	 0.121678
H	-0.3872141052	 1.8444196863	 1.2608380724	 0.111224
H	 0.3226855376	-0.1144773876	-1.000370437	 0.092646
H	 1.9091074898	-0.2804127969	 0.9165648827	 0.113265
H	 0.5635620786	-0.5052376254	 2.0399297027	 0.11122
H	 0.8994454331	-1.7328155661	 0.8097774511	 0.121694
H	-3.4507629951	-1.9925175127	-2.050984233	 0.104919
H	-4.9847097787	-1.9611721413	-0.088814811	 0.099137
H	-4.1630359899	-0.9186995108	 2.045860073	 0.104807
H	-1.8638385116	 0.0300429674	 2.0993635949	 0.09588
25.9333	123.39	206.4978	222.7865	257.15	303.161	304.6664	416.7836	475.7032	556.394	568.6718	637.2522	765.8225	774.9616	812.6949	903.4965	915.1109	931.2351	965.2396	982.5441	1006.69	1007.3728	1061.538	1072.5018	1117.7561	1120.47	1176.2724	1184.3603	1245.8444	1297.7515	1305.445	1353.0004	1366.6078	1396.4147	1418.27	1463.9336	1485.8609	1489.8181	1500.6857	1501.8502	1515.6097	1611.3485	1631.6915	3027.7428	3031.4111	3057.377	3092.5339	3101.4737	3106.7386	3108.9218	3147.0281	3173.2329	3189.1878	3201.3378
CC(C)C1=NC=CC=C1	CC(C)c1ncccc1	
InChI=1S/C8H11N/c1-7(2)8-5-3-4-6-9-8/h3-7H,1-2H3	InChI=1S/C8H11N/c1-7(2)8-5-3-4-6-9-8/h3-7H,1-2H3
