20
gdb 126896	2.59723	1.22172	0.95199	3.6384	82.63	-0.1877	0.0454	0.2331	1316.0524	0.172003	-399.350301	-399.340623	-399.339679	-399.386196	34.837	
C	-0.7246379529	 0.7396661727	-0.5236737475	-0.377308
C	 0.4512682724	 0.1156860263	 0.2371428041	-0.161616
N	 1.4355601016	-0.5803202656	-0.5925142307	-0.385688
C	 1.0597435434	-1.7037076249	-1.3199251233	 0.356994
C	 1.5026137153	-2.1608027792	-2.5548675487	 0.11121
C	 2.4791711359	-1.4933552392	-3.4729907216	-0.526052
C	 0.8209010065	-3.3887143181	-2.7204508978	-0.067564
N	 0.0203487112	-3.6844983639	-1.7058613696	-0.254205
N	 0.1839513236	-2.6332692349	-0.8557680739	-0.261208
H	-0.3715460137	 1.4907701199	-1.238244237	 0.117259
H	-1.2809873686	-0.0201667001	-1.0799386563	 0.138218
H	-1.4151227826	 1.2313610055	 0.1694212927	 0.118325
H	 0.9938333886	 0.8870205389	 0.7931461394	 0.114838
H	 0.0811681504	-0.5857948706	 0.9947575114	 0.109069
H	 1.9781547677	 0.0545397246	-1.1624800031	 0.238382
H	 2.2562803501	-0.4265842078	-3.6095670117	 0.110164
H	 3.5149163827	-1.5620891842	-3.1155166335	 0.124797
H	 2.4505705894	-1.952654646	-4.4652551631	 0.129496
H	 0.8867233892	-4.064681107	-3.5624178173	 0.099527
H	-0.3007439103	-2.6409570564	 0.0237300976	 0.265361
19.9406	81.4925	101.4483	171.6362	231.4954	237.4643	288.1332	296.2348	402.005	428.2471	503.2416	592.5567	638.5356	674.4944	715.4911	735.14	826.5573	885.4786	900.5893	950.2007	995.4385	1057.8586	1063.3221	1105.3823	1120.8841	1145.6171	1217.2273	1245.6924	1293.6976	1339.1792	1375.9042	1382.3642	1408.1546	1417.8328	1434.807	1485.5013	1488.2013	1492.3839	1498.3441	1505.9398	1515.6761	1569.8385	1640.4096	3006.4529	3033.2286	3035.8464	3047.0574	3073.9682	3101.6256	3105.1312	3119.3259	3227.1512	3580.0192	3690.5259
CCNC1=C(C)C=NN1	CCNc1c(C)cn[nH]1	
InChI=1S/C6H11N3/c1-3-7-6-5(2)4-8-9-6/h4H,3H2,1-2H3,(H2,7,8,9)	InChI=1S/C6H11N3/c1-3-7-6-5(2)4-8-9-6/h4H,3H2,1-2H3,(H2,7,8,9)
