16
gdb 78124	2.82854	1.34508	1.10848	2.542	76.97	-0.2434	-0.0334	0.21	1126.8917	0.122076	-400.67833	-400.669881	-400.668937	-400.71141	31.624	
C	-0.085119511	 1.569005772	-0.008663809	-0.430645
C	 0.0681699551	 0.0635953773	-0.0677765826	 0.022642
C	 0.5887656127	-0.721754839	-1.2293725236	-0.186261
N	 1.3084883469	-0.6920890462	 0.1317918935	-0.131414
C	 2.4375472892	 0.1305333885	-0.4747631512	-0.321195
C	 3.7220127616	-0.5269994102	-0.3956804281	 0.326534
C	 4.7952634975	-1.0658341163	-0.3652903913	-0.387679
C	 1.742993829	-0.0221444221	-1.8722973294	 0.414496
O	 2.1025866323	 0.1460085078	-2.9973169534	-0.293728
H	 0.6101321354	 2.110894694	-0.6516796	 0.140831
H	-1.097204444	 1.8353460262	-0.3281879526	 0.135888
H	 0.0425782602	 1.9245279459	 1.0192979926	 0.137984
H	-0.7447446545	-0.4575160468	 0.4361853241	 0.116279
H	 0.0826160184	-1.5969425217	-1.621629388	 0.126006
H	 2.4963222442	 1.1448025618	-0.0704770821	 0.127766
H	 5.7438026868	-1.5423613312	-0.3304626589	 0.202498
92.4749	126.916	147.9	181.168	280.8782	343.6643	382.544	446.091	477.5594	545.7264	621.3939	640.4285	665.2619	681.5575	752.928	835.4558	881.9592	904.5855	911.0922	984.5683	1047.1447	1073.8681	1086.6863	1121.3373	1159.5069	1176.4764	1252.7543	1301.7626	1325.0614	1411.687	1425.7537	1493.2188	1501.1782	1898.4874	2241.5764	3044.7357	3072.7768	3106.3276	3116.1751	3138.8435	3182.2255	3503.6028
CC1C2N1C(C#C)C2=O	C[C@H]1[C@@H]2N1[C@@H](C#C)C2=O	
InChI=1S/C7H7NO/c1-3-5-7(9)6-4(2)8(5)6/h1,4-6H,2H3	InChI=1S/C7H7NO/c1-3-5-7(9)6-4(2)8(5)6/h1,4-6H,2H3/t4-,5-,6-,8?/m0/s1
