18
gdb 15729	3.32822	1.67394	1.28284	3.943	63.67	-0.2428	0.0594	0.3023	973.3455	0.154336	-422.071424	-422.063251	-422.062307	-422.104314	30.194	
O	-0.101705214	 1.451395025	 0.0181243638	-0.430365
C	 0.0265909328	 0.0411085005	-0.0098785273	-0.06707
C	-1.341251631	-0.616005429	 0.1483079386	 0.115566
O	-2.1969973672	-0.128757893	-0.9041273937	-0.295999
C	-2.7667413607	-1.2258152868	-1.6143356871	-0.061393
C	-2.7243952434	-2.3968559379	-0.6307790227	-0.249921
C	-1.3778245285	-2.1518279504	 0.0696089253	 0.071971
O	-0.2821629392	-2.5958360896	-0.7230109383	-0.43217
H	-0.7717863916	 1.6635091105	-0.6427013759	 0.28858
H	 0.4932165697	-0.3084024902	-0.9390352291	 0.105308
H	 0.6793674868	-0.2395736753	 0.82326212	 0.102682
H	-1.7762699221	-0.2881034098	 1.1026419375	 0.081026
H	-3.7781376071	-0.947189495	-1.9245244129	 0.106414
H	-2.1747122496	-1.4539895377	-2.5118513032	 0.101984
H	-3.5438590295	-2.3230570299	 0.0922293475	 0.110229
H	-2.7750219996	-3.3778990857	-1.1120359319	 0.094954
H	-1.3344607446	-2.5970667715	 1.0721687295	 0.071692
H	-0.3305305814	-3.5545987941	-0.7863435599	 0.286512
59.8006	120.3575	187.2563	201.349	285.421	319.4537	396.9898	455.3389	469.6271	492.4299	653.3563	778.8974	809.8516	863.9257	900.6703	924.774	993.0142	1012.4029	1034.8854	1073.1017	1095.0906	1109.0367	1146.6809	1202.8258	1205.9964	1222.7592	1249.4994	1303.7195	1317.563	1344.939	1364.5123	1391.2922	1403.4103	1424.1236	1437.6567	1476.8838	1498.9697	1521.7855	3003.3124	3006.0686	3020.8193	3031.4901	3050.3666	3081.4036	3085.3446	3101.6704	3791.6211	3823.9182
OCC1OCCC1O	OC[C@H]1OCC[C@H]1O	
InChI=1S/C5H10O3/c6-3-5-4(7)1-2-8-5/h4-7H,1-3H2	InChI=1S/C5H10O3/c6-3-5-4(7)1-2-8-5/h4-7H,1-3H2/t4-,5-/m1/s1
