19
gdb 32468	4.78994	0.88723	0.78901	3.6098	82.09	-0.1826	0.035	0.2175	1503.2528	0.158287	-419.234471	-419.224585	-419.223641	-419.270441	34.59	
C	-0.1958785062	 1.5523597597	-0.0696130153	-0.370915
C	 0.0693050829	 0.0380822838	 0.0008320929	-0.305824
C	 0.8031715174	-0.495753887	-1.1820782935	 0.317232
C	 2.0184418751	-1.0480935161	-1.2919915824	-0.150077
O	 2.282103286	-1.3806888532	-2.6131031651	-0.223781
C	 1.1737967091	-1.0364087858	-3.3658760259	 0.514415
N	 0.2827280645	-0.4613847165	-2.4793216381	-0.427438
N	 1.0052549419	-1.210742308	-4.6048917627	-0.389189
C	 2.0780906909	-1.8430000921	-5.3531725451	-0.316161
H	 0.7438687853	 2.1083878545	-0.1319506783	 0.130583
H	-0.7955166358	 1.8144485427	-0.9468400201	 0.12028
H	-0.7379964757	 1.8890109342	 0.8186710381	 0.121385
H	 0.6545707669	-0.1957974675	 0.8956856419	 0.121299
H	-0.8860085108	-0.4934854367	 0.110040814	 0.115067
H	 2.7919109901	-1.2581913834	-0.5748354221	 0.142684
H	-0.6523367993	-0.2173815987	-2.7510005904	 0.268095
H	 1.7166334178	-2.085238944	-6.3563009193	 0.112344
H	 2.9494780719	-1.1815327703	-5.4655807133	 0.110459
H	 2.4373379579	-2.7714089258	-4.8865877253	 0.109542
34.397	76.2015	78.2518	158.3737	180.5231	220.5417	238.2089	298.1787	345.4256	411.7095	509.9878	609.4142	662.1006	695.6522	732.1077	736.4717	789.761	897.8355	953.0413	1009.4852	1065.7346	1076.0888	1089.5295	1102.319	1123.9847	1148.3028	1217.8697	1245.821	1280.2532	1352.994	1366.3919	1410.9842	1433.9883	1447.7755	1480.0231	1492.0804	1496.647	1501.2397	1506.0035	1713.2121	1810.1932	2986.3768	3015.7584	3030.4501	3042.5623	3078.3541	3092.8776	3114.1056	3120.4432	3298.2241	3701.8977
CCC1=COC(N1)=NC	CCc1coc(=NC)[nH]1	
InChI=1S/C6H10N2O/c1-3-5-4-9-6(7-2)8-5/h4H,3H2,1-2H3,(H,7,8)	InChI=1S/C6H10N2O/c1-3-5-4-9-6(7-2)8-5/h4H,3H2,1-2H3,(H,7,8)
