19
gdb 64761	3.29273	1.14178	1.07026	1.9469	83.04	-0.2324	0.0114	0.2438	1212.8074	0.156892	-385.863384	-385.854209	-385.853265	-385.897354	34.619	
C	 0.1230525702	 1.4765401003	-0.0886220427	-0.413007
C	-0.0360538084	-0.0445690222	 0.0095796472	 0.327337
C	-1.5372070005	-0.461202416	-0.0208520198	-0.371343
C	-2.2628247917	 0.0025090651	-1.195590455	 0.319641
C	-2.8662801931	 0.3886914925	-2.1607334195	-0.451089
O	 0.6382245757	-0.6578086969	-1.1004843478	-0.297944
C	 1.6203963182	-1.585486483	-0.6521201799	-0.128602
C	 1.5811802078	-1.5024446527	 0.8474180758	-0.101607
C	 0.6508853519	-0.6334724046	 1.2204982166	-0.121163
H	 1.1825741188	 1.7432209575	-0.067610882	 0.11754
H	-0.3158022544	 1.838470479	-1.0212925566	 0.141801
H	-0.3790522698	 1.9767545383	 0.7465205359	 0.107953
H	-1.5824397132	-1.5546774418	 0.0347431099	 0.130176
H	-2.0242931499	-0.0793801705	 0.8860611717	 0.122005
H	-3.3972956502	 0.7231425188	-3.0170212041	 0.192809
H	 1.3870015715	-2.5968104236	-1.0219883618	 0.106226
H	 2.6049623745	-1.3134052646	-1.0632067937	 0.107934
H	 2.2327980329	-2.0786641112	 1.4922480827	 0.108283
H	 0.3848806298	-0.3553972044	 2.2327602031	 0.10305
67.0841	86.4023	138.2232	226.4927	239.8561	316.7633	340.4756	363.4011	372.5755	454.7648	530.5848	612.2506	634.9667	686.4074	740.0634	782.318	824.6969	865.6308	915.7614	927.7919	958.9648	963.7075	985.4837	1046.5286	1057.5158	1111.954	1133.7489	1173.9696	1194.5211	1204.036	1271.1911	1324.6117	1361.6735	1380.5812	1402.3435	1457.7955	1486.9356	1491.6754	1522.2264	1693.1955	2237.4693	2973.8519	2991.9955	3021.7468	3041.58	3065.2347	3114.1339	3134.6235	3203.039	3227.9146	3506.9492
CC1(CC#C)OCC=C1	C[C@@]1(CC#C)OCC=C1	
InChI=1S/C8H10O/c1-3-5-8(2)6-4-7-9-8/h1,4,6H,5,7H2,2H3	InChI=1S/C8H10O/c1-3-5-8(2)6-4-7-9-8/h1,4,6H,5,7H2,2H3/t8-/m0/s1
