16
gdb 25781	4.0736	1.12586	0.88818	2.2732	76.36	-0.2324	-0.0309	0.2015	1272.3485	0.125308	-434.116074	-434.107645	-434.106701	-434.149333	31.133	
C	 0.7698823369	 1.158111574	-0.5084452085	-0.492552
C	 0.0772187678	-0.0978353124	-0.1010028792	 0.249635
C	-1.2288765614	-0.4514690217	-0.2224677079	-0.117372
O	-1.3942814624	-1.7018478674	 0.2946716794	-0.151682
C	-0.1646113026	-2.0570646631	 0.7136834264	 0.424173
N	 0.7469246124	-1.1517261687	 0.5075817737	-0.370388
C	 0.0392866081	-3.3729972616	 1.3512352333	 0.23407
N	 1.3737982955	-3.6356737725	 1.5753150591	-0.549581
N	-0.9737909331	-4.1157218781	 1.5919181763	-0.511951
H	 1.2308300194	 1.6483180573	 0.3553723573	 0.140586
H	 1.568669457	 0.9481294942	-1.2272662361	 0.141556
H	 0.0697733921	 1.8600243689	-0.9682701866	 0.127786
H	-2.1089128971	 0.0244139855	-0.6199584884	 0.150149
H	 1.998758685	-2.844635382	 1.5213952764	 0.269979
H	 1.5974513414	-4.3352993399	 2.2641624709	 0.249694
H	-0.6854911289	-4.9929852626	 2.029443724	 0.205898
75.0111	129.7706	158.5138	174.5607	302.6126	332.6153	385.2684	405.194	487.7141	531.9782	609.8497	629.4239	659.8428	711.3608	770.0582	791.098	864.6635	977.8394	1008.2527	1029.8965	1067.9305	1097.0596	1134.6598	1153.3888	1220.7612	1291.9272	1333.1308	1418.6338	1453.8164	1476.5322	1491.7682	1573.607	1621.5111	1633.0161	1720.4555	3039.8544	3096.5417	3124.1776	3291.3213	3456.3128	3573.3187	3698.7939
CC1=COC(=N1)C(N)=N	Cc1coc(n1)C(=N)N	
InChI=1S/C5H7N3O/c1-3-2-9-5(8-3)4(6)7/h2H,1H3,(H3,6,7)	InChI=1S/C5H7N3O/c1-3-2-9-5(8-3)4(6)7/h2H,1H3,(H3,6,7)
