19
gdb 84095	2.56073	1.49736	1.1042	2.7325	76.78	-0.2271	0.01	0.2371	1136.5392	0.158058	-423.018329	-423.009366	-423.008422	-423.051345	34.665	
C	-0.0634379319	 1.5156515366	 0.0358276318	-0.512334
C	-0.0307820658	 0.0239088147	-0.045435094	 0.267676
C	-0.0009598454	-0.7563372895	-1.1289856137	-0.239884
C	-0.0128450846	-2.2390828467	-0.7919469059	 0.087065
O	 1.0056568934	-2.9913538418	-1.4409431447	-0.431606
C	 0.0476134854	-2.2452349069	 0.7376352715	-0.112468
C	 1.260980123	-1.6159574804	 1.4078341464	-0.360627
C	-0.0101322772	-0.820269496	 1.2063072301	 0.313657
O	-0.8013394519	-0.4487220093	 2.2936943125	-0.465306
H	 0.8258068037	 1.9064220624	 0.5484176833	 0.121815
H	-0.1149414039	 1.9741953494	-0.9544791864	 0.128998
H	-0.9323768846	 1.8465936569	 0.6167908404	 0.138146
H	 0.0545686813	-0.4121722942	-2.1560932122	 0.094506
H	-0.9431469926	-2.7090850208	-1.1343589239	 0.095149
H	 1.8531161565	-2.6586594526	-1.124457233	 0.274862
H	-0.4646171616	-3.0231342015	 1.289340827	 0.098418
H	 1.4644263035	-1.9673612421	 2.414572488	 0.11453
H	 2.1403848813	-1.352236179	 0.8269250533	 0.101727
H	-0.2980774586	 0.1686612609	 2.8348731894	 0.285676
137.8951	152.6403	181.5274	226.4823	242.7167	258.3459	308.4342	337.2349	412.2793	468.4752	521.5829	555.628	607.6068	672.2945	722.6373	814.2791	844.756	893.2918	942.0212	962.6778	979.6258	1004.8752	1053.1921	1063.4397	1065.2049	1071.4446	1089.6391	1140.4067	1224.4713	1243.7104	1267.266	1307.6572	1329.3497	1351.5296	1393.1134	1408.253	1425.5269	1474.5975	1477.1082	1490.524	1712.6792	3017.0116	3032.1624	3068.8218	3112.3838	3120.0599	3191.6628	3193.7818	3206.5241	3796.7701	3803.9162
CC1=CC(O)C2CC12O	CC1=C[C@@H](O)[C@H]2C[C@@]12O	
InChI=1S/C7H10O2/c1-4-2-6(8)5-3-7(4,5)9/h2,5-6,8-9H,3H2,1H3	InChI=1S/C7H10O2/c1-4-2-6(8)5-3-7(4,5)9/h2,5-6,8-9H,3H2,1H3/t5-,6-,7-/m1/s1
