20
gdb 90873	3.23412	1.46458	1.24137	2.1687	76.97	-0.2263	0.0712	0.2974	1055.4662	0.17402	-403.108758	-403.10137	-403.100426	-403.140242	30.399	
O	-0.2078203734	 1.545851473	-0.1813406092	-0.443247
C	 0.0349209268	 0.1534085646	 0.0023433796	 0.112489
C	-1.3477785601	-0.4953093072	 0.19854066	-0.229606
C	-1.5042183465	-1.9404059268	-0.2478428953	-0.007512
C	-0.6510778632	-2.5516885356	-1.2798940757	-0.052877
C	 0.768027146	-1.9878208038	-1.1271349398	-0.051936
C	 0.7562560689	-2.6651326773	 0.2759866653	-0.165073
N	-0.6708698602	-3.1107719557	 0.1353821572	-0.161126
C	 0.8123980661	-0.4572259061	-1.1733760687	-0.244136
H	 0.6446449472	 1.9903542937	-0.2326839061	 0.278168
H	 0.6283431761	 0.0128840662	 0.9169386048	 0.071127
H	-1.6657131893	-0.3797024192	 1.2407501764	 0.109568
H	-2.0517643642	 0.093343341	-0.402862493	 0.123097
H	-2.5453376828	-2.2556100823	-0.2678488859	 0.096695
H	-1.0273443616	-3.1112551986	-2.1306196295	 0.087624
H	 1.497226493	-2.4303815258	-1.8076640885	 0.076786
H	 1.390442314	-3.5537195765	 0.3140679957	 0.108639
H	 0.9605965151	-2.0576477935	 1.1622978302	 0.10148
H	 0.3666524995	-0.1053489547	-2.1125232859	 0.106137
H	 1.8476669285	-0.0919142855	-1.1512395915	 0.083704
124.2789	207.9511	281.2382	337.7746	352.0451	364.1753	441.8132	463.5792	550.8788	699.143	726.9793	747.4201	773.6625	838.2944	871.6782	878.6768	942.2464	954.398	1003.5549	1006.7514	1032.2643	1069.5167	1074.4727	1084.0696	1106.1117	1134.6439	1170.2262	1184.736	1228.8321	1244.5729	1270.2533	1290.8453	1298.9119	1309.0838	1332.991	1348.0403	1369.8254	1402.5881	1429.4618	1448.6418	1479.8675	1491.0349	1508.0045	2982.9377	3012.4912	3032.4665	3055.711	3058.1177	3071.6052	3088.4409	3107.4056	3130.7188	3157.3781	3812.9915
OC1CC2C3C(CN23)C1	O[C@H]1C[C@H]2[C@H]3[C@H](CN23)C1	
InChI=1S/C7H11NO/c9-5-1-4-3-8-6(2-5)7(4)8/h4-7,9H,1-3H2	InChI=1S/C7H11NO/c9-5-1-4-3-8-6(2-5)7(4)8/h4-7,9H,1-3H2/t4-,5+,6-,7+,8?/m0/s1
