21
gdb 72408	3.07672	1.48475	1.37218	1.4024	77.8	-0.2369	0.0872	0.3241	1061.8051	0.182714	-424.245615	-424.237307	-424.236362	-424.277671	33.513	
C	 0.0682805937	 1.4691914199	 0.0649721959	-0.47874
C	-0.0296701356	-0.0339512765	-0.0368826224	 0.371043
C	 0.5853519457	-0.6880266655	-1.2883795046	-0.100357
O	 0.0701521366	-2.0303817661	-1.2529040282	-0.313991
C	-0.7518402806	-2.1178882024	-0.0682426186	 0.371049
C	-1.6089866827	-3.3582943203	-0.1463553238	-0.478742
C	 0.2043901975	-2.0075789575	 1.1341540827	-0.10036
O	 0.6272239652	-0.6332597393	 1.1015692433	-0.31399
C	-1.4040358793	-0.7252527758	-0.0209002515	-0.298632
H	 1.1152946958	 1.7877003583	 0.0566570209	 0.128498
H	-0.4454271004	 1.9476666747	-0.7739881875	 0.118159
H	-0.3833735769	 1.8171285296	 0.9978744032	 0.127816
H	 0.2795287581	-0.1985276043	-2.2228384687	 0.09146
H	 1.6796229429	-0.6948971914	-1.2275973045	 0.103377
H	-0.9838548801	-4.2555644096	-0.1896479595	 0.128488
H	-2.2611654121	-3.433085043	 0.7287206049	 0.118162
H	-2.2297586326	-3.335209072	-1.0460585474	 0.127825
H	-0.2857244736	-2.2216336233	 2.0934869053	 0.091461
H	 1.0637328528	-2.6767994323	 1.0123117967	 0.103378
H	-1.9629371731	-0.5219953849	 0.8953205445	 0.102048
H	-2.0191409314	-0.5222187482	-0.9004270308	 0.102049
196.1004	199.5884	202.4773	226.7053	256.1147	312.4205	363.3897	429.4623	442.8454	490.6477	568.7654	620.0514	638.5717	788.7661	823.3498	874.1684	882.4276	895.3217	895.4432	975.3701	1000.8017	1006.1096	1022.7642	1049.2645	1060.9344	1134.0376	1175.0297	1183.3991	1229.1228	1230.5949	1237.3273	1258.3776	1270.3584	1302.7253	1380.8291	1388.0889	1413.0617	1418.145	1477.1835	1480.687	1482.3618	1496.0603	1497.6357	1511.8912	1519.7047	3006.4724	3009.2145	3042.6911	3042.9285	3060.5803	3062.1826	3070.3665	3112.6841	3112.9177	3120.9457	3121.3319	3131.2296
CC12COC(C)(CO1)C2	C[C@@]12CO[C@@](C)(CO1)C2	
InChI=1S/C7H12O2/c1-6-3-7(2,5-8-6)9-4-6/h3-5H2,1-2H3	InChI=1S/C7H12O2/c1-6-3-7(2,5-8-6)9-4-6/h3-5H2,1-2H3/t6-,7-/m1/s1
