27
gdb 118682	2.02235	1.01542	0.93583	0.0553	96.67	-0.2483	0.0789	0.3272	1554.9048	0.249933	-353.561457	-353.549749	-353.548805	-353.598016	43.244	
C	-0.7209356497	 0.4315591061	 3.5307013622	-0.379307
C	-0.6398611888	-0.9129239531	 2.8022301774	-0.166953
C	-1.5923091995	-0.9908918759	 1.5979244153	-0.246313
C	-1.5719787621	-2.3200494908	 0.8525336061	 0.330327
C	-0.2371977608	-2.640815886	 0.1969217445	-0.457559
C	-2.3759038726	-3.5081231117	 1.3598216813	-0.047497
C	-3.1936535389	-3.5006076615	 2.6353828334	-0.414868
C	-2.8087996059	-2.7841198391	 0.0973027272	-0.070528
C	-4.0956998723	-1.990836981	-0.0043320198	-0.413963
H	-0.0318760605	 0.4690148197	 4.380404553	 0.109027
H	-0.4675367423	 1.2607158917	 2.860351285	 0.112432
H	-1.7312221477	 0.6161053422	 3.9134263029	 0.111178
H	 0.3920445331	-1.0817212523	 2.4731775943	 0.097638
H	-0.8731861471	-1.7258610027	 3.5009353816	 0.098479
H	-2.6039395134	-0.758859957	 1.9453664859	 0.088192
H	-1.3344062259	-0.1894295673	 0.8898776127	 0.087605
H	 0.5629603629	-2.7692435352	 0.9342785063	 0.114121
H	-0.2967442864	-3.567496733	-0.3826211792	 0.108596
H	 0.0692911661	-1.8405271828	-0.4884139927	 0.107866
H	-1.8998858663	-4.4710499788	 1.183417344	 0.071954
H	-3.6514055843	-2.5310566844	 2.8448503173	 0.114366
H	-4.0036144536	-4.2374467305	 2.5818473227	 0.113475
H	-2.5727475327	-3.7610690457	 3.4998931735	 0.115767
H	-2.5837481437	-3.3164838861	-0.8251391129	 0.072527
H	-4.3812668642	-1.5107626644	 0.9341070688	 0.115129
H	-4.0144309212	-1.2039379237	-0.7629819837	 0.114725
H	-4.9258019023	-2.6437958365	-0.2971760972	 0.113584
77.7034	81.6087	115.8314	164.6614	166.2555	192.5043	209.4011	239.1361	250.3296	265.7044	283.6059	338.4602	389.6033	468.7127	499.6341	540.6426	713.9895	743.033	769.3776	788.4087	876.7112	897.374	938.663	981.5313	998.8722	1037.4114	1039.6645	1049.1701	1055.1146	1103.6266	1121.3311	1140.3427	1144.7485	1181.1245	1186.7772	1247.1223	1288.7283	1305.4346	1333.6186	1345.0697	1377.8581	1395.8416	1413.0968	1413.4575	1415.7981	1422.0214	1456.6103	1478.6236	1488.1666	1492.0542	1495.2016	1496.044	1500.5305	1500.6779	1503.4617	1510.4975	1518.1965	3001.7223	3018.0553	3026.9131	3027.7055	3030.1793	3031.3606	3054.6197	3074.9399	3079.052	3080.5957	3082.4549	3093.0624	3096.4246	3099.2548	3100.8508	3112.649	3118.6742	3130.4149
CCCC1(C)C(C)C1C	CCC[C@@]1(C)[C@@H](C)[C@H]1C	
InChI=1S/C9H18/c1-5-6-9(4)7(2)8(9)3/h7-8H,5-6H2,1-4H3	InChI=1S/C9H18/c1-5-6-9(4)7(2)8(9)3/h7-8H,5-6H2,1-4H3/t7-,8+,9-
