16
gdb 127975	4.89802	1.08065	0.89513	0.9103	79.65	-0.2465	-0.086	0.1606	1281.6552	0.122776	-434.045159	-434.036481	-434.035536	-434.079089	30.796	
C	 0.2519845092	 1.4275249964	 0.1418450926	-0.327752
N	 0.2414455452	-0.0264271573	 0.1161202582	-0.306347
C	 0.3976232821	-0.6111530907	-0.9980743664	 0.4076
O	 0.5763680598	 0.07405527	-2.1760500014	-0.29123
N	 0.7442991793	-0.610568109	-3.3960778173	-0.123696
C	 0.7233836101	-1.8960778298	-3.3476996763	 0.39274
C	 0.9004828112	-2.6324288353	-4.6391809603	-0.45129
N	 0.550807954	-2.6972661503	-2.2067532676	-0.272975
C	 0.3982482794	-2.0630491256	-1.1036281877	-0.021255
H	 1.204804579	 1.8313275543	-0.2254684447	 0.134423
H	-0.5370974624	 1.8499340331	-0.4942774432	 0.13434
H	 0.0978722942	 1.7680068771	 1.1674755452	 0.12546
H	 1.0269436429	-1.9353767962	-5.4674942317	 0.149567
H	 1.7732697837	-3.2899876504	-4.5726869542	 0.14841
H	 0.0302407977	-3.2708393999	-4.8227162707	 0.148409
H	 0.2586124646	-2.6128102162	-0.1748280043	 0.153597
49.868	101.9896	170.046	185.2325	190.1973	315.9055	333.465	372.9387	427.6561	560.7071	579.987	614.8922	741.543	772.2652	787.1829	926.2338	962.6518	984.9869	1037.378	1069.4281	1069.7835	1099.8732	1165.4461	1279.8971	1286.3421	1365.9188	1412.6709	1431.9028	1468.2647	1471.6739	1482.5941	1494.2321	1611.4279	1684.2222	1725.3609	3006.3626	3046.7485	3057.268	3105.2629	3119.6173	3159.7834	3163.063
CN=C1ON=C(C)N=C1	CN=c1onc(C)nc1	
InChI=1S/C5H7N3O/c1-4-7-3-5(6-2)9-8-4/h3H,1-2H3	InChI=1S/C5H7N3O/c1-4-7-3-5(6-2)9-8-4/h3H,1-2H3
