16
gdb 39615	2.72023	1.77179	1.18614	0.9587	78.43	-0.2358	-0.0309	0.205	1010.0533	0.125524	-400.698836	-400.691272	-400.690327	-400.73056	29.097	
C	 0.0333955112	 1.4919899958	-0.0536084144	-0.224067
C	 1.469332654	 1.9893735021	-0.0456178326	-0.037565
C	 2.2476578609	 1.9672392371	 1.0530507413	-0.193724
C	 1.7024111741	 1.4059812863	 2.2315295307	 0.194926
C	 0.9703038758	 0.8596810676	 3.025178247	-0.064846
C	-0.2372729146	 0.1115519211	 3.3641991347	-0.213636
O	-1.0732717172	 0.0796855207	 2.1857088294	-0.226286
C	-0.4841650614	-0.526584211	 1.0952796246	 0.113482
N	-0.025919599	 0.0297222615	 0.0628702319	-0.201498
H	-0.5261969811	 1.9914326909	 0.7475022307	 0.124512
H	-0.4283040103	 1.7537843101	-1.0103257316	 0.111752
H	 1.8753910814	 2.3867246463	-0.9711495366	 0.107493
H	 3.2641351575	 2.3455215949	 1.032588559	 0.116326
H	-0.0071443063	-0.9097202771	 3.69845752	 0.134301
H	-0.8419948749	 0.5910705328	 4.1382959321	 0.148545
H	-0.4619108	-1.6177777191	 1.1659984338	 0.110285
158.1724	179.0553	213.2715	254.7137	306.6934	337.4921	407.3624	485.4911	561.98	628.2901	661.3603	696.8303	740.7387	822.0047	894.9973	942.9429	949.0275	974.9293	983.5115	1026.6242	1054.3669	1080.1946	1169.4989	1223.1354	1251.0594	1264.3259	1351.0277	1364.1922	1401.3947	1408.7705	1481.0519	1492.2977	1635.176	1732.7858	2302.2849	3012.5063	3021.8724	3080.1292	3092.7815	3093.7509	3169.948	3190.502
C1C=CC#CCOC=N1	C1[CH]C=C=[C]COC=N1	
InChI=1S/C7H7NO/c1-2-4-6-9-7-8-5-3-1/h1,3,7H,5-6H2/b3-1-,8-7-	InChI=1S/C7H7NO/c1-2-4-6-9-7-8-5-3-1/h1,3,7H,5-6H2/b3-1?,8-7-
