20
gdb 22287	3.72543	1.00811	0.98244	1.2639	84.75	-0.2268	0.0154	0.2422	1309.9189	0.169062	-403.085025	-403.075808	-403.074864	-403.118457	35.552	
C	 0.0013534788	 1.5441510899	-0.036476823	-0.461131
C	 0.084283395	 0.028526322	-0.0529404403	 0.325469
C	-1.1360670591	-0.6441070153	 0.5578191813	-0.454055
C	 0.7159342464	-0.7512580672	-1.1703752863	-0.096943
C	 1.9354016418	-0.0351275121	-1.7825364035	-0.349939
C	 2.5472606645	-0.0325455522	-0.3853793304	 0.434414
N	 3.6795629398	 0.2556242564	 0.1065651814	-0.270448
O	 4.517292858	 0.8277367357	-0.8756971298	-0.396341
C	 1.3836828371	-0.7192575062	 0.2340232598	-0.190056
H	 0.9011031677	 2.0226522063	-0.4278094042	 0.130279
H	-0.8528948594	 1.8903856113	-0.6300570607	 0.11404
H	-0.1404160016	 1.9044935411	 0.9885440491	 0.119272
H	-2.0428513451	-0.3738701672	 0.0049867692	 0.118664
H	-1.0461573204	-1.7347971224	 0.5426661127	 0.115987
H	-1.2756718819	-0.3319976686	 1.5986379713	 0.120428
H	 0.2097384523	-1.5900117069	-1.632741669	 0.09114
H	 2.516958155	-0.6745847582	-2.4531448243	 0.130133
H	 1.7702155778	 0.9269077151	-2.274929888	 0.118633
H	 5.3315673246	 0.972894807	-0.382842372	 0.304592
H	 1.4361383085	-1.4806911386	 1.0026174566	 0.095861
86.2	165.1591	182.9067	229.1911	235.7344	288.7753	305.7621	345.7207	368.0552	432.0478	453.8006	501.666	596.9791	659.8859	707.9358	819.8162	837.4468	881.6708	927.558	962.6538	969.8987	973.592	1013.2965	1032.3496	1041.0973	1047.2227	1103.7284	1148.5489	1177.6013	1197.6774	1242.2981	1275.9136	1296.9786	1393.5661	1409.1315	1410.4203	1427.6338	1469.188	1482.596	1491.8595	1503.1885	1511.3291	1780.3401	3025.7167	3031.2842	3058.986	3086.0371	3090.4898	3102.0847	3104.3304	3125.9871	3182.0647	3192.0126	3822.2151
CC1(C)C2CC(=NO)C12	CC1(C)[C@H]2CC(=NO)[C@@H]12	
InChI=1S/C7H11NO/c1-7(2)4-3-5(8-9)6(4)7/h4,6,9H,3H2,1-2H3	InChI=1S/C7H11NO/c1-7(2)4-3-5(8-9)6(4)7/h4,6,9H,3H2,1-2H3/t4-,6-/m0/s1
