23
gdb 58753	2.4147	1.36409	1.17229	1.6848	85.62	-0.2314	0.0822	0.3136	1224.8929	0.203869	-388.240709	-388.231035	-388.230091	-388.274901	37.178	
C	-0.0863485378	 1.5072052184	 0.0966533999	-0.393438
C	 0.0698565172	-0.0175924841	 0.0171996942	-0.116158
C	 0.7178765335	-0.4622384548	-1.3019822832	-0.395685
C	 0.8522545323	-0.5446343922	 1.191313784	 0.444975
C	 2.2796801663	-0.1861618776	 1.6953549348	-0.27102
C	 1.5681957406	-1.0473672229	 2.7588402902	 0.028032
O	 0.3462179192	-0.2352391693	 2.5635321373	-0.358451
C	 1.0882361268	-2.0226705029	 1.6519179031	-0.01256
C	-0.1100031089	-2.9136479493	 1.9175818135	-0.433196
H	 0.8832292513	 2.0060774146	-0.0120278122	 0.11314
H	-0.7401961367	 1.8705895062	-0.7023417603	 0.108102
H	-0.5125604014	 1.8045081848	 1.0578954919	 0.137336
H	-0.9297589656	-0.4695581279	 0.0820216192	 0.086185
H	 1.7261570654	-0.0452122395	-1.4040667543	 0.118281
H	 0.7969158226	-1.5521328182	-1.36652567	 0.117196
H	 0.1270196001	-0.1166363132	-2.1556125293	 0.115963
H	 3.1373778195	-0.6143263313	 1.1698783214	 0.091335
H	 2.4241274095	 0.857890127	 1.9741750889	 0.104706
H	 1.8642927652	-1.258435	 3.7870595189	 0.088688
H	 1.8913711665	-2.5452902267	 1.1209706356	 0.065018
H	-0.8840818765	-2.3588858918	 2.4519944044	 0.136471
H	-0.5348267848	-3.2930829346	 0.9815570876	 0.112512
H	 0.1758170759	-3.7823352648	 2.5207659144	 0.112567
57.9693	140.5751	173.6718	212.6785	219.034	237.4154	269.6127	293.4921	340.1205	427.8958	463.5924	527.4308	607.0344	677.1181	743.9344	789.2945	803.7829	873.7994	908.3377	930.9922	934.4898	963.5874	979.5188	1018.235	1035.0203	1065.8514	1091.9312	1124.9579	1138.637	1147.8463	1170.3305	1183.4404	1211.7564	1218.5029	1245.464	1315.6247	1341.4445	1367.2486	1391.9999	1396.3997	1412.3898	1419.8359	1487.0538	1487.9981	1489.9559	1499.4425	1501.4596	1505.5757	1513.1843	3011.7028	3030.4653	3032.98	3035.7773	3047.6147	3063.4487	3088.737	3096.4422	3101.3171	3107.1117	3111.07	3124.4923	3131.9933	3148.1942
CC(C)C12CC(O1)C2C	CC(C)[C@@]12C[C@@H](O1)[C@H]2C	
InChI=1S/C8H14O/c1-5(2)8-4-7(9-8)6(8)3/h5-7H,4H2,1-3H3	InChI=1S/C8H14O/c1-5(2)8-4-7(9-8)6(8)3/h5-7H,4H2,1-3H3/t6-,7-,8-/m1/s1
