20
gdb 119633	4.20775	0.89189	0.82225	1.4645	74.58	-0.2456	0.0775	0.3232	1425.855	0.172187	-440.257653	-440.248906	-440.247962	-440.291582	32.661	
O	 0.0893047276	 1.4468740136	 0.1713409126	-0.417722
C	 0.0283829404	 0.0318116202	 0.2407356396	-0.061234
C	-1.2913948199	-0.5275569918	-0.3049624057	-0.302119
C	-1.3657916788	-2.0322650855	-0.2271477457	 0.318794
C	-0.4786788248	-2.8949415854	-1.1192892	-0.151039
O	-1.0110473287	-4.2135181885	-1.0344432556	-0.258887
C	-2.4203766803	-4.1035797935	-0.8446939076	-0.109053
C	-2.6090943916	-2.8288933222	-0.0457052157	-0.099982
N	-1.6899543635	-2.626138679	 1.0825207165	-0.374713
H	-0.583464058	 1.7977612656	 0.763637149	 0.282081
H	 0.8719635343	-0.32588663	-0.3600658783	 0.11023
H	 0.1805098955	-0.3325080823	 1.2677768102	 0.104952
H	-2.1201289781	-0.1072254298	 0.2773323877	 0.098413
H	-1.4191171357	-0.193576751	-1.3419298486	 0.105202
H	-0.5079906896	-2.5119541193	-2.1530802697	 0.097609
H	 0.5683938543	-2.9477814791	-0.8020271533	 0.113827
H	-2.9553867605	-4.0291575104	-1.805601695	 0.098715
H	-2.7525593855	-5.0131759834	-0.3330204467	 0.114885
H	-3.5964116861	-2.3866130708	 0.0425756165	 0.094788
H	-1.1404692707	-3.4723155075	 1.2296625097	 0.23525
70.3668	97.1264	118.9342	244.1757	273.2679	292.6979	332.3036	345.7303	418.7339	454.385	669.4787	709.2001	770.4179	779.7708	872.1025	900.3773	935.5588	965.7509	991.5704	1021.3346	1040.0791	1074.6458	1078.1473	1090.1266	1109.2563	1125.0587	1172.3744	1183.2477	1224.2394	1254.9355	1290.8987	1302.2299	1318.6426	1335.3258	1362.1632	1373.0455	1400.3376	1423.1661	1457.3375	1474.647	1506.6586	1512.9166	1518.8044	2968.0894	2976.4595	2995.7593	3027.8461	3056.9931	3066.3292	3069.6612	3082.0014	3164.3584	3467.1139	3815.0622
OCCC12COCC1N2	OCC[C@]12COC[C@H]1N2	
InChI=1S/C6H11NO2/c8-2-1-6-4-9-3-5(6)7-6/h5,7-8H,1-4H2	InChI=1S/C6H11NO2/c8-2-1-6-4-9-3-5(6)7-6/h5,7-8H,1-4H2/t5-,6+/m1/s1
