15
gdb 18953	6.6355	1.50905	1.46492	4.0451	67.33	-0.233	0.0194	0.2524	864.3281	0.11953	-362.585554	-362.579369	-362.578425	-362.616015	23.859	
O	 0.0592559848	 0.0194045514	-0.4446279105	-0.318969
C	 0.0306495587	 1.1917951978	-0.1381825388	 0.128029
N	 1.0535040239	 1.8703134998	 0.4666365187	-0.080519
C	 2.5064823551	 1.6471093154	 0.2423639187	-0.006107
C	 2.6054099863	 2.7186358432	-0.905975171	-0.056024
C	 3.7682549145	 3.4501865715	-0.2067305942	-0.272019
C	 2.8747884317	 2.9869801439	 0.9623890223	-0.054488
C	 1.5619977898	 3.2343551857	 0.1492566314	-0.022879
H	-0.8755794378	 1.8250379764	-0.2418134933	 0.068323
H	 2.979875262	 0.6711605465	 0.3139036355	 0.114642
H	 2.4205524021	 2.5443966395	-1.9662954811	 0.09452
H	 4.7541222306	 2.9840978846	-0.2815401976	 0.108337
H	 3.8402829629	 4.5286785357	-0.370762907	 0.105339
H	 2.9939160445	 3.1221927255	 2.036912868	 0.091516
H	 0.9307705809	 4.1218269331	 0.120161319	 0.100298
100.2528	181.4187	281.5355	400.5648	492.1854	623.0853	724.9616	753.269	817.8828	832.5566	839.1032	879.1658	920.278	961.9688	1005.257	1023.6073	1033.0772	1048.8881	1074.6399	1124.0781	1129.0303	1155.0748	1170.8667	1175.9265	1193.2724	1236.7228	1246.4884	1319.0062	1375.8657	1420.6892	1516.8253	1788.831	2912.6661	3057.1238	3114.7264	3116.3364	3123.4597	3134.447	3162.3775
O=CN1C2C3CC2C13	O=CN1[C@H]2[C@@H]3C[C@H]2[C@H]13	
InChI=1S/C6H7NO/c8-2-7-5-3-1-4(5)6(3)7/h2-6H,1H2	InChI=1S/C6H7NO/c8-2-7-5-3-1-4(5)6(3)7/h2-6H,1H2/t3-,4+,5-,6+
